=
 OpenBabel11072411013D

 30 32  0  0  1  0  0  0  0  0999 V2000
  161.1390  205.5080  150.6930 N   0  0  0  0  0  0  0  0  0  0  0  0
  161.2250  204.7920  149.6070 C   0  0  0  0  0  0  0  0  0  0  0  0
  161.0650  208.9620  152.4320 C   0  0  0  0  0  2  0  0  0  0  0  0
  161.2310  206.9660  150.7610 C   0  0  1  0  0  3  0  0  0  0  0  0
  161.6270  208.7300  148.5170 O   0  0  0  0  0  1  0  0  0  0  0  0
  160.8780  209.8320  151.1990 C   0  0  2  0  0  3  0  0  0  0  0  0
  162.2230  209.9670  150.4900 C   0  0  0  0  0  2  0  0  0  0  0  0
  160.8450  207.4670  152.1710 C   0  0  1  0  0  3  0  0  0  0  0  0
  162.5360  208.7850  149.5760 C   0  0  1  0  0  3  0  0  0  0  0  0
  162.6120  207.4440  150.3120 C   0  0  0  0  0  2  0  0  0  0  0  0
  162.5370  206.1180  153.1020 O   0  0  0  0  0  0  0  0  0  0  0  0
  161.4570  206.6570  153.2800 C   0  0  0  0  0  0  0  0  0  0  0  0
  161.1700  207.4890  155.4760 O   0  0  0  0  0  1  0  0  0  0  0  0
  160.7550  206.4940  154.5900 C   0  0  0  0  0  2  0  0  0  0  0  0
  160.3990  211.2020  151.6400 C   0  0  0  0  0  2  0  0  0  0  0  0
  159.3500  211.0690  152.5510 O   0  0  0  0  0  1  0  0  0  0  0  0
  160.1810  206.8230  146.5610 C   0  0  0  0  0  2  0  0  0  0  0  0
  162.8460  205.6320  146.1870 C   0  0  0  0  0  2  0  0  0  0  0  0
  161.4000  205.4840  148.2760 C   0  0  0  0  0  3  0  0  0  0  0  0
  160.0770  205.6530  147.5270 C   0  0  0  0  0  2  0  0  0  0  0  0
  161.7790  205.3720  145.1350 C   0  0  0  0  0  2  0  0  0  0  0  0
  162.5210  204.8460  147.4510 C   0  0  0  0  0  2  0  0  0  0  0  0
  160.6480  206.4030  145.1640 C   0  0  0  0  0  2  0  0  0  0  0  0
  160.9170  202.6230  150.9680 C   0  0  0  0  0  0  0  0  0  0  0  0
  160.7580  201.2730  150.9630 N   0  0  0  0  0  0  0  0  0  0  0  0
  160.8030  201.1800  148.6230 C   0  0  0  0  0  3  0  0  0  0  0  0
  160.7070  200.5730  149.8300 N   0  0  0  0  0  0  0  0  0  0  0  0
  160.9670  202.5590  148.5630 C   0  0  0  0  0  3  0  0  0  0  0  0
  160.9110  203.3020  152.2190 N   0  0  0  0  0  1  0  0  0  0  0  0
  161.0370  203.3150  149.7400 C   0  0  0  0  0  0  0  0  0  0  0  0
  2 30  1  0  0  0  0
  2  1  2  0  0  0  0
  4  1  1  1  0  0  0
  4  8  1  0  0  0  0
  6 15  1  1  0  0  0
  6  3  1  0  0  0  0
  7  6  1  0  0  0  0
  8  3  1  0  0  0  0
  8 12  1  1  0  0  0
  9  5  1  6  0  0  0
  9 10  1  0  0  0  0
  9  7  1  0  0  0  0
 10  4  1  0  0  0  0
 11 12  2  0  0  0  0
 12 14  1  0  0  0  0
 14 13  1  0  0  0  0
 15 16  1  0  0  0  0
 17 20  1  0  0  0  0
 18 22  1  0  0  0  0
 19  2  1  0  0  0  0
 20 19  1  0  0  0  0
 21 23  1  0  0  0  0
 21 18  1  0  0  0  0
 22 19  1  0  0  0  0
 23 17  1  0  0  0  0
 24 29  1  0  0  0  0
 25 24  1  0  0  0  0
 26 27  1  0  0  0  0
 27 25  2  0  0  0  0
 28 26  2  0  0  0  0
 28 30  1  0  0  0  0
 30 24  2  0  0  0  0
M  END
>  <MODEL>
1

>  <REMARK>
 VINA RESULT:      -6.2      0.000      0.000
  Name = 
  6 active torsions:
  status: ('A' for Active; 'I' for Inactive)
    1  A    between atoms: C_4  and  N_23
    2  A    between atoms: C_5  and  C_29
    3  A    between atoms: C_12  and  C_15
    4  A    between atoms: C_13  and  C_18
    5  A    between atoms: C_13  and  C_19
    6  A    between atoms: C_27  and  C_29
                            x       y       z     vdW  Elec       q    Type
                         _______ _______ _______ _____ _____    ______ ____

>  <TORSDO>
F 6

$$$$
=
 OpenBabel11072411013D

 30 32  0  0  1  0  0  0  0  0999 V2000
  160.5050  208.5580  151.6560 N   0  0  0  0  0  0  0  0  0  0  0  0
  160.4790  209.3050  152.7240 C   0  0  0  0  0  0  0  0  0  0  0  0
  161.1130  205.1280  149.9770 C   0  0  0  0  0  2  0  0  0  0  0  0
  160.8370  207.1350  151.6200 C   0  0  1  0  0  3  0  0  0  0  0  0
  161.3600  205.4740  153.9160 O   0  0  0  0  0  1  0  0  0  0  0  0
  160.9860  204.2470  151.2090 C   0  0  2  0  0  3  0  0  0  0  0  0
  162.2830  204.3380  152.0090 C   0  0  0  0  0  2  0  0  0  0  0  0
  160.6360  206.5690  150.1960 C   0  0  1  0  0  3  0  0  0  0  0  0
  162.3360  205.5620  152.9200 C   0  0  1  0  0  3  0  0  0  0  0  0
  162.2440  206.8920  152.1680 C   0  0  0  0  0  2  0  0  0  0  0  0
  161.7280  208.5070  149.4240 O   0  0  0  0  0  0  0  0  0  0  0  0
  161.1820  207.4610  149.1160 C   0  0  0  0  0  0  0  0  0  0  0  0
  162.2800  206.6280  147.1930 O   0  0  0  0  0  1  0  0  0  0  0  0
  161.0540  207.0890  147.6740 C   0  0  0  0  0  2  0  0  0  0  0  0
  160.7680  202.8140  150.7620 C   0  0  0  0  0  2  0  0  0  0  0  0
  160.7160  202.7530  149.3680 O   0  0  0  0  0  1  0  0  0  0  0  0
  159.8560  207.1180  155.7770 C   0  0  0  0  0  2  0  0  0  0  0  0
  162.1690  208.8900  156.1880 C   0  0  0  0  0  2  0  0  0  0  0  0
  160.7760  208.6840  154.0690 C   0  0  0  0  0  3  0  0  0  0  0  0
  159.5100  208.2240  154.7920 C   0  0  0  0  0  2  0  0  0  0  0  0
  161.0460  208.9090  157.2150 C   0  0  0  0  0  2  0  0  0  0  0  0
  161.7020  209.5700  154.9070 C   0  0  0  0  0  2  0  0  0  0  0  0
  160.1810  207.6460  157.1770 C   0  0  0  0  0  2  0  0  0  0  0  0
  160.6450  211.6560  151.6760 C   0  0  0  0  0  0  0  0  0  0  0  0
  160.1700  212.9280  151.6210 N   0  0  0  0  0  0  0  0  0  0  0  0
  158.5270  212.4880  153.2320 C   0  0  0  0  0  3  0  0  0  0  0  0
  159.1480  213.3340  152.3760 N   0  0  0  0  0  0  0  0  0  0  0  0
  158.9670  211.1730  153.3330 C   0  0  0  0  0  3  0  0  0  0  0  0
  161.7050  211.2890  150.8010 N   0  0  0  0  0  1  0  0  0  0  0  0
  160.0470  210.7260  152.5600 C   0  0  0  0  0  0  0  0  0  0  0  0
  1  2  2  0  0  0  0
  2 19  1  0  0  0  0
  3  8  1  0  0  0  0
  3  6  1  0  0  0  0
  4  1  1  6  0  0  0
  4 10  1  0  0  0  0
  6 15  1  6  0  0  0
  6  7  1  0  0  0  0
  7  9  1  0  0  0  0
  8 12  1  6  0  0  0
  8  4  1  0  0  0  0
  9  5  1  1  0  0  0
 10  9  1  0  0  0  0
 12 11  2  0  0  0  0
 13 14  1  0  0  0  0
 14 12  1  0  0  0  0
 16 15  1  0  0  0  0
 17 23  1  0  0  0  0
 18 21  1  0  0  0  0
 19 20  1  0  0  0  0
 19 22  1  0  0  0  0
 20 17  1  0  0  0  0
 22 18  1  0  0  0  0
 23 21  1  0  0  0  0
 24 30  1  0  0  0  0
 25 24  2  0  0  0  0
 25 27  1  0  0  0  0
 26 28  1  0  0  0  0
 27 26  2  0  0  0  0
 29 24  1  0  0  0  0
 30  2  1  0  0  0  0
 30 28  2  0  0  0  0
M  END
>  <MODEL>
2

>  <REMARK>
 VINA RESULT:      -6.0      3.109      8.098
  Name = 
  6 active torsions:
  status: ('A' for Active; 'I' for Inactive)
    1  A    between atoms: C_4  and  N_23
    2  A    between atoms: C_5  and  C_29
    3  A    between atoms: C_12  and  C_15
    4  A    between atoms: C_13  and  C_18
    5  A    between atoms: C_13  and  C_19
    6  A    between atoms: C_27  and  C_29
                            x       y       z     vdW  Elec       q    Type
                         _______ _______ _______ _____ _____    ______ ____

>  <TORSDO>
F 6

$$$$
=
 OpenBabel11072411013D

 30 32  0  0  1  0  0  0  0  0999 V2000
  160.1960  212.0390  153.0920 N   0  0  0  0  0  0  0  0  0  0  0  0
  160.7850  210.8970  153.3090 C   0  0  0  0  0  0  0  0  0  0  0  0
  157.4390  213.2910  150.6860 C   0  0  0  0  0  2  0  0  0  0  0  0
  159.6500  212.4860  151.8120 C   0  0  1  0  0  3  0  0  0  0  0  0
  161.0960  212.6080  149.3220 O   0  0  0  0  0  1  0  0  0  0  0  0
  158.1220  212.9600  149.3690 C   0  0  2  0  0  3  0  0  0  0  0  0
  159.1720  214.0300  149.0820 C   0  0  0  0  0  2  0  0  0  0  0  0
  158.1180  212.6600  151.9080 C   0  0  1  0  0  3  0  0  0  0  0  0
  160.4940  213.7740  149.8010 C   0  0  1  0  0  3  0  0  0  0  0  0
  160.3670  213.7460  151.3260 C   0  0  0  0  0  2  0  0  0  0  0  0
  158.1460  214.4530  153.4340 O   0  0  0  0  0  0  0  0  0  0  0  0
  157.6740  213.3620  153.1620 C   0  0  0  0  0  0  0  0  0  0  0  0
  155.4860  213.4630  154.0540 O   0  0  0  0  0  1  0  0  0  0  0  0
  156.6760  212.7360  154.0810 C   0  0  0  0  0  2  0  0  0  0  0  0
  157.0790  212.9670  148.2670 C   0  0  0  0  0  2  0  0  0  0  0  0
  157.5330  213.7250  147.1870 O   0  0  0  0  0  1  0  0  0  0  0  0
  160.4320  207.5320  151.5630 C   0  0  0  0  0  2  0  0  0  0  0  0
  162.1020  209.3780  149.9940 C   0  0  0  0  0  2  0  0  0  0  0  0
  160.9090  209.9010  152.1800 C   0  0  0  0  0  3  0  0  0  0  0  0
  160.9100  208.4540  152.6750 C   0  0  0  0  0  2  0  0  0  0  0  0
  162.6640  208.0090  150.3460 C   0  0  0  0  0  2  0  0  0  0  0  0
  162.0650  210.2530  151.2400 C   0  0  0  0  0  2  0  0  0  0  0  0
  161.5780  206.9910  150.7030 C   0  0  0  0  0  2  0  0  0  0  0  0
  160.3470  210.1960  155.7520 C   0  0  0  0  0  0  0  0  0  0  0  0
  160.8530  209.9610  156.9920 N   0  0  0  0  0  0  0  0  0  0  0  0
  163.0350  210.4620  156.3010 C   0  0  0  0  0  3  0  0  0  0  0  0
  162.1520  210.0930  157.2600 N   0  0  0  0  0  0  0  0  0  0  0  0
  162.5770  210.7170  155.0130 C   0  0  0  0  0  3  0  0  0  0  0  0
  158.9570  209.9840  155.5360 N   0  0  0  0  0  1  0  0  0  0  0  0
  161.2150  210.5980  154.7090 C   0  0  0  0  0  0  0  0  0  0  0  0
  1  2  2  0  0  0  0
  2 30  1  0  0  0  0
  3  8  1  0  0  0  0
  4  8  1  0  0  0  0
  4  1  1  1  0  0  0
  6 15  1  6  0  0  0
  6  3  1  0  0  0  0
  7  6  1  0  0  0  0
  7  9  1  0  0  0  0
  8 12  1  1  0  0  0
  9  5  1  6  0  0  0
  9 10  1  0  0  0  0
 10  4  1  0  0  0  0
 12 11  2  0  0  0  0
 12 14  1  0  0  0  0
 13 14  1  0  0  0  0
 16 15  1  0  0  0  0
 17 20  1  0  0  0  0
 18 21  1  0  0  0  0
 18 22  1  0  0  0  0
 19 20  1  0  0  0  0
 19  2  1  0  0  0  0
 21 23  1  0  0  0  0
 22 19  1  0  0  0  0
 23 17  1  0  0  0  0
 24 25  1  0  0  0  0
 25 27  2  0  0  0  0
 26 27  1  0  0  0  0
 28 26  2  0  0  0  0
 29 24  1  0  0  0  0
 30 28  1  0  0  0  0
 30 24  2  0  0  0  0
M  END
>  <MODEL>
3

>  <REMARK>
 VINA RESULT:      -5.9      4.997      7.429
  Name = 
  6 active torsions:
  status: ('A' for Active; 'I' for Inactive)
    1  A    between atoms: C_4  and  N_23
    2  A    between atoms: C_5  and  C_29
    3  A    between atoms: C_12  and  C_15
    4  A    between atoms: C_13  and  C_18
    5  A    between atoms: C_13  and  C_19
    6  A    between atoms: C_27  and  C_29
                            x       y       z     vdW  Elec       q    Type
                         _______ _______ _______ _____ _____    ______ ____

>  <TORSDO>
F 6

$$$$
=
 OpenBabel11072411013D

 30 32  0  0  1  0  0  0  0  0999 V2000
  160.4670  211.1490  151.8840 N   0  0  0  0  0  0  0  0  0  0  0  0
  159.7260  212.2210  151.8810 C   0  0  0  0  0  0  0  0  0  0  0  0
  161.0590  207.7080  153.5470 C   0  0  0  0  0  2  0  0  0  0  0  0
  160.6170  210.2200  153.0030 C   0  0  1  0  0  3  0  0  0  0  0  0
  160.3120  210.8880  155.7900 O   0  0  0  0  0  1  0  0  0  0  0  0
  160.5060  208.0260  154.9270 C   0  0  2  0  0  3  0  0  0  0  0  0
  161.5510  208.8290  155.6980 C   0  0  0  0  0  2  0  0  0  0  0  0
  160.7250  208.7670  152.4900 C   0  0  1  0  0  3  0  0  0  0  0  0
  161.5170  210.3200  155.3690 C   0  0  1  0  0  3  0  0  0  0  0  0
  161.7900  210.6300  153.8950 C   0  0  0  0  0  2  0  0  0  0  0  0
  162.6940  209.2330  151.2840 O   0  0  0  0  0  0  0  0  0  0  0  0
  161.6400  208.6180  151.3070 C   0  0  0  0  0  0  0  0  0  0  0  0
  161.5670  208.3840  148.9540 O   0  0  0  0  0  1  0  0  0  0  0  0
  161.2720  207.7390  150.1550 C   0  0  0  0  0  2  0  0  0  0  0  0
  160.2350  206.7230  155.6540 C   0  0  0  0  0  2  0  0  0  0  0  0
  160.1700  206.9480  157.0290 O   0  0  0  0  0  1  0  0  0  0  0  0
  157.2040  211.6220  154.6690 C   0  0  0  0  0  2  0  0  0  0  0  0
  157.9980  214.4530  154.5380 C   0  0  0  0  0  2  0  0  0  0  0  0
  158.9050  212.5570  153.1040 C   0  0  0  0  0  3  0  0  0  0  0  0
  157.6450  211.6990  153.2150 C   0  0  0  0  0  2  0  0  0  0  0  0
  156.5170  214.1100  154.4850 C   0  0  0  0  0  2  0  0  0  0  0  0
  158.6620  214.0640  153.2230 C   0  0  0  0  0  2  0  0  0  0  0  0
  156.2060  212.7200  155.0470 C   0  0  0  0  0  2  0  0  0  0  0  0
  158.4580  213.3130  149.9190 C   0  0  0  0  0  0  0  0  0  0  0  0
  158.5190  214.0270  148.7630 N   0  0  0  0  0  0  0  0  0  0  0  0
  160.8520  214.2000  148.8780 C   0  0  0  0  0  3  0  0  0  0  0  0
  159.6760  214.4530  148.2560 N   0  0  0  0  0  0  0  0  0  0  0  0
  160.8550  213.4740  150.0640 C   0  0  0  0  0  3  0  0  0  0  0  0
  157.1800  212.9400  150.4190 N   0  0  0  0  0  1  0  0  0  0  0  0
  159.6540  213.0040  150.6100 C   0  0  0  0  0  0  0  0  0  0  0  0
  2  1  2  0  0  0  0
  2 19  1  0  0  0  0
  3  6  1  0  0  0  0
  4  1  1  6  0  0  0
  4 10  1  0  0  0  0
  6 15  1  1  0  0  0
  6  7  1  0  0  0  0
  8 12  1  6  0  0  0
  8  4  1  0  0  0  0
  8  3  1  0  0  0  0
  9  7  1  0  0  0  0
  9  5  1  6  0  0  0
 10  9  1  0  0  0  0
 11 12  2  0  0  0  0
 13 14  1  0  0  0  0
 14 12  1  0  0  0  0
 15 16  1  0  0  0  0
 17 23  1  0  0  0  0
 19 20  1  0  0  0  0
 19 22  1  0  0  0  0
 20 17  1  0  0  0  0
 21 18  1  0  0  0  0
 21 23  1  0  0  0  0
 22 18  1  0  0  0  0
 24 29  1  0  0  0  0
 24 30  1  0  0  0  0
 25 24  2  0  0  0  0
 26 28  1  0  0  0  0
 27 25  1  0  0  0  0
 27 26  2  0  0  0  0
 28 30  2  0  0  0  0
 30  2  1  0  0  0  0
M  END
>  <MODEL>
4

>  <REMARK>
 VINA RESULT:      -5.9      4.549      8.823
  Name = 
  6 active torsions:
  status: ('A' for Active; 'I' for Inactive)
    1  A    between atoms: C_4  and  N_23
    2  A    between atoms: C_5  and  C_29
    3  A    between atoms: C_12  and  C_15
    4  A    between atoms: C_13  and  C_18
    5  A    between atoms: C_13  and  C_19
    6  A    between atoms: C_27  and  C_29
                            x       y       z     vdW  Elec       q    Type
                         _______ _______ _______ _____ _____    ______ ____

>  <TORSDO>
F 6

$$$$
=
 OpenBabel11072411013D

 30 32  0  0  1  0  0  0  0  0999 V2000
  161.5010  208.8170  149.9130 N   0  0  0  0  0  0  0  0  0  0  0  0
  161.5530  209.8760  150.6710 C   0  0  0  0  0  0  0  0  0  0  0  0
  160.9970  205.0000  149.5580 C   0  0  0  0  0  2  0  0  0  0  0  0
  161.4310  207.4350  150.3840 C   0  0  1  0  0  3  0  0  0  0  0  0
  161.7000  206.5790  153.1220 O   0  0  0  0  0  1  0  0  0  0  0  0
  160.7540  204.6670  151.0210 C   0  0  2  0  0  3  0  0  0  0  0  0
  162.0970  204.6480  151.7460 C   0  0  0  0  0  2  0  0  0  0  0  0
  160.9500  206.5010  149.2510 C   0  0  1  0  0  3  0  0  0  0  0  0
  162.5650  206.0390  152.1670 C   0  0  1  0  0  3  0  0  0  0  0  0
  162.7650  207.0010  150.9930 C   0  0  0  0  0  2  0  0  0  0  0  0
  162.6870  207.3530  147.9070 O   0  0  0  0  0  0  0  0  0  0  0  0
  161.6120  206.7760  147.9290 C   0  0  0  0  0  0  0  0  0  0  0  0
  161.9430  205.9590  145.7340 O   0  0  0  0  0  1  0  0  0  0  0  0
  160.9670  206.3640  146.6450 C   0  0  0  0  0  2  0  0  0  0  0  0
  160.1140  203.2940  151.1070 C   0  0  0  0  0  2  0  0  0  0  0  0
  160.4350  202.5480  149.9720 O   0  0  0  0  0  1  0  0  0  0  0  0
  159.9850  209.0970  154.0520 C   0  0  0  0  0  2  0  0  0  0  0  0
  162.6400  210.3290  154.3650 C   0  0  0  0  0  2  0  0  0  0  0  0
  161.5030  209.7150  152.1720 C   0  0  0  0  0  3  0  0  0  0  0  0
  160.0830  209.8370  152.7260 C   0  0  0  0  0  2  0  0  0  0  0  0
  161.4560  210.9590  155.0830 C   0  0  0  0  0  2  0  0  0  0  0  0
  162.5370  210.6030  152.8700 C   0  0  0  0  0  2  0  0  0  0  0  0
  160.2810  209.9940  155.2580 C   0  0  0  0  0  2  0  0  0  0  0  0
  160.7290  212.3000  150.3600 C   0  0  0  0  0  0  0  0  0  0  0  0
  160.8090  213.4630  149.6620 N   0  0  0  0  0  0  0  0  0  0  0  0
  162.4710  212.6110  148.2470 C   0  0  0  0  0  3  0  0  0  0  0  0
  161.6490  213.6150  148.6370 N   0  0  0  0  0  0  0  0  0  0  0  0
  162.4330  211.3960  148.9220 C   0  0  0  0  0  3  0  0  0  0  0  0
  159.8440  212.2370  151.4720 N   0  0  0  0  0  1  0  0  0  0  0  0
  161.5520  211.2090  149.9940 C   0  0  0  0  0  0  0  0  0  0  0  0
  1  2  2  0  0  0  0
  2 19  1  0  0  0  0
  3  6  1  0  0  0  0
  4  1  1  6  0  0  0
  4 10  1  0  0  0  0
  6 15  1  6  0  0  0
  6  7  1  0  0  0  0
  7  9  1  0  0  0  0
  8 12  1  6  0  0  0
  8  3  1  0  0  0  0
  8  4  1  0  0  0  0
  9  5  1  1  0  0  0
 10  9  1  0  0  0  0
 11 12  2  0  0  0  0
 13 14  1  0  0  0  0
 14 12  1  0  0  0  0
 16 15  1  0  0  0  0
 17 23  1  0  0  0  0
 18 21  1  0  0  0  0
 19 20  1  0  0  0  0
 19 22  1  0  0  0  0
 20 17  1  0  0  0  0
 21 23  1  0  0  0  0
 22 18  1  0  0  0  0
 24 29  1  0  0  0  0
 25 24  2  0  0  0  0
 26 27  2  0  0  0  0
 26 28  1  0  0  0  0
 27 25  1  0  0  0  0
 28 30  2  0  0  0  0
 30 24  1  0  0  0  0
 30  2  1  0  0  0  0
M  END
>  <MODEL>
5

>  <REMARK>
 VINA RESULT:      -5.9      3.271      7.836
  Name = 
  6 active torsions:
  status: ('A' for Active; 'I' for Inactive)
    1  A    between atoms: C_4  and  N_23
    2  A    between atoms: C_5  and  C_29
    3  A    between atoms: C_12  and  C_15
    4  A    between atoms: C_13  and  C_18
    5  A    between atoms: C_13  and  C_19
    6  A    between atoms: C_27  and  C_29
                            x       y       z     vdW  Elec       q    Type
                         _______ _______ _______ _____ _____    ______ ____

>  <TORSDO>
F 6

$$$$
=
 OpenBabel11072411013D

 30 32  0  0  1  0  0  0  0  0999 V2000
  159.3520  210.0420  138.4960 N   0  0  0  0  0  0  0  0  0  0  0  0
  160.6550  210.0220  138.5100 C   0  0  0  0  0  0  0  0  0  0  0  0
  156.1210  212.0890  137.9220 C   0  0  0  0  0  2  0  0  0  0  0  0
  158.5180  211.2430  138.5070 C   0  0  1  0  0  3  0  0  0  0  0  0
  159.3880  213.8830  139.2650 O   0  0  0  0  0  1  0  0  0  0  0  0
  156.7290  213.4820  137.9470 C   0  0  2  0  0  3  0  0  0  0  0  0
  156.9880  213.8750  139.3980 C   0  0  0  0  0  2  0  0  0  0  0  0
  157.1600  210.9650  137.8260 C   0  0  1  0  0  3  0  0  0  0  0  0
  158.3030  213.3200  139.9400 C   0  0  1  0  0  3  0  0  0  0  0  0
  158.3750  211.7910  139.9280 C   0  0  0  0  0  2  0  0  0  0  0  0
  156.4860  208.7420  137.4360 O   0  0  0  0  0  0  0  0  0  0  0  0
  156.5410  209.6580  138.2390 C   0  0  0  0  0  0  0  0  0  0  0  0
  154.7350  208.8550  139.5380 O   0  0  0  0  0  1  0  0  0  0  0  0
  155.9840  209.4710  139.6140 C   0  0  0  0  0  2  0  0  0  0  0  0
  155.7410  214.4530  137.3280 C   0  0  0  0  0  2  0  0  0  0  0  0
  154.4380  214.0910  137.6730 O   0  0  0  0  0  1  0  0  0  0  0  0
  162.0740  213.2300  137.0300 C   0  0  0  0  0  2  0  0  0  0  0  0
  163.1750  212.7130  139.7100 C   0  0  0  0  0  2  0  0  0  0  0  0
  161.4150  211.3280  138.5020 C   0  0  0  0  0  3  0  0  0  0  0  0
  161.8820  211.7230  137.1010 C   0  0  0  0  0  2  0  0  0  0  0  0
  164.1420  212.9360  138.5570 C   0  0  0  0  0  2  0  0  0  0  0  0
  162.5140  211.3470  139.5680 C   0  0  0  0  0  2  0  0  0  0  0  0
  163.5010  213.6660  137.3730 C   0  0  0  0  0  2  0  0  0  0  0  0
  161.6580  207.8800  139.5380 C   0  0  0  0  0  0  0  0  0  0  0  0
  162.2770  206.6870  139.3370 N   0  0  0  0  0  0  0  0  0  0  0  0
  162.2740  206.9680  137.0110 C   0  0  0  0  0  3  0  0  0  0  0  0
  162.5790  206.2450  138.1150 N   0  0  0  0  0  0  0  0  0  0  0  0
  161.6410  208.1980  137.1520 C   0  0  0  0  0  3  0  0  0  0  0  0
  161.3250  208.2550  140.8690 N   0  0  0  0  0  1  0  0  0  0  0  0
  161.3250  208.6890  138.4250 C   0  0  0  0  0  0  0  0  0  0  0  0
  1  2  2  0  0  0  0
  3  6  1  0  0  0  0
  4  1  1  1  0  0  0
  4 10  1  0  0  0  0
  6 15  1  1  0  0  0
  6  7  1  0  0  0  0
  7  9  1  0  0  0  0
  8  3  1  0  0  0  0
  8 12  1  1  0  0  0
  8  4  1  0  0  0  0
  9  5  1  6  0  0  0
 10  9  1  0  0  0  0
 11 12  2  0  0  0  0
 12 14  1  0  0  0  0
 13 14  1  0  0  0  0
 15 16  1  0  0  0  0
 17 20  1  0  0  0  0
 17 23  1  0  0  0  0
 19  2  1  0  0  0  0
 19 22  1  0  0  0  0
 20 19  1  0  0  0  0
 21 18  1  0  0  0  0
 22 18  1  0  0  0  0
 23 21  1  0  0  0  0
 24 29  1  0  0  0  0
 25 24  1  0  0  0  0
 26 28  2  0  0  0  0
 26 27  1  0  0  0  0
 27 25  2  0  0  0  0
 28 30  1  0  0  0  0
 30  2  1  0  0  0  0
 30 24  2  0  0  0  0
M  END
>  <MODEL>
6

>  <REMARK>
 VINA RESULT:      -4.9     11.445     13.309
  Name = 
  6 active torsions:
  status: ('A' for Active; 'I' for Inactive)
    1  A    between atoms: C_4  and  N_23
    2  A    between atoms: C_5  and  C_29
    3  A    between atoms: C_12  and  C_15
    4  A    between atoms: C_13  and  C_18
    5  A    between atoms: C_13  and  C_19
    6  A    between atoms: C_27  and  C_29
                            x       y       z     vdW  Elec       q    Type
                         _______ _______ _______ _____ _____    ______ ____

>  <TORSDO>
F 6

$$$$
=
 OpenBabel11072411013D

 30 32  0  0  1  0  0  0  0  0999 V2000
  161.1480  205.4160  150.4430 N   0  0  0  0  0  0  0  0  0  0  0  0
  161.2070  204.7210  149.3420 C   0  0  0  0  0  0  0  0  0  0  0  0
  161.1810  208.8300  152.2580 C   0  0  0  0  0  2  0  0  0  0  0  0
  161.2580  206.8700  150.5390 C   0  0  1  0  0  3  0  0  0  0  0  0
  161.5800  208.6800  148.3190 O   0  0  0  0  0  1  0  0  0  0  0  0
  160.9530  209.7290  151.0530 C   0  0  2  0  0  3  0  0  0  0  0  0
  162.2690  209.8680  150.2930 C   0  0  0  0  0  2  0  0  0  0  0  0
  160.9350  207.3430  151.9740 C   0  0  1  0  0  3  0  0  0  0  0  0
  162.5320  208.7030  149.3410 C   0  0  1  0  0  3  0  0  0  0  0  0
  162.6240  207.3460  150.0440 C   0  0  0  0  0  2  0  0  0  0  0  0
  162.7020  206.0560  152.8500 O   0  0  0  0  0  0  0  0  0  0  0  0
  161.5830  206.5030  153.0390 C   0  0  0  0  0  0  0  0  0  0  0  0
  160.9880  207.2790  155.1930 O   0  0  0  0  0  1  0  0  0  0  0  0
  160.8710  206.1990  154.3180 C   0  0  0  0  0  2  0  0  0  0  0  0
  160.5060  211.0930  151.5430 C   0  0  0  0  0  2  0  0  0  0  0  0
  159.6150  210.9490  152.6080 O   0  0  0  0  0  1  0  0  0  0  0  0
  160.0800  206.5800  146.2160 C   0  0  0  0  0  2  0  0  0  0  0  0
  162.9170  205.8190  146.0400 C   0  0  0  0  0  2  0  0  0  0  0  0
  161.3670  205.4380  148.0210 C   0  0  0  0  0  3  0  0  0  0  0  0
  160.0910  205.4030  147.1800 C   0  0  0  0  0  2  0  0  0  0  0  0
  161.9810  205.4010  144.9160 C   0  0  0  0  0  2  0  0  0  0  0  0
  162.6290  204.9850  147.2830 C   0  0  0  0  0  2  0  0  0  0  0  0
  160.7040  206.2440  144.8580 C   0  0  0  0  0  2  0  0  0  0  0  0
  160.9800  202.3510  148.3500 C   0  0  0  0  0  0  0  0  0  0  0  0
  160.7770  201.0250  148.5690 N   0  0  0  0  0  0  0  0  0  0  0  0
  160.6300  201.3330  150.8870 C   0  0  0  0  0  3  0  0  0  0  0  0
  160.6040  200.5310  149.7960 N   0  0  0  0  0  0  0  0  0  0  0  0
  160.8320  202.6990  150.7260 C   0  0  0  0  0  3  0  0  0  0  0  0
  161.2070  202.7900  147.0160 N   0  0  0  0  0  1  0  0  0  0  0  0
  161.0050  203.2440  149.4470 C   0  0  0  0  0  0  0  0  0  0  0  0
  2 30  1  0  0  0  0
  2  1  2  0  0  0  0
  4  1  1  1  0  0  0
  4  8  1  0  0  0  0
  6 15  1  1  0  0  0
  6  3  1  0  0  0  0
  7  6  1  0  0  0  0
  8  3  1  0  0  0  0
  8 12  1  1  0  0  0
  9  5  1  6  0  0  0
  9 10  1  0  0  0  0
  9  7  1  0  0  0  0
 10  4  1  0  0  0  0
 11 12  2  0  0  0  0
 12 14  1  0  0  0  0
 14 13  1  0  0  0  0
 15 16  1  0  0  0  0
 17 20  1  0  0  0  0
 18 22  1  0  0  0  0
 19  2  1  0  0  0  0
 20 19  1  0  0  0  0
 21 18  1  0  0  0  0
 22 19  1  0  0  0  0
 23 21  1  0  0  0  0
 23 17  1  0  0  0  0
 24 25  2  0  0  0  0
 24 30  1  0  0  0  0
 25 27  1  0  0  0  0
 27 26  2  0  0  0  0
 28 26  1  0  0  0  0
 29 24  1  0  0  0  0
 30 28  2  0  0  0  0
M  END
>  <MODEL>
7

>  <REMARK>
 VINA RESULT:      -4.7      0.794      1.319
  Name = 
  6 active torsions:
  status: ('A' for Active; 'I' for Inactive)
    1  A    between atoms: C_4  and  N_23
    2  A    between atoms: C_5  and  C_29
    3  A    between atoms: C_12  and  C_15
    4  A    between atoms: C_13  and  C_18
    5  A    between atoms: C_13  and  C_19
    6  A    between atoms: C_27  and  C_29
                            x       y       z     vdW  Elec       q    Type
                         _______ _______ _______ _____ _____    ______ ____

>  <TORSDO>
F 6

$$$$
=
 OpenBabel11072411013D

 30 32  0  0  1  0  0  0  0  0999 V2000
  160.4900  210.2060  152.1910 N   0  0  0  0  0  0  0  0  0  0  0  0
  160.3510  210.3620  153.4770 C   0  0  0  0  0  0  0  0  0  0  0  0
  161.8770  208.0700  149.2810 C   0  0  0  0  0  2  0  0  0  0  0  0
  160.8890  208.9700  151.5210 C   0  0  1  0  0  3  0  0  0  0  0  0
  160.5930  206.3100  152.5900 O   0  0  0  0  0  1  0  0  0  0  0  0
  161.3410  206.7170  149.7180 C   0  0  2  0  0  3  0  0  0  0  0  0
  162.2320  206.1780  150.8350 C   0  0  0  0  0  2  0  0  0  0  0  0
  161.2730  209.2510  150.0510 C   0  0  1  0  0  3  0  0  0  0  0  0
  161.8680  206.7370  152.2080 C   0  0  1  0  0  3  0  0  0  0  0  0
  161.9940  208.2600  152.3040 C   0  0  0  0  0  2  0  0  0  0  0  0
  162.9220  210.7730  150.7670 O   0  0  0  0  0  0  0  0  0  0  0  0
  162.1380  210.4700  149.8830 C   0  0  0  0  0  0  0  0  0  0  0  0
  161.4040  212.5210  148.9620 O   0  0  0  0  0  1  0  0  0  0  0  0
  162.0410  211.3180  148.6560 C   0  0  0  0  0  2  0  0  0  0  0  0
  161.3880  205.7700  148.5340 C   0  0  0  0  0  2  0  0  0  0  0  0
  160.5530  206.2370  147.5180 O   0  0  0  0  0  1  0  0  0  0  0  0
  159.4000  207.3070  155.5410 C   0  0  0  0  0  2  0  0  0  0  0  0
  162.1670  208.1470  156.0900 C   0  0  0  0  0  2  0  0  0  0  0  0
  160.5780  209.1830  154.3950 C   0  0  0  0  0  3  0  0  0  0  0  0
  159.3080  208.7720  155.1410 C   0  0  0  0  0  2  0  0  0  0  0  0
  161.2070  207.9940  157.2610 C   0  0  0  0  0  2  0  0  0  0  0  0
  161.8030  209.3900  155.2880 C   0  0  0  0  0  2  0  0  0  0  0  0
  160.0040  207.1060  156.9340 C   0  0  0  0  0  2  0  0  0  0  0  0
  159.0920  212.5950  153.2010 C   0  0  0  0  0  0  0  0  0  0  0  0
  158.7170  213.7820  153.7470 N   0  0  0  0  0  0  0  0  0  0  0  0
  159.7880  213.2960  155.7740 C   0  0  0  0  0  3  0  0  0  0  0  0
  159.0560  214.1240  154.9910 N   0  0  0  0  0  0  0  0  0  0  0  0
  160.2010  212.0670  155.2700 C   0  0  0  0  0  3  0  0  0  0  0  0
  158.6460  212.2840  151.8860 N   0  0  0  0  0  1  0  0  0  0  0  0
  159.8680  211.6900  153.9630 C   0  0  0  0  0  0  0  0  0  0  0  0
  1  2  2  0  0  0  0
  2 30  1  0  0  0  0
  2 19  1  0  0  0  0
  3  6  1  0  0  0  0
  3  8  1  0  0  0  0
  4  1  1  1  0  0  0
  4 10  1  0  0  0  0
  6 15  1  6  0  0  0
  6  7  1  0  0  0  0
  7  9  1  0  0  0  0
  8 12  1  1  0  0  0
  8  4  1  0  0  0  0
  9 10  1  0  0  0  0
  9  5  1  6  0  0  0
 12 11  2  0  0  0  0
 14 13  1  0  0  0  0
 14 12  1  0  0  0  0
 16 15  1  0  0  0  0
 17 23  1  0  0  0  0
 18 21  1  0  0  0  0
 19 20  1  0  0  0  0
 19 22  1  0  0  0  0
 20 17  1  0  0  0  0
 22 18  1  0  0  0  0
 23 21  1  0  0  0  0
 24 25  2  0  0  0  0
 24 30  1  0  0  0  0
 25 27  1  0  0  0  0
 27 26  2  0  0  0  0
 28 26  1  0  0  0  0
 29 24  1  0  0  0  0
 30 28  2  0  0  0  0
M  END
>  <MODEL>
8

>  <REMARK>
 VINA RESULT:      -4.2      3.698      8.399
  Name = 
  6 active torsions:
  status: ('A' for Active; 'I' for Inactive)
    1  A    between atoms: C_4  and  N_23
    2  A    between atoms: C_5  and  C_29
    3  A    between atoms: C_12  and  C_15
    4  A    between atoms: C_13  and  C_18
    5  A    between atoms: C_13  and  C_19
    6  A    between atoms: C_27  and  C_29
                            x       y       z     vdW  Elec       q    Type
                         _______ _______ _______ _____ _____    ______ ____

>  <TORSDO>
F 6

$$$$
=
 OpenBabel11072411013D

 30 32  0  0  1  0  0  0  0  0999 V2000
  160.0420  210.8330  153.7020 N   0  0  0  0  0  0  0  0  0  0  0  0
  160.2850  211.1350  152.4570 C   0  0  0  0  0  0  0  0  0  0  0  0
  157.8200  211.4400  156.8080 C   0  0  0  0  0  2  0  0  0  0  0  0
  159.2420  211.6310  154.6300 C   0  0  1  0  0  3  0  0  0  0  0  0
  158.6420  214.4350  154.3480 O   0  0  0  0  0  1  0  0  0  0  0  0
  157.2250  212.7790  156.4020 C   0  0  2  0  0  3  0  0  0  0  0  0
  158.2630  213.8690  156.6540 C   0  0  0  0  0  2  0  0  0  0  0  0
  158.5510  210.7190  155.6690 C   0  0  1  0  0  3  0  0  0  0  0  0
  159.2730  214.0030  155.5170 C   0  0  1  0  0  3  0  0  0  0  0  0
  160.0900  212.7320  155.2690 C   0  0  0  0  0  2  0  0  0  0  0  0
  159.2300  208.4860  155.9830 O   0  0  0  0  0  0  0  0  0  0  0  0
  159.4570  209.6590  156.2300 C   0  0  0  0  0  0  0  0  0  0  0  0
  161.7460  209.2940  156.7030 O   0  0  0  0  0  1  0  0  0  0  0  0
  160.6220  210.0210  157.0940 C   0  0  0  0  0  2  0  0  0  0  0  0
  155.9980  213.0430  157.2550 C   0  0  0  0  0  2  0  0  0  0  0  0
  155.1540  211.9320  157.2310 O   0  0  0  0  0  1  0  0  0  0  0  0
  157.5210  213.5910  151.5530 C   0  0  0  0  0  2  0  0  0  0  0  0
  160.0470  214.2880  150.2150 C   0  0  0  0  0  2  0  0  0  0  0  0
  159.6820  212.3880  151.8670 C   0  0  0  0  0  3  0  0  0  0  0  0
  158.1950  212.2280  151.5510 C   0  0  0  0  0  2  0  0  0  0  0  0
  158.7980  214.1130  149.3650 C   0  0  0  0  0  2  0  0  0  0  0  0
  160.5250  212.9290  150.7090 C   0  0  0  0  0  2  0  0  0  0  0  0
  157.5030  214.2500  150.1710 C   0  0  0  0  0  2  0  0  0  0  0  0
  161.3390  208.8180  152.0410 C   0  0  0  0  0  0  0  0  0  0  0  0
  162.0760  208.0170  151.2270 N   0  0  0  0  0  0  0  0  0  0  0  0
  162.3220  209.7090  149.6250 C   0  0  0  0  0  3  0  0  0  0  0  0
  162.5550  208.4480  150.0590 N   0  0  0  0  0  0  0  0  0  0  0  0
  161.5750  210.5760  150.4150 C   0  0  0  0  0  3  0  0  0  0  0  0
  160.8220  208.2660  153.2470 N   0  0  0  0  0  1  0  0  0  0  0  0
  161.0710  210.1510  151.6510 C   0  0  0  0  0  0  0  0  0  0  0  0
  2  1  2  0  0  0  0
  4  1  1  6  0  0  0
  4 10  1  0  0  0  0
  4  8  1  0  0  0  0
  6  7  1  0  0  0  0
  6  3  1  0  0  0  0
  6 15  1  1  0  0  0
  8 12  1  1  0  0  0
  8  3  1  0  0  0  0
  9  5  1  6  0  0  0
  9  7  1  0  0  0  0
 10  9  1  0  0  0  0
 11 12  2  0  0  0  0
 12 14  1  0  0  0  0
 13 14  1  0  0  0  0
 16 15  1  0  0  0  0
 18 22  1  0  0  0  0
 19  2  1  0  0  0  0
 20 17  1  0  0  0  0
 20 19  1  0  0  0  0
 21 23  1  0  0  0  0
 21 18  1  0  0  0  0
 22 19  1  0  0  0  0
 23 17  1  0  0  0  0
 24 29  1  0  0  0  0
 25 24  2  0  0  0  0
 26 27  2  0  0  0  0
 26 28  1  0  0  0  0
 27 25  1  0  0  0  0
 28 30  2  0  0  0  0
 30 24  1  0  0  0  0
 30  2  1  0  0  0  0
M  END
>  <MODEL>
9

>  <REMARK>
 VINA RESULT:      -3.6      4.817      7.390
  Name = 
  6 active torsions:
  status: ('A' for Active; 'I' for Inactive)
    1  A    between atoms: C_4  and  N_23
    2  A    between atoms: C_5  and  C_29
    3  A    between atoms: C_12  and  C_15
    4  A    between atoms: C_13  and  C_18
    5  A    between atoms: C_13  and  C_19
    6  A    between atoms: C_27  and  C_29
                            x       y       z     vdW  Elec       q    Type
                         _______ _______ _______ _____ _____    ______ ____

>  <TORSDO>
F 6

$$$$
