=
 OpenBabel11072413283D

 41 44  0  0  1  0  0  0  0  0999 V2000
  161.4460  212.3490  148.0900 C   0  0  0  0  0  0  0  0  0  0  0  0
  160.9280  212.8970  149.1410 N   0  0  0  0  0  2  0  0  0  0  0  0
  160.0880  212.9140  144.5420 C   0  0  2  0  0  3  0  0  0  0  0  0
  161.2450  212.5300  142.8920 C   0  0  2  0  0  3  0  0  0  0  0  0
  160.2770  212.2110  145.8920 C   0  0  0  0  0  2  0  0  0  0  0  0
  162.5360  213.0920  146.0540 N   0  0  0  0  0  0  0  0  0  0  0  0
  160.0500  211.9220  143.4750 N   0  0  0  0  0  2  0  0  0  0  0  0
  161.3440  213.5860  143.9710 C   0  0  2  0  0  3  0  0  0  0  0  0
  161.2710  212.9920  146.7450 C   0  0  2  0  0  3  0  0  0  0  0  0
  162.5930  213.3640  144.7950 C   0  0  0  0  0  3  0  0  0  0  0  0
  160.8970  213.1760  141.5600 C   0  0  0  0  0  2  0  0  0  0  0  0
  161.5750  212.4260  140.4170 C   0  0  1  0  0  3  0  0  0  0  0  0
  158.0950  211.8910  139.3460 C   0  0  0  0  0  2  0  0  0  0  0  0
  160.0790  210.5680  139.6530 C   0  0  0  0  0  2  0  0  0  0  0  0
  158.6640  210.5040  139.1290 C   0  0  0  0  0  2  0  0  0  0  0  0
  159.2810  212.8350  139.4550 C   0  0  0  0  0  2  0  0  0  0  0  0
  160.5400  211.9840  139.3820 C   0  0  0  0  0  3  0  0  0  0  0  0
  162.5570  213.2990  139.7840 N   0  0  0  0  0  2  0  0  0  0  0  0
  164.0050  211.5940  139.0930 O   0  0  0  0  0  0  0  0  0  0  0  0
  163.7630  212.8280  139.1760 C   0  0  0  0  0  0  0  0  0  0  0  0
  164.6930  213.7650  138.6450 N   0  0  0  0  0  1  0  0  0  0  0  0
  162.2010  211.1830  148.2340 O   0  0  0  0  0  0  0  0  0  0  0  0
  162.0310  210.3050  149.3360 C   0  0  0  0  0  2  0  0  0  0  0  0
  162.0530  208.8700  148.8480 C   0  0  0  0  0  2  0  0  0  0  0  0
  161.3120  207.9920  149.8370 C   0  0  0  0  0  2  0  0  0  0  0  0
  162.2620  207.3480  150.7310 N   0  0  0  0  0  0  0  0  0  0  0  0
  160.9450  208.5950  152.1970 O   0  0  0  0  0  1  0  0  0  0  0  0
  161.6870  207.4190  152.0640 C   0  0  0  0  0  2  0  0  0  0  0  0
  162.3040  205.9400  150.3610 C   0  0  0  0  0  2  0  0  0  0  0  0
  161.4450  203.4030  148.4930 C   0  0  0  0  0  3  0  0  0  0  0  0
  161.1780  202.7030  149.7650 C   0  0  0  0  0  3  0  0  0  0  0  0
  161.0170  205.5490  149.6490 C   0  0  2  0  0  3  0  0  0  0  0  0
  160.5780  203.3450  150.7720 C   0  0  0  0  0  3  0  0  0  0  0  0
  160.0970  204.7630  150.5950 C   0  0  0  0  0  2  0  0  0  0  0  0
  161.3320  204.7360  148.4100 C   0  0  0  0  0  0  0  0  0  0  0  0
  161.5090  205.4000  147.0730 C   0  0  1  0  0  3  0  0  0  0  0  0
  161.4350  203.5700  145.5180 O   0  0  0  0  0  0  0  0  0  0  0  0
  162.1270  204.4620  146.0820 C   0  0  0  0  0  0  0  0  0  0  0  0
  163.5130  204.5760  145.7780 N   0  0  0  0  0  1  0  0  0  0  0  0
  160.2070  205.9830  146.5320 C   0  0  0  0  0  2  0  0  0  0  0  0
  160.3630  206.3430  145.1330 N   0  0  0  0  0  1  0  0  0  0  0  0
  1 22  1  0  0  0  0
  1  2  2  0  0  0  0
  3  5  1  1  0  0  0
  4 11  1  6  0  0  0
  4  7  1  0  0  0  0
  4  8  1  0  0  0  0
  5  9  1  0  0  0  0
  6  9  1  0  0  0  0
  7  3  1  0  0  0  0
  8  3  1  0  0  0  0
  8 10  1  1  0  0  0
  9  1  1  1  0  0  0
 10  6  2  0  0  0  0
 12 11  1  1  0  0  0
 13 16  1  0  0  0  0
 15 13  1  0  0  0  0
 15 14  1  0  0  0  0
 17 16  1  0  0  0  0
 17 14  1  0  0  0  0
 17 12  1  0  0  0  0
 18 12  1  0  0  0  0
 19 20  2  0  0  0  0
 20 18  1  0  0  0  0
 21 20  1  0  0  0  0
 22 23  1  0  0  0  0
 24 23  1  0  0  0  0
 24 25  1  0  0  0  0
 25 26  1  0  0  0  0
 26 28  1  0  0  0  0
 28 27  1  0  0  0  0
 29 26  1  0  0  0  0
 30 31  1  0  0  0  0
 31 33  2  0  0  0  0
 32 29  1  1  0  0  0
 32 34  1  0  0  0  0
 34 33  1  0  0  0  0
 35 30  2  0  0  0  0
 35 32  1  0  0  0  0
 36 40  1  6  0  0  0
 36 35  1  0  0  0  0
 37 38  2  0  0  0  0
 38 36  1  0  0  0  0
 39 38  1  0  0  0  0
 41 40  1  0  0  0  0
M  END
>  <MODEL>
1

>  <REMARK>
 VINA RESULT:      -6.9      0.000      0.000
  Name = 
  16 active torsions:
  status: ('A' for Active; 'I' for Inactive)
    1  A    between atoms: N_3  and  C_24
    2  A    between atoms: N_3  and  C_38
    3  A    between atoms: N_3  and  C_41
    4  A    between atoms: N_5  and  C_9
    5  A    between atoms: C_6  and  C_11
    6  A    between atoms: C_6  and  O_37
    7  A    between atoms: C_7  and  C_29
    8  A    between atoms: C_9  and  C_30
    9  A    between atoms: C_9  and  C_32
   10  A    between atoms: C_10  and  C_30
   11  A    between atoms: C_11  and  C_24
   12  A    between atoms: C_16  and  C_38
   13  A    between atoms: C_25  and  C_29
   14  A    between atoms: C_29  and  C_35
   15  A    between atoms: C_33  and  C_36
   16  A    between atoms: C_36  and  O_37
                            x       y       z     vdW  Elec       q    Type
                         _______ _______ _______ _____ _____    ______ ____

>  <TORSDO>
F 16

$$$$
=
 OpenBabel11072413283D

 41 44  0  0  1  0  0  0  0  0999 V2000
  161.3350  212.4590  148.1600 C   0  0  0  0  0  0  0  0  0  0  0  0
  161.1290  213.0370  149.2990 N   0  0  0  0  0  2  0  0  0  0  0  0
  159.5360  213.4890  144.9270 C   0  0  2  0  0  3  0  0  0  0  0  0
  160.2880  212.9770  143.0890 C   0  0  2  0  0  3  0  0  0  0  0  0
  159.8040  212.6850  146.2060 C   0  0  0  0  0  2  0  0  0  0  0  0
  162.1900  213.0850  145.9780 N   0  0  0  0  0  0  0  0  0  0  0  0
  159.1110  212.5870  143.8630 N   0  0  0  0  0  2  0  0  0  0  0  0
  160.7870  213.9270  144.1540 C   0  0  2  0  0  3  0  0  0  0  0  0
  161.0680  213.2000  146.8830 C   0  0  2  0  0  3  0  0  0  0  0  0
  162.0850  213.4120  144.7350 C   0  0  0  0  0  3  0  0  0  0  0  0
  159.8580  213.7540  141.8540 C   0  0  0  0  0  2  0  0  0  0  0  0
  160.2310  212.9880  140.5900 C   0  0  1  0  0  3  0  0  0  0  0  0
  163.3190  211.5430  139.2040 C   0  0  0  0  0  2  0  0  0  0  0  0
  161.4740  210.8130  140.5620 C   0  0  0  0  0  2  0  0  0  0  0  0
  162.8180  210.3760  140.0300 C   0  0  0  0  0  2  0  0  0  0  0  0
  162.5800  212.7750  139.6990 C   0  0  0  0  0  2  0  0  0  0  0  0
  161.5910  212.3090  140.7580 C   0  0  0  0  0  3  0  0  0  0  0  0
  159.2120  211.9800  140.3190 N   0  0  0  0  0  2  0  0  0  0  0  0
  159.1950  212.2550  137.9930 O   0  0  0  0  0  0  0  0  0  0  0  0
  158.7120  211.6880  139.0110 C   0  0  0  0  0  0  0  0  0  0  0  0
  157.6660  210.7350  138.8560 N   0  0  0  0  0  1  0  0  0  0  0  0
  161.8460  211.1590  148.1420 O   0  0  0  0  0  0  0  0  0  0  0  0
  161.9500  210.3720  149.3180 C   0  0  0  0  0  2  0  0  0  0  0  0
  162.1680  208.9210  148.9380 C   0  0  0  0  0  2  0  0  0  0  0  0
  161.4070  208.0300  149.9010 C   0  0  0  0  0  2  0  0  0  0  0  0
  162.3370  207.3880  150.8160 N   0  0  0  0  0  0  0  0  0  0  0  0
  160.6680  208.3920  152.0990 O   0  0  0  0  0  1  0  0  0  0  0  0
  161.7810  207.5500  152.1500 C   0  0  0  0  0  2  0  0  0  0  0  0
  162.3110  205.9620  150.5160 C   0  0  0  0  0  2  0  0  0  0  0  0
  161.4200  203.4600  148.6170 C   0  0  0  0  0  3  0  0  0  0  0  0
  161.1140  202.7580  149.8790 C   0  0  0  0  0  3  0  0  0  0  0  0
  161.0260  205.6080  149.7810 C   0  0  2  0  0  3  0  0  0  0  0  0
  160.5140  203.4080  150.8810 C   0  0  0  0  0  3  0  0  0  0  0  0
  160.0720  204.8390  150.7070 C   0  0  0  0  0  2  0  0  0  0  0  0
  161.3400  204.7960  148.5410 C   0  0  0  0  0  0  0  0  0  0  0  0
  161.5550  205.4640  147.2120 C   0  0  1  0  0  3  0  0  0  0  0  0
  161.3510  203.6200  145.6860 O   0  0  0  0  0  0  0  0  0  0  0  0
  162.0950  204.4980  146.2030 C   0  0  0  0  0  0  0  0  0  0  0  0
  163.4670  204.5680  145.8290 N   0  0  0  0  0  1  0  0  0  0  0  0
  160.2950  206.1490  146.6900 C   0  0  0  0  0  2  0  0  0  0  0  0
  160.4100  206.3870  145.2620 N   0  0  0  0  0  1  0  0  0  0  0  0
  1  2  2  0  0  0  0
  3  5  1  1  0  0  0
  4 11  1  6  0  0  0
  4  7  1  0  0  0  0
  4  8  1  0  0  0  0
  5  9  1  0  0  0  0
  6  9  1  0  0  0  0
  7  3  1  0  0  0  0
  8 10  1  1  0  0  0
  8  3  1  0  0  0  0
  9  1  1  1  0  0  0
 10  6  2  0  0  0  0
 12 17  1  0  0  0  0
 12 11  1  1  0  0  0
 13 16  1  0  0  0  0
 13 15  1  0  0  0  0
 14 17  1  0  0  0  0
 15 14  1  0  0  0  0
 16 17  1  0  0  0  0
 18 12  1  0  0  0  0
 19 20  2  0  0  0  0
 20 18  1  0  0  0  0
 21 20  1  0  0  0  0
 22  1  1  0  0  0  0
 22 23  1  0  0  0  0
 24 23  1  0  0  0  0
 24 25  1  0  0  0  0
 25 26  1  0  0  0  0
 26 28  1  0  0  0  0
 27 28  1  0  0  0  0
 29 26  1  0  0  0  0
 30 31  1  0  0  0  0
 31 33  2  0  0  0  0
 32 29  1  1  0  0  0
 32 34  1  0  0  0  0
 34 33  1  0  0  0  0
 35 30  2  0  0  0  0
 35 32  1  0  0  0  0
 36 40  1  6  0  0  0
 36 35  1  0  0  0  0
 37 38  2  0  0  0  0
 38 36  1  0  0  0  0
 39 38  1  0  0  0  0
 41 40  1  0  0  0  0
M  END
>  <MODEL>
2

>  <REMARK>
 VINA RESULT:      -6.7      1.499      2.182
  Name = 
  16 active torsions:
  status: ('A' for Active; 'I' for Inactive)
    1  A    between atoms: N_3  and  C_24
    2  A    between atoms: N_3  and  C_38
    3  A    between atoms: N_3  and  C_41
    4  A    between atoms: N_5  and  C_9
    5  A    between atoms: C_6  and  C_11
    6  A    between atoms: C_6  and  O_37
    7  A    between atoms: C_7  and  C_29
    8  A    between atoms: C_9  and  C_30
    9  A    between atoms: C_9  and  C_32
   10  A    between atoms: C_10  and  C_30
   11  A    between atoms: C_11  and  C_24
   12  A    between atoms: C_16  and  C_38
   13  A    between atoms: C_25  and  C_29
   14  A    between atoms: C_29  and  C_35
   15  A    between atoms: C_33  and  C_36
   16  A    between atoms: C_36  and  O_37
                            x       y       z     vdW  Elec       q    Type
                         _______ _______ _______ _____ _____    ______ ____

>  <TORSDO>
F 16

$$$$
=
 OpenBabel11072413283D

 41 44  0  0  1  0  0  0  0  0999 V2000
  162.4440  212.4530  148.2360 C   0  0  0  0  0  0  0  0  0  0  0  0
  163.7370  212.4170  148.2450 N   0  0  0  0  0  2  0  0  0  0  0  0
  159.7800  212.9450  145.5140 C   0  0  2  0  0  3  0  0  0  0  0  0
  160.2270  212.6610  143.5320 C   0  0  2  0  0  3  0  0  0  0  0  0
  160.5240  212.2470  146.6590 C   0  0  0  0  0  2  0  0  0  0  0  0
  162.6060  213.2910  145.9660 N   0  0  0  0  0  0  0  0  0  0  0  0
  159.3950  211.9620  144.5100 N   0  0  0  0  0  2  0  0  0  0  0  0
  160.6690  213.7130  144.5260 C   0  0  2  0  0  3  0  0  0  0  0  0
  161.7180  213.0920  147.0890 C   0  0  2  0  0  3  0  0  0  0  0  0
  162.1510  213.5760  144.7940 C   0  0  0  0  0  3  0  0  0  0  0  0
  159.3480  213.2900  142.4630 C   0  0  0  0  0  2  0  0  0  0  0  0
  159.8360  212.8890  141.0740 C   0  0  1  0  0  3  0  0  0  0  0  0
  163.0220  211.6880  139.6780 C   0  0  0  0  0  2  0  0  0  0  0  0
  160.9710  210.7330  140.4920 C   0  0  0  0  0  2  0  0  0  0  0  0
  162.3560  210.3700  140.0130 C   0  0  0  0  0  2  0  0  0  0  0  0
  162.2760  212.7610  140.4530 C   0  0  0  0  0  2  0  0  0  0  0  0
  161.1260  212.0740  141.1760 C   0  0  0  0  0  3  0  0  0  0  0  0
  158.8070  212.0960  140.4130 N   0  0  0  0  0  2  0  0  0  0  0  0
  157.3710  213.8840  139.9400 O   0  0  0  0  0  0  0  0  0  0  0  0
  157.5870  212.6430  139.9030 C   0  0  0  0  0  0  0  0  0  0  0  0
  156.6120  211.7750  139.3350 N   0  0  0  0  0  1  0  0  0  0  0  0
  161.7420  211.8530  149.2850 O   0  0  0  0  0  0  0  0  0  0  0  0
  161.9060  210.4830  149.6170 C   0  0  0  0  0  2  0  0  0  0  0  0
  162.1720  210.3520  151.1030 C   0  0  0  0  0  2  0  0  0  0  0  0
  161.0830  209.5050  151.7340 C   0  0  0  0  0  2  0  0  0  0  0  0
  161.5690  208.1480  151.9320 N   0  0  0  0  0  0  0  0  0  0  0  0
  161.1540  208.8710  154.1100 O   0  0  0  0  0  1  0  0  0  0  0  0
  161.1600  207.7550  153.2700 C   0  0  0  0  0  2  0  0  0  0  0  0
  160.8420  207.2970  150.9990 C   0  0  0  0  0  2  0  0  0  0  0  0
  160.6580  205.4810  148.2920 C   0  0  0  0  0  3  0  0  0  0  0  0
  161.0730  206.7050  147.5790 C   0  0  0  0  0  3  0  0  0  0  0  0
  161.8030  206.3370  150.3120 C   0  0  2  0  0  3  0  0  0  0  0  0
  162.0230  207.4920  148.0920 C   0  0  0  0  0  3  0  0  0  0  0  0
  162.7370  207.1010  149.3610 C   0  0  0  0  0  2  0  0  0  0  0  0
  161.0300  205.2720  149.5630 C   0  0  0  0  0  0  0  0  0  0  0  0
  160.6780  203.9660  150.2190 C   0  0  1  0  0  3  0  0  0  0  0  0
  161.5220  202.8690  148.2550 O   0  0  0  0  0  0  0  0  0  0  0  0
  160.7290  202.8360  149.2370 C   0  0  0  0  0  0  0  0  0  0  0  0
  159.8680  201.7160  149.4100 N   0  0  0  0  0  1  0  0  0  0  0  0
  161.5480  203.6690  151.4370 C   0  0  0  0  0  2  0  0  0  0  0  0
  161.0140  204.3410  152.6090 N   0  0  0  0  0  1  0  0  0  0  0  0
  1  2  2  0  0  0  0
  1 22  1  0  0  0  0
  3  5  1  1  0  0  0
  4 11  1  6  0  0  0
  4  7  1  0  0  0  0
  4  8  1  0  0  0  0
  5  9  1  0  0  0  0
  6  9  1  0  0  0  0
  7  3  1  0  0  0  0
  8 10  1  1  0  0  0
  8  3  1  0  0  0  0
  9  1  1  1  0  0  0
 10  6  2  0  0  0  0
 12 17  1  0  0  0  0
 12 11  1  1  0  0  0
 13 15  1  0  0  0  0
 13 16  1  0  0  0  0
 14 17  1  0  0  0  0
 15 14  1  0  0  0  0
 16 17  1  0  0  0  0
 18 12  1  0  0  0  0
 20 19  2  0  0  0  0
 20 18  1  0  0  0  0
 21 20  1  0  0  0  0
 22 23  1  0  0  0  0
 23 24  1  0  0  0  0
 24 25  1  0  0  0  0
 25 26  1  0  0  0  0
 26 28  1  0  0  0  0
 28 27  1  0  0  0  0
 29 26  1  0  0  0  0
 30 35  2  0  0  0  0
 31 33  2  0  0  0  0
 31 30  1  0  0  0  0
 32 29  1  6  0  0  0
 33 34  1  0  0  0  0
 34 32  1  0  0  0  0
 35 36  1  0  0  0  0
 35 32  1  0  0  0  0
 36 40  1  1  0  0  0
 37 38  2  0  0  0  0
 38 39  1  0  0  0  0
 38 36  1  0  0  0  0
 40 41  1  0  0  0  0
M  END
>  <MODEL>
3

>  <REMARK>
 VINA RESULT:      -6.4      2.466      3.526
  Name = 
  16 active torsions:
  status: ('A' for Active; 'I' for Inactive)
    1  A    between atoms: N_3  and  C_24
    2  A    between atoms: N_3  and  C_38
    3  A    between atoms: N_3  and  C_41
    4  A    between atoms: N_5  and  C_9
    5  A    between atoms: C_6  and  C_11
    6  A    between atoms: C_6  and  O_37
    7  A    between atoms: C_7  and  C_29
    8  A    between atoms: C_9  and  C_30
    9  A    between atoms: C_9  and  C_32
   10  A    between atoms: C_10  and  C_30
   11  A    between atoms: C_11  and  C_24
   12  A    between atoms: C_16  and  C_38
   13  A    between atoms: C_25  and  C_29
   14  A    between atoms: C_29  and  C_35
   15  A    between atoms: C_33  and  C_36
   16  A    between atoms: C_36  and  O_37
                            x       y       z     vdW  Elec       q    Type
                         _______ _______ _______ _____ _____    ______ ____

>  <TORSDO>
F 16

$$$$
=
 OpenBabel11072413283D

 41 44  0  0  1  0  0  0  0  0999 V2000
  162.4260  212.5640  148.0970 C   0  0  0  0  0  0  0  0  0  0  0  0
  163.7110  212.6200  148.2340 N   0  0  0  0  0  2  0  0  0  0  0  0
  159.8780  212.9980  145.2560 C   0  0  2  0  0  3  0  0  0  0  0  0
  160.3640  212.5330  143.3190 C   0  0  2  0  0  3  0  0  0  0  0  0
  160.5440  212.3490  146.4760 C   0  0  0  0  0  2  0  0  0  0  0  0
  162.7050  213.2110  145.7760 N   0  0  0  0  0  0  0  0  0  0  0  0
  159.4620  211.9630  144.3180 N   0  0  0  0  0  2  0  0  0  0  0  0
  160.8400  213.6320  144.2430 C   0  0  2  0  0  3  0  0  0  0  0  0
  161.7740  213.1530  146.8800 C   0  0  2  0  0  3  0  0  0  0  0  0
  162.3030  213.4300  144.5700 C   0  0  0  0  0  3  0  0  0  0  0  0
  159.5560  213.1270  142.1750 C   0  0  0  0  0  2  0  0  0  0  0  0
  159.9660  212.4890  140.8510 C   0  0  1  0  0  3  0  0  0  0  0  0
  156.5000  212.4170  139.6170 C   0  0  0  0  0  2  0  0  0  0  0  0
  158.6350  211.5270  138.9600 C   0  0  0  0  0  2  0  0  0  0  0  0
  157.2030  211.6670  138.5040 C   0  0  0  0  0  2  0  0  0  0  0  0
  157.5790  213.1550  140.3910 C   0  0  0  0  0  2  0  0  0  0  0  0
  158.9170  212.7700  139.7760 C   0  0  0  0  0  3  0  0  0  0  0  0
  161.2530  213.0330  140.4330 N   0  0  0  0  0  2  0  0  0  0  0  0
  162.1520  211.0070  139.6790 O   0  0  0  0  0  0  0  0  0  0  0  0
  162.3130  212.2390  139.8910 C   0  0  0  0  0  0  0  0  0  0  0  0
  163.5580  212.8510  139.5760 N   0  0  0  0  0  1  0  0  0  0  0  0
  161.6680  211.9140  149.0730 O   0  0  0  0  0  0  0  0  0  0  0  0
  161.9010  210.5610  149.4340 C   0  0  0  0  0  2  0  0  0  0  0  0
  162.2490  210.4840  150.9070 C   0  0  0  0  0  2  0  0  0  0  0  0
  161.2340  209.6090  151.6170 C   0  0  0  0  0  2  0  0  0  0  0  0
  161.7150  208.2370  151.6640 N   0  0  0  0  0  0  0  0  0  0  0  0
  160.5240  208.6330  153.6290 O   0  0  0  0  0  1  0  0  0  0  0  0
  161.3400  207.7130  152.9670 C   0  0  0  0  0  2  0  0  0  0  0  0
  160.9570  207.4870  150.6710 C   0  0  0  0  0  2  0  0  0  0  0  0
  160.5660  205.4660  148.1370 C   0  0  0  0  0  3  0  0  0  0  0  0
  160.9800  206.6120  147.3040 C   0  0  0  0  0  3  0  0  0  0  0  0
  161.8470  206.4400  150.0170 C   0  0  2  0  0  3  0  0  0  0  0  0
  161.9820  207.4030  147.7000 C   0  0  0  0  0  3  0  0  0  0  0  0
  162.7520  207.0890  148.9590 C   0  0  0  0  0  2  0  0  0  0  0  0
  160.9990  205.3470  149.4000 C   0  0  0  0  0  0  0  0  0  0  0  0
  160.6410  204.1120  150.1790 C   0  0  1  0  0  3  0  0  0  0  0  0
  159.8850  201.9400  149.4850 O   0  0  0  0  0  0  0  0  0  0  0  0
  160.6970  202.8910  149.3130 C   0  0  0  0  0  0  0  0  0  0  0  0
  161.6830  202.8010  148.2900 N   0  0  0  0  0  1  0  0  0  0  0  0
  161.5040  203.9360  151.4250 C   0  0  0  0  0  2  0  0  0  0  0  0
  160.7720  203.1960  152.4390 N   0  0  0  0  0  1  0  0  0  0  0  0
  1  2  2  0  0  0  0
  1 22  1  0  0  0  0
  3  5  1  1  0  0  0
  4 11  1  6  0  0  0
  4  8  1  0  0  0  0
  4  7  1  0  0  0  0
  5  9  1  0  0  0  0
  6  9  1  0  0  0  0
  7  3  1  0  0  0  0
  8 10  1  1  0  0  0
  8  3  1  0  0  0  0
  9  1  1  1  0  0  0
 10  6  2  0  0  0  0
 12 11  1  1  0  0  0
 13 16  1  0  0  0  0
 14 17  1  0  0  0  0
 15 14  1  0  0  0  0
 15 13  1  0  0  0  0
 17 16  1  0  0  0  0
 17 12  1  0  0  0  0
 18 12  1  0  0  0  0
 19 20  2  0  0  0  0
 20 18  1  0  0  0  0
 21 20  1  0  0  0  0
 22 23  1  0  0  0  0
 23 24  1  0  0  0  0
 24 25  1  0  0  0  0
 25 26  1  0  0  0  0
 26 28  1  0  0  0  0
 28 27  1  0  0  0  0
 29 26  1  0  0  0  0
 30 35  2  0  0  0  0
 31 33  2  0  0  0  0
 31 30  1  0  0  0  0
 32 29  1  6  0  0  0
 33 34  1  0  0  0  0
 34 32  1  0  0  0  0
 35 32  1  0  0  0  0
 35 36  1  0  0  0  0
 36 40  1  1  0  0  0
 38 37  2  0  0  0  0
 38 36  1  0  0  0  0
 39 38  1  0  0  0  0
 40 41  1  0  0  0  0
M  END
>  <MODEL>
4

>  <REMARK>
 VINA RESULT:      -6.1      1.719      2.699
  Name = 
  16 active torsions:
  status: ('A' for Active; 'I' for Inactive)
    1  A    between atoms: N_3  and  C_24
    2  A    between atoms: N_3  and  C_38
    3  A    between atoms: N_3  and  C_41
    4  A    between atoms: N_5  and  C_9
    5  A    between atoms: C_6  and  C_11
    6  A    between atoms: C_6  and  O_37
    7  A    between atoms: C_7  and  C_29
    8  A    between atoms: C_9  and  C_30
    9  A    between atoms: C_9  and  C_32
   10  A    between atoms: C_10  and  C_30
   11  A    between atoms: C_11  and  C_24
   12  A    between atoms: C_16  and  C_38
   13  A    between atoms: C_25  and  C_29
   14  A    between atoms: C_29  and  C_35
   15  A    between atoms: C_33  and  C_36
   16  A    between atoms: C_36  and  O_37
                            x       y       z     vdW  Elec       q    Type
                         _______ _______ _______ _____ _____    ______ ____

>  <TORSDO>
F 16

$$$$
=
 OpenBabel11072413283D

 41 44  0  0  1  0  0  0  0  0999 V2000
  161.3210  206.6690  153.5280 C   0  0  0  0  0  0  0  0  0  0  0  0
  160.8230  206.3520  154.6790 N   0  0  0  0  0  2  0  0  0  0  0  0
  160.8110  210.4750  153.5960 C   0  0  2  0  0  3  0  0  0  0  0  0
  159.8400  211.4400  152.0690 C   0  0  2  0  0  3  0  0  0  0  0  0
  160.5660  209.0050  153.9610 C   0  0  0  0  0  2  0  0  0  0  0  0
  161.2970  208.3170  151.7480 N   0  0  0  0  0  0  0  0  0  0  0  0
  159.5340  211.1670  153.4720 N   0  0  0  0  0  2  0  0  0  0  0  0
  161.1770  210.7350  152.1290 C   0  0  2  0  0  3  0  0  0  0  0  0
  161.5090  208.1130  153.1630 C   0  0  2  0  0  3  0  0  0  0  0  0
  161.1450  209.5000  151.2570 C   0  0  0  0  0  3  0  0  0  0  0  0
  160.0460  212.9330  151.8680 C   0  0  0  0  0  2  0  0  0  0  0  0
  159.4530  213.3750  150.5340 C   0  0  1  0  0  3  0  0  0  0  0  0
  156.2180  214.2170  152.0730 C   0  0  0  0  0  2  0  0  0  0  0  0
  157.1180  213.9810  149.8560 C   0  0  0  0  0  2  0  0  0  0  0  0
  155.8840  214.4170  150.6100 C   0  0  0  0  0  2  0  0  0  0  0  0
  157.7340  214.2120  152.1770 C   0  0  0  0  0  2  0  0  0  0  0  0
  158.2800  214.3300  150.7610 C   0  0  0  0  0  3  0  0  0  0  0  0
  160.4820  214.0430  149.7470 N   0  0  0  0  0  2  0  0  0  0  0  0
  161.2480  212.1220  148.6480 O   0  0  0  0  0  0  0  0  0  0  0  0
  161.3680  213.3600  148.8540 C   0  0  0  0  0  0  0  0  0  0  0  0
  162.3870  214.0910  148.1810 N   0  0  0  0  0  1  0  0  0  0  0  0
  161.7160  205.6520  152.6570 O   0  0  0  0  0  0  0  0  0  0  0  0
  161.0270  204.4140  152.5790 C   0  0  0  0  0  2  0  0  0  0  0  0
  161.4660  203.6670  151.3350 C   0  0  0  0  0  2  0  0  0  0  0  0
  161.9400  204.6630  150.2940 C   0  0  0  0  0  2  0  0  0  0  0  0
  161.0360  204.6510  149.1540 N   0  0  0  0  0  0  0  0  0  0  0  0
  160.0260  206.6910  148.6460 O   0  0  0  0  0  1  0  0  0  0  0  0
  159.9560  205.5690  149.4760 C   0  0  0  0  0  2  0  0  0  0  0  0
  161.7630  205.2270  148.0310 C   0  0  0  0  0  2  0  0  0  0  0  0
  160.8980  203.8830  145.1830 C   0  0  0  0  0  3  0  0  0  0  0  0
  161.6190  205.0110  144.5620 C   0  0  0  0  0  3  0  0  0  0  0  0
  162.3540  204.1190  147.1700 C   0  0  2  0  0  3  0  0  0  0  0  0
  162.7880  205.4210  145.0650 C   0  0  0  0  0  3  0  0  0  0  0  0
  163.4200  204.6880  146.2210 C   0  0  0  0  0  2  0  0  0  0  0  0
  161.2590  203.4230  146.3900 C   0  0  0  0  0  0  0  0  0  0  0  0
  160.5690  202.2060  146.9410 C   0  0  1  0  0  3  0  0  0  0  0  0
  159.7920  201.2020  144.9020 O   0  0  0  0  0  0  0  0  0  0  0  0
  160.5220  201.1060  145.9260 C   0  0  0  0  0  0  0  0  0  0  0  0
  161.3060  199.9340  146.1260 N   0  0  0  0  0  1  0  0  0  0  0  0
  161.1940  201.7190  148.2450 C   0  0  0  0  0  2  0  0  0  0  0  0
  160.1580  201.2870  149.1660 N   0  0  0  0  0  1  0  0  0  0  0  0
  1  2  2  0  0  0  0
  3  5  1  6  0  0  0
  4 11  1  1  0  0  0
  4  8  1  0  0  0  0
  4  7  1  0  0  0  0
  6  9  1  0  0  0  0
  7  3  1  0  0  0  0
  8 10  1  6  0  0  0
  8  3  1  0  0  0  0
  9  1  1  6  0  0  0
  9  5  1  0  0  0  0
 10  6  2  0  0  0  0
 12 17  1  0  0  0  0
 12 11  1  1  0  0  0
 13 16  1  0  0  0  0
 14 15  1  0  0  0  0
 14 17  1  0  0  0  0
 15 13  1  0  0  0  0
 17 16  1  0  0  0  0
 18 12  1  0  0  0  0
 19 20  2  0  0  0  0
 20 18  1  0  0  0  0
 21 20  1  0  0  0  0
 22  1  1  0  0  0  0
 23 22  1  0  0  0  0
 24 23  1  0  0  0  0
 25 24  1  0  0  0  0
 26 28  1  0  0  0  0
 26 25  1  0  0  0  0
 27 28  1  0  0  0  0
 29 26  1  0  0  0  0
 30 35  2  0  0  0  0
 31 33  2  0  0  0  0
 31 30  1  0  0  0  0
 32 29  1  6  0  0  0
 33 34  1  0  0  0  0
 34 32  1  0  0  0  0
 35 36  1  0  0  0  0
 35 32  1  0  0  0  0
 36 40  1  1  0  0  0
 37 38  2  0  0  0  0
 38 39  1  0  0  0  0
 38 36  1  0  0  0  0
 40 41  1  0  0  0  0
M  END
>  <MODEL>
5

>  <REMARK>
 VINA RESULT:      -6.0      5.225      7.900
  Name = 
  16 active torsions:
  status: ('A' for Active; 'I' for Inactive)
    1  A    between atoms: N_3  and  C_24
    2  A    between atoms: N_3  and  C_38
    3  A    between atoms: N_3  and  C_41
    4  A    between atoms: N_5  and  C_9
    5  A    between atoms: C_6  and  C_11
    6  A    between atoms: C_6  and  O_37
    7  A    between atoms: C_7  and  C_29
    8  A    between atoms: C_9  and  C_30
    9  A    between atoms: C_9  and  C_32
   10  A    between atoms: C_10  and  C_30
   11  A    between atoms: C_11  and  C_24
   12  A    between atoms: C_16  and  C_38
   13  A    between atoms: C_25  and  C_29
   14  A    between atoms: C_29  and  C_35
   15  A    between atoms: C_33  and  C_36
   16  A    between atoms: C_36  and  O_37
                            x       y       z     vdW  Elec       q    Type
                         _______ _______ _______ _____ _____    ______ ____

>  <TORSDO>
F 16

$$$$
=
 OpenBabel11072413283D

 41 44  0  0  1  0  0  0  0  0999 V2000
  161.4530  213.1040  148.2910 C   0  0  0  0  0  0  0  0  0  0  0  0
  162.5400  212.4390  148.5140 N   0  0  0  0  0  2  0  0  0  0  0  0
  159.7670  213.0850  144.8400 C   0  0  2  0  0  3  0  0  0  0  0  0
  160.8130  212.5650  143.1540 C   0  0  2  0  0  3  0  0  0  0  0  0
  160.1240  212.5860  146.2460 C   0  0  0  0  0  2  0  0  0  0  0  0
  162.3060  213.6420  146.0850 N   0  0  0  0  0  0  0  0  0  0  0  0
  159.7250  211.9570  143.9180 N   0  0  0  0  0  2  0  0  0  0  0  0
  160.9120  213.7620  144.0740 C   0  0  2  0  0  3  0  0  0  0  0  0
  161.1140  213.5450  146.8970 C   0  0  2  0  0  3  0  0  0  0  0  0
  162.2370  213.7440  144.8020 C   0  0  0  0  0  3  0  0  0  0  0  0
  160.3050  212.9970  141.7880 C   0  0  0  0  0  2  0  0  0  0  0  0
  160.5640  211.9030  140.7570 C   0  0  1  0  0  3  0  0  0  0  0  0
  158.8850  210.3870  137.8550 C   0  0  0  0  0  2  0  0  0  0  0  0
  159.4420  212.5950  138.6270 C   0  0  0  0  0  2  0  0  0  0  0  0
  158.6820  211.8560  137.5510 C   0  0  0  0  0  2  0  0  0  0  0  0
  159.2530  210.2940  139.3270 C   0  0  0  0  0  2  0  0  0  0  0  0
  159.3430  211.7180  139.8570 C   0  0  0  0  0  3  0  0  0  0  0  0
  161.7190  212.2700  139.9450 N   0  0  0  0  0  2  0  0  0  0  0  0
  162.7530  210.1700  140.0100 O   0  0  0  0  0  0  0  0  0  0  0  0
  162.7920  211.3750  139.6400 C   0  0  0  0  0  0  0  0  0  0  0  0
  163.9100  211.8470  138.8970 N   0  0  0  0  0  1  0  0  0  0  0  0
  160.5870  213.3650  149.3560 O   0  0  0  0  0  0  0  0  0  0  0  0
  160.6650  212.6570  150.5830 C   0  0  0  0  0  2  0  0  0  0  0  0
  159.4250  212.9390  151.4090 C   0  0  0  0  0  2  0  0  0  0  0  0
  159.2190  211.8140  152.4040 C   0  0  0  0  0  2  0  0  0  0  0  0
  160.4650  211.0850  152.5880 N   0  0  0  0  0  0  0  0  0  0  0  0
  159.6570  211.4330  154.7480 O   0  0  0  0  0  1  0  0  0  0  0  0
  160.8120  211.2120  153.9940 C   0  0  0  0  0  2  0  0  0  0  0  0
  160.1730  209.6790  152.3480 C   0  0  0  0  0  2  0  0  0  0  0  0
  161.1160  207.1480  150.5120 C   0  0  0  0  0  3  0  0  0  0  0  0
  161.4170  208.1570  149.4770 C   0  0  0  0  0  3  0  0  0  0  0  0
  161.4700  208.8900  152.2340 C   0  0  2  0  0  3  0  0  0  0  0  0
  161.9990  209.3120  149.8140 C   0  0  0  0  0  3  0  0  0  0  0  0
  162.4250  209.5660  151.2390 C   0  0  0  0  0  2  0  0  0  0  0  0
  161.1780  207.4640  151.8130 C   0  0  0  0  0  0  0  0  0  0  0  0
  160.9680  206.3830  152.8360 C   0  0  1  0  0  3  0  0  0  0  0  0
  162.7750  205.0340  152.0050 O   0  0  0  0  0  0  0  0  0  0  0  0
  161.5720  205.0880  152.3850 C   0  0  0  0  0  0  0  0  0  0  0  0
  160.7770  203.9070  152.3800 N   0  0  0  0  0  1  0  0  0  0  0  0
  161.4860  206.7740  154.2170 C   0  0  0  0  0  2  0  0  0  0  0  0
  160.3770  207.1360  155.0830 N   0  0  0  0  0  1  0  0  0  0  0  0
  1  2  2  0  0  0  0
  1 22  1  0  0  0  0
  3  5  1  1  0  0  0
  4 11  1  6  0  0  0
  4  7  1  0  0  0  0
  4  8  1  0  0  0  0
  5  9  1  0  0  0  0
  6  9  1  0  0  0  0
  7  3  1  0  0  0  0
  8 10  1  1  0  0  0
  8  3  1  0  0  0  0
  9  1  1  1  0  0  0
 10  6  2  0  0  0  0
 12 11  1  1  0  0  0
 13 16  1  0  0  0  0
 14 17  1  0  0  0  0
 15 13  1  0  0  0  0
 15 14  1  0  0  0  0
 16 17  1  0  0  0  0
 17 12  1  0  0  0  0
 18 12  1  0  0  0  0
 20 18  1  0  0  0  0
 20 19  2  0  0  0  0
 21 20  1  0  0  0  0
 22 23  1  0  0  0  0
 23 24  1  0  0  0  0
 24 25  1  0  0  0  0
 25 26  1  0  0  0  0
 26 28  1  0  0  0  0
 28 27  1  0  0  0  0
 29 26  1  0  0  0  0
 30 35  2  0  0  0  0
 31 33  2  0  0  0  0
 31 30  1  0  0  0  0
 32 29  1  6  0  0  0
 33 34  1  0  0  0  0
 34 32  1  0  0  0  0
 35 32  1  0  0  0  0
 35 36  1  0  0  0  0
 36 40  1  1  0  0  0
 37 38  2  0  0  0  0
 38 36  1  0  0  0  0
 39 38  1  0  0  0  0
 40 41  1  0  0  0  0
M  END
>  <MODEL>
6

>  <REMARK>
 VINA RESULT:      -5.6      2.776      4.080
  Name = 
  16 active torsions:
  status: ('A' for Active; 'I' for Inactive)
    1  A    between atoms: N_3  and  C_24
    2  A    between atoms: N_3  and  C_38
    3  A    between atoms: N_3  and  C_41
    4  A    between atoms: N_5  and  C_9
    5  A    between atoms: C_6  and  C_11
    6  A    between atoms: C_6  and  O_37
    7  A    between atoms: C_7  and  C_29
    8  A    between atoms: C_9  and  C_30
    9  A    between atoms: C_9  and  C_32
   10  A    between atoms: C_10  and  C_30
   11  A    between atoms: C_11  and  C_24
   12  A    between atoms: C_16  and  C_38
   13  A    between atoms: C_25  and  C_29
   14  A    between atoms: C_29  and  C_35
   15  A    between atoms: C_33  and  C_36
   16  A    between atoms: C_36  and  O_37
                            x       y       z     vdW  Elec       q    Type
                         _______ _______ _______ _____ _____    ______ ____

>  <TORSDO>
F 16

$$$$
=
 OpenBabel11072413283D

 41 44  0  0  1  0  0  0  0  0999 V2000
  161.5070  205.2980  144.9550 C   0  0  0  0  0  0  0  0  0  0  0  0
  162.3030  204.2870  144.8180 N   0  0  0  0  0  2  0  0  0  0  0  0
  160.9140  207.3000  148.1780 C   0  0  2  0  0  3  0  0  0  0  0  0
  161.7110  206.6880  149.9660 C   0  0  2  0  0  3  0  0  0  0  0  0
  161.5280  206.9570  146.8150 C   0  0  0  0  0  2  0  0  0  0  0  0
  161.2320  204.5870  147.2580 N   0  0  0  0  0  0  0  0  0  0  0  0
  161.9490  207.8140  149.0650 N   0  0  0  0  0  2  0  0  0  0  0  0
  160.6280  206.0980  149.0890 C   0  0  2  0  0  3  0  0  0  0  0  0
  160.9540  205.6400  146.3070 C   0  0  2  0  0  3  0  0  0  0  0  0
  161.0880  204.7720  148.5250 C   0  0  0  0  0  3  0  0  0  0  0  0
  161.1110  207.1890  151.2700 C   0  0  0  0  0  2  0  0  0  0  0  0
  161.6800  206.4050  152.4490 C   0  0  1  0  0  3  0  0  0  0  0  0
  159.9950  207.8050  155.4060 C   0  0  0  0  0  2  0  0  0  0  0  0
  161.0930  208.6330  153.4330 C   0  0  0  0  0  2  0  0  0  0  0  0
  160.4790  209.0770  154.7390 C   0  0  0  0  0  2  0  0  0  0  0  0
  160.7890  206.6640  154.7930 C   0  0  0  0  0  2  0  0  0  0  0  0
  161.6780  207.2650  153.7130 C   0  0  0  0  0  3  0  0  0  0  0  0
  160.8710  205.2110  152.6690 N   0  0  0  0  0  2  0  0  0  0  0  0
  162.3150  203.7220  151.5820 O   0  0  0  0  0  0  0  0  0  0  0  0
  161.2220  203.9130  152.1810 C   0  0  0  0  0  0  0  0  0  0  0  0
  160.3320  202.8210  152.3870 N   0  0  0  0  0  1  0  0  0  0  0  0
  161.2090  206.0820  143.8380 O   0  0  0  0  0  0  0  0  0  0  0  0
  161.6010  205.7090  142.5270 C   0  0  0  0  0  2  0  0  0  0  0  0
  161.7290  206.9490  141.6650 C   0  0  0  0  0  2  0  0  0  0  0  0
  162.3730  206.5780  140.3430 C   0  0  0  0  0  2  0  0  0  0  0  0
  162.3730  207.7300  139.4550 N   0  0  0  0  0  0  0  0  0  0  0  0
  162.6330  206.3490  137.5940 O   0  0  0  0  0  1  0  0  0  0  0  0
  161.7890  207.2830  138.2010 C   0  0  0  0  0  2  0  0  0  0  0  0
  161.4540  208.7060  140.0270 C   0  0  0  0  0  2  0  0  0  0  0  0
  159.8040  211.5230  140.0710 C   0  0  0  0  0  3  0  0  0  0  0  0
  160.4810  211.7680  141.3590 C   0  0  0  0  0  3  0  0  0  0  0  0
  161.7010  210.0760  139.4130 C   0  0  2  0  0  3  0  0  0  0  0  0
  161.7730  211.4600  141.5090 C   0  0  0  0  0  3  0  0  0  0  0  0
  162.5720  210.9330  140.3440 C   0  0  0  0  0  2  0  0  0  0  0  0
  160.3820  210.7660  139.1280 C   0  0  0  0  0  0  0  0  0  0  0  0
  159.7090  210.6280  137.7910 C   0  0  1  0  0  3  0  0  0  0  0  0
  158.6840  208.4940  137.3850 O   0  0  0  0  0  0  0  0  0  0  0  0
  158.5700  209.6580  137.8570 C   0  0  0  0  0  0  0  0  0  0  0  0
  157.3410  210.0600  138.4550 N   0  0  0  0  0  1  0  0  0  0  0  0
  159.2520  211.9680  137.2240 C   0  0  0  0  0  2  0  0  0  0  0  0
  160.3960  212.8380  137.0110 N   0  0  0  0  0  1  0  0  0  0  0  0
  2  1  2  0  0  0  0
  3  5  1  6  0  0  0
  3  7  1  0  0  0  0
  3  8  1  0  0  0  0
  4 11  1  1  0  0  0
  6 10  2  0  0  0  0
  7  4  1  0  0  0  0
  8 10  1  6  0  0  0
  8  4  1  0  0  0  0
  9  1  1  6  0  0  0
  9  5  1  0  0  0  0
  9  6  1  0  0  0  0
 12 11  1  6  0  0  0
 12 18  1  0  0  0  0
 12 17  1  0  0  0  0
 14 17  1  0  0  0  0
 14 15  1  0  0  0  0
 15 13  1  0  0  0  0
 16 13  1  0  0  0  0
 17 16  1  0  0  0  0
 19 20  2  0  0  0  0
 20 21  1  0  0  0  0
 20 18  1  0  0  0  0
 22  1  1  0  0  0  0
 23 22  1  0  0  0  0
 24 23  1  0  0  0  0
 25 24  1  0  0  0  0
 26 29  1  0  0  0  0
 26 25  1  0  0  0  0
 27 28  1  0  0  0  0
 28 26  1  0  0  0  0
 30 31  1  0  0  0  0
 31 33  2  0  0  0  0
 32 29  1  1  0  0  0
 32 34  1  0  0  0  0
 34 33  1  0  0  0  0
 35 32  1  0  0  0  0
 35 30  2  0  0  0  0
 36 40  1  1  0  0  0
 36 38  1  0  0  0  0
 36 35  1  0  0  0  0
 37 38  2  0  0  0  0
 38 39  1  0  0  0  0
 41 40  1  0  0  0  0
M  END
>  <MODEL>
7

>  <REMARK>
 VINA RESULT:      -5.5      3.273     11.772
  Name = 
  16 active torsions:
  status: ('A' for Active; 'I' for Inactive)
    1  A    between atoms: N_3  and  C_24
    2  A    between atoms: N_3  and  C_38
    3  A    between atoms: N_3  and  C_41
    4  A    between atoms: N_5  and  C_9
    5  A    between atoms: C_6  and  C_11
    6  A    between atoms: C_6  and  O_37
    7  A    between atoms: C_7  and  C_29
    8  A    between atoms: C_9  and  C_30
    9  A    between atoms: C_9  and  C_32
   10  A    between atoms: C_10  and  C_30
   11  A    between atoms: C_11  and  C_24
   12  A    between atoms: C_16  and  C_38
   13  A    between atoms: C_25  and  C_29
   14  A    between atoms: C_29  and  C_35
   15  A    between atoms: C_33  and  C_36
   16  A    between atoms: C_36  and  O_37
                            x       y       z     vdW  Elec       q    Type
                         _______ _______ _______ _____ _____    ______ ____

>  <TORSDO>
F 16

$$$$
=
 OpenBabel11072413283D

 41 44  0  0  1  0  0  0  0  0999 V2000
  162.2080  209.6520  150.5900 C   0  0  0  0  0  0  0  0  0  0  0  0
  161.9550  210.1880  149.4400 N   0  0  0  0  0  2  0  0  0  0  0  0
  161.2250  210.1750  154.2660 C   0  0  2  0  0  3  0  0  0  0  0  0
  159.3340  210.7770  154.7800 C   0  0  2  0  0  3  0  0  0  0  0  0
  161.5490  209.4010  152.9810 C   0  0  0  0  0  2  0  0  0  0  0  0
  160.7110  211.2460  151.6400 N   0  0  0  0  0  0  0  0  0  0  0  0
  160.1010  209.5440  154.9460 N   0  0  0  0  0  2  0  0  0  0  0  0
  160.4600  211.4890  154.0650 C   0  0  2  0  0  3  0  0  0  0  0  0
  161.8490  210.3800  151.8520 C   0  0  2  0  0  3  0  0  0  0  0  0
  160.0670  211.7620  152.6300 C   0  0  0  0  0  3  0  0  0  0  0  0
  159.0880  211.4180  156.1370 C   0  0  0  0  0  2  0  0  0  0  0  0
  157.6090  211.7490  156.3060 C   0  0  1  0  0  3  0  0  0  0  0  0
  155.2950  214.4440  155.3460 C   0  0  0  0  0  2  0  0  0  0  0  0
  157.1320  213.2500  154.3570 C   0  0  0  0  0  2  0  0  0  0  0  0
  156.1980  214.4140  154.1300 C   0  0  0  0  0  2  0  0  0  0  0  0
  156.0310  213.7100  156.4530 C   0  0  0  0  0  2  0  0  0  0  0  0
  157.3290  213.1840  155.8560 C   0  0  0  0  0  3  0  0  0  0  0  0
  156.8140  210.8230  155.5090 N   0  0  0  0  0  2  0  0  0  0  0  0
  154.8910  210.9260  156.8420 O   0  0  0  0  0  0  0  0  0  0  0  0
  155.4820  210.4240  155.8470 C   0  0  0  0  0  0  0  0  0  0  0  0
  154.8120  209.4600  155.0430 N   0  0  0  0  0  1  0  0  0  0  0  0
  162.7780  208.3780  150.6340 O   0  0  0  0  0  0  0  0  0  0  0  0
  162.3600  207.3330  149.7690 C   0  0  0  0  0  2  0  0  0  0  0  0
  160.8450  207.2710  149.7480 C   0  0  0  0  0  2  0  0  0  0  0  0
  160.3860  205.9950  150.4260 C   0  0  0  0  0  2  0  0  0  0  0  0
  161.5150  205.3540  151.0830 N   0  0  0  0  0  0  0  0  0  0  0  0
  161.1640  203.7250  152.7150 O   0  0  0  0  0  1  0  0  0  0  0  0
  161.1020  205.0960  152.4530 C   0  0  0  0  0  2  0  0  0  0  0  0
  161.6980  204.0580  150.4440 C   0  0  0  0  0  2  0  0  0  0  0  0
  161.5830  202.3410  147.6680 C   0  0  0  0  0  3  0  0  0  0  0  0
  161.2380  201.1920  148.5270 C   0  0  0  0  0  3  0  0  0  0  0  0
  160.6240  203.8420  149.3870 C   0  0  2  0  0  3  0  0  0  0  0  0
  160.3870  201.3450  149.5460 C   0  0  0  0  0  3  0  0  0  0  0  0
  159.7100  202.6720  149.7830 C   0  0  0  0  0  2  0  0  0  0  0  0
  161.2630  203.5900  148.0370 C   0  0  0  0  0  0  0  0  0  0  0  0
  161.5360  204.7220  147.0870 C   0  0  1  0  0  3  0  0  0  0  0  0
  161.3420  203.7590  144.8950 O   0  0  0  0  0  0  0  0  0  0  0  0
  162.0990  204.2190  145.7940 C   0  0  0  0  0  0  0  0  0  0  0  0
  163.5070  204.2530  145.5810 N   0  0  0  0  0  1  0  0  0  0  0  0
  160.3060  205.5920  146.8430 C   0  0  0  0  0  2  0  0  0  0  0  0
  160.4020  206.2420  145.5480 N   0  0  0  0  0  1  0  0  0  0  0  0
  1 22  1  0  0  0  0
  2  1  2  0  0  0  0
  3  5  1  6  0  0  0
  3  7  1  0  0  0  0
  4  7  1  0  0  0  0
  4 11  1  1  0  0  0
  6  9  1  0  0  0  0
  6 10  2  0  0  0  0
  8 10  1  6  0  0  0
  8  3  1  0  0  0  0
  8  4  1  0  0  0  0
  9  1  1  6  0  0  0
  9  5  1  0  0  0  0
 12 11  1  6  0  0  0
 13 16  1  0  0  0  0
 14 17  1  0  0  0  0
 15 14  1  0  0  0  0
 15 13  1  0  0  0  0
 17 12  1  0  0  0  0
 17 16  1  0  0  0  0
 18 20  1  0  0  0  0
 18 12  1  0  0  0  0
 20 19  2  0  0  0  0
 21 20  1  0  0  0  0
 23 22  1  0  0  0  0
 24 23  1  0  0  0  0
 24 25  1  0  0  0  0
 25 26  1  0  0  0  0
 26 28  1  0  0  0  0
 28 27  1  0  0  0  0
 29 26  1  0  0  0  0
 30 35  2  0  0  0  0
 30 31  1  0  0  0  0
 31 33  2  0  0  0  0
 32 34  1  0  0  0  0
 32 29  1  1  0  0  0
 33 34  1  0  0  0  0
 35 32  1  0  0  0  0
 36 40  1  6  0  0  0
 36 35  1  0  0  0  0
 37 38  2  0  0  0  0
 38 36  1  0  0  0  0
 39 38  1  0  0  0  0
 41 40  1  0  0  0  0
M  END
>  <MODEL>
8

>  <REMARK>
 VINA RESULT:      -5.4      6.022      9.946
  Name = 
  16 active torsions:
  status: ('A' for Active; 'I' for Inactive)
    1  A    between atoms: N_3  and  C_24
    2  A    between atoms: N_3  and  C_38
    3  A    between atoms: N_3  and  C_41
    4  A    between atoms: N_5  and  C_9
    5  A    between atoms: C_6  and  C_11
    6  A    between atoms: C_6  and  O_37
    7  A    between atoms: C_7  and  C_29
    8  A    between atoms: C_9  and  C_30
    9  A    between atoms: C_9  and  C_32
   10  A    between atoms: C_10  and  C_30
   11  A    between atoms: C_11  and  C_24
   12  A    between atoms: C_16  and  C_38
   13  A    between atoms: C_25  and  C_29
   14  A    between atoms: C_29  and  C_35
   15  A    between atoms: C_33  and  C_36
   16  A    between atoms: C_36  and  O_37
                            x       y       z     vdW  Elec       q    Type
                         _______ _______ _______ _____ _____    ______ ____

>  <TORSDO>
F 16

$$$$
=
 OpenBabel11072413283D

 41 44  0  0  1  0  0  0  0  0999 V2000
  161.0280  207.8880  155.3150 C   0  0  0  0  0  0  0  0  0  0  0  0
  161.4870  207.7640  156.5190 N   0  0  0  0  0  2  0  0  0  0  0  0
  162.1150  206.9590  151.7510 C   0  0  2  0  0  3  0  0  0  0  0  0
  161.1140  205.5270  150.6780 C   0  0  2  0  0  3  0  0  0  0  0  0
  161.4670  207.7930  152.8630 C   0  0  0  0  0  2  0  0  0  0  0  0
  160.9990  205.7720  154.1290 N   0  0  0  0  0  0  0  0  0  0  0  0
  161.2640  206.9770  150.5680 N   0  0  0  0  0  2  0  0  0  0  0  0
  161.9860  205.4390  151.9110 C   0  0  2  0  0  3  0  0  0  0  0  0
  161.6190  207.0760  154.1990 C   0  0  2  0  0  3  0  0  0  0  0  0
  161.1550  205.0110  153.0990 C   0  0  0  0  0  3  0  0  0  0  0  0
  161.8000  204.8460  149.5040 C   0  0  0  0  0  2  0  0  0  0  0  0
  160.7610  204.2780  148.5420 C   0  0  1  0  0  3  0  0  0  0  0  0
  162.3520  204.1750  145.2250 C   0  0  0  0  0  2  0  0  0  0  0  0
  162.2160  205.7000  147.0800 C   0  0  0  0  0  2  0  0  0  0  0  0
  162.7200  205.5780  145.6620 C   0  0  0  0  0  2  0  0  0  0  0  0
  161.2130  203.7250  146.1250 C   0  0  0  0  0  2  0  0  0  0  0  0
  160.9730  204.8380  147.1350 C   0  0  0  0  0  3  0  0  0  0  0  0
  160.8770  202.8240  148.5130 N   0  0  0  0  0  2  0  0  0  0  0  0
  160.4240  202.4870  150.7850 O   0  0  0  0  0  0  0  0  0  0  0  0
  160.7360  201.9920  149.6680 C   0  0  0  0  0  0  0  0  0  0  0  0
  160.9350  200.5880  149.5510 N   0  0  0  0  0  1  0  0  0  0  0  0
  159.9550  208.7500  155.0850 O   0  0  0  0  0  0  0  0  0  0  0  0
  159.5320  209.7040  156.0470 C   0  0  0  0  0  2  0  0  0  0  0  0
  159.3410  211.0500  155.3760 C   0  0  0  0  0  2  0  0  0  0  0  0
  158.9590  210.8360  153.9240 C   0  0  0  0  0  2  0  0  0  0  0  0
  159.6040  211.8410  153.0930 N   0  0  0  0  0  0  0  0  0  0  0  0
  160.4970  211.1490  151.0530 O   0  0  0  0  0  1  0  0  0  0  0  0
  160.7160  211.1780  152.4320 C   0  0  0  0  0  2  0  0  0  0  0  0
  158.6510  212.2080  152.0550 C   0  0  0  0  0  2  0  0  0  0  0  0
  156.3920  214.3850  151.1480 C   0  0  0  0  0  3  0  0  0  0  0  0
  156.0050  214.4070  152.5720 C   0  0  0  0  0  3  0  0  0  0  0  0
  158.6730  213.7140  151.8360 C   0  0  2  0  0  3  0  0  0  0  0  0
  156.9430  214.4020  153.5240 C   0  0  0  0  0  3  0  0  0  0  0  0
  158.4050  214.4530  153.1560 C   0  0  0  0  0  2  0  0  0  0  0  0
  157.6520  214.1040  150.7870 C   0  0  0  0  0  0  0  0  0  0  0  0
  158.0310  214.1960  149.3350 C   0  0  1  0  0  3  0  0  0  0  0  0
  160.3520  214.4520  149.9010 O   0  0  0  0  0  0  0  0  0  0  0  0
  159.4920  213.9290  149.1390 C   0  0  0  0  0  0  0  0  0  0  0  0
  159.9140  213.0820  148.0760 N   0  0  0  0  0  1  0  0  0  0  0  0
  157.1870  213.2830  148.4510 C   0  0  0  0  0  2  0  0  0  0  0  0
  156.7920  213.9840  147.2410 N   0  0  0  0  0  1  0  0  0  0  0  0
  1  2  2  0  0  0  0
  3  8  1  0  0  0  0
  3  5  1  1  0  0  0
  4 11  1  6  0  0  0
  4  8  1  0  0  0  0
  5  9  1  0  0  0  0
  6  9  1  0  0  0  0
  7  4  1  0  0  0  0
  7  3  1  0  0  0  0
  8 10  1  1  0  0  0
  9  1  1  1  0  0  0
 10  6  2  0  0  0  0
 12 11  1  1  0  0  0
 13 15  1  0  0  0  0
 13 16  1  0  0  0  0
 14 17  1  0  0  0  0
 15 14  1  0  0  0  0
 16 17  1  0  0  0  0
 17 12  1  0  0  0  0
 18 12  1  0  0  0  0
 18 20  1  0  0  0  0
 20 19  2  0  0  0  0
 21 20  1  0  0  0  0
 22  1  1  0  0  0  0
 22 23  1  0  0  0  0
 24 23  1  0  0  0  0
 25 24  1  0  0  0  0
 26 25  1  0  0  0  0
 27 28  1  0  0  0  0
 28 26  1  0  0  0  0
 29 26  1  0  0  0  0
 30 31  1  0  0  0  0
 31 33  2  0  0  0  0
 32 29  1  1  0  0  0
 32 34  1  0  0  0  0
 34 33  1  0  0  0  0
 35 30  2  0  0  0  0
 35 32  1  0  0  0  0
 36 40  1  6  0  0  0
 36 35  1  0  0  0  0
 38 36  1  0  0  0  0
 38 37  2  0  0  0  0
 39 38  1  0  0  0  0
 41 40  1  0  0  0  0
M  END
>  <MODEL>
9

>  <REMARK>
 VINA RESULT:      -5.4      5.617     10.322
  Name = 
  16 active torsions:
  status: ('A' for Active; 'I' for Inactive)
    1  A    between atoms: N_3  and  C_24
    2  A    between atoms: N_3  and  C_38
    3  A    between atoms: N_3  and  C_41
    4  A    between atoms: N_5  and  C_9
    5  A    between atoms: C_6  and  C_11
    6  A    between atoms: C_6  and  O_37
    7  A    between atoms: C_7  and  C_29
    8  A    between atoms: C_9  and  C_30
    9  A    between atoms: C_9  and  C_32
   10  A    between atoms: C_10  and  C_30
   11  A    between atoms: C_11  and  C_24
   12  A    between atoms: C_16  and  C_38
   13  A    between atoms: C_25  and  C_29
   14  A    between atoms: C_29  and  C_35
   15  A    between atoms: C_33  and  C_36
   16  A    between atoms: C_36  and  O_37
                            x       y       z     vdW  Elec       q    Type
                         _______ _______ _______ _____ _____    ______ ____

>  <TORSDO>
F 16

$$$$
