=
 OpenBabel11072410383D

 50 53  0  0  1  0  0  0  0  0999 V2000
  161.9860  209.0410  150.6970 C   0  0  1  0  0  3  0  0  0  0  0  0
  161.8560  210.2000  154.3700 C   0  0  0  0  0  2  0  0  0  0  0  0
  160.7300  208.1140  154.2460 C   0  0  0  0  0  2  0  0  0  0  0  0
  160.6360  209.4840  154.7430 N   0  0  0  0  0  2  0  0  0  0  0  0
  161.9490  210.3200  152.8520 C   0  0  0  0  0  2  0  0  0  0  0  0
  161.9570  208.9290  152.2250 C   0  0  0  0  0  3  0  0  0  0  0  0
  160.7560  208.1140  152.7210 C   0  0  0  0  0  2  0  0  0  0  0  0
  161.6640  206.6850  150.6340 O   0  0  0  0  0  0  0  0  0  0  0  0
  161.2160  207.7800  148.6160 N   0  0  0  0  0  2  0  0  0  0  0  0
  161.5970  207.7710  149.9990 C   0  0  0  0  0  0  0  0  0  0  0  0
  160.9550  206.5820  147.8190 C   0  0  1  0  0  3  0  0  0  0  0  0
  162.7620  204.6910  145.6730 C   0  0  0  0  0  0  0  0  0  0  0  0
  163.7100  203.7750  145.5350 C   0  0  0  0  0  2  0  0  0  0  0  0
  162.8570  205.7350  146.5830 O   0  0  0  0  0  0  0  0  0  0  0  0
  161.5180  204.7420  144.8620 C   0  0  2  0  0  3  0  0  0  0  0  0
  159.9400  206.5410  144.9170 O   0  0  0  0  0  0  0  0  0  0  0  0
  160.9340  206.0120  145.3880 C   0  0  0  0  0  0  0  0  0  0  0  0
  161.7400  206.6100  146.5030 C   0  0  1  0  0  3  0  0  0  0  0  0
  160.6190  203.5590  145.2120 C   0  0  0  0  0  2  0  0  0  0  0  0
  160.8210  201.1260  146.3840 S   0  0  0  0  0  0  0  0  0  0  0  0
  161.2460  202.6750  146.2440 C   0  0  0  0  0  2  0  0  0  0  0  0
  161.8170  200.5640  147.7750 C   0  0  0  0  0  2  0  0  0  0  0  0
  159.5790  201.7760  150.1840 C   0  0  0  0  0  2  0  0  0  0  0  0
  160.9790  200.5170  149.0400 C   0  0  0  0  0  3  0  0  0  0  0  0
  159.8430  201.3260  148.8940 O   0  0  0  0  0  0  0  0  0  0  0  0
  160.8270  201.5470  150.9830 C   0  0  0  0  0  2  0  0  0  0  0  0
  161.7480  200.9520  150.1270 O   0  0  0  0  0  0  0  0  0  0  0  0
  161.5020  204.3810  149.2350 C   0  0  0  0  0  3  0  0  0  0  0  0
  161.2560  205.3730  148.5970 C   0  0  0  0  0  0  0  0  0  0  0  0
  161.1990  210.1070  150.2470 O   0  0  0  0  0  0  0  0  0  0  0  0
  162.0390  210.8350  149.4030 C   0  0  0  0  0  2  0  0  0  0  0  0
  161.8210  212.3310  149.6260 C   0  0  0  0  0  2  0  0  0  0  0  0
  159.8560  211.8900  146.7520 C   0  0  0  0  0  1  0  0  0  0  0  0
  161.6510  214.3180  148.2820 C   0  0  0  0  0  2  0  0  0  0  0  0
  161.2450  212.2030  147.2990 C   0  0  2  0  0  3  0  0  0  0  0  0
  161.0980  212.9840  148.5290 N   0  0  0  0  0  0  0  0  0  0  0  0
  162.1000  213.0360  146.3430 C   0  0  2  0  0  3  0  0  0  0  0  0
  161.8970  214.4530  146.7950 C   0  0  0  0  0  2  0  0  0  0  0  0
  162.6410  213.1530  143.8730 C   0  0  0  0  0  0  0  0  0  0  0  0
  161.7310  212.8760  144.9410 N   0  0  0  0  0  2  0  0  0  0  0  0
  161.0000  212.4290  142.0660 C   0  0  0  0  0  0  0  0  0  0  0  0
  162.2700  212.9200  142.5110 N   0  0  0  0  0  2  0  0  0  0  0  0
  163.7910  213.6000  144.1270 O   0  0  0  0  0  0  0  0  0  0  0  0
  160.0680  212.1950  142.8820 O   0  0  0  0  0  0  0  0  0  0  0  0
  160.7800  212.1920  140.6110 C   0  0  0  0  0  2  0  0  0  0  0  0
  161.0230  210.7300  140.2420 C   0  0  0  0  0  2  0  0  0  0  0  0
  161.8530  209.9990  138.1000 O   0  0  0  0  0  1  0  0  0  0  0  0
  160.7040  210.4090  138.7820 C   0  0  2  0  0  3  0  0  0  0  0  0
  158.6380  211.2620  137.6800 C   0  0  0  0  0  1  0  0  0  0  0  0
  160.0620  211.5960  138.0810 C   0  0  0  0  0  2  0  0  0  0  0  0
  1 10  1  6  0  0  0
  1  6  1  0  0  0  0
  2  4  1  0  0  0  0
  3  4  1  0  0  0  0
  5  2  1  0  0  0  0
  6  7  1  0  0  0  0
  6  5  1  0  0  0  0
  7  3  1  0  0  0  0
  9 10  1  0  0  0  0
 10  8  2  0  0  0  0
 11 29  1  1  0  0  0
 11  9  1  0  0  0  0
 12 14  1  0  0  0  0
 13 12  2  0  0  0  0
 15 19  1  1  0  0  0
 15 17  1  0  0  0  0
 15 12  1  0  0  0  0
 16 17  2  0  0  0  0
 17 18  1  0  0  0  0
 18 14  1  0  0  0  0
 18 11  1  1  0  0  0
 19 21  1  0  0  0  0
 20 22  1  0  0  0  0
 21 20  1  0  0  0  0
 22 24  1  0  0  0  0
 23 26  1  0  0  0  0
 24 27  1  0  0  0  0
 25 24  1  0  0  0  0
 25 23  1  0  0  0  0
 27 26  1  0  0  0  0
 29 28  3  0  0  0  0
 30  1  1  0  0  0  0
 31 32  1  0  0  0  0
 31 30  1  0  0  0  0
 34 36  1  0  0  0  0
 35 33  1  6  0  0  0
 35 36  1  0  0  0  0
 36 32  1  0  0  0  0
 37 40  1  6  0  0  0
 37 38  1  0  0  0  0
 37 35  1  0  0  0  0
 38 34  1  0  0  0  0
 39 43  2  0  0  0  0
 39 40  1  0  0  0  0
 41 42  1  0  0  0  0
 41 44  2  0  0  0  0
 42 39  1  0  0  0  0
 45 41  1  0  0  0  0
 46 45  1  0  0  0  0
 48 47  1  6  0  0  0
 48 46  1  0  0  0  0
 49 50  1  0  0  0  0
 50 48  1  0  0  0  0
M  END
>  <MODEL>
1

>  <REMARK>
 VINA RESULT:      -5.4      0.000      0.000
  Name = 
  18 active torsions:
  status: ('A' for Active; 'I' for Inactive)
    1  A    between atoms: C_2  and  C_22
    2  A    between atoms: C_2  and  C_44
    3  A    between atoms: N_7  and  C_23
    4  A    between atoms: C_11  and  C_12
    5  A    between atoms: C_11  and  O_32
    6  A    between atoms: C_12  and  N_18
    7  A    between atoms: C_16  and  C_22
    8  A    between atoms: C_20  and  C_47
    9  A    between atoms: C_25  and  C_28
   10  A    between atoms: S_27  and  C_48
   11  A    between atoms: C_28  and  O_32
   12  A    between atoms: C_28  and  C_33
   13  A    between atoms: N_29  and  C_38
   14  A    between atoms: C_30  and  C_48
   15  A    between atoms: C_34  and  C_47
   16  A    between atoms: C_38  and  C_46
   17  A    between atoms: C_38  and  C_50
   18  A    between atoms: C_40  and  C_44
                            x       y       z     vdW  Elec       q    Type
                         _______ _______ _______ _____ _____    ______ ____

>  <TORSDO>
F 18

$$$$
=
 OpenBabel11072410383D

 50 53  0  0  1  0  0  0  0  0999 V2000
  161.0320  209.8590  152.6660 C   0  0  1  0  0  3  0  0  0  0  0  0
  161.7130  211.9400  149.4940 C   0  0  0  0  0  2  0  0  0  0  0  0
  161.9290  209.6520  148.9000 C   0  0  0  0  0  2  0  0  0  0  0  0
  162.5660  210.9640  148.8160 N   0  0  0  0  0  2  0  0  0  0  0  0
  161.6300  211.6180  150.9830 C   0  0  0  0  0  2  0  0  0  0  0  0
  161.0600  210.2160  151.1760 C   0  0  0  0  0  3  0  0  0  0  0  0
  161.8600  209.1980  150.3540 C   0  0  0  0  0  2  0  0  0  0  0  0
  161.1500  211.4500  154.4300 O   0  0  0  0  0  0  0  0  0  0  0  0
  159.0700  211.3340  153.3670 N   0  0  0  0  0  2  0  0  0  0  0  0
  160.4390  210.9360  153.5250 C   0  0  0  0  0  0  0  0  0  0  0  0
  158.3700  212.2700  154.2440 C   0  0  1  0  0  3  0  0  0  0  0  0
  158.9970  214.1930  151.5320 C   0  0  0  0  0  0  0  0  0  0  0  0
  159.7380  214.3670  150.4470 C   0  0  0  0  0  2  0  0  0  0  0  0
  159.5290  213.7760  152.7430 O   0  0  0  0  0  0  0  0  0  0  0  0
  157.5350  214.4530  151.6000 C   0  0  2  0  0  3  0  0  0  0  0  0
  156.2450  214.4040  153.6170 O   0  0  0  0  0  0  0  0  0  0  0  0
  157.3080  214.1910  153.0540 C   0  0  0  0  0  0  0  0  0  0  0  0
  158.5410  213.7150  153.7630 C   0  0  1  0  0  3  0  0  0  0  0  0
  156.7830  213.4310  150.7530 C   0  0  0  0  0  2  0  0  0  0  0  0
  157.3850  212.8550  148.1750 S   0  0  0  0  0  0  0  0  0  0  0  0
  156.7620  213.8190  149.3080 C   0  0  0  0  0  2  0  0  0  0  0  0
  157.1470  213.8080  146.6660 C   0  0  0  0  0  2  0  0  0  0  0  0
  159.6340  212.1890  144.8030 C   0  0  0  0  0  2  0  0  0  0  0  0
  158.3750  213.7110  145.7810 C   0  0  0  0  0  3  0  0  0  0  0  0
  158.3050  212.5570  144.9850 O   0  0  0  0  0  0  0  0  0  0  0  0
  160.4280  212.9080  145.8540 C   0  0  0  0  0  2  0  0  0  0  0  0
  159.5260  213.6800  146.5790 O   0  0  0  0  0  0  0  0  0  0  0  0
  155.7870  211.6090  154.4430 C   0  0  0  0  0  3  0  0  0  0  0  0
  156.9510  211.9070  154.3530 C   0  0  0  0  0  0  0  0  0  0  0  0
  160.3790  208.6420  152.8870 O   0  0  0  0  0  0  0  0  0  0  0  0
  161.0660  208.0610  153.9540 C   0  0  0  0  0  2  0  0  0  0  0  0
  160.6870  206.5850  154.0680 C   0  0  0  0  0  2  0  0  0  0  0  0
  163.0700  206.4060  151.4990 C   0  0  0  0  0  1  0  0  0  0  0  0
  160.8290  204.4060  153.0600 C   0  0  0  0  0  2  0  0  0  0  0  0
  161.5930  206.3010  151.8640 C   0  0  2  0  0  3  0  0  0  0  0  0
  161.4820  205.7110  153.1990 N   0  0  0  0  0  0  0  0  0  0  0  0
  160.7960  205.4060  150.9140 C   0  0  2  0  0  3  0  0  0  0  0  0
  160.7810  204.0640  151.5870 C   0  0  0  0  0  2  0  0  0  0  0  0
  161.4100  204.0870  148.8430 C   0  0  0  0  0  0  0  0  0  0  0  0
  161.3730  205.3140  149.5780 N   0  0  0  0  0  2  0  0  0  0  0  0
  162.4520  205.1610  146.7830 C   0  0  0  0  0  0  0  0  0  0  0  0
  161.9200  204.0450  147.5070 N   0  0  0  0  0  2  0  0  0  0  0  0
  160.9810  203.0260  149.3690 O   0  0  0  0  0  0  0  0  0  0  0  0
  162.5450  206.3000  147.3150 O   0  0  0  0  0  0  0  0  0  0  0  0
  162.9020  204.9670  145.3750 C   0  0  0  0  0  2  0  0  0  0  0  0
  161.9850  204.0070  144.6240 C   0  0  0  0  0  2  0  0  0  0  0  0
  160.3590  205.6970  145.1810 O   0  0  0  0  0  1  0  0  0  0  0  0
  160.5730  204.5530  144.4090 C   0  0  2  0  0  3  0  0  0  0  0  0
  160.1810  202.2050  145.1460 C   0  0  0  0  0  1  0  0  0  0  0  0
  159.5190  203.4990  144.7120 C   0  0  0  0  0  2  0  0  0  0  0  0
  1 30  1  6  0  0  0
  1 10  1  0  0  0  0
  2  5  1  0  0  0  0
  3  7  1  0  0  0  0
  4  3  1  0  0  0  0
  4  2  1  0  0  0  0
  5  6  1  0  0  0  0
  6  1  1  0  0  0  0
  7  6  1  0  0  0  0
  9 10  1  0  0  0  0
  9 11  1  0  0  0  0
 10  8  2  0  0  0  0
 11 29  1  6  0  0  0
 12 15  1  0  0  0  0
 12 14  1  0  0  0  0
 13 12  2  0  0  0  0
 14 18  1  0  0  0  0
 15 19  1  6  0  0  0
 15 17  1  0  0  0  0
 17 16  2  0  0  0  0
 17 18  1  0  0  0  0
 18 11  1  6  0  0  0
 20 21  1  0  0  0  0
 21 19  1  0  0  0  0
 22 20  1  0  0  0  0
 23 25  1  0  0  0  0
 23 26  1  0  0  0  0
 24 27  1  0  0  0  0
 24 22  1  0  0  0  0
 25 24  1  0  0  0  0
 26 27  1  0  0  0  0
 29 28  3  0  0  0  0
 30 31  1  0  0  0  0
 31 32  1  0  0  0  0
 34 36  1  0  0  0  0
 35 33  1  6  0  0  0
 35 36  1  0  0  0  0
 36 32  1  0  0  0  0
 37 40  1  6  0  0  0
 37 38  1  0  0  0  0
 37 35  1  0  0  0  0
 38 34  1  0  0  0  0
 39 43  2  0  0  0  0
 39 40  1  0  0  0  0
 41 44  2  0  0  0  0
 41 42  1  0  0  0  0
 42 39  1  0  0  0  0
 45 41  1  0  0  0  0
 46 45  1  0  0  0  0
 48 46  1  0  0  0  0
 48 50  1  0  0  0  0
 48 47  1  1  0  0  0
 50 49  1  0  0  0  0
M  END
>  <MODEL>
2

>  <REMARK>
 VINA RESULT:      -5.3      3.639      9.652
  Name = 
  18 active torsions:
  status: ('A' for Active; 'I' for Inactive)
    1  A    between atoms: C_2  and  C_22
    2  A    between atoms: C_2  and  C_44
    3  A    between atoms: N_7  and  C_23
    4  A    between atoms: C_11  and  C_12
    5  A    between atoms: C_11  and  O_32
    6  A    between atoms: C_12  and  N_18
    7  A    between atoms: C_16  and  C_22
    8  A    between atoms: C_20  and  C_47
    9  A    between atoms: C_25  and  C_28
   10  A    between atoms: S_27  and  C_48
   11  A    between atoms: C_28  and  O_32
   12  A    between atoms: C_28  and  C_33
   13  A    between atoms: N_29  and  C_38
   14  A    between atoms: C_30  and  C_48
   15  A    between atoms: C_34  and  C_47
   16  A    between atoms: C_38  and  C_46
   17  A    between atoms: C_38  and  C_50
   18  A    between atoms: C_40  and  C_44
                            x       y       z     vdW  Elec       q    Type
                         _______ _______ _______ _____ _____    ______ ____

>  <TORSDO>
F 18

$$$$
=
 OpenBabel11072410383D

 50 53  0  0  1  0  0  0  0  0999 V2000
  158.1750  214.0620  151.8690 C   0  0  1  0  0  3  0  0  0  0  0  0
  154.3230  214.1500  151.9610 C   0  0  0  0  0  2  0  0  0  0  0  0
  155.0910  214.3950  154.1950 C   0  0  0  0  0  2  0  0  0  0  0  0
  154.1630  213.6660  153.3320 N   0  0  0  0  0  2  0  0  0  0  0  0
  155.7180  213.8090  151.4450 C   0  0  0  0  0  2  0  0  0  0  0  0
  156.7710  214.4520  152.3430 C   0  0  0  0  0  3  0  0  0  0  0  0
  156.5290  214.0660  153.8070 C   0  0  0  0  0  2  0  0  0  0  0  0
  158.0310  211.7170  151.5030 O   0  0  0  0  0  0  0  0  0  0  0  0
  159.4030  212.3370  153.2930 N   0  0  0  0  0  2  0  0  0  0  0  0
  158.5400  212.6430  152.1890 C   0  0  0  0  0  0  0  0  0  0  0  0
  159.7020  210.9850  153.7630 C   0  0  1  0  0  3  0  0  0  0  0  0
  161.6910  209.3730  155.9750 C   0  0  0  0  0  0  0  0  0  0  0  0
  161.8260  208.9160  157.2110 C   0  0  0  0  0  2  0  0  0  0  0  0
  161.1170  210.6040  155.6900 O   0  0  0  0  0  0  0  0  0  0  0  0
  162.1620  208.6600  154.7590 C   0  0  2  0  0  3  0  0  0  0  0  0
  162.1680  209.5990  152.5560 O   0  0  0  0  0  0  0  0  0  0  0  0
  161.8380  209.6920  153.7280 C   0  0  0  0  0  0  0  0  0  0  0  0
  161.1350  210.8880  154.2980 C   0  0  1  0  0  3  0  0  0  0  0  0
  161.3240  207.4040  154.5340 C   0  0  0  0  0  2  0  0  0  0  0  0
  161.0400  205.2980  152.8550 S   0  0  0  0  0  0  0  0  0  0  0  0
  161.6800  206.7240  153.2490 C   0  0  0  0  0  2  0  0  0  0  0  0
  161.8310  204.9280  151.2800 C   0  0  0  0  0  2  0  0  0  0  0  0
  160.4620  202.0550  149.8130 C   0  0  0  0  0  2  0  0  0  0  0  0
  160.8890  204.1390  150.3890 C   0  0  0  0  0  3  0  0  0  0  0  0
  160.6760  202.8610  150.9270 O   0  0  0  0  0  0  0  0  0  0  0  0
  160.9730  202.8170  148.6260 C   0  0  0  0  0  2  0  0  0  0  0  0
  161.4370  204.0390  149.1020 O   0  0  0  0  0  0  0  0  0  0  0  0
  157.9190  210.2210  155.6030 C   0  0  0  0  0  3  0  0  0  0  0  0
  158.7230  210.5650  154.7740 C   0  0  0  0  0  0  0  0  0  0  0  0
  158.3420  214.3150  150.5030 O   0  0  0  0  0  0  0  0  0  0  0  0
  159.2730  213.3670  150.0790 C   0  0  0  0  0  2  0  0  0  0  0  0
  160.6870  213.9280  150.2350 C   0  0  0  0  0  2  0  0  0  0  0  0
  162.4310  214.4500  147.2360 C   0  0  0  0  0  1  0  0  0  0  0  0
  161.6500  211.9150  149.3390 C   0  0  0  0  0  2  0  0  0  0  0  0
  161.2500  213.7580  147.9090 C   0  0  2  0  0  3  0  0  0  0  0  0
  161.6420  213.3790  149.2670 N   0  0  0  0  0  0  0  0  0  0  0  0
  160.8120  212.4760  147.1970 C   0  0  2  0  0  3  0  0  0  0  0  0
  161.5260  211.3780  147.9310 C   0  0  0  0  0  2  0  0  0  0  0  0
  160.1570  212.2150  144.7670 C   0  0  0  0  0  0  0  0  0  0  0  0
  161.1400  212.4570  145.7770 N   0  0  0  0  0  2  0  0  0  0  0  0
  161.8040  212.5380  142.8520 C   0  0  0  0  0  0  0  0  0  0  0  0
  160.4980  212.2710  143.3790 N   0  0  0  0  0  2  0  0  0  0  0  0
  158.9690  211.9570  145.0950 O   0  0  0  0  0  0  0  0  0  0  0  0
  162.7920  212.7130  143.6150 O   0  0  0  0  0  0  0  0  0  0  0  0
  161.9920  212.6110  141.3760 C   0  0  0  0  0  2  0  0  0  0  0  0
  160.6610  212.4930  140.6370 C   0  0  0  0  0  2  0  0  0  0  0  0
  159.7200  210.8710  139.1220 O   0  0  0  0  0  1  0  0  0  0  0  0
  160.7710  211.7750  139.2920 C   0  0  2  0  0  3  0  0  0  0  0  0
  162.7440  211.4070  137.8140 C   0  0  0  0  0  1  0  0  0  0  0  0
  162.1110  211.0680  139.1500 C   0  0  0  0  0  2  0  0  0  0  0  0
  1 30  1  6  0  0  0
  1 10  1  0  0  0  0
  1  6  1  0  0  0  0
  2  4  1  0  0  0  0
  4  3  1  0  0  0  0
  5  2  1  0  0  0  0
  5  6  1  0  0  0  0
  6  7  1  0  0  0  0
  7  3  1  0  0  0  0
  8 10  2  0  0  0  0
  9 11  1  0  0  0  0
 10  9  1  0  0  0  0
 11 29  1  1  0  0  0
 12 13  2  0  0  0  0
 14 12  1  0  0  0  0
 15 19  1  6  0  0  0
 15 12  1  0  0  0  0
 16 17  2  0  0  0  0
 17 18  1  0  0  0  0
 17 15  1  0  0  0  0
 18 11  1  6  0  0  0
 18 14  1  0  0  0  0
 20 21  1  0  0  0  0
 21 19  1  0  0  0  0
 22 20  1  0  0  0  0
 23 25  1  0  0  0  0
 24 25  1  0  0  0  0
 24 22  1  0  0  0  0
 26 27  1  0  0  0  0
 26 23  1  0  0  0  0
 27 24  1  0  0  0  0
 29 28  3  0  0  0  0
 31 32  1  0  0  0  0
 31 30  1  0  0  0  0
 35 33  1  6  0  0  0
 35 36  1  0  0  0  0
 36 34  1  0  0  0  0
 36 32  1  0  0  0  0
 37 40  1  6  0  0  0
 37 35  1  0  0  0  0
 37 38  1  0  0  0  0
 38 34  1  0  0  0  0
 39 43  2  0  0  0  0
 39 40  1  0  0  0  0
 41 42  1  0  0  0  0
 41 44  2  0  0  0  0
 42 39  1  0  0  0  0
 45 41  1  0  0  0  0
 46 45  1  0  0  0  0
 48 47  1  1  0  0  0
 48 46  1  0  0  0  0
 49 50  1  0  0  0  0
 50 48  1  0  0  0  0
M  END
>  <MODEL>
3

>  <REMARK>
 VINA RESULT:      -4.8      3.543      6.290
  Name = 
  18 active torsions:
  status: ('A' for Active; 'I' for Inactive)
    1  A    between atoms: C_2  and  C_22
    2  A    between atoms: C_2  and  C_44
    3  A    between atoms: N_7  and  C_23
    4  A    between atoms: C_11  and  C_12
    5  A    between atoms: C_11  and  O_32
    6  A    between atoms: C_12  and  N_18
    7  A    between atoms: C_16  and  C_22
    8  A    between atoms: C_20  and  C_47
    9  A    between atoms: C_25  and  C_28
   10  A    between atoms: S_27  and  C_48
   11  A    between atoms: C_28  and  O_32
   12  A    between atoms: C_28  and  C_33
   13  A    between atoms: N_29  and  C_38
   14  A    between atoms: C_30  and  C_48
   15  A    between atoms: C_34  and  C_47
   16  A    between atoms: C_38  and  C_46
   17  A    between atoms: C_38  and  C_50
   18  A    between atoms: C_40  and  C_44
                            x       y       z     vdW  Elec       q    Type
                         _______ _______ _______ _____ _____    ______ ____

>  <TORSDO>
F 18

$$$$
=
 OpenBabel11072410383D

 50 53  0  0  1  0  0  0  0  0999 V2000
  162.4350  210.1480  149.2090 C   0  0  1  0  0  3  0  0  0  0  0  0
  162.3700  206.8210  147.2650 C   0  0  0  0  0  2  0  0  0  0  0  0
  160.3650  206.9410  148.5290 C   0  0  0  0  0  2  0  0  0  0  0  0
  161.5010  206.0890  148.1860 N   0  0  0  0  0  2  0  0  0  0  0  0
  162.9680  208.0390  147.9640 C   0  0  0  0  0  2  0  0  0  0  0  0
  161.8470  208.9540  148.4500 C   0  0  0  0  0  3  0  0  0  0  0  0
  160.8470  208.1640  149.3030 C   0  0  0  0  0  2  0  0  0  0  0  0
  161.0710  211.8240  150.2030 O   0  0  0  0  0  0  0  0  0  0  0  0
  161.2920  212.0030  147.8810 N   0  0  0  0  0  2  0  0  0  0  0  0
  161.5800  211.3780  149.1400 C   0  0  0  0  0  0  0  0  0  0  0  0
  160.3630  213.1170  147.7000 C   0  0  1  0  0  3  0  0  0  0  0  0
  162.2410  213.4510  144.9060 C   0  0  0  0  0  0  0  0  0  0  0  0
  163.3600  213.1150  144.2790 C   0  0  0  0  0  2  0  0  0  0  0  0
  162.2040  213.7510  146.2610 O   0  0  0  0  0  0  0  0  0  0  0  0
  160.9160  213.5830  144.2470 C   0  0  2  0  0  3  0  0  0  0  0  0
  158.9550  214.4500  145.3130 O   0  0  0  0  0  0  0  0  0  0  0  0
  160.1130  214.0740  145.4070 C   0  0  0  0  0  0  0  0  0  0  0  0
  160.9010  214.1290  146.6830 C   0  0  1  0  0  3  0  0  0  0  0  0
  160.4180  212.2120  143.7980 C   0  0  0  0  0  2  0  0  0  0  0  0
  161.7440  211.9540  141.4500 S   0  0  0  0  0  0  0  0  0  0  0  0
  160.3850  212.0970  142.3060 C   0  0  0  0  0  2  0  0  0  0  0  0
  161.1430  211.9080  139.7530 C   0  0  0  0  0  2  0  0  0  0  0  0
  160.7650  208.9950  137.8420 C   0  0  0  0  0  2  0  0  0  0  0  0
  161.5900  210.6280  139.0700 C   0  0  0  0  0  3  0  0  0  0  0  0
  160.7940  210.3830  137.9410 O   0  0  0  0  0  0  0  0  0  0  0  0
  161.2060  208.4590  139.1710 C   0  0  0  0  0  2  0  0  0  0  0  0
  161.4960  209.5590  139.9720 O   0  0  0  0  0  0  0  0  0  0  0  0
  157.9490  212.2120  146.9920 C   0  0  0  0  0  3  0  0  0  0  0  0
  159.0360  212.6200  147.3110 C   0  0  0  0  0  0  0  0  0  0  0  0
  162.7130  209.8200  150.5400 O   0  0  0  0  0  0  0  0  0  0  0  0
  161.4630  209.6110  151.1230 C   0  0  0  0  0  2  0  0  0  0  0  0
  161.6330  209.2940  152.6080 C   0  0  0  0  0  2  0  0  0  0  0  0
  163.1300  206.3970  151.3120 C   0  0  0  0  0  1  0  0  0  0  0  0
  161.2110  207.3350  153.9380 C   0  0  0  0  0  2  0  0  0  0  0  0
  161.8200  207.0950  151.6640 C   0  0  2  0  0  3  0  0  0  0  0  0
  162.0300  207.9050  152.8650 N   0  0  0  0  0  0  0  0  0  0  0  0
  160.6800  206.1250  151.9740 C   0  0  2  0  0  3  0  0  0  0  0  0
  160.6970  205.9920  153.4690 C   0  0  0  0  0  2  0  0  0  0  0  0
  160.8310  203.6000  152.0720 C   0  0  0  0  0  0  0  0  0  0  0  0
  160.8300  204.8240  151.3320 N   0  0  0  0  0  2  0  0  0  0  0  0
  161.0170  202.1480  149.9900 C   0  0  0  0  0  0  0  0  0  0  0  0
  160.9100  202.3370  151.4060 N   0  0  0  0  0  2  0  0  0  0  0  0
  160.7520  203.6260  153.3290 O   0  0  0  0  0  0  0  0  0  0  0  0
  161.0900  203.1300  149.2040 O   0  0  0  0  0  0  0  0  0  0  0  0
  161.0420  200.7630  149.4400 C   0  0  0  0  0  2  0  0  0  0  0  0
  161.7840  200.7050  148.1070 C   0  0  0  0  0  2  0  0  0  0  0  0
  161.3170  199.3830  146.1460 O   0  0  0  0  0  1  0  0  0  0  0  0
  160.8670  200.4640  146.9080 C   0  0  2  0  0  3  0  0  0  0  0  0
  159.8630  201.4320  144.8420 C   0  0  0  0  0  1  0  0  0  0  0  0
  160.7440  201.7110  146.0460 C   0  0  0  0  0  2  0  0  0  0  0  0
  1 10  1  1  0  0  0
  1 30  1  0  0  0  0
  2  5  1  0  0  0  0
  2  4  1  0  0  0  0
  3  7  1  0  0  0  0
  4  3  1  0  0  0  0
  5  6  1  0  0  0  0
  6  1  1  0  0  0  0
  6  7  1  0  0  0  0
  9 10  1  0  0  0  0
 10  8  2  0  0  0  0
 11 29  1  6  0  0  0
 11  9  1  0  0  0  0
 12 14  1  0  0  0  0
 13 12  2  0  0  0  0
 14 18  1  0  0  0  0
 15 19  1  1  0  0  0
 15 12  1  0  0  0  0
 15 17  1  0  0  0  0
 16 17  2  0  0  0  0
 17 18  1  0  0  0  0
 18 11  1  1  0  0  0
 20 21  1  0  0  0  0
 21 19  1  0  0  0  0
 22 20  1  0  0  0  0
 23 25  1  0  0  0  0
 23 26  1  0  0  0  0
 24 22  1  0  0  0  0
 24 27  1  0  0  0  0
 25 24  1  0  0  0  0
 26 27  1  0  0  0  0
 28 29  3  0  0  0  0
 30 31  1  0  0  0  0
 31 32  1  0  0  0  0
 32 36  1  0  0  0  0
 35 33  1  1  0  0  0
 35 37  1  0  0  0  0
 35 36  1  0  0  0  0
 36 34  1  0  0  0  0
 37 40  1  6  0  0  0
 37 38  1  0  0  0  0
 38 34  1  0  0  0  0
 39 43  2  0  0  0  0
 40 39  1  0  0  0  0
 41 42  1  0  0  0  0
 42 39  1  0  0  0  0
 44 41  2  0  0  0  0
 45 41  1  0  0  0  0
 46 45  1  0  0  0  0
 48 47  1  6  0  0  0
 48 46  1  0  0  0  0
 49 50  1  0  0  0  0
 50 48  1  0  0  0  0
M  END
>  <MODEL>
4

>  <REMARK>
 VINA RESULT:      -3.7      2.782      9.871
  Name = 
  18 active torsions:
  status: ('A' for Active; 'I' for Inactive)
    1  A    between atoms: C_2  and  C_22
    2  A    between atoms: C_2  and  C_44
    3  A    between atoms: N_7  and  C_23
    4  A    between atoms: C_11  and  C_12
    5  A    between atoms: C_11  and  O_32
    6  A    between atoms: C_12  and  N_18
    7  A    between atoms: C_16  and  C_22
    8  A    between atoms: C_20  and  C_47
    9  A    between atoms: C_25  and  C_28
   10  A    between atoms: S_27  and  C_48
   11  A    between atoms: C_28  and  O_32
   12  A    between atoms: C_28  and  C_33
   13  A    between atoms: N_29  and  C_38
   14  A    between atoms: C_30  and  C_48
   15  A    between atoms: C_34  and  C_47
   16  A    between atoms: C_38  and  C_46
   17  A    between atoms: C_38  and  C_50
   18  A    between atoms: C_40  and  C_44
                            x       y       z     vdW  Elec       q    Type
                         _______ _______ _______ _____ _____    ______ ____

>  <TORSDO>
F 18

$$$$
=
 OpenBabel11072410383D

 50 53  0  0  1  0  0  0  0  0999 V2000
  158.1590  213.8910  151.4900 C   0  0  1  0  0  3  0  0  0  0  0  0
  154.4800  214.4500  152.4930 C   0  0  0  0  0  2  0  0  0  0  0  0
  155.7660  214.4480  154.4890 C   0  0  0  0  0  2  0  0  0  0  0  0
  154.5750  213.8990  153.8450 N   0  0  0  0  0  2  0  0  0  0  0  0
  155.6590  213.9730  151.6490 C   0  0  0  0  0  2  0  0  0  0  0  0
  156.9680  214.4190  152.2960 C   0  0  0  0  0  3  0  0  0  0  0  0
  157.0180  213.9700  153.7610 C   0  0  0  0  0  2  0  0  0  0  0  0
  157.8780  211.5760  151.0230 O   0  0  0  0  0  0  0  0  0  0  0  0
  159.3160  212.0380  152.8090 N   0  0  0  0  0  2  0  0  0  0  0  0
  158.4510  212.4410  151.7380 C   0  0  0  0  0  0  0  0  0  0  0  0
  159.5490  210.6520  153.2120 C   0  0  1  0  0  3  0  0  0  0  0  0
  161.7590  208.0910  153.2480 C   0  0  0  0  0  0  0  0  0  0  0  0
  162.1120  206.9430  153.8090 C   0  0  0  0  0  2  0  0  0  0  0  0
  161.3050  209.1750  153.9850 O   0  0  0  0  0  0  0  0  0  0  0  0
  161.8370  208.3730  151.7910 C   0  0  2  0  0  3  0  0  0  0  0  0
  161.4620  210.5230  150.8080 O   0  0  0  0  0  0  0  0  0  0  0  0
  161.4260  209.8090  151.7980 C   0  0  0  0  0  0  0  0  0  0  0  0
  161.0400  210.3020  153.1610 C   0  0  1  0  0  3  0  0  0  0  0  0
  160.8090  207.5300  151.0410 C   0  0  0  0  0  2  0  0  0  0  0  0
  160.7350  205.8170  148.9450 S   0  0  0  0  0  0  0  0  0  0  0  0
  161.3050  207.1290  149.6870 C   0  0  0  0  0  2  0  0  0  0  0  0
  161.6870  205.7780  147.4170 C   0  0  0  0  0  2  0  0  0  0  0  0
  161.2380  202.8880  145.4860 C   0  0  0  0  0  2  0  0  0  0  0  0
  161.9360  204.3450  146.9860 C   0  0  0  0  0  3  0  0  0  0  0  0
  161.6760  204.2030  145.6140 O   0  0  0  0  0  0  0  0  0  0  0  0
  160.8560  202.4260  146.8610 C   0  0  0  0  0  2  0  0  0  0  0  0
  161.1150  203.4840  147.7270 O   0  0  0  0  0  0  0  0  0  0  0  0
  158.5240  210.2020  155.6410 C   0  0  0  0  0  3  0  0  0  0  0  0
  158.9860  210.4050  154.5470 C   0  0  0  0  0  0  0  0  0  0  0  0
  157.9960  214.1300  150.1210 O   0  0  0  0  0  0  0  0  0  0  0  0
  158.8470  213.2160  149.4990 C   0  0  0  0  0  2  0  0  0  0  0  0
  160.3020  213.6190  149.7410 C   0  0  0  0  0  2  0  0  0  0  0  0
  161.6940  214.4400  146.6260 C   0  0  0  0  0  1  0  0  0  0  0  0
  161.3590  211.7520  148.6560 C   0  0  0  0  0  2  0  0  0  0  0  0
  160.6530  213.6060  147.3670 C   0  0  2  0  0  3  0  0  0  0  0  0
  161.2070  213.2090  148.6620 N   0  0  0  0  0  0  0  0  0  0  0  0
  160.2710  212.3210  146.6320 C   0  0  2  0  0  3  0  0  0  0  0  0
  161.1520  211.2670  147.2380 C   0  0  0  0  0  2  0  0  0  0  0  0
  159.5360  213.0620  144.3270 C   0  0  0  0  0  0  0  0  0  0  0  0
  160.4630  212.3950  145.1890 N   0  0  0  0  0  2  0  0  0  0  0  0
  160.9280  212.6470  142.2350 C   0  0  0  0  0  0  0  0  0  0  0  0
  159.7890  213.1780  142.9230 N   0  0  0  0  0  2  0  0  0  0  0  0
  158.4850  213.5670  144.8040 O   0  0  0  0  0  0  0  0  0  0  0  0
  161.8060  211.9790  142.8450 O   0  0  0  0  0  0  0  0  0  0  0  0
  161.0750  212.8920  140.7730 C   0  0  0  0  0  2  0  0  0  0  0  0
  162.0110  211.8730  140.1280 C   0  0  0  0  0  2  0  0  0  0  0  0
  160.5580  209.9560  140.2930 O   0  0  0  0  0  1  0  0  0  0  0  0
  161.2780  210.7480  139.3960 C   0  0  2  0  0  3  0  0  0  0  0  0
  163.0060  210.7580  137.6000 C   0  0  0  0  0  1  0  0  0  0  0  0
  162.2430  209.8950  138.5860 C   0  0  0  0  0  2  0  0  0  0  0  0
  1 30  1  6  0  0  0
  1 10  1  0  0  0  0
  1  6  1  0  0  0  0
  2  4  1  0  0  0  0
  4  3  1  0  0  0  0
  5  6  1  0  0  0  0
  5  2  1  0  0  0  0
  6  7  1  0  0  0  0
  7  3  1  0  0  0  0
  8 10  2  0  0  0  0
  9 11  1  0  0  0  0
 10  9  1  0  0  0  0
 11 29  1  1  0  0  0
 12 13  2  0  0  0  0
 12 14  1  0  0  0  0
 15 19  1  6  0  0  0
 15 17  1  0  0  0  0
 15 12  1  0  0  0  0
 16 17  2  0  0  0  0
 17 18  1  0  0  0  0
 18 11  1  6  0  0  0
 18 14  1  0  0  0  0
 20 21  1  0  0  0  0
 21 19  1  0  0  0  0
 22 20  1  0  0  0  0
 23 25  1  0  0  0  0
 23 26  1  0  0  0  0
 24 22  1  0  0  0  0
 24 27  1  0  0  0  0
 25 24  1  0  0  0  0
 26 27  1  0  0  0  0
 29 28  3  0  0  0  0
 31 32  1  0  0  0  0
 31 30  1  0  0  0  0
 34 36  1  0  0  0  0
 35 33  1  6  0  0  0
 35 36  1  0  0  0  0
 36 32  1  0  0  0  0
 37 40  1  6  0  0  0
 37 38  1  0  0  0  0
 37 35  1  0  0  0  0
 38 34  1  0  0  0  0
 39 43  2  0  0  0  0
 39 40  1  0  0  0  0
 41 44  2  0  0  0  0
 41 42  1  0  0  0  0
 42 39  1  0  0  0  0
 45 41  1  0  0  0  0
 46 45  1  0  0  0  0
 48 46  1  0  0  0  0
 48 47  1  1  0  0  0
 49 50  1  0  0  0  0
 50 48  1  0  0  0  0
M  END
>  <MODEL>
5

>  <REMARK>
 VINA RESULT:      -3.7      3.303      5.581
  Name = 
  18 active torsions:
  status: ('A' for Active; 'I' for Inactive)
    1  A    between atoms: C_2  and  C_22
    2  A    between atoms: C_2  and  C_44
    3  A    between atoms: N_7  and  C_23
    4  A    between atoms: C_11  and  C_12
    5  A    between atoms: C_11  and  O_32
    6  A    between atoms: C_12  and  N_18
    7  A    between atoms: C_16  and  C_22
    8  A    between atoms: C_20  and  C_47
    9  A    between atoms: C_25  and  C_28
   10  A    between atoms: S_27  and  C_48
   11  A    between atoms: C_28  and  O_32
   12  A    between atoms: C_28  and  C_33
   13  A    between atoms: N_29  and  C_38
   14  A    between atoms: C_30  and  C_48
   15  A    between atoms: C_34  and  C_47
   16  A    between atoms: C_38  and  C_46
   17  A    between atoms: C_38  and  C_50
   18  A    between atoms: C_40  and  C_44
                            x       y       z     vdW  Elec       q    Type
                         _______ _______ _______ _____ _____    ______ ____

>  <TORSDO>
F 18

$$$$
=
 OpenBabel11072410383D

 50 53  0  0  1  0  0  0  0  0999 V2000
  160.9750  208.1310  152.5130 C   0  0  1  0  0  3  0  0  0  0  0  0
  160.8950  204.2860  152.7510 C   0  0  0  0  0  2  0  0  0  0  0  0
  163.0790  204.9070  152.0560 C   0  0  0  0  0  2  0  0  0  0  0  0
  161.9510  204.0210  151.7740 N   0  0  0  0  0  2  0  0  0  0  0  0
  160.3580  205.7030  152.5710 C   0  0  0  0  0  2  0  0  0  0  0  0
  161.4910  206.7090  152.7540 C   0  0  0  0  0  3  0  0  0  0  0  0
  162.6680  206.3590  151.8350 C   0  0  0  0  0  2  0  0  0  0  0  0
  160.7970  208.3730  154.8730 O   0  0  0  0  0  0  0  0  0  0  0  0
  160.8910  210.3910  153.6950 N   0  0  0  0  0  2  0  0  0  0  0  0
  160.9030  208.9590  153.7620 C   0  0  0  0  0  0  0  0  0  0  0  0
  160.6860  211.2750  154.8410 C   0  0  1  0  0  3  0  0  0  0  0  0
  158.1160  213.0350  156.1630 C   0  0  0  0  0  0  0  0  0  0  0  0
  157.7430  213.9600  157.0350 C   0  0  0  0  0  2  0  0  0  0  0  0
  159.0680  212.0690  156.4580 O   0  0  0  0  0  0  0  0  0  0  0  0
  157.5490  212.8910  154.7970 C   0  0  2  0  0  3  0  0  0  0  0  0
  158.0200  211.0640  153.3230 O   0  0  0  0  0  0  0  0  0  0  0  0
  158.2640  211.6520  154.3650 C   0  0  0  0  0  0  0  0  0  0  0  0
  159.2560  211.1630  155.3790 C   0  0  1  0  0  3  0  0  0  0  0  0
  157.9690  214.0750  153.9300 C   0  0  0  0  0  2  0  0  0  0  0  0
  158.6830  213.8920  151.3240 S   0  0  0  0  0  0  0  0  0  0  0  0
  158.9730  213.6750  152.8950 C   0  0  0  0  0  2  0  0  0  0  0  0
  160.1560  213.2060  150.5490 C   0  0  0  0  0  2  0  0  0  0  0  0
  158.9240  213.6020  147.2920 C   0  0  0  0  0  2  0  0  0  0  0  0
  160.2100  213.5920  149.0820 C   0  0  0  0  0  3  0  0  0  0  0  0
  158.9320  213.9630  148.6360 O   0  0  0  0  0  0  0  0  0  0  0  0
  160.0610  212.6420  147.0970 C   0  0  0  0  0  2  0  0  0  0  0  0
  160.6910  212.5110  148.3310 O   0  0  0  0  0  0  0  0  0  0  0  0
  162.4880  210.7630  156.7490 C   0  0  0  0  0  3  0  0  0  0  0  0
  161.6760  210.9940  155.8900 C   0  0  0  0  0  0  0  0  0  0  0  0
  161.7260  208.7890  151.5330 O   0  0  0  0  0  0  0  0  0  0  0  0
  161.1500  208.3980  150.3240 C   0  0  0  0  0  2  0  0  0  0  0  0
  161.8340  209.1290  149.1680 C   0  0  0  0  0  2  0  0  0  0  0  0
  160.8370  207.2510  146.3770 C   0  0  0  0  0  1  0  0  0  0  0  0
  163.4980  207.5490  148.4470 C   0  0  0  0  0  2  0  0  0  0  0  0
  161.2330  207.2160  147.8500 C   0  0  2  0  0  3  0  0  0  0  0  0
  162.2560  208.2360  148.0830 N   0  0  0  0  0  0  0  0  0  0  0  0
  161.8300  205.8770  148.2860 C   0  0  2  0  0  3  0  0  0  0  0  0
  163.3140  206.0740  148.1700 C   0  0  0  0  0  2  0  0  0  0  0  0
  160.9940  203.5000  148.0500 C   0  0  0  0  0  0  0  0  0  0  0  0
  161.3870  204.7490  147.4740 N   0  0  0  0  0  2  0  0  0  0  0  0
  160.3630  202.4760  145.8050 C   0  0  0  0  0  0  0  0  0  0  0  0
  160.4990  202.4360  147.2310 N   0  0  0  0  0  2  0  0  0  0  0  0
  161.0740  203.3290  149.2950 O   0  0  0  0  0  0  0  0  0  0  0  0
  160.7240  203.4860  145.1440 O   0  0  0  0  0  0  0  0  0  0  0  0
  159.7830  201.3010  145.0960 C   0  0  0  0  0  2  0  0  0  0  0  0
  160.8320  200.2160  144.8660 C   0  0  0  0  0  2  0  0  0  0  0  0
  161.5830  199.7840  147.1160 O   0  0  0  0  0  1  0  0  0  0  0  0
  160.9380  199.2140  146.0160 C   0  0  2  0  0  3  0  0  0  0  0  0
  161.2710  197.5930  144.1530 C   0  0  0  0  0  1  0  0  0  0  0  0
  161.6500  197.9430  145.5790 C   0  0  0  0  0  2  0  0  0  0  0  0
  1 30  1  6  0  0  0
  1  6  1  0  0  0  0
  1 10  1  0  0  0  0
  4  3  1  0  0  0  0
  4  2  1  0  0  0  0
  5  2  1  0  0  0  0
  5  6  1  0  0  0  0
  7  3  1  0  0  0  0
  7  6  1  0  0  0  0
  9 10  1  0  0  0  0
  9 11  1  0  0  0  0
 10  8  2  0  0  0  0
 11 29  1  1  0  0  0
 12 14  1  0  0  0  0
 12 13  2  0  0  0  0
 15 19  1  6  0  0  0
 15 12  1  0  0  0  0
 16 17  2  0  0  0  0
 17 15  1  0  0  0  0
 17 18  1  0  0  0  0
 18 11  1  6  0  0  0
 18 14  1  0  0  0  0
 20 21  1  0  0  0  0
 21 19  1  0  0  0  0
 22 20  1  0  0  0  0
 23 25  1  0  0  0  0
 24 22  1  0  0  0  0
 25 24  1  0  0  0  0
 26 23  1  0  0  0  0
 26 27  1  0  0  0  0
 27 24  1  0  0  0  0
 29 28  3  0  0  0  0
 31 30  1  0  0  0  0
 32 31  1  0  0  0  0
 35 33  1  6  0  0  0
 35 36  1  0  0  0  0
 35 37  1  0  0  0  0
 36 34  1  0  0  0  0
 36 32  1  0  0  0  0
 37 40  1  6  0  0  0
 38 37  1  0  0  0  0
 38 34  1  0  0  0  0
 39 43  2  0  0  0  0
 40 39  1  0  0  0  0
 41 42  1  0  0  0  0
 42 39  1  0  0  0  0
 44 41  2  0  0  0  0
 45 41  1  0  0  0  0
 46 45  1  0  0  0  0
 46 48  1  0  0  0  0
 48 47  1  1  0  0  0
 49 50  1  0  0  0  0
 50 48  1  0  0  0  0
M  END
>  <MODEL>
6

>  <REMARK>
 VINA RESULT:      -2.5      4.445     10.119
  Name = 
  18 active torsions:
  status: ('A' for Active; 'I' for Inactive)
    1  A    between atoms: C_2  and  C_22
    2  A    between atoms: C_2  and  C_44
    3  A    between atoms: N_7  and  C_23
    4  A    between atoms: C_11  and  C_12
    5  A    between atoms: C_11  and  O_32
    6  A    between atoms: C_12  and  N_18
    7  A    between atoms: C_16  and  C_22
    8  A    between atoms: C_20  and  C_47
    9  A    between atoms: C_25  and  C_28
   10  A    between atoms: S_27  and  C_48
   11  A    between atoms: C_28  and  O_32
   12  A    between atoms: C_28  and  C_33
   13  A    between atoms: N_29  and  C_38
   14  A    between atoms: C_30  and  C_48
   15  A    between atoms: C_34  and  C_47
   16  A    between atoms: C_38  and  C_46
   17  A    between atoms: C_38  and  C_50
   18  A    between atoms: C_40  and  C_44
                            x       y       z     vdW  Elec       q    Type
                         _______ _______ _______ _____ _____    ______ ____

>  <TORSDO>
F 18

$$$$
=
 OpenBabel11072410383D

 50 53  0  0  1  0  0  0  0  0999 V2000
  161.8120  206.6020  151.4060 C   0  0  1  0  0  3  0  0  0  0  0  0
  161.7270  208.5590  148.0860 C   0  0  0  0  0  2  0  0  0  0  0  0
  162.5580  210.0290  149.7540 C   0  0  0  0  0  2  0  0  0  0  0  0
  161.5920  209.8950  148.6670 N   0  0  0  0  0  2  0  0  0  0  0  0
  161.3380  207.5000  149.1140 C   0  0  0  0  0  2  0  0  0  0  0  0
  162.2360  207.6200  150.3420 C   0  0  0  0  0  3  0  0  0  0  0  0
  162.2160  209.0560  150.8780 C   0  0  0  0  0  2  0  0  0  0  0  0
  160.7740  206.4820  153.5430 O   0  0  0  0  0  0  0  0  0  0  0  0
  160.9990  208.6490  152.6940 N   0  0  0  0  0  2  0  0  0  0  0  0
  161.1860  207.2300  152.6160 C   0  0  0  0  0  0  0  0  0  0  0  0
  160.2780  209.3350  153.7650 C   0  0  1  0  0  3  0  0  0  0  0  0
  162.4320  210.5220  156.0880 C   0  0  0  0  0  0  0  0  0  0  0  0
  163.6130  211.0780  156.3200 C   0  0  0  0  0  2  0  0  0  0  0  0
  162.2510  209.5090  155.1570 O   0  0  0  0  0  0  0  0  0  0  0  0
  161.1810  210.8770  156.8080 C   0  0  2  0  0  3  0  0  0  0  0  0
  159.1120  209.6930  156.5880 O   0  0  0  0  0  0  0  0  0  0  0  0
  160.2570  209.8700  156.2040 C   0  0  0  0  0  0  0  0  0  0  0  0
  160.9080  209.0460  155.1320 C   0  0  1  0  0  3  0  0  0  0  0  0
  160.7450  212.2900  156.4290 C   0  0  0  0  0  2  0  0  0  0  0  0
  158.5550  213.8820  156.3570 S   0  0  0  0  0  0  0  0  0  0  0  0
  159.3450  212.5750  156.8740 C   0  0  0  0  0  2  0  0  0  0  0  0
  156.9790  213.7620  157.2200 C   0  0  0  0  0  2  0  0  0  0  0  0
  155.6120  211.9540  154.5480 C   0  0  0  0  0  2  0  0  0  0  0  0
  155.8900  213.3010  156.2690 C   0  0  0  0  0  3  0  0  0  0  0  0
  156.1580  211.9970  155.8270 O   0  0  0  0  0  0  0  0  0  0  0  0
  155.4080  213.3770  154.1190 C   0  0  0  0  0  2  0  0  0  0  0  0
  155.8190  214.1780  155.1790 O   0  0  0  0  0  0  0  0  0  0  0  0
  160.1640  211.9620  153.2800 C   0  0  0  0  0  3  0  0  0  0  0  0
  160.2150  210.7790  153.4980 C   0  0  0  0  0  0  0  0  0  0  0  0
  160.9670  205.6240  150.8700 O   0  0  0  0  0  0  0  0  0  0  0  0
  161.8210  204.5880  150.4900 C   0  0  0  0  0  2  0  0  0  0  0  0
  161.1100  203.6740  149.4930 C   0  0  0  0  0  2  0  0  0  0  0  0
  163.0530  205.0890  146.9370 C   0  0  0  0  0  1  0  0  0  0  0  0
  161.4280  202.1990  147.6200 C   0  0  0  0  0  2  0  0  0  0  0  0
  161.6870  204.5330  147.3280 C   0  0  2  0  0  3  0  0  0  0  0  0
  161.8830  203.4310  148.2710 N   0  0  0  0  0  0  0  0  0  0  0  0
  160.8990  203.9720  146.1430 C   0  0  2  0  0  3  0  0  0  0  0  0
  161.2000  202.5010  146.1560 C   0  0  0  0  0  2  0  0  0  0  0  0
  160.7740  205.8480  144.4500 C   0  0  0  0  0  0  0  0  0  0  0  0
  161.2630  204.5690  144.8650 N   0  0  0  0  0  2  0  0  0  0  0  0
  162.1160  205.8440  142.2860 C   0  0  0  0  0  0  0  0  0  0  0  0
  161.2060  206.4380  143.2200 N   0  0  0  0  0  2  0  0  0  0  0  0
  159.9580  206.4750  145.1760 O   0  0  0  0  0  0  0  0  0  0  0  0
  162.5880  204.6910  142.4780 O   0  0  0  0  0  0  0  0  0  0  0  0
  162.5080  206.6060  141.0660 C   0  0  0  0  0  2  0  0  0  0  0  0
  161.5440  207.7590  140.7960 C   0  0  0  0  0  2  0  0  0  0  0  0
  162.5320  207.6200  138.6010 O   0  0  0  0  0  1  0  0  0  0  0  0
  161.4570  208.1480  139.3200 C   0  0  2  0  0  3  0  0  0  0  0  0
  161.4820  210.3440  140.4980 C   0  0  0  0  0  1  0  0  0  0  0  0
  161.3890  209.6580  139.1480 C   0  0  0  0  0  2  0  0  0  0  0  0
  1 30  1  6  0  0  0
  1 10  1  0  0  0  0
  2  4  1  0  0  0  0
  2  5  1  0  0  0  0
  3  7  1  0  0  0  0
  4  3  1  0  0  0  0
  5  6  1  0  0  0  0
  6  7  1  0  0  0  0
  6  1  1  0  0  0  0
  9 11  1  0  0  0  0
 10  9  1  0  0  0  0
 10  8  2  0  0  0  0
 11 29  1  6  0  0  0
 12 13  2  0  0  0  0
 12 15  1  0  0  0  0
 14 12  1  0  0  0  0
 15 19  1  6  0  0  0
 17 16  2  0  0  0  0
 17 15  1  0  0  0  0
 18 11  1  6  0  0  0
 18 14  1  0  0  0  0
 18 17  1  0  0  0  0
 19 21  1  0  0  0  0
 20 21  1  0  0  0  0
 20 22  1  0  0  0  0
 23 25  1  0  0  0  0
 24 22  1  0  0  0  0
 25 24  1  0  0  0  0
 26 23  1  0  0  0  0
 26 27  1  0  0  0  0
 27 24  1  0  0  0  0
 28 29  3  0  0  0  0
 31 30  1  0  0  0  0
 32 31  1  0  0  0  0
 34 36  1  0  0  0  0
 35 33  1  6  0  0  0
 35 36  1  0  0  0  0
 36 32  1  0  0  0  0
 37 40  1  6  0  0  0
 37 38  1  0  0  0  0
 37 35  1  0  0  0  0
 38 34  1  0  0  0  0
 39 40  1  0  0  0  0
 39 43  2  0  0  0  0
 41 44  2  0  0  0  0
 41 42  1  0  0  0  0
 42 39  1  0  0  0  0
 45 41  1  0  0  0  0
 46 45  1  0  0  0  0
 48 47  1  6  0  0  0
 48 46  1  0  0  0  0
 50 48  1  0  0  0  0
 50 49  1  0  0  0  0
M  END
>  <MODEL>
7

>  <REMARK>
 VINA RESULT:      -2.4      4.251      9.359
  Name = 
  18 active torsions:
  status: ('A' for Active; 'I' for Inactive)
    1  A    between atoms: C_2  and  C_22
    2  A    between atoms: C_2  and  C_44
    3  A    between atoms: N_7  and  C_23
    4  A    between atoms: C_11  and  C_12
    5  A    between atoms: C_11  and  O_32
    6  A    between atoms: C_12  and  N_18
    7  A    between atoms: C_16  and  C_22
    8  A    between atoms: C_20  and  C_47
    9  A    between atoms: C_25  and  C_28
   10  A    between atoms: S_27  and  C_48
   11  A    between atoms: C_28  and  O_32
   12  A    between atoms: C_28  and  C_33
   13  A    between atoms: N_29  and  C_38
   14  A    between atoms: C_30  and  C_48
   15  A    between atoms: C_34  and  C_47
   16  A    between atoms: C_38  and  C_46
   17  A    between atoms: C_38  and  C_50
   18  A    between atoms: C_40  and  C_44
                            x       y       z     vdW  Elec       q    Type
                         _______ _______ _______ _____ _____    ______ ____

>  <TORSDO>
F 18

$$$$
=
 OpenBabel11072410383D

 50 53  0  0  1  0  0  0  0  0999 V2000
  161.9640  204.3640  150.7390 C   0  0  1  0  0  3  0  0  0  0  0  0
  159.6470  201.3700  150.0140 C   0  0  0  0  0  2  0  0  0  0  0  0
  161.0160  201.6860  148.1000 C   0  0  0  0  0  2  0  0  0  0  0  0
  159.6410  201.4940  148.5560 N   0  0  0  0  0  2  0  0  0  0  0  0
  160.1110  202.6780  150.6490 C   0  0  0  0  0  2  0  0  0  0  0  0
  161.5150  203.0200  150.1560 C   0  0  0  0  0  3  0  0  0  0  0  0
  161.5570  203.0130  148.6240 C   0  0  0  0  0  2  0  0  0  0  0  0
  162.5990  205.4260  148.7080 O   0  0  0  0  0  0  0  0  0  0  0  0
  161.1040  206.6560  150.0210 N   0  0  0  0  0  2  0  0  0  0  0  0
  161.8990  205.4930  149.7540 C   0  0  0  0  0  0  0  0  0  0  0  0
  161.0870  207.8590  149.1900 C   0  0  1  0  0  3  0  0  0  0  0  0
  162.4050  210.9570  148.8540 C   0  0  0  0  0  0  0  0  0  0  0  0
  162.5370  212.0240  148.0800 C   0  0  0  0  0  2  0  0  0  0  0  0
  162.4750  209.6610  148.3610 O   0  0  0  0  0  0  0  0  0  0  0  0
  162.2070  211.0060  150.3260 C   0  0  2  0  0  3  0  0  0  0  0  0
  162.2410  209.0900  151.7610 O   0  0  0  0  0  0  0  0  0  0  0  0
  162.2420  209.5430  150.6270 C   0  0  0  0  0  0  0  0  0  0  0  0
  162.3550  208.6940  149.3950 C   0  0  1  0  0  3  0  0  0  0  0  0
  160.8300  211.5820  150.6470 C   0  0  0  0  0  2  0  0  0  0  0  0
  158.9890  212.8260  149.0990 S   0  0  0  0  0  0  0  0  0  0  0  0
  160.4700  212.7030  149.7230 C   0  0  0  0  0  2  0  0  0  0  0  0
  159.1200  214.2820  148.0470 C   0  0  0  0  0  2  0  0  0  0  0  0
  159.8610  212.1760  145.3460 C   0  0  0  0  0  2  0  0  0  0  0  0
  159.2030  213.8730  146.5880 C   0  0  0  0  0  3  0  0  0  0  0  0
  159.1020  212.4790  146.4730 O   0  0  0  0  0  0  0  0  0  0  0  0
  160.7300  213.3680  145.0790 C   0  0  0  0  0  2  0  0  0  0  0  0
  160.4170  214.3180  146.0460 O   0  0  0  0  0  0  0  0  0  0  0  0
  160.7530  207.2110  146.6170 C   0  0  0  0  0  3  0  0  0  0  0  0
  160.9030  207.5030  147.7760 C   0  0  0  0  0  0  0  0  0  0  0  0
  161.2480  204.6830  151.8970 O   0  0  0  0  0  0  0  0  0  0  0  0
  161.7530  205.9220  152.2950 C   0  0  0  0  0  2  0  0  0  0  0  0
  161.7780  206.0010  153.8220 C   0  0  0  0  0  2  0  0  0  0  0  0
  159.7940  208.8920  153.6810 C   0  0  0  0  0  1  0  0  0  0  0  0
  160.3930  206.2930  155.7660 C   0  0  0  0  0  2  0  0  0  0  0  0
  160.9170  208.1620  154.4110 C   0  0  2  0  0  3  0  0  0  0  0  0
  160.6350  206.7260  154.3870 N   0  0  0  0  0  0  0  0  0  0  0  0
  161.0480  208.5660  155.8810 C   0  0  2  0  0  3  0  0  0  0  0  0
  160.2550  207.5300  156.6250 C   0  0  0  0  0  2  0  0  0  0  0  0
  161.3790  211.0680  156.0570 C   0  0  0  0  0  0  0  0  0  0  0  0
  160.5510  209.9070  156.1640 N   0  0  0  0  0  2  0  0  0  0  0  0
  159.4870  212.6730  156.6290 C   0  0  0  0  0  0  0  0  0  0  0  0
  160.8430  212.3770  156.2740 N   0  0  0  0  0  2  0  0  0  0  0  0
  162.5970  210.9470  155.7590 O   0  0  0  0  0  0  0  0  0  0  0  0
  158.6470  211.7540  156.8210 O   0  0  0  0  0  0  0  0  0  0  0  0
  159.0670  214.0960  156.7740 C   0  0  0  0  0  2  0  0  0  0  0  0
  157.5460  214.2310  156.7640 C   0  0  0  0  0  2  0  0  0  0  0  0
  155.5630  214.4080  155.4050 O   0  0  0  0  0  1  0  0  0  0  0  0
  156.9590  214.4190  155.3650 C   0  0  2  0  0  3  0  0  0  0  0  0
  158.0770  214.0160  153.1740 C   0  0  0  0  0  1  0  0  0  0  0  0
  157.4740  213.3610  154.4020 C   0  0  0  0  0  2  0  0  0  0  0  0
  1 10  1  6  0  0  0
  1 30  1  0  0  0  0
  2  5  1  0  0  0  0
  3  4  1  0  0  0  0
  3  7  1  0  0  0  0
  4  2  1  0  0  0  0
  6  5  1  0  0  0  0
  6  1  1  0  0  0  0
  7  6  1  0  0  0  0
  8 10  2  0  0  0  0
 10  9  1  0  0  0  0
 11 29  1  6  0  0  0
 11  9  1  0  0  0  0
 12 15  1  0  0  0  0
 13 12  2  0  0  0  0
 14 12  1  0  0  0  0
 14 18  1  0  0  0  0
 15 17  1  0  0  0  0
 15 19  1  6  0  0  0
 17 16  2  0  0  0  0
 18 11  1  6  0  0  0
 18 17  1  0  0  0  0
 20 21  1  0  0  0  0
 21 19  1  0  0  0  0
 22 20  1  0  0  0  0
 23 25  1  0  0  0  0
 24 22  1  0  0  0  0
 25 24  1  0  0  0  0
 26 23  1  0  0  0  0
 26 27  1  0  0  0  0
 27 24  1  0  0  0  0
 28 29  3  0  0  0  0
 30 31  1  0  0  0  0
 31 32  1  0  0  0  0
 32 36  1  0  0  0  0
 34 38  1  0  0  0  0
 35 33  1  1  0  0  0
 35 37  1  0  0  0  0
 36 35  1  0  0  0  0
 36 34  1  0  0  0  0
 37 40  1  6  0  0  0
 37 38  1  0  0  0  0
 39 40  1  0  0  0  0
 39 42  1  0  0  0  0
 41 45  1  0  0  0  0
 41 44  2  0  0  0  0
 42 41  1  0  0  0  0
 43 39  2  0  0  0  0
 46 45  1  0  0  0  0
 48 47  1  1  0  0  0
 48 46  1  0  0  0  0
 49 50  1  0  0  0  0
 50 48  1  0  0  0  0
M  END
>  <MODEL>
8

>  <REMARK>
 VINA RESULT:      -2.4      4.194     10.663
  Name = 
  18 active torsions:
  status: ('A' for Active; 'I' for Inactive)
    1  A    between atoms: C_2  and  C_22
    2  A    between atoms: C_2  and  C_44
    3  A    between atoms: N_7  and  C_23
    4  A    between atoms: C_11  and  C_12
    5  A    between atoms: C_11  and  O_32
    6  A    between atoms: C_12  and  N_18
    7  A    between atoms: C_16  and  C_22
    8  A    between atoms: C_20  and  C_47
    9  A    between atoms: C_25  and  C_28
   10  A    between atoms: S_27  and  C_48
   11  A    between atoms: C_28  and  O_32
   12  A    between atoms: C_28  and  C_33
   13  A    between atoms: N_29  and  C_38
   14  A    between atoms: C_30  and  C_48
   15  A    between atoms: C_34  and  C_47
   16  A    between atoms: C_38  and  C_46
   17  A    between atoms: C_38  and  C_50
   18  A    between atoms: C_40  and  C_44
                            x       y       z     vdW  Elec       q    Type
                         _______ _______ _______ _____ _____    ______ ____

>  <TORSDO>
F 18

$$$$
