=
 OpenBabel11072414223D

 26 28  0  0  1  0  0  0  0  0999 V2000
  161.2490  206.1390  150.0410 N   0  0  0  0  0  0  0  0  0  0  0  0
  161.8110  208.1260  151.0340 C   0  0  0  0  0  0  0  0  0  0  0  0
  161.5710  207.4990  149.8490 C   0  0  0  0  0  0  0  0  0  0  0  0
  161.2050  205.8630  151.4730 C   0  0  0  0  0  2  0  0  0  0  0  0
  161.6390  207.1760  152.1710 C   0  0  2  0  0  3  0  0  0  0  0  0
  161.6480  208.1900  148.6420 C   0  0  0  0  0  3  0  0  0  0  0  0
  162.1560  209.4770  151.0760 C   0  0  0  0  0  3  0  0  0  0  0  0
  161.9820  209.5130  148.6750 N   0  0  0  0  0  0  0  0  0  0  0  0
  162.2360  210.1630  149.8520 C   0  0  0  0  0  3  0  0  0  0  0  0
  160.5720  207.6410  153.0450 N   0  0  0  0  0  2  0  0  0  0  0  0
  160.9410  209.3630  154.5240 C   0  0  0  0  0  2  0  0  0  0  0  0
  160.9640  207.4610  156.6820 C   0  0  0  0  0  2  0  0  0  0  0  0
  160.3980  207.1840  155.2910 C   0  0  0  0  0  2  0  0  0  0  0  0
  160.8690  208.9540  156.9820 C   0  0  0  0  0  2  0  0  0  0  0  0
  161.1500  207.9350  154.2870 N   0  0  0  0  0  0  0  0  0  0  0  0
  161.5380  209.7600  155.8730 C   0  0  0  0  0  2  0  0  0  0  0  0
  160.6230  205.3320  149.0810 N   0  0  0  0  0  2  0  0  0  0  0  0
  161.2200  204.0090  149.1730 C   0  0  0  0  0  2  0  0  0  0  0  0
  161.4420  203.4340  147.7840 C   0  0  0  0  0  2  0  0  0  0  0  0
  163.3100  204.8840  146.9450 C   0  0  0  0  0  1  0  0  0  0  0  0
  161.8410  204.5260  146.7930 C   0  0  1  0  0  3  0  0  0  0  0  0
  160.6290  202.9260  145.2170 C   0  0  0  0  0  1  0  0  0  0  0  0
  161.5360  204.1450  145.3400 C   0  0  1  0  0  3  0  0  0  0  0  0
  160.9900  205.3020  144.5690 C   0  0  0  0  0  0  0  0  0  0  0  0
  160.0330  206.1400  145.1310 O   0  0  0  0  0  1  0  0  0  0  0  0
  161.4140  205.5320  143.4070 O   0  0  0  0  0  0  0  0  0  0  0  0
  1  4  1  0  0  0  0
  2  7  1  0  0  0  0
  2  5  1  0  0  0  0
  3  1  1  0  0  0  0
  3  2  2  0  0  0  0
  4  5  1  0  0  0  0
  5 10  1  1  0  0  0
  6  8  2  0  0  0  0
  6  3  1  0  0  0  0
  8  9  1  0  0  0  0
  9  7  2  0  0  0  0
 10 15  1  0  0  0  0
 11 16  1  0  0  0  0
 12 14  1  0  0  0  0
 13 12  1  0  0  0  0
 15 11  1  0  0  0  0
 15 13  1  0  0  0  0
 16 14  1  0  0  0  0
 17 18  1  0  0  0  0
 17  1  1  0  0  0  0
 19 18  1  0  0  0  0
 21 20  1  6  0  0  0
 21 19  1  0  0  0  0
 23 22  1  1  0  0  0
 23 21  1  0  0  0  0
 24 25  1  0  0  0  0
 24 23  1  0  0  0  0
 26 24  2  0  0  0  0
M  END
>  <MODEL>
1

>  <REMARK>
 VINA RESULT:      -7.5      0.000      0.000
  Name = 
  8 active torsions:
  status: ('A' for Active; 'I' for Inactive)
    1  A    between atoms: N_1  and  N_18
    2  A    between atoms: N_5  and  C_8
    3  A    between atoms: N_5  and  N_20
    4  A    between atoms: C_13  and  C_22
    5  A    between atoms: C_15  and  C_16
    6  A    between atoms: C_15  and  C_23
    7  A    between atoms: C_16  and  C_22
    8  A    between atoms: N_18  and  C_23
                            x       y       z     vdW  Elec       q    Type
                         _______ _______ _______ _____ _____    ______ ____

>  <TORSDO>
F 8

$$$$
=
 OpenBabel11072414223D

 26 28  0  0  1  0  0  0  0  0999 V2000
  162.2730  207.7990  151.0990 N   0  0  0  0  0  0  0  0  0  0  0  0
  161.4900  207.2410  153.1790 C   0  0  0  0  0  0  0  0  0  0  0  0
  161.6130  208.2430  152.2630 C   0  0  0  0  0  0  0  0  0  0  0  0
  162.5450  206.3710  151.2270 C   0  0  0  0  0  2  0  0  0  0  0  0
  162.0780  205.9770  152.6500 C   0  0  2  0  0  3  0  0  0  0  0  0
  161.1160  209.5180  152.5230 C   0  0  0  0  0  3  0  0  0  0  0  0
  160.8740  207.4650  154.4100 C   0  0  0  0  0  3  0  0  0  0  0  0
  160.5090  209.7430  153.7250 N   0  0  0  0  0  0  0  0  0  0  0  0
  160.3810  208.7550  154.6630 C   0  0  0  0  0  3  0  0  0  0  0  0
  161.0480  204.9530  152.5610 N   0  0  0  0  0  2  0  0  0  0  0  0
  161.1360  202.7310  151.9740 C   0  0  0  0  0  2  0  0  0  0  0  0
  160.8350  203.4810  149.2140 C   0  0  0  0  0  2  0  0  0  0  0  0
  160.5120  204.3900  150.3970 C   0  0  0  0  0  2  0  0  0  0  0  0
  160.6640  202.0230  149.6310 C   0  0  0  0  0  2  0  0  0  0  0  0
  161.4070  204.0920  151.5150 N   0  0  0  0  0  0  0  0  0  0  0  0
  161.4930  201.7300  150.8780 C   0  0  0  0  0  2  0  0  0  0  0  0
  162.2430  208.4700  149.8680 N   0  0  0  0  0  2  0  0  0  0  0  0
  161.4620  207.6560  148.9500 C   0  0  0  0  0  2  0  0  0  0  0  0
  162.3580  207.0790  147.8660 C   0  0  0  0  0  2  0  0  0  0  0  0
  160.2670  206.5270  146.5940 C   0  0  0  0  0  1  0  0  0  0  0  0
  161.6230  206.0160  147.0520 C   0  0  1  0  0  3  0  0  0  0  0  0
  163.5710  204.5820  146.2380 C   0  0  0  0  0  1  0  0  0  0  0  0
  162.4390  205.5250  145.8510 C   0  0  1  0  0  3  0  0  0  0  0  0
  161.5650  204.9160  144.8030 C   0  0  0  0  0  0  0  0  0  0  0  0
  161.3490  205.5680  143.5930 O   0  0  0  0  0  0  0  0  0  0  0  0
  161.0350  203.7930  145.0090 O   0  0  0  0  0  1  0  0  0  0  0  0
  1  4  1  0  0  0  0
  1  3  1  0  0  0  0
  2  7  1  0  0  0  0
  3  6  1  0  0  0  0
  3  2  2  0  0  0  0
  4  5  1  0  0  0  0
  5 10  1  6  0  0  0
  5  2  1  0  0  0  0
  6  8  2  0  0  0  0
  7  9  2  0  0  0  0
  8  9  1  0  0  0  0
 12 14  1  0  0  0  0
 12 13  1  0  0  0  0
 13 15  1  0  0  0  0
 14 16  1  0  0  0  0
 15 11  1  0  0  0  0
 15 10  1  0  0  0  0
 16 11  1  0  0  0  0
 17  1  1  0  0  0  0
 18 17  1  0  0  0  0
 19 18  1  0  0  0  0
 21 20  1  6  0  0  0
 21 19  1  0  0  0  0
 23 22  1  1  0  0  0
 23 21  1  0  0  0  0
 24 26  1  0  0  0  0
 24 23  1  0  0  0  0
 25 24  2  0  0  0  0
M  END
>  <MODEL>
2

>  <REMARK>
 VINA RESULT:      -7.4      1.774      4.673
  Name = 
  8 active torsions:
  status: ('A' for Active; 'I' for Inactive)
    1  A    between atoms: N_1  and  N_18
    2  A    between atoms: N_5  and  C_8
    3  A    between atoms: N_5  and  N_20
    4  A    between atoms: C_13  and  C_22
    5  A    between atoms: C_15  and  C_16
    6  A    between atoms: C_15  and  C_23
    7  A    between atoms: C_16  and  C_22
    8  A    between atoms: N_18  and  C_23
                            x       y       z     vdW  Elec       q    Type
                         _______ _______ _______ _____ _____    ______ ____

>  <TORSDO>
F 8

$$$$
=
 OpenBabel11072414223D

 26 28  0  0  1  0  0  0  0  0999 V2000
  161.9140  207.5510  150.1570 N   0  0  0  0  0  0  0  0  0  0  0  0
  161.2000  207.7320  152.3270 C   0  0  0  0  0  0  0  0  0  0  0  0
  161.6640  206.8790  151.3710 C   0  0  0  0  0  0  0  0  0  0  0  0
  161.6610  208.9750  150.3460 C   0  0  0  0  0  2  0  0  0  0  0  0
  161.1190  209.1210  151.7900 C   0  0  2  0  0  3  0  0  0  0  0  0
  161.8460  205.5250  151.6450 C   0  0  0  0  0  3  0  0  0  0  0  0
  160.8790  207.2750  153.6050 C   0  0  0  0  0  3  0  0  0  0  0  0
  161.5380  205.0710  152.8950 N   0  0  0  0  0  0  0  0  0  0  0  0
  161.0610  205.9070  153.8680 C   0  0  0  0  0  3  0  0  0  0  0  0
  161.9950  209.9970  152.5540 N   0  0  0  0  0  2  0  0  0  0  0  0
  159.8150  210.7120  152.7190 C   0  0  0  0  0  2  0  0  0  0  0  0
  160.3930  211.7680  155.3320 C   0  0  0  0  0  2  0  0  0  0  0  0
  161.2610  210.7470  154.6000 C   0  0  0  0  0  2  0  0  0  0  0  0
  158.9460  211.6310  154.8670 C   0  0  0  0  0  2  0  0  0  0  0  0
  161.1860  210.9710  153.1570 N   0  0  0  0  0  0  0  0  0  0  0  0
  158.8670  211.7310  153.3470 C   0  0  0  0  0  2  0  0  0  0  0  0
  162.7070  207.0400  149.1200 N   0  0  0  0  0  2  0  0  0  0  0  0
  161.8920  207.0330  147.9160 C   0  0  0  0  0  2  0  0  0  0  0  0
  160.9220  205.8630  147.9440 C   0  0  0  0  0  2  0  0  0  0  0  0
  162.7330  205.0750  146.3960 C   0  0  0  0  0  1  0  0  0  0  0  0
  161.4150  204.7170  147.0620 C   0  0  1  0  0  3  0  0  0  0  0  0
  160.7990  203.3950  149.1560 C   0  0  0  0  0  1  0  0  0  0  0  0
  161.5490  203.3980  147.8300 C   0  0  1  0  0  3  0  0  0  0  0  0
  161.1580  202.2270  146.9880 C   0  0  0  0  0  0  0  0  0  0  0  0
  160.8290  202.3970  145.6470 O   0  0  0  0  0  0  0  0  0  0  0  0
  161.1440  201.0740  147.4920 O   0  0  0  0  0  1  0  0  0  0  0  0
  1  4  1  0  0  0  0
  1  3  1  0  0  0  0
  2  7  1  0  0  0  0
  3  6  1  0  0  0  0
  3  2  2  0  0  0  0
  4  5  1  0  0  0  0
  5  2  1  0  0  0  0
  5 10  1  1  0  0  0
  6  8  2  0  0  0  0
  7  9  2  0  0  0  0
  8  9  1  0  0  0  0
 10 15  1  0  0  0  0
 11 15  1  0  0  0  0
 11 16  1  0  0  0  0
 13 12  1  0  0  0  0
 14 12  1  0  0  0  0
 15 13  1  0  0  0  0
 16 14  1  0  0  0  0
 17  1  1  0  0  0  0
 18 19  1  0  0  0  0
 18 17  1  0  0  0  0
 21 20  1  1  0  0  0
 21 23  1  0  0  0  0
 21 19  1  0  0  0  0
 23 22  1  1  0  0  0
 24 26  1  0  0  0  0
 24 23  1  0  0  0  0
 25 24  2  0  0  0  0
M  END
>  <MODEL>
3

>  <REMARK>
 VINA RESULT:      -7.1      2.278      3.574
  Name = 
  8 active torsions:
  status: ('A' for Active; 'I' for Inactive)
    1  A    between atoms: N_1  and  N_18
    2  A    between atoms: N_5  and  C_8
    3  A    between atoms: N_5  and  N_20
    4  A    between atoms: C_13  and  C_22
    5  A    between atoms: C_15  and  C_16
    6  A    between atoms: C_15  and  C_23
    7  A    between atoms: C_16  and  C_22
    8  A    between atoms: N_18  and  C_23
                            x       y       z     vdW  Elec       q    Type
                         _______ _______ _______ _____ _____    ______ ____

>  <TORSDO>
F 8

$$$$
=
 OpenBabel11072414223D

 26 28  0  0  1  0  0  0  0  0999 V2000
  162.1040  208.9480  150.8010 N   0  0  0  0  0  0  0  0  0  0  0  0
  161.5630  207.1040  152.0490 C   0  0  0  0  0  0  0  0  0  0  0  0
  161.6640  208.4620  152.0500 C   0  0  0  0  0  0  0  0  0  0  0  0
  162.2390  207.8250  149.8800 C   0  0  0  0  0  2  0  0  0  0  0  0
  161.9350  206.5550  150.7130 C   0  0  2  0  0  3  0  0  0  0  0  0
  161.3450  209.2050  153.1850 C   0  0  0  0  0  3  0  0  0  0  0  0
  161.1510  206.4130  153.1880 C   0  0  0  0  0  3  0  0  0  0  0  0
  160.9380  208.5350  154.3020 N   0  0  0  0  0  0  0  0  0  0  0  0
  160.8380  207.1710  154.3280 C   0  0  0  0  0  3  0  0  0  0  0  0
  160.8000  205.8510  150.1360 N   0  0  0  0  0  2  0  0  0  0  0  0
  160.4540  203.6620  150.7540 C   0  0  0  0  0  2  0  0  0  0  0  0
  161.2440  202.8270  148.1170 C   0  0  0  0  0  2  0  0  0  0  0  0
  160.8320  204.2500  148.4860 C   0  0  0  0  0  2  0  0  0  0  0  0
  160.5600  201.8390  149.0580 C   0  0  0  0  0  2  0  0  0  0  0  0
  161.2170  204.5400  149.8660 N   0  0  0  0  0  0  0  0  0  0  0  0
  160.8460  202.2070  150.5100 C   0  0  0  0  0  2  0  0  0  0  0  0
  161.9750  210.2790  150.3800 N   0  0  0  0  0  2  0  0  0  0  0  0
  161.9640  210.2730  148.9260 C   0  0  0  0  0  2  0  0  0  0  0  0
  162.2960  211.6570  148.3920 C   0  0  0  0  0  2  0  0  0  0  0  0
  160.6300  213.3720  149.1550 C   0  0  0  0  0  1  0  0  0  0  0  0
  161.0260  212.4280  148.0320 C   0  0  1  0  0  3  0  0  0  0  0  0
  162.5710  213.1790  146.1450 C   0  0  0  0  0  1  0  0  0  0  0  0
  161.1570  213.1970  146.7130 C   0  0  1  0  0  3  0  0  0  0  0  0
  160.1640  212.7290  145.7010 C   0  0  0  0  0  0  0  0  0  0  0  0
  160.5570  212.4560  144.3950 O   0  0  0  0  0  0  0  0  0  0  0  0
  158.9630  212.5610  146.0380 O   0  0  0  0  0  1  0  0  0  0  0  0
  1  3  1  0  0  0  0
  2  3  2  0  0  0  0
  2  7  1  0  0  0  0
  3  6  1  0  0  0  0
  4  5  1  0  0  0  0
  4  1  1  0  0  0  0
  5 10  1  6  0  0  0
  5  2  1  0  0  0  0
  6  8  2  0  0  0  0
  7  9  2  0  0  0  0
  8  9  1  0  0  0  0
 12 13  1  0  0  0  0
 12 14  1  0  0  0  0
 13 15  1  0  0  0  0
 14 16  1  0  0  0  0
 15 10  1  0  0  0  0
 15 11  1  0  0  0  0
 16 11  1  0  0  0  0
 17  1  1  0  0  0  0
 18 17  1  0  0  0  0
 19 18  1  0  0  0  0
 21 19  1  0  0  0  0
 21 20  1  1  0  0  0
 23 22  1  6  0  0  0
 23 21  1  0  0  0  0
 24 26  1  0  0  0  0
 24 23  1  0  0  0  0
 25 24  2  0  0  0  0
M  END
>  <MODEL>
4

>  <REMARK>
 VINA RESULT:      -7.1      2.890      6.814
  Name = 
  8 active torsions:
  status: ('A' for Active; 'I' for Inactive)
    1  A    between atoms: N_1  and  N_18
    2  A    between atoms: N_5  and  C_8
    3  A    between atoms: N_5  and  N_20
    4  A    between atoms: C_13  and  C_22
    5  A    between atoms: C_15  and  C_16
    6  A    between atoms: C_15  and  C_23
    7  A    between atoms: C_16  and  C_22
    8  A    between atoms: N_18  and  C_23
                            x       y       z     vdW  Elec       q    Type
                         _______ _______ _______ _____ _____    ______ ____

>  <TORSDO>
F 8

$$$$
=
 OpenBabel11072414223D

 26 28  0  0  1  0  0  0  0  0999 V2000
  161.7920  208.1340  150.5450 N   0  0  0  0  0  0  0  0  0  0  0  0
  161.1830  207.8950  152.7410 C   0  0  0  0  0  0  0  0  0  0  0  0
  161.6080  207.2430  151.6230 C   0  0  0  0  0  0  0  0  0  0  0  0
  161.5340  209.4930  151.0080 C   0  0  0  0  0  2  0  0  0  0  0  0
  161.0620  209.3580  152.4770 C   0  0  2  0  0  3  0  0  0  0  0  0
  161.8180  205.8660  151.6320 C   0  0  0  0  0  3  0  0  0  0  0  0
  160.9300  207.2030  153.9250 C   0  0  0  0  0  3  0  0  0  0  0  0
  161.5750  205.1820  152.7880 N   0  0  0  0  0  0  0  0  0  0  0  0
  161.1390  205.8140  153.9210 C   0  0  0  0  0  3  0  0  0  0  0  0
  161.9650  210.0930  153.3500 N   0  0  0  0  0  2  0  0  0  0  0  0
  162.2640  210.7010  155.5480 C   0  0  0  0  0  2  0  0  0  0  0  0
  159.6660  211.9360  155.5270 C   0  0  0  0  0  2  0  0  0  0  0  0
  160.4560  211.5610  154.2750 C   0  0  0  0  0  2  0  0  0  0  0  0
  160.6340  212.2130  156.6750 C   0  0  0  0  0  2  0  0  0  0  0  0
  161.2650  210.3700  154.5330 N   0  0  0  0  0  0  0  0  0  0  0  0
  161.5750  211.0280  156.8700 C   0  0  0  0  0  2  0  0  0  0  0  0
  162.5390  207.8400  149.3950 N   0  0  0  0  0  2  0  0  0  0  0  0
  161.6270  207.8870  148.2640 C   0  0  0  0  0  2  0  0  0  0  0  0
  160.8740  206.5720  148.1390 C   0  0  0  0  0  2  0  0  0  0  0  0
  161.2080  204.0860  148.0780 C   0  0  0  0  0  1  0  0  0  0  0  0
  161.8120  205.4370  147.7320 C   0  0  1  0  0  3  0  0  0  0  0  0
  163.3650  204.5860  145.8940 C   0  0  0  0  0  1  0  0  0  0  0  0
  162.1870  205.4860  146.2460 C   0  0  1  0  0  3  0  0  0  0  0  0
  161.0100  205.2000  145.3720 C   0  0  0  0  0  0  0  0  0  0  0  0
  160.0910  206.2000  145.0710 O   0  0  0  0  0  1  0  0  0  0  0  0
  160.8600  204.0490  144.8860 O   0  0  0  0  0  0  0  0  0  0  0  0
  1  4  1  0  0  0  0
  1  3  1  0  0  0  0
  2  7  1  0  0  0  0
  3  6  1  0  0  0  0
  3  2  2  0  0  0  0
  4  5  1  0  0  0  0
  5  2  1  0  0  0  0
  5 10  1  1  0  0  0
  6  8  2  0  0  0  0
  8  9  1  0  0  0  0
  9  7  2  0  0  0  0
 10 15  1  0  0  0  0
 11 16  1  0  0  0  0
 12 14  1  0  0  0  0
 13 15  1  0  0  0  0
 13 12  1  0  0  0  0
 14 16  1  0  0  0  0
 15 11  1  0  0  0  0
 17  1  1  0  0  0  0
 18 17  1  0  0  0  0
 19 18  1  0  0  0  0
 21 20  1  6  0  0  0
 21 19  1  0  0  0  0
 23 22  1  1  0  0  0
 23 21  1  0  0  0  0
 24 23  1  0  0  0  0
 25 24  1  0  0  0  0
 26 24  2  0  0  0  0
M  END
>  <MODEL>
5

>  <REMARK>
 VINA RESULT:      -7.1      1.734      3.224
  Name = 
  8 active torsions:
  status: ('A' for Active; 'I' for Inactive)
    1  A    between atoms: N_1  and  N_18
    2  A    between atoms: N_5  and  C_8
    3  A    between atoms: N_5  and  N_20
    4  A    between atoms: C_13  and  C_22
    5  A    between atoms: C_15  and  C_16
    6  A    between atoms: C_15  and  C_23
    7  A    between atoms: C_16  and  C_22
    8  A    between atoms: N_18  and  C_23
                            x       y       z     vdW  Elec       q    Type
                         _______ _______ _______ _____ _____    ______ ____

>  <TORSDO>
F 8

$$$$
=
 OpenBabel11072414223D

 26 28  0  0  1  0  0  0  0  0999 V2000
  161.3940  208.4390  151.2770 N   0  0  0  0  0  0  0  0  0  0  0  0
  161.5250  206.1950  150.8350 C   0  0  0  0  0  0  0  0  0  0  0  0
  161.3330  207.1330  151.8040 C   0  0  0  0  0  0  0  0  0  0  0  0
  161.5720  208.3560  149.8310 C   0  0  0  0  0  2  0  0  0  0  0  0
  161.7230  206.8480  149.5090 C   0  0  2  0  0  3  0  0  0  0  0  0
  161.1040  206.7610  153.1270 C   0  0  0  0  0  3  0  0  0  0  0  0
  161.5130  204.8340  151.1390 C   0  0  0  0  0  3  0  0  0  0  0  0
  161.0870  205.4310  153.4310 N   0  0  0  0  0  0  0  0  0  0  0  0
  161.2870  204.4710  152.4770 C   0  0  0  0  0  3  0  0  0  0  0  0
  160.6700  206.4360  148.5940 N   0  0  0  0  0  2  0  0  0  0  0  0
  161.3760  204.5210  147.5320 C   0  0  0  0  0  2  0  0  0  0  0  0
  161.0030  205.8280  144.9970 C   0  0  0  0  0  2  0  0  0  0  0  0
  160.3980  206.3080  146.3140 C   0  0  0  0  0  2  0  0  0  0  0  0
  161.2130  204.3180  145.0530 C   0  0  0  0  0  2  0  0  0  0  0  0
  161.2910  205.9770  147.4240 N   0  0  0  0  0  0  0  0  0  0  0  0
  162.0360  203.9440  146.2820 C   0  0  0  0  0  2  0  0  0  0  0  0
  160.9000  209.5790  151.9280 N   0  0  0  0  0  2  0  0  0  0  0  0
  161.9660  210.0870  152.7770 C   0  0  0  0  0  2  0  0  0  0  0  0
  161.3820  210.7330  154.0230 C   0  0  0  0  0  2  0  0  0  0  0  0
  162.8130  210.6760  156.0830 C   0  0  0  0  0  1  0  0  0  0  0  0
  161.7510  209.9450  155.2780 C   0  0  1  0  0  3  0  0  0  0  0  0
  159.2220  210.1280  155.5640 C   0  0  0  0  0  1  0  0  0  0  0  0
  160.5350  209.6370  156.1600 C   0  0  1  0  0  3  0  0  0  0  0  0
  160.4600  208.1860  156.5070 C   0  0  0  0  0  0  0  0  0  0  0  0
  159.4040  207.4020  156.0550 O   0  0  0  0  0  0  0  0  0  0  0  0
  161.3720  207.6630  157.1990 O   0  0  0  0  0  1  0  0  0  0  0  0
  1  3  1  0  0  0  0
  1 17  1  0  0  0  0
  2  7  2  0  0  0  0
  2  3  1  0  0  0  0
  3  6  2  0  0  0  0
  4  1  1  0  0  0  0
  5 10  1  6  0  0  0
  5  4  1  0  0  0  0
  5  2  1  0  0  0  0
  6  8  1  0  0  0  0
  7  9  1  0  0  0  0
  9  8  2  0  0  0  0
 12 14  1  0  0  0  0
 12 13  1  0  0  0  0
 13 15  1  0  0  0  0
 14 16  1  0  0  0  0
 15 11  1  0  0  0  0
 15 10  1  0  0  0  0
 16 11  1  0  0  0  0
 17 18  1  0  0  0  0
 18 19  1  0  0  0  0
 19 21  1  0  0  0  0
 21 20  1  1  0  0  0
 21 23  1  0  0  0  0
 23 22  1  6  0  0  0
 23 24  1  0  0  0  0
 24 26  1  0  0  0  0
 25 24  2  0  0  0  0
M  END
>  <MODEL>
6

>  <REMARK>
 VINA RESULT:      -7.0      3.621      8.715
  Name = 
  8 active torsions:
  status: ('A' for Active; 'I' for Inactive)
    1  A    between atoms: N_1  and  N_18
    2  A    between atoms: N_5  and  C_8
    3  A    between atoms: N_5  and  N_20
    4  A    between atoms: C_13  and  C_22
    5  A    between atoms: C_15  and  C_16
    6  A    between atoms: C_15  and  C_23
    7  A    between atoms: C_16  and  C_22
    8  A    between atoms: N_18  and  C_23
                            x       y       z     vdW  Elec       q    Type
                         _______ _______ _______ _____ _____    ______ ____

>  <TORSDO>
F 8

$$$$
=
 OpenBabel11072414223D

 26 28  0  0  1  0  0  0  0  0999 V2000
  161.3830  207.0100  151.6510 N   0  0  0  0  0  0  0  0  0  0  0  0
  161.3160  205.1610  150.3000 C   0  0  0  0  0  0  0  0  0  0  0  0
  161.2110  205.6120  151.5810 C   0  0  0  0  0  0  0  0  0  0  0  0
  161.5460  207.5330  150.2990 C   0  0  0  0  0  2  0  0  0  0  0  0
  161.5640  206.2970  149.3660 C   0  0  2  0  0  3  0  0  0  0  0  0
  160.9570  204.7340  152.6330 C   0  0  0  0  0  3  0  0  0  0  0  0
  161.1880  203.8050  150.0030 C   0  0  0  0  0  3  0  0  0  0  0  0
  160.8270  203.4060  152.3490 N   0  0  0  0  0  0  0  0  0  0  0  0
  160.9370  202.9280  151.0720 C   0  0  0  0  0  3  0  0  0  0  0  0
  160.4740  206.3930  148.4070 N   0  0  0  0  0  2  0  0  0  0  0  0
  160.1540  206.2040  146.1370 C   0  0  0  0  0  2  0  0  0  0  0  0
  162.7410  204.9670  145.9080 C   0  0  0  0  0  2  0  0  0  0  0  0
  162.2730  205.7770  147.1150 C   0  0  0  0  0  2  0  0  0  0  0  0
  162.0140  205.4530  144.6570 C   0  0  0  0  0  2  0  0  0  0  0  0
  160.8310  205.6190  147.2940 N   0  0  0  0  0  0  0  0  0  0  0  0
  160.5050  205.4170  144.8760 C   0  0  0  0  0  2  0  0  0  0  0  0
  160.9940  207.8010  152.7420 N   0  0  0  0  0  2  0  0  0  0  0  0
  160.8190  209.1590  152.2510 C   0  0  0  0  0  2  0  0  0  0  0  0
  161.6770  210.1230  153.0540 C   0  0  0  0  0  2  0  0  0  0  0  0
  159.4270  211.2180  153.2440 C   0  0  0  0  0  1  0  0  0  0  0  0
  160.8120  211.0930  153.8570 C   0  0  1  0  0  3  0  0  0  0  0  0
  159.4710  209.8630  155.6470 C   0  0  0  0  0  1  0  0  0  0  0  0
  160.7040  210.7010  155.3360 C   0  0  1  0  0  3  0  0  0  0  0  0
  161.9480  210.0310  155.8200 C   0  0  0  0  0  0  0  0  0  0  0  0
  161.9580  208.6670  156.0910 O   0  0  0  0  0  1  0  0  0  0  0  0
  163.0020  210.7030  155.9660 O   0  0  0  0  0  0  0  0  0  0  0  0
  1 17  1  0  0  0  0
  2  3  1  0  0  0  0
  3  1  1  0  0  0  0
  3  6  2  0  0  0  0
  4  1  1  0  0  0  0
  5 10  1  6  0  0  0
  5  4  1  0  0  0  0
  5  2  1  0  0  0  0
  7  2  2  0  0  0  0
  7  9  1  0  0  0  0
  8  6  1  0  0  0  0
  9  8  2  0  0  0  0
 11 15  1  0  0  0  0
 12 13  1  0  0  0  0
 13 15  1  0  0  0  0
 14 16  1  0  0  0  0
 14 12  1  0  0  0  0
 15 10  1  0  0  0  0
 16 11  1  0  0  0  0
 18 17  1  0  0  0  0
 18 19  1  0  0  0  0
 19 21  1  0  0  0  0
 21 20  1  6  0  0  0
 21 23  1  0  0  0  0
 23 22  1  6  0  0  0
 23 24  1  0  0  0  0
 24 26  2  0  0  0  0
 24 25  1  0  0  0  0
M  END
>  <MODEL>
7

>  <REMARK>
 VINA RESULT:      -7.0      3.824      8.664
  Name = 
  8 active torsions:
  status: ('A' for Active; 'I' for Inactive)
    1  A    between atoms: N_1  and  N_18
    2  A    between atoms: N_5  and  C_8
    3  A    between atoms: N_5  and  N_20
    4  A    between atoms: C_13  and  C_22
    5  A    between atoms: C_15  and  C_16
    6  A    between atoms: C_15  and  C_23
    7  A    between atoms: C_16  and  C_22
    8  A    between atoms: N_18  and  C_23
                            x       y       z     vdW  Elec       q    Type
                         _______ _______ _______ _____ _____    ______ ____

>  <TORSDO>
F 8

$$$$
=
 OpenBabel11072414223D

 26 28  0  0  1  0  0  0  0  0999 V2000
  161.8220  208.0650  150.4910 N   0  0  0  0  0  0  0  0  0  0  0  0
  161.2350  207.8380  152.6940 C   0  0  0  0  0  0  0  0  0  0  0  0
  161.6550  207.1810  151.5770 C   0  0  0  0  0  0  0  0  0  0  0  0
  161.5580  209.4260  150.9460 C   0  0  0  0  0  2  0  0  0  0  0  0
  161.1010  209.2980  152.4200 C   0  0  2  0  0  3  0  0  0  0  0  0
  161.8740  205.8050  151.5930 C   0  0  0  0  0  3  0  0  0  0  0  0
  160.9980  207.1530  153.8850 C   0  0  0  0  0  3  0  0  0  0  0  0
  161.6480  205.1280  152.7570 N   0  0  0  0  0  0  0  0  0  0  0  0
  161.2170  205.7650  153.8890 C   0  0  0  0  0  3  0  0  0  0  0  0
  162.0060  210.0460  153.2800 N   0  0  0  0  0  2  0  0  0  0  0  0
  159.8470  210.7840  153.5680 C   0  0  0  0  0  2  0  0  0  0  0  0
  160.4690  211.4330  156.3010 C   0  0  0  0  0  2  0  0  0  0  0  0
  161.3050  210.5090  155.4200 C   0  0  0  0  0  2  0  0  0  0  0  0
  159.0150  211.4020  155.8360 C   0  0  0  0  0  2  0  0  0  0  0  0
  161.2270  210.9420  154.0250 N   0  0  0  0  0  0  0  0  0  0  0  0
  158.9300  211.7250  154.3470 C   0  0  0  0  0  2  0  0  0  0  0  0
  162.5600  207.7680  149.3360 N   0  0  0  0  0  2  0  0  0  0  0  0
  161.6410  207.8180  148.2110 C   0  0  0  0  0  2  0  0  0  0  0  0
  160.8890  206.5030  148.0870 C   0  0  0  0  0  2  0  0  0  0  0  0
  161.2030  204.0140  148.0330 C   0  0  0  0  0  1  0  0  0  0  0  0
  161.8340  205.3600  147.7190 C   0  0  1  0  0  3  0  0  0  0  0  0
  163.4470  204.4830  145.9460 C   0  0  0  0  0  1  0  0  0  0  0  0
  162.2780  205.4100  146.2530 C   0  0  1  0  0  3  0  0  0  0  0  0
  161.1350  205.1610  145.3230 C   0  0  0  0  0  0  0  0  0  0  0  0
  160.2990  206.2020  144.9330 O   0  0  0  0  0  1  0  0  0  0  0  0
  160.9390  204.0030  144.8730 O   0  0  0  0  0  0  0  0  0  0  0  0
  1  4  1  0  0  0  0
  1  3  1  0  0  0  0
  2  7  1  0  0  0  0
  3  6  1  0  0  0  0
  3  2  2  0  0  0  0
  4  5  1  0  0  0  0
  5  2  1  0  0  0  0
  5 10  1  1  0  0  0
  6  8  2  0  0  0  0
  7  9  2  0  0  0  0
  8  9  1  0  0  0  0
 10 15  1  0  0  0  0
 11 15  1  0  0  0  0
 11 16  1  0  0  0  0
 13 12  1  0  0  0  0
 14 12  1  0  0  0  0
 15 13  1  0  0  0  0
 16 14  1  0  0  0  0
 17  1  1  0  0  0  0
 18 17  1  0  0  0  0
 19 18  1  0  0  0  0
 21 20  1  6  0  0  0
 21 19  1  0  0  0  0
 23 22  1  1  0  0  0
 23 21  1  0  0  0  0
 24 23  1  0  0  0  0
 25 24  1  0  0  0  0
 26 24  2  0  0  0  0
M  END
>  <MODEL>
8

>  <REMARK>
 VINA RESULT:      -6.9      1.805      3.196
  Name = 
  8 active torsions:
  status: ('A' for Active; 'I' for Inactive)
    1  A    between atoms: N_1  and  N_18
    2  A    between atoms: N_5  and  C_8
    3  A    between atoms: N_5  and  N_20
    4  A    between atoms: C_13  and  C_22
    5  A    between atoms: C_15  and  C_16
    6  A    between atoms: C_15  and  C_23
    7  A    between atoms: C_16  and  C_22
    8  A    between atoms: N_18  and  C_23
                            x       y       z     vdW  Elec       q    Type
                         _______ _______ _______ _____ _____    ______ ____

>  <TORSDO>
F 8

$$$$
=
 OpenBabel11072414223D

 26 28  0  0  1  0  0  0  0  0999 V2000
  162.1010  209.3320  150.4950 N   0  0  0  0  0  0  0  0  0  0  0  0
  161.5970  207.5110  151.7910 C   0  0  0  0  0  0  0  0  0  0  0  0
  161.6840  208.8700  151.7610 C   0  0  0  0  0  0  0  0  0  0  0  0
  162.2340  208.1900  149.5970 C   0  0  0  0  0  2  0  0  0  0  0  0
  161.9560  206.9360  150.4620 C   0  0  2  0  0  3  0  0  0  0  0  0
  161.3740  209.6340  152.8840 C   0  0  0  0  0  3  0  0  0  0  0  0
  161.2100  206.8400  152.9510 C   0  0  0  0  0  3  0  0  0  0  0  0
  160.9900  208.9850  154.0220 N   0  0  0  0  0  0  0  0  0  0  0  0
  160.9050  207.6200  154.0790 C   0  0  0  0  0  3  0  0  0  0  0  0
  160.8190  206.2080  149.9170 N   0  0  0  0  0  2  0  0  0  0  0  0
  160.4490  204.0640  150.6650 C   0  0  0  0  0  2  0  0  0  0  0  0
  161.2530  203.0620  148.0910 C   0  0  0  0  0  2  0  0  0  0  0  0
  160.8500  204.5080  148.3690 C   0  0  0  0  0  2  0  0  0  0  0  0
  160.5530  202.1390  149.0850 C   0  0  0  0  0  2  0  0  0  0  0  0
  161.2270  204.8790  149.7320 N   0  0  0  0  0  0  0  0  0  0  0  0
  160.8310  202.5940  150.5150 C   0  0  0  0  0  2  0  0  0  0  0  0
  161.9510  210.6520  150.0470 N   0  0  0  0  0  2  0  0  0  0  0  0
  162.3310  210.6780  148.6440 C   0  0  0  0  0  2  0  0  0  0  0  0
  161.4910  211.6950  147.8900 C   0  0  0  0  0  2  0  0  0  0  0  0
  162.6140  213.9360  148.0030 C   0  0  0  0  0  1  0  0  0  0  0  0
  161.5190  213.0560  148.5830 C   0  0  1  0  0  3  0  0  0  0  0  0
  159.2860  213.3030  147.3710 C   0  0  0  0  0  1  0  0  0  0  0  0
  160.1680  213.7780  148.5200 C   0  0  1  0  0  3  0  0  0  0  0  0
  159.4420  213.7030  149.8230 C   0  0  0  0  0  0  0  0  0  0  0  0
  158.0750  213.4500  149.8590 O   0  0  0  0  0  0  0  0  0  0  0  0
  160.0770  213.8530  150.8990 O   0  0  0  0  0  1  0  0  0  0  0  0
  1  3  1  0  0  0  0
  2  7  1  0  0  0  0
  3  2  2  0  0  0  0
  3  6  1  0  0  0  0
  4  5  1  0  0  0  0
  4  1  1  0  0  0  0
  5 10  1  6  0  0  0
  5  2  1  0  0  0  0
  6  8  2  0  0  0  0
  7  9  2  0  0  0  0
  8  9  1  0  0  0  0
 12 13  1  0  0  0  0
 12 14  1  0  0  0  0
 13 15  1  0  0  0  0
 14 16  1  0  0  0  0
 15 10  1  0  0  0  0
 15 11  1  0  0  0  0
 16 11  1  0  0  0  0
 17  1  1  0  0  0  0
 18 17  1  0  0  0  0
 19 21  1  0  0  0  0
 19 18  1  0  0  0  0
 21 20  1  6  0  0  0
 23 22  1  6  0  0  0
 23 21  1  0  0  0  0
 23 24  1  0  0  0  0
 24 25  2  0  0  0  0
 24 26  1  0  0  0  0
M  END
>  <MODEL>
9

>  <REMARK>
 VINA RESULT:      -6.9      3.415      7.266
  Name = 
  8 active torsions:
  status: ('A' for Active; 'I' for Inactive)
    1  A    between atoms: N_1  and  N_18
    2  A    between atoms: N_5  and  C_8
    3  A    between atoms: N_5  and  N_20
    4  A    between atoms: C_13  and  C_22
    5  A    between atoms: C_15  and  C_16
    6  A    between atoms: C_15  and  C_23
    7  A    between atoms: C_16  and  C_22
    8  A    between atoms: N_18  and  C_23
                            x       y       z     vdW  Elec       q    Type
                         _______ _______ _______ _____ _____    ______ ____

>  <TORSDO>
F 8

$$$$
