=
 OpenBabel11072410573D

 42 47  0  0  1  0  0  0  0  0999 V2000
  160.4820  212.0820  155.1630 C   0  0  0  0  0  0  0  0  0  0  0  0
  161.5280  210.3000  153.1570 C   0  0  1  0  0  3  0  0  0  0  0  0
  160.4060  211.2920  152.7820 C   0  0  1  0  0  3  0  0  0  0  0  0
  161.3710  210.9330  155.5690 C   0  0  0  0  0  2  0  0  0  0  0  0
  160.1130  212.2790  153.8870 C   0  0  0  0  0  3  0  0  0  0  0  0
  160.1760  213.0290  156.0850 F   0  0  0  0  0  0  0  0  0  0  0  0
  161.3150  209.7780  154.5760 C   0  0  0  0  0  2  0  0  0  0  0  0
  162.0870  205.6010  152.2330 Cl  0  0  0  0  0  0  0  0  0  0  0  0
  162.4090  209.3030  150.9730 C   0  0  0  0  0  3  0  0  0  0  0  0
  161.5320  207.2150  150.1810 N   0  0  0  0  0  0  0  0  0  0  0  0
  161.0160  206.8300  151.5030 C   0  0  2  0  0  3  0  0  0  0  0  0
  161.6060  209.1480  152.1980 C   0  0  0  0  0  0  0  0  0  0  0  0
  160.9240  208.0130  152.4270 C   0  0  0  0  0  3  0  0  0  0  0  0
  162.3570  208.3800  150.0140 C   0  0  0  0  0  3  0  0  0  0  0  0
  161.2910  206.1500  148.8390 S   0  0  0  0  0  0  0  0  0  0  0  0
  159.8220  206.0570  148.5280 O   0  0  0  0  0  0  0  0  0  0  0  0
  162.0290  206.6830  147.6420 O   0  0  0  0  0  0  0  0  0  0  0  0
  161.8860  204.5770  149.2540 N   0  0  0  0  0  2  0  0  0  0  0  0
  160.7150  201.8230  147.0460 C   0  0  2  0  0  3  0  0  0  0  0  0
  161.1810  203.2390  147.3250 C   0  0  0  0  0  2  0  0  0  0  0  0
  161.3010  199.6860  147.3740 O   0  0  0  0  0  0  0  0  0  0  0  0
  160.6700  202.5580  150.9720 O   0  0  0  0  0  0  0  0  0  0  0  0
  161.5230  200.9440  147.9020 C   0  0  2  0  0  3  0  0  0  0  0  0
  160.9710  201.3530  145.7690 O   0  0  0  0  0  0  0  0  0  0  0  0
  161.1610  199.9660  145.9920 C   0  0  0  0  0  2  0  0  0  0  0  0
  160.9100  203.5930  148.8080 C   0  0  1  0  0  3  0  0  0  0  0  0
  160.9150  202.3940  149.7470 C   0  0  0  0  0  0  0  0  0  0  0  0
  161.0950  201.0960  149.2450 O   0  0  0  0  0  0  0  0  0  0  0  0
  160.7400  212.0730  151.5100 C   0  0  0  0  0  2  0  0  0  0  0  0
  162.7840  212.4220  147.4740 C   0  0  0  0  0  3  0  0  0  0  0  0
  159.4970  212.5530  150.8280 C   0  0  0  0  0  0  0  0  0  0  0  0
  160.8750  214.4510  145.3070 O   0  0  0  0  0  0  0  0  0  0  0  0
  161.4790  210.8280  148.6610 O   0  0  0  0  0  1  0  0  0  0  0  0
  160.5920  213.0270  148.5490 C   0  0  0  0  0  0  0  0  0  0  0  0
  160.2720  213.7130  147.4810 C   0  0  0  0  0  0  0  0  0  0  0  0
  158.4790  213.9240  148.9140 C   0  0  0  0  0  3  0  0  0  0  0  0
  162.4560  213.1430  146.4370 N   0  0  0  0  0  0  0  0  0  0  0  0
  158.9940  214.3250  147.6000 N   0  0  0  0  0  0  0  0  0  0  0  0
  161.1820  213.8000  146.3400 C   0  0  0  0  0  0  0  0  0  0  0  0
  161.8370  212.1790  148.6380 C   0  0  2  0  0  3  0  0  0  0  0  0
  159.5370  213.1030  149.5030 N   0  0  0  0  0  0  0  0  0  0  0  0
  158.3990  212.4960  151.4500 O   0  0  0  0  0  0  0  0  0  0  0  0
  1  4  1  0  0  0  0
  1  6  1  0  0  0  0
  2 12  1  6  0  0  0
  2  7  1  0  0  0  0
  3 29  1  6  0  0  0
  3  2  1  0  0  0  0
  3  5  1  0  0  0  0
  5  1  2  0  0  0  0
  7  4  1  0  0  0  0
  9 12  1  0  0  0  0
 10 11  1  0  0  0  0
 11  8  1  1  0  0  0
 11 13  1  0  0  0  0
 12 13  2  0  0  0  0
 14 10  1  0  0  0  0
 14  9  2  0  0  0  0
 15 18  1  0  0  0  0
 15 10  1  0  0  0  0
 16 15  2  0  0  0  0
 17 15  2  0  0  0  0
 19 20  1  6  0  0  0
 19 23  1  0  0  0  0
 20 26  1  0  0  0  0
 23 21  1  6  0  0  0
 23 28  1  0  0  0  0
 24 25  1  0  0  0  0
 24 19  1  0  0  0  0
 25 21  1  0  0  0  0
 26 18  1  1  0  0  0
 26 27  1  0  0  0  0
 27 22  2  0  0  0  0
 28 27  1  0  0  0  0
 30 40  1  0  0  0  0
 31 42  2  0  0  0  0
 31 29  1  0  0  0  0
 32 39  2  0  0  0  0
 34 40  1  0  0  0  0
 34 41  1  0  0  0  0
 35 38  1  0  0  0  0
 35 34  2  0  0  0  0
 36 41  1  0  0  0  0
 37 30  2  0  0  0  0
 38 36  2  0  0  0  0
 39 37  1  0  0  0  0
 39 35  1  0  0  0  0
 40 33  1  6  0  0  0
 41 31  1  0  0  0  0
M  END
>  <MODEL>
1

>  <REMARK>
 VINA RESULT:      -8.2      0.000      0.000
  Name = 
  6 active torsions:
  status: ('A' for Active; 'I' for Inactive)
    1  A    between atoms: C_7  and  C_24
    2  A    between atoms: C_10  and  C_31
    3  A    between atoms: N_11  and  S_13
    4  A    between atoms: S_13  and  N_25
    5  A    between atoms: C_18  and  C_31
    6  A    between atoms: N_25  and  C_32
                            x       y       z     vdW  Elec       q    Type
                         _______ _______ _______ _____ _____    ______ ____

>  <TORSDO>
F 6

$$$$
=
 OpenBabel11072410573D

 42 47  0  0  1  0  0  0  0  0999 V2000
  159.0790  213.3230  155.3380 C   0  0  0  0  0  0  0  0  0  0  0  0
  160.6090  211.1690  154.1910 C   0  0  1  0  0  3  0  0  0  0  0  0
  159.5500  211.8920  153.3300 C   0  0  1  0  0  3  0  0  0  0  0  0
  159.9120  212.4360  156.2290 C   0  0  0  0  0  2  0  0  0  0  0  0
  158.9830  213.1130  154.0150 C   0  0  0  0  0  3  0  0  0  0  0  0
  158.5410  214.4530  155.8610 F   0  0  0  0  0  0  0  0  0  0  0  0
  160.1210  211.0490  155.6320 C   0  0  0  0  0  2  0  0  0  0  0  0
  161.9100  206.5720  154.8300 Cl  0  0  0  0  0  0  0  0  0  0  0  0
  161.8320  209.7130  152.4810 C   0  0  0  0  0  3  0  0  0  0  0  0
  161.3390  207.3690  152.3470 N   0  0  0  0  0  0  0  0  0  0  0  0
  160.7550  207.3260  153.6960 C   0  0  2  0  0  3  0  0  0  0  0  0
  160.9420  209.8090  153.6510 C   0  0  0  0  0  0  0  0  0  0  0  0
  160.4060  208.7030  154.1920 C   0  0  0  0  0  3  0  0  0  0  0  0
  162.0040  208.5470  151.8620 C   0  0  0  0  0  3  0  0  0  0  0  0
  161.3830  205.9220  151.4020 S   0  0  0  0  0  0  0  0  0  0  0  0
  162.7940  205.4040  151.3380 O   0  0  0  0  0  0  0  0  0  0  0  0
  160.4920  204.8870  152.0330 O   0  0  0  0  0  0  0  0  0  0  0  0
  160.8360  206.2790  149.7970 N   0  0  0  0  0  2  0  0  0  0  0  0
  161.6790  203.9070  147.0590 C   0  0  2  0  0  3  0  0  0  0  0  0
  161.2010  204.2610  148.4550 C   0  0  0  0  0  2  0  0  0  0  0  0
  161.2960  204.3740  144.9030 O   0  0  0  0  0  0  0  0  0  0  0  0
  162.4930  207.7290  147.8860 O   0  0  0  0  0  0  0  0  0  0  0  0
  161.1160  204.9220  146.1590 C   0  0  2  0  0  3  0  0  0  0  0  0
  161.1920  202.7170  146.5480 O   0  0  0  0  0  0  0  0  0  0  0  0
  161.1310  202.9900  145.1580 C   0  0  0  0  0  2  0  0  0  0  0  0
  161.7520  205.6510  148.8570 C   0  0  1  0  0  3  0  0  0  0  0  0
  162.0090  206.5840  147.6810 C   0  0  0  0  0  0  0  0  0  0  0  0
  161.8040  206.1450  146.3640 O   0  0  0  0  0  0  0  0  0  0  0  0
  160.1120  212.3140  151.9720 C   0  0  0  0  0  2  0  0  0  0  0  0
  162.8170  212.3700  148.3300 C   0  0  0  0  0  3  0  0  0  0  0  0
  159.0280  212.8180  151.0710 C   0  0  0  0  0  0  0  0  0  0  0  0
  161.4100  214.3790  145.7920 O   0  0  0  0  0  0  0  0  0  0  0  0
  161.2470  210.8990  149.3420 O   0  0  0  0  0  1  0  0  0  0  0  0
  160.5130  213.1290  148.9940 C   0  0  0  0  0  0  0  0  0  0  0  0
  160.4130  213.7770  147.8600 C   0  0  0  0  0  0  0  0  0  0  0  0
  158.4200  214.1410  148.9590 C   0  0  0  0  0  3  0  0  0  0  0  0
  162.7080  213.0550  147.2240 N   0  0  0  0  0  0  0  0  0  0  0  0
  159.1690  214.4530  147.7370 N   0  0  0  0  0  0  0  0  0  0  0  0
  161.5050  213.7660  146.8870 C   0  0  0  0  0  0  0  0  0  0  0  0
  161.6770  212.2290  149.3250 C   0  0  2  0  0  3  0  0  0  0  0  0
  159.3190  213.3010  149.7510 N   0  0  0  0  0  0  0  0  0  0  0  0
  157.8410  212.8430  151.5000 O   0  0  0  0  0  0  0  0  0  0  0  0
  1  6  1  0  0  0  0
  1  4  1  0  0  0  0
  2 12  1  6  0  0  0
  2  7  1  0  0  0  0
  3 29  1  6  0  0  0
  3  5  1  0  0  0  0
  3  2  1  0  0  0  0
  5  1  2  0  0  0  0
  7  4  1  0  0  0  0
  9 12  1  0  0  0  0
 10 11  1  0  0  0  0
 11 13  1  0  0  0  0
 11  8  1  1  0  0  0
 12 13  2  0  0  0  0
 14 10  1  0  0  0  0
 14  9  2  0  0  0  0
 15 17  2  0  0  0  0
 15 10  1  0  0  0  0
 16 15  2  0  0  0  0
 18 15  1  0  0  0  0
 19 20  1  1  0  0  0
 20 26  1  0  0  0  0
 21 25  1  0  0  0  0
 23 21  1  6  0  0  0
 23 28  1  0  0  0  0
 23 19  1  0  0  0  0
 24 19  1  0  0  0  0
 25 24  1  0  0  0  0
 26 18  1  1  0  0  0
 27 22  2  0  0  0  0
 27 26  1  0  0  0  0
 28 27  1  0  0  0  0
 30 40  1  0  0  0  0
 31 42  2  0  0  0  0
 31 29  1  0  0  0  0
 32 39  2  0  0  0  0
 34 40  1  0  0  0  0
 34 41  1  0  0  0  0
 35 34  2  0  0  0  0
 36 41  1  0  0  0  0
 37 30  2  0  0  0  0
 38 35  1  0  0  0  0
 38 36  2  0  0  0  0
 39 37  1  0  0  0  0
 39 35  1  0  0  0  0
 40 33  1  6  0  0  0
 41 31  1  0  0  0  0
M  END
>  <MODEL>
2

>  <REMARK>
 VINA RESULT:      -7.9      1.681      2.589
  Name = 
  6 active torsions:
  status: ('A' for Active; 'I' for Inactive)
    1  A    between atoms: C_7  and  C_24
    2  A    between atoms: C_10  and  C_31
    3  A    between atoms: N_11  and  S_13
    4  A    between atoms: S_13  and  N_25
    5  A    between atoms: C_18  and  C_31
    6  A    between atoms: N_25  and  C_32
                            x       y       z     vdW  Elec       q    Type
                         _______ _______ _______ _____ _____    ______ ____

>  <TORSDO>
F 6

$$$$
=
 OpenBabel11072410573D

 42 47  0  0  1  0  0  0  0  0999 V2000
  160.8450  208.8550  155.5070 C   0  0  0  0  0  0  0  0  0  0  0  0
  160.4630  210.0470  152.9130 C   0  0  1  0  0  3  0  0  0  0  0  0
  161.2410  208.7190  153.0320 C   0  0  1  0  0  3  0  0  0  0  0  0
  160.3350  210.2710  155.3980 C   0  0  0  0  0  2  0  0  0  0  0  0
  161.1810  208.1360  154.4240 C   0  0  0  0  0  3  0  0  0  0  0  0
  160.8160  208.2420  156.7170 F   0  0  0  0  0  0  0  0  0  0  0  0
  160.7750  210.9480  154.1060 C   0  0  0  0  0  2  0  0  0  0  0  0
  159.1900  212.9640  149.2920 Cl  0  0  0  0  0  0  0  0  0  0  0  0
  161.4770  210.0420  150.5650 C   0  0  0  0  0  3  0  0  0  0  0  0
  161.7170  212.1080  149.3700 N   0  0  0  0  0  0  0  0  0  0  0  0
  160.7210  212.8040  150.1980 C   0  0  2  0  0  3  0  0  0  0  0  0
  160.7730  210.7700  151.6350 C   0  0  0  0  0  0  0  0  0  0  0  0
  160.4570  212.0670  151.4830 C   0  0  0  0  0  3  0  0  0  0  0  0
  161.9310  210.6920  149.4960 C   0  0  0  0  0  3  0  0  0  0  0  0
  162.5120  212.9750  148.1020 S   0  0  0  0  0  0  0  0  0  0  0  0
  162.4010  214.4530  148.3570 O   0  0  0  0  0  0  0  0  0  0  0  0
  163.9620  212.5750  148.0590 O   0  0  0  0  0  0  0  0  0  0  0  0
  161.7450  212.5980  146.5950 N   0  0  0  0  0  2  0  0  0  0  0  0
  162.5400  214.2870  143.3770 C   0  0  2  0  0  3  0  0  0  0  0  0
  162.8890  213.4800  144.6140 C   0  0  0  0  0  2  0  0  0  0  0  0
  161.1090  214.3280  141.6550 O   0  0  0  0  0  0  0  0  0  0  0  0
  159.5620  214.4480  146.0340 O   0  0  0  0  0  0  0  0  0  0  0  0
  161.2200  213.8170  142.9340 C   0  0  2  0  0  3  0  0  0  0  0  0
  163.3480  214.0660  142.2760 O   0  0  0  0  0  0  0  0  0  0  0  0
  162.4490  214.2750  141.1980 C   0  0  0  0  0  2  0  0  0  0  0  0
  161.8530  213.7640  145.7300 C   0  0  1  0  0  3  0  0  0  0  0  0
  160.4740  214.1580  145.2150 C   0  0  0  0  0  0  0  0  0  0  0  0
  160.2390  214.2960  143.8390 O   0  0  0  0  0  0  0  0  0  0  0  0
  160.7290  207.6700  152.0440 C   0  0  0  0  0  2  0  0  0  0  0  0
  161.1280  206.2660  147.7480 C   0  0  0  0  0  3  0  0  0  0  0  0
  161.1580  206.2930  152.4460 C   0  0  0  0  0  0  0  0  0  0  0  0
  161.1840  202.7390  147.6140 O   0  0  0  0  0  0  0  0  0  0  0  0
  162.5250  207.1630  149.4500 O   0  0  0  0  0  1  0  0  0  0  0  0
  161.1860  205.3040  150.0710 C   0  0  0  0  0  0  0  0  0  0  0  0
  161.1930  204.0990  149.5590 C   0  0  0  0  0  0  0  0  0  0  0  0
  161.2530  203.8010  151.8440 C   0  0  0  0  0  3  0  0  0  0  0  0
  161.0980  205.0540  147.2640 N   0  0  0  0  0  0  0  0  0  0  0  0
  161.2170  203.0910  150.5610 N   0  0  0  0  0  0  0  0  0  0  0  0
  161.1680  203.8950  148.1110 C   0  0  0  0  0  0  0  0  0  0  0  0
  161.2860  206.5540  149.2320 C   0  0  2  0  0  3  0  0  0  0  0  0
  161.2170  205.2210  151.4930 N   0  0  0  0  0  0  0  0  0  0  0  0
  161.4450  206.0720  153.6560 O   0  0  0  0  0  0  0  0  0  0  0  0
  1  6  1  0  0  0  0
  2 12  1  6  0  0  0
  2  3  1  0  0  0  0
  2  7  1  0  0  0  0
  3 29  1  6  0  0  0
  3  5  1  0  0  0  0
  4  1  1  0  0  0  0
  5  1  2  0  0  0  0
  7  4  1  0  0  0  0
  9 12  1  0  0  0  0
 10 14  1  0  0  0  0
 10 11  1  0  0  0  0
 11  8  1  6  0  0  0
 11 13  1  0  0  0  0
 13 12  2  0  0  0  0
 14  9  2  0  0  0  0
 15 16  2  0  0  0  0
 15 10  1  0  0  0  0
 17 15  2  0  0  0  0
 18 15  1  0  0  0  0
 19 20  1  1  0  0  0
 20 26  1  0  0  0  0
 23 21  1  6  0  0  0
 23 19  1  0  0  0  0
 23 28  1  0  0  0  0
 24 19  1  0  0  0  0
 25 21  1  0  0  0  0
 25 24  1  0  0  0  0
 26 18  1  6  0  0  0
 27 26  1  0  0  0  0
 27 22  2  0  0  0  0
 28 27  1  0  0  0  0
 29 31  1  0  0  0  0
 30 40  1  0  0  0  0
 31 42  2  0  0  0  0
 32 39  2  0  0  0  0
 34 41  1  0  0  0  0
 35 34  2  0  0  0  0
 35 38  1  0  0  0  0
 37 30  2  0  0  0  0
 37 39  1  0  0  0  0
 38 36  2  0  0  0  0
 39 35  1  0  0  0  0
 40 33  1  6  0  0  0
 40 34  1  0  0  0  0
 41 36  1  0  0  0  0
 41 31  1  0  0  0  0
M  END
>  <MODEL>
3

>  <REMARK>
 VINA RESULT:      -7.5      2.906      8.794
  Name = 
  6 active torsions:
  status: ('A' for Active; 'I' for Inactive)
    1  A    between atoms: C_7  and  C_24
    2  A    between atoms: C_10  and  C_31
    3  A    between atoms: N_11  and  S_13
    4  A    between atoms: S_13  and  N_25
    5  A    between atoms: C_18  and  C_31
    6  A    between atoms: N_25  and  C_32
                            x       y       z     vdW  Elec       q    Type
                         _______ _______ _______ _____ _____    ______ ____

>  <TORSDO>
F 6

$$$$
=
 OpenBabel11072410573D

 42 47  0  0  1  0  0  0  0  0999 V2000
  161.3050  211.4030  155.9370 C   0  0  0  0  0  0  0  0  0  0  0  0
  161.7300  209.3320  153.9810 C   0  0  1  0  0  3  0  0  0  0  0  0
  160.7710  210.4980  153.6580 C   0  0  1  0  0  3  0  0  0  0  0  0
  162.0130  210.1310  156.3320 C   0  0  0  0  0  2  0  0  0  0  0  0
  160.8130  211.5890  154.7020 C   0  0  0  0  0  3  0  0  0  0  0  0
  161.3040  212.4460  156.8050 F   0  0  0  0  0  0  0  0  0  0  0  0
  161.6150  208.9500  155.4550 C   0  0  0  0  0  2  0  0  0  0  0  0
  160.5930  207.3330  149.7440 Cl  0  0  0  0  0  0  0  0  0  0  0  0
  160.6180  207.0520  153.6570 C   0  0  0  0  0  3  0  0  0  0  0  0
  161.2070  205.7010  151.7650 N   0  0  0  0  0  0  0  0  0  0  0  0
  161.7510  206.8400  151.0110 C   0  0  2  0  0  3  0  0  0  0  0  0
  161.4670  208.1300  153.1220 C   0  0  0  0  0  0  0  0  0  0  0  0
  162.0300  208.0150  151.9070 C   0  0  0  0  0  3  0  0  0  0  0  0
  160.5100  205.8960  153.0070 C   0  0  0  0  0  3  0  0  0  0  0  0
  161.2490  204.1240  151.0560 S   0  0  0  0  0  0  0  0  0  0  0  0
  161.9710  203.1770  151.9760 O   0  0  0  0  0  0  0  0  0  0  0  0
  159.8420  203.6400  150.8340 O   0  0  0  0  0  0  0  0  0  0  0  0
  162.0960  204.2060  149.5470 N   0  0  0  0  0  2  0  0  0  0  0  0
  160.8080  205.1880  146.1990 C   0  0  2  0  0  3  0  0  0  0  0  0
  161.2570  205.4690  147.6200 C   0  0  0  0  0  2  0  0  0  0  0  0
  161.4800  204.1880  144.3110 O   0  0  0  0  0  0  0  0  0  0  0  0
  161.0970  201.7830  148.2690 O   0  0  0  0  0  0  0  0  0  0  0  0
  161.7140  204.1580  145.6730 C   0  0  2  0  0  3  0  0  0  0  0  0
  160.9600  206.2360  145.3090 O   0  0  0  0  0  0  0  0  0  0  0  0
  161.2080  205.5600  144.0870 C   0  0  0  0  0  2  0  0  0  0  0  0
  161.1110  204.1850  148.4750 C   0  0  1  0  0  3  0  0  0  0  0  0
  161.2350  202.8900  147.6820 C   0  0  0  0  0  0  0  0  0  0  0  0
  161.4040  202.9200  146.2900 O   0  0  0  0  0  0  0  0  0  0  0  0
  161.0710  211.1200  152.2940 C   0  0  0  0  0  2  0  0  0  0  0  0
  163.0380  211.8950  148.2790 C   0  0  0  0  0  3  0  0  0  0  0  0
  159.8760  211.8410  151.7530 C   0  0  0  0  0  0  0  0  0  0  0  0
  161.3260  214.4520  146.5510 O   0  0  0  0  0  0  0  0  0  0  0  0
  161.5860  210.2840  149.2520 O   0  0  0  0  0  1  0  0  0  0  0  0
  160.9610  212.5570  149.5330 C   0  0  0  0  0  0  0  0  0  0  0  0
  160.6960  213.4400  148.6030 C   0  0  0  0  0  0  0  0  0  0  0  0
  158.9770  213.6120  150.1290 C   0  0  0  0  0  3  0  0  0  0  0  0
  162.7720  212.8090  147.3860 N   0  0  0  0  0  0  0  0  0  0  0  0
  159.5030  214.1620  148.8750 N   0  0  0  0  0  0  0  0  0  0  0  0
  161.5810  213.6110  147.4520 C   0  0  0  0  0  0  0  0  0  0  0  0
  162.0990  211.5720  149.4300 C   0  0  2  0  0  3  0  0  0  0  0  0
  159.9460  212.5930  150.5320 N   0  0  0  0  0  0  0  0  0  0  0  0
  158.7950  211.8060  152.4050 O   0  0  0  0  0  0  0  0  0  0  0  0
  1  4  1  0  0  0  0
  1  6  1  0  0  0  0
  2 12  1  6  0  0  0
  2  7  1  0  0  0  0
  3 29  1  6  0  0  0
  3  2  1  0  0  0  0
  3  5  1  0  0  0  0
  5  1  2  0  0  0  0
  7  4  1  0  0  0  0
 10 14  1  0  0  0  0
 11  8  1  6  0  0  0
 11 10  1  0  0  0  0
 11 13  1  0  0  0  0
 12  9  1  0  0  0  0
 13 12  2  0  0  0  0
 14  9  2  0  0  0  0
 15 10  1  0  0  0  0
 15 16  2  0  0  0  0
 17 15  2  0  0  0  0
 18 15  1  0  0  0  0
 19 20  1  1  0  0  0
 20 26  1  0  0  0  0
 23 21  1  6  0  0  0
 23 19  1  0  0  0  0
 23 28  1  0  0  0  0
 24 19  1  0  0  0  0
 25 21  1  0  0  0  0
 25 24  1  0  0  0  0
 26 18  1  1  0  0  0
 27 22  2  0  0  0  0
 27 26  1  0  0  0  0
 28 27  1  0  0  0  0
 30 40  1  0  0  0  0
 31 29  1  0  0  0  0
 31 42  2  0  0  0  0
 32 39  2  0  0  0  0
 34 41  1  0  0  0  0
 35 38  1  0  0  0  0
 35 34  2  0  0  0  0
 36 41  1  0  0  0  0
 37 39  1  0  0  0  0
 37 30  2  0  0  0  0
 38 36  2  0  0  0  0
 39 35  1  0  0  0  0
 40 33  1  6  0  0  0
 40 34  1  0  0  0  0
 41 31  1  0  0  0  0
M  END
>  <MODEL>
4

>  <REMARK>
 VINA RESULT:      -7.2      1.663      2.632
  Name = 
  6 active torsions:
  status: ('A' for Active; 'I' for Inactive)
    1  A    between atoms: C_7  and  C_24
    2  A    between atoms: C_10  and  C_31
    3  A    between atoms: N_11  and  S_13
    4  A    between atoms: S_13  and  N_25
    5  A    between atoms: C_18  and  C_31
    6  A    between atoms: N_25  and  C_32
                            x       y       z     vdW  Elec       q    Type
                         _______ _______ _______ _____ _____    ______ ____

>  <TORSDO>
F 6

$$$$
=
 OpenBabel11072410573D

 42 47  0  0  1  0  0  0  0  0999 V2000
  160.2230  209.1430  155.9780 C   0  0  0  0  0  0  0  0  0  0  0  0
  161.4140  208.1250  153.5620 C   0  0  1  0  0  3  0  0  0  0  0  0
  160.4340  209.3160  153.4840 C   0  0  1  0  0  3  0  0  0  0  0  0
  160.9580  207.8260  156.0000 C   0  0  0  0  0  2  0  0  0  0  0  0
  160.0580  209.8470  154.8460 C   0  0  0  0  0  3  0  0  0  0  0  0
  159.8580  209.7070  157.1580 F   0  0  0  0  0  0  0  0  0  0  0  0
  160.9610  207.1420  154.6380 C   0  0  0  0  0  2  0  0  0  0  0  0
  161.5400  204.0840  150.9360 Cl  0  0  0  0  0  0  0  0  0  0  0  0
  162.6050  207.8410  151.3170 C   0  0  0  0  0  3  0  0  0  0  0  0
  161.6530  206.4140  149.6390 N   0  0  0  0  0  0  0  0  0  0  0  0
  160.8210  205.6850  150.6080 C   0  0  2  0  0  3  0  0  0  0  0  0
  161.5450  207.4140  152.2470 C   0  0  0  0  0  0  0  0  0  0  0  0
  160.6870  206.4390  151.9020 C   0  0  0  0  0  3  0  0  0  0  0  0
  162.6390  207.3650  150.0740 C   0  0  0  0  0  3  0  0  0  0  0  0
  161.5680  205.9880  147.9650 S   0  0  0  0  0  0  0  0  0  0  0  0
  160.8810  207.0860  147.2000 O   0  0  0  0  0  0  0  0  0  0  0  0
  162.9600  205.7920  147.4300 O   0  0  0  0  0  0  0  0  0  0  0  0
  160.6560  204.5240  147.8020 N   0  0  0  0  0  2  0  0  0  0  0  0
  161.4860  201.1710  146.4230 C   0  0  2  0  0  3  0  0  0  0  0  0
  161.3740  202.1950  147.5360 C   0  0  0  0  0  2  0  0  0  0  0  0
  160.2840  200.2080  144.7970 O   0  0  0  0  0  0  0  0  0  0  0  0
  160.8710  204.8160  144.9080 O   0  0  0  0  0  0  0  0  0  0  0  0
  160.3020  201.3520  145.5710 C   0  0  2  0  0  3  0  0  0  0  0  0
  161.3980  199.8480  146.8200 O   0  0  0  0  0  0  0  0  0  0  0  0
  160.7930  199.2360  145.6930 C   0  0  0  0  0  2  0  0  0  0  0  0
  161.4000  203.6220  146.9350 C   0  0  1  0  0  3  0  0  0  0  0  0
  160.8640  203.7090  145.5120 C   0  0  0  0  0  0  0  0  0  0  0  0
  160.4520  202.5530  144.8320 O   0  0  0  0  0  0  0  0  0  0  0  0
  161.0050  210.4670  152.6550 C   0  0  0  0  0  2  0  0  0  0  0  0
  162.9090  211.4280  148.6500 C   0  0  0  0  0  3  0  0  0  0  0  0
  159.9380  211.4510  152.2880 C   0  0  0  0  0  0  0  0  0  0  0  0
  161.6150  214.4530  147.3740 O   0  0  0  0  0  0  0  0  0  0  0  0
  161.2320  209.9760  149.5060 O   0  0  0  0  0  1  0  0  0  0  0  0
  161.0390  212.2630  150.1100 C   0  0  0  0  0  0  0  0  0  0  0  0
  160.8990  213.2960  149.3190 C   0  0  0  0  0  0  0  0  0  0  0  0
  159.3060  213.5550  150.9640 C   0  0  0  0  0  3  0  0  0  0  0  0
  162.7740  212.4860  147.8990 N   0  0  0  0  0  0  0  0  0  0  0  0
  159.8680  214.1710  149.7570 N   0  0  0  0  0  0  0  0  0  0  0  0
  161.7520  213.4660  148.1430 C   0  0  0  0  0  0  0  0  0  0  0  0
  161.9760  211.1190  149.8100 C   0  0  2  0  0  3  0  0  0  0  0  0
  160.0910  212.3380  151.1710 N   0  0  0  0  0  0  0  0  0  0  0  0
  158.8970  211.5150  153.0010 O   0  0  0  0  0  0  0  0  0  0  0  0
  1  4  1  0  0  0  0
  1  6  1  0  0  0  0
  2 12  1  6  0  0  0
  2  7  1  0  0  0  0
  3 29  1  6  0  0  0
  3  2  1  0  0  0  0
  3  5  1  0  0  0  0
  5  1  2  0  0  0  0
  7  4  1  0  0  0  0
  9 12  1  0  0  0  0
 10 14  1  0  0  0  0
 10 11  1  0  0  0  0
 11  8  1  1  0  0  0
 11 13  1  0  0  0  0
 13 12  2  0  0  0  0
 14  9  2  0  0  0  0
 15 10  1  0  0  0  0
 16 15  2  0  0  0  0
 17 15  2  0  0  0  0
 18 15  1  0  0  0  0
 19 24  1  0  0  0  0
 19 20  1  1  0  0  0
 21 25  1  0  0  0  0
 22 27  2  0  0  0  0
 23 21  1  6  0  0  0
 23 19  1  0  0  0  0
 25 24  1  0  0  0  0
 26 20  1  0  0  0  0
 26 18  1  1  0  0  0
 27 26  1  0  0  0  0
 28 27  1  0  0  0  0
 28 23  1  0  0  0  0
 30 40  1  0  0  0  0
 31 29  1  0  0  0  0
 31 42  2  0  0  0  0
 32 39  2  0  0  0  0
 34 41  1  0  0  0  0
 35 38  1  0  0  0  0
 35 34  2  0  0  0  0
 36 41  1  0  0  0  0
 37 39  1  0  0  0  0
 37 30  2  0  0  0  0
 38 36  2  0  0  0  0
 39 35  1  0  0  0  0
 40 33  1  6  0  0  0
 40 34  1  0  0  0  0
 41 31  1  0  0  0  0
M  END
>  <MODEL>
5

>  <REMARK>
 VINA RESULT:      -7.2      1.797      2.395
  Name = 
  6 active torsions:
  status: ('A' for Active; 'I' for Inactive)
    1  A    between atoms: C_7  and  C_24
    2  A    between atoms: C_10  and  C_31
    3  A    between atoms: N_11  and  S_13
    4  A    between atoms: S_13  and  N_25
    5  A    between atoms: C_18  and  C_31
    6  A    between atoms: N_25  and  C_32
                            x       y       z     vdW  Elec       q    Type
                         _______ _______ _______ _____ _____    ______ ____

>  <TORSDO>
F 6

$$$$
=
 OpenBabel11072410573D

 42 47  0  0  1  0  0  0  0  0999 V2000
  160.8670  208.9710  154.9000 C   0  0  0  0  0  0  0  0  0  0  0  0
  160.5210  210.3510  152.3970 C   0  0  1  0  0  3  0  0  0  0  0  0
  161.2980  209.0170  152.4280 C   0  0  1  0  0  3  0  0  0  0  0  0
  160.3570  210.3900  154.8890 C   0  0  0  0  0  2  0  0  0  0  0  0
  161.2180  208.3330  153.7720 C   0  0  0  0  0  3  0  0  0  0  0  0
  160.8200  208.2690  156.0610 F   0  0  0  0  0  0  0  0  0  0  0  0
  160.8150  211.1610  153.6570 C   0  0  0  0  0  2  0  0  0  0  0  0
  163.6090  211.8170  148.9970 Cl  0  0  0  0  0  0  0  0  0  0  0  0
  160.4040  212.5710  151.1310 C   0  0  0  0  0  3  0  0  0  0  0  0
  161.0830  212.6650  148.8320 N   0  0  0  0  0  0  0  0  0  0  0  0
  161.8690  211.4240  148.9230 C   0  0  2  0  0  3  0  0  0  0  0  0
  160.8480  211.1670  151.1800 C   0  0  0  0  0  0  0  0  0  0  0  0
  161.4930  210.6190  150.1360 C   0  0  0  0  0  3  0  0  0  0  0  0
  160.5120  213.2700  150.0030 C   0  0  0  0  0  3  0  0  0  0  0  0
  161.0000  213.5010  147.3210 S   0  0  0  0  0  0  0  0  0  0  0  0
  159.7080  214.2670  147.2390 O   0  0  0  0  0  0  0  0  0  0  0  0
  162.1600  214.4530  147.2140 O   0  0  0  0  0  0  0  0  0  0  0  0
  161.0580  212.3440  146.0320 N   0  0  0  0  0  2  0  0  0  0  0  0
  161.7740  213.0840  142.4580 C   0  0  2  0  0  3  0  0  0  0  0  0
  162.1280  213.0170  143.9320 C   0  0  0  0  0  2  0  0  0  0  0  0
  160.9770  211.8250  140.7860 O   0  0  0  0  0  0  0  0  0  0  0  0
  158.4920  212.4900  144.6560 O   0  0  0  0  0  0  0  0  0  0  0  0
  160.9810  211.8820  142.1670 C   0  0  2  0  0  3  0  0  0  0  0  0
  162.8430  212.9840  141.5850 O   0  0  0  0  0  0  0  0  0  0  0  0
  162.2560  212.3410  140.4650 C   0  0  0  0  0  2  0  0  0  0  0  0
  160.8320  213.0510  144.7800 C   0  0  1  0  0  3  0  0  0  0  0  0
  159.6100  212.4800  144.0740 C   0  0  0  0  0  0  0  0  0  0  0  0
  159.6960  212.0320  142.7470 O   0  0  0  0  0  0  0  0  0  0  0  0
  160.8010  208.0450  151.3580 C   0  0  0  0  0  2  0  0  0  0  0  0
  161.3700  206.8640  147.0140 C   0  0  0  0  0  3  0  0  0  0  0  0
  161.1600  206.6330  151.7010 C   0  0  0  0  0  0  0  0  0  0  0  0
  161.3070  203.3500  146.6830 O   0  0  0  0  0  0  0  0  0  0  0  0
  162.7080  207.6120  148.8300 O   0  0  0  0  0  1  0  0  0  0  0  0
  161.2750  205.7750  149.2790 C   0  0  0  0  0  0  0  0  0  0  0  0
  161.2650  204.6000  148.7000 C   0  0  0  0  0  0  0  0  0  0  0  0
  161.1970  204.1760  150.9640 C   0  0  0  0  0  3  0  0  0  0  0  0
  161.3210  205.6820  146.4610 N   0  0  0  0  0  0  0  0  0  0  0  0
  161.2020  203.5390  149.6430 N   0  0  0  0  0  0  0  0  0  0  0  0
  161.3070  204.4770  147.2440 C   0  0  0  0  0  0  0  0  0  0  0  0
  161.4610  207.0640  148.5180 C   0  0  2  0  0  3  0  0  0  0  0  0
  161.2290  205.6130  150.6930 N   0  0  0  0  0  0  0  0  0  0  0  0
  161.3770  206.3350  152.9090 O   0  0  0  0  0  0  0  0  0  0  0  0
  1  6  1  0  0  0  0
  2 12  1  6  0  0  0
  2  3  1  0  0  0  0
  2  7  1  0  0  0  0
  3 29  1  6  0  0  0
  3  5  1  0  0  0  0
  4  1  1  0  0  0  0
  5  1  2  0  0  0  0
  7  4  1  0  0  0  0
  9 12  1  0  0  0  0
 10 11  1  0  0  0  0
 10 14  1  0  0  0  0
 11  8  1  1  0  0  0
 11 13  1  0  0  0  0
 13 12  2  0  0  0  0
 14  9  2  0  0  0  0
 15 10  1  0  0  0  0
 16 15  2  0  0  0  0
 17 15  2  0  0  0  0
 18 15  1  0  0  0  0
 19 20  1  1  0  0  0
 20 26  1  0  0  0  0
 23 21  1  6  0  0  0
 23 19  1  0  0  0  0
 23 28  1  0  0  0  0
 24 19  1  0  0  0  0
 25 21  1  0  0  0  0
 25 24  1  0  0  0  0
 26 18  1  1  0  0  0
 27 22  2  0  0  0  0
 27 26  1  0  0  0  0
 28 27  1  0  0  0  0
 29 31  1  0  0  0  0
 30 40  1  0  0  0  0
 31 42  2  0  0  0  0
 32 39  2  0  0  0  0
 34 41  1  0  0  0  0
 35 34  2  0  0  0  0
 35 38  1  0  0  0  0
 37 30  2  0  0  0  0
 37 39  1  0  0  0  0
 38 36  2  0  0  0  0
 39 35  1  0  0  0  0
 40 33  1  6  0  0  0
 40 34  1  0  0  0  0
 41 36  1  0  0  0  0
 41 31  1  0  0  0  0
M  END
>  <MODEL>
6

>  <REMARK>
 VINA RESULT:      -7.1      3.078      8.249
  Name = 
  6 active torsions:
  status: ('A' for Active; 'I' for Inactive)
    1  A    between atoms: C_7  and  C_24
    2  A    between atoms: C_10  and  C_31
    3  A    between atoms: N_11  and  S_13
    4  A    between atoms: S_13  and  N_25
    5  A    between atoms: C_18  and  C_31
    6  A    between atoms: N_25  and  C_32
                            x       y       z     vdW  Elec       q    Type
                         _______ _______ _______ _____ _____    ______ ____

>  <TORSDO>
F 6

$$$$
=
 OpenBabel11072410573D

 42 47  0  0  1  0  0  0  0  0999 V2000
  160.0890  212.1950  155.8760 C   0  0  0  0  0  0  0  0  0  0  0  0
  161.0310  210.7690  153.5590 C   0  0  1  0  0  3  0  0  0  0  0  0
  159.5350  211.1350  153.6700 C   0  0  1  0  0  3  0  0  0  0  0  0
  161.4730  211.5950  155.8750 C   0  0  0  0  0  2  0  0  0  0  0  0
  159.2480  212.0440  154.8410 C   0  0  0  0  0  3  0  0  0  0  0  0
  159.7440  213.0390  156.8820 F   0  0  0  0  0  0  0  0  0  0  0  0
  161.5860  210.4030  154.9320 C   0  0  0  0  0  2  0  0  0  0  0  0
  162.2670  206.2040  152.6220 Cl  0  0  0  0  0  0  0  0  0  0  0  0
  162.0200  209.9120  151.3610 C   0  0  0  0  0  3  0  0  0  0  0  0
  161.4510  207.7170  150.5790 N   0  0  0  0  0  0  0  0  0  0  0  0
  161.0170  207.2600  151.9080 C   0  0  2  0  0  3  0  0  0  0  0  0
  161.2660  209.6400  152.5980 C   0  0  0  0  0  0  0  0  0  0  0  0
  160.7620  208.4180  152.8340 C   0  0  0  0  0  3  0  0  0  0  0  0
  162.0920  208.9910  150.4030 C   0  0  0  0  0  3  0  0  0  0  0  0
  161.3520  206.6270  149.2400 S   0  0  0  0  0  0  0  0  0  0  0  0
  159.9300  206.5540  148.7540 O   0  0  0  0  0  0  0  0  0  0  0  0
  162.2420  207.1180  148.1310 O   0  0  0  0  0  0  0  0  0  0  0  0
  161.8580  205.0520  149.7560 N   0  0  0  0  0  2  0  0  0  0  0  0
  160.7090  202.2360  147.6150 C   0  0  2  0  0  3  0  0  0  0  0  0
  161.2190  203.6450  147.8530 C   0  0  0  0  0  2  0  0  0  0  0  0
  161.1780  200.0970  148.0870 O   0  0  0  0  0  0  0  0  0  0  0  0
  160.4480  203.1780  151.4880 O   0  0  0  0  0  0  0  0  0  0  0  0
  161.4220  201.3710  148.5650 C   0  0  2  0  0  3  0  0  0  0  0  0
  161.0240  201.6900  146.3830 O   0  0  0  0  0  0  0  0  0  0  0  0
  161.1380  200.3090  146.6870 C   0  0  0  0  0  2  0  0  0  0  0  0
  160.8700  204.0870  149.2960 C   0  0  1  0  0  3  0  0  0  0  0  0
  160.7630  202.9390  150.2910 C   0  0  0  0  0  0  0  0  0  0  0  0
  160.9160  201.6110  149.8680 O   0  0  0  0  0  0  0  0  0  0  0  0
  159.0170  211.8040  152.3970 C   0  0  0  0  0  2  0  0  0  0  0  0
  156.2540  213.2470  149.0990 C   0  0  0  0  0  3  0  0  0  0  0  0
  160.0960  212.5910  151.7210 C   0  0  0  0  0  0  0  0  0  0  0  0
  158.1350  214.4530  146.3670 O   0  0  0  0  0  0  0  0  0  0  0  0
  157.0490  214.0210  151.2020 O   0  0  0  0  0  1  0  0  0  0  0  0
  158.7030  213.2770  149.6710 C   0  0  0  0  0  0  0  0  0  0  0  0
  158.9640  213.7440  148.4760 C   0  0  0  0  0  0  0  0  0  0  0  0
  161.0050  213.5670  149.5300 C   0  0  0  0  0  3  0  0  0  0  0  0
  156.5440  213.6770  147.9020 N   0  0  0  0  0  0  0  0  0  0  0  0
  160.3550  213.9470  148.2720 N   0  0  0  0  0  0  0  0  0  0  0  0
  157.8910  213.9940  147.5140 C   0  0  0  0  0  0  0  0  0  0  0  0
  157.3000  213.0890  150.1910 C   0  0  2  0  0  3  0  0  0  0  0  0
  159.9160  213.1270  150.4020 N   0  0  0  0  0  0  0  0  0  0  0  0
  161.1960  212.7570  152.3200 O   0  0  0  0  0  0  0  0  0  0  0  0
  1  6  1  0  0  0  0
  2 12  1  6  0  0  0
  2  3  1  0  0  0  0
  2  7  1  0  0  0  0
  3 29  1  6  0  0  0
  3  5  1  0  0  0  0
  4  1  1  0  0  0  0
  5  1  2  0  0  0  0
  7  4  1  0  0  0  0
  9 12  1  0  0  0  0
 10 11  1  0  0  0  0
 11  8  1  1  0  0  0
 11 13  1  0  0  0  0
 12 13  2  0  0  0  0
 14 10  1  0  0  0  0
 14  9  2  0  0  0  0
 15 18  1  0  0  0  0
 15 10  1  0  0  0  0
 16 15  2  0  0  0  0
 17 15  2  0  0  0  0
 19 20  1  6  0  0  0
 19 23  1  0  0  0  0
 20 26  1  0  0  0  0
 23 21  1  6  0  0  0
 23 28  1  0  0  0  0
 24 25  1  0  0  0  0
 24 19  1  0  0  0  0
 25 21  1  0  0  0  0
 26 18  1  1  0  0  0
 26 27  1  0  0  0  0
 27 22  2  0  0  0  0
 28 27  1  0  0  0  0
 30 40  1  0  0  0  0
 31 42  2  0  0  0  0
 31 29  1  0  0  0  0
 32 39  2  0  0  0  0
 34 40  1  0  0  0  0
 34 41  1  0  0  0  0
 35 34  2  0  0  0  0
 36 41  1  0  0  0  0
 37 30  2  0  0  0  0
 38 35  1  0  0  0  0
 38 36  2  0  0  0  0
 39 37  1  0  0  0  0
 39 35  1  0  0  0  0
 40 33  1  1  0  0  0
 41 31  1  0  0  0  0
M  END
>  <MODEL>
7

>  <REMARK>
 VINA RESULT:      -6.0      1.417      2.254
  Name = 
  6 active torsions:
  status: ('A' for Active; 'I' for Inactive)
    1  A    between atoms: C_7  and  C_24
    2  A    between atoms: C_10  and  C_31
    3  A    between atoms: N_11  and  S_13
    4  A    between atoms: S_13  and  N_25
    5  A    between atoms: C_18  and  C_31
    6  A    between atoms: N_25  and  C_32
                            x       y       z     vdW  Elec       q    Type
                         _______ _______ _______ _____ _____    ______ ____

>  <TORSDO>
F 6

$$$$
