=
 OpenBabel11072412173D

 38 44  0  0  1  0  0  0  0  0999 V2000
  159.8580  209.8020  152.7750 C   0  0  2  0  0  3  0  0  0  0  0  0
  160.8560  207.6580  155.1790 C   0  0  2  0  0  3  0  0  0  0  0  0
  159.5170  207.6040  155.7710 O   0  0  0  0  0  0  0  0  0  0  0  0
  161.7700  208.6400  153.0580 N   0  0  0  0  0  0  0  0  0  0  0  0
  161.2170  209.7160  152.8840 C   0  0  0  0  0  0  0  0  0  0  0  0
  161.3240  206.3340  153.0970 C   0  0  2  0  0  3  0  0  0  0  0  0
  160.0370  208.8900  155.4700 C   0  0  2  0  0  3  0  0  0  0  0  0
  161.1100  207.5280  153.7100 C   0  0  1  0  0  3  0  0  0  0  0  0
  159.7260  211.2500  152.1680 C   0  0  0  0  0  2  0  0  0  0  0  0
  161.2190  211.7250  151.7430 C   0  0  1  0  0  3  0  0  0  0  0  0
  159.2040  209.5250  154.2540 C   0  0  0  0  0  2  0  0  0  0  0  0
  161.0440  205.1870  153.8350 O   0  0  0  0  0  1  0  0  0  0  0  0
  162.0160  210.8070  152.4920 N   0  0  0  0  0  2  0  0  0  0  0  0
  161.8910  207.4090  150.9320 C   0  0  0  0  0  2  0  0  0  0  0  0
  161.3350  206.1840  148.6190 C   0  0  1  0  0  3  0  0  0  0  0  0
  160.6270  203.8960  148.8950 O   0  0  0  0  0  0  0  0  0  0  0  0
  161.8690  206.0530  151.6770 C   0  0  1  0  0  0  0  0  0  0  0  0
  161.1120  207.4360  149.5470 C   0  0  0  0  0  2  0  0  0  0  0  0
  163.3390  205.6490  151.7190 C   0  0  0  0  0  1  0  0  0  0  0  0
  160.6920  202.9320  149.9260 C   0  0  0  0  0  2  0  0  0  0  0  0
  160.9880  205.0830  150.8170 C   0  0  1  0  0  3  0  0  0  0  0  0
  161.4780  204.8970  149.4070 C   0  0  2  0  0  3  0  0  0  0  0  0
  160.3560  206.2130  147.4580 C   0  0  0  0  0  1  0  0  0  0  0  0
  160.9240  203.6690  151.2540 C   0  0  0  0  0  2  0  0  0  0  0  0
  161.7840  211.6650  150.3460 C   0  0  0  0  0  2  0  0  0  0  0  0
  160.8860  211.7820  149.0920 C   0  0  2  0  0  3  0  0  0  0  0  0
  162.3060  213.5060  148.2440 C   0  0  0  0  0  2  0  0  0  0  0  0
  162.8800  212.1710  147.6930 C   0  0  0  0  0  2  0  0  0  0  0  0
  161.7760  211.1230  148.0850 C   0  0  0  0  0  2  0  0  0  0  0  0
  160.8970  213.2790  148.7830 C   0  0  1  0  0  0  0  0  0  0  0  0
  158.7720  212.6650  147.2910 C   0  0  0  0  0  2  0  0  0  0  0  0
  160.9300  213.6480  145.2720 C   0  0  0  0  0  2  0  0  0  0  0  0
  160.6050  214.4390  146.5180 C   0  0  0  0  0  2  0  0  0  0  0  0
  158.5050  212.6740  145.7890 C   0  0  0  0  0  2  0  0  0  0  0  0
  159.8890  213.6760  147.6370 C   0  0  0  0  0  3  0  0  0  0  0  0
  159.8320  212.6000  144.9690 C   0  0  0  0  0  2  0  0  0  0  0  0
  159.2560  214.4520  150.1970 C   0  0  0  0  0  1  0  0  0  0  0  0
  160.5550  214.0940  149.9820 O   0  0  0  0  0  0  0  0  0  0  0  0
  1  9  1  1  0  0  0
  1  5  1  0  0  0  0
  1 11  1  0  0  0  0
  2  7  1  0  0  0  0
  2  3  1  6  0  0  0
  4  8  1  0  0  0  0
  5  4  2  0  0  0  0
  6 12  1  1  0  0  0
  7 11  1  6  0  0  0
  7  3  1  0  0  0  0
  8  6  1  1  0  0  0
  8  2  1  0  0  0  0
 10 25  1  6  0  0  0
 10  9  1  0  0  0  0
 10 13  1  0  0  0  0
 13  5  1  0  0  0  0
 14 17  1  0  0  0  0
 15 23  1  6  0  0  0
 15 22  1  0  0  0  0
 15 18  1  0  0  0  0
 16 20  1  0  0  0  0
 17 19  1  1  0  0  0
 17  6  1  0  0  0  0
 18 14  1  0  0  0  0
 20 24  1  0  0  0  0
 21 24  1  1  0  0  0
 21 17  1  0  0  0  0
 22 16  1  6  0  0  0
 22 21  1  0  0  0  0
 26 25  1  1  0  0  0
 27 30  1  0  0  0  0
 28 29  1  0  0  0  0
 28 27  1  0  0  0  0
 29 26  1  0  0  0  0
 30 26  1  0  0  0  0
 30 38  1  1  0  0  0
 31 35  1  0  0  0  0
 32 33  1  0  0  0  0
 33 35  1  0  0  0  0
 34 31  1  0  0  0  0
 35 30  1  0  0  0  0
 36 32  1  0  0  0  0
 36 34  1  0  0  0  0
 38 37  1  0  0  0  0
M  END
>  <MODEL>
1

>  <REMARK>
 VINA RESULT:      -5.7      0.000      0.000
  Name = 
  5 active torsions:
  status: ('A' for Active; 'I' for Inactive)
    1  A    between atoms: C_1  and  C_27
    2  A    between atoms: C_11  and  C_21
    3  A    between atoms: C_27  and  C_30
    4  A    between atoms: C_32  and  C_34
    5  A    between atoms: C_34  and  O_38
                            x       y       z     vdW  Elec       q    Type
                         _______ _______ _______ _____ _____    ______ ____

>  <TORSDO>
F 5

$$$$
=
 OpenBabel11072412173D

 38 44  0  0  1  0  0  0  0  0999 V2000
  160.6840  208.5970  151.6770 C   0  0  2  0  0  3  0  0  0  0  0  0
  162.0210  205.5300  152.0990 C   0  0  2  0  0  3  0  0  0  0  0  0
  160.9250  205.1060  152.9740 O   0  0  0  0  0  0  0  0  0  0  0  0
  162.3990  207.5480  150.6560 N   0  0  0  0  0  0  0  0  0  0  0  0
  161.9860  208.5210  151.2700 C   0  0  0  0  0  0  0  0  0  0  0  0
  161.6490  205.5790  149.6170 C   0  0  2  0  0  3  0  0  0  0  0  0
  161.5170  206.3670  153.2470 C   0  0  2  0  0  3  0  0  0  0  0  0
  161.8060  206.2350  150.7970 C   0  0  1  0  0  3  0  0  0  0  0  0
  160.5940  210.1340  152.0100 C   0  0  0  0  0  2  0  0  0  0  0  0
  161.9460  210.8240  151.4370 C   0  0  1  0  0  3  0  0  0  0  0  0
  160.4650  207.5290  152.9040 C   0  0  0  0  0  2  0  0  0  0  0  0
  161.4340  204.2060  149.6810 O   0  0  0  0  0  1  0  0  0  0  0  0
  162.7840  209.6790  151.2770 N   0  0  0  0  0  2  0  0  0  0  0  0
  160.2600  206.5770  147.8150 C   0  0  0  0  0  2  0  0  0  0  0  0
  160.6660  205.9060  145.2570 C   0  0  1  0  0  3  0  0  0  0  0  0
  162.6670  204.6050  144.9150 O   0  0  0  0  0  0  0  0  0  0  0  0
  161.7010  206.1440  148.1770 C   0  0  1  0  0  0  0  0  0  0  0  0
  159.6760  205.9440  146.4800 C   0  0  0  0  0  2  0  0  0  0  0  0
  162.4870  207.4490  148.1220 C   0  0  0  0  0  1  0  0  0  0  0  0
  163.8400  204.3350  145.6560 C   0  0  0  0  0  2  0  0  0  0  0  0
  162.1460  205.1100  147.0850 C   0  0  1  0  0  3  0  0  0  0  0  0
  162.0980  205.6450  145.6790 C   0  0  2  0  0  3  0  0  0  0  0  0
  160.0800  205.0630  144.1370 C   0  0  0  0  0  1  0  0  0  0  0  0
  163.5520  204.6460  147.1330 C   0  0  0  0  0  2  0  0  0  0  0  0
  162.0560  211.5610  150.1250 C   0  0  0  0  0  2  0  0  0  0  0  0
  160.8510  211.7180  149.1690 C   0  0  2  0  0  3  0  0  0  0  0  0
  161.8050  213.7300  148.3050 C   0  0  0  0  0  2  0  0  0  0  0  0
  162.3500  212.5820  147.4110 C   0  0  0  0  0  2  0  0  0  0  0  0
  161.5070  211.3400  147.8770 C   0  0  0  0  0  2  0  0  0  0  0  0
  160.6210  213.2280  149.1270 C   0  0  1  0  0  0  0  0  0  0  0  0
  158.1650  212.5910  148.3040 C   0  0  0  0  0  2  0  0  0  0  0  0
  159.6020  213.7170  145.7820 C   0  0  0  0  0  2  0  0  0  0  0  0
  159.6440  214.4530  147.1010 C   0  0  0  0  0  2  0  0  0  0  0  0
  157.4640  212.6410  146.9500 C   0  0  0  0  0  2  0  0  0  0  0  0
  159.3100  213.6280  148.3480 C   0  0  0  0  0  3  0  0  0  0  0  0
  158.4890  212.6420  145.7720 C   0  0  0  0  0  2  0  0  0  0  0  0
  159.2980  213.9700  151.0670 C   0  0  0  0  0  1  0  0  0  0  0  0
  160.5260  213.8120  150.4940 O   0  0  0  0  0  0  0  0  0  0  0  0
  1  9  1  1  0  0  0
  1 11  1  0  0  0  0
  2  3  1  6  0  0  0
  2  7  1  0  0  0  0
  3  7  1  0  0  0  0
  4  8  1  0  0  0  0
  4  5  2  0  0  0  0
  5 13  1  0  0  0  0
  5  1  1  0  0  0  0
  6 12  1  6  0  0  0
  7 11  1  6  0  0  0
  8  6  1  6  0  0  0
  8  2  1  0  0  0  0
 10 25  1  6  0  0  0
 10  9  1  0  0  0  0
 13 10  1  0  0  0  0
 14 17  1  0  0  0  0
 15 23  1  6  0  0  0
 15 22  1  0  0  0  0
 15 18  1  0  0  0  0
 16 20  1  0  0  0  0
 17 19  1  6  0  0  0
 17  6  1  0  0  0  0
 18 14  1  0  0  0  0
 20 24  1  0  0  0  0
 21 24  1  1  0  0  0
 21 17  1  0  0  0  0
 22 16  1  6  0  0  0
 22 21  1  0  0  0  0
 26 25  1  1  0  0  0
 27 30  1  0  0  0  0
 28 29  1  0  0  0  0
 28 27  1  0  0  0  0
 29 26  1  0  0  0  0
 30 26  1  0  0  0  0
 30 38  1  1  0  0  0
 31 35  1  0  0  0  0
 32 33  1  0  0  0  0
 33 35  1  0  0  0  0
 34 31  1  0  0  0  0
 35 30  1  0  0  0  0
 36 32  1  0  0  0  0
 36 34  1  0  0  0  0
 38 37  1  0  0  0  0
M  END
>  <MODEL>
2

>  <REMARK>
 VINA RESULT:      -5.0      1.735      2.880
  Name = 
  5 active torsions:
  status: ('A' for Active; 'I' for Inactive)
    1  A    between atoms: C_1  and  C_27
    2  A    between atoms: C_11  and  C_21
    3  A    between atoms: C_27  and  C_30
    4  A    between atoms: C_32  and  C_34
    5  A    between atoms: C_34  and  O_38
                            x       y       z     vdW  Elec       q    Type
                         _______ _______ _______ _____ _____    ______ ____

>  <TORSDO>
F 5

$$$$
=
 OpenBabel11072412173D

 38 44  0  0  1  0  0  0  0  0999 V2000
  162.6620  208.0220  150.8740 C   0  0  2  0  0  3  0  0  0  0  0  0
  160.6950  206.3540  153.0460 C   0  0  2  0  0  3  0  0  0  0  0  0
  161.6750  205.2750  153.1970 O   0  0  0  0  0  0  0  0  0  0  0  0
  160.7600  208.6040  151.9370 N   0  0  0  0  0  0  0  0  0  0  0  0
  161.3740  208.4780  150.8870 C   0  0  0  0  0  0  0  0  0  0  0  0
  161.0680  208.5180  154.2640 C   0  0  2  0  0  3  0  0  0  0  0  0
  161.3680  205.6870  151.8740 C   0  0  2  0  0  3  0  0  0  0  0  0
  161.0570  207.8050  153.1070 C   0  0  1  0  0  3  0  0  0  0  0  0
  163.0810  208.4410  149.4140 C   0  0  0  0  0  2  0  0  0  0  0  0
  161.9090  209.4060  148.8410 C   0  0  1  0  0  3  0  0  0  0  0  0
  162.6460  206.4240  151.2420 C   0  0  0  0  0  2  0  0  0  0  0  0
  160.9820  207.7960  155.4510 O   0  0  0  0  0  1  0  0  0  0  0  0
  160.8440  209.0970  149.7400 N   0  0  0  0  0  2  0  0  0  0  0  0
  161.8450  210.2960  155.8150 C   0  0  0  0  0  2  0  0  0  0  0  0
  160.3560  212.4780  156.2360 C   0  0  1  0  0  3  0  0  0  0  0  0
  158.4870  212.6680  154.7250 O   0  0  0  0  0  0  0  0  0  0  0  0
  161.1380  210.0510  154.4610 C   0  0  1  0  0  0  0  0  0  0  0  0
  161.0440  211.2000  156.8470 C   0  0  0  0  0  2  0  0  0  0  0  0
  162.0780  210.6970  153.4490 C   0  0  0  0  0  1  0  0  0  0  0  0
  158.1190  212.0860  153.4900 C   0  0  0  0  0  2  0  0  0  0  0  0
  159.7440  210.7630  154.5480 C   0  0  1  0  0  3  0  0  0  0  0  0
  159.8260  212.2380  154.8370 C   0  0  2  0  0  3  0  0  0  0  0  0
  159.4280  213.1100  157.2590 C   0  0  0  0  0  1  0  0  0  0  0  0
  158.9250  210.7900  153.3140 C   0  0  0  0  0  2  0  0  0  0  0  0
  161.9600  210.9140  148.8170 C   0  0  0  0  0  2  0  0  0  0  0  0
  161.2630  211.7410  147.7130 C   0  0  2  0  0  3  0  0  0  0  0  0
  161.9810  213.7560  148.7750 C   0  0  0  0  0  2  0  0  0  0  0  0
  163.1050  213.3810  147.7700 C   0  0  0  0  0  2  0  0  0  0  0  0
  162.4660  212.2020  146.9500 C   0  0  0  0  0  2  0  0  0  0  0  0
  160.7200  212.9560  148.4640 C   0  0  1  0  0  0  0  0  0  0  0  0
  158.4890  214.3940  148.1980 C   0  0  0  0  0  2  0  0  0  0  0  0
  158.6100  212.6030  145.6540 C   0  0  0  0  0  2  0  0  0  0  0  0
  159.8120  213.3990  146.1100 C   0  0  0  0  0  2  0  0  0  0  0  0
  157.3810  214.4320  147.1500 C   0  0  0  0  0  2  0  0  0  0  0  0
  159.7980  213.8700  147.5680 C   0  0  0  0  0  3  0  0  0  0  0  0
  157.3140  213.1010  146.3370 C   0  0  0  0  0  2  0  0  0  0  0  0
  160.1340  213.2070  150.8430 C   0  0  0  0  0  1  0  0  0  0  0  0
  159.9280  212.5580  149.6610 O   0  0  0  0  0  0  0  0  0  0  0  0
  1  9  1  6  0  0  0
  1  5  1  0  0  0  0
  1 11  1  0  0  0  0
  2  8  1  0  0  0  0
  2  3  1  1  0  0  0
  4  8  1  0  0  0  0
  5  4  2  0  0  0  0
  6 17  1  0  0  0  0
  6 12  1  6  0  0  0
  7 11  1  1  0  0  0
  7  2  1  0  0  0  0
  7  3  1  0  0  0  0
  8  6  1  1  0  0  0
 10 25  1  1  0  0  0
 10  9  1  0  0  0  0
 10 13  1  0  0  0  0
 13  5  1  0  0  0  0
 14 18  1  0  0  0  0
 15 18  1  0  0  0  0
 15 23  1  1  0  0  0
 17 19  1  6  0  0  0
 17 21  1  0  0  0  0
 17 14  1  0  0  0  0
 20 16  1  0  0  0  0
 21 24  1  6  0  0  0
 21 22  1  0  0  0  0
 22 16  1  1  0  0  0
 22 15  1  0  0  0  0
 24 20  1  0  0  0  0
 26 30  1  0  0  0  0
 26 25  1  1  0  0  0
 28 27  1  0  0  0  0
 29 26  1  0  0  0  0
 29 28  1  0  0  0  0
 30 27  1  0  0  0  0
 30 38  1  1  0  0  0
 32 33  1  0  0  0  0
 32 36  1  0  0  0  0
 33 35  1  0  0  0  0
 34 31  1  0  0  0  0
 35 31  1  0  0  0  0
 35 30  1  0  0  0  0
 36 34  1  0  0  0  0
 38 37  1  0  0  0  0
M  END
>  <MODEL>
3

>  <REMARK>
 VINA RESULT:      -4.4      1.991      5.184
  Name = 
  5 active torsions:
  status: ('A' for Active; 'I' for Inactive)
    1  A    between atoms: C_1  and  C_27
    2  A    between atoms: C_11  and  C_21
    3  A    between atoms: C_27  and  C_30
    4  A    between atoms: C_32  and  C_34
    5  A    between atoms: C_34  and  O_38
                            x       y       z     vdW  Elec       q    Type
                         _______ _______ _______ _____ _____    ______ ____

>  <TORSDO>
F 5

$$$$
=
 OpenBabel11072412173D

 38 44  0  0  1  0  0  0  0  0999 V2000
  162.3100  210.3500  153.7980 C   0  0  2  0  0  3  0  0  0  0  0  0
  161.4060  210.9700  156.9870 C   0  0  2  0  0  3  0  0  0  0  0  0
  162.6480  211.6980  157.2600 O   0  0  0  0  0  0  0  0  0  0  0  0
  160.3590  210.0640  154.8940 N   0  0  0  0  0  0  0  0  0  0  0  0
  161.2550  209.5860  154.2120 C   0  0  0  0  0  0  0  0  0  0  0  0
  159.5750  212.1210  155.7120 C   0  0  2  0  0  3  0  0  0  0  0  0
  162.7670  210.4410  156.6100 C   0  0  2  0  0  3  0  0  0  0  0  0
  160.5720  211.2000  155.7650 C   0  0  1  0  0  3  0  0  0  0  0  0
  162.8950  209.4150  152.6730 C   0  0  0  0  0  2  0  0  0  0  0  0
  161.8090  208.2350  152.4220 C   0  0  1  0  0  3  0  0  0  0  0  0
  163.2540  210.6740  155.0990 C   0  0  0  0  0  2  0  0  0  0  0  0
  159.5090  213.0410  156.7540 O   0  0  0  0  0  1  0  0  0  0  0  0
  161.0260  208.3340  153.6130 N   0  0  0  0  0  2  0  0  0  0  0  0
  158.3800  213.7930  154.3170 C   0  0  0  0  0  2  0  0  0  0  0  0
  155.7400  213.6040  153.9310 C   0  0  1  0  0  3  0  0  0  0  0  0
  154.8030  211.5290  154.7260 O   0  0  0  0  0  0  0  0  0  0  0  0
  158.4590  212.2850  154.6530 C   0  0  1  0  0  0  0  0  0  0  0  0
  156.9450  214.4530  154.4840 C   0  0  0  0  0  2  0  0  0  0  0  0
  158.8570  211.6470  153.3260 C   0  0  0  0  0  1  0  0  0  0  0  0
  155.3100  210.2610  155.0900 C   0  0  0  0  0  2  0  0  0  0  0  0
  157.0290  211.8580  155.1370 C   0  0  1  0  0  3  0  0  0  0  0  0
  155.9400  212.1150  154.1320 C   0  0  2  0  0  3  0  0  0  0  0  0
  154.4220  214.2190  154.3700 C   0  0  0  0  0  1  0  0  0  0  0  0
  156.8090  210.4160  155.3900 C   0  0  0  0  0  2  0  0  0  0  0  0
  160.7960  208.2120  151.3040 C   0  0  0  0  0  2  0  0  0  0  0  0
  160.4210  206.9070  150.5640 C   0  0  2  0  0  3  0  0  0  0  0  0
  162.6520  206.7490  149.7240 C   0  0  0  0  0  2  0  0  0  0  0  0
  162.6480  205.9740  151.0690 C   0  0  0  0  0  2  0  0  0  0  0  0
  161.1220  205.9140  151.4390 C   0  0  0  0  0  2  0  0  0  0  0  0
  161.2180  206.9920  149.2620 C   0  0  1  0  0  0  0  0  0  0  0  0
  161.2300  204.3970  148.6410 C   0  0  0  0  0  2  0  0  0  0  0  0
  162.2970  205.8480  146.1010 C   0  0  0  0  0  2  0  0  0  0  0  0
  161.0390  206.3140  146.7990 C   0  0  0  0  0  2  0  0  0  0  0  0
  161.6700  203.6140  147.4080 C   0  0  0  0  0  2  0  0  0  0  0  0
  160.8550  205.8430  148.2450 C   0  0  0  0  0  3  0  0  0  0  0  0
  162.6940  204.4220  146.5500 C   0  0  0  0  0  2  0  0  0  0  0  0
  161.9940  209.2290  148.5840 C   0  0  0  0  0  1  0  0  0  0  0  0
  161.0030  208.2910  148.5660 O   0  0  0  0  0  0  0  0  0  0  0  0
  1  9  1  6  0  0  0
  1  5  1  0  0  0  0
  1 11  1  0  0  0  0
  2  3  1  6  0  0  0
  4  8  1  0  0  0  0
  5  4  2  0  0  0  0
  6 12  1  1  0  0  0
  7 11  1  6  0  0  0
  7  2  1  0  0  0  0
  7  3  1  0  0  0  0
  8  6  1  1  0  0  0
  8  2  1  0  0  0  0
 10 25  1  6  0  0  0
 10  9  1  0  0  0  0
 10 13  1  0  0  0  0
 13  5  1  0  0  0  0
 14 18  1  0  0  0  0
 14 17  1  0  0  0  0
 15 22  1  0  0  0  0
 15 23  1  1  0  0  0
 15 18  1  0  0  0  0
 16 20  1  0  0  0  0
 17 19  1  6  0  0  0
 17 21  1  0  0  0  0
 17  6  1  0  0  0  0
 20 24  1  0  0  0  0
 21 24  1  6  0  0  0
 22 16  1  1  0  0  0
 22 21  1  0  0  0  0
 26 25  1  1  0  0  0
 26 29  1  0  0  0  0
 27 28  1  0  0  0  0
 28 29  1  0  0  0  0
 30 38  1  6  0  0  0
 30 27  1  0  0  0  0
 30 26  1  0  0  0  0
 32 36  1  0  0  0  0
 32 33  1  0  0  0  0
 33 35  1  0  0  0  0
 34 31  1  0  0  0  0
 35 31  1  0  0  0  0
 35 30  1  0  0  0  0
 36 34  1  0  0  0  0
 38 37  1  0  0  0  0
M  END
>  <MODEL>
4

>  <REMARK>
 VINA RESULT:      -4.3      3.407      7.299
  Name = 
  5 active torsions:
  status: ('A' for Active; 'I' for Inactive)
    1  A    between atoms: C_1  and  C_27
    2  A    between atoms: C_11  and  C_21
    3  A    between atoms: C_27  and  C_30
    4  A    between atoms: C_32  and  C_34
    5  A    between atoms: C_34  and  O_38
                            x       y       z     vdW  Elec       q    Type
                         _______ _______ _______ _____ _____    ______ ____

>  <TORSDO>
F 5

$$$$
=
 OpenBabel11072412173D

 38 44  0  0  1  0  0  0  0  0999 V2000
  161.1210  210.9390  153.5300 C   0  0  2  0  0  3  0  0  0  0  0  0
  158.7650  213.2400  152.8030 C   0  0  2  0  0  3  0  0  0  0  0  0
  159.2440  214.1490  153.8480 O   0  0  0  0  0  0  0  0  0  0  0  0
  159.6590  211.1110  151.8210 N   0  0  0  0  0  0  0  0  0  0  0  0
  160.1200  210.4480  152.7390 C   0  0  0  0  0  0  0  0  0  0  0  0
  160.0230  213.1050  150.6350 C   0  0  2  0  0  3  0  0  0  0  0  0
  159.0600  212.7890  154.2110 C   0  0  2  0  0  3  0  0  0  0  0  0
  159.6740  212.5590  151.8280 C   0  0  1  0  0  3  0  0  0  0  0  0
  161.5990  209.6060  154.2210 C   0  0  0  0  0  2  0  0  0  0  0  0
  160.8770  208.3810  153.4390 C   0  0  1  0  0  3  0  0  0  0  0  0
  160.4920  212.1180  154.4840 C   0  0  0  0  0  2  0  0  0  0  0  0
  159.7180  214.4490  150.4420 O   0  0  0  0  0  1  0  0  0  0  0  0
  159.8220  209.0740  152.7700 N   0  0  0  0  0  2  0  0  0  0  0  0
  162.1910  212.8570  149.4480 C   0  0  0  0  0  2  0  0  0  0  0  0
  162.2820  212.8380  146.7740 C   0  0  1  0  0  3  0  0  0  0  0  0
  160.1060  212.7040  145.7430 O   0  0  0  0  0  0  0  0  0  0  0  0
  160.7030  212.4320  149.4190 C   0  0  1  0  0  0  0  0  0  0  0  0
  162.7300  213.5310  148.1140 C   0  0  0  0  0  2  0  0  0  0  0  0
  160.7650  210.9170  149.5880 C   0  0  0  0  0  1  0  0  0  0  0  0
  158.8050  212.3490  146.1650 C   0  0  0  0  0  2  0  0  0  0  0  0
  160.1370  212.8730  148.0250 C   0  0  1  0  0  3  0  0  0  0  0  0
  160.8720  212.2850  146.8510 C   0  0  2  0  0  3  0  0  0  0  0  0
  162.6490  213.7100  145.5860 C   0  0  0  0  0  1  0  0  0  0  0  0
  158.7550  212.4530  147.6970 C   0  0  0  0  0  2  0  0  0  0  0  0
  161.5180  207.5390  152.3630 C   0  0  0  0  0  2  0  0  0  0  0  0
  160.7560  206.3990  151.6500 C   0  0  2  0  0  3  0  0  0  0  0  0
  162.8040  205.6470  150.6760 C   0  0  0  0  0  2  0  0  0  0  0  0
  162.6660  204.8820  152.0200 C   0  0  0  0  0  2  0  0  0  0  0  0
  161.2060  205.2390  152.4820 C   0  0  0  0  0  2  0  0  0  0  0  0
  161.4670  206.2820  150.3020 C   0  0  1  0  0  0  0  0  0  0  0  0
  161.1850  203.8120  149.3330 C   0  0  0  0  0  2  0  0  0  0  0  0
  161.3660  205.6540  146.8290 C   0  0  0  0  0  2  0  0  0  0  0  0
  160.4370  205.9800  147.9760 C   0  0  0  0  0  2  0  0  0  0  0  0
  161.1530  203.2340  147.9220 C   0  0  0  0  0  2  0  0  0  0  0  0
  160.7420  205.2930  149.3100 C   0  0  0  0  0  3  0  0  0  0  0  0
  161.8470  204.1850  146.8960 C   0  0  0  0  0  2  0  0  0  0  0  0
  162.7880  208.0020  149.1340 C   0  0  0  0  0  1  0  0  0  0  0  0
  161.5770  207.6010  149.6180 O   0  0  0  0  0  0  0  0  0  0  0  0
  1  9  1  1  0  0  0
  1 11  1  0  0  0  0
  2  3  1  1  0  0  0
  2  7  1  0  0  0  0
  3  7  1  0  0  0  0
  4  8  1  0  0  0  0
  4  5  2  0  0  0  0
  5 13  1  0  0  0  0
  5  1  1  0  0  0  0
  6 12  1  6  0  0  0
  7 11  1  6  0  0  0
  8  6  1  6  0  0  0
  8  2  1  0  0  0  0
 10 25  1  6  0  0  0
 10  9  1  0  0  0  0
 13 10  1  0  0  0  0
 15 23  1  6  0  0  0
 15 22  1  0  0  0  0
 15 18  1  0  0  0  0
 16 20  1  0  0  0  0
 17 14  1  0  0  0  0
 17 19  1  1  0  0  0
 17  6  1  0  0  0  0
 18 14  1  0  0  0  0
 20 24  1  0  0  0  0
 21 24  1  1  0  0  0
 21 17  1  0  0  0  0
 22 16  1  6  0  0  0
 22 21  1  0  0  0  0
 26 25  1  1  0  0  0
 26 29  1  0  0  0  0
 27 28  1  0  0  0  0
 28 29  1  0  0  0  0
 30 38  1  6  0  0  0
 30 27  1  0  0  0  0
 30 26  1  0  0  0  0
 32 36  1  0  0  0  0
 32 33  1  0  0  0  0
 33 35  1  0  0  0  0
 34 31  1  0  0  0  0
 35 31  1  0  0  0  0
 35 30  1  0  0  0  0
 36 34  1  0  0  0  0
 37 38  1  0  0  0  0
M  END
>  <MODEL>
5

>  <REMARK>
 VINA RESULT:      -3.7      2.004      7.113
  Name = 
  5 active torsions:
  status: ('A' for Active; 'I' for Inactive)
    1  A    between atoms: C_1  and  C_27
    2  A    between atoms: C_11  and  C_21
    3  A    between atoms: C_27  and  C_30
    4  A    between atoms: C_32  and  C_34
    5  A    between atoms: C_34  and  O_38
                            x       y       z     vdW  Elec       q    Type
                         _______ _______ _______ _____ _____    ______ ____

>  <TORSDO>
F 5

$$$$
=
 OpenBabel11072412173D

 38 44  0  0  1  0  0  0  0  0999 V2000
  161.9230  209.1200  154.5190 C   0  0  2  0  0  3  0  0  0  0  0  0
  160.0550  211.0450  156.5620 C   0  0  2  0  0  3  0  0  0  0  0  0
  161.2380  211.5700  157.2490 O   0  0  0  0  0  0  0  0  0  0  0  0
  159.7290  209.6440  154.5060 N   0  0  0  0  0  0  0  0  0  0  0  0
  160.5980  208.7840  154.5070 C   0  0  0  0  0  0  0  0  0  0  0  0
  159.4470  211.9670  154.3070 C   0  0  2  0  0  3  0  0  0  0  0  0
  161.1710  210.1640  157.0630 C   0  0  2  0  0  3  0  0  0  0  0  0
  159.9420  210.9590  155.0720 C   0  0  1  0  0  3  0  0  0  0  0  0
  162.5560  207.7390  154.1010 C   0  0  0  0  0  2  0  0  0  0  0  0
  161.3360  206.7840  153.6170 C   0  0  1  0  0  3  0  0  0  0  0  0
  162.2890  209.7180  156.0020 C   0  0  0  0  0  2  0  0  0  0  0  0
  159.2800  213.2040  154.9230 O   0  0  0  0  0  1  0  0  0  0  0  0
  160.2180  207.4680  154.1850 N   0  0  0  0  0  2  0  0  0  0  0  0
  160.2900  211.7480  151.9810 C   0  0  0  0  0  2  0  0  0  0  0  0
  159.2550  213.2380  150.0140 C   0  0  1  0  0  3  0  0  0  0  0  0
  157.2730  214.4450  150.6700 O   0  0  0  0  0  0  0  0  0  0  0  0
  159.0060  211.9350  152.8240 C   0  0  1  0  0  0  0  0  0  0  0  0
  160.5270  212.8410  150.8530 C   0  0  0  0  0  2  0  0  0  0  0  0
  158.1940  210.6820  152.5140 C   0  0  0  0  0  1  0  0  0  0  0  0
  156.3420  214.3650  151.7300 C   0  0  0  0  0  2  0  0  0  0  0  0
  158.3240  213.2530  152.3160 C   0  0  1  0  0  3  0  0  0  0  0  0
  157.9900  213.2430  150.8490 C   0  0  2  0  0  3  0  0  0  0  0  0
  159.5550  214.4530  149.1530 C   0  0  0  0  0  1  0  0  0  0  0  0
  156.9930  213.5800  152.8790 C   0  0  0  0  0  2  0  0  0  0  0  0
  160.9420  206.5400  152.1810 C   0  0  0  0  0  2  0  0  0  0  0  0
  161.8850  205.8340  151.1800 C   0  0  2  0  0  3  0  0  0  0  0  0
  160.2820  206.1710  149.4410 C   0  0  0  0  0  2  0  0  0  0  0  0
  161.2070  207.4180  149.4150 C   0  0  0  0  0  2  0  0  0  0  0  0
  162.3620  207.0230  150.4050 C   0  0  0  0  0  2  0  0  0  0  0  0
  160.9290  205.0640  150.2690 C   0  0  1  0  0  0  0  0  0  0  0  0
  161.7250  204.5320  147.7790 C   0  0  0  0  0  2  0  0  0  0  0  0
  160.4280  201.8920  148.8020 C   0  0  0  0  0  2  0  0  0  0  0  0
  161.4470  202.6380  149.6340 C   0  0  0  0  0  2  0  0  0  0  0  0
  161.6120  203.3050  146.8800 C   0  0  0  0  0  2  0  0  0  0  0  0
  161.6770  204.1060  149.2640 C   0  0  0  0  0  3  0  0  0  0  0  0
  160.4470  202.3680  147.3300 C   0  0  0  0  0  2  0  0  0  0  0  0
  160.4240  203.5120  152.1140 C   0  0  0  0  0  1  0  0  0  0  0  0
  159.9690  204.2340  151.0500 O   0  0  0  0  0  0  0  0  0  0  0  0
  1  9  1  1  0  0  0
  1 11  1  0  0  0  0
  2  7  1  0  0  0  0
  2  3  1  6  0  0  0
  4  5  2  0  0  0  0
  4  8  1  0  0  0  0
  5  1  1  0  0  0  0
  6 12  1  1  0  0  0
  7 11  1  6  0  0  0
  7  3  1  0  0  0  0
  8  6  1  1  0  0  0
  8  2  1  0  0  0  0
 10 25  1  6  0  0  0
 10  9  1  0  0  0  0
 10 13  1  0  0  0  0
 13  5  1  0  0  0  0
 14 17  1  0  0  0  0
 15 23  1  1  0  0  0
 15 22  1  0  0  0  0
 15 18  1  0  0  0  0
 16 20  1  0  0  0  0
 17 19  1  6  0  0  0
 17  6  1  0  0  0  0
 18 14  1  0  0  0  0
 20 24  1  0  0  0  0
 21 17  1  0  0  0  0
 21 24  1  1  0  0  0
 22 16  1  6  0  0  0
 22 21  1  0  0  0  0
 26 25  1  1  0  0  0
 27 30  1  0  0  0  0
 28 27  1  0  0  0  0
 28 29  1  0  0  0  0
 29 26  1  0  0  0  0
 30 38  1  1  0  0  0
 30 26  1  0  0  0  0
 31 35  1  0  0  0  0
 32 33  1  0  0  0  0
 34 36  1  0  0  0  0
 34 31  1  0  0  0  0
 35 33  1  0  0  0  0
 35 30  1  0  0  0  0
 36 32  1  0  0  0  0
 38 37  1  0  0  0  0
M  END
>  <MODEL>
6

>  <REMARK>
 VINA RESULT:      -3.4      2.363      7.696
  Name = 
  5 active torsions:
  status: ('A' for Active; 'I' for Inactive)
    1  A    between atoms: C_1  and  C_27
    2  A    between atoms: C_11  and  C_21
    3  A    between atoms: C_27  and  C_30
    4  A    between atoms: C_32  and  C_34
    5  A    between atoms: C_34  and  O_38
                            x       y       z     vdW  Elec       q    Type
                         _______ _______ _______ _____ _____    ______ ____

>  <TORSDO>
F 5

$$$$
=
 OpenBabel11072412173D

 38 44  0  0  1  0  0  0  0  0999 V2000
  160.1920  210.5630  151.5230 C   0  0  2  0  0  3  0  0  0  0  0  0
  161.4040  209.1860  154.3520 C   0  0  2  0  0  3  0  0  0  0  0  0
  160.1290  209.3570  155.0540 O   0  0  0  0  0  0  0  0  0  0  0  0
  162.1130  209.4660  151.9620 N   0  0  0  0  0  0  0  0  0  0  0  0
  161.5550  210.4630  151.5280 C   0  0  0  0  0  0  0  0  0  0  0  0
  161.6540  207.2920  152.7230 C   0  0  2  0  0  3  0  0  0  0  0  0
  160.6280  210.4780  154.3400 C   0  0  2  0  0  3  0  0  0  0  0  0
  161.5120  208.6200  152.9710 C   0  0  1  0  0  3  0  0  0  0  0  0
  160.0130  211.7720  150.5290 C   0  0  0  0  0  2  0  0  0  0  0  0
  161.4600  212.0460  149.8480 C   0  0  1  0  0  3  0  0  0  0  0  0
  159.6850  210.7570  153.0720 C   0  0  0  0  0  2  0  0  0  0  0  0
  161.4390  206.4240  153.7900 O   0  0  0  0  0  1  0  0  0  0  0  0
  162.3190  211.3600  150.7600 N   0  0  0  0  0  2  0  0  0  0  0  0
  162.1680  207.6880  150.3260 C   0  0  0  0  0  2  0  0  0  0  0  0
  161.3060  205.9840  148.4520 C   0  0  1  0  0  3  0  0  0  0  0  0
  160.3760  203.9540  149.3590 O   0  0  0  0  0  0  0  0  0  0  0  0
  162.0560  206.5860  151.4070 C   0  0  1  0  0  0  0  0  0  0  0  0
  161.2920  207.4520  149.0210 C   0  0  0  0  0  2  0  0  0  0  0  0
  163.4720  206.0260  151.4880 C   0  0  0  0  0  1  0  0  0  0  0  0
  160.4140  203.2900  150.6070 C   0  0  0  0  0  2  0  0  0  0  0  0
  161.0100  205.5440  150.8770 C   0  0  1  0  0  3  0  0  0  0  0  0
  161.3680  204.9380  149.5470 C   0  0  2  0  0  3  0  0  0  0  0  0
  160.2500  205.8330  147.3700 C   0  0  0  0  0  1  0  0  0  0  0  0
  160.8270  204.3110  151.6780 C   0  0  0  0  0  2  0  0  0  0  0  0
  161.8850  211.5570  148.4860 C   0  0  0  0  0  2  0  0  0  0  0  0
  162.3930  212.5210  147.3900 C   0  0  2  0  0  3  0  0  0  0  0  0
  160.6680  214.0720  147.9610 C   0  0  0  0  0  2  0  0  0  0  0  0
  161.8900  214.4490  148.8440 C   0  0  0  0  0  2  0  0  0  0  0  0
  163.0420  213.5590  148.2520 C   0  0  0  0  0  2  0  0  0  0  0  0
  161.1110  213.1420  146.8350 C   0  0  1  0  0  0  0  0  0  0  0  0
  160.2250  214.1300  144.5210 C   0  0  0  0  0  2  0  0  0  0  0  0
  163.0770  213.0430  143.9040 C   0  0  0  0  0  2  0  0  0  0  0  0
  162.8190  213.9330  145.0990 C   0  0  0  0  0  2  0  0  0  0  0  0
  160.8080  214.1910  143.1130 C   0  0  0  0  0  2  0  0  0  0  0  0
  161.3630  214.0380  145.5620 C   0  0  0  0  0  3  0  0  0  0  0  0
  161.9040  213.1000  142.8970 C   0  0  0  0  0  2  0  0  0  0  0  0
  158.8200  212.2380  146.8820 C   0  0  0  0  0  1  0  0  0  0  0  0
  160.1110  212.1030  146.4610 O   0  0  0  0  0  0  0  0  0  0  0  0
  1  9  1  6  0  0  0
  1  5  1  0  0  0  0
  1 11  1  0  0  0  0
  2  3  1  1  0  0  0
  4  8  1  0  0  0  0
  5  4  2  0  0  0  0
  6 12  1  1  0  0  0
  7 11  1  6  0  0  0
  7  2  1  0  0  0  0
  7  3  1  0  0  0  0
  8  6  1  1  0  0  0
  8  2  1  0  0  0  0
 10 25  1  6  0  0  0
 10  9  1  0  0  0  0
 10 13  1  0  0  0  0
 13  5  1  0  0  0  0
 14 17  1  0  0  0  0
 15 23  1  1  0  0  0
 15 18  1  0  0  0  0
 15 22  1  0  0  0  0
 16 20  1  0  0  0  0
 17 19  1  1  0  0  0
 17  6  1  0  0  0  0
 18 14  1  0  0  0  0
 20 24  1  0  0  0  0
 21 17  1  0  0  0  0
 21 24  1  1  0  0  0
 22 16  1  6  0  0  0
 22 21  1  0  0  0  0
 26 29  1  0  0  0  0
 26 25  1  1  0  0  0
 27 28  1  0  0  0  0
 29 28  1  0  0  0  0
 30 38  1  6  0  0  0
 30 26  1  0  0  0  0
 30 27  1  0  0  0  0
 31 35  1  0  0  0  0
 32 33  1  0  0  0  0
 33 35  1  0  0  0  0
 34 31  1  0  0  0  0
 35 30  1  0  0  0  0
 36 34  1  0  0  0  0
 36 32  1  0  0  0  0
 38 37  1  0  0  0  0
M  END
>  <MODEL>
7

>  <REMARK>
 VINA RESULT:      -3.1      1.417      2.050
  Name = 
  5 active torsions:
  status: ('A' for Active; 'I' for Inactive)
    1  A    between atoms: C_1  and  C_27
    2  A    between atoms: C_11  and  C_21
    3  A    between atoms: C_27  and  C_30
    4  A    between atoms: C_32  and  C_34
    5  A    between atoms: C_34  and  O_38
                            x       y       z     vdW  Elec       q    Type
                         _______ _______ _______ _____ _____    ______ ____

>  <TORSDO>
F 5

$$$$
