=
 OpenBabel11072413233D

 44 50  0  0  1  0  0  0  0  0999 V2000
  163.1340  207.6170  148.4440 N   0  0  0  0  0  2  0  0  0  0  0  0
  160.3800  204.6250  151.2700 C   0  0  0  0  0  3  0  0  0  0  0  0
  160.7760  205.1630  149.9580 C   0  0  0  0  0  3  0  0  0  0  0  0
  161.2200  211.5340  149.9170 C   0  0  0  0  0  0  0  0  0  0  0  0
  160.2490  210.9400  152.4540 N   0  0  0  0  0  0  0  0  0  0  0  0
  162.0740  206.5980  148.4420 C   0  0  1  0  0  3  0  0  0  0  0  0
  162.7310  206.2780  153.3610 O   0  0  0  0  0  0  0  0  0  0  0  0
  161.4950  210.3080  150.5300 C   0  0  0  0  0  0  0  0  0  0  0  0
  162.0470  206.0370  152.3320 C   0  0  0  0  0  0  0  0  0  0  0  0
  161.9330  208.2330  151.1420 C   0  0  0  0  0  0  0  0  0  0  0  0
  160.9780  205.0320  152.3890 C   0  0  0  0  0  3  0  0  0  0  0  0
  160.4620  212.4280  150.6180 N   0  0  0  0  0  0  0  0  0  0  0  0
  160.9990  210.0400  151.7770 C   0  0  0  0  0  0  0  0  0  0  0  0
  159.9870  212.1460  151.8700 C   0  0  0  0  0  3  0  0  0  0  0  0
  162.3220  206.7840  151.0500 C   0  0  2  0  0  3  0  0  0  0  0  0
  162.6120  208.8730  148.8040 N   0  0  0  0  0  0  0  0  0  0  0  0
  162.1100  209.1510  150.1160 C   0  0  0  0  0  0  0  0  0  0  0  0
  161.6790  206.1460  149.8310 C   0  0  0  0  0  0  0  0  0  0  0  0
  161.2460  208.7780  152.1760 N   0  0  0  0  0  0  0  0  0  0  0  0
  162.9250  212.1800  148.3330 C   0  0  0  0  0  0  0  0  0  0  0  0
  164.1060  212.4740  148.1190 O   0  0  0  0  0  0  0  0  0  0  0  0
  161.6770  211.8710  148.5590 C   0  0  0  0  0  0  0  0  0  0  0  0
  160.7410  211.7690  147.4020 C   0  0  0  0  0  2  0  0  0  0  0  0
  160.1390  213.1240  147.0300 C   0  0  0  0  0  2  0  0  0  0  0  0
  160.5160  213.6010  145.6210 C   0  0  2  0  0  3  0  0  0  0  0  0
  159.4330  213.2870  144.5720 C   0  0  0  0  0  0  0  0  0  0  0  0
  158.6520  212.1980  144.8800 O   0  0  0  0  0  0  0  0  0  0  0  0
  158.1290  213.4330  144.9950 O   0  0  0  0  0  0  0  0  0  0  0  0
  159.6610  213.5290  143.0700 C   0  0  2  0  0  3  0  0  0  0  0  0
  158.7350  214.4400  142.5620 O   0  0  0  0  0  1  0  0  0  0  0  0
  159.9930  211.0160  140.0550 C   0  0  0  0  0  2  0  0  0  0  0  0
  159.7170  212.2510  142.2280 C   0  0  1  0  0  3  0  0  0  0  0  0
  159.0460  212.4720  140.5540 S   0  0  0  0  0  0  0  0  0  0  0  0
  161.1440  211.7450  142.1110 C   0  0  0  0  0  2  0  0  0  0  0  0
  161.3350  211.1020  140.7470 C   0  0  0  0  0  2  0  0  0  0  0  0
  161.9160  213.1430  145.2100 C   0  0  0  0  0  2  0  0  0  0  0  0
  162.8050  214.3240  144.8670 C   0  0  0  0  0  2  0  0  0  0  0  0
  162.9100  214.4430  143.4830 O   0  0  0  0  0  1  0  0  0  0  0  0
  160.8880  206.9280  147.5160 C   0  0  2  0  0  3  0  0  0  0  0  0
  159.6810  206.5750  148.1230 O   0  0  0  0  0  1  0  0  0  0  0  0
  161.0090  206.2560  146.2280 N   0  0  0  0  0  2  0  0  0  0  0  0
  161.4080  204.0910  145.2310 C   0  0  0  0  0  2  0  0  0  0  0  0
  161.5800  204.9440  146.4680 C   0  0  0  0  0  3  0  0  0  0  0  0
  162.7430  204.7310  145.5260 C   0  0  0  0  0  2  0  0  0  0  0  0
  1 16  1  0  0  0  0
  2 11  2  0  0  0  0
  3  2  1  0  0  0  0
  4  8  2  0  0  0  0
  4 12  1  0  0  0  0
  6 39  1  1  0  0  0
  6  1  1  0  0  0  0
  6 18  1  0  0  0  0
  8 13  1  0  0  0  0
  9 11  1  0  0  0  0
  9  7  2  0  0  0  0
 10 19  2  0  0  0  0
 12 14  2  0  0  0  0
 13 19  1  0  0  0  0
 13  5  2  0  0  0  0
 14  5  1  0  0  0  0
 15 18  1  6  0  0  0
 15 10  1  0  0  0  0
 15  9  1  0  0  0  0
 16 17  2  0  0  0  0
 17  8  1  0  0  0  0
 17 10  1  0  0  0  0
 18  3  2  0  0  0  0
 20 22  2  0  0  0  0
 21 20  2  0  0  0  0
 22  4  1  0  0  0  0
 23 22  1  0  0  0  0
 24 23  1  0  0  0  0
 25 36  1  6  0  0  0
 25 24  1  0  0  0  0
 26 27  1  0  0  0  0
 26 28  1  0  0  0  0
 26 25  1  0  0  0  0
 27 28  1  0  0  0  0
 29 30  1  6  0  0  0
 29 26  1  0  0  0  0
 31 33  1  0  0  0  0
 31 35  1  0  0  0  0
 32 29  1  6  0  0  0
 33 32  1  0  0  0  0
 34 32  1  0  0  0  0
 35 34  1  0  0  0  0
 37 36  1  0  0  0  0
 38 37  1  0  0  0  0
 39 40  1  1  0  0  0
 41 43  1  0  0  0  0
 41 39  1  0  0  0  0
 42 44  1  0  0  0  0
 42 43  1  0  0  0  0
 44 43  1  0  0  0  0
M  END
>  <MODEL>
1

>  <REMARK>
 VINA RESULT:      -6.2      0.000      0.000
  Name = 
  12 active torsions:
  status: ('A' for Active; 'I' for Inactive)
    1  A    between atoms: C_1  and  C_24
    2  A    between atoms: C_1  and  C_40
    3  A    between atoms: C_3  and  C_8
    4  A    between atoms: C_3  and  C_33
    5  A    between atoms: C_6  and  C_31
    6  A    between atoms: C_7  and  C_24
    7  A    between atoms: C_8  and  C_17
    8  A    between atoms: C_10  and  C_30
    9  A    between atoms: C_17  and  C_31
   10  A    between atoms: C_17  and  C_40
   11  A    between atoms: C_22  and  N_27
   12  A    between atoms: N_27  and  C_30
                            x       y       z     vdW  Elec       q    Type
                         _______ _______ _______ _____ _____    ______ ____

>  <TORSDO>
F 12

$$$$
=
 OpenBabel11072413233D

 44 50  0  0  1  0  0  0  0  0999 V2000
  162.3350  210.5860  153.4590 N   0  0  0  0  0  2  0  0  0  0  0  0
  157.9700  210.7990  155.7870 C   0  0  0  0  0  3  0  0  0  0  0  0
  159.0990  210.0420  155.2220 C   0  0  0  0  0  3  0  0  0  0  0  0
  160.7610  212.0480  149.3900 C   0  0  0  0  0  0  0  0  0  0  0  0
  158.4970  213.5430  150.0000 N   0  0  0  0  0  0  0  0  0  0  0  0
  161.2590  209.7950  154.0750 C   0  0  1  0  0  3  0  0  0  0  0  0
  159.1290  214.1210  155.2900 O   0  0  0  0  0  0  0  0  0  0  0  0
  160.4160  212.3360  150.7140 C   0  0  0  0  0  0  0  0  0  0  0  0
  159.0630  212.8720  155.1490 C   0  0  0  0  0  0  0  0  0  0  0  0
  160.0390  212.4560  152.8860 C   0  0  0  0  0  0  0  0  0  0  0  0
  157.9510  212.1300  155.7580 C   0  0  0  0  0  3  0  0  0  0  0  0
  159.9430  212.5370  148.4110 N   0  0  0  0  0  0  0  0  0  0  0  0
  159.2940  213.0690  150.9850 C   0  0  0  0  0  0  0  0  0  0  0  0
  158.8310  213.2800  148.7040 C   0  0  0  0  0  3  0  0  0  0  0  0
  160.1190  212.1440  154.3540 C   0  0  2  0  0  3  0  0  0  0  0  0
  161.9650  211.0040  152.1670 N   0  0  0  0  0  0  0  0  0  0  0  0
  160.9120  211.9450  151.9350 C   0  0  0  0  0  0  0  0  0  0  0  0
  160.1070  210.6410  154.5710 C   0  0  0  0  0  0  0  0  0  0  0  0
  159.0330  213.1550  152.3040 N   0  0  0  0  0  0  0  0  0  0  0  0
  162.9530  211.7530  148.4210 C   0  0  0  0  0  0  0  0  0  0  0  0
  163.9260  212.2550  147.8480 O   0  0  0  0  0  0  0  0  0  0  0  0
  161.9240  211.2230  149.0250 C   0  0  0  0  0  0  0  0  0  0  0  0
  161.9880  209.7890  149.4280 C   0  0  0  0  0  2  0  0  0  0  0  0
  161.7510  208.8500  148.2450 C   0  0  0  0  0  2  0  0  0  0  0  0
  162.2300  207.4130  148.4920 C   0  0  2  0  0  3  0  0  0  0  0  0
  161.7830  206.4340  147.3920 C   0  0  0  0  0  0  0  0  0  0  0  0
  160.4740  206.5900  147.0000 O   0  0  0  0  0  0  0  0  0  0  0  0
  161.4580  207.0030  146.1790 O   0  0  0  0  0  0  0  0  0  0  0  0
  162.3270  204.9970  147.3120 C   0  0  2  0  0  3  0  0  0  0  0  0
  163.3670  204.9050  146.3870 O   0  0  0  0  0  1  0  0  0  0  0  0
  160.4280  201.7900  146.0370 C   0  0  0  0  0  2  0  0  0  0  0  0
  161.2550  203.9320  147.0630 C   0  0  1  0  0  3  0  0  0  0  0  0
  161.3390  203.2130  145.3970 S   0  0  0  0  0  0  0  0  0  0  0  0
  161.3690  202.8080  148.0780 C   0  0  0  0  0  2  0  0  0  0  0  0
  160.9770  201.4960  147.4160 C   0  0  0  0  0  2  0  0  0  0  0  0
  161.9080  206.9320  149.9080 C   0  0  0  0  0  2  0  0  0  0  0  0
  160.4790  206.4320  150.0090 C   0  0  0  0  0  2  0  0  0  0  0  0
  160.4770  205.0980  150.4120 O   0  0  0  0  0  1  0  0  0  0  0  0
  160.8390  208.5610  153.2540 C   0  0  2  0  0  3  0  0  0  0  0  0
  159.9530  208.9280  152.2380 O   0  0  0  0  0  1  0  0  0  0  0  0
  160.2320  207.5370  154.0940 N   0  0  0  0  0  2  0  0  0  0  0  0
  161.0740  205.3140  153.6610 C   0  0  0  0  0  2  0  0  0  0  0  0
  161.2700  206.5880  154.4520 C   0  0  0  0  0  3  0  0  0  0  0  0
  162.1250  206.3110  153.2360 C   0  0  0  0  0  2  0  0  0  0  0  0
  1  6  1  0  0  0  0
  3  2  1  0  0  0  0
  4  8  2  0  0  0  0
  5 13  2  0  0  0  0
  6 39  1  6  0  0  0
  6 18  1  0  0  0  0
  8 13  1  0  0  0  0
  8 17  1  0  0  0  0
  9  7  2  0  0  0  0
  9 11  1  0  0  0  0
 11  2  2  0  0  0  0
 12 14  2  0  0  0  0
 12  4  1  0  0  0  0
 13 19  1  0  0  0  0
 14  5  1  0  0  0  0
 15 10  1  6  0  0  0
 15 18  1  0  0  0  0
 15  9  1  0  0  0  0
 16  1  1  0  0  0  0
 17 16  2  0  0  0  0
 17 10  1  0  0  0  0
 18  3  2  0  0  0  0
 19 10  2  0  0  0  0
 20 22  2  0  0  0  0
 21 20  2  0  0  0  0
 22  4  1  0  0  0  0
 22 23  1  0  0  0  0
 24 23  1  0  0  0  0
 25 24  1  6  0  0  0
 25 36  1  0  0  0  0
 26 25  1  0  0  0  0
 27 26  1  0  0  0  0
 28 27  1  0  0  0  0
 28 26  1  0  0  0  0
 29 30  1  6  0  0  0
 29 26  1  0  0  0  0
 31 35  1  0  0  0  0
 32 29  1  1  0  0  0
 32 34  1  0  0  0  0
 33 31  1  0  0  0  0
 33 32  1  0  0  0  0
 35 34  1  0  0  0  0
 36 37  1  0  0  0  0
 37 38  1  0  0  0  0
 39 40  1  6  0  0  0
 39 41  1  0  0  0  0
 41 43  1  0  0  0  0
 42 43  1  0  0  0  0
 44 42  1  0  0  0  0
 44 43  1  0  0  0  0
M  END
>  <MODEL>
2

>  <REMARK>
 VINA RESULT:      -4.3      4.150      7.217
  Name = 
  12 active torsions:
  status: ('A' for Active; 'I' for Inactive)
    1  A    between atoms: C_1  and  C_24
    2  A    between atoms: C_1  and  C_40
    3  A    between atoms: C_3  and  C_8
    4  A    between atoms: C_3  and  C_33
    5  A    between atoms: C_6  and  C_31
    6  A    between atoms: C_7  and  C_24
    7  A    between atoms: C_8  and  C_17
    8  A    between atoms: C_10  and  C_30
    9  A    between atoms: C_17  and  C_31
   10  A    between atoms: C_17  and  C_40
   11  A    between atoms: C_22  and  N_27
   12  A    between atoms: N_27  and  C_30
                            x       y       z     vdW  Elec       q    Type
                         _______ _______ _______ _____ _____    ______ ____

>  <TORSDO>
F 12

$$$$
=
 OpenBabel11072413233D

 44 50  0  0  1  0  0  0  0  0999 V2000
  160.3420  213.9500  151.2610 N   0  0  0  0  0  2  0  0  0  0  0  0
  158.3550  214.3040  146.7390 C   0  0  0  0  0  3  0  0  0  0  0  0
  158.2310  214.2190  148.2030 C   0  0  0  0  0  3  0  0  0  0  0  0
  161.9040  209.6530  150.7430 C   0  0  0  0  0  0  0  0  0  0  0  0
  162.2420  209.3450  148.0010 N   0  0  0  0  0  0  0  0  0  0  0  0
  159.0860  214.0430  150.5010 C   0  0  1  0  0  3  0  0  0  0  0  0
  161.8900  214.4530  146.4150 O   0  0  0  0  0  0  0  0  0  0  0  0
  161.7500  210.7320  149.8670 C   0  0  0  0  0  0  0  0  0  0  0  0
  160.7730  214.2490  146.9580 C   0  0  0  0  0  0  0  0  0  0  0  0
  161.2540  212.5640  148.7410 C   0  0  0  0  0  0  0  0  0  0  0  0
  159.5490  214.3220  146.1500 C   0  0  0  0  0  3  0  0  0  0  0  0
  162.2330  208.4460  150.1960 N   0  0  0  0  0  0  0  0  0  0  0  0
  161.9170  210.5510  148.5220 C   0  0  0  0  0  0  0  0  0  0  0  0
  162.4090  208.2890  148.8470 C   0  0  0  0  0  3  0  0  0  0  0  0
  160.6960  213.9240  148.4290 C   0  0  2  0  0  3  0  0  0  0  0  0
  160.8460  212.6370  151.2240 N   0  0  0  0  0  0  0  0  0  0  0  0
  161.3340  212.0320  150.0210 C   0  0  0  0  0  0  0  0  0  0  0  0
  159.2960  214.0600  149.0020 C   0  0  0  0  0  0  0  0  0  0  0  0
  161.6150  211.6510  147.8070 N   0  0  0  0  0  0  0  0  0  0  0  0
  162.6250  210.2380  152.9730 C   0  0  0  0  0  0  0  0  0  0  0  0
  163.5100  210.6880  153.7080 O   0  0  0  0  0  0  0  0  0  0  0  0
  161.6900  209.7620  152.1960 C   0  0  0  0  0  0  0  0  0  0  0  0
  160.3650  209.4220  152.7910 C   0  0  0  0  0  2  0  0  0  0  0  0
  160.1230  207.9120  152.8240 C   0  0  0  0  0  2  0  0  0  0  0  0
  161.2560  207.1210  153.4900 C   0  0  2  0  0  3  0  0  0  0  0  0
  161.8000  205.9890  152.5990 C   0  0  0  0  0  0  0  0  0  0  0  0
  162.8580  206.3610  151.8020 O   0  0  0  0  0  0  0  0  0  0  0  0
  163.0870  205.5780  152.8720 O   0  0  0  0  0  0  0  0  0  0  0  0
  160.8820  204.9050  152.0100 C   0  0  2  0  0  3  0  0  0  0  0  0
  160.5270  203.9650  152.9780 O   0  0  0  0  0  1  0  0  0  0  0  0
  161.2090  202.7560  148.7240 C   0  0  0  0  0  2  0  0  0  0  0  0
  161.4310  204.2330  150.7470 C   0  0  1  0  0  3  0  0  0  0  0  0
  160.7320  202.5810  150.4580 S   0  0  0  0  0  0  0  0  0  0  0  0
  161.1640  205.0900  149.5220 C   0  0  0  0  0  2  0  0  0  0  0  0
  160.9160  204.1860  148.3250 C   0  0  0  0  0  2  0  0  0  0  0  0
  160.8910  206.6650  154.9040 C   0  0  0  0  0  2  0  0  0  0  0  0
  160.5720  207.8470  155.8000 C   0  0  0  0  0  2  0  0  0  0  0  0
  161.3260  207.7670  156.9670 O   0  0  0  0  0  1  0  0  0  0  0  0
  157.9890  213.0750  150.9830 C   0  0  2  0  0  3  0  0  0  0  0  0
  156.8290  213.7780  151.3170 O   0  0  0  0  0  1  0  0  0  0  0  0
  158.4330  212.2830  152.1220 N   0  0  0  0  0  2  0  0  0  0  0  0
  157.8810  211.6560  154.3910 C   0  0  0  0  0  2  0  0  0  0  0  0
  157.5260  212.5500  153.2230 C   0  0  0  0  0  3  0  0  0  0  0  0
  158.3140  213.1020  154.3890 C   0  0  0  0  0  2  0  0  0  0  0  0
  2  3  1  0  0  0  0
  3 18  2  0  0  0  0
  4 22  1  0  0  0  0
  5 13  2  0  0  0  0
  5 14  1  0  0  0  0
  6 39  1  6  0  0  0
  6  1  1  0  0  0  0
  7  9  2  0  0  0  0
  8 17  1  0  0  0  0
  8  4  2  0  0  0  0
 10 17  1  0  0  0  0
 11  2  2  0  0  0  0
 11  9  1  0  0  0  0
 12  4  1  0  0  0  0
 13  8  1  0  0  0  0
 14 12  2  0  0  0  0
 15  9  1  6  0  0  0
 15 10  1  0  0  0  0
 15 18  1  0  0  0  0
 16  1  1  0  0  0  0
 17 16  2  0  0  0  0
 18  6  1  0  0  0  0
 19 13  1  0  0  0  0
 19 10  2  0  0  0  0
 20 21  2  0  0  0  0
 22 23  1  0  0  0  0
 22 20  2  0  0  0  0
 23 24  1  0  0  0  0
 25 24  1  6  0  0  0
 25 36  1  0  0  0  0
 26 28  1  0  0  0  0
 26 25  1  0  0  0  0
 27 26  1  0  0  0  0
 27 28  1  0  0  0  0
 29 26  1  0  0  0  0
 29 30  1  1  0  0  0
 31 33  1  0  0  0  0
 32 29  1  1  0  0  0
 33 32  1  0  0  0  0
 34 32  1  0  0  0  0
 35 31  1  0  0  0  0
 35 34  1  0  0  0  0
 36 37  1  0  0  0  0
 37 38  1  0  0  0  0
 39 40  1  1  0  0  0
 39 41  1  0  0  0  0
 41 43  1  0  0  0  0
 43 44  1  0  0  0  0
 43 42  1  0  0  0  0
 44 42  1  0  0  0  0
M  END
>  <MODEL>
3

>  <REMARK>
 VINA RESULT:      -4.2      3.564      9.386
  Name = 
  12 active torsions:
  status: ('A' for Active; 'I' for Inactive)
    1  A    between atoms: C_1  and  C_24
    2  A    between atoms: C_1  and  C_40
    3  A    between atoms: C_3  and  C_8
    4  A    between atoms: C_3  and  C_33
    5  A    between atoms: C_6  and  C_31
    6  A    between atoms: C_7  and  C_24
    7  A    between atoms: C_8  and  C_17
    8  A    between atoms: C_10  and  C_30
    9  A    between atoms: C_17  and  C_31
   10  A    between atoms: C_17  and  C_40
   11  A    between atoms: C_22  and  N_27
   12  A    between atoms: N_27  and  C_30
                            x       y       z     vdW  Elec       q    Type
                         _______ _______ _______ _____ _____    ______ ____

>  <TORSDO>
F 12

$$$$
=
 OpenBabel11072413233D

 44 50  0  0  1  0  0  0  0  0999 V2000
  163.0630  206.8780  150.0130 N   0  0  0  0  0  2  0  0  0  0  0  0
  160.2860  202.7950  149.6370 C   0  0  0  0  0  3  0  0  0  0  0  0
  160.7180  204.1150  149.1480 C   0  0  0  0  0  3  0  0  0  0  0  0
  160.9780  208.5090  153.7760 C   0  0  0  0  0  0  0  0  0  0  0  0
  159.9230  206.2660  155.0330 N   0  0  0  0  0  0  0  0  0  0  0  0
  162.0340  206.1900  149.2180 C   0  0  1  0  0  3  0  0  0  0  0  0
  162.5010  202.3850  152.3850 O   0  0  0  0  0  0  0  0  0  0  0  0
  161.2630  207.2200  153.3180 C   0  0  0  0  0  0  0  0  0  0  0  0
  161.8670  202.9750  151.4720 C   0  0  0  0  0  0  0  0  0  0  0  0
  161.7370  205.3480  152.2490 C   0  0  0  0  0  0  0  0  0  0  0  0
  160.8260  202.2540  150.7270 C   0  0  0  0  0  3  0  0  0  0  0  0
  160.1670  208.6190  154.8690 N   0  0  0  0  0  0  0  0  0  0  0  0
  160.7260  206.1340  153.9520 C   0  0  0  0  0  0  0  0  0  0  0  0
  159.6500  207.5190  155.4980 C   0  0  0  0  0  3  0  0  0  0  0  0
  162.1720  204.4180  151.1510 C   0  0  2  0  0  3  0  0  0  0  0  0
  162.4900  207.4820  151.1470 N   0  0  0  0  0  0  0  0  0  0  0  0
  161.9280  206.7230  152.2230 C   0  0  0  0  0  0  0  0  0  0  0  0
  161.5970  204.8730  149.8210 C   0  0  0  0  0  0  0  0  0  0  0  0
  160.9930  204.9760  153.3190 N   0  0  0  0  0  0  0  0  0  0  0  0
  162.6400  210.2290  153.4350 C   0  0  0  0  0  0  0  0  0  0  0  0
  163.7380  210.7060  153.7400 O   0  0  0  0  0  0  0  0  0  0  0  0
  161.4790  209.7250  153.1130 C   0  0  0  0  0  0  0  0  0  0  0  0
  160.7120  210.3440  151.9940 C   0  0  0  0  0  2  0  0  0  0  0  0
  160.8440  211.8680  151.9840 C   0  0  0  0  0  2  0  0  0  0  0  0
  159.7620  212.5740  151.1560 C   0  0  2  0  0  3  0  0  0  0  0  0
  160.3180  213.2300  149.8780 C   0  0  0  0  0  0  0  0  0  0  0  0
  159.6920  214.4060  149.5330 O   0  0  0  0  0  0  0  0  0  0  0  0
  160.9340  214.4510  150.0510 O   0  0  0  0  0  0  0  0  0  0  0  0
  160.8460  212.3960  148.6990 C   0  0  2  0  0  3  0  0  0  0  0  0
  162.1510  211.9620  148.9350 O   0  0  0  0  0  1  0  0  0  0  0  0
  161.3910  213.4330  144.9380 C   0  0  0  0  0  2  0  0  0  0  0  0
  160.7180  213.0810  147.3350 C   0  0  1  0  0  3  0  0  0  0  0  0
  162.3120  213.2790  146.4860 S   0  0  0  0  0  0  0  0  0  0  0  0
  159.7820  212.3020  146.4280 C   0  0  0  0  0  2  0  0  0  0  0  0
  160.2640  212.4250  144.9910 C   0  0  0  0  0  2  0  0  0  0  0  0
  158.9050  213.5150  152.0040 C   0  0  0  0  0  2  0  0  0  0  0  0
  157.8100  212.7590  152.7330 C   0  0  0  0  0  2  0  0  0  0  0  0
  158.2950  212.2960  153.9530 O   0  0  0  0  0  1  0  0  0  0  0  0
  160.8780  207.1020  148.7660 C   0  0  2  0  0  3  0  0  0  0  0  0
  159.6520  206.5830  149.1900 O   0  0  0  0  0  1  0  0  0  0  0  0
  160.8660  207.2780  147.3190 N   0  0  0  0  0  2  0  0  0  0  0  0
  160.4500  206.1050  145.2470 C   0  0  0  0  0  2  0  0  0  0  0  0
  160.7820  205.9610  146.7160 C   0  0  0  0  0  3  0  0  0  0  0  0
  161.8700  205.8240  145.6760 C   0  0  0  0  0  2  0  0  0  0  0  0
  1 16  1  0  0  0  0
  2 11  2  0  0  0  0
  3  2  1  0  0  0  0
  3 18  2  0  0  0  0
  4 12  1  0  0  0  0
  5 14  1  0  0  0  0
  6 39  1  1  0  0  0
  6 18  1  0  0  0  0
  6  1  1  0  0  0  0
  8  4  2  0  0  0  0
  8 13  1  0  0  0  0
  9  7  2  0  0  0  0
 10 19  2  0  0  0  0
 11  9  1  0  0  0  0
 12 14  2  0  0  0  0
 13  5  2  0  0  0  0
 15 18  1  6  0  0  0
 15  9  1  0  0  0  0
 15 10  1  0  0  0  0
 16 17  2  0  0  0  0
 17 10  1  0  0  0  0
 17  8  1  0  0  0  0
 19 13  1  0  0  0  0
 20 21  2  0  0  0  0
 22 20  2  0  0  0  0
 22  4  1  0  0  0  0
 23 22  1  0  0  0  0
 24 23  1  0  0  0  0
 25 24  1  1  0  0  0
 25 36  1  0  0  0  0
 26 28  1  0  0  0  0
 26 25  1  0  0  0  0
 27 26  1  0  0  0  0
 27 28  1  0  0  0  0
 29 30  1  1  0  0  0
 29 26  1  0  0  0  0
 31 35  1  0  0  0  0
 31 33  1  0  0  0  0
 32 29  1  1  0  0  0
 33 32  1  0  0  0  0
 34 32  1  0  0  0  0
 35 34  1  0  0  0  0
 36 37  1  0  0  0  0
 37 38  1  0  0  0  0
 39 40  1  6  0  0  0
 41 39  1  0  0  0  0
 42 44  1  0  0  0  0
 42 43  1  0  0  0  0
 43 41  1  0  0  0  0
 44 43  1  0  0  0  0
M  END
>  <MODEL>
4

>  <REMARK>
 VINA RESULT:      -4.1      2.932      4.894
  Name = 
  12 active torsions:
  status: ('A' for Active; 'I' for Inactive)
    1  A    between atoms: C_1  and  C_24
    2  A    between atoms: C_1  and  C_40
    3  A    between atoms: C_3  and  C_8
    4  A    between atoms: C_3  and  C_33
    5  A    between atoms: C_6  and  C_31
    6  A    between atoms: C_7  and  C_24
    7  A    between atoms: C_8  and  C_17
    8  A    between atoms: C_10  and  C_30
    9  A    between atoms: C_17  and  C_31
   10  A    between atoms: C_17  and  C_40
   11  A    between atoms: C_22  and  N_27
   12  A    between atoms: N_27  and  C_30
                            x       y       z     vdW  Elec       q    Type
                         _______ _______ _______ _____ _____    ______ ____

>  <TORSDO>
F 12

$$$$
=
 OpenBabel11072413233D

 44 50  0  0  1  0  0  0  0  0999 V2000
  163.3010  208.0860  150.9950 N   0  0  0  0  0  2  0  0  0  0  0  0
  160.4470  204.3880  149.3510 C   0  0  0  0  0  3  0  0  0  0  0  0
  161.0080  205.7430  149.2250 C   0  0  0  0  0  3  0  0  0  0  0  0
  160.7130  209.0670  154.6710 C   0  0  0  0  0  0  0  0  0  0  0  0
  159.3750  206.7000  155.2500 N   0  0  0  0  0  0  0  0  0  0  0  0
  162.3840  207.6550  149.9300 C   0  0  1  0  0  3  0  0  0  0  0  0
  162.1740  203.2590  152.2440 O   0  0  0  0  0  0  0  0  0  0  0  0
  161.0120  207.8800  153.9950 C   0  0  0  0  0  0  0  0  0  0  0  0
  161.7200  204.0690  151.3950 C   0  0  0  0  0  0  0  0  0  0  0  0
  161.5700  206.2360  152.6330 C   0  0  0  0  0  0  0  0  0  0  0  0
  160.7820  203.5970  150.3680 C   0  0  0  0  0  3  0  0  0  0  0  0
  159.7430  209.0120  155.6310 N   0  0  0  0  0  0  0  0  0  0  0  0
  160.3340  206.7310  154.2960 C   0  0  0  0  0  0  0  0  0  0  0  0
  159.0850  207.8490  155.9270 C   0  0  0  0  0  3  0  0  0  0  0  0
  162.1340  205.5200  151.4380 C   0  0  2  0  0  3  0  0  0  0  0  0
  162.5810  208.4870  152.1360 N   0  0  0  0  0  0  0  0  0  0  0  0
  161.8220  207.5690  152.9300 C   0  0  0  0  0  0  0  0  0  0  0  0
  161.8000  206.2790  150.1660 C   0  0  0  0  0  0  0  0  0  0  0  0
  160.6490  205.7100  153.4770 N   0  0  0  0  0  0  0  0  0  0  0  0
  162.4640  210.7020  154.9760 C   0  0  0  0  0  0  0  0  0  0  0  0
  163.5040  211.0350  155.5550 O   0  0  0  0  0  0  0  0  0  0  0  0
  161.3650  210.3510  154.3650 C   0  0  0  0  0  0  0  0  0  0  0  0
  160.8350  211.2260  153.2800 C   0  0  0  0  0  2  0  0  0  0  0  0
  159.4490  210.7820  152.8100 C   0  0  0  0  0  2  0  0  0  0  0  0
  158.3120  211.6870  153.3010 C   0  0  2  0  0  3  0  0  0  0  0  0
  158.5200  213.1660  152.9280 C   0  0  0  0  0  0  0  0  0  0  0  0
  158.9380  213.9560  153.9750 O   0  0  0  0  0  0  0  0  0  0  0  0
  159.8170  213.6280  153.0090 O   0  0  0  0  0  0  0  0  0  0  0  0
  157.6420  213.8730  151.8820 C   0  0  2  0  0  3  0  0  0  0  0  0
  156.3130  213.9370  152.3020 O   0  0  0  0  0  1  0  0  0  0  0  0
  157.3870  213.3770  147.9820 C   0  0  0  0  0  2  0  0  0  0  0  0
  157.7590  213.2960  150.4680 C   0  0  1  0  0  3  0  0  0  0  0  0
  156.3340  213.6970  149.4150 S   0  0  0  0  0  0  0  0  0  0  0  0
  159.0190  213.7980  149.7840 C   0  0  0  0  0  2  0  0  0  0  0  0
  158.7500  213.9550  148.2960 C   0  0  0  0  0  2  0  0  0  0  0  0
  157.9950  211.4680  154.7810 C   0  0  0  0  0  2  0  0  0  0  0  0
  156.5250  211.7090  155.0730 C   0  0  0  0  0  2  0  0  0  0  0  0
  156.2490  211.3710  156.3950 O   0  0  0  0  0  1  0  0  0  0  0  0
  161.3550  208.7250  149.5170 C   0  0  2  0  0  3  0  0  0  0  0  0
  161.0190  208.5850  148.1680 O   0  0  0  0  0  1  0  0  0  0  0  0
  161.8510  210.0720  149.7660 N   0  0  0  0  0  2  0  0  0  0  0  0
  161.9200  212.2870  148.8020 C   0  0  0  0  0  2  0  0  0  0  0  0
  161.7660  210.8100  148.5190 C   0  0  0  0  0  3  0  0  0  0  0  0
  163.0870  211.4980  148.2620 C   0  0  0  0  0  2  0  0  0  0  0  0
  1 16  1  0  0  0  0
  2 11  2  0  0  0  0
  3  2  1  0  0  0  0
  3 18  2  0  0  0  0
  4 12  1  0  0  0  0
  5 14  1  0  0  0  0
  6 39  1  1  0  0  0
  6 18  1  0  0  0  0
  6  1  1  0  0  0  0
  8 13  1  0  0  0  0
  8  4  2  0  0  0  0
  9 15  1  0  0  0  0
  9  7  2  0  0  0  0
 10 17  1  0  0  0  0
 10 19  2  0  0  0  0
 11  9  1  0  0  0  0
 12 14  2  0  0  0  0
 13  5  2  0  0  0  0
 15 18  1  6  0  0  0
 15 10  1  0  0  0  0
 16 17  2  0  0  0  0
 17  8  1  0  0  0  0
 19 13  1  0  0  0  0
 20 21  2  0  0  0  0
 22  4  1  0  0  0  0
 22 20  2  0  0  0  0
 23 22  1  0  0  0  0
 24 23  1  0  0  0  0
 25 24  1  1  0  0  0
 25 36  1  0  0  0  0
 26 28  1  0  0  0  0
 26 25  1  0  0  0  0
 26 27  1  0  0  0  0
 28 27  1  0  0  0  0
 29 30  1  1  0  0  0
 29 26  1  0  0  0  0
 31 35  1  0  0  0  0
 31 33  1  0  0  0  0
 32 29  1  1  0  0  0
 33 32  1  0  0  0  0
 34 32  1  0  0  0  0
 35 34  1  0  0  0  0
 36 37  1  0  0  0  0
 37 38  1  0  0  0  0
 39 40  1  6  0  0  0
 39 41  1  0  0  0  0
 43 42  1  0  0  0  0
 43 41  1  0  0  0  0
 44 43  1  0  0  0  0
 44 42  1  0  0  0  0
M  END
>  <MODEL>
5

>  <REMARK>
 VINA RESULT:      -3.7      4.191      6.742
  Name = 
  12 active torsions:
  status: ('A' for Active; 'I' for Inactive)
    1  A    between atoms: C_1  and  C_24
    2  A    between atoms: C_1  and  C_40
    3  A    between atoms: C_3  and  C_8
    4  A    between atoms: C_3  and  C_33
    5  A    between atoms: C_6  and  C_31
    6  A    between atoms: C_7  and  C_24
    7  A    between atoms: C_8  and  C_17
    8  A    between atoms: C_10  and  C_30
    9  A    between atoms: C_17  and  C_31
   10  A    between atoms: C_17  and  C_40
   11  A    between atoms: C_22  and  N_27
   12  A    between atoms: N_27  and  C_30
                            x       y       z     vdW  Elec       q    Type
                         _______ _______ _______ _____ _____    ______ ____

>  <TORSDO>
F 12

$$$$
=
 OpenBabel11072413233D

 44 50  0  0  1  0  0  0  0  0999 V2000
  163.1180  206.7160  150.0190 N   0  0  0  0  0  2  0  0  0  0  0  0
  160.2890  202.6790  149.5520 C   0  0  0  0  0  3  0  0  0  0  0  0
  160.7470  203.9990  149.0870 C   0  0  0  0  0  3  0  0  0  0  0  0
  161.0070  208.3270  153.7770 C   0  0  0  0  0  0  0  0  0  0  0  0
  159.9030  206.0820  154.9890 N   0  0  0  0  0  0  0  0  0  0  0  0
  162.0910  206.0540  149.2020 C   0  0  1  0  0  3  0  0  0  0  0  0
  162.4610  202.2000  152.3230 O   0  0  0  0  0  0  0  0  0  0  0  0
  161.2800  207.0390  153.3040 C   0  0  0  0  0  0  0  0  0  0  0  0
  161.8480  202.8120  151.4100 C   0  0  0  0  0  0  0  0  0  0  0  0
  161.7410  205.1750  152.2170 C   0  0  0  0  0  0  0  0  0  0  0  0
  160.8070  202.1160  150.6420 C   0  0  0  0  0  3  0  0  0  0  0  0
  160.1830  208.4340  154.8600 N   0  0  0  0  0  0  0  0  0  0  0  0
  160.7180  205.9530  153.9170 C   0  0  0  0  0  0  0  0  0  0  0  0
  159.6420  207.3330  155.4670 C   0  0  0  0  0  3  0  0  0  0  0  0
  162.1770  204.2540  151.1130 C   0  0  2  0  0  3  0  0  0  0  0  0
  162.5390  207.3130  151.1540 N   0  0  0  0  0  0  0  0  0  0  0  0
  161.9520  206.5480  152.2120 C   0  0  0  0  0  0  0  0  0  0  0  0
  161.6270  204.7350  149.7810 C   0  0  0  0  0  0  0  0  0  0  0  0
  160.9770  204.8000  153.2720 N   0  0  0  0  0  0  0  0  0  0  0  0
  161.5010  209.6810  151.8390 C   0  0  0  0  0  0  0  0  0  0  0  0
  161.4720  209.8110  150.6100 O   0  0  0  0  0  0  0  0  0  0  0  0
  161.5330  209.5440  153.1370 C   0  0  0  0  0  0  0  0  0  0  0  0
  162.0210  210.6820  153.9680 C   0  0  0  0  0  2  0  0  0  0  0  0
  160.9040  211.6750  154.2930 C   0  0  0  0  0  2  0  0  0  0  0  0
  160.4460  211.6290  155.7560 C   0  0  2  0  0  3  0  0  0  0  0  0
  159.3490  212.6620  156.0740 C   0  0  0  0  0  0  0  0  0  0  0  0
  159.5550  213.3580  157.2430 O   0  0  0  0  0  0  0  0  0  0  0  0
  159.7480  213.9810  156.0650 O   0  0  0  0  0  0  0  0  0  0  0  0
  157.8760  212.4250  155.7010 C   0  0  2  0  0  3  0  0  0  0  0  0
  157.7000  211.1670  155.1240 O   0  0  0  0  0  1  0  0  0  0  0  0
  156.3030  214.4220  152.6920 C   0  0  0  0  0  2  0  0  0  0  0  0
  157.2580  213.5310  154.8410 C   0  0  1  0  0  3  0  0  0  0  0  0
  157.7700  213.4490  153.1000 S   0  0  0  0  0  0  0  0  0  0  0  0
  155.7410  213.4750  154.9000 C   0  0  0  0  0  2  0  0  0  0  0  0
  155.1740  213.9050  153.5570 C   0  0  0  0  0  2  0  0  0  0  0  0
  161.6220  211.6650  156.7330 C   0  0  0  0  0  2  0  0  0  0  0  0
  161.9450  210.2800  157.2610 C   0  0  0  0  0  2  0  0  0  0  0  0
  163.3120  210.0410  157.1430 O   0  0  0  0  0  1  0  0  0  0  0  0
  160.9540  206.9880  148.7470 C   0  0  2  0  0  3  0  0  0  0  0  0
  159.7130  206.4630  149.1160 O   0  0  0  0  0  1  0  0  0  0  0  0
  160.9870  207.2140  147.3070 N   0  0  0  0  0  2  0  0  0  0  0  0
  160.4060  206.2530  145.1670 C   0  0  0  0  0  2  0  0  0  0  0  0
  160.3940  206.0540  146.6670 C   0  0  0  0  0  3  0  0  0  0  0  0
  161.4420  205.3690  145.8190 C   0  0  0  0  0  2  0  0  0  0  0  0
  1 16  1  0  0  0  0
  2 11  2  0  0  0  0
  3  2  1  0  0  0  0
  3 18  2  0  0  0  0
  4 12  1  0  0  0  0
  5 14  1  0  0  0  0
  6 39  1  1  0  0  0
  6 18  1  0  0  0  0
  6  1  1  0  0  0  0
  8  4  2  0  0  0  0
  8 13  1  0  0  0  0
  9  7  2  0  0  0  0
 10 19  2  0  0  0  0
 11  9  1  0  0  0  0
 12 14  2  0  0  0  0
 13  5  2  0  0  0  0
 15 18  1  6  0  0  0
 15  9  1  0  0  0  0
 15 10  1  0  0  0  0
 16 17  2  0  0  0  0
 17 10  1  0  0  0  0
 17  8  1  0  0  0  0
 19 13  1  0  0  0  0
 20 22  2  0  0  0  0
 21 20  2  0  0  0  0
 22  4  1  0  0  0  0
 22 23  1  0  0  0  0
 23 24  1  0  0  0  0
 25 24  1  6  0  0  0
 25 26  1  0  0  0  0
 25 36  1  0  0  0  0
 26 27  1  0  0  0  0
 28 26  1  0  0  0  0
 28 27  1  0  0  0  0
 29 30  1  6  0  0  0
 29 26  1  0  0  0  0
 31 33  1  0  0  0  0
 31 35  1  0  0  0  0
 32 34  1  0  0  0  0
 32 29  1  1  0  0  0
 33 32  1  0  0  0  0
 35 34  1  0  0  0  0
 36 37  1  0  0  0  0
 38 37  1  0  0  0  0
 39 40  1  6  0  0  0
 41 39  1  0  0  0  0
 42 44  1  0  0  0  0
 42 43  1  0  0  0  0
 43 41  1  0  0  0  0
 44 43  1  0  0  0  0
M  END
>  <MODEL>
6

>  <REMARK>
 VINA RESULT:      -3.6      5.056      7.892
  Name = 
  12 active torsions:
  status: ('A' for Active; 'I' for Inactive)
    1  A    between atoms: C_1  and  C_24
    2  A    between atoms: C_1  and  C_40
    3  A    between atoms: C_3  and  C_8
    4  A    between atoms: C_3  and  C_33
    5  A    between atoms: C_6  and  C_31
    6  A    between atoms: C_7  and  C_24
    7  A    between atoms: C_8  and  C_17
    8  A    between atoms: C_10  and  C_30
    9  A    between atoms: C_17  and  C_31
   10  A    between atoms: C_17  and  C_40
   11  A    between atoms: C_22  and  N_27
   12  A    between atoms: N_27  and  C_30
                            x       y       z     vdW  Elec       q    Type
                         _______ _______ _______ _____ _____    ______ ____

>  <TORSDO>
F 12

$$$$
=
 OpenBabel11072413233D

 44 50  0  0  1  0  0  0  0  0999 V2000
  159.4500  204.9800  150.5810 N   0  0  0  0  0  2  0  0  0  0  0  0
  162.5520  204.2800  146.7850 C   0  0  0  0  0  3  0  0  0  0  0  0
  162.0030  203.8940  148.0950 C   0  0  0  0  0  3  0  0  0  0  0  0
  161.4510  208.8320  152.1080 C   0  0  0  0  0  0  0  0  0  0  0  0
  162.7100  209.9110  149.8770 N   0  0  0  0  0  0  0  0  0  0  0  0
  160.5200  204.1270  150.0410 C   0  0  1  0  0  3  0  0  0  0  0  0
  160.4220  207.0120  145.9930 O   0  0  0  0  0  0  0  0  0  0  0  0
  161.2670  208.2830  150.8350 C   0  0  0  0  0  0  0  0  0  0  0  0
  160.9910  206.1390  146.6990 C   0  0  0  0  0  0  0  0  0  0  0  0
  160.9340  207.0850  149.0120 C   0  0  0  0  0  0  0  0  0  0  0  0
  162.0760  205.3340  146.1240 C   0  0  0  0  0  3  0  0  0  0  0  0
  162.2680  209.9220  152.2070 N   0  0  0  0  0  0  0  0  0  0  0  0
  161.9040  208.8310  149.7560 C   0  0  0  0  0  0  0  0  0  0  0  0
  162.8840  210.4630  151.1120 C   0  0  0  0  0  3  0  0  0  0  0  0
  160.5610  205.9270  148.1300 C   0  0  2  0  0  3  0  0  0  0  0  0
  159.9880  206.1500  151.1490 N   0  0  0  0  0  0  0  0  0  0  0  0
  160.6290  207.1620  150.3640 C   0  0  0  0  0  0  0  0  0  0  0  0
  161.0750  204.6280  148.7260 C   0  0  0  0  0  0  0  0  0  0  0  0
  161.7240  208.1180  148.6280 N   0  0  0  0  0  0  0  0  0  0  0  0
  161.1920  207.0840  153.7550 C   0  0  0  0  0  0  0  0  0  0  0  0
  161.5240  205.9660  154.1640 O   0  0  0  0  0  0  0  0  0  0  0  0
  160.8400  208.2640  153.3220 C   0  0  0  0  0  0  0  0  0  0  0  0
  159.8820  209.0700  154.1320 C   0  0  0  0  0  2  0  0  0  0  0  0
  160.0570  208.8310  155.6320 C   0  0  0  0  0  2  0  0  0  0  0  0
  159.8370  210.0870  156.4860 C   0  0  2  0  0  3  0  0  0  0  0  0
  158.9480  211.1350  155.7930 C   0  0  0  0  0  0  0  0  0  0  0  0
  157.7180  210.6580  155.4020 O   0  0  0  0  0  0  0  0  0  0  0  0
  157.7940  211.4810  156.4640 O   0  0  0  0  0  0  0  0  0  0  0  0
  159.5380  212.2410  154.9010 C   0  0  2  0  0  3  0  0  0  0  0  0
  159.6990  213.4290  155.6150 O   0  0  0  0  0  1  0  0  0  0  0  0
  157.9170  213.9220  151.7290 C   0  0  0  0  0  2  0  0  0  0  0  0
  158.7760  212.4680  153.5920 C   0  0  1  0  0  3  0  0  0  0  0  0
  157.9330  214.0770  153.5290 S   0  0  0  0  0  0  0  0  0  0  0  0
  159.7120  212.3680  152.4000 C   0  0  0  0  0  2  0  0  0  0  0  0
  159.2510  213.3360  151.3220 C   0  0  0  0  0  2  0  0  0  0  0  0
  161.1500  210.6580  157.0250 C   0  0  0  0  0  2  0  0  0  0  0  0
  162.3460  209.8940  156.4890 C   0  0  0  0  0  2  0  0  0  0  0  0
  163.0640  210.7040  155.6130 O   0  0  0  0  0  1  0  0  0  0  0  0
  161.5890  203.7310  151.0780 C   0  0  2  0  0  3  0  0  0  0  0  0
  162.7090  204.5580  150.9640 O   0  0  0  0  0  1  0  0  0  0  0  0
  161.9860  202.3370  150.9340 N   0  0  0  0  0  2  0  0  0  0  0  0
  161.1800  200.9510  149.1260 C   0  0  0  0  0  2  0  0  0  0  0  0
  160.8340  201.5990  150.4480 C   0  0  0  0  0  3  0  0  0  0  0  0
  161.1790  200.1280  150.3910 C   0  0  0  0  0  2  0  0  0  0  0  0
  1 16  1  0  0  0  0
  2  3  1  0  0  0  0
  3 18  2  0  0  0  0
  4 12  1  0  0  0  0
  4 22  1  0  0  0  0
  5 14  1  0  0  0  0
  6  1  1  0  0  0  0
  6 39  1  1  0  0  0
  7  9  2  0  0  0  0
  8  4  2  0  0  0  0
 10 17  1  0  0  0  0
 11  9  1  0  0  0  0
 11  2  2  0  0  0  0
 13  5  2  0  0  0  0
 13  8  1  0  0  0  0
 14 12  2  0  0  0  0
 15  9  1  6  0  0  0
 15 18  1  0  0  0  0
 15 10  1  0  0  0  0
 17  8  1  0  0  0  0
 17 16  2  0  0  0  0
 18  6  1  0  0  0  0
 19 10  2  0  0  0  0
 19 13  1  0  0  0  0
 20 21  2  0  0  0  0
 22 20  2  0  0  0  0
 22 23  1  0  0  0  0
 23 24  1  0  0  0  0
 25 24  1  6  0  0  0
 25 36  1  0  0  0  0
 26 28  1  0  0  0  0
 26 25  1  0  0  0  0
 27 26  1  0  0  0  0
 27 28  1  0  0  0  0
 29 30  1  1  0  0  0
 29 26  1  0  0  0  0
 31 33  1  0  0  0  0
 32 29  1  1  0  0  0
 33 32  1  0  0  0  0
 34 32  1  0  0  0  0
 35 31  1  0  0  0  0
 35 34  1  0  0  0  0
 37 36  1  0  0  0  0
 38 37  1  0  0  0  0
 39 40  1  6  0  0  0
 41 39  1  0  0  0  0
 42 44  1  0  0  0  0
 42 43  1  0  0  0  0
 43 41  1  0  0  0  0
 44 43  1  0  0  0  0
M  END
>  <MODEL>
7

>  <REMARK>
 VINA RESULT:      -3.4      4.881      7.979
  Name = 
  12 active torsions:
  status: ('A' for Active; 'I' for Inactive)
    1  A    between atoms: C_1  and  C_24
    2  A    between atoms: C_1  and  C_40
    3  A    between atoms: C_3  and  C_8
    4  A    between atoms: C_3  and  C_33
    5  A    between atoms: C_6  and  C_31
    6  A    between atoms: C_7  and  C_24
    7  A    between atoms: C_8  and  C_17
    8  A    between atoms: C_10  and  C_30
    9  A    between atoms: C_17  and  C_31
   10  A    between atoms: C_17  and  C_40
   11  A    between atoms: C_22  and  N_27
   12  A    between atoms: N_27  and  C_30
                            x       y       z     vdW  Elec       q    Type
                         _______ _______ _______ _____ _____    ______ ____

>  <TORSDO>
F 12

$$$$
=
 OpenBabel11072413233D

 44 50  0  0  1  0  0  0  0  0999 V2000
  162.6650  204.6840  147.0050 N   0  0  0  0  0  2  0  0  0  0  0  0
  159.3510  201.9780  144.5120 C   0  0  0  0  0  3  0  0  0  0  0  0
  159.9420  203.2720  144.8920 C   0  0  0  0  0  3  0  0  0  0  0  0
  160.9440  203.7900  151.1780 C   0  0  0  0  0  0  0  0  0  0  0  0
  159.6370  201.3530  150.9010 N   0  0  0  0  0  0  0  0  0  0  0  0
  161.5280  204.7310  146.0750 C   0  0  1  0  0  3  0  0  0  0  0  0
  161.5790  199.7600  146.1670 O   0  0  0  0  0  0  0  0  0  0  0  0
  161.0370  203.0480  149.9970 C   0  0  0  0  0  0  0  0  0  0  0  0
  161.0010  200.8410  145.8840 C   0  0  0  0  0  0  0  0  0  0  0  0
  161.2190  202.2150  147.9610 C   0  0  0  0  0  0  0  0  0  0  0  0
  159.8480  200.8330  144.9740 C   0  0  0  0  0  3  0  0  0  0  0  0
  160.1920  203.2650  152.1890 N   0  0  0  0  0  0  0  0  0  0  0  0
  160.3790  201.8540  149.8860 C   0  0  0  0  0  0  0  0  0  0  0  0
  159.5510  202.0620  152.0630 C   0  0  0  0  0  3  0  0  0  0  0  0
  161.4870  202.1370  146.4850 C   0  0  2  0  0  3  0  0  0  0  0  0
  162.2170  204.4970  148.3260 N   0  0  0  0  0  0  0  0  0  0  0  0
  161.5930  203.2850  148.7630 C   0  0  0  0  0  0  0  0  0  0  0  0
  160.9360  203.3680  145.7860 C   0  0  0  0  0  0  0  0  0  0  0  0
  160.4660  201.3240  148.6520 N   0  0  0  0  0  0  0  0  0  0  0  0
  162.8410  205.1960  151.6890 C   0  0  0  0  0  0  0  0  0  0  0  0
  164.0310  205.2820  152.0100 O   0  0  0  0  0  0  0  0  0  0  0  0
  161.5830  205.1060  151.3510 C   0  0  0  0  0  0  0  0  0  0  0  0
  160.8300  206.3560  151.0450 C   0  0  0  0  0  2  0  0  0  0  0  0
  161.6330  207.6090  151.3960 C   0  0  0  0  0  2  0  0  0  0  0  0
  161.1400  208.3230  152.6610 C   0  0  2  0  0  3  0  0  0  0  0  0
  161.4520  209.8310  152.6580 C   0  0  0  0  0  0  0  0  0  0  0  0
  162.6610  210.1540  152.0860 O   0  0  0  0  0  0  0  0  0  0  0  0
  161.5240  210.4260  151.4170 O   0  0  0  0  0  0  0  0  0  0  0  0
  160.9970  210.7580  153.7990 C   0  0  2  0  0  3  0  0  0  0  0  0
  161.8570  210.6670  154.8930 O   0  0  0  0  0  1  0  0  0  0  0  0
  157.4980  211.1850  155.5570 C   0  0  0  0  0  2  0  0  0  0  0  0
  159.5350  210.5740  154.2150 C   0  0  1  0  0  3  0  0  0  0  0  0
  159.2410  210.9450  155.9690 S   0  0  0  0  0  0  0  0  0  0  0  0
  158.6220  211.4530  153.3770 C   0  0  0  0  0  2  0  0  0  0  0  0
  157.4520  211.9140  154.2310 C   0  0  0  0  0  2  0  0  0  0  0  0
  161.5820  207.6090  153.9390 C   0  0  0  0  0  2  0  0  0  0  0  0
  160.4010  206.9860  154.6600 C   0  0  0  0  0  2  0  0  0  0  0  0
  160.3650  207.4400  155.9760 O   0  0  0  0  0  1  0  0  0  0  0  0
  160.4910  205.8210  146.4070 C   0  0  2  0  0  3  0  0  0  0  0  0
  160.3790  206.7260  145.3490 O   0  0  0  0  0  1  0  0  0  0  0  0
  160.8320  206.5320  147.6320 N   0  0  0  0  0  2  0  0  0  0  0  0
  161.5800  208.7070  148.3750 C   0  0  0  0  0  2  0  0  0  0  0  0
  161.6380  207.6810  147.2650 C   0  0  0  0  0  3  0  0  0  0  0  0
  162.7870  207.8100  148.2390 C   0  0  0  0  0  2  0  0  0  0  0  0
  1 16  1  0  0  0  0
  2  3  1  0  0  0  0
  2 11  2  0  0  0  0
  3 18  2  0  0  0  0
  4 22  1  0  0  0  0
  4 12  1  0  0  0  0
  5 14  1  0  0  0  0
  6 39  1  1  0  0  0
  6  1  1  0  0  0  0
  8  4  2  0  0  0  0
  9  7  2  0  0  0  0
  9 15  1  0  0  0  0
 10 19  2  0  0  0  0
 10 17  1  0  0  0  0
 11  9  1  0  0  0  0
 13  8  1  0  0  0  0
 13  5  2  0  0  0  0
 14 12  2  0  0  0  0
 15 18  1  6  0  0  0
 15 10  1  0  0  0  0
 16 17  2  0  0  0  0
 17  8  1  0  0  0  0
 18  6  1  0  0  0  0
 19 13  1  0  0  0  0
 20 21  2  0  0  0  0
 22 20  2  0  0  0  0
 23 22  1  0  0  0  0
 23 24  1  0  0  0  0
 25 24  1  6  0  0  0
 25 36  1  0  0  0  0
 26 25  1  0  0  0  0
 26 29  1  0  0  0  0
 27 26  1  0  0  0  0
 28 27  1  0  0  0  0
 28 26  1  0  0  0  0
 29 30  1  1  0  0  0
 31 33  1  0  0  0  0
 32 29  1  6  0  0  0
 32 33  1  0  0  0  0
 34 32  1  0  0  0  0
 34 35  1  0  0  0  0
 35 31  1  0  0  0  0
 36 37  1  0  0  0  0
 37 38  1  0  0  0  0
 39 40  1  6  0  0  0
 39 41  1  0  0  0  0
 43 41  1  0  0  0  0
 43 44  1  0  0  0  0
 43 42  1  0  0  0  0
 44 42  1  0  0  0  0
M  END
>  <MODEL>
8

>  <REMARK>
 VINA RESULT:      -3.4      5.102      8.825
  Name = 
  12 active torsions:
  status: ('A' for Active; 'I' for Inactive)
    1  A    between atoms: C_1  and  C_24
    2  A    between atoms: C_1  and  C_40
    3  A    between atoms: C_3  and  C_8
    4  A    between atoms: C_3  and  C_33
    5  A    between atoms: C_6  and  C_31
    6  A    between atoms: C_7  and  C_24
    7  A    between atoms: C_8  and  C_17
    8  A    between atoms: C_10  and  C_30
    9  A    between atoms: C_17  and  C_31
   10  A    between atoms: C_17  and  C_40
   11  A    between atoms: C_22  and  N_27
   12  A    between atoms: N_27  and  C_30
                            x       y       z     vdW  Elec       q    Type
                         _______ _______ _______ _____ _____    ______ ____

>  <TORSDO>
F 12

$$$$
=
 OpenBabel11072413233D

 44 50  0  0  1  0  0  0  0  0999 V2000
  158.1730  211.0860  152.1200 N   0  0  0  0  0  2  0  0  0  0  0  0
  157.1540  214.4130  155.6430 C   0  0  0  0  0  3  0  0  0  0  0  0
  157.7390  214.0430  154.3440 C   0  0  0  0  0  3  0  0  0  0  0  0
  161.1940  208.6780  154.6190 C   0  0  0  0  0  0  0  0  0  0  0  0
  160.4670  209.1500  157.2610 N   0  0  0  0  0  0  0  0  0  0  0  0
  158.3100  212.4940  152.5230 C   0  0  1  0  0  3  0  0  0  0  0  0
  155.6260  211.3340  156.5440 O   0  0  0  0  0  0  0  0  0  0  0  0
  160.0280  209.3810  154.9360 C   0  0  0  0  0  0  0  0  0  0  0  0
  156.3860  212.1270  155.9290 C   0  0  0  0  0  0  0  0  0  0  0  0
  158.2490  210.6770  155.1070 C   0  0  0  0  0  0  0  0  0  0  0  0
  156.5130  213.5150  156.3900 C   0  0  0  0  0  3  0  0  0  0  0  0
  161.9550  208.2280  155.6600 N   0  0  0  0  0  0  0  0  0  0  0  0
  159.6980  209.6040  156.2450 C   0  0  0  0  0  0  0  0  0  0  0  0
  161.5990  208.4500  156.9630 C   0  0  0  0  0  3  0  0  0  0  0  0
  157.1660  211.6470  154.7300 C   0  0  2  0  0  3  0  0  0  0  0  0
  159.1250  210.2870  152.7800 N   0  0  0  0  0  0  0  0  0  0  0  0
  159.0920  210.0600  154.1930 C   0  0  0  0  0  0  0  0  0  0  0  0
  157.7420  212.7790  153.8960 C   0  0  0  0  0  0  0  0  0  0  0  0
  158.6190  210.3980  156.3820 N   0  0  0  0  0  0  0  0  0  0  0  0
  162.0690  209.4330  152.4990 C   0  0  0  0  0  0  0  0  0  0  0  0
  162.4760  210.3690  151.8020 O   0  0  0  0  0  0  0  0  0  0  0  0
  161.6390  208.4450  153.2350 C   0  0  0  0  0  0  0  0  0  0  0  0
  161.6980  207.0600  152.6850 C   0  0  0  0  0  2  0  0  0  0  0  0
  160.5770  206.7950  151.6790 C   0  0  0  0  0  2  0  0  0  0  0  0
  161.0700  206.6260  150.2360 C   0  0  2  0  0  3  0  0  0  0  0  0
  161.2240  205.1510  149.8230 C   0  0  0  0  0  0  0  0  0  0  0  0
  161.3790  204.2850  150.8800 O   0  0  0  0  0  0  0  0  0  0  0  0
  160.2070  204.3090  150.2190 O   0  0  0  0  0  0  0  0  0  0  0  0
  161.9420  204.7400  148.5260 C   0  0  2  0  0  3  0  0  0  0  0  0
  162.9670  205.6340  148.2140 O   0  0  0  0  0  1  0  0  0  0  0  0
  160.4810  204.5170  144.8740 C   0  0  0  0  0  2  0  0  0  0  0  0
  161.0080  204.5160  147.3330 C   0  0  1  0  0  3  0  0  0  0  0  0
  161.2790  205.7010  145.9830 S   0  0  0  0  0  0  0  0  0  0  0  0
  161.1700  203.1100  146.7800 C   0  0  0  0  0  2  0  0  0  0  0  0
  160.9640  203.1400  145.2740 C   0  0  0  0  0  2  0  0  0  0  0  0
  162.3090  207.4760  149.9450 C   0  0  0  0  0  2  0  0  0  0  0  0
  161.9490  208.7280  149.1680 C   0  0  0  0  0  2  0  0  0  0  0  0
  161.3550  208.3740  147.9590 O   0  0  0  0  0  1  0  0  0  0  0  0
  159.7120  213.0830  152.2750 C   0  0  2  0  0  3  0  0  0  0  0  0
  159.7220  214.4510  152.5530 O   0  0  0  0  0  1  0  0  0  0  0  0
  160.1580  212.8530  150.9070 N   0  0  0  0  0  2  0  0  0  0  0  0
  161.1130  214.2220  149.1590 C   0  0  0  0  0  2  0  0  0  0  0  0
  160.0020  214.0980  150.1780 C   0  0  0  0  0  3  0  0  0  0  0  0
  159.7340  213.7880  148.7230 C   0  0  0  0  0  2  0  0  0  0  0  0
  1  6  1  0  0  0  0
  1 16  1  0  0  0  0
  2 11  2  0  0  0  0
  3  2  1  0  0  0  0
  4  8  2  0  0  0  0
  4 12  1  0  0  0  0
  6 39  1  1  0  0  0
  6 18  1  0  0  0  0
  8 13  1  0  0  0  0
  9 11  1  0  0  0  0
  9  7  2  0  0  0  0
 10 19  2  0  0  0  0
 12 14  2  0  0  0  0
 13 19  1  0  0  0  0
 13  5  2  0  0  0  0
 14  5  1  0  0  0  0
 15 18  1  1  0  0  0
 15 10  1  0  0  0  0
 15  9  1  0  0  0  0
 16 17  2  0  0  0  0
 17  8  1  0  0  0  0
 17 10  1  0  0  0  0
 18  3  2  0  0  0  0
 20 22  2  0  0  0  0
 21 20  2  0  0  0  0
 22  4  1  0  0  0  0
 23 22  1  0  0  0  0
 24 23  1  0  0  0  0
 25 36  1  1  0  0  0
 25 24  1  0  0  0  0
 26 28  1  0  0  0  0
 26 25  1  0  0  0  0
 26 27  1  0  0  0  0
 28 27  1  0  0  0  0
 29 30  1  6  0  0  0
 29 26  1  0  0  0  0
 31 35  1  0  0  0  0
 31 33  1  0  0  0  0
 32 29  1  1  0  0  0
 33 32  1  0  0  0  0
 34 32  1  0  0  0  0
 35 34  1  0  0  0  0
 37 36  1  0  0  0  0
 38 37  1  0  0  0  0
 39 40  1  6  0  0  0
 41 39  1  0  0  0  0
 42 43  1  0  0  0  0
 43 41  1  0  0  0  0
 44 42  1  0  0  0  0
 44 43  1  0  0  0  0
M  END
>  <MODEL>
9

>  <REMARK>
 VINA RESULT:      -3.2      4.417      8.257
  Name = 
  12 active torsions:
  status: ('A' for Active; 'I' for Inactive)
    1  A    between atoms: C_1  and  C_24
    2  A    between atoms: C_1  and  C_40
    3  A    between atoms: C_3  and  C_8
    4  A    between atoms: C_3  and  C_33
    5  A    between atoms: C_6  and  C_31
    6  A    between atoms: C_7  and  C_24
    7  A    between atoms: C_8  and  C_17
    8  A    between atoms: C_10  and  C_30
    9  A    between atoms: C_17  and  C_31
   10  A    between atoms: C_17  and  C_40
   11  A    between atoms: C_22  and  N_27
   12  A    between atoms: N_27  and  C_30
                            x       y       z     vdW  Elec       q    Type
                         _______ _______ _______ _____ _____    ______ ____

>  <TORSDO>
F 12

$$$$
