=
 OpenBabel11072413163D

 27 33  0  0  1  0  0  0  0  0999 V2000
  161.2030  205.1280  153.4840 F   0  0  0  0  0  0  0  0  0  0  0  0
  160.8710  208.5430  152.6520 C   0  0  0  0  0  0  0  0  0  0  0  0
  159.3430  213.7270  155.3120 O   0  0  0  0  0  1  0  0  0  0  0  0
  161.0830  207.9090  154.8010 C   0  0  2  0  0  3  0  0  0  0  0  0
  158.3760  213.4050  152.1250 C   0  0  0  0  0  2  0  0  0  0  0  0
  159.8130  210.8430  153.0310 N   0  0  0  0  0  2  0  0  0  0  0  0
  161.2490  207.5070  153.4150 C   0  0  0  0  0  0  0  0  0  0  0  0
  157.1190  211.6080  153.9450 C   0  0  0  0  0  2  0  0  0  0  0  0
  161.1440  206.2290  151.3740 C   0  0  1  0  0  3  0  0  0  0  0  0
  159.8170  213.2790  152.6050 C   0  0  0  0  0  2  0  0  0  0  0  0
  160.5020  211.6090  156.2640 S   0  0  0  0  0  0  0  0  0  0  0  0
  161.9200  207.2280  149.3780 N   0  0  0  0  0  2  0  0  0  0  0  0
  156.5730  212.9190  153.3750 C   0  0  0  0  0  2  0  0  0  0  0  0
  157.5760  213.8770  153.1730 O   0  0  0  0  0  0  0  0  0  0  0  0
  160.4170  209.6400  153.5100 C   0  0  0  0  0  0  0  0  0  0  0  0
  161.9170  207.3620  150.7900 C   0  0  2  0  0  0  0  0  0  0  0  0
  160.0340  212.1550  153.6300 C   0  0  1  0  0  3  0  0  0  0  0  0
  161.9380  206.0320  150.1800 N   0  0  1  0  0  0  0  0  0  0  0  0
  157.9520  211.7990  155.2100 C   0  0  0  0  0  2  0  0  0  0  0  0
  159.9780  209.8820  156.0270 C   0  0  0  0  0  0  0  0  0  0  0  0
  159.3830  212.3600  155.0250 C   0  0  2  0  0  0  0  0  0  0  0  0
  161.2330  207.2030  155.9170 C   0  0  0  0  0  3  0  0  0  0  0  0
  161.7330  206.2010  152.7930 C   0  0  2  0  0  3  0  0  0  0  0  0
  160.8880  207.8460  157.2030 C   0  0  0  0  0  3  0  0  0  0  0  0
  160.5610  209.2680  154.7860 C   0  0  0  0  0  0  0  0  0  0  0  0
  160.3360  209.0730  157.2590 C   0  0  0  0  0  3  0  0  0  0  0  0
  160.8360  208.4070  151.1310 C   0  0  0  0  0  2  0  0  0  0  0  0
  2  7  2  0  0  0  0
  2 15  1  0  0  0  0
  4 22  1  6  0  0  0
  5 10  1  0  0  0  0
  5 14  1  0  0  0  0
  6 15  1  0  0  0  0
  6 17  1  0  0  0  0
  7  4  1  0  0  0  0
  8 19  1  0  0  0  0
  9 23  1  0  0  0  0
 10 17  1  0  0  0  0
 12 18  1  0  0  0  0
 12 16  1  0  0  0  0
 13  8  1  0  0  0  0
 14 13  1  0  0  0  0
 15 25  2  0  0  0  0
 16 27  1  0  0  0  0
 16  9  1  0  0  0  0
 17 21  1  0  0  0  0
 18 16  1  0  0  0  0
 18  9  1  0  0  0  0
 20 11  1  0  0  0  0
 20 26  2  0  0  0  0
 21 19  1  0  0  0  0
 21  3  1  0  0  0  0
 21 11  1  0  0  0  0
 22 24  2  0  0  0  0
 23  7  1  0  0  0  0
 23  1  1  0  0  0  0
 24 26  1  0  0  0  0
 25  4  1  0  0  0  0
 25 20  1  0  0  0  0
 27  2  1  0  0  0  0
M  END
>  <MODEL>
1

>  <REMARK>
 VINA RESULT:      -6.9      0.000      0.000
  Name = 
  0 active torsions:
  status: ('A' for Active; 'I' for Inactive)
                            x       y       z     vdW  Elec       q    Type
                         _______ _______ _______ _____ _____    ______ ____

>  <TORSDO>
F 0

$$$$
=
 OpenBabel11072413163D

 27 33  0  0  1  0  0  0  0  0999 V2000
  162.6880  205.6020  149.1890 F   0  0  0  0  0  0  0  0  0  0  0  0
  161.0720  206.6290  152.1560 C   0  0  0  0  0  0  0  0  0  0  0  0
  159.9380  211.7190  155.1700 O   0  0  0  0  0  1  0  0  0  0  0  0
  161.4790  208.1070  150.5090 C   0  0  2  0  0  3  0  0  0  0  0  0
  160.5490  209.0310  157.0640 C   0  0  0  0  0  2  0  0  0  0  0  0
  160.7950  208.2770  154.0940 N   0  0  0  0  0  2  0  0  0  0  0  0
  161.3890  206.7000  150.8540 C   0  0  0  0  0  0  0  0  0  0  0  0
  162.7670  209.9350  155.5210 C   0  0  0  0  0  2  0  0  0  0  0  0
  161.9110  204.3560  151.0630 C   0  0  1  0  0  3  0  0  0  0  0  0
  159.4590  209.1050  156.0030 C   0  0  0  0  0  2  0  0  0  0  0  0
  160.1900  211.2740  152.6260 S   0  0  0  0  0  0  0  0  0  0  0  0
  160.4990  202.9990  152.3860 N   0  0  0  0  0  2  0  0  0  0  0  0
  162.4700  210.1950  157.0000 C   0  0  0  0  0  2  0  0  0  0  0  0
  161.0970  210.3040  157.2610 O   0  0  0  0  0  0  0  0  0  0  0  0
  160.9770  207.9810  152.7080 C   0  0  0  0  0  0  0  0  0  0  0  0
  160.5960  204.2680  151.7580 C   0  0  2  0  0  0  0  0  0  0  0  0
  159.9880  209.3870  154.5880 C   0  0  1  0  0  3  0  0  0  0  0  0
  161.2070  203.0940  151.1350 N   0  0  1  0  0  0  0  0  0  0  0  0
  162.1130  210.9500  154.5850 C   0  0  0  0  0  2  0  0  0  0  0  0
  161.5130  210.3250  151.8110 C   0  0  0  0  0  0  0  0  0  0  0  0
  160.5910  210.7980  154.3460 C   0  0  2  0  0  0  0  0  0  0  0  0
  161.8540  208.6830  149.3720 C   0  0  0  0  0  3  0  0  0  0  0  0
  161.5960  205.4400  150.0200 C   0  0  2  0  0  3  0  0  0  0  0  0
  161.9560  210.1580  149.3350 C   0  0  0  0  0  3  0  0  0  0  0  0
  161.2000  208.8580  151.7240 C   0  0  0  0  0  0  0  0  0  0  0  0
  161.7810  210.9100  150.4380 C   0  0  0  0  0  3  0  0  0  0  0  0
  160.9950  205.2730  152.8570 C   0  0  0  0  0  2  0  0  0  0  0  0
  1 23  1  0  0  0  0
  2 15  1  0  0  0  0
  2 27  1  0  0  0  0
  4 22  1  1  0  0  0
  4  7  1  0  0  0  0
  4 25  1  0  0  0  0
  5 14  1  0  0  0  0
  6 17  1  0  0  0  0
  7  2  2  0  0  0  0
  8 13  1  0  0  0  0
  9 18  1  0  0  0  0
  9 16  1  0  0  0  0
 10  5  1  0  0  0  0
 11 21  1  0  0  0  0
 13 14  1  0  0  0  0
 15  6  1  0  0  0  0
 16 12  1  0  0  0  0
 16 27  1  0  0  0  0
 17 10  1  0  0  0  0
 18 16  1  0  0  0  0
 18 12  1  0  0  0  0
 19  8  1  0  0  0  0
 20 11  1  0  0  0  0
 21 19  1  0  0  0  0
 21 17  1  0  0  0  0
 21  3  1  0  0  0  0
 23  7  1  0  0  0  0
 23  9  1  0  0  0  0
 24 22  2  0  0  0  0
 24 26  1  0  0  0  0
 25 20  1  0  0  0  0
 25 15  2  0  0  0  0
 26 20  2  0  0  0  0
M  END
>  <MODEL>
2

>  <REMARK>
 VINA RESULT:      -6.2      2.625      4.701
  Name = 
  0 active torsions:
  status: ('A' for Active; 'I' for Inactive)
                            x       y       z     vdW  Elec       q    Type
                         _______ _______ _______ _____ _____    ______ ____

>  <TORSDO>
F 0

$$$$
=
 OpenBabel11072413163D

 27 33  0  0  1  0  0  0  0  0999 V2000
  162.1730  205.8510  153.7980 F   0  0  0  0  0  0  0  0  0  0  0  0
  161.2180  206.3390  150.4330 C   0  0  0  0  0  0  0  0  0  0  0  0
  160.4560  203.0860  145.4220 O   0  0  0  0  0  1  0  0  0  0  0  0
  161.1270  204.2900  151.3580 C   0  0  0  0  0  0  0  0  0  0  0  0
  161.6780  206.1670  144.9650 C   0  0  0  0  0  2  0  0  0  0  0  0
  161.2820  205.6480  147.9690 N   0  0  0  0  0  2  0  0  0  0  0  0
  161.2190  205.7150  151.6210 C   0  0  0  0  0  0  0  0  0  0  0  0
  163.4080  204.3890  146.3670 C   0  0  0  0  0  2  0  0  0  0  0  0
  161.9400  207.8370  152.5060 C   0  0  1  0  0  3  0  0  0  0  0  0
  160.3690  205.8570  145.6810 C   0  0  0  0  0  2  0  0  0  0  0  0
  160.1430  202.4530  147.9180 S   0  0  0  0  0  0  0  0  0  0  0  0
  160.9720  209.8100  151.6360 N   0  0  0  0  0  2  0  0  0  0  0  0
  163.4440  204.7790  144.8870 C   0  0  0  0  0  2  0  0  0  0  0  0
  162.1640  205.0020  144.3600 O   0  0  0  0  0  0  0  0  0  0  0  0
  161.1580  205.3440  149.3600 C   0  0  0  0  0  0  0  0  0  0  0  0
  160.8310  208.3990  151.6840 C   0  0  2  0  0  0  0  0  0  0  0  0
  160.5350  204.9640  146.9200 C   0  0  1  0  0  3  0  0  0  0  0  0
  161.3630  209.1220  152.8400 N   0  0  1  0  0  0  0  0  0  0  0  0
  162.4850  203.2080  146.6580 C   0  0  0  0  0  2  0  0  0  0  0  0
  161.3050  202.7840  149.2800 C   0  0  0  0  0  0  0  0  0  0  0  0
  160.9640  203.4950  146.6570 C   0  0  2  0  0  0  0  0  0  0  0  0
  161.1870  203.2630  152.1990 C   0  0  0  0  0  3  0  0  0  0  0  0
  161.3170  206.4970  152.9260 C   0  0  2  0  0  3  0  0  0  0  0  0
  161.1730  201.8950  151.6360 C   0  0  0  0  0  3  0  0  0  0  0  0
  161.0850  204.1290  149.9120 C   0  0  1  0  0  3  0  0  0  0  0  0
  161.2060  201.6730  150.3080 C   0  0  0  0  0  3  0  0  0  0  0  0
  161.4020  207.8540  150.3600 C   0  0  0  0  0  2  0  0  0  0  0  0
  2  7  1  0  0  0  0
  3 21  1  0  0  0  0
  4  7  2  0  0  0  0
  4 22  1  0  0  0  0
  5 10  1  0  0  0  0
  6 15  1  0  0  0  0
  7 23  1  0  0  0  0
  8 19  1  0  0  0  0
  9 18  1  0  0  0  0
  9 23  1  0  0  0  0
 10 17  1  0  0  0  0
 11 20  1  0  0  0  0
 12 16  1  0  0  0  0
 12 18  1  0  0  0  0
 13  8  1  0  0  0  0
 14 13  1  0  0  0  0
 14  5  1  0  0  0  0
 15 25  1  0  0  0  0
 15  2  2  0  0  0  0
 16  9  1  0  0  0  0
 16 18  1  0  0  0  0
 17  6  1  0  0  0  0
 20 25  1  0  0  0  0
 20 26  2  0  0  0  0
 21 19  1  0  0  0  0
 21 17  1  0  0  0  0
 21 11  1  0  0  0  0
 23  1  1  0  0  0  0
 24 22  2  0  0  0  0
 25  4  1  0  0  0  0
 26 24  1  0  0  0  0
 27  2  1  0  0  0  0
 27 16  1  0  0  0  0
M  END
>  <MODEL>
3

>  <REMARK>
 VINA RESULT:      -6.0      5.640      8.675
  Name = 
  0 active torsions:
  status: ('A' for Active; 'I' for Inactive)
                            x       y       z     vdW  Elec       q    Type
                         _______ _______ _______ _____ _____    ______ ____

>  <TORSDO>
F 0

$$$$
=
 OpenBabel11072413163D

 27 33  0  0  1  0  0  0  0  0999 V2000
  161.5570  207.8830  148.5780 F   0  0  0  0  0  0  0  0  0  0  0  0
  161.5190  210.1080  151.3200 C   0  0  0  0  0  0  0  0  0  0  0  0
  160.5340  209.9610  157.2610 O   0  0  0  0  0  1  0  0  0  0  0  0
  161.7220  207.8910  151.6530 C   0  0  2  0  0  3  0  0  0  0  0  0
  159.4670  212.7170  155.6930 C   0  0  0  0  0  2  0  0  0  0  0  0
  160.6850  210.7720  153.6480 N   0  0  0  0  0  2  0  0  0  0  0  0
  161.8190  208.9660  150.6820 C   0  0  0  0  0  0  0  0  0  0  0  0
  158.0940  210.3250  154.9750 C   0  0  0  0  0  2  0  0  0  0  0  0
  161.5500  210.2620  148.6680 C   0  0  1  0  0  3  0  0  0  0  0  0
  160.9010  212.2040  155.6520 C   0  0  0  0  0  2  0  0  0  0  0  0
  161.5160  208.1710  155.6600 S   0  0  0  0  0  0  0  0  0  0  0  0
  162.3660  212.4800  148.6360 N   0  0  0  0  0  2  0  0  0  0  0  0
  157.6560  211.4130  155.9600 C   0  0  0  0  0  2  0  0  0  0  0  0
  158.7380  211.9880  156.6410 O   0  0  0  0  0  0  0  0  0  0  0  0
  161.1870  209.8120  152.7160 C   0  0  0  0  0  0  0  0  0  0  0  0
  162.4090  211.2620  149.3630 C   0  0  2  0  0  0  0  0  0  0  0  0
  161.0390  210.7910  155.0620 C   0  0  1  0  0  3  0  0  0  0  0  0
  162.2940  211.2410  147.9040 N   0  0  1  0  0  0  0  0  0  0  0  0
  158.9710  209.2500  155.6140 C   0  0  0  0  0  2  0  0  0  0  0  0
  160.8310  207.6520  154.0550 C   0  0  0  0  0  0  0  0  0  0  0  0
  160.4420  209.6320  155.9060 C   0  0  2  0  0  0  0  0  0  0  0  0
  161.8340  206.5780  151.4850 C   0  0  0  0  0  3  0  0  0  0  0  0
  162.1660  208.9580  149.1970 C   0  0  2  0  0  3  0  0  0  0  0  0
  161.5800  205.6990  152.6470 C   0  0  0  0  0  3  0  0  0  0  0  0
  161.3270  208.4980  152.9160 C   0  0  0  0  0  0  0  0  0  0  0  0
  161.1430  206.1850  153.8230 C   0  0  0  0  0  3  0  0  0  0  0  0
  161.4360  211.4230  150.5480 C   0  0  0  0  0  2  0  0  0  0  0  0
  1 23  1  0  0  0  0
  2 15  1  0  0  0  0
  4 22  1  6  0  0  0
  4 25  1  0  0  0  0
  5 14  1  0  0  0  0
  6 17  1  0  0  0  0
  7  2  2  0  0  0  0
  7  4  1  0  0  0  0
  8 19  1  0  0  0  0
  8 13  1  0  0  0  0
  9 23  1  0  0  0  0
  9 16  1  0  0  0  0
 10  5  1  0  0  0  0
 11 21  1  0  0  0  0
 12 16  1  0  0  0  0
 13 14  1  0  0  0  0
 15 25  2  0  0  0  0
 15  6  1  0  0  0  0
 16 27  1  0  0  0  0
 17 10  1  0  0  0  0
 17 21  1  0  0  0  0
 18 12  1  0  0  0  0
 18  9  1  0  0  0  0
 18 16  1  0  0  0  0
 19 21  1  0  0  0  0
 20 11  1  0  0  0  0
 21  3  1  0  0  0  0
 22 24  2  0  0  0  0
 23  7  1  0  0  0  0
 24 26  1  0  0  0  0
 25 20  1  0  0  0  0
 26 20  2  0  0  0  0
 27  2  1  0  0  0  0
M  END
>  <MODEL>
4

>  <REMARK>
 VINA RESULT:      -5.7      2.599      3.772
  Name = 
  0 active torsions:
  status: ('A' for Active; 'I' for Inactive)
                            x       y       z     vdW  Elec       q    Type
                         _______ _______ _______ _____ _____    ______ ____

>  <TORSDO>
F 0

$$$$
=
 OpenBabel11072413163D

 27 33  0  0  1  0  0  0  0  0999 V2000
  162.9110  210.2810  151.9720 F   0  0  0  0  0  0  0  0  0  0  0  0
  161.6300  208.7630  149.0530 C   0  0  0  0  0  0  0  0  0  0  0  0
  160.5130  203.2350  146.9380 O   0  0  0  0  0  1  0  0  0  0  0  0
  161.6950  207.6260  150.9940 C   0  0  0  0  0  0  0  0  0  0  0  0
  161.5810  205.4530  144.6730 C   0  0  0  0  0  2  0  0  0  0  0  0
  161.4860  206.7750  147.4470 N   0  0  0  0  0  2  0  0  0  0  0  0
  161.7630  208.9390  150.3770 C   0  0  0  0  0  0  0  0  0  0  0  0
  163.4950  204.7660  146.6700 C   0  0  0  0  0  2  0  0  0  0  0  0
  162.4920  211.1630  149.8010 C   0  0  1  0  0  3  0  0  0  0  0  0
  160.3560  205.6490  145.5580 C   0  0  0  0  0  2  0  0  0  0  0  0
  160.4560  204.1680  149.3580 S   0  0  0  0  0  0  0  0  0  0  0  0
  161.3800  212.2960  148.0500 N   0  0  0  0  0  2  0  0  0  0  0  0
  163.3790  204.2290  145.2410 C   0  0  0  0  0  2  0  0  0  0  0  0
  162.0480  204.1400  144.8070 O   0  0  0  0  0  0  0  0  0  0  0  0
  161.5030  207.3330  148.7620 C   0  0  0  0  0  0  0  0  0  0  0  0
  161.2920  211.1760  148.9170 C   0  0  2  0  0  0  0  0  0  0  0  0
  160.6680  205.6300  147.0620 C   0  0  1  0  0  3  0  0  0  0  0  0
  161.9050  212.4190  149.3860 N   0  0  1  0  0  0  0  0  0  0  0  0
  162.6430  203.9940  147.6760 C   0  0  0  0  0  2  0  0  0  0  0  0
  161.7290  205.1930  150.1600 C   0  0  0  0  0  0  0  0  0  0  0  0
  161.1200  204.2680  147.6560 C   0  0  2  0  0  0  0  0  0  0  0  0
  161.8690  207.2720  152.2630 C   0  0  0  0  0  3  0  0  0  0  0  0
  161.9560  210.3280  150.9740 C   0  0  2  0  0  3  0  0  0  0  0  0
  161.8490  205.8310  152.5970 C   0  0  0  0  0  3  0  0  0  0  0  0
  161.5240  206.6620  149.9180 C   0  0  1  0  0  3  0  0  0  0  0  0
  161.7650  204.8830  151.6450 C   0  0  0  0  0  3  0  0  0  0  0  0
  161.7550  209.9520  148.1020 C   0  0  0  0  0  2  0  0  0  0  0  0
  2  7  1  0  0  0  0
  3 21  1  0  0  0  0
  4 22  1  0  0  0  0
  5 14  1  0  0  0  0
  5 10  1  0  0  0  0
  6 15  1  0  0  0  0
  7 23  1  0  0  0  0
  7  4  2  0  0  0  0
  8 19  1  0  0  0  0
  9 23  1  0  0  0  0
 10 17  1  0  0  0  0
 11 20  1  0  0  0  0
 12 16  1  0  0  0  0
 12 18  1  0  0  0  0
 13  8  1  0  0  0  0
 14 13  1  0  0  0  0
 15  2  2  0  0  0  0
 15 25  1  0  0  0  0
 16 18  1  0  0  0  0
 16  9  1  0  0  0  0
 17  6  1  0  0  0  0
 17 21  1  0  0  0  0
 18  9  1  0  0  0  0
 20 26  2  0  0  0  0
 21 19  1  0  0  0  0
 21 11  1  0  0  0  0
 22 24  2  0  0  0  0
 23  1  1  0  0  0  0
 25 20  1  0  0  0  0
 25  4  1  0  0  0  0
 26 24  1  0  0  0  0
 27 16  1  0  0  0  0
 27  2  1  0  0  0  0
M  END
>  <MODEL>
5

>  <REMARK>
 VINA RESULT:      -5.3      5.555      8.313
  Name = 
  0 active torsions:
  status: ('A' for Active; 'I' for Inactive)
                            x       y       z     vdW  Elec       q    Type
                         _______ _______ _______ _____ _____    ______ ____

>  <TORSDO>
F 0

$$$$
=
 OpenBabel11072413163D

 27 33  0  0  1  0  0  0  0  0999 V2000
  160.8200  204.1830  150.7100 F   0  0  0  0  0  0  0  0  0  0  0  0
  161.1860  207.6950  150.6940 C   0  0  0  0  0  0  0  0  0  0  0  0
  160.6690  212.3230  154.5140 O   0  0  0  0  0  1  0  0  0  0  0  0
  161.2290  206.5530  152.6330 C   0  0  2  0  0  3  0  0  0  0  0  0
  159.7150  212.9410  151.3680 C   0  0  0  0  0  2  0  0  0  0  0  0
  160.5990  210.0080  151.6210 N   0  0  0  0  0  2  0  0  0  0  0  0
  161.3380  206.4570  151.1880 C   0  0  0  0  0  0  0  0  0  0  0  0
  158.0940  211.0570  152.7610 C   0  0  0  0  0  2  0  0  0  0  0  0
  161.0180  205.7310  148.9120 C   0  0  1  0  0  3  0  0  0  0  0  0
  161.0940  212.4260  151.7640 C   0  0  0  0  0  2  0  0  0  0  0  0
  161.3670  209.8570  154.9220 S   0  0  0  0  0  0  0  0  0  0  0  0
  162.0130  206.9890  147.1770 N   0  0  0  0  0  2  0  0  0  0  0  0
  157.8290  212.5450  152.5230 C   0  0  0  0  0  2  0  0  0  0  0  0
  159.0060  213.3070  152.5180 O   0  0  0  0  0  0  0  0  0  0  0  0
  160.9440  208.6310  151.7930 C   0  0  0  0  0  0  0  0  0  0  0  0
  162.0110  206.7920  148.5810 C   0  0  2  0  0  0  0  0  0  0  0  0
  161.0650  211.0760  152.4980 C   0  0  1  0  0  3  0  0  0  0  0  0
  161.7790  205.6610  147.6830 N   0  0  1  0  0  0  0  0  0  0  0  0
  158.9250  210.7830  154.0120 C   0  0  0  0  0  2  0  0  0  0  0  0
  160.5150  208.3690  154.3100 C   0  0  0  0  0  0  0  0  0  0  0  0
  160.4420  211.0790  153.9200 C   0  0  2  0  0  0  0  0  0  0  0  0
  161.2170  205.5940  153.5530 C   0  0  0  0  0  3  0  0  0  0  0  0
  161.5640  205.2610  150.2700 C   0  0  2  0  0  3  0  0  0  0  0  0
  160.9830  205.9790  154.9610 C   0  0  0  0  0  3  0  0  0  0  0  0
  160.9880  207.9540  152.9450 C   0  0  0  0  0  0  0  0  0  0  0  0
  160.6840  207.2430  155.3130 C   0  0  0  0  0  3  0  0  0  0  0  0
  161.1520  207.9220  149.1840 C   0  0  0  0  0  2  0  0  0  0  0  0
  2  7  2  0  0  0  0
  2 15  1  0  0  0  0
  4 25  1  0  0  0  0
  4 22  1  6  0  0  0
  5 10  1  0  0  0  0
  5 14  1  0  0  0  0
  6 15  1  0  0  0  0
  6 17  1  0  0  0  0
  7  4  1  0  0  0  0
  8 19  1  0  0  0  0
  9 23  1  0  0  0  0
 10 17  1  0  0  0  0
 12 18  1  0  0  0  0
 12 16  1  0  0  0  0
 13  8  1  0  0  0  0
 14 13  1  0  0  0  0
 15 25  2  0  0  0  0
 16  9  1  0  0  0  0
 16 27  1  0  0  0  0
 17 21  1  0  0  0  0
 18 16  1  0  0  0  0
 18  9  1  0  0  0  0
 20 11  1  0  0  0  0
 20 26  2  0  0  0  0
 21 19  1  0  0  0  0
 21  3  1  0  0  0  0
 21 11  1  0  0  0  0
 22 24  2  0  0  0  0
 23  1  1  0  0  0  0
 23  7  1  0  0  0  0
 24 26  1  0  0  0  0
 25 20  1  0  0  0  0
 27  2  1  0  0  0  0
M  END
>  <MODEL>
6

>  <REMARK>
 VINA RESULT:      -5.0      1.686      2.253
  Name = 
  0 active torsions:
  status: ('A' for Active; 'I' for Inactive)
                            x       y       z     vdW  Elec       q    Type
                         _______ _______ _______ _____ _____    ______ ____

>  <TORSDO>
F 0

$$$$
=
 OpenBabel11072413163D

 27 33  0  0  1  0  0  0  0  0999 V2000
  161.7110  209.6600  148.4530 F   0  0  0  0  0  0  0  0  0  0  0  0
  160.7890  211.9270  150.9990 C   0  0  0  0  0  0  0  0  0  0  0  0
  159.2030  211.8170  156.8080 O   0  0  0  0  0  1  0  0  0  0  0  0
  161.5160  209.8620  151.5200 C   0  0  2  0  0  3  0  0  0  0  0  0
  157.6510  214.1150  154.9360 C   0  0  0  0  0  2  0  0  0  0  0  0
  159.5530  212.4620  153.1750 N   0  0  0  0  0  2  0  0  0  0  0  0
  161.4430  210.8760  150.4820 C   0  0  0  0  0  0  0  0  0  0  0  0
  157.0290  211.4130  154.2750 C   0  0  0  0  0  2  0  0  0  0  0  0
  161.0830  211.9550  148.3580 C   0  0  1  0  0  3  0  0  0  0  0  0
  159.1640  213.9960  155.0750 C   0  0  0  0  0  2  0  0  0  0  0  0
  160.7880  210.2730  155.4530 S   0  0  0  0  0  0  0  0  0  0  0  0
  161.3010  214.3050  148.2350 N   0  0  0  0  0  2  0  0  0  0  0  0
  156.2170  212.3940  155.1250 C   0  0  0  0  0  2  0  0  0  0  0  0
  157.0300  213.2670  155.8620 O   0  0  0  0  0  0  0  0  0  0  0  0
  160.3880  211.6240  152.3740 C   0  0  0  0  0  0  0  0  0  0  0  0
  161.5710  213.1790  149.0540 C   0  0  2  0  0  0  0  0  0  0  0  0
  159.7260  212.6430  154.6120 C   0  0  1  0  0  3  0  0  0  0  0  0
  161.6330  213.0560  147.5970 N   0  0  1  0  0  0  0  0  0  0  0  0
  158.0740  210.6400  155.0760 C   0  0  0  0  0  2  0  0  0  0  0  0
  160.4480  209.5140  153.8340 C   0  0  0  0  0  0  0  0  0  0  0  0
  159.3540  211.4100  155.4800 C   0  0  2  0  0  0  0  0  0  0  0  0
  161.9790  208.6180  151.4650 C   0  0  0  0  0  3  0  0  0  0  0  0
  161.9490  210.8870  149.0440 C   0  0  2  0  0  3  0  0  0  0  0  0
  161.8280  207.7610  152.6610 C   0  0  0  0  0  3  0  0  0  0  0  0
  160.8360  210.4040  152.6870 C   0  0  0  0  0  0  0  0  0  0  0  0
  161.1500  208.1720  153.7480 C   0  0  0  0  0  3  0  0  0  0  0  0
  160.4600  213.1350  150.1230 C   0  0  0  0  0  2  0  0  0  0  0  0
  1 23  1  0  0  0  0
  2 15  1  0  0  0  0
  4 22  1  6  0  0  0
  4 25  1  0  0  0  0
  5 10  1  0  0  0  0
  5 14  1  0  0  0  0
  6 17  1  0  0  0  0
  7  2  2  0  0  0  0
  7  4  1  0  0  0  0
  8 19  1  0  0  0  0
  8 13  1  0  0  0  0
  9 23  1  0  0  0  0
  9 16  1  0  0  0  0
 11 21  1  0  0  0  0
 12 16  1  0  0  0  0
 13 14  1  0  0  0  0
 15 25  2  0  0  0  0
 15  6  1  0  0  0  0
 16 27  1  0  0  0  0
 17 10  1  0  0  0  0
 17 21  1  0  0  0  0
 18 12  1  0  0  0  0
 18  9  1  0  0  0  0
 18 16  1  0  0  0  0
 19 21  1  0  0  0  0
 20 11  1  0  0  0  0
 21  3  1  0  0  0  0
 22 24  2  0  0  0  0
 23  7  1  0  0  0  0
 24 26  1  0  0  0  0
 25 20  1  0  0  0  0
 26 20  2  0  0  0  0
 27  2  1  0  0  0  0
M  END
>  <MODEL>
7

>  <REMARK>
 VINA RESULT:      -5.0      2.900      4.117
  Name = 
  0 active torsions:
  status: ('A' for Active; 'I' for Inactive)
                            x       y       z     vdW  Elec       q    Type
                         _______ _______ _______ _____ _____    ______ ____

>  <TORSDO>
F 0

$$$$
=
 OpenBabel11072413163D

 27 33  0  0  1  0  0  0  0  0999 V2000
  163.0560  208.9190  150.8030 F   0  0  0  0  0  0  0  0  0  0  0  0
  160.3590  209.5030  153.0050 C   0  0  0  0  0  0  0  0  0  0  0  0
  156.6970  214.0160  154.5890 O   0  0  0  0  0  1  0  0  0  0  0  0
  160.7250  210.8780  151.2610 C   0  0  2  0  0  3  0  0  0  0  0  0
  157.5700  211.9370  157.0600 C   0  0  0  0  0  2  0  0  0  0  0  0
  158.9570  211.0820  154.4530 N   0  0  0  0  0  2  0  0  0  0  0  0
  161.0160  209.5780  151.8380 C   0  0  0  0  0  0  0  0  0  0  0  0
  159.7090  213.4830  155.9850 C   0  0  0  0  0  2  0  0  0  0  0  0
  162.2120  207.6380  152.6230 C   0  0  1  0  0  3  0  0  0  0  0  0
  156.9020  211.4990  155.7630 C   0  0  0  0  0  2  0  0  0  0  0  0
  157.8530  213.4840  152.3280 S   0  0  0  0  0  0  0  0  0  0  0  0
  161.0100  205.9640  153.7800 N   0  0  0  0  0  2  0  0  0  0  0  0
  158.9020  213.7360  157.2610 C   0  0  0  0  0  2  0  0  0  0  0  0
  157.5640  213.3350  157.1390 O   0  0  0  0  0  0  0  0  0  0  0  0
  159.6450  210.7600  153.2430 C   0  0  0  0  0  0  0  0  0  0  0  0
  160.8590  207.1140  152.9640 C   0  0  2  0  0  0  0  0  0  0  0  0
  157.7110  211.8380  154.5010 C   0  0  1  0  0  3  0  0  0  0  0  0
  161.9920  206.2130  152.7560 N   0  0  1  0  0  0  0  0  0  0  0  0
  159.0710  214.0870  154.7360 C   0  0  0  0  0  2  0  0  0  0  0  0
  159.6020  213.0450  152.0750 C   0  0  0  0  0  0  0  0  0  0  0  0
  157.8430  213.3460  154.1530 C   0  0  2  0  0  0  0  0  0  0  0  0
  161.2120  211.4540  150.1680 C   0  0  0  0  0  3  0  0  0  0  0  0
  161.8850  208.4250  151.3450 C   0  0  2  0  0  3  0  0  0  0  0  0
  160.8130  212.8470  149.8730 C   0  0  0  0  0  3  0  0  0  0  0  0
  159.8490  211.5670  152.1970 C   0  0  0  0  0  0  0  0  0  0  0  0
  160.0640  213.5680  150.7290 C   0  0  0  0  0  3  0  0  0  0  0  0
  160.5350  208.2870  153.9120 C   0  0  0  0  0  2  0  0  0  0  0  0
  1 23  1  0  0  0  0
  2 15  1  0  0  0  0
  2 27  1  0  0  0  0
  4 22  1  1  0  0  0
  4  7  1  0  0  0  0
  4 25  1  0  0  0  0
  5 14  1  0  0  0  0
  6 17  1  0  0  0  0
  7  2  2  0  0  0  0
  8 13  1  0  0  0  0
  9 18  1  0  0  0  0
  9 16  1  0  0  0  0
 10  5  1  0  0  0  0
 11 21  1  0  0  0  0
 14 13  1  0  0  0  0
 15  6  1  0  0  0  0
 16 12  1  0  0  0  0
 16 27  1  0  0  0  0
 17 10  1  0  0  0  0
 18 16  1  0  0  0  0
 18 12  1  0  0  0  0
 19  8  1  0  0  0  0
 20 25  1  0  0  0  0
 20 11  1  0  0  0  0
 21 17  1  0  0  0  0
 21  3  1  0  0  0  0
 21 19  1  0  0  0  0
 23  7  1  0  0  0  0
 23  9  1  0  0  0  0
 24 22  2  0  0  0  0
 24 26  1  0  0  0  0
 25 15  2  0  0  0  0
 26 20  2  0  0  0  0
M  END
>  <MODEL>
8

>  <REMARK>
 VINA RESULT:      -4.4      2.313      4.284
  Name = 
  0 active torsions:
  status: ('A' for Active; 'I' for Inactive)
                            x       y       z     vdW  Elec       q    Type
                         _______ _______ _______ _____ _____    ______ ____

>  <TORSDO>
F 0

$$$$
=
 OpenBabel11072413163D

 27 33  0  0  1  0  0  0  0  0999 V2000
  157.8570  213.1150  145.2610 F   0  0  0  0  0  0  0  0  0  0  0  0
  160.6170  213.1730  143.0590 C   0  0  0  0  0  0  0  0  0  0  0  0
  161.6850  213.4670  137.1380 O   0  0  0  0  0  1  0  0  0  0  0  0
  158.5980  213.8960  142.3750 C   0  0  0  0  0  0  0  0  0  0  0  0
  163.8010  211.5560  138.8890 C   0  0  0  0  0  2  0  0  0  0  0  0
  161.6570  212.7100  140.7660 N   0  0  0  0  0  2  0  0  0  0  0  0
  159.4220  213.5670  143.5250 C   0  0  0  0  0  0  0  0  0  0  0  0
  161.1210  210.5930  138.7900 C   0  0  0  0  0  2  0  0  0  0  0  0
  160.1600  212.6320  145.6200 C   0  0  1  0  0  3  0  0  0  0  0  0
  163.5270  213.0270  139.1800 C   0  0  0  0  0  2  0  0  0  0  0  0
  159.7550  214.4530  138.5640 S   0  0  0  0  0  0  0  0  0  0  0  0
  162.4120  212.9470  146.2650 N   0  0  0  0  0  2  0  0  0  0  0  0
  162.3220  210.1480  137.9510 C   0  0  0  0  0  2  0  0  0  0  0  0
  163.2030  211.2030  137.6730 O   0  0  0  0  0  0  0  0  0  0  0  0
  160.6010  213.2010  141.5950 C   0  0  0  0  0  0  0  0  0  0  0  0
  161.4170  213.3880  145.3550 C   0  0  2  0  0  0  0  0  0  0  0  0
  162.0570  213.3320  139.5090 C   0  0  1  0  0  3  0  0  0  0  0  0
  161.0430  212.9870  146.7110 N   0  0  1  0  0  0  0  0  0  0  0  0
  160.3750  211.7850  138.1930 C   0  0  0  0  0  2  0  0  0  0  0  0
  158.7790  213.5800  139.8290 C   0  0  0  0  0  0  0  0  0  0  0  0
  161.0430  213.1730  138.3440 C   0  0  2  0  0  0  0  0  0  0  0  0
  157.3160  214.2410  142.3170 C   0  0  0  0  0  3  0  0  0  0  0  0
  159.1280  213.6000  145.0210 C   0  0  2  0  0  3  0  0  0  0  0  0
  156.6990  214.4150  140.9840 C   0  0  0  0  0  3  0  0  0  0  0  0
  159.4080  213.6480  141.1920 C   0  0  1  0  0  3  0  0  0  0  0  0
  157.3670  214.1360  139.8490 C   0  0  0  0  0  3  0  0  0  0  0  0
  161.6890  212.6640  144.0210 C   0  0  0  0  0  2  0  0  0  0  0  0
  2  7  1  0  0  0  0
  2 27  1  0  0  0  0
  3 21  1  0  0  0  0
  4  7  2  0  0  0  0
  5 10  1  0  0  0  0
  6 15  1  0  0  0  0
  7 23  1  0  0  0  0
  9 18  1  0  0  0  0
 10 17  1  0  0  0  0
 11 20  1  0  0  0  0
 12 18  1  0  0  0  0
 13  8  1  0  0  0  0
 14 13  1  0  0  0  0
 14  5  1  0  0  0  0
 15  2  2  0  0  0  0
 16  9  1  0  0  0  0
 16 12  1  0  0  0  0
 16 18  1  0  0  0  0
 17  6  1  0  0  0  0
 19 21  1  0  0  0  0
 19  8  1  0  0  0  0
 20 26  2  0  0  0  0
 20 25  1  0  0  0  0
 21 11  1  0  0  0  0
 21 17  1  0  0  0  0
 22  4  1  0  0  0  0
 23  1  1  0  0  0  0
 23  9  1  0  0  0  0
 24 22  2  0  0  0  0
 25 15  1  0  0  0  0
 25  4  1  0  0  0  0
 26 24  1  0  0  0  0
 27 16  1  0  0  0  0
M  END
>  <MODEL>
9

>  <REMARK>
 VINA RESULT:      -4.2     11.604     14.114
  Name = 
  0 active torsions:
  status: ('A' for Active; 'I' for Inactive)
                            x       y       z     vdW  Elec       q    Type
                         _______ _______ _______ _____ _____    ______ ____

>  <TORSDO>
F 0

$$$$
