=
 OpenBabel11072411163D

 28 32  0  0  1  0  0  0  0  0999 V2000
  161.4700  202.7760  152.0330 C   0  0  0  0  0  3  0  0  0  0  0  0
  160.9840  204.2630  147.2830 C   0  0  1  0  0  3  0  0  0  0  0  0
  161.9770  206.4870  147.2930 C   0  0  2  0  0  0  0  0  0  0  0  0
  160.7690  203.9870  152.5760 C   0  0  0  0  0  2  0  0  0  0  0  0
  160.7950  205.0990  151.6240 N   0  0  0  0  0  0  0  0  0  0  0  0
  162.8090  205.6370  146.3530 C   0  0  0  0  0  3  0  0  0  0  0  0
  160.3610  205.9150  149.2370 C   0  0  0  0  0  2  0  0  0  0  0  0
  161.6360  202.6040  150.7220 C   0  0  0  0  0  3  0  0  0  0  0  0
  161.3350  203.3350  148.3540 N   0  0  0  0  0  2  0  0  0  0  0  0
  160.9000  205.6650  147.8390 C   0  0  2  0  0  0  0  0  0  0  0  0
  161.2060  203.6270  149.7560 C   0  0  0  0  0  0  0  0  0  0  0  0
  162.1010  204.2880  146.2450 C   0  0  0  0  0  3  0  0  0  0  0  0
  160.6330  206.6820  146.9000 O   0  0  0  0  0  0  0  0  0  0  0  0
  160.8090  204.8410  150.1990 C   0  0  0  0  0  0  0  0  0  0  0  0
  161.4630  208.7970  153.6820 C   0  0  0  0  0  0  0  0  0  0  0  0
  161.9410  207.2850  151.7040 C   0  0  0  0  0  2  0  0  0  0  0  0
  160.7620  206.4480  152.1890 C   0  0  2  0  0  3  0  0  0  0  0  0
  160.9160  207.7590  154.3310 C   0  0  0  0  0  3  0  0  0  0  0  0
  160.7390  206.3990  153.7160 C   0  0  0  0  0  2  0  0  0  0  0  0
  161.7960  208.7180  152.2110 C   0  0  0  0  0  2  0  0  0  0  0  0
  161.6270  210.0860  154.3740 C   0  0  0  0  0  0  0  0  0  0  0  0
  161.1920  211.1520  153.8610 O   0  0  0  0  0  0  0  0  0  0  0  0
  162.2600  210.1380  155.6100 O   0  0  0  0  0  1  0  0  0  0  0  0
  162.5690  207.5860  148.1640 C   0  0  0  0  0  2  0  0  0  0  0  0
  161.6530  208.7970  148.1840 C   0  0  0  0  0  2  0  0  0  0  0  0
  162.3280  209.9570  148.8990 C   0  0  0  0  0  2  0  0  0  0  0  0
  161.9070  211.2920  148.3030 C   0  0  0  0  0  2  0  0  0  0  0  0
  163.0160  212.1270  148.1660 O   0  0  0  0  0  1  0  0  0  0  0  0
  1  4  1  0  0  0  0
  2 12  1  6  0  0  0
  2 10  1  0  0  0  0
  2  9  1  0  0  0  0
  3 10  1  0  0  0  0
  3 24  1  1  0  0  0
  5  4  1  0  0  0  0
  6  3  1  0  0  0  0
  7 14  1  0  0  0  0
  8  1  2  0  0  0  0
  9 11  1  0  0  0  0
 10  7  1  1  0  0  0
 11 14  2  0  0  0  0
 11  8  1  0  0  0  0
 12  6  2  0  0  0  0
 13  3  1  0  0  0  0
 13 10  1  0  0  0  0
 14  5  1  0  0  0  0
 15 18  2  0  0  0  0
 15 21  1  0  0  0  0
 16 17  1  0  0  0  0
 16 20  1  0  0  0  0
 17  5  1  6  0  0  0
 17 19  1  0  0  0  0
 19 18  1  0  0  0  0
 20 15  1  0  0  0  0
 21 23  1  0  0  0  0
 22 21  2  0  0  0  0
 24 25  1  0  0  0  0
 25 26  1  0  0  0  0
 27 26  1  0  0  0  0
 28 27  1  0  0  0  0
M  END
>  <MODEL>
1

>  <REMARK>
 VINA RESULT:      -7.6      0.000      0.000
  Name = 
  6 active torsions:
  status: ('A' for Active; 'I' for Inactive)
    1  A    between atoms: C_2  and  C_7
    2  A    between atoms: C_4  and  C_13
    3  A    between atoms: C_5  and  C_12
    4  A    between atoms: N_11  and  C_20
    5  A    between atoms: C_12  and  C_24
    6  A    between atoms: C_13  and  C_24
                            x       y       z     vdW  Elec       q    Type
                         _______ _______ _______ _____ _____    ______ ____

>  <TORSDO>
F 6

$$$$
=
 OpenBabel11072411163D

 28 32  0  0  1  0  0  0  0  0999 V2000
  161.5070  205.5470  153.5040 C   0  0  0  0  0  3  0  0  0  0  0  0
  160.2070  202.8880  149.4730 C   0  0  1  0  0  3  0  0  0  0  0  0
  161.7430  203.6890  147.7600 C   0  0  2  0  0  0  0  0  0  0  0  0
  161.3390  206.8610  152.7990 C   0  0  0  0  0  2  0  0  0  0  0  0
  161.4180  206.7100  151.3450 N   0  0  0  0  0  0  0  0  0  0  0  0
  162.0260  202.2120  147.9500 C   0  0  0  0  0  3  0  0  0  0  0  0
  160.6090  205.4800  149.2510 C   0  0  0  0  0  2  0  0  0  0  0  0
  161.2640  204.3940  152.8820 C   0  0  0  0  0  3  0  0  0  0  0  0
  160.5590  203.0850  150.8760 N   0  0  0  0  0  2  0  0  0  0  0  0
  160.6660  204.0800  148.6670 C   0  0  2  0  0  0  0  0  0  0  0  0
  160.8940  204.3560  151.4580 C   0  0  0  0  0  0  0  0  0  0  0  0
  160.9700  201.6870  148.9210 C   0  0  0  0  0  3  0  0  0  0  0  0
  160.4520  203.9980  147.2750 O   0  0  0  0  0  0  0  0  0  0  0  0
  160.9810  205.4820  150.7140 C   0  0  0  0  0  0  0  0  0  0  0  0
  161.9860  210.2520  149.0040 C   0  0  0  0  0  0  0  0  0  0  0  0
  161.5020  209.1760  151.2470 C   0  0  0  0  0  2  0  0  0  0  0  0
  161.9120  207.8620  150.5900 C   0  0  2  0  0  3  0  0  0  0  0  0
  161.7300  209.0830  148.3980 C   0  0  0  0  0  3  0  0  0  0  0  0
  161.4200  207.8160  149.1440 C   0  0  0  0  0  2  0  0  0  0  0  0
  162.1460  210.3440  150.5030 C   0  0  0  0  0  2  0  0  0  0  0  0
  162.2490  211.4520  148.1910 C   0  0  0  0  0  0  0  0  0  0  0  0
  163.3910  211.9850  148.1820 O   0  0  0  0  0  1  0  0  0  0  0  0
  161.2350  212.0060  147.4190 O   0  0  0  0  0  0  0  0  0  0  0  0
  162.8250  204.7080  147.4320 C   0  0  0  0  0  2  0  0  0  0  0  0
  163.1350  204.6900  145.9460 C   0  0  0  0  0  2  0  0  0  0  0  0
  162.4960  205.8880  145.2600 C   0  0  0  0  0  2  0  0  0  0  0  0
  161.2340  205.4870  144.5120 C   0  0  0  0  0  2  0  0  0  0  0  0
  160.1410  206.2080  144.9950 O   0  0  0  0  0  1  0  0  0  0  0  0
  2 12  1  6  0  0  0
  2  9  1  0  0  0  0
  3 24  1  6  0  0  0
  3  6  1  0  0  0  0
  3 10  1  0  0  0  0
  4  1  1  0  0  0  0
  5  4  1  0  0  0  0
  6 12  2  0  0  0  0
  7 14  1  0  0  0  0
  8  1  2  0  0  0  0
  9 11  1  0  0  0  0
 10  7  1  1  0  0  0
 10  2  1  0  0  0  0
 11  8  1  0  0  0  0
 13  3  1  0  0  0  0
 13 10  1  0  0  0  0
 14  5  1  0  0  0  0
 14 11  2  0  0  0  0
 15 20  1  0  0  0  0
 17 19  1  6  0  0  0
 17 16  1  0  0  0  0
 17  5  1  0  0  0  0
 18 15  2  0  0  0  0
 18 19  1  0  0  0  0
 20 16  1  0  0  0  0
 21 15  1  0  0  0  0
 22 21  1  0  0  0  0
 23 21  2  0  0  0  0
 25 24  1  0  0  0  0
 26 25  1  0  0  0  0
 27 28  1  0  0  0  0
 27 26  1  0  0  0  0
M  END
>  <MODEL>
2

>  <REMARK>
 VINA RESULT:      -6.4      2.375      4.279
  Name = 
  6 active torsions:
  status: ('A' for Active; 'I' for Inactive)
    1  A    between atoms: C_2  and  C_7
    2  A    between atoms: C_4  and  C_13
    3  A    between atoms: C_5  and  C_12
    4  A    between atoms: N_11  and  C_20
    5  A    between atoms: C_12  and  C_24
    6  A    between atoms: C_13  and  C_24
                            x       y       z     vdW  Elec       q    Type
                         _______ _______ _______ _____ _____    ______ ____

>  <TORSDO>
F 6

$$$$
=
 OpenBabel11072411163D

 28 32  0  0  1  0  0  0  0  0999 V2000
  160.6220  207.2320  154.2390 C   0  0  0  0  0  3  0  0  0  0  0  0
  162.5790  210.0350  150.5890 C   0  0  1  0  0  3  0  0  0  0  0  0
  161.8120  208.9220  148.5620 C   0  0  2  0  0  0  0  0  0  0  0  0
  161.2340  205.9660  153.7150 C   0  0  0  0  0  2  0  0  0  0  0  0
  161.5750  206.0780  152.2960 N   0  0  0  0  0  0  0  0  0  0  0  0
  161.2200  210.3180  148.5500 C   0  0  0  0  0  3  0  0  0  0  0  0
  162.7450  207.4110  150.4500 C   0  0  0  0  0  2  0  0  0  0  0  0
  160.8270  208.4010  153.6330 C   0  0  0  0  0  3  0  0  0  0  0  0
  161.8580  209.7940  151.8360 N   0  0  0  0  0  2  0  0  0  0  0  0
  162.6140  208.7650  149.7740 C   0  0  2  0  0  0  0  0  0  0  0  0
  161.6000  208.4900  152.3850 C   0  0  0  0  0  0  0  0  0  0  0  0
  161.8140  211.0540  149.7490 C   0  0  0  0  0  3  0  0  0  0  0  0
  163.2240  208.8660  148.5060 O   0  0  0  0  0  0  0  0  0  0  0  0
  161.9520  207.3590  151.7330 C   0  0  0  0  0  0  0  0  0  0  0  0
  160.6270  202.4990  150.1410 C   0  0  0  0  0  0  0  0  0  0  0  0
  160.8160  205.0260  150.1950 C   0  0  0  0  0  2  0  0  0  0  0  0
  161.5560  204.8400  151.5150 C   0  0  2  0  0  3  0  0  0  0  0  0
  160.7020  202.4740  151.4800 C   0  0  0  0  0  3  0  0  0  0  0  0
  160.9310  203.7000  152.3180 C   0  0  0  0  0  2  0  0  0  0  0  0
  160.9330  203.7530  149.3590 C   0  0  0  0  0  2  0  0  0  0  0  0
  160.3680  201.2510  149.4030 C   0  0  0  0  0  0  0  0  0  0  0  0
  159.2080  200.7600  149.3540 O   0  0  0  0  0  1  0  0  0  0  0  0
  161.4060  200.6040  148.7430 O   0  0  0  0  0  0  0  0  0  0  0  0
  161.0870  207.7060  148.0050 C   0  0  0  0  0  2  0  0  0  0  0  0
  162.0100  206.9100  147.0990 C   0  0  0  0  0  2  0  0  0  0  0  0
  161.2120  205.8920  146.2970 C   0  0  0  0  0  2  0  0  0  0  0  0
  162.1170  205.0810  145.3820 C   0  0  0  0  0  2  0  0  0  0  0  0
  163.3130  204.7810  146.0330 O   0  0  0  0  0  1  0  0  0  0  0  0
  2 12  1  6  0  0  0
  2  9  1  0  0  0  0
  3 24  1  6  0  0  0
  3 10  1  0  0  0  0
  4  1  1  0  0  0  0
  5  4  1  0  0  0  0
  6  3  1  0  0  0  0
  6 12  2  0  0  0  0
  7 14  1  0  0  0  0
  8  1  2  0  0  0  0
  9 11  1  0  0  0  0
 10  7  1  1  0  0  0
 10  2  1  0  0  0  0
 11  8  1  0  0  0  0
 13  3  1  0  0  0  0
 13 10  1  0  0  0  0
 14  5  1  0  0  0  0
 14 11  2  0  0  0  0
 15 18  2  0  0  0  0
 17 16  1  6  0  0  0
 17  5  1  0  0  0  0
 17 19  1  0  0  0  0
 18 19  1  0  0  0  0
 20 15  1  0  0  0  0
 20 16  1  0  0  0  0
 21 15  1  0  0  0  0
 22 21  1  0  0  0  0
 23 21  2  0  0  0  0
 25 24  1  0  0  0  0
 26 25  1  0  0  0  0
 27 28  1  0  0  0  0
 27 26  1  0  0  0  0
M  END
>  <MODEL>
3

>  <REMARK>
 VINA RESULT:      -6.3      2.433      6.003
  Name = 
  6 active torsions:
  status: ('A' for Active; 'I' for Inactive)
    1  A    between atoms: C_2  and  C_7
    2  A    between atoms: C_4  and  C_13
    3  A    between atoms: C_5  and  C_12
    4  A    between atoms: N_11  and  C_20
    5  A    between atoms: C_12  and  C_24
    6  A    between atoms: C_13  and  C_24
                            x       y       z     vdW  Elec       q    Type
                         _______ _______ _______ _____ _____    ______ ____

>  <TORSDO>
F 6

$$$$
=
 OpenBabel11072411163D

 28 32  0  0  1  0  0  0  0  0999 V2000
  160.4180  207.0360  156.3050 C   0  0  0  0  0  3  0  0  0  0  0  0
  159.7780  211.9960  156.3270 C   0  0  1  0  0  3  0  0  0  0  0  0
  158.5990  212.4130  154.2370 C   0  0  2  0  0  0  0  0  0  0  0  0
  161.0960  207.0410  154.9660 C   0  0  0  0  0  2  0  0  0  0  0  0
  160.7690  208.2440  154.1990 N   0  0  0  0  0  0  0  0  0  0  0  0
  157.6780  212.8530  155.3580 C   0  0  0  0  0  3  0  0  0  0  0  0
  160.6250  210.7990  154.1390 C   0  0  0  0  0  2  0  0  0  0  0  0
  160.0050  208.1670  156.8750 C   0  0  0  0  0  3  0  0  0  0  0  0
  159.7450  210.6510  156.8930 N   0  0  0  0  0  2  0  0  0  0  0  0
  159.8390  211.9060  154.8210 C   0  0  2  0  0  0  0  0  0  0  0  0
  160.1280  209.4610  156.1830 C   0  0  0  0  0  0  0  0  0  0  0  0
  158.4750  212.7180  156.6540 C   0  0  0  0  0  3  0  0  0  0  0  0
  159.8090  213.1360  154.1310 O   0  0  0  0  0  0  0  0  0  0  0  0
  160.4890  209.4920  154.8800 C   0  0  0  0  0  0  0  0  0  0  0  0
  161.6680  207.5990  150.0600 C   0  0  0  0  0  0  0  0  0  0  0  0
  160.9540  206.6680  152.3070 C   0  0  0  0  0  2  0  0  0  0  0  0
  160.7870  208.1200  152.7410 C   0  0  2  0  0  3  0  0  0  0  0  0
  162.0760  208.7240  150.6660 C   0  0  0  0  0  3  0  0  0  0  0  0
  161.8910  208.9860  152.1340 C   0  0  0  0  0  2  0  0  0  0  0  0
  160.8370  206.5700  150.7880 C   0  0  0  0  0  2  0  0  0  0  0  0
  161.9200  207.4130  148.6210 C   0  0  0  0  0  0  0  0  0  0  0  0
  162.8360  208.0560  148.0400 O   0  0  0  0  0  1  0  0  0  0  0  0
  161.1500  206.5180  147.8890 O   0  0  0  0  0  0  0  0  0  0  0  0
  158.0950  211.7900  152.9420 C   0  0  0  0  0  2  0  0  0  0  0  0
  158.3690  212.7150  151.7690 C   0  0  0  0  0  2  0  0  0  0  0  0
  157.3670  213.8590  151.7550 C   0  0  0  0  0  2  0  0  0  0  0  0
  156.9250  214.1870  150.3370 C   0  0  0  0  0  2  0  0  0  0  0  0
  157.1680  213.1010  149.4960 O   0  0  0  0  0  1  0  0  0  0  0  0
  1  8  2  0  0  0  0
  2 12  1  6  0  0  0
  2  9  1  0  0  0  0
  3 24  1  6  0  0  0
  3 10  1  0  0  0  0
  3  6  1  0  0  0  0
  4  1  1  0  0  0  0
  5 14  1  0  0  0  0
  5  4  1  0  0  0  0
  6 12  2  0  0  0  0
  7 14  1  0  0  0  0
 10  7  1  6  0  0  0
 10  2  1  0  0  0  0
 11  8  1  0  0  0  0
 11  9  1  0  0  0  0
 13  3  1  0  0  0  0
 13 10  1  0  0  0  0
 14 11  2  0  0  0  0
 15 18  2  0  0  0  0
 15 20  1  0  0  0  0
 16 17  1  0  0  0  0
 17 19  1  1  0  0  0
 17  5  1  0  0  0  0
 18 19  1  0  0  0  0
 20 16  1  0  0  0  0
 21 15  1  0  0  0  0
 22 21  1  0  0  0  0
 23 21  2  0  0  0  0
 25 24  1  0  0  0  0
 26 25  1  0  0  0  0
 27 26  1  0  0  0  0
 28 27  1  0  0  0  0
M  END
>  <MODEL>
4

>  <REMARK>
 VINA RESULT:      -5.7      3.572      7.668
  Name = 
  6 active torsions:
  status: ('A' for Active; 'I' for Inactive)
    1  A    between atoms: C_2  and  C_7
    2  A    between atoms: C_4  and  C_13
    3  A    between atoms: C_5  and  C_12
    4  A    between atoms: N_11  and  C_20
    5  A    between atoms: C_12  and  C_24
    6  A    between atoms: C_13  and  C_24
                            x       y       z     vdW  Elec       q    Type
                         _______ _______ _______ _____ _____    ______ ____

>  <TORSDO>
F 6

$$$$
=
 OpenBabel11072411163D

 28 32  0  0  1  0  0  0  0  0999 V2000
  160.4370  205.1530  144.4630 C   0  0  0  0  0  3  0  0  0  0  0  0
  161.5810  201.4720  147.6510 C   0  0  1  0  0  3  0  0  0  0  0  0
  160.6520  202.2560  149.7610 C   0  0  2  0  0  0  0  0  0  0  0  0
  161.0910  206.2060  145.3080 C   0  0  0  0  0  2  0  0  0  0  0  0
  161.2180  205.7800  146.7030 N   0  0  0  0  0  0  0  0  0  0  0  0
  159.9300  200.9700  149.4120 C   0  0  0  0  0  3  0  0  0  0  0  0
  161.9830  203.9780  148.3530 C   0  0  0  0  0  2  0  0  0  0  0  0
  160.4410  203.8720  144.8310 C   0  0  0  0  0  3  0  0  0  0  0  0
  161.0690  202.0390  146.4060 N   0  0  0  0  0  2  0  0  0  0  0  0
  161.6260  202.5460  148.7120 C   0  0  2  0  0  0  0  0  0  0  0  0
  161.0190  203.4460  146.1150 C   0  0  0  0  0  0  0  0  0  0  0  0
  160.6110  200.4130  148.1640 C   0  0  0  0  0  3  0  0  0  0  0  0
  162.0400  202.1250  149.9930 O   0  0  0  0  0  0  0  0  0  0  0  0
  161.3850  204.3770  147.0260 C   0  0  0  0  0  0  0  0  0  0  0  0
  161.6370  208.2600  150.1700 C   0  0  0  0  0  0  0  0  0  0  0  0
  162.6240  207.3100  148.0380 C   0  0  0  0  0  2  0  0  0  0  0  0
  161.2100  206.8340  147.7170 C   0  0  2  0  0  3  0  0  0  0  0  0
  160.6640  207.3390  150.1210 C   0  0  0  0  0  3  0  0  0  0  0  0
  160.5080  206.3620  148.9890 C   0  0  0  0  0  2  0  0  0  0  0  0
  162.5600  208.4950  148.9990 C   0  0  0  0  0  2  0  0  0  0  0  0
  161.7340  209.1570  151.3350 C   0  0  0  0  0  0  0  0  0  0  0  0
  162.7040  209.9530  151.4560 O   0  0  0  0  0  0  0  0  0  0  0  0
  160.7470  209.1360  152.3130 O   0  0  0  0  0  1  0  0  0  0  0  0
  159.9780  203.4220  150.4720 C   0  0  0  0  0  2  0  0  0  0  0  0
  160.4530  203.5090  151.9110 C   0  0  0  0  0  2  0  0  0  0  0  0
  161.5120  204.5930  152.0520 C   0  0  0  0  0  2  0  0  0  0  0  0
  161.2060  205.5130  153.2240 C   0  0  0  0  0  2  0  0  0  0  0  0
  162.2770  206.3790  153.4460 O   0  0  0  0  0  1  0  0  0  0  0  0
  1  8  2  0  0  0  0
  1  4  1  0  0  0  0
  2 12  1  1  0  0  0
  2 10  1  0  0  0  0
  3 13  1  0  0  0  0
  3 24  1  1  0  0  0
  4  5  1  0  0  0  0
  5 14  1  0  0  0  0
  6  3  1  0  0  0  0
  8 11  1  0  0  0  0
  9  2  1  0  0  0  0
 10  7  1  6  0  0  0
 10  3  1  0  0  0  0
 10 13  1  0  0  0  0
 11  9  1  0  0  0  0
 11 14  2  0  0  0  0
 12  6  2  0  0  0  0
 14  7  1  0  0  0  0
 15 21  1  0  0  0  0
 16 20  1  0  0  0  0
 17  5  1  6  0  0  0
 17 16  1  0  0  0  0
 17 19  1  0  0  0  0
 18 15  2  0  0  0  0
 19 18  1  0  0  0  0
 20 15  1  0  0  0  0
 21 22  2  0  0  0  0
 21 23  1  0  0  0  0
 24 25  1  0  0  0  0
 25 26  1  0  0  0  0
 26 27  1  0  0  0  0
 27 28  1  0  0  0  0
M  END
>  <MODEL>
5

>  <REMARK>
 VINA RESULT:      -5.6      2.383      5.079
  Name = 
  6 active torsions:
  status: ('A' for Active; 'I' for Inactive)
    1  A    between atoms: C_2  and  C_7
    2  A    between atoms: C_4  and  C_13
    3  A    between atoms: C_5  and  C_12
    4  A    between atoms: N_11  and  C_20
    5  A    between atoms: C_12  and  C_24
    6  A    between atoms: C_13  and  C_24
                            x       y       z     vdW  Elec       q    Type
                         _______ _______ _______ _____ _____    ______ ____

>  <TORSDO>
F 6

$$$$
=
 OpenBabel11072411163D

 28 32  0  0  1  0  0  0  0  0999 V2000
  160.4250  202.9530  151.8860 C   0  0  0  0  0  3  0  0  0  0  0  0
  161.9560  207.4680  153.3960 C   0  0  1  0  0  3  0  0  0  0  0  0
  161.3780  208.9080  151.5180 C   0  0  2  0  0  0  0  0  0  0  0  0
  161.2240  203.0100  150.6160 C   0  0  0  0  0  2  0  0  0  0  0  0
  161.5520  204.3870  150.2450 N   0  0  0  0  0  0  0  0  0  0  0  0
  160.5810  209.3980  152.7110 C   0  0  0  0  0  3  0  0  0  0  0  0
  162.5180  206.6490  150.9570 C   0  0  0  0  0  2  0  0  0  0  0  0
  160.4540  203.9530  152.7660 C   0  0  0  0  0  3  0  0  0  0  0  0
  161.2740  206.1840  153.5300 N   0  0  0  0  0  2  0  0  0  0  0  0
  162.1870  207.7640  151.9330 C   0  0  2  0  0  0  0  0  0  0  0  0
  161.2120  205.1860  152.4980 C   0  0  0  0  0  0  0  0  0  0  0  0
  161.0510  208.5820  153.9140 C   0  0  0  0  0  3  0  0  0  0  0  0
  162.7810  209.0110  151.6460 O   0  0  0  0  0  0  0  0  0  0  0  0
  161.7340  205.3970  151.2680 C   0  0  0  0  0  0  0  0  0  0  0  0
  161.2140  204.8660  146.0010 C   0  0  0  0  0  0  0  0  0  0  0  0
  160.7590  205.7400  148.3370 C   0  0  0  0  0  2  0  0  0  0  0  0
  161.7240  204.6610  148.8180 C   0  0  2  0  0  3  0  0  0  0  0  0
  161.5070  203.6640  146.5180 C   0  0  0  0  0  3  0  0  0  0  0  0
  161.5470  203.3860  147.9940 C   0  0  0  0  0  2  0  0  0  0  0  0
  161.0610  206.0850  146.8800 C   0  0  0  0  0  2  0  0  0  0  0  0
  161.1670  205.0400  144.5390 C   0  0  0  0  0  0  0  0  0  0  0  0
  161.9620  205.8280  143.9590 O   0  0  0  0  0  1  0  0  0  0  0  0
  160.2450  204.3280  143.7820 O   0  0  0  0  0  0  0  0  0  0  0  0
  160.8480  208.9460  150.0920 C   0  0  0  0  0  2  0  0  0  0  0  0
  161.8760  209.5650  149.1620 C   0  0  0  0  0  2  0  0  0  0  0  0
  161.9560  211.0670  149.3900 C   0  0  0  0  0  2  0  0  0  0  0  0
  161.8150  211.8310  148.0820 C   0  0  0  0  0  2  0  0  0  0  0  0
  163.0670  212.2600  147.6400 O   0  0  0  0  0  1  0  0  0  0  0  0
  1  8  2  0  0  0  0
  2  9  1  0  0  0  0
  2 12  1  6  0  0  0
  3 24  1  6  0  0  0
  3 13  1  0  0  0  0
  3 10  1  0  0  0  0
  3  6  1  0  0  0  0
  4  1  1  0  0  0  0
  5  4  1  0  0  0  0
  5 14  1  0  0  0  0
  6 12  2  0  0  0  0
  7 14  1  0  0  0  0
 10  7  1  6  0  0  0
 10  2  1  0  0  0  0
 11  8  1  0  0  0  0
 11  9  1  0  0  0  0
 13 10  1  0  0  0  0
 14 11  2  0  0  0  0
 15 18  2  0  0  0  0
 15 20  1  0  0  0  0
 16 17  1  0  0  0  0
 17 19  1  6  0  0  0
 17  5  1  0  0  0  0
 18 19  1  0  0  0  0
 20 16  1  0  0  0  0
 21 15  1  0  0  0  0
 22 21  1  0  0  0  0
 23 21  2  0  0  0  0
 25 26  1  0  0  0  0
 25 24  1  0  0  0  0
 27 26  1  0  0  0  0
 28 27  1  0  0  0  0
M  END
>  <MODEL>
6

>  <REMARK>
 VINA RESULT:      -5.6      1.675      6.091
  Name = 
  6 active torsions:
  status: ('A' for Active; 'I' for Inactive)
    1  A    between atoms: C_2  and  C_7
    2  A    between atoms: C_4  and  C_13
    3  A    between atoms: C_5  and  C_12
    4  A    between atoms: N_11  and  C_20
    5  A    between atoms: C_12  and  C_24
    6  A    between atoms: C_13  and  C_24
                            x       y       z     vdW  Elec       q    Type
                         _______ _______ _______ _____ _____    ______ ____

>  <TORSDO>
F 6

$$$$
=
 OpenBabel11072411163D

 28 32  0  0  1  0  0  0  0  0999 V2000
  161.2300  206.8570  150.9960 C   0  0  0  0  0  3  0  0  0  0  0  0
  161.1260  208.9090  155.5560 C   0  0  1  0  0  3  0  0  0  0  0  0
  160.1700  211.1130  155.1520 C   0  0  2  0  0  0  0  0  0  0  0  0
  162.0100  207.9960  150.4060 C   0  0  0  0  0  2  0  0  0  0  0  0
  161.8770  209.2150  151.2060 N   0  0  0  0  0  0  0  0  0  0  0  0
  159.2140  210.3800  156.0730 C   0  0  0  0  0  3  0  0  0  0  0  0
  162.0130  210.3140  153.5140 C   0  0  0  0  0  2  0  0  0  0  0  0
  160.8960  206.8440  152.2860 C   0  0  0  0  0  3  0  0  0  0  0  0
  160.9020  207.8570  154.5680 N   0  0  0  0  0  2  0  0  0  0  0  0
  161.2970  210.2330  154.8510 C   0  0  2  0  0  0  0  0  0  0  0  0
  161.2120  207.9780  153.1690 C   0  0  0  0  0  0  0  0  0  0  0  0
  159.8850  209.0560  156.4320 C   0  0  0  0  0  3  0  0  0  0  0  0
  161.4550  211.3580  155.6870 O   0  0  0  0  0  0  0  0  0  0  0  0
  161.6780  209.1310  152.6380 C   0  0  0  0  0  0  0  0  0  0  0  0
  161.5320  212.6290  148.6420 C   0  0  0  0  0  0  0  0  0  0  0  0
  160.7680  211.3630  150.7010 C   0  0  0  0  0  2  0  0  0  0  0  0
  161.9990  210.4860  150.4920 C   0  0  2  0  0  3  0  0  0  0  0  0
  162.1590  211.5260  148.2060 C   0  0  0  0  0  3  0  0  0  0  0  0
  162.2380  210.2530  149.0010 C   0  0  0  0  0  2  0  0  0  0  0  0
  160.9940  212.7260  150.0490 C   0  0  0  0  0  2  0  0  0  0  0  0
  161.4770  213.8240  147.7810 C   0  0  0  0  0  0  0  0  0  0  0  0
  160.3700  214.2920  147.4010 O   0  0  0  0  0  1  0  0  0  0  0  0
  162.6510  214.4520  147.3860 O   0  0  0  0  0  0  0  0  0  0  0  0
  159.7090  212.0970  154.0860 C   0  0  0  0  0  2  0  0  0  0  0  0
  158.3250  211.7240  153.5850 C   0  0  0  0  0  2  0  0  0  0  0  0
  157.4470  212.9630  153.4890 C   0  0  0  0  0  2  0  0  0  0  0  0
  157.9610  213.9200  152.4240 C   0  0  0  0  0  2  0  0  0  0  0  0
  157.7620  213.3770  151.1540 O   0  0  0  0  0  1  0  0  0  0  0  0
  1  8  2  0  0  0  0
  2 12  1  1  0  0  0
  3 24  1  6  0  0  0
  3 13  1  0  0  0  0
  3  6  1  0  0  0  0
  4  1  1  0  0  0  0
  4  5  1  0  0  0  0
  5 14  1  0  0  0  0
  6 12  2  0  0  0  0
  8 11  1  0  0  0  0
  9  2  1  0  0  0  0
 10  7  1  6  0  0  0
 10  3  1  0  0  0  0
 10  2  1  0  0  0  0
 10 13  1  0  0  0  0
 11  9  1  0  0  0  0
 14 11  2  0  0  0  0
 14  7  1  0  0  0  0
 15 20  1  0  0  0  0
 17 19  1  6  0  0  0
 17 16  1  0  0  0  0
 17  5  1  0  0  0  0
 18 15  2  0  0  0  0
 18 19  1  0  0  0  0
 20 16  1  0  0  0  0
 21 15  1  0  0  0  0
 22 21  1  0  0  0  0
 23 21  2  0  0  0  0
 25 24  1  0  0  0  0
 26 25  1  0  0  0  0
 27 26  1  0  0  0  0
 28 27  1  0  0  0  0
M  END
>  <MODEL>
7

>  <REMARK>
 VINA RESULT:      -5.5      3.310      7.261
  Name = 
  6 active torsions:
  status: ('A' for Active; 'I' for Inactive)
    1  A    between atoms: C_2  and  C_7
    2  A    between atoms: C_4  and  C_13
    3  A    between atoms: C_5  and  C_12
    4  A    between atoms: N_11  and  C_20
    5  A    between atoms: C_12  and  C_24
    6  A    between atoms: C_13  and  C_24
                            x       y       z     vdW  Elec       q    Type
                         _______ _______ _______ _____ _____    ______ ____

>  <TORSDO>
F 6

$$$$
=
 OpenBabel11072411163D

 28 32  0  0  1  0  0  0  0  0999 V2000
  162.4610  210.7760  149.3020 C   0  0  0  0  0  3  0  0  0  0  0  0
  160.4470  209.5740  153.7190 C   0  0  1  0  0  3  0  0  0  0  0  0
  161.3590  207.3590  154.1610 C   0  0  2  0  0  0  0  0  0  0  0  0
  161.9570  209.5300  148.6340 C   0  0  0  0  0  2  0  0  0  0  0  0
  161.6590  208.4770  149.6070 N   0  0  0  0  0  0  0  0  0  0  0  0
  161.8540  208.2700  155.2680 C   0  0  0  0  0  3  0  0  0  0  0  0
  160.4660  207.8040  151.7690 C   0  0  0  0  0  2  0  0  0  0  0  0
  162.1980  211.0270  150.5830 C   0  0  0  0  0  3  0  0  0  0  0  0
  161.1370  210.4380  152.7660 N   0  0  0  0  0  2  0  0  0  0  0  0
  160.5280  208.1410  153.2490 C   0  0  2  0  0  0  0  0  0  0  0  0
  161.4650  210.0620  151.4180 C   0  0  0  0  0  0  0  0  0  0  0  0
  161.1690  209.6190  155.0620 C   0  0  0  0  0  3  0  0  0  0  0  0
  159.9580  207.1800  154.1100 O   0  0  0  0  0  0  0  0  0  0  0  0
  161.2160  208.8200  150.9420 C   0  0  0  0  0  0  0  0  0  0  0  0
  161.4150  204.6740  147.6490 C   0  0  0  0  0  0  0  0  0  0  0  0
  162.3320  207.0370  147.7170 C   0  0  0  0  0  2  0  0  0  0  0  0
  161.7920  207.0960  149.1420 C   0  0  2  0  0  3  0  0  0  0  0  0
  160.5030  205.0110  148.5730 C   0  0  0  0  0  3  0  0  0  0  0  0
  160.4550  206.3600  149.2340 C   0  0  0  0  0  2  0  0  0  0  0  0
  162.5770  205.5820  147.3220 C   0  0  0  0  0  2  0  0  0  0  0  0
  161.3670  203.3390  147.0300 C   0  0  0  0  0  0  0  0  0  0  0  0
  161.2050  202.3070  147.7370 O   0  0  0  0  0  1  0  0  0  0  0  0
  161.4930  203.2040  145.6530 O   0  0  0  0  0  0  0  0  0  0  0  0
  162.1850  206.2140  153.5940 C   0  0  0  0  0  2  0  0  0  0  0  0
  161.3010  205.0120  153.3130 C   0  0  0  0  0  2  0  0  0  0  0  0
  161.7010  204.3590  151.9990 C   0  0  0  0  0  2  0  0  0  0  0  0
  160.8090  203.1690  151.6810 C   0  0  0  0  0  2  0  0  0  0  0  0
  161.5730  202.1210  151.1650 O   0  0  0  0  0  1  0  0  0  0  0  0
  1  8  2  0  0  0  0
  2 12  1  1  0  0  0
  3 24  1  6  0  0  0
  3  6  1  0  0  0  0
  4  1  1  0  0  0  0
  4  5  1  0  0  0  0
  5 14  1  0  0  0  0
  8 11  1  0  0  0  0
  9  2  1  0  0  0  0
 10  7  1  6  0  0  0
 10  2  1  0  0  0  0
 10 13  1  0  0  0  0
 10  3  1  0  0  0  0
 11  9  1  0  0  0  0
 12  6  2  0  0  0  0
 13  3  1  0  0  0  0
 14 11  2  0  0  0  0
 14  7  1  0  0  0  0
 15 18  2  0  0  0  0
 17 16  1  6  0  0  0
 17 19  1  0  0  0  0
 17  5  1  0  0  0  0
 18 19  1  0  0  0  0
 20 15  1  0  0  0  0
 20 16  1  0  0  0  0
 21 15  1  0  0  0  0
 21 22  1  0  0  0  0
 23 21  2  0  0  0  0
 25 24  1  0  0  0  0
 26 25  1  0  0  0  0
 27 26  1  0  0  0  0
 28 27  1  0  0  0  0
M  END
>  <MODEL>
8

>  <REMARK>
 VINA RESULT:      -5.4      2.617      7.539
  Name = 
  6 active torsions:
  status: ('A' for Active; 'I' for Inactive)
    1  A    between atoms: C_2  and  C_7
    2  A    between atoms: C_4  and  C_13
    3  A    between atoms: C_5  and  C_12
    4  A    between atoms: N_11  and  C_20
    5  A    between atoms: C_12  and  C_24
    6  A    between atoms: C_13  and  C_24
                            x       y       z     vdW  Elec       q    Type
                         _______ _______ _______ _____ _____    ______ ____

>  <TORSDO>
F 6

$$$$
=
 OpenBabel11072411163D

 28 32  0  0  1  0  0  0  0  0999 V2000
  161.1920  205.5350  152.6960 C   0  0  0  0  0  3  0  0  0  0  0  0
  161.2350  209.0070  156.2960 C   0  0  1  0  0  3  0  0  0  0  0  0
  159.9380  210.8270  155.3280 C   0  0  2  0  0  0  0  0  0  0  0  0
  161.7400  206.4750  151.6620 C   0  0  0  0  0  2  0  0  0  0  0  0
  161.5100  207.8750  152.0270 N   0  0  0  0  0  0  0  0  0  0  0  0
  159.1910  210.3620  156.5620 C   0  0  0  0  0  3  0  0  0  0  0  0
  161.7100  209.7080  153.8030 C   0  0  0  0  0  2  0  0  0  0  0  0
  160.9890  205.9320  153.9520 C   0  0  0  0  0  3  0  0  0  0  0  0
  161.0710  207.6630  155.7500 N   0  0  0  0  0  2  0  0  0  0  0  0
  161.1450  210.0180  155.1780 C   0  0  2  0  0  0  0  0  0  0  0  0
  161.2230  207.3270  154.3610 C   0  0  0  0  0  0  0  0  0  0  0  0
  160.0760  209.3180  157.2390 C   0  0  0  0  0  3  0  0  0  0  0  0
  161.2200  211.3720  155.5680 O   0  0  0  0  0  0  0  0  0  0  0  0
  161.4650  208.2680  153.4210 C   0  0  0  0  0  0  0  0  0  0  0  0
  162.0010  210.8180  148.9540 C   0  0  0  0  0  0  0  0  0  0  0  0
  162.2240  208.4140  149.7250 C   0  0  0  0  0  2  0  0  0  0  0  0
  161.3790  208.8280  150.9260 C   0  0  2  0  0  3  0  0  0  0  0  0
  161.8350  211.2030  150.2280 C   0  0  0  0  0  3  0  0  0  0  0  0
  161.7560  210.2390  151.3790 C   0  0  0  0  0  2  0  0  0  0  0  0
  161.9560  209.3620  148.5580 C   0  0  0  0  0  2  0  0  0  0  0  0
  162.1010  211.8350  147.8930 C   0  0  0  0  0  0  0  0  0  0  0  0
  163.1900  212.4300  147.6720 O   0  0  0  0  0  1  0  0  0  0  0  0
  160.9890  212.1450  147.1190 O   0  0  0  0  0  0  0  0  0  0  0  0
  159.2390  211.3320  154.0730 C   0  0  0  0  0  2  0  0  0  0  0  0
  158.5290  212.6440  154.3550 C   0  0  0  0  0  2  0  0  0  0  0  0
  158.0230  213.2590  153.0590 C   0  0  0  0  0  2  0  0  0  0  0  0
  158.7610  212.6920  151.8550 C   0  0  0  0  0  2  0  0  0  0  0  0
  159.4980  213.6970  151.2280 O   0  0  0  0  0  1  0  0  0  0  0  0
  1  8  2  0  0  0  0
  2 12  1  1  0  0  0
  3 24  1  6  0  0  0
  3 13  1  0  0  0  0
  3  6  1  0  0  0  0
  4  5  1  0  0  0  0
  4  1  1  0  0  0  0
  5 14  1  0  0  0  0
  6 12  2  0  0  0  0
  8 11  1  0  0  0  0
  9  2  1  0  0  0  0
 10  7  1  6  0  0  0
 10  3  1  0  0  0  0
 10 13  1  0  0  0  0
 10  2  1  0  0  0  0
 11  9  1  0  0  0  0
 14  7  1  0  0  0  0
 14 11  2  0  0  0  0
 15 18  2  0  0  0  0
 17 16  1  6  0  0  0
 17 19  1  0  0  0  0
 17  5  1  0  0  0  0
 18 19  1  0  0  0  0
 20 15  1  0  0  0  0
 20 16  1  0  0  0  0
 21 15  1  0  0  0  0
 22 21  1  0  0  0  0
 23 21  2  0  0  0  0
 24 25  1  0  0  0  0
 26 25  1  0  0  0  0
 27 26  1  0  0  0  0
 28 27  1  0  0  0  0
M  END
>  <MODEL>
9

>  <REMARK>
 VINA RESULT:      -5.2      2.888      6.957
  Name = 
  6 active torsions:
  status: ('A' for Active; 'I' for Inactive)
    1  A    between atoms: C_2  and  C_7
    2  A    between atoms: C_4  and  C_13
    3  A    between atoms: C_5  and  C_12
    4  A    between atoms: N_11  and  C_20
    5  A    between atoms: C_12  and  C_24
    6  A    between atoms: C_13  and  C_24
                            x       y       z     vdW  Elec       q    Type
                         _______ _______ _______ _____ _____    ______ ____

>  <TORSDO>
F 6

$$$$
