=
 OpenBabel11072411183D

 28 31  0  0  1  0  0  0  0  0999 V2000
  161.0870  204.7830  148.1930 C   0  0  0  0  0  0  0  0  0  0  0  0
  161.1180  200.6120  148.5080 C   0  0  0  0  0  3  0  0  0  0  0  0
  161.2780  205.4600  146.8540 C   0  0  2  0  0  3  0  0  0  0  0  0
  161.2070  203.1850  145.8290 C   0  0  0  0  0  3  0  0  0  0  0  0
  161.2140  204.5110  145.6750 C   0  0  0  0  0  0  0  0  0  0  0  0
  161.0070  201.3790  149.6710 C   0  0  0  0  0  3  0  0  0  0  0  0
  161.1900  205.0660  144.2930 C   0  0  0  0  0  1  0  0  0  0  0  0
  161.1970  201.2180  147.2910 N   0  0  0  0  0  0  0  0  0  0  0  0
  161.0940  203.3810  148.3040 C   0  0  0  0  0  0  0  0  0  0  0  0
  160.9880  202.7710  149.5710 C   0  0  0  0  0  0  0  0  0  0  0  0
  160.8250  204.9560  150.6120 C   0  0  0  0  0  0  0  0  0  0  0  0
  160.8530  203.5610  150.7150 C   0  0  0  0  0  3  0  0  0  0  0  0
  162.6030  206.2080  146.8380 C   0  0  0  0  0  1  0  0  0  0  0  0
  161.1860  202.5720  147.1640 C   0  0  0  0  0  0  0  0  0  0  0  0
  160.9450  205.5590  149.3510 C   0  0  0  0  0  3  0  0  0  0  0  0
  160.6770  205.7300  151.8110 N   0  0  0  0  0  2  0  0  0  0  0  0
  161.7160  206.4260  152.5160 C   0  0  0  0  0  0  0  0  0  0  0  0
  162.9120  206.3780  152.1280 O   0  0  0  0  0  0  0  0  0  0  0  0
  161.3800  207.2210  153.7420 C   0  0  2  0  0  3  0  0  0  0  0  0
  160.6360  206.3060  154.7030 C   0  0  0  0  0  1  0  0  0  0  0  0
  160.4930  211.3940  153.1690 C   0  0  1  0  0  3  0  0  0  0  0  0
  161.1650  209.2190  152.2070 C   0  0  0  0  0  2  0  0  0  0  0  0
  160.5560  209.5030  154.6190 C   0  0  1  0  0  3  0  0  0  0  0  0
  160.4410  210.5270  151.9220 C   0  0  0  0  0  2  0  0  0  0  0  0
  160.5720  208.5050  153.4320 C   0  0  2  0  0  3  0  0  0  0  0  0
  159.8030  212.7130  152.8920 C   0  0  0  0  0  1  0  0  0  0  0  0
  159.8110  210.7110  154.2630 N   0  0  0  0  0  2  0  0  0  0  0  0
  159.9190  208.9150  155.8650 C   0  0  0  0  0  1  0  0  0  0  0  0
  1  9  1  0  0  0  0
  1 15  2  0  0  0  0
  2  6  1  0  0  0  0
  3 13  1  1  0  0  0
  3  1  1  0  0  0  0
  4 14  1  0  0  0  0
  5  4  2  0  0  0  0
  5  3  1  0  0  0  0
  7  5  1  0  0  0  0
  8  2  2  0  0  0  0
  9 10  1  0  0  0  0
 10  6  2  0  0  0  0
 10 12  1  0  0  0  0
 11 12  2  0  0  0  0
 11 16  1  0  0  0  0
 14  8  1  0  0  0  0
 14  9  2  0  0  0  0
 15 11  1  0  0  0  0
 16 17  1  0  0  0  0
 17 19  1  0  0  0  0
 18 17  2  0  0  0  0
 19 20  1  1  0  0  0
 21 26  1  6  0  0  0
 21 27  1  0  0  0  0
 22 25  1  0  0  0  0
 23 28  1  1  0  0  0
 24 22  1  0  0  0  0
 24 21  1  0  0  0  0
 25 19  1  1  0  0  0
 25 23  1  0  0  0  0
 27 23  1  0  0  0  0
M  END
>  <MODEL>
1

>  <REMARK>
 VINA RESULT:     -10.2      0.000      0.000
  Name = 
  3 active torsions:
  status: ('A' for Active; 'I' for Inactive)
    1  A    between atoms: N_5  and  C_20
    2  A    between atoms: C_13  and  C_26
    3  A    between atoms: C_17  and  C_26
                            x       y       z     vdW  Elec       q    Type
                         _______ _______ _______ _____ _____    ______ ____

>  <TORSDO>
F 3

$$$$
=
 OpenBabel11072411183D

 28 31  0  0  1  0  0  0  0  0999 V2000
  161.0340  203.6670  149.3820 C   0  0  0  0  0  0  0  0  0  0  0  0
  161.1870  206.1250  146.0010 C   0  0  0  0  0  3  0  0  0  0  0  0
  160.9980  202.1610  149.2450 C   0  0  0  0  0  0  0  0  0  0  0  0
  161.3360  202.4980  146.7940 C   0  0  0  0  0  3  0  0  0  0  0  0
  161.2790  201.6690  147.8400 C   0  0  0  0  0  0  0  0  0  0  0  0
  161.0900  206.7150  147.2650 C   0  0  0  0  0  3  0  0  0  0  0  0
  161.4680  200.2120  147.6020 C   0  0  0  0  0  1  0  0  0  0  0  0
  161.2470  204.7700  145.8790 N   0  0  0  0  0  0  0  0  0  0  0  0
  161.0880  204.4990  148.2490 C   0  0  1  0  0  3  0  0  0  0  0  0
  161.0470  205.9000  148.3960 C   0  0  0  0  0  0  0  0  0  0  0  0
  160.9430  205.6460  150.8060 C   0  0  0  0  0  0  0  0  0  0  0  0
  160.9760  206.4630  149.6720 C   0  0  0  0  0  3  0  0  0  0  0  0
  159.6500  201.6330  149.7110 C   0  0  0  0  0  1  0  0  0  0  0  0
  161.2030  203.9510  146.9640 C   0  0  0  0  0  0  0  0  0  0  0  0
  160.9690  204.2510  150.6540 C   0  0  0  0  0  3  0  0  0  0  0  0
  160.8770  206.2650  152.0990 N   0  0  0  0  0  2  0  0  0  0  0  0
  161.5710  207.4490  152.5200 C   0  0  0  0  0  0  0  0  0  0  0  0
  162.3630  208.0490  151.7470 O   0  0  0  0  0  0  0  0  0  0  0  0
  161.3610  207.9830  153.9050 C   0  0  2  0  0  3  0  0  0  0  0  0
  160.7500  206.8730  154.7460 C   0  0  0  0  0  1  0  0  0  0  0  0
  160.1440  212.0480  153.1830 C   0  0  1  0  0  3  0  0  0  0  0  0
  160.0980  209.6710  152.5080 C   0  0  0  0  0  2  0  0  0  0  0  0
  161.2320  210.4650  154.5950 C   0  0  1  0  0  3  0  0  0  0  0  0
  159.3130  210.9740  152.4980 C   0  0  0  0  0  2  0  0  0  0  0  0
  160.4980  209.2680  153.9370 C   0  0  2  0  0  3  0  0  0  0  0  0
  159.3890  213.3600  153.1530 C   0  0  0  0  0  1  0  0  0  0  0  0
  160.3890  211.6610  154.5680 N   0  0  0  0  0  2  0  0  0  0  0  0
  161.6080  210.1950  156.0400 C   0  0  0  0  0  1  0  0  0  0  0  0
  1 15  2  0  0  0  0
  2  6  1  0  0  0  0
  3  1  1  0  0  0  0
  3 13  1  0  0  0  0
  4 14  2  0  0  0  0
  4  5  1  0  0  0  0
  5  3  2  0  0  0  0
  6 10  2  0  0  0  0
  7  5  1  0  0  0  0
  8  2  2  0  0  0  0
  8 14  1  0  0  0  0
  9 14  1  1  0  0  0
  9 10  1  0  0  0  0
  9  1  1  0  0  0  0
 10 12  1  0  0  0  0
 11 16  1  0  0  0  0
 12 11  2  0  0  0  0
 15 11  1  0  0  0  0
 16 17  1  0  0  0  0
 17 19  1  0  0  0  0
 18 17  2  0  0  0  0
 19 20  1  1  0  0  0
 21 26  1  1  0  0  0
 21 27  1  0  0  0  0
 22 25  1  0  0  0  0
 23 28  1  1  0  0  0
 24 22  1  0  0  0  0
 24 21  1  0  0  0  0
 25 19  1  6  0  0  0
 25 23  1  0  0  0  0
 27 23  1  0  0  0  0
M  END
>  <MODEL>
2

>  <REMARK>
 VINA RESULT:     -10.0      1.311      2.913
  Name = 
  3 active torsions:
  status: ('A' for Active; 'I' for Inactive)
    1  A    between atoms: N_5  and  C_20
    2  A    between atoms: C_13  and  C_26
    3  A    between atoms: C_17  and  C_26
                            x       y       z     vdW  Elec       q    Type
                         _______ _______ _______ _____ _____    ______ ____

>  <TORSDO>
F 3

$$$$
=
 OpenBabel11072411183D

 28 31  0  0  1  0  0  0  0  0999 V2000
  161.0870  205.5560  149.3050 C   0  0  0  0  0  0  0  0  0  0  0  0
  161.1100  201.3910  149.6950 C   0  0  0  0  0  3  0  0  0  0  0  0
  161.2190  206.2080  147.9470 C   0  0  2  0  0  3  0  0  0  0  0  0
  161.0880  203.9140  146.9680 C   0  0  0  0  0  3  0  0  0  0  0  0
  161.0950  205.2380  146.7900 C   0  0  0  0  0  0  0  0  0  0  0  0
  161.0580  202.1800  150.8480 C   0  0  0  0  0  3  0  0  0  0  0  0
  161.0090  205.7680  145.4010 C   0  0  0  0  0  1  0  0  0  0  0  0
  161.1360  201.9740  148.4640 N   0  0  0  0  0  0  0  0  0  0  0  0
  161.0920  204.1560  149.4420 C   0  0  0  0  0  0  0  0  0  0  0  0
  161.0420  203.5690  150.7230 C   0  0  0  0  0  0  0  0  0  0  0  0
  160.9390  205.7730  151.7310 C   0  0  0  0  0  0  0  0  0  0  0  0
  160.9650  204.3810  151.8570 C   0  0  0  0  0  3  0  0  0  0  0  0
  162.5460  206.9460  147.8560 C   0  0  0  0  0  1  0  0  0  0  0  0
  161.1260  203.3260  148.3130 C   0  0  0  0  0  0  0  0  0  0  0  0
  161.0040  206.3530  150.4540 C   0  0  0  0  0  3  0  0  0  0  0  0
  160.8520  206.5700  152.9200 N   0  0  0  0  0  2  0  0  0  0  0  0
  161.3570  207.9020  153.1010 C   0  0  0  0  0  0  0  0  0  0  0  0
  161.9810  208.4920  152.1810 O   0  0  0  0  0  0  0  0  0  0  0  0
  161.1490  208.6070  154.4080 C   0  0  2  0  0  3  0  0  0  0  0  0
  160.6090  207.5940  155.4040 C   0  0  0  0  0  1  0  0  0  0  0  0
  159.6990  212.4570  153.1430 C   0  0  1  0  0  3  0  0  0  0  0  0
  159.7390  210.0050  152.8410 C   0  0  0  0  0  2  0  0  0  0  0  0
  160.9290  211.1580  154.7180 C   0  0  1  0  0  3  0  0  0  0  0  0
  158.8920  211.2570  152.6750 C   0  0  0  0  0  2  0  0  0  0  0  0
  160.2260  209.8440  154.2910 C   0  0  2  0  0  3  0  0  0  0  0  0
  158.8800  213.7170  152.9550 C   0  0  0  0  0  1  0  0  0  0  0  0
  160.0280  212.2990  154.5550 N   0  0  0  0  0  2  0  0  0  0  0  0
  161.3860  211.1300  156.1660 C   0  0  0  0  0  1  0  0  0  0  0  0
  1  9  1  0  0  0  0
  1 15  2  0  0  0  0
  2  6  1  0  0  0  0
  3 13  1  1  0  0  0
  3  1  1  0  0  0  0
  4 14  1  0  0  0  0
  5  4  2  0  0  0  0
  5  3  1  0  0  0  0
  7  5  1  0  0  0  0
  8  2  2  0  0  0  0
  9 10  1  0  0  0  0
 10  6  2  0  0  0  0
 10 12  1  0  0  0  0
 11 12  2  0  0  0  0
 11 16  1  0  0  0  0
 14  8  1  0  0  0  0
 14  9  2  0  0  0  0
 15 11  1  0  0  0  0
 16 17  1  0  0  0  0
 17 19  1  0  0  0  0
 18 17  2  0  0  0  0
 19 20  1  1  0  0  0
 21 26  1  1  0  0  0
 21 27  1  0  0  0  0
 22 25  1  0  0  0  0
 23 28  1  1  0  0  0
 24 22  1  0  0  0  0
 24 21  1  0  0  0  0
 25 19  1  6  0  0  0
 25 23  1  0  0  0  0
 27 23  1  0  0  0  0
M  END
>  <MODEL>
3

>  <REMARK>
 VINA RESULT:     -10.0      1.304      1.560
  Name = 
  3 active torsions:
  status: ('A' for Active; 'I' for Inactive)
    1  A    between atoms: N_5  and  C_20
    2  A    between atoms: C_13  and  C_26
    3  A    between atoms: C_17  and  C_26
                            x       y       z     vdW  Elec       q    Type
                         _______ _______ _______ _____ _____    ______ ____

>  <TORSDO>
F 3

$$$$
=
 OpenBabel11072411183D

 28 31  0  0  1  0  0  0  0  0999 V2000
  160.9850  203.9550  148.5430 C   0  0  0  0  0  0  0  0  0  0  0  0
  161.0540  205.0580  144.5090 C   0  0  0  0  0  3  0  0  0  0  0  0
  161.0270  202.4990  148.9500 C   0  0  0  0  0  0  0  0  0  0  0  0
  161.3800  201.9610  146.5370 C   0  0  0  0  0  3  0  0  0  0  0  0
  161.3510  201.5560  147.8090 C   0  0  0  0  0  0  0  0  0  0  0  0
  160.9100  206.0510  145.4820 C   0  0  0  0  0  3  0  0  0  0  0  0
  161.6190  200.1210  148.1030 C   0  0  0  0  0  1  0  0  0  0  0  0
  161.1850  203.7530  144.8750 N   0  0  0  0  0  0  0  0  0  0  0  0
  161.0100  204.3320  147.1890 C   0  0  1  0  0  3  0  0  0  0  0  0
  160.8950  205.6900  146.8290 C   0  0  0  0  0  0  0  0  0  0  0  0
  160.7730  206.3030  149.1730 C   0  0  0  0  0  0  0  0  0  0  0  0
  160.7790  206.6650  147.8220 C   0  0  0  0  0  3  0  0  0  0  0  0
  159.7020  202.1000  149.5820 C   0  0  0  0  0  1  0  0  0  0  0  0
  161.1690  203.3710  146.1810 C   0  0  0  0  0  0  0  0  0  0  0  0
  160.8730  204.9480  149.5260 C   0  0  0  0  0  3  0  0  0  0  0  0
  160.6590  207.3360  150.1620 N   0  0  0  0  0  2  0  0  0  0  0  0
  161.7280  207.9180  150.9230 C   0  0  0  0  0  0  0  0  0  0  0  0
  162.9140  207.5160  150.7920 O   0  0  0  0  0  0  0  0  0  0  0  0
  161.4360  209.0190  151.8970 C   0  0  2  0  0  3  0  0  0  0  0  0
  162.4120  210.1530  151.6260 C   0  0  0  0  0  1  0  0  0  0  0  0
  160.1060  207.5870  155.7320 C   0  0  1  0  0  3  0  0  0  0  0  0
  161.0180  207.0980  153.4880 C   0  0  0  0  0  2  0  0  0  0  0  0
  160.6150  209.4290  154.3080 C   0  0  1  0  0  3  0  0  0  0  0  0
  160.9860  206.6360  154.9370 C   0  0  0  0  0  2  0  0  0  0  0  0
  161.4920  208.5560  153.3730 C   0  0  2  0  0  3  0  0  0  0  0  0
  160.0390  207.1220  157.1720 C   0  0  0  0  0  1  0  0  0  0  0  0
  160.6750  208.9290  155.6820 N   0  0  0  0  0  2  0  0  0  0  0  0
  161.0510  210.8830  154.3240 C   0  0  0  0  0  1  0  0  0  0  0  0
  1  3  1  0  0  0  0
  1 15  2  0  0  0  0
  2  8  2  0  0  0  0
  2  6  1  0  0  0  0
  3 13  1  0  0  0  0
  4  5  1  0  0  0  0
  5  7  1  0  0  0  0
  5  3  2  0  0  0  0
  6 10  2  0  0  0  0
  8 14  1  0  0  0  0
  9 14  1  1  0  0  0
  9  1  1  0  0  0  0
 10  9  1  0  0  0  0
 10 12  1  0  0  0  0
 11 15  1  0  0  0  0
 11 16  1  0  0  0  0
 12 11  2  0  0  0  0
 14  4  2  0  0  0  0
 16 17  1  0  0  0  0
 17 19  1  0  0  0  0
 18 17  2  0  0  0  0
 19 20  1  1  0  0  0
 21 26  1  1  0  0  0
 22 24  1  0  0  0  0
 23 28  1  1  0  0  0
 23 27  1  0  0  0  0
 24 21  1  0  0  0  0
 25 19  1  6  0  0  0
 25 22  1  0  0  0  0
 25 23  1  0  0  0  0
 27 21  1  0  0  0  0
M  END
>  <MODEL>
4

>  <REMARK>
 VINA RESULT:      -9.8      1.452      3.751
  Name = 
  3 active torsions:
  status: ('A' for Active; 'I' for Inactive)
    1  A    between atoms: N_5  and  C_20
    2  A    between atoms: C_13  and  C_26
    3  A    between atoms: C_17  and  C_26
                            x       y       z     vdW  Elec       q    Type
                         _______ _______ _______ _____ _____    ______ ____

>  <TORSDO>
F 3

$$$$
=
 OpenBabel11072411183D

 28 31  0  0  1  0  0  0  0  0999 V2000
  161.2180  206.4870  150.0600 C   0  0  0  0  0  0  0  0  0  0  0  0
  161.0220  202.4080  150.9650 C   0  0  0  0  0  3  0  0  0  0  0  0
  161.2260  206.9630  148.6250 C   0  0  2  0  0  3  0  0  0  0  0  0
  160.8310  204.5880  147.9630 C   0  0  0  0  0  3  0  0  0  0  0  0
  160.9010  205.8770  147.6200 C   0  0  0  0  0  0  0  0  0  0  0  0
  161.1600  203.3280  152.0080 C   0  0  0  0  0  3  0  0  0  0  0  0
  160.6810  206.2450  146.1940 C   0  0  0  0  0  1  0  0  0  0  0  0
  160.9360  202.8390  149.6760 N   0  0  0  0  0  0  0  0  0  0  0  0
  161.1500  205.1170  150.3710 C   0  0  0  0  0  0  0  0  0  0  0  0
  161.2180  204.6910  151.7130 C   0  0  0  0  0  0  0  0  0  0  0  0
  161.3790  206.9990  152.4410 C   0  0  0  0  0  0  0  0  0  0  0  0
  161.3310  205.6330  152.7370 C   0  0  0  0  0  3  0  0  0  0  0  0
  162.5760  207.5800  148.2930 C   0  0  0  0  0  1  0  0  0  0  0  0
  160.9930  204.1600  149.3590 C   0  0  0  0  0  0  0  0  0  0  0  0
  161.3250  207.4180  151.1020 C   0  0  0  0  0  3  0  0  0  0  0  0
  161.4880  207.9340  153.5230 N   0  0  0  0  0  2  0  0  0  0  0  0
  160.7990  207.8750  154.7810 C   0  0  0  0  0  0  0  0  0  0  0  0
  159.9740  206.9580  155.0290 O   0  0  0  0  0  0  0  0  0  0  0  0
  161.0560  208.9240  155.8210 C   0  0  2  0  0  3  0  0  0  0  0  0
  160.9200  208.2700  157.1870 C   0  0  0  0  0  1  0  0  0  0  0  0
  159.4860  212.6450  154.3330 C   0  0  1  0  0  3  0  0  0  0  0  0
  159.4780  210.1740  154.2910 C   0  0  0  0  0  2  0  0  0  0  0  0
  160.8870  211.4970  155.8820 C   0  0  1  0  0  3  0  0  0  0  0  0
  158.6230  211.4160  154.0930 C   0  0  0  0  0  2  0  0  0  0  0  0
  160.1320  210.1580  155.6820 C   0  0  2  0  0  3  0  0  0  0  0  0
  158.6560  213.8920  154.1090 C   0  0  0  0  0  1  0  0  0  0  0  0
  159.9780  212.6300  155.7050 N   0  0  0  0  0  2  0  0  0  0  0  0
  161.5120  211.6130  157.2610 C   0  0  0  0  0  1  0  0  0  0  0  0
  1  9  1  0  0  0  0
  1 15  2  0  0  0  0
  2  6  1  0  0  0  0
  3 13  1  6  0  0  0
  3  1  1  0  0  0  0
  4 14  1  0  0  0  0
  5  4  2  0  0  0  0
  5  3  1  0  0  0  0
  7  5  1  0  0  0  0
  8  2  2  0  0  0  0
  9 10  1  0  0  0  0
 10  6  2  0  0  0  0
 10 12  1  0  0  0  0
 11 12  2  0  0  0  0
 11 16  1  0  0  0  0
 14  8  1  0  0  0  0
 14  9  2  0  0  0  0
 15 11  1  0  0  0  0
 16 17  1  0  0  0  0
 17 18  2  0  0  0  0
 17 19  1  0  0  0  0
 19 20  1  1  0  0  0
 21 26  1  1  0  0  0
 21 27  1  0  0  0  0
 22 25  1  0  0  0  0
 23 28  1  1  0  0  0
 24 22  1  0  0  0  0
 24 21  1  0  0  0  0
 25 19  1  6  0  0  0
 25 23  1  0  0  0  0
 27 23  1  0  0  0  0
M  END
>  <MODEL>
5

>  <REMARK>
 VINA RESULT:      -9.5      1.987      2.765
  Name = 
  3 active torsions:
  status: ('A' for Active; 'I' for Inactive)
    1  A    between atoms: N_5  and  C_20
    2  A    between atoms: C_13  and  C_26
    3  A    between atoms: C_17  and  C_26
                            x       y       z     vdW  Elec       q    Type
                         _______ _______ _______ _____ _____    ______ ____

>  <TORSDO>
F 3

$$$$
=
 OpenBabel11072411183D

 28 31  0  0  1  0  0  0  0  0999 V2000
  161.1350  206.4800  149.9270 C   0  0  0  0  0  0  0  0  0  0  0  0
  161.2170  202.4080  150.8810 C   0  0  0  0  0  3  0  0  0  0  0  0
  161.2190  206.9410  148.4900 C   0  0  2  0  0  3  0  0  0  0  0  0
  161.0870  204.5340  147.8370 C   0  0  0  0  0  3  0  0  0  0  0  0
  161.0730  205.8210  147.4800 C   0  0  0  0  0  0  0  0  0  0  0  0
  161.1900  203.3470  151.9170 C   0  0  0  0  0  3  0  0  0  0  0  0
  160.9410  206.1560  146.0340 C   0  0  0  0  0  1  0  0  0  0  0  0
  161.2010  202.8170  149.5830 N   0  0  0  0  0  0  0  0  0  0  0  0
  161.1590  205.1120  150.2540 C   0  0  0  0  0  0  0  0  0  0  0  0
  161.1530  204.7060  151.6040 C   0  0  0  0  0  0  0  0  0  0  0  0
  161.0540  207.0270  152.3040 C   0  0  0  0  0  0  0  0  0  0  0  0
  161.1000  205.6650  152.6180 C   0  0  0  0  0  3  0  0  0  0  0  0
  162.5340  207.6710  148.2580 C   0  0  0  0  0  1  0  0  0  0  0  0
  161.1700  204.1360  149.2480 C   0  0  0  0  0  0  0  0  0  0  0  0
  161.0750  207.4270  150.9590 C   0  0  0  0  0  3  0  0  0  0  0  0
  160.9920  207.9780  153.3760 N   0  0  0  0  0  2  0  0  0  0  0  0
  161.5680  209.2930  153.3910 C   0  0  0  0  0  0  0  0  0  0  0  0
  162.2400  209.7210  152.4160 O   0  0  0  0  0  0  0  0  0  0  0  0
  161.3790  210.1760  154.5880 C   0  0  2  0  0  3  0  0  0  0  0  0
  161.5680  209.3220  155.8320 C   0  0  0  0  0  1  0  0  0  0  0  0
  158.4110  213.1970  153.8210 C   0  0  1  0  0  3  0  0  0  0  0  0
  159.5000  211.0800  153.1570 C   0  0  0  0  0  2  0  0  0  0  0  0
  160.0850  212.3030  155.2620 C   0  0  1  0  0  3  0  0  0  0  0  0
  158.1960  211.8630  153.1240 C   0  0  0  0  0  2  0  0  0  0  0  0
  160.0130  210.9050  154.5950 C   0  0  2  0  0  3  0  0  0  0  0  0
  157.1290  214.0020  153.7690 C   0  0  0  0  0  1  0  0  0  0  0  0
  158.7800  212.9630  155.2120 N   0  0  0  0  0  2  0  0  0  0  0  0
  160.5140  212.2330  156.7170 C   0  0  0  0  0  1  0  0  0  0  0  0
  1  9  1  0  0  0  0
  1 15  2  0  0  0  0
  2  6  1  0  0  0  0
  3 13  1  1  0  0  0
  3  1  1  0  0  0  0
  4 14  1  0  0  0  0
  5  4  2  0  0  0  0
  5  3  1  0  0  0  0
  7  5  1  0  0  0  0
  8  2  2  0  0  0  0
  9 10  1  0  0  0  0
 10  6  2  0  0  0  0
 10 12  1  0  0  0  0
 11 12  2  0  0  0  0
 11 16  1  0  0  0  0
 14  8  1  0  0  0  0
 14  9  2  0  0  0  0
 15 11  1  0  0  0  0
 16 17  1  0  0  0  0
 17 19  1  0  0  0  0
 18 17  2  0  0  0  0
 19 20  1  1  0  0  0
 21 26  1  1  0  0  0
 21 27  1  0  0  0  0
 22 25  1  0  0  0  0
 23 28  1  1  0  0  0
 24 22  1  0  0  0  0
 24 21  1  0  0  0  0
 25 19  1  6  0  0  0
 25 23  1  0  0  0  0
 27 23  1  0  0  0  0
M  END
>  <MODEL>
6

>  <REMARK>
 VINA RESULT:      -9.5      1.868      2.775
  Name = 
  3 active torsions:
  status: ('A' for Active; 'I' for Inactive)
    1  A    between atoms: N_5  and  C_20
    2  A    between atoms: C_13  and  C_26
    3  A    between atoms: C_17  and  C_26
                            x       y       z     vdW  Elec       q    Type
                         _______ _______ _______ _____ _____    ______ ____

>  <TORSDO>
F 3

$$$$
=
 OpenBabel11072411183D

 28 31  0  0  1  0  0  0  0  0999 V2000
  161.0950  204.7250  148.1840 C   0  0  0  0  0  0  0  0  0  0  0  0
  160.8960  200.9760  150.0280 C   0  0  0  0  0  3  0  0  0  0  0  0
  161.3170  204.8450  146.6930 C   0  0  2  0  0  3  0  0  0  0  0  0
  161.1170  202.3580  146.5870 C   0  0  0  0  0  3  0  0  0  0  0  0
  161.1960  203.5300  145.9500 C   0  0  0  0  0  0  0  0  0  0  0  0
  160.8330  202.1260  150.8210 C   0  0  0  0  0  3  0  0  0  0  0  0
  161.1960  203.5310  144.4610 C   0  0  0  0  0  1  0  0  0  0  0  0
  161.0040  201.0800  148.6750 N   0  0  0  0  0  0  0  0  0  0  0  0
  161.0250  203.4670  148.8100 C   0  0  0  0  0  0  0  0  0  0  0  0
  160.8900  203.3790  150.2100 C   0  0  0  0  0  0  0  0  0  0  0  0
  160.8520  205.8000  150.3620 C   0  0  0  0  0  0  0  0  0  0  0  0
  160.8040  204.5440  150.9760 C   0  0  0  0  0  3  0  0  0  0  0  0
  162.6810  205.4620  146.4230 C   0  0  0  0  0  1  0  0  0  0  0  0
  161.0670  202.2890  148.0530 C   0  0  0  0  0  0  0  0  0  0  0  0
  161.0000  205.8830  148.9680 C   0  0  0  0  0  3  0  0  0  0  0  0
  160.7530  206.9710  151.1830 N   0  0  0  0  0  2  0  0  0  0  0  0
  161.6190  208.1150  151.1560 C   0  0  0  0  0  0  0  0  0  0  0  0
  162.6110  208.1630  150.3820 O   0  0  0  0  0  0  0  0  0  0  0  0
  161.3510  209.2760  152.0670 C   0  0  2  0  0  3  0  0  0  0  0  0
  162.3620  210.3650  151.7440 C   0  0  0  0  0  1  0  0  0  0  0  0
  160.1520  207.5200  155.8090 C   0  0  1  0  0  3  0  0  0  0  0  0
  161.4620  207.3640  153.7190 C   0  0  0  0  0  2  0  0  0  0  0  0
  160.1320  209.3940  154.3370 C   0  0  1  0  0  3  0  0  0  0  0  0
  161.4140  206.9500  155.1820 C   0  0  0  0  0  2  0  0  0  0  0  0
  161.3800  208.8920  153.5660 C   0  0  2  0  0  3  0  0  0  0  0  0
  160.0740  207.0890  157.2580 C   0  0  0  0  0  1  0  0  0  0  0  0
  160.1910  208.9760  155.7380 N   0  0  0  0  0  2  0  0  0  0  0  0
  159.9990  210.9060  154.3090 C   0  0  0  0  0  1  0  0  0  0  0  0
  1  9  1  0  0  0  0
  1 15  2  0  0  0  0
  2  6  1  0  0  0  0
  3 13  1  1  0  0  0
  3  1  1  0  0  0  0
  4 14  1  0  0  0  0
  5  4  2  0  0  0  0
  5  3  1  0  0  0  0
  7  5  1  0  0  0  0
  8  2  2  0  0  0  0
  9 10  1  0  0  0  0
 10  6  2  0  0  0  0
 10 12  1  0  0  0  0
 11 12  2  0  0  0  0
 11 16  1  0  0  0  0
 14  8  1  0  0  0  0
 14  9  2  0  0  0  0
 15 11  1  0  0  0  0
 17 16  1  0  0  0  0
 17 19  1  0  0  0  0
 18 17  2  0  0  0  0
 19 20  1  1  0  0  0
 21 26  1  1  0  0  0
 22 24  1  0  0  0  0
 23 28  1  1  0  0  0
 23 27  1  0  0  0  0
 24 21  1  0  0  0  0
 25 19  1  6  0  0  0
 25 22  1  0  0  0  0
 25 23  1  0  0  0  0
 27 21  1  0  0  0  0
M  END
>  <MODEL>
7

>  <REMARK>
 VINA RESULT:      -9.1      1.220      2.538
  Name = 
  3 active torsions:
  status: ('A' for Active; 'I' for Inactive)
    1  A    between atoms: N_5  and  C_20
    2  A    between atoms: C_13  and  C_26
    3  A    between atoms: C_17  and  C_26
                            x       y       z     vdW  Elec       q    Type
                         _______ _______ _______ _____ _____    ______ ____

>  <TORSDO>
F 3

$$$$
=
 OpenBabel11072411183D

 28 31  0  0  1  0  0  0  0  0999 V2000
  161.2620  205.3960  148.7800 C   0  0  0  0  0  0  0  0  0  0  0  0
  161.1790  202.2550  151.5410 C   0  0  0  0  0  3  0  0  0  0  0  0
  161.3630  205.1210  147.2960 C   0  0  2  0  0  3  0  0  0  0  0  0
  161.1310  202.6980  147.8520 C   0  0  0  0  0  3  0  0  0  0  0  0
  161.1700  203.6640  146.9300 C   0  0  0  0  0  0  0  0  0  0  0  0
  161.1910  203.5710  152.0110 C   0  0  0  0  0  3  0  0  0  0  0  0
  161.0480  203.2820  145.4960 C   0  0  0  0  0  1  0  0  0  0  0  0
  161.1770  202.0040  150.2020 N   0  0  0  0  0  0  0  0  0  0  0  0
  161.2310  204.3440  149.7130 C   0  0  0  0  0  0  0  0  0  0  0  0
  161.2100  204.6230  151.0940 C   0  0  0  0  0  0  0  0  0  0  0  0
  161.2080  207.0010  150.6170 C   0  0  0  0  0  0  0  0  0  0  0  0
  161.1980  205.9480  151.5360 C   0  0  0  0  0  3  0  0  0  0  0  0
  162.7060  205.6060  146.7720 C   0  0  0  0  0  1  0  0  0  0  0  0
  161.2000  203.0090  149.2860 C   0  0  0  0  0  0  0  0  0  0  0  0
  161.2430  206.7180  149.2420 C   0  0  0  0  0  3  0  0  0  0  0  0
  161.1870  208.3470  151.1120 N   0  0  0  0  0  2  0  0  0  0  0  0
  161.1750  208.7550  152.4880 C   0  0  0  0  0  0  0  0  0  0  0  0
  161.1480  207.9070  153.4190 O   0  0  0  0  0  0  0  0  0  0  0  0
  161.1880  210.2140  152.8340 C   0  0  2  0  0  3  0  0  0  0  0  0
  161.9370  210.3760  154.1470 C   0  0  0  0  0  1  0  0  0  0  0  0
  158.0710  213.0890  153.5770 C   0  0  1  0  0  3  0  0  0  0  0  0
  159.6990  212.0860  152.0110 C   0  0  0  0  0  2  0  0  0  0  0  0
  159.3640  211.2380  154.3430 C   0  0  1  0  0  3  0  0  0  0  0  0
  158.3430  212.7660  152.1160 C   0  0  0  0  0  2  0  0  0  0  0  0
  159.7710  210.8350  152.9020 C   0  0  2  0  0  3  0  0  0  0  0  0
  156.7370  213.7950  153.6950 C   0  0  0  0  0  1  0  0  0  0  0  0
  158.0350  211.8510  154.3470 N   0  0  0  0  0  2  0  0  0  0  0  0
  159.3320  210.0540  155.2920 C   0  0  0  0  0  1  0  0  0  0  0  0
  1 15  2  0  0  0  0
  1  9  1  0  0  0  0
  2  6  1  0  0  0  0
  3 13  1  1  0  0  0
  3  1  1  0  0  0  0
  4 14  1  0  0  0  0
  5  3  1  0  0  0  0
  5  4  2  0  0  0  0
  7  5  1  0  0  0  0
  8  2  2  0  0  0  0
  9 10  1  0  0  0  0
 10 12  1  0  0  0  0
 10  6  2  0  0  0  0
 11 16  1  0  0  0  0
 11 12  2  0  0  0  0
 14  9  2  0  0  0  0
 14  8  1  0  0  0  0
 15 11  1  0  0  0  0
 16 17  1  0  0  0  0
 17 19  1  0  0  0  0
 17 18  2  0  0  0  0
 19 20  1  1  0  0  0
 21 26  1  6  0  0  0
 21 27  1  0  0  0  0
 22 24  1  0  0  0  0
 22 25  1  0  0  0  0
 23 27  1  0  0  0  0
 23 28  1  1  0  0  0
 24 21  1  0  0  0  0
 25 19  1  1  0  0  0
 25 23  1  0  0  0  0
M  END
>  <MODEL>
8

>  <REMARK>
 VINA RESULT:      -9.1      1.616      2.506
  Name = 
  3 active torsions:
  status: ('A' for Active; 'I' for Inactive)
    1  A    between atoms: N_5  and  C_20
    2  A    between atoms: C_13  and  C_26
    3  A    between atoms: C_17  and  C_26
                            x       y       z     vdW  Elec       q    Type
                         _______ _______ _______ _____ _____    ______ ____

>  <TORSDO>
F 3

$$$$
=
 OpenBabel11072411183D

 28 31  0  0  1  0  0  0  0  0999 V2000
  161.2940  204.7170  151.1260 C   0  0  0  0  0  0  0  0  0  0  0  0
  161.2010  206.9530  147.5920 C   0  0  0  0  0  3  0  0  0  0  0  0
  161.1170  203.2150  151.0980 C   0  0  0  0  0  0  0  0  0  0  0  0
  161.1560  203.3790  148.6070 C   0  0  0  0  0  3  0  0  0  0  0  0
  161.1690  202.6200  149.7060 C   0  0  0  0  0  0  0  0  0  0  0  0
  161.3190  207.6200  148.8150 C   0  0  0  0  0  3  0  0  0  0  0  0
  161.2060  201.1400  149.5470 C   0  0  0  0  0  1  0  0  0  0  0  0
  161.1330  205.5930  147.5560 N   0  0  0  0  0  0  0  0  0  0  0  0
  161.2660  205.4730  149.9410 C   0  0  1  0  0  3  0  0  0  0  0  0
  161.3590  206.8790  149.9960 C   0  0  0  0  0  0  0  0  0  0  0  0
  161.5520  206.7740  152.4120 C   0  0  0  0  0  0  0  0  0  0  0  0
  161.5030  207.5190  151.2290 C   0  0  0  0  0  3  0  0  0  0  0  0
  159.8030  202.8380  151.7660 C   0  0  0  0  0  1  0  0  0  0  0  0
  161.1650  204.8450  148.6930 C   0  0  0  0  0  0  0  0  0  0  0  0
  161.4440  205.3760  152.3530 C   0  0  0  0  0  3  0  0  0  0  0  0
  161.7080  207.4700  153.6560 N   0  0  0  0  0  2  0  0  0  0  0  0
  160.8820  207.3380  154.8230 C   0  0  0  0  0  0  0  0  0  0  0  0
  159.8780  206.5780  154.8280 O   0  0  0  0  0  0  0  0  0  0  0  0
  161.2080  208.1210  156.0600 C   0  0  2  0  0  3  0  0  0  0  0  0
  160.7300  207.3170  157.2590 C   0  0  0  0  0  1  0  0  0  0  0  0
  159.5370  211.7890  154.5510 C   0  0  1  0  0  3  0  0  0  0  0  0
  159.1860  209.5210  155.4690 C   0  0  0  0  0  2  0  0  0  0  0  0
  161.4570  210.5480  155.2230 C   0  0  1  0  0  3  0  0  0  0  0  0
  158.5980  210.9210  155.3740 C   0  0  0  0  0  2  0  0  0  0  0  0
  160.6090  209.5480  156.0520 C   0  0  2  0  0  3  0  0  0  0  0  0
  158.9490  213.1790  154.4210 C   0  0  0  0  0  1  0  0  0  0  0  0
  160.8310  211.8700  155.2180 N   0  0  0  0  0  2  0  0  0  0  0  0
  162.8670  210.7040  155.7650 C   0  0  0  0  0  1  0  0  0  0  0  0
  1 15  2  0  0  0  0
  2  6  1  0  0  0  0
  3  1  1  0  0  0  0
  3 13  1  0  0  0  0
  4 14  2  0  0  0  0
  4  5  1  0  0  0  0
  5  3  2  0  0  0  0
  6 10  2  0  0  0  0
  7  5  1  0  0  0  0
  8  2  2  0  0  0  0
  8 14  1  0  0  0  0
  9 14  1  6  0  0  0
  9 10  1  0  0  0  0
  9  1  1  0  0  0  0
 10 12  1  0  0  0  0
 11 16  1  0  0  0  0
 12 11  2  0  0  0  0
 15 11  1  0  0  0  0
 16 17  1  0  0  0  0
 17 18  2  0  0  0  0
 17 19  1  0  0  0  0
 19 20  1  1  0  0  0
 21 26  1  1  0  0  0
 21 27  1  0  0  0  0
 21 24  1  0  0  0  0
 22 25  1  0  0  0  0
 23 28  1  1  0  0  0
 23 25  1  0  0  0  0
 24 22  1  0  0  0  0
 25 19  1  6  0  0  0
 27 23  1  0  0  0  0
M  END
>  <MODEL>
9

>  <REMARK>
 VINA RESULT:      -8.9      2.057      3.858
  Name = 
  3 active torsions:
  status: ('A' for Active; 'I' for Inactive)
    1  A    between atoms: N_5  and  C_20
    2  A    between atoms: C_13  and  C_26
    3  A    between atoms: C_17  and  C_26
                            x       y       z     vdW  Elec       q    Type
                         _______ _______ _______ _____ _____    ______ ____

>  <TORSDO>
F 3

$$$$
