=
 OpenBabel11072410573D

 42 46  0  0  1  0  0  0  0  0999 V2000
  161.5210  208.1830  150.3840 C   0  0  2  0  0  3  0  0  0  0  0  0
  162.6880  210.2490  150.9100 O   0  0  0  0  0  1  0  0  0  0  0  0
  161.4620  209.5860  151.0180 C   0  0  2  0  0  3  0  0  0  0  0  0
  160.9310  209.6430  152.4550 C   0  0  0  0  0  2  0  0  0  0  0  0
  161.5020  210.3780  154.8650 C   0  0  1  0  0  3  0  0  0  0  0  0
  161.8910  210.3410  153.4110 C   0  0  2  0  0  3  0  0  0  0  0  0
  161.2470  211.4510  153.9810 O   0  0  0  0  0  0  0  0  0  0  0  0
  160.1840  209.7050  155.3630 C   0  0  1  0  0  0  0  0  0  0  0  0
  159.6090  208.9550  154.3290 O   0  0  0  0  0  1  0  0  0  0  0  0
  159.7270  207.4150  156.4600 C   0  0  0  0  0  1  0  0  0  0  0  0
  161.9140  208.3800  156.4310 O   0  0  0  0  0  1  0  0  0  0  0  0
  160.5550  208.6970  156.4700 C   0  0  1  0  0  3  0  0  0  0  0  0
  159.1720  210.7150  155.9030 C   0  0  0  0  0  0  0  0  0  0  0  0
  159.2990  211.1370  157.0460 O   0  0  0  0  0  0  0  0  0  0  0  0
  156.6260  211.2980  155.7440 C   0  0  1  0  0  3  0  0  0  0  0  0
  158.0410  212.6450  154.8380 C   0  0  2  0  0  3  0  0  0  0  0  0
  158.1520  211.6900  153.6760 C   0  0  0  0  0  2  0  0  0  0  0  0
  157.9780  211.1340  155.0790 C   0  0  1  0  0  0  0  0  0  0  0  0
  156.6290  212.7710  155.3860 C   0  0  0  0  0  2  0  0  0  0  0  0
  154.6970  209.8980  155.8550 O   0  0  0  0  0  1  0  0  0  0  0  0
  155.5430  210.5630  154.9690 C   0  0  0  0  0  2  0  0  0  0  0  0
  162.6070  207.3270  151.0350 C   0  0  0  0  0  2  0  0  0  0  0  0
  161.8770  204.9520  151.3500 C   0  0  0  0  0  3  0  0  0  0  0  0
  161.5850  206.5100  153.1770 C   0  0  0  0  0  3  0  0  0  0  0  0
  162.0180  206.2400  151.8730 C   0  0  0  0  0  0  0  0  0  0  0  0
  160.9080  204.2310  153.4120 N   0  0  0  0  0  0  0  0  0  0  0  0
  161.0310  205.4810  153.9400 C   0  0  0  0  0  3  0  0  0  0  0  0
  161.1540  202.6350  151.6240 N   0  0  0  0  0  1  0  0  0  0  0  0
  161.3120  203.9500  152.1440 C   0  0  0  0  0  0  0  0  0  0  0  0
  161.7000  208.2200  148.8650 C   0  0  0  0  0  2  0  0  0  0  0  0
  162.4050  207.0980  148.4050 O   0  0  0  0  0  0  0  0  0  0  0  0
  161.4920  206.1210  148.2300 O   0  0  0  0  0  0  0  0  0  0  0  0
  160.8740  206.3280  145.8800 C   0  0  0  0  0  3  0  0  0  0  0  0
  160.6530  205.7410  144.6320 C   0  0  0  0  0  3  0  0  0  0  0  0
  161.2390  205.5390  146.9820 C   0  0  0  0  0  0  0  0  0  0  0  0
  161.1490  203.5650  145.5700 C   0  0  0  0  0  3  0  0  0  0  0  0
  160.7940  204.3600  144.4750 C   0  0  0  0  0  3  0  0  0  0  0  0
  161.3640  204.1490  146.8240 C   0  0  0  0  0  0  0  0  0  0  0  0
  161.7550  203.2860  147.9780 C   0  0  0  0  0  2  0  0  0  0  0  0
  160.5730  202.9230  148.7450 N   0  0  0  0  0  2  0  0  0  0  0  0
  161.4900  200.7020  148.4120 C   0  0  0  0  0  1  0  0  0  0  0  0
  160.2420  201.5580  148.3690 C   0  0  0  0  0  2  0  0  0  0  0  0
  1 30  1  6  0  0  0
  1  3  1  0  0  0  0
  1 22  1  0  0  0  0
  3  2  1  1  0  0  0
  3  4  1  0  0  0  0
  5  8  1  6  0  0  0
  6  4  1  6  0  0  0
  6  7  1  0  0  0  0
  6  5  1  0  0  0  0
  7  5  1  0  0  0  0
  8  9  1  6  0  0  0
  8 13  1  0  0  0  0
  8 12  1  0  0  0  0
 11 12  1  0  0  0  0
 12 10  1  6  0  0  0
 13 14  2  0  0  0  0
 15 21  1  6  0  0  0
 16 17  1  6  0  0  0
 16 18  1  0  0  0  0
 16 19  1  0  0  0  0
 17 18  1  0  0  0  0
 18 15  1  0  0  0  0
 18 13  1  1  0  0  0
 19 15  1  0  0  0  0
 21 20  1  0  0  0  0
 22 25  1  0  0  0  0
 23 25  2  0  0  0  0
 23 29  1  0  0  0  0
 24 27  2  0  0  0  0
 25 24  1  0  0  0  0
 26 27  1  0  0  0  0
 28 29  1  0  0  0  0
 29 26  2  0  0  0  0
 31 30  1  0  0  0  0
 32 31  1  0  0  0  0
 33 35  1  0  0  0  0
 34 33  2  0  0  0  0
 35 32  1  0  0  0  0
 36 38  1  0  0  0  0
 37 34  1  0  0  0  0
 37 36  2  0  0  0  0
 38 35  2  0  0  0  0
 38 39  1  0  0  0  0
 39 40  1  0  0  0  0
 42 41  1  0  0  0  0
 42 40  1  0  0  0  0
M  END
>  <MODEL>
1

>  <REMARK>
 VINA RESULT:      -7.0      0.000      0.000
  Name = 
  17 active torsions:
  status: ('A' for Active; 'I' for Inactive)
    1  A    between atoms: C_1  and  C_4
    2  A    between atoms: C_1  and  C_24
    3  A    between atoms: C_1  and  C_32
    4  A    between atoms: N_3  and  C_33
    5  A    between atoms: N_3  and  C_36
    6  A    between atoms: C_4  and  C_17
    7  A    between atoms: C_5  and  C_20
    8  A    between atoms: C_5  and  C_31
    9  A    between atoms: C_8  and  C_19
   10  A    between atoms: O_15  and  O_30
   11  A    between atoms: O_15  and  C_37
   12  A    between atoms: C_21  and  O_30
   13  A    between atoms: C_28  and  C_40
   14  A    between atoms: C_31  and  C_34
   15  A    between atoms: C_31  and  C_37
   16  A    between atoms: C_34  and  C_40
   17  A    between atoms: C_35  and  C_36
                            x       y       z     vdW  Elec       q    Type
                         _______ _______ _______ _____ _____    ______ ____

>  <TORSDO>
F 17

$$$$
=
 OpenBabel11072410573D

 42 46  0  0  1  0  0  0  0  0999 V2000
  162.1070  209.8180  150.4070 C   0  0  2  0  0  3  0  0  0  0  0  0
  161.0270  211.7900  151.3270 O   0  0  0  0  0  1  0  0  0  0  0  0
  160.9740  210.3950  151.2770 C   0  0  2  0  0  3  0  0  0  0  0  0
  160.8490  209.7980  152.6840 C   0  0  0  0  0  2  0  0  0  0  0  0
  161.5550  210.2760  155.1220 C   0  0  1  0  0  3  0  0  0  0  0  0
  161.8830  210.3540  153.6550 C   0  0  2  0  0  3  0  0  0  0  0  0
  161.3250  211.4380  154.3510 O   0  0  0  0  0  0  0  0  0  0  0  0
  160.2230  209.6290  155.6160 C   0  0  1  0  0  0  0  0  0  0  0  0
  159.6610  208.8520  154.5940 O   0  0  0  0  0  1  0  0  0  0  0  0
  160.0100  207.2430  156.5730 C   0  0  0  0  0  1  0  0  0  0  0  0
  161.9440  208.5900  156.9770 O   0  0  0  0  0  1  0  0  0  0  0  0
  160.5650  208.6520  156.7600 C   0  0  1  0  0  3  0  0  0  0  0  0
  159.2100  210.6620  156.1070 C   0  0  0  0  0  0  0  0  0  0  0  0
  159.3400  211.1420  157.2260 O   0  0  0  0  0  0  0  0  0  0  0  0
  156.6510  211.1740  155.9170 C   0  0  1  0  0  3  0  0  0  0  0  0
  158.0370  212.5430  155.0010 C   0  0  2  0  0  3  0  0  0  0  0  0
  158.1830  211.5730  153.8560 C   0  0  0  0  0  2  0  0  0  0  0  0
  158.0130  211.0360  155.2660 C   0  0  1  0  0  0  0  0  0  0  0  0
  156.6170  212.6400  155.5350 C   0  0  0  0  0  2  0  0  0  0  0  0
  154.5690  210.0110  156.0070 O   0  0  0  0  0  1  0  0  0  0  0  0
  155.5940  210.3970  155.1460 C   0  0  0  0  0  2  0  0  0  0  0  0
  161.7330  209.8410  148.9260 C   0  0  0  0  0  2  0  0  0  0  0  0
  160.8340  211.7920  147.6390 C   0  0  0  0  0  3  0  0  0  0  0  0
  163.0980  211.8980  148.4790 C   0  0  0  0  0  3  0  0  0  0  0  0
  161.8890  211.2070  148.3420 C   0  0  0  0  0  0  0  0  0  0  0  0
  162.1820  213.7250  147.2420 N   0  0  0  0  0  0  0  0  0  0  0  0
  163.2250  213.1710  147.9190 C   0  0  0  0  0  3  0  0  0  0  0  0
  159.9400  213.6720  146.3610 N   0  0  0  0  0  1  0  0  0  0  0  0
  161.0020  213.0650  147.0880 C   0  0  0  0  0  0  0  0  0  0  0  0
  162.5350  208.4120  150.8350 C   0  0  0  0  0  2  0  0  0  0  0  0
  162.3300  207.4790  149.8080 O   0  0  0  0  0  0  0  0  0  0  0  0
  161.2040  206.8090  150.1240 O   0  0  0  0  0  0  0  0  0  0  0  0
  160.9580  204.6160  151.1620 C   0  0  0  0  0  3  0  0  0  0  0  0
  160.8260  203.2300  151.0440 C   0  0  0  0  0  3  0  0  0  0  0  0
  161.1000  205.4170  150.0180 C   0  0  0  0  0  0  0  0  0  0  0  0
  160.9840  203.4220  148.6370 C   0  0  0  0  0  3  0  0  0  0  0  0
  160.8350  202.6330  149.7820 C   0  0  0  0  0  3  0  0  0  0  0  0
  161.1240  204.8100  148.7510 C   0  0  0  0  0  0  0  0  0  0  0  0
  161.2710  205.6380  147.5170 C   0  0  0  0  0  2  0  0  0  0  0  0
  162.3350  205.1000  146.6840 N   0  0  0  0  0  2  0  0  0  0  0  0
  160.6000  205.7470  145.1170 C   0  0  0  0  0  1  0  0  0  0  0  0
  162.0900  205.5880  145.3370 C   0  0  0  0  0  2  0  0  0  0  0  0
  1 22  1  6  0  0  0
  1 30  1  0  0  0  0
  1  3  1  0  0  0  0
  3  2  1  1  0  0  0
  3  4  1  0  0  0  0
  5  8  1  6  0  0  0
  6  4  1  6  0  0  0
  6  7  1  0  0  0  0
  6  5  1  0  0  0  0
  7  5  1  0  0  0  0
  8  9  1  6  0  0  0
  8 13  1  0  0  0  0
  8 12  1  0  0  0  0
 12 10  1  6  0  0  0
 12 11  1  0  0  0  0
 13 14  2  0  0  0  0
 15 21  1  6  0  0  0
 16 17  1  6  0  0  0
 16 18  1  0  0  0  0
 16 19  1  0  0  0  0
 17 18  1  0  0  0  0
 18 15  1  0  0  0  0
 18 13  1  1  0  0  0
 19 15  1  0  0  0  0
 21 20  1  0  0  0  0
 23 25  1  0  0  0  0
 25 24  2  0  0  0  0
 25 22  1  0  0  0  0
 26 27  2  0  0  0  0
 27 24  1  0  0  0  0
 28 29  1  0  0  0  0
 29 26  1  0  0  0  0
 29 23  2  0  0  0  0
 31 32  1  0  0  0  0
 31 30  1  0  0  0  0
 34 33  1  0  0  0  0
 35 32  1  0  0  0  0
 35 33  2  0  0  0  0
 36 38  2  0  0  0  0
 36 37  1  0  0  0  0
 37 34  2  0  0  0  0
 38 35  1  0  0  0  0
 39 38  1  0  0  0  0
 40 39  1  0  0  0  0
 41 42  1  0  0  0  0
 42 40  1  0  0  0  0
M  END
>  <MODEL>
2

>  <REMARK>
 VINA RESULT:      -6.5      3.014      4.607
  Name = 
  17 active torsions:
  status: ('A' for Active; 'I' for Inactive)
    1  A    between atoms: C_1  and  C_4
    2  A    between atoms: C_1  and  C_24
    3  A    between atoms: C_1  and  C_32
    4  A    between atoms: N_3  and  C_33
    5  A    between atoms: N_3  and  C_36
    6  A    between atoms: C_4  and  C_17
    7  A    between atoms: C_5  and  C_20
    8  A    between atoms: C_5  and  C_31
    9  A    between atoms: C_8  and  C_19
   10  A    between atoms: O_15  and  O_30
   11  A    between atoms: O_15  and  C_37
   12  A    between atoms: C_21  and  O_30
   13  A    between atoms: C_28  and  C_40
   14  A    between atoms: C_31  and  C_34
   15  A    between atoms: C_31  and  C_37
   16  A    between atoms: C_34  and  C_40
   17  A    between atoms: C_35  and  C_36
                            x       y       z     vdW  Elec       q    Type
                         _______ _______ _______ _____ _____    ______ ____

>  <TORSDO>
F 17

$$$$
=
 OpenBabel11072410573D

 42 46  0  0  1  0  0  0  0  0999 V2000
  160.9240  207.9950  151.7710 C   0  0  2  0  0  3  0  0  0  0  0  0
  162.4750  209.8620  151.8850 O   0  0  0  0  0  1  0  0  0  0  0  0
  161.1480  209.5120  151.6230 C   0  0  2  0  0  3  0  0  0  0  0  0
  160.1790  210.4050  152.4060 C   0  0  0  0  0  2  0  0  0  0  0  0
  159.4740  212.8590  152.7990 C   0  0  1  0  0  3  0  0  0  0  0  0
  160.2280  211.8620  151.9600 C   0  0  2  0  0  3  0  0  0  0  0  0
  158.9310  212.2840  151.6270 O   0  0  0  0  0  0  0  0  0  0  0  0
  158.7000  212.4130  154.0790 C   0  0  1  0  0  0  0  0  0  0  0  0
  158.3590  211.0570  153.9840 O   0  0  0  0  0  1  0  0  0  0  0  0
  159.6260  213.8820  155.9860 C   0  0  0  0  0  1  0  0  0  0  0  0
  159.4420  211.5090  156.2070 O   0  0  0  0  0  1  0  0  0  0  0  0
  159.6620  212.5310  155.2790 C   0  0  1  0  0  3  0  0  0  0  0  0
  157.4490  213.2520  154.3370 C   0  0  0  0  0  0  0  0  0  0  0  0
  157.4750  214.4530  154.0990 O   0  0  0  0  0  0  0  0  0  0  0  0
  156.2980  211.2590  155.5830 C   0  0  1  0  0  3  0  0  0  0  0  0
  155.9890  213.2520  156.3380 C   0  0  2  0  0  3  0  0  0  0  0  0
  154.9810  213.4750  155.2380 C   0  0  0  0  0  2  0  0  0  0  0  0
  156.2160  212.6370  154.9550 C   0  0  1  0  0  0  0  0  0  0  0  0
  155.9390  211.8530  156.9310 C   0  0  0  0  0  2  0  0  0  0  0  0
  154.5390  209.7530  156.1600 O   0  0  0  0  0  1  0  0  0  0  0  0
  155.1760  210.3620  155.0800 C   0  0  0  0  0  2  0  0  0  0  0  0
  161.8460  207.4010  152.8340 C   0  0  0  0  0  2  0  0  0  0  0  0
  161.9260  208.5170  155.0750 C   0  0  0  0  0  3  0  0  0  0  0  0
  160.1850  206.8950  154.6450 C   0  0  0  0  0  3  0  0  0  0  0  0
  161.3040  207.6140  154.2100 C   0  0  0  0  0  0  0  0  0  0  0  0
  160.3170  207.9920  156.7630 N   0  0  0  0  0  0  0  0  0  0  0  0
  159.6990  207.1030  155.9370 C   0  0  0  0  0  3  0  0  0  0  0  0
  162.0390  209.6020  157.2610 N   0  0  0  0  0  1  0  0  0  0  0  0
  161.4130  208.6930  156.3640 C   0  0  0  0  0  0  0  0  0  0  0  0
  161.0660  207.2370  150.4480 C   0  0  0  0  0  2  0  0  0  0  0  0
  160.7810  205.8730  150.6070 O   0  0  0  0  0  0  0  0  0  0  0  0
  160.8960  205.3170  149.3850 O   0  0  0  0  0  0  0  0  0  0  0  0
  160.4210  203.0530  150.1590 C   0  0  0  0  0  3  0  0  0  0  0  0
  160.4280  201.6730  149.9380 C   0  0  0  0  0  3  0  0  0  0  0  0
  160.9260  203.9310  149.1860 C   0  0  0  0  0  0  0  0  0  0  0  0
  161.4530  202.0270  147.7740 C   0  0  0  0  0  3  0  0  0  0  0  0
  160.9400  201.1600  148.7440 C   0  0  0  0  0  3  0  0  0  0  0  0
  161.4540  203.4090  147.9940 C   0  0  0  0  0  0  0  0  0  0  0  0
  161.9950  204.3200  146.9410 C   0  0  0  0  0  2  0  0  0  0  0  0
  161.3210  204.0690  145.6770 N   0  0  0  0  0  2  0  0  0  0  0  0
  160.2620  206.2480  145.5570 C   0  0  0  0  0  1  0  0  0  0  0  0
  161.3100  205.3330  144.9590 C   0  0  0  0  0  2  0  0  0  0  0  0
  1 30  1  6  0  0  0
  1 22  1  0  0  0  0
  3  1  1  0  0  0  0
  3  2  1  1  0  0  0
  3  4  1  0  0  0  0
  5  8  1  1  0  0  0
  6  4  1  1  0  0  0
  6  5  1  0  0  0  0
  7  6  1  0  0  0  0
  7  5  1  0  0  0  0
  8  9  1  6  0  0  0
  8 13  1  0  0  0  0
  8 12  1  0  0  0  0
 12 10  1  1  0  0  0
 12 11  1  0  0  0  0
 14 13  2  0  0  0  0
 15 21  1  6  0  0  0
 15 19  1  0  0  0  0
 16 17  1  6  0  0  0
 16 19  1  0  0  0  0
 18 13  1  6  0  0  0
 18 17  1  0  0  0  0
 18 15  1  0  0  0  0
 18 16  1  0  0  0  0
 21 20  1  0  0  0  0
 22 25  1  0  0  0  0
 23 29  1  0  0  0  0
 24 27  2  0  0  0  0
 25 24  1  0  0  0  0
 25 23  2  0  0  0  0
 27 26  1  0  0  0  0
 29 26  2  0  0  0  0
 29 28  1  0  0  0  0
 30 31  1  0  0  0  0
 32 31  1  0  0  0  0
 34 33  1  0  0  0  0
 35 32  1  0  0  0  0
 35 33  2  0  0  0  0
 36 38  2  0  0  0  0
 36 37  1  0  0  0  0
 37 34  2  0  0  0  0
 38 35  1  0  0  0  0
 39 38  1  0  0  0  0
 40 39  1  0  0  0  0
 42 41  1  0  0  0  0
 42 40  1  0  0  0  0
M  END
>  <MODEL>
3

>  <REMARK>
 VINA RESULT:      -6.3      2.137      3.814
  Name = 
  17 active torsions:
  status: ('A' for Active; 'I' for Inactive)
    1  A    between atoms: C_1  and  C_4
    2  A    between atoms: C_1  and  C_24
    3  A    between atoms: C_1  and  C_32
    4  A    between atoms: N_3  and  C_33
    5  A    between atoms: N_3  and  C_36
    6  A    between atoms: C_4  and  C_17
    7  A    between atoms: C_5  and  C_20
    8  A    between atoms: C_5  and  C_31
    9  A    between atoms: C_8  and  C_19
   10  A    between atoms: O_15  and  O_30
   11  A    between atoms: O_15  and  C_37
   12  A    between atoms: C_21  and  O_30
   13  A    between atoms: C_28  and  C_40
   14  A    between atoms: C_31  and  C_34
   15  A    between atoms: C_31  and  C_37
   16  A    between atoms: C_34  and  C_40
   17  A    between atoms: C_35  and  C_36
                            x       y       z     vdW  Elec       q    Type
                         _______ _______ _______ _____ _____    ______ ____

>  <TORSDO>
F 17

$$$$
=
 OpenBabel11072410573D

 42 46  0  0  1  0  0  0  0  0999 V2000
  161.8380  211.2100  150.3810 C   0  0  2  0  0  3  0  0  0  0  0  0
  160.5720  213.2730  150.6010 O   0  0  0  0  0  1  0  0  0  0  0  0
  160.5360  211.8950  150.8360 C   0  0  2  0  0  3  0  0  0  0  0  0
  160.0940  211.5930  152.2720 C   0  0  0  0  0  2  0  0  0  0  0  0
  158.3490  212.2690  154.0530 C   0  0  1  0  0  3  0  0  0  0  0  0
  158.7180  212.1620  152.5980 C   0  0  2  0  0  3  0  0  0  0  0  0
  157.9550  211.1770  153.2460 O   0  0  0  0  0  0  0  0  0  0  0  0
  159.3500  211.8360  155.1710 C   0  0  1  0  0  0  0  0  0  0  0  0
  160.6650  212.0880  154.7600 O   0  0  0  0  0  1  0  0  0  0  0  0
  160.0530  213.9240  156.5120 C   0  0  0  0  0  1  0  0  0  0  0  0
  157.7820  213.1820  156.4450 O   0  0  0  0  0  1  0  0  0  0  0  0
  159.1040  212.7340  156.4010 C   0  0  1  0  0  3  0  0  0  0  0  0
  159.1960  210.3680  155.5670 C   0  0  0  0  0  0  0  0  0  0  0  0
  158.0860  209.9410  155.8600 O   0  0  0  0  0  0  0  0  0  0  0  0
  160.9690  209.1380  157.0470 C   0  0  1  0  0  3  0  0  0  0  0  0
  159.9520  208.0090  155.5210 C   0  0  2  0  0  3  0  0  0  0  0  0
  160.8680  208.6330  154.4980 C   0  0  0  0  0  2  0  0  0  0  0  0
  160.4000  209.4640  155.6800 C   0  0  1  0  0  0  0  0  0  0  0  0
  160.6450  207.6730  156.8310 C   0  0  0  0  0  2  0  0  0  0  0  0
  162.7750  210.6520  156.6760 O   0  0  0  0  0  1  0  0  0  0  0  0
  162.4750  209.3520  157.0780 C   0  0  0  0  0  2  0  0  0  0  0  0
  161.7890  210.8600  148.8950 C   0  0  0  0  0  2  0  0  0  0  0  0
  160.6350  212.3220  147.2210 C   0  0  0  0  0  3  0  0  0  0  0  0
  162.8040  212.9940  148.0500 C   0  0  0  0  0  3  0  0  0  0  0  0
  161.7380  212.0860  148.0430 C   0  0  0  0  0  0  0  0  0  0  0  0
  161.6520  214.3430  146.4500 N   0  0  0  0  0  0  0  0  0  0  0  0
  162.7400  214.1300  147.2420 C   0  0  0  0  0  3  0  0  0  0  0  0
  159.4980  213.7190  145.5710 N   0  0  0  0  0  1  0  0  0  0  0  0
  160.6100  213.4680  146.4210 C   0  0  0  0  0  0  0  0  0  0  0  0
  162.1900  209.9770  151.2160 C   0  0  0  0  0  2  0  0  0  0  0  0
  161.7350  208.7990  150.6060 O   0  0  0  0  0  0  0  0  0  0  0  0
  162.2920  207.7790  151.2880 O   0  0  0  0  0  0  0  0  0  0  0  0
  161.6520  205.7180  152.4260 C   0  0  0  0  0  3  0  0  0  0  0  0
  161.1100  204.4310  152.3830 C   0  0  0  0  0  3  0  0  0  0  0  0
  161.7780  206.4770  151.2520 C   0  0  0  0  0  0  0  0  0  0  0  0
  160.8200  204.6360  149.9890 C   0  0  0  0  0  3  0  0  0  0  0  0
  160.6910  203.8910  151.1650 C   0  0  0  0  0  3  0  0  0  0  0  0
  161.3690  205.9240  150.0270 C   0  0  0  0  0  0  0  0  0  0  0  0
  161.4880  206.7090  148.7620 C   0  0  0  0  0  2  0  0  0  0  0  0
  160.5830  206.1710  147.7590 N   0  0  0  0  0  2  0  0  0  0  0  0
  160.2810  206.1140  145.3530 C   0  0  0  0  0  1  0  0  0  0  0  0
  161.2740  206.2730  146.4840 C   0  0  0  0  0  2  0  0  0  0  0  0
  1 22  1  6  0  0  0
  1  3  1  0  0  0  0
  1 30  1  0  0  0  0
  3  2  1  1  0  0  0
  3  4  1  0  0  0  0
  5  8  1  1  0  0  0
  6  4  1  1  0  0  0
  6  7  1  0  0  0  0
  6  5  1  0  0  0  0
  7  5  1  0  0  0  0
  8  9  1  6  0  0  0
  8 13  1  0  0  0  0
  8 12  1  0  0  0  0
 12 11  1  0  0  0  0
 12 10  1  6  0  0  0
 13 14  2  0  0  0  0
 15 21  1  6  0  0  0
 16 17  1  6  0  0  0
 16 18  1  0  0  0  0
 16 19  1  0  0  0  0
 17 18  1  0  0  0  0
 18 13  1  6  0  0  0
 18 15  1  0  0  0  0
 19 15  1  0  0  0  0
 20 21  1  0  0  0  0
 23 25  1  0  0  0  0
 25 24  2  0  0  0  0
 25 22  1  0  0  0  0
 26 27  2  0  0  0  0
 27 24  1  0  0  0  0
 28 29  1  0  0  0  0
 29 26  1  0  0  0  0
 29 23  2  0  0  0  0
 31 30  1  0  0  0  0
 31 32  1  0  0  0  0
 34 33  1  0  0  0  0
 35 32  1  0  0  0  0
 35 33  2  0  0  0  0
 36 38  2  0  0  0  0
 36 37  1  0  0  0  0
 37 34  2  0  0  0  0
 38 35  1  0  0  0  0
 39 38  1  0  0  0  0
 40 39  1  0  0  0  0
 41 42  1  0  0  0  0
 42 40  1  0  0  0  0
M  END
>  <MODEL>
4

>  <REMARK>
 VINA RESULT:      -6.2      3.504      6.039
  Name = 
  17 active torsions:
  status: ('A' for Active; 'I' for Inactive)
    1  A    between atoms: C_1  and  C_4
    2  A    between atoms: C_1  and  C_24
    3  A    between atoms: C_1  and  C_32
    4  A    between atoms: N_3  and  C_33
    5  A    between atoms: N_3  and  C_36
    6  A    between atoms: C_4  and  C_17
    7  A    between atoms: C_5  and  C_20
    8  A    between atoms: C_5  and  C_31
    9  A    between atoms: C_8  and  C_19
   10  A    between atoms: O_15  and  O_30
   11  A    between atoms: O_15  and  C_37
   12  A    between atoms: C_21  and  O_30
   13  A    between atoms: C_28  and  C_40
   14  A    between atoms: C_31  and  C_34
   15  A    between atoms: C_31  and  C_37
   16  A    between atoms: C_34  and  C_40
   17  A    between atoms: C_35  and  C_36
                            x       y       z     vdW  Elec       q    Type
                         _______ _______ _______ _____ _____    ______ ____

>  <TORSDO>
F 17

$$$$
=
 OpenBabel11072410573D

 42 46  0  0  1  0  0  0  0  0999 V2000
  162.1700  209.8520  150.1510 C   0  0  2  0  0  3  0  0  0  0  0  0
  160.9120  208.0440  151.1770 O   0  0  0  0  0  1  0  0  0  0  0  0
  161.7570  209.1250  151.4440 C   0  0  2  0  0  3  0  0  0  0  0  0
  161.1790  210.0140  152.5510 C   0  0  0  0  0  2  0  0  0  0  0  0
  161.7150  210.0730  155.0770 C   0  0  1  0  0  3  0  0  0  0  0  0
  162.1800  210.2990  153.6630 C   0  0  2  0  0  3  0  0  0  0  0  0
  161.6960  211.3460  154.4620 O   0  0  0  0  0  0  0  0  0  0  0  0
  160.2750  209.5480  155.3760 C   0  0  1  0  0  0  0  0  0  0  0  0
  159.7420  208.9360  154.2340 O   0  0  0  0  0  1  0  0  0  0  0  0
  159.7180  207.1240  156.0610 C   0  0  0  0  0  1  0  0  0  0  0  0
  161.7180  208.2090  156.7950 O   0  0  0  0  0  1  0  0  0  0  0  0
  160.3860  208.4410  156.4450 C   0  0  1  0  0  3  0  0  0  0  0  0
  159.3360  210.6480  155.8690 C   0  0  0  0  0  0  0  0  0  0  0  0
  159.4780  211.0940  157.0010 O   0  0  0  0  0  0  0  0  0  0  0  0
  156.8370  211.3930  155.6480 C   0  0  1  0  0  3  0  0  0  0  0  0
  158.3550  212.6290  154.7510 C   0  0  2  0  0  3  0  0  0  0  0  0
  158.4260  211.6500  153.6060 C   0  0  0  0  0  2  0  0  0  0  0  0
  158.1890  211.1300  155.0140 C   0  0  1  0  0  0  0  0  0  0  0  0
  156.9440  212.8570  155.2670 C   0  0  0  0  0  2  0  0  0  0  0  0
  154.8930  210.0130  155.7310 O   0  0  0  0  0  1  0  0  0  0  0  0
  155.7230  210.7180  154.8620 C   0  0  0  0  0  2  0  0  0  0  0  0
  161.7500  211.3210  150.1840 C   0  0  0  0  0  2  0  0  0  0  0  0
  160.6350  212.2640  148.1500 C   0  0  0  0  0  3  0  0  0  0  0  0
  163.0500  212.1780  148.2170 C   0  0  0  0  0  3  0  0  0  0  0  0
  161.8130  211.9400  148.8260 C   0  0  0  0  0  0  0  0  0  0  0  0
  161.9250  213.0640  146.3040 N   0  0  0  0  0  0  0  0  0  0  0  0
  163.0860  212.7500  146.9440 C   0  0  0  0  0  3  0  0  0  0  0  0
  159.5220  213.1590  146.1680 N   0  0  0  0  0  1  0  0  0  0  0  0
  160.7120  212.8300  146.8740 C   0  0  0  0  0  0  0  0  0  0  0  0
  161.6460  209.1690  148.8860 C   0  0  0  0  0  2  0  0  0  0  0  0
  162.4540  208.0830  148.5180 O   0  0  0  0  0  0  0  0  0  0  0  0
  161.6990  206.9780  148.6770 O   0  0  0  0  0  0  0  0  0  0  0  0
  162.3790  205.9910  146.5530 C   0  0  0  0  0  3  0  0  0  0  0  0
  162.4900  204.8760  145.7180 C   0  0  0  0  0  3  0  0  0  0  0  0
  161.7880  205.8740  147.8200 C   0  0  0  0  0  0  0  0  0  0  0  0
  161.4100  203.5120  147.3990 C   0  0  0  0  0  3  0  0  0  0  0  0
  162.0090  203.6360  146.1410 C   0  0  0  0  0  3  0  0  0  0  0  0
  161.2910  204.6270  148.2370 C   0  0  0  0  0  0  0  0  0  0  0  0
  160.6590  204.4730  149.5810 C   0  0  0  0  0  2  0  0  0  0  0  0
  161.6890  204.2940  150.5930 N   0  0  0  0  0  2  0  0  0  0  0  0
  160.8860  202.0070  150.6970 C   0  0  0  0  0  1  0  0  0  0  0  0
  161.2080  203.2570  151.4900 C   0  0  0  0  0  2  0  0  0  0  0  0
  1 30  1  6  0  0  0
  1 22  1  0  0  0  0
  1  3  1  0  0  0  0
  3  2  1  6  0  0  0
  3  4  1  0  0  0  0
  5  8  1  6  0  0  0
  6  4  1  6  0  0  0
  6  7  1  0  0  0  0
  6  5  1  0  0  0  0
  7  5  1  0  0  0  0
  8  9  1  6  0  0  0
  8 13  1  0  0  0  0
  8 12  1  0  0  0  0
 12 10  1  6  0  0  0
 12 11  1  0  0  0  0
 13 14  2  0  0  0  0
 15 21  1  6  0  0  0
 16 17  1  6  0  0  0
 16 18  1  0  0  0  0
 16 19  1  0  0  0  0
 17 18  1  0  0  0  0
 18 15  1  0  0  0  0
 18 13  1  1  0  0  0
 19 15  1  0  0  0  0
 21 20  1  0  0  0  0
 23 25  1  0  0  0  0
 24 25  2  0  0  0  0
 25 22  1  0  0  0  0
 26 29  1  0  0  0  0
 26 27  2  0  0  0  0
 27 24  1  0  0  0  0
 28 29  1  0  0  0  0
 29 23  2  0  0  0  0
 31 32  1  0  0  0  0
 31 30  1  0  0  0  0
 33 35  1  0  0  0  0
 34 37  1  0  0  0  0
 34 33  2  0  0  0  0
 35 38  2  0  0  0  0
 35 32  1  0  0  0  0
 36 38  1  0  0  0  0
 37 36  2  0  0  0  0
 38 39  1  0  0  0  0
 39 40  1  0  0  0  0
 40 42  1  0  0  0  0
 41 42  1  0  0  0  0
M  END
>  <MODEL>
5

>  <REMARK>
 VINA RESULT:      -6.2      2.939      4.193
  Name = 
  17 active torsions:
  status: ('A' for Active; 'I' for Inactive)
    1  A    between atoms: C_1  and  C_4
    2  A    between atoms: C_1  and  C_24
    3  A    between atoms: C_1  and  C_32
    4  A    between atoms: N_3  and  C_33
    5  A    between atoms: N_3  and  C_36
    6  A    between atoms: C_4  and  C_17
    7  A    between atoms: C_5  and  C_20
    8  A    between atoms: C_5  and  C_31
    9  A    between atoms: C_8  and  C_19
   10  A    between atoms: O_15  and  O_30
   11  A    between atoms: O_15  and  C_37
   12  A    between atoms: C_21  and  O_30
   13  A    between atoms: C_28  and  C_40
   14  A    between atoms: C_31  and  C_34
   15  A    between atoms: C_31  and  C_37
   16  A    between atoms: C_34  and  C_40
   17  A    between atoms: C_35  and  C_36
                            x       y       z     vdW  Elec       q    Type
                         _______ _______ _______ _____ _____    ______ ____

>  <TORSDO>
F 17

$$$$
=
 OpenBabel11072410573D

 42 46  0  0  1  0  0  0  0  0999 V2000
  161.5130  208.9880  152.5560 C   0  0  2  0  0  3  0  0  0  0  0  0
  161.4270  207.0440  154.0110 O   0  0  0  0  0  1  0  0  0  0  0  0
  160.8710  207.6220  152.8670 C   0  0  2  0  0  3  0  0  0  0  0  0
  160.8410  206.6230  151.7040 C   0  0  0  0  0  2  0  0  0  0  0  0
  161.9360  204.4830  150.7590 C   0  0  1  0  0  3  0  0  0  0  0  0
  161.8420  205.4880  151.8760 C   0  0  2  0  0  3  0  0  0  0  0  0
  161.1510  204.2670  151.9140 O   0  0  0  0  0  0  0  0  0  0  0  0
  161.0590  204.6230  149.4750 C   0  0  1  0  0  0  0  0  0  0  0  0
  159.7100  204.4140  149.7920 O   0  0  0  0  0  1  0  0  0  0  0  0
  162.4870  206.4280  148.3090 C   0  0  0  0  0  1  0  0  0  0  0  0
  160.1030  206.4100  148.1380 O   0  0  0  0  0  1  0  0  0  0  0  0
  161.1640  206.0820  148.9860 C   0  0  1  0  0  3  0  0  0  0  0  0
  161.4890  203.6730  148.3580 C   0  0  0  0  0  0  0  0  0  0  0  0
  162.3930  204.0080  147.6020 O   0  0  0  0  0  0  0  0  0  0  0  0
  161.0560  201.5590  146.8780 C   0  0  1  0  0  3  0  0  0  0  0  0
  161.4040  201.2780  148.9850 C   0  0  2  0  0  3  0  0  0  0  0  0
  159.9790  201.7000  149.2410 C   0  0  0  0  0  2  0  0  0  0  0  0
  160.7620  202.3700  148.1250 C   0  0  1  0  0  0  0  0  0  0  0  0
  161.5680  200.4220  147.7400 C   0  0  0  0  0  2  0  0  0  0  0  0
  159.7720  201.6490  144.8690 O   0  0  0  0  0  1  0  0  0  0  0  0
  159.7690  201.1560  146.1730 C   0  0  0  0  0  2  0  0  0  0  0  0
  160.5790  210.1360  152.9330 C   0  0  0  0  0  2  0  0  0  0  0  0
  161.9120  210.5460  155.0130 C   0  0  0  0  0  3  0  0  0  0  0  0
  159.5000  210.6480  155.1410 C   0  0  0  0  0  3  0  0  0  0  0  0
  160.6660  210.4570  154.3900 C   0  0  0  0  0  0  0  0  0  0  0  0
  160.8300  211.0260  157.0890 N   0  0  0  0  0  0  0  0  0  0  0  0
  159.6040  210.9390  156.5020 C   0  0  0  0  0  3  0  0  0  0  0  0
  163.2360  210.9200  157.0320 N   0  0  0  0  0  1  0  0  0  0  0  0
  161.9750  210.8340  156.3800 C   0  0  0  0  0  0  0  0  0  0  0  0
  161.9690  209.1180  151.1010 C   0  0  0  0  0  2  0  0  0  0  0  0
  162.3340  210.4370  150.7940 O   0  0  0  0  0  0  0  0  0  0  0  0
  161.6480  210.7720  149.6840 O   0  0  0  0  0  0  0  0  0  0  0  0
  162.8380  212.0530  147.9820 C   0  0  0  0  0  3  0  0  0  0  0  0
  163.0290  213.2460  147.2800 C   0  0  0  0  0  3  0  0  0  0  0  0
  161.8680  211.9710  148.9940 C   0  0  0  0  0  0  0  0  0  0  0  0
  161.2920  214.2970  148.5960 C   0  0  0  0  0  3  0  0  0  0  0  0
  162.2540  214.3670  147.5840 C   0  0  0  0  0  3  0  0  0  0  0  0
  161.1010  213.1060  149.3070 C   0  0  0  0  0  0  0  0  0  0  0  0
  160.0610  213.0460  150.3770 C   0  0  0  0  0  2  0  0  0  0  0  0
  159.1770  214.1970  150.2710 N   0  0  0  0  0  2  0  0  0  0  0  0
  158.4780  213.1330  152.3350 C   0  0  0  0  0  1  0  0  0  0  0  0
  158.6650  214.4470  151.6080 C   0  0  0  0  0  2  0  0  0  0  0  0
  1 30  1  6  0  0  0
  1  3  1  0  0  0  0
  1 22  1  0  0  0  0
  3  2  1  1  0  0  0
  4  3  1  0  0  0  0
  5  8  1  6  0  0  0
  5  6  1  0  0  0  0
  5  7  1  0  0  0  0
  6  4  1  6  0  0  0
  6  7  1  0  0  0  0
  8  9  1  1  0  0  0
 11 12  1  0  0  0  0
 12 10  1  6  0  0  0
 12  8  1  0  0  0  0
 13  8  1  0  0  0  0
 14 13  2  0  0  0  0
 15 21  1  1  0  0  0
 15 19  1  0  0  0  0
 15 18  1  0  0  0  0
 16 19  1  6  0  0  0
 16 17  1  0  0  0  0
 18 13  1  1  0  0  0
 18 16  1  0  0  0  0
 18 17  1  0  0  0  0
 20 21  1  0  0  0  0
 22 25  1  0  0  0  0
 23 29  1  0  0  0  0
 24 27  2  0  0  0  0
 25 23  2  0  0  0  0
 25 24  1  0  0  0  0
 27 26  1  0  0  0  0
 29 28  1  0  0  0  0
 29 26  2  0  0  0  0
 31 30  1  0  0  0  0
 32 31  1  0  0  0  0
 33 35  1  0  0  0  0
 34 37  1  0  0  0  0
 34 33  2  0  0  0  0
 35 38  2  0  0  0  0
 35 32  1  0  0  0  0
 36 38  1  0  0  0  0
 37 36  2  0  0  0  0
 38 39  1  0  0  0  0
 40 39  1  0  0  0  0
 40 42  1  0  0  0  0
 42 41  1  0  0  0  0
M  END
>  <MODEL>
6

>  <REMARK>
 VINA RESULT:      -5.9      3.656      9.141
  Name = 
  17 active torsions:
  status: ('A' for Active; 'I' for Inactive)
    1  A    between atoms: C_1  and  C_4
    2  A    between atoms: C_1  and  C_24
    3  A    between atoms: C_1  and  C_32
    4  A    between atoms: N_3  and  C_33
    5  A    between atoms: N_3  and  C_36
    6  A    between atoms: C_4  and  C_17
    7  A    between atoms: C_5  and  C_20
    8  A    between atoms: C_5  and  C_31
    9  A    between atoms: C_8  and  C_19
   10  A    between atoms: O_15  and  O_30
   11  A    between atoms: O_15  and  C_37
   12  A    between atoms: C_21  and  O_30
   13  A    between atoms: C_28  and  C_40
   14  A    between atoms: C_31  and  C_34
   15  A    between atoms: C_31  and  C_37
   16  A    between atoms: C_34  and  C_40
   17  A    between atoms: C_35  and  C_36
                            x       y       z     vdW  Elec       q    Type
                         _______ _______ _______ _____ _____    ______ ____

>  <TORSDO>
F 17

$$$$
=
 OpenBabel11072410573D

 42 46  0  0  1  0  0  0  0  0999 V2000
  162.3480  209.2720  150.0340 C   0  0  2  0  0  3  0  0  0  0  0  0
  162.5430  207.1670  151.2330 O   0  0  0  0  0  1  0  0  0  0  0  0
  162.5230  208.5560  151.3870 C   0  0  2  0  0  3  0  0  0  0  0  0
  161.5440  208.9730  152.4900 C   0  0  0  0  0  2  0  0  0  0  0  0
  160.3510  207.9390  154.5340 C   0  0  1  0  0  3  0  0  0  0  0  0
  160.8140  207.7880  153.1100 C   0  0  2  0  0  3  0  0  0  0  0  0
  161.5640  207.3000  154.1910 O   0  0  0  0  0  0  0  0  0  0  0  0
  160.5920  209.2640  155.3240 C   0  0  1  0  0  0  0  0  0  0  0  0
  159.6310  209.4010  156.3340 O   0  0  0  0  0  1  0  0  0  0  0  0
  162.4070  210.4230  156.7430 C   0  0  0  0  0  1  0  0  0  0  0  0
  161.9620  208.0830  156.9420 O   0  0  0  0  0  1  0  0  0  0  0  0
  161.9540  209.1480  156.0390 C   0  0  1  0  0  3  0  0  0  0  0  0
  160.5860  210.4980  154.4230 C   0  0  0  0  0  0  0  0  0  0  0  0
  161.6500  210.9370  154.0030 O   0  0  0  0  0  0  0  0  0  0  0  0
  158.8340  212.3460  155.0230 C   0  0  1  0  0  3  0  0  0  0  0  0
  159.5570  212.2430  152.9970 C   0  0  2  0  0  3  0  0  0  0  0  0
  158.6240  211.0810  152.7610 C   0  0  0  0  0  2  0  0  0  0  0  0
  159.3000  211.2270  154.1130 C   0  0  1  0  0  0  0  0  0  0  0  0
  158.9600  213.3300  153.8760 C   0  0  0  0  0  2  0  0  0  0  0  0
  156.6010  213.1650  154.8250 O   0  0  0  0  0  1  0  0  0  0  0  0
  157.3730  212.1630  155.4100 C   0  0  0  0  0  2  0  0  0  0  0  0
  161.6530  210.6210  150.2090 C   0  0  0  0  0  2  0  0  0  0  0  0
  160.7850  212.0220  148.3230 C   0  0  0  0  0  3  0  0  0  0  0  0
  163.1770  211.8130  148.6110 C   0  0  0  0  0  3  0  0  0  0  0  0
  161.8760  211.5090  149.0280 C   0  0  0  0  0  0  0  0  0  0  0  0
  162.2850  213.1330  146.8300 N   0  0  0  0  0  0  0  0  0  0  0  0
  163.3630  212.6390  147.5000 C   0  0  0  0  0  3  0  0  0  0  0  0
  159.9130  213.3640  146.4780 N   0  0  0  0  0  1  0  0  0  0  0  0
  161.0130  212.8400  147.2120 C   0  0  0  0  0  0  0  0  0  0  0  0
  161.6190  208.4180  148.9950 C   0  0  0  0  0  2  0  0  0  0  0  0
  162.4280  207.3690  148.5340 O   0  0  0  0  0  0  0  0  0  0  0  0
  161.6040  206.4900  147.9310 O   0  0  0  0  0  0  0  0  0  0  0  0
  160.7760  205.0720  149.7350 C   0  0  0  0  0  3  0  0  0  0  0  0
  160.4890  203.8010  150.2380 C   0  0  0  0  0  3  0  0  0  0  0  0
  161.3400  205.2200  148.4570 C   0  0  0  0  0  0  0  0  0  0  0  0
  161.3330  202.8050  148.2010 C   0  0  0  0  0  3  0  0  0  0  0  0
  160.7640  202.6670  149.4710 C   0  0  0  0  0  3  0  0  0  0  0  0
  161.6290  204.0760  147.6950 C   0  0  0  0  0  0  0  0  0  0  0  0
  162.2250  204.2040  146.3320 C   0  0  0  0  0  2  0  0  0  0  0  0
  161.1870  204.0650  145.3230 N   0  0  0  0  0  2  0  0  0  0  0  0
  160.0660  206.1950  145.0170 C   0  0  0  0  0  1  0  0  0  0  0  0
  161.1940  205.2980  144.5520 C   0  0  0  0  0  2  0  0  0  0  0  0
  1 30  1  6  0  0  0
  1 22  1  0  0  0  0
  1  3  1  0  0  0  0
  3  2  1  6  0  0  0
  3  4  1  0  0  0  0
  5  8  1  1  0  0  0
  6  4  1  1  0  0  0
  6  7  1  0  0  0  0
  6  5  1  0  0  0  0
  7  5  1  0  0  0  0
  8 12  1  0  0  0  0
  8  9  1  1  0  0  0
 12 10  1  1  0  0  0
 12 11  1  0  0  0  0
 13  8  1  0  0  0  0
 14 13  2  0  0  0  0
 15 21  1  6  0  0  0
 16 17  1  6  0  0  0
 16 19  1  0  0  0  0
 16 18  1  0  0  0  0
 17 18  1  0  0  0  0
 18 13  1  1  0  0  0
 18 15  1  0  0  0  0
 19 15  1  0  0  0  0
 20 21  1  0  0  0  0
 23 25  1  0  0  0  0
 24 25  2  0  0  0  0
 25 22  1  0  0  0  0
 26 29  1  0  0  0  0
 26 27  2  0  0  0  0
 27 24  1  0  0  0  0
 28 29  1  0  0  0  0
 29 23  2  0  0  0  0
 31 30  1  0  0  0  0
 32 35  1  0  0  0  0
 32 31  1  0  0  0  0
 33 34  1  0  0  0  0
 35 33  2  0  0  0  0
 36 37  1  0  0  0  0
 37 34  2  0  0  0  0
 38 36  2  0  0  0  0
 38 35  1  0  0  0  0
 39 38  1  0  0  0  0
 40 39  1  0  0  0  0
 42 41  1  0  0  0  0
 42 40  1  0  0  0  0
M  END
>  <MODEL>
7

>  <REMARK>
 VINA RESULT:      -5.8      3.101      4.746
  Name = 
  17 active torsions:
  status: ('A' for Active; 'I' for Inactive)
    1  A    between atoms: C_1  and  C_4
    2  A    between atoms: C_1  and  C_24
    3  A    between atoms: C_1  and  C_32
    4  A    between atoms: N_3  and  C_33
    5  A    between atoms: N_3  and  C_36
    6  A    between atoms: C_4  and  C_17
    7  A    between atoms: C_5  and  C_20
    8  A    between atoms: C_5  and  C_31
    9  A    between atoms: C_8  and  C_19
   10  A    between atoms: O_15  and  O_30
   11  A    between atoms: O_15  and  C_37
   12  A    between atoms: C_21  and  O_30
   13  A    between atoms: C_28  and  C_40
   14  A    between atoms: C_31  and  C_34
   15  A    between atoms: C_31  and  C_37
   16  A    between atoms: C_34  and  C_40
   17  A    between atoms: C_35  and  C_36
                            x       y       z     vdW  Elec       q    Type
                         _______ _______ _______ _____ _____    ______ ____

>  <TORSDO>
F 17

$$$$
=
 OpenBabel11072410573D

 42 46  0  0  1  0  0  0  0  0999 V2000
  161.9630  207.4820  149.3440 C   0  0  2  0  0  3  0  0  0  0  0  0
  162.2380  209.8960  149.2950 O   0  0  0  0  0  1  0  0  0  0  0  0
  161.6740  208.8390  150.0140 C   0  0  2  0  0  3  0  0  0  0  0  0
  162.0310  208.9330  151.5020 C   0  0  0  0  0  2  0  0  0  0  0  0
  161.5780  210.6990  153.3320 C   0  0  1  0  0  3  0  0  0  0  0  0
  162.1670  210.3720  151.9860 C   0  0  2  0  0  3  0  0  0  0  0  0
  160.8890  210.9340  152.1200 O   0  0  0  0  0  0  0  0  0  0  0  0
  160.8820  209.6000  154.1950 C   0  0  1  0  0  0  0  0  0  0  0  0
  160.4560  208.5470  153.3750 O   0  0  0  0  0  1  0  0  0  0  0  0
  162.2570  209.8680  156.3610 C   0  0  0  0  0  1  0  0  0  0  0  0
  161.5800  207.7190  155.5620 O   0  0  0  0  0  1  0  0  0  0  0  0
  161.9410  209.0030  155.1450 C   0  0  1  0  0  3  0  0  0  0  0  0
  159.7080  210.1420  155.0080 C   0  0  0  0  0  0  0  0  0  0  0  0
  159.0350  209.3670  155.6770 O   0  0  0  0  0  0  0  0  0  0  0  0
  158.1470  212.0190  154.0660 C   0  0  1  0  0  3  0  0  0  0  0  0
  158.5210  211.9700  156.1860 C   0  0  2  0  0  3  0  0  0  0  0  0
  159.8630  212.6070  155.9280 C   0  0  0  0  0  2  0  0  0  0  0  0
  159.3180  211.5990  154.9320 C   0  0  1  0  0  0  0  0  0  0  0  0
  157.4130  212.5110  155.2970 C   0  0  0  0  0  2  0  0  0  0  0  0
  158.2040  212.8900  151.8450 O   0  0  0  0  0  1  0  0  0  0  0  0
  158.5250  213.1890  153.1680 C   0  0  0  0  0  2  0  0  0  0  0  0
  161.0300  207.2410  148.1580 C   0  0  0  0  0  2  0  0  0  0  0  0
  161.1370  206.2930  145.8430 C   0  0  0  0  0  3  0  0  0  0  0  0
  162.7670  205.5630  147.4740 C   0  0  0  0  0  3  0  0  0  0  0  0
  161.6620  206.3530  147.1360 C   0  0  0  0  0  0  0  0  0  0  0  0
  162.8130  204.6950  145.2490 N   0  0  0  0  0  0  0  0  0  0  0  0
  163.3370  204.7350  146.5050 C   0  0  0  0  0  3  0  0  0  0  0  0
  161.2060  205.3670  143.5830 N   0  0  0  0  0  1  0  0  0  0  0  0
  161.7330  205.4470  144.9030 C   0  0  0  0  0  0  0  0  0  0  0  0
  161.9080  206.3070  150.3230 C   0  0  0  0  0  2  0  0  0  0  0  0
  160.5850  205.9430  150.6120 O   0  0  0  0  0  0  0  0  0  0  0  0
  160.3200  204.8510  149.8680 O   0  0  0  0  0  0  0  0  0  0  0  0
  160.9930  203.2590  151.5890 C   0  0  0  0  0  3  0  0  0  0  0  0
  161.3640  201.9640  151.9600 C   0  0  0  0  0  3  0  0  0  0  0  0
  160.7220  203.5640  150.2460 C   0  0  0  0  0  0  0  0  0  0  0  0
  161.2090  201.2610  149.6500 C   0  0  0  0  0  3  0  0  0  0  0  0
  161.4690  200.9640  150.9910 C   0  0  0  0  0  3  0  0  0  0  0  0
  160.8430  202.5580  149.2730 C   0  0  0  0  0  0  0  0  0  0  0  0
  160.5580  202.8540  147.8370 C   0  0  0  0  0  2  0  0  0  0  0  0
  160.7790  201.6610  147.0340 N   0  0  0  0  0  2  0  0  0  0  0  0
  159.7060  201.3100  144.8870 C   0  0  0  0  0  1  0  0  0  0  0  0
  160.7590  202.0910  145.6450 C   0  0  0  0  0  2  0  0  0  0  0  0
  1 22  1  6  0  0  0
  1  3  1  0  0  0  0
  1 30  1  0  0  0  0
  3  2  1  6  0  0  0
  3  4  1  0  0  0  0
  5  8  1  1  0  0  0
  6  4  1  1  0  0  0
  6  7  1  0  0  0  0
  6  5  1  0  0  0  0
  7  5  1  0  0  0  0
  8  9  1  6  0  0  0
  8 13  1  0  0  0  0
  8 12  1  0  0  0  0
 12 11  1  0  0  0  0
 12 10  1  1  0  0  0
 13 14  2  0  0  0  0
 15 21  1  6  0  0  0
 15 18  1  0  0  0  0
 15 19  1  0  0  0  0
 16 19  1  6  0  0  0
 17 16  1  0  0  0  0
 18 13  1  6  0  0  0
 18 17  1  0  0  0  0
 18 16  1  0  0  0  0
 20 21  1  0  0  0  0
 23 25  1  0  0  0  0
 25 24  2  0  0  0  0
 25 22  1  0  0  0  0
 26 27  2  0  0  0  0
 27 24  1  0  0  0  0
 28 29  1  0  0  0  0
 29 26  1  0  0  0  0
 29 23  2  0  0  0  0
 30 31  1  0  0  0  0
 32 35  1  0  0  0  0
 32 31  1  0  0  0  0
 33 34  1  0  0  0  0
 35 33  2  0  0  0  0
 36 37  1  0  0  0  0
 37 34  2  0  0  0  0
 38 36  2  0  0  0  0
 38 35  1  0  0  0  0
 39 38  1  0  0  0  0
 40 39  1  0  0  0  0
 41 42  1  0  0  0  0
 42 40  1  0  0  0  0
M  END
>  <MODEL>
8

>  <REMARK>
 VINA RESULT:      -5.7      2.180      4.204
  Name = 
  17 active torsions:
  status: ('A' for Active; 'I' for Inactive)
    1  A    between atoms: C_1  and  C_4
    2  A    between atoms: C_1  and  C_24
    3  A    between atoms: C_1  and  C_32
    4  A    between atoms: N_3  and  C_33
    5  A    between atoms: N_3  and  C_36
    6  A    between atoms: C_4  and  C_17
    7  A    between atoms: C_5  and  C_20
    8  A    between atoms: C_5  and  C_31
    9  A    between atoms: C_8  and  C_19
   10  A    between atoms: O_15  and  O_30
   11  A    between atoms: O_15  and  C_37
   12  A    between atoms: C_21  and  O_30
   13  A    between atoms: C_28  and  C_40
   14  A    between atoms: C_31  and  C_34
   15  A    between atoms: C_31  and  C_37
   16  A    between atoms: C_34  and  C_40
   17  A    between atoms: C_35  and  C_36
                            x       y       z     vdW  Elec       q    Type
                         _______ _______ _______ _____ _____    ______ ____

>  <TORSDO>
F 17

$$$$
=
 OpenBabel11072410573D

 42 46  0  0  1  0  0  0  0  0999 V2000
  162.0910  209.1590  150.2390 C   0  0  2  0  0  3  0  0  0  0  0  0
  163.1730  210.6960  151.7790 O   0  0  0  0  0  1  0  0  0  0  0  0
  161.9460  210.3480  151.2080 C   0  0  2  0  0  3  0  0  0  0  0  0
  160.8610  210.1990  152.2810 C   0  0  0  0  0  2  0  0  0  0  0  0
  160.4500  211.6540  154.3760 C   0  0  1  0  0  3  0  0  0  0  0  0
  160.4330  211.5360  152.8750 C   0  0  2  0  0  3  0  0  0  0  0  0
  159.2770  211.3460  153.6490 O   0  0  0  0  0  0  0  0  0  0  0  0
  160.9120  210.4620  155.2720 C   0  0  1  0  0  0  0  0  0  0  0  0
  161.9460  209.7600  154.6400 O   0  0  0  0  0  1  0  0  0  0  0  0
  163.0330  210.9090  156.6700 C   0  0  0  0  0  1  0  0  0  0  0  0
  161.1550  212.3870  156.7320 O   0  0  0  0  0  1  0  0  0  0  0  0
  161.5170  211.0480  156.5650 C   0  0  1  0  0  3  0  0  0  0  0  0
  159.7700  209.5100  155.6240 C   0  0  0  0  0  0  0  0  0  0  0  0
  158.8020  209.9380  156.2400 O   0  0  0  0  0  0  0  0  0  0  0  0
  161.1310  207.4780  154.6940 C   0  0  1  0  0  3  0  0  0  0  0  0
  160.1210  207.2520  156.5830 C   0  0  2  0  0  3  0  0  0  0  0  0
  158.8300  207.0550  155.8280 C   0  0  0  0  0  2  0  0  0  0  0  0
  159.8570  208.0390  155.2960 C   0  0  1  0  0  0  0  0  0  0  0  0
  161.3190  206.5980  155.9150 C   0  0  0  0  0  2  0  0  0  0  0  0
  161.5850  205.4590  153.5050 O   0  0  0  0  0  1  0  0  0  0  0  0
  160.8290  206.6300  153.4670 C   0  0  0  0  0  2  0  0  0  0  0  0
  161.8080  209.5830  148.7980 C   0  0  0  0  0  2  0  0  0  0  0  0
  160.8730  211.9000  148.9720 C   0  0  0  0  0  3  0  0  0  0  0  0
  163.1100  211.6110  148.1000 C   0  0  0  0  0  3  0  0  0  0  0  0
  161.9360  211.0610  148.6270 C   0  0  0  0  0  0  0  0  0  0  0  0
  162.1590  213.7950  148.2890 N   0  0  0  0  0  0  0  0  0  0  0  0
  163.2050  212.9950  147.9410 C   0  0  0  0  0  3  0  0  0  0  0  0
  159.9300  214.1470  149.1320 N   0  0  0  0  0  1  0  0  0  0  0  0
  161.0050  213.2800  148.7930 C   0  0  0  0  0  0  0  0  0  0  0  0
  161.2270  207.9590  150.6290 C   0  0  0  0  0  2  0  0  0  0  0  0
  160.8190  207.2320  149.5010 O   0  0  0  0  0  0  0  0  0  0  0  0
  161.7660  206.2970  149.2890 O   0  0  0  0  0  0  0  0  0  0  0  0
  161.1130  204.1660  150.2800 C   0  0  0  0  0  3  0  0  0  0  0  0
  160.7870  202.8150  150.1360 C   0  0  0  0  0  3  0  0  0  0  0  0
  161.4660  204.9350  149.1600 C   0  0  0  0  0  0  0  0  0  0  0  0
  161.1710  202.9780  147.7520 C   0  0  0  0  0  3  0  0  0  0  0  0
  160.8120  202.2220  148.8720 C   0  0  0  0  0  3  0  0  0  0  0  0
  161.5050  204.3300  147.8930 C   0  0  0  0  0  0  0  0  0  0  0  0
  161.8740  205.1260  146.6840 C   0  0  0  0  0  2  0  0  0  0  0  0
  160.8550  206.1300  146.4230 N   0  0  0  0  0  2  0  0  0  0  0  0
  161.2010  204.7930  144.4290 C   0  0  0  0  0  1  0  0  0  0  0  0
  160.4770  205.9800  145.0270 C   0  0  0  0  0  2  0  0  0  0  0  0
  1 22  1  6  0  0  0
  1 30  1  0  0  0  0
  1  3  1  0  0  0  0
  3  2  1  1  0  0  0
  3  4  1  0  0  0  0
  5  8  1  1  0  0  0
  6  4  1  1  0  0  0
  6  7  1  0  0  0  0
  6  5  1  0  0  0  0
  7  5  1  0  0  0  0
  8  9  1  6  0  0  0
  8 13  1  0  0  0  0
  8 12  1  0  0  0  0
 12 10  1  6  0  0  0
 12 11  1  0  0  0  0
 13 14  2  0  0  0  0
 15 21  1  6  0  0  0
 15 18  1  0  0  0  0
 15 19  1  0  0  0  0
 16 17  1  6  0  0  0
 18 13  1  1  0  0  0
 18 17  1  0  0  0  0
 18 16  1  0  0  0  0
 19 16  1  0  0  0  0
 21 20  1  0  0  0  0
 24 25  1  0  0  0  0
 25 22  1  0  0  0  0
 25 23  2  0  0  0  0
 26 29  2  0  0  0  0
 27 24  2  0  0  0  0
 27 26  1  0  0  0  0
 29 23  1  0  0  0  0
 29 28  1  0  0  0  0
 31 30  1  0  0  0  0
 32 31  1  0  0  0  0
 34 33  1  0  0  0  0
 35 32  1  0  0  0  0
 35 33  2  0  0  0  0
 36 38  2  0  0  0  0
 36 37  1  0  0  0  0
 37 34  2  0  0  0  0
 38 35  1  0  0  0  0
 39 38  1  0  0  0  0
 40 39  1  0  0  0  0
 41 42  1  0  0  0  0
 42 40  1  0  0  0  0
M  END
>  <MODEL>
9

>  <REMARK>
 VINA RESULT:      -5.6      3.136      5.262
  Name = 
  17 active torsions:
  status: ('A' for Active; 'I' for Inactive)
    1  A    between atoms: C_1  and  C_4
    2  A    between atoms: C_1  and  C_24
    3  A    between atoms: C_1  and  C_32
    4  A    between atoms: N_3  and  C_33
    5  A    between atoms: N_3  and  C_36
    6  A    between atoms: C_4  and  C_17
    7  A    between atoms: C_5  and  C_20
    8  A    between atoms: C_5  and  C_31
    9  A    between atoms: C_8  and  C_19
   10  A    between atoms: O_15  and  O_30
   11  A    between atoms: O_15  and  C_37
   12  A    between atoms: C_21  and  O_30
   13  A    between atoms: C_28  and  C_40
   14  A    between atoms: C_31  and  C_34
   15  A    between atoms: C_31  and  C_37
   16  A    between atoms: C_34  and  C_40
   17  A    between atoms: C_35  and  C_36
                            x       y       z     vdW  Elec       q    Type
                         _______ _______ _______ _____ _____    ______ ____

>  <TORSDO>
F 17

$$$$
