=
 OpenBabel11072410553D

 42 45  0  0  1  0  0  0  0  0999 V2000
  161.1130  202.0750  147.9350 C   0  0  0  0  0  0  0  0  0  0  0  0
  160.8260  203.1510  150.6330 C   0  0  0  0  0  0  0  0  0  0  0  0
  160.7640  201.8240  150.4660 C   0  0  0  0  0  3  0  0  0  0  0  0
  161.3710  205.5920  148.0430 C   0  0  0  0  0  0  0  0  0  0  0  0
  160.7430  201.1650  149.0940 C   0  0  0  0  0  2  0  0  0  0  0  0
  161.1170  205.2680  149.4130 N   0  0  0  0  0  0  0  0  0  0  0  0
  161.1670  203.3990  148.1430 C   0  0  0  0  0  0  0  0  0  0  0  0
  160.9880  203.9860  149.4420 C   0  0  0  0  0  0  0  0  0  0  0  0
  161.4390  204.5160  147.2520 C   0  0  0  0  0  3  0  0  0  0  0  0
  161.6490  206.9900  147.5850 C   0  0  0  0  0  2  0  0  0  0  0  0
  162.3120  207.8330  148.6700 C   0  0  0  0  0  2  0  0  0  0  0  0
  162.1390  209.8610  150.6880 O   0  0  0  0  0  0  0  0  0  0  0  0
  162.0800  209.2530  148.4340 N   0  0  0  0  0  2  0  0  0  0  0  0
  162.0780  210.2250  149.4800 C   0  0  0  0  0  0  0  0  0  0  0  0
  162.0250  211.5770  149.1500 O   0  0  0  0  0  0  0  0  0  0  0  0
  162.8070  212.0920  148.1400 N   0  0  0  0  0  2  0  0  0  0  0  0
  162.5520  213.5060  145.7330 O   0  0  0  0  0  0  0  0  0  0  0  0
  161.4870  214.4070  147.9390 O   0  0  0  0  0  1  0  0  0  0  0  0
  161.7730  213.1320  147.1830 P   0  0  2  0  0  0  0  0  0  0  0  0
  159.4000  213.0790  145.9400 N   0  0  0  0  0  1  0  0  0  0  0  0
  160.2180  212.2700  146.8230 C   0  0  0  0  0  2  0  0  0  0  0  0
  161.3280  201.4700  146.6500 N   0  0  0  0  0  2  0  0  0  0  0  0
  160.4020  201.4570  145.5930 C   0  0  0  0  0  0  0  0  0  0  0  0
  159.6400  201.4460  144.7230 N   0  0  0  0  0  0  0  0  0  0  0  0
  160.8980  203.7390  152.0020 C   0  0  0  0  0  2  0  0  0  0  0  0
  161.9490  204.8350  152.0260 C   0  0  0  0  0  2  0  0  0  0  0  0
  161.3890  206.1040  152.6450 C   0  0  0  0  0  2  0  0  0  0  0  0
  160.9700  205.8680  154.0900 C   0  0  0  0  0  2  0  0  0  0  0  0
  161.3750  207.0250  154.9900 C   0  0  0  0  0  2  0  0  0  0  0  0
  160.1560  207.8000  155.4690 C   0  0  1  0  0  3  0  0  0  0  0  0
  159.8140  207.4060  156.7650 O   0  0  0  0  0  1  0  0  0  0  0  0
  159.5120  213.7650  156.1560 N   0  0  0  0  0  1  0  0  0  0  0  0
  160.4100  209.7880  154.0910 O   0  0  0  0  0  0  0  0  0  0  0  0
  160.1350  212.5350  155.7020 C   0  0  1  0  0  3  0  0  0  0  0  0
  161.7700  209.6100  156.1440 C   0  0  1  0  0  3  0  0  0  0  0  0
  161.7220  210.9200  156.9480 C   0  0  2  0  0  3  0  0  0  0  0  0
  160.3470  211.6200  156.9060 C   0  0  0  0  0  2  0  0  0  0  0  0
  159.3880  211.1130  152.5330 O   0  0  0  0  0  0  0  0  0  0  0  0
  159.7070  210.9450  153.7390 C   0  0  0  0  0  0  0  0  0  0  0  0
  160.4470  209.2930  155.4270 C   0  0  2  0  0  3  0  0  0  0  0  0
  159.2690  211.9060  154.7080 N   0  0  0  0  0  2  0  0  0  0  0  0
  162.4450  210.8600  155.6120 C   0  0  0  0  0  2  0  0  0  0  0  0
  1  7  2  0  0  0  0
  1  5  1  0  0  0  0
  2 25  1  0  0  0  0
  3  2  2  0  0  0  0
  4  6  1  0  0  0  0
  5  3  1  0  0  0  0
  6  8  2  0  0  0  0
  7  8  1  0  0  0  0
  8  2  1  0  0  0  0
  9  4  2  0  0  0  0
  9  7  1  0  0  0  0
 10  4  1  0  0  0  0
 10 11  1  0  0  0  0
 13 11  1  0  0  0  0
 13 14  1  0  0  0  0
 14 12  2  0  0  0  0
 15 14  1  0  0  0  0
 16 15  1  0  0  0  0
 19 17  2  6  0  0  0
 19 18  1  0  0  0  0
 19 16  1  0  0  0  0
 20 21  1  0  0  0  0
 21 19  1  0  0  0  0
 22  1  1  0  0  0  0
 23 22  1  0  0  0  0
 24 23  3  0  0  0  0
 25 26  1  0  0  0  0
 26 27  1  0  0  0  0
 27 28  1  0  0  0  0
 28 29  1  0  0  0  0
 29 30  1  0  0  0  0
 30 31  1  1  0  0  0
 33 40  1  0  0  0  0
 34 32  1  1  0  0  0
 34 37  1  0  0  0  0
 35 42  1  6  0  0  0
 35 36  1  0  0  0  0
 36 42  1  6  0  0  0
 37 36  1  0  0  0  0
 38 39  2  0  0  0  0
 39 33  1  0  0  0  0
 39 41  1  0  0  0  0
 40 30  1  6  0  0  0
 40 35  1  0  0  0  0
 41 34  1  0  0  0  0
M  END
>  <MODEL>
1

>  <REMARK>
 VINA RESULT:      -8.3      0.000      0.000
  Name = 
  16 active torsions:
  status: ('A' for Active; 'I' for Inactive)
    1  A    between atoms: C_1  and  N_30
    2  A    between atoms: C_2  and  C_29
    3  A    between atoms: C_3  and  C_21
    4  A    between atoms: C_3  and  C_22
    5  A    between atoms: C_8  and  C_36
    6  A    between atoms: N_14  and  C_40
    7  A    between atoms: N_18  and  O_25
    8  A    between atoms: N_18  and  P_41
    9  A    between atoms: C_21  and  C_35
   10  A    between atoms: C_22  and  C_33
   11  A    between atoms: O_25  and  C_34
   12  A    between atoms: C_26  and  P_41
   13  A    between atoms: C_28  and  C_35
   14  A    between atoms: C_29  and  C_33
   15  A    between atoms: N_30  and  C_37
   16  A    between atoms: C_36  and  C_40
                            x       y       z     vdW  Elec       q    Type
                         _______ _______ _______ _____ _____    ______ ____

>  <TORSDO>
F 16

$$$$
=
 OpenBabel11072410553D

 42 45  0  0  1  0  0  0  0  0999 V2000
  161.2770  203.8270  147.8560 C   0  0  0  0  0  0  0  0  0  0  0  0
  160.9050  204.4420  150.6850 C   0  0  0  0  0  0  0  0  0  0  0  0
  160.8710  203.1590  150.3010 C   0  0  0  0  0  3  0  0  0  0  0  0
  161.4680  207.2830  148.5450 C   0  0  0  0  0  0  0  0  0  0  0  0
  160.8950  202.7340  148.8390 C   0  0  0  0  0  2  0  0  0  0  0  0
  161.1870  206.7350  149.8360 N   0  0  0  0  0  0  0  0  0  0  0  0
  161.3020  205.1000  148.2790 C   0  0  0  0  0  0  0  0  0  0  0  0
  161.0800  205.4630  149.6510 C   0  0  0  0  0  0  0  0  0  0  0  0
  161.5760  206.3520  147.5910 C   0  0  0  0  0  3  0  0  0  0  0  0
  161.7320  208.7400  148.3310 C   0  0  0  0  0  2  0  0  0  0  0  0
  162.2000  209.4380  149.6050 C   0  0  0  0  0  2  0  0  0  0  0  0
  163.0670  211.6960  148.0700 O   0  0  0  0  0  0  0  0  0  0  0  0
  161.6490  210.7850  149.6860 N   0  0  0  0  0  2  0  0  0  0  0  0
  162.0780  211.8520  148.8380 C   0  0  0  0  0  0  0  0  0  0  0  0
  161.3800  213.0570  148.8590 O   0  0  0  0  0  0  0  0  0  0  0  0
  160.0370  213.1050  148.5580 N   0  0  0  0  0  2  0  0  0  0  0  0
  160.0640  212.0740  145.9520 O   0  0  0  0  0  0  0  0  0  0  0  0
  161.0140  214.4510  146.4670 O   0  0  0  0  0  1  0  0  0  0  0  0
  159.9140  213.4920  146.8550 P   0  0  2  0  0  0  0  0  0  0  0  0
  157.3930  213.9740  147.6250 N   0  0  0  0  0  1  0  0  0  0  0  0
  158.2980  214.2460  146.5240 C   0  0  0  0  0  2  0  0  0  0  0  0
  161.5350  203.4450  146.4960 N   0  0  0  0  0  2  0  0  0  0  0  0
  160.8610  202.4290  145.7960 C   0  0  0  0  0  0  0  0  0  0  0  0
  160.3060  201.5930  145.2190 N   0  0  0  0  0  0  0  0  0  0  0  0
  160.9320  204.7980  152.1330 C   0  0  0  0  0  2  0  0  0  0  0  0
  161.7150  206.0860  152.3210 C   0  0  0  0  0  2  0  0  0  0  0  0
  160.9630  207.0440  153.2290 C   0  0  0  0  0  2  0  0  0  0  0  0
  161.1090  206.6400  154.6900 C   0  0  0  0  0  2  0  0  0  0  0  0
  160.0100  207.2400  155.5530 C   0  0  0  0  0  2  0  0  0  0  0  0
  160.5340  208.4090  156.3750 C   0  0  1  0  0  3  0  0  0  0  0  0
  161.8850  208.2180  156.6760 O   0  0  0  0  0  1  0  0  0  0  0  0
  158.6050  212.3590  152.2340 N   0  0  0  0  0  1  0  0  0  0  0  0
  161.5250  210.0760  154.9080 O   0  0  0  0  0  0  0  0  0  0  0  0
  159.3920  211.8820  153.3570 C   0  0  1  0  0  3  0  0  0  0  0  0
  159.8240  210.8180  156.5360 C   0  0  1  0  0  3  0  0  0  0  0  0
  158.7870  211.7350  155.8650 C   0  0  2  0  0  3  0  0  0  0  0  0
  158.4450  211.3240  154.4170 C   0  0  0  0  0  2  0  0  0  0  0  0
  162.5900  210.3990  152.9110 O   0  0  0  0  0  0  0  0  0  0  0  0
  161.5160  210.4630  153.5640 C   0  0  0  0  0  0  0  0  0  0  0  0
  160.3390  209.7070  155.6050 C   0  0  2  0  0  3  0  0  0  0  0  0
  160.3170  210.8560  152.8830 N   0  0  0  0  0  2  0  0  0  0  0  0
  160.2170  212.2080  156.0700 C   0  0  0  0  0  2  0  0  0  0  0  0
  1  7  2  0  0  0  0
  1  5  1  0  0  0  0
  2 25  1  0  0  0  0
  3  2  2  0  0  0  0
  4  6  1  0  0  0  0
  5  3  1  0  0  0  0
  7  8  1  0  0  0  0
  8  6  2  0  0  0  0
  8  2  1  0  0  0  0
  9  7  1  0  0  0  0
  9  4  2  0  0  0  0
 10  4  1  0  0  0  0
 10 11  1  0  0  0  0
 11 13  1  0  0  0  0
 12 14  2  0  0  0  0
 14 15  1  0  0  0  0
 14 13  1  0  0  0  0
 16 15  1  0  0  0  0
 18 19  1  0  0  0  0
 19 17  2  6  0  0  0
 19 16  1  0  0  0  0
 21 19  1  0  0  0  0
 21 20  1  0  0  0  0
 22  1  1  0  0  0  0
 23 22  1  0  0  0  0
 24 23  3  0  0  0  0
 25 26  1  0  0  0  0
 26 27  1  0  0  0  0
 27 28  1  0  0  0  0
 28 29  1  0  0  0  0
 29 30  1  0  0  0  0
 30 31  1  6  0  0  0
 33 40  1  0  0  0  0
 34 32  1  6  0  0  0
 34 37  1  0  0  0  0
 35 42  1  6  0  0  0
 36 37  1  6  0  0  0
 36 42  1  0  0  0  0
 36 35  1  0  0  0  0
 38 39  2  0  0  0  0
 39 33  1  0  0  0  0
 40 30  1  1  0  0  0
 40 35  1  0  0  0  0
 41 34  1  0  0  0  0
 41 39  1  0  0  0  0
M  END
>  <MODEL>
2

>  <REMARK>
 VINA RESULT:      -7.8      1.689      2.122
  Name = 
  16 active torsions:
  status: ('A' for Active; 'I' for Inactive)
    1  A    between atoms: C_1  and  N_30
    2  A    between atoms: C_2  and  C_29
    3  A    between atoms: C_3  and  C_21
    4  A    between atoms: C_3  and  C_22
    5  A    between atoms: C_8  and  C_36
    6  A    between atoms: N_14  and  C_40
    7  A    between atoms: N_18  and  O_25
    8  A    between atoms: N_18  and  P_41
    9  A    between atoms: C_21  and  C_35
   10  A    between atoms: C_22  and  C_33
   11  A    between atoms: O_25  and  C_34
   12  A    between atoms: C_26  and  P_41
   13  A    between atoms: C_28  and  C_35
   14  A    between atoms: C_29  and  C_33
   15  A    between atoms: N_30  and  C_37
   16  A    between atoms: C_36  and  C_40
                            x       y       z     vdW  Elec       q    Type
                         _______ _______ _______ _____ _____    ______ ____

>  <TORSDO>
F 16

$$$$
=
 OpenBabel11072410553D

 42 45  0  0  1  0  0  0  0  0999 V2000
  161.1270  203.0290  146.1650 C   0  0  0  0  0  0  0  0  0  0  0  0
  162.1210  205.6180  147.0760 C   0  0  0  0  0  0  0  0  0  0  0  0
  162.1300  205.3570  145.7630 C   0  0  0  0  0  3  0  0  0  0  0  0
  160.9230  203.4210  149.6660 C   0  0  0  0  0  0  0  0  0  0  0  0
  161.7860  203.9890  145.1900 C   0  0  0  0  0  3  0  0  0  0  0  0
  161.5280  204.6530  149.2610 N   0  0  0  0  0  2  0  0  0  0  0  0
  161.1360  203.3270  147.4740 C   0  0  0  0  0  0  0  0  0  0  0  0
  161.6540  204.5660  147.9820 C   0  0  0  0  0  0  0  0  0  0  0  0
  160.6430  202.6110  148.6410 C   0  0  0  0  0  3  0  0  0  0  0  0
  160.5410  203.1420  151.0860 C   0  0  0  0  0  2  0  0  0  0  0  0
  161.5970  203.6250  152.0760 C   0  0  0  0  0  2  0  0  0  0  0  0
  162.3370  206.3730  152.4120 O   0  0  0  0  0  0  0  0  0  0  0  0
  161.0150  204.5530  153.0380 N   0  0  0  0  0  2  0  0  0  0  0  0
  161.3780  205.9320  153.1050 C   0  0  0  0  0  0  0  0  0  0  0  0
  160.6500  206.7870  153.9290 O   0  0  0  0  0  0  0  0  0  0  0  0
  161.2190  207.3480  155.0510 N   0  0  0  0  0  2  0  0  0  0  0  0
  162.2080  209.8970  155.6670 O   0  0  0  0  0  0  0  0  0  0  0  0
  159.6440  209.4040  155.7090 O   0  0  0  0  0  1  0  0  0  0  0  0
  160.9150  209.0700  154.9650 P   0  0  2  0  0  0  0  0  0  0  0  0
  161.8690  210.4210  152.8570 N   0  0  0  0  0  1  0  0  0  0  0  0
  160.7570  209.5660  153.2270 C   0  0  0  0  0  2  0  0  0  0  0  0
  160.5780  201.8110  145.6390 N   0  0  0  0  0  2  0  0  0  0  0  0
  161.0110  200.5160  145.9670 C   0  0  0  0  0  0  0  0  0  0  0  0
  161.3680  199.4490  146.2400 N   0  0  0  0  0  0  0  0  0  0  0  0
  162.4160  206.9910  147.5780 C   0  0  0  0  0  2  0  0  0  0  0  0
  161.2040  207.5290  148.3190 C   0  0  0  0  0  2  0  0  0  0  0  0
  161.6190  208.1880  149.6220 C   0  0  0  0  0  2  0  0  0  0  0  0
  162.2360  209.5570  149.3700 C   0  0  0  0  0  2  0  0  0  0  0  0
  161.5180  210.3020  148.2560 C   0  0  0  0  0  2  0  0  0  0  0  0
  161.8220  211.7930  148.3080 C   0  0  1  0  0  3  0  0  0  0  0  0
  163.2030  212.0030  148.3000 O   0  0  0  0  0  1  0  0  0  0  0  0
  159.2460  212.7000  142.9210 N   0  0  0  0  0  1  0  0  0  0  0  0
  162.1070  213.3140  146.4330 O   0  0  0  0  0  0  0  0  0  0  0  0
  159.8370  213.0680  144.1960 C   0  0  1  0  0  3  0  0  0  0  0  0
  159.9160  213.2620  147.5690 C   0  0  1  0  0  3  0  0  0  0  0  0
  158.7700  213.1920  146.5460 C   0  0  2  0  0  3  0  0  0  0  0  0
  159.0980  212.3280  145.3090 C   0  0  0  0  0  2  0  0  0  0  0  0
  163.3130  213.7190  144.5330 O   0  0  0  0  0  0  0  0  0  0  0  0
  162.2460  213.2870  145.0410 C   0  0  0  0  0  0  0  0  0  0  0  0
  161.1710  212.4920  147.1230 C   0  0  2  0  0  3  0  0  0  0  0  0
  161.2540  212.7150  144.1780 N   0  0  0  0  0  2  0  0  0  0  0  0
  159.6080  214.4530  146.6810 C   0  0  0  0  0  2  0  0  0  0  0  0
  1  7  1  0  0  0  0
  2 25  1  0  0  0  0
  2  8  1  0  0  0  0
  3  2  2  0  0  0  0
  4 10  1  0  0  0  0
  5  3  1  0  0  0  0
  5  1  2  0  0  0  0
  6  4  1  0  0  0  0
  7  8  2  0  0  0  0
  7  9  1  0  0  0  0
  8  6  1  0  0  0  0
  9  4  2  0  0  0  0
 10 11  1  0  0  0  0
 11 13  1  0  0  0  0
 12 14  2  0  0  0  0
 13 14  1  0  0  0  0
 14 15  1  0  0  0  0
 15 16  1  0  0  0  0
 19 16  1  0  0  0  0
 19 17  2  1  0  0  0
 19 18  1  0  0  0  0
 20 21  1  0  0  0  0
 21 19  1  0  0  0  0
 22 23  1  0  0  0  0
 22  1  1  0  0  0  0
 23 24  3  0  0  0  0
 25 26  1  0  0  0  0
 26 27  1  0  0  0  0
 28 27  1  0  0  0  0
 29 30  1  0  0  0  0
 29 28  1  0  0  0  0
 30 31  1  6  0  0  0
 33 40  1  0  0  0  0
 34 32  1  6  0  0  0
 34 37  1  0  0  0  0
 35 42  1  6  0  0  0
 36 37  1  6  0  0  0
 36 42  1  0  0  0  0
 36 35  1  0  0  0  0
 38 39  2  0  0  0  0
 39 33  1  0  0  0  0
 40 35  1  0  0  0  0
 40 30  1  1  0  0  0
 41 34  1  0  0  0  0
 41 39  1  0  0  0  0
M  END
>  <MODEL>
3

>  <REMARK>
 VINA RESULT:      -7.5      2.742      7.417
  Name = 
  16 active torsions:
  status: ('A' for Active; 'I' for Inactive)
    1  A    between atoms: C_1  and  N_30
    2  A    between atoms: C_2  and  C_29
    3  A    between atoms: C_3  and  C_21
    4  A    between atoms: C_3  and  C_22
    5  A    between atoms: C_8  and  C_36
    6  A    between atoms: N_14  and  C_40
    7  A    between atoms: N_18  and  O_25
    8  A    between atoms: N_18  and  P_41
    9  A    between atoms: C_21  and  C_35
   10  A    between atoms: C_22  and  C_33
   11  A    between atoms: O_25  and  C_34
   12  A    between atoms: C_26  and  P_41
   13  A    between atoms: C_28  and  C_35
   14  A    between atoms: C_29  and  C_33
   15  A    between atoms: N_30  and  C_37
   16  A    between atoms: C_36  and  C_40
                            x       y       z     vdW  Elec       q    Type
                         _______ _______ _______ _____ _____    ______ ____

>  <TORSDO>
F 16

$$$$
=
 OpenBabel11072410553D

 42 45  0  0  1  0  0  0  0  0999 V2000
  161.2220  208.4470  153.4210 C   0  0  0  0  0  0  0  0  0  0  0  0
  161.7190  205.9490  151.9940 C   0  0  0  0  0  0  0  0  0  0  0  0
  161.4020  205.8890  153.2930 C   0  0  0  0  0  3  0  0  0  0  0  0
  161.9850  208.9440  150.0110 C   0  0  0  0  0  0  0  0  0  0  0  0
  161.2770  207.1270  154.1710 C   0  0  0  0  0  2  0  0  0  0  0  0
  162.0900  207.5220  150.1380 N   0  0  0  0  0  0  0  0  0  0  0  0
  161.5450  208.4650  152.1180 C   0  0  0  0  0  0  0  0  0  0  0  0
  161.8430  207.2720  151.3780 C   0  0  0  0  0  0  0  0  0  0  0  0
  161.6350  209.5490  151.1510 C   0  0  0  0  0  3  0  0  0  0  0  0
  162.1360  209.6470  148.6990 C   0  0  0  0  0  2  0  0  0  0  0  0
  162.1720  211.1650  148.8560 C   0  0  0  0  0  2  0  0  0  0  0  0
  162.8420  213.6610  147.6200 O   0  0  0  0  0  0  0  0  0  0  0  0
  161.4250  211.8120  147.7840 N   0  0  0  0  0  2  0  0  0  0  0  0
  161.8550  213.0220  147.1600 C   0  0  0  0  0  0  0  0  0  0  0  0
  161.1820  213.4780  146.0290 O   0  0  0  0  0  0  0  0  0  0  0  0
  160.0290  212.8630  145.5930 N   0  0  0  0  0  2  0  0  0  0  0  0
  158.7080  213.7310  143.2780 O   0  0  0  0  0  0  0  0  0  0  0  0
  160.0560  211.4950  143.2970 O   0  0  0  0  0  1  0  0  0  0  0  0
  160.0660  212.9030  143.8430 P   0  0  2  0  0  0  0  0  0  0  0  0
  162.6460  212.8110  143.1260 N   0  0  0  0  0  1  0  0  0  0  0  0
  161.5650  213.7640  143.2920 C   0  0  0  0  0  2  0  0  0  0  0  0
  160.8830  209.6270  154.1650 N   0  0  0  0  0  2  0  0  0  0  0  0
  161.2630  209.8860  155.4930 C   0  0  0  0  0  0  0  0  0  0  0  0
  161.5760  210.1010  156.5860 N   0  0  0  0  0  0  0  0  0  0  0  0
  161.7750  204.7070  151.1700 C   0  0  0  0  0  2  0  0  0  0  0  0
  160.7590  203.7070  151.6940 C   0  0  0  0  0  2  0  0  0  0  0  0
  161.2480  202.2850  151.4860 C   0  0  0  0  0  2  0  0  0  0  0  0
  160.3470  201.5340  150.5140 C   0  0  0  0  0  2  0  0  0  0  0  0
  160.2090  202.2700  149.1910 C   0  0  0  0  0  2  0  0  0  0  0  0
  161.3770  201.9560  148.2650 C   0  0  1  0  0  3  0  0  0  0  0  0
  161.2270  200.6800  147.7170 O   0  0  0  0  0  1  0  0  0  0  0  0
  160.0590  206.7530  144.8410 N   0  0  0  0  0  1  0  0  0  0  0  0
  161.1370  202.4380  145.8940 O   0  0  0  0  0  0  0  0  0  0  0  0
  160.7600  205.5410  145.2250 C   0  0  1  0  0  3  0  0  0  0  0  0
  162.8210  203.7070  147.1770 C   0  0  1  0  0  3  0  0  0  0  0  0
  162.7280  205.2100  146.8660 C   0  0  2  0  0  3  0  0  0  0  0  0
  161.2830  205.7080  146.6500 C   0  0  0  0  0  2  0  0  0  0  0  0
  159.7110  202.3350  144.1100 O   0  0  0  0  0  0  0  0  0  0  0  0
  160.2390  203.0410  145.0070 C   0  0  0  0  0  0  0  0  0  0  0  0
  161.4540  203.0020  147.1630 C   0  0  2  0  0  3  0  0  0  0  0  0
  159.8380  204.4120  145.1300 N   0  0  0  0  0  2  0  0  0  0  0  0
  163.2290  204.2340  145.8140 C   0  0  0  0  0  2  0  0  0  0  0  0
  1 22  1  0  0  0  0
  1  5  1  0  0  0  0
  2  3  2  0  0  0  0
  3  5  1  0  0  0  0
  4  6  1  0  0  0  0
  4  9  2  0  0  0  0
  6  8  2  0  0  0  0
  7  1  2  0  0  0  0
  8  2  1  0  0  0  0
  8  7  1  0  0  0  0
  9  7  1  0  0  0  0
 10 11  1  0  0  0  0
 10  4  1  0  0  0  0
 13 11  1  0  0  0  0
 14 12  2  0  0  0  0
 14 13  1  0  0  0  0
 15 14  1  0  0  0  0
 16 15  1  0  0  0  0
 18 19  1  0  0  0  0
 19 17  2  6  0  0  0
 19 16  1  0  0  0  0
 20 21  1  0  0  0  0
 21 19  1  0  0  0  0
 22 23  1  0  0  0  0
 23 24  3  0  0  0  0
 25 26  1  0  0  0  0
 25  2  1  0  0  0  0
 27 26  1  0  0  0  0
 28 27  1  0  0  0  0
 29 28  1  0  0  0  0
 30 31  1  6  0  0  0
 30 29  1  0  0  0  0
 33 40  1  0  0  0  0
 34 32  1  1  0  0  0
 34 37  1  0  0  0  0
 35 42  1  6  0  0  0
 36 42  1  6  0  0  0
 36 35  1  0  0  0  0
 37 36  1  0  0  0  0
 38 39  2  0  0  0  0
 39 41  1  0  0  0  0
 39 33  1  0  0  0  0
 40 35  1  0  0  0  0
 40 30  1  1  0  0  0
 41 34  1  0  0  0  0
M  END
>  <MODEL>
4

>  <REMARK>
 VINA RESULT:      -7.2      3.393      8.250
  Name = 
  16 active torsions:
  status: ('A' for Active; 'I' for Inactive)
    1  A    between atoms: C_1  and  N_30
    2  A    between atoms: C_2  and  C_29
    3  A    between atoms: C_3  and  C_21
    4  A    between atoms: C_3  and  C_22
    5  A    between atoms: C_8  and  C_36
    6  A    between atoms: N_14  and  C_40
    7  A    between atoms: N_18  and  O_25
    8  A    between atoms: N_18  and  P_41
    9  A    between atoms: C_21  and  C_35
   10  A    between atoms: C_22  and  C_33
   11  A    between atoms: O_25  and  C_34
   12  A    between atoms: C_26  and  P_41
   13  A    between atoms: C_28  and  C_35
   14  A    between atoms: C_29  and  C_33
   15  A    between atoms: N_30  and  C_37
   16  A    between atoms: C_36  and  C_40
                            x       y       z     vdW  Elec       q    Type
                         _______ _______ _______ _____ _____    ______ ____

>  <TORSDO>
F 16

$$$$
=
 OpenBabel11072410553D

 42 45  0  0  1  0  0  0  0  0999 V2000
  160.7320  208.9740  153.9240 C   0  0  0  0  0  0  0  0  0  0  0  0
  161.6220  206.5040  152.6480 C   0  0  0  0  0  0  0  0  0  0  0  0
  161.1020  206.4340  153.8800 C   0  0  0  0  0  3  0  0  0  0  0  0
  162.0020  209.4910  150.6720 C   0  0  0  0  0  0  0  0  0  0  0  0
  160.7530  207.6680  154.7000 C   0  0  0  0  0  2  0  0  0  0  0  0
  162.1820  208.0810  150.8440 N   0  0  0  0  0  0  0  0  0  0  0  0
  161.2590  209.0030  152.6900 C   0  0  0  0  0  0  0  0  0  0  0  0
  161.7540  207.8260  152.0330 C   0  0  0  0  0  0  0  0  0  0  0  0
  161.4320  210.0800  151.7280 C   0  0  0  0  0  3  0  0  0  0  0  0
  162.3170  210.1900  149.3880 C   0  0  0  0  0  2  0  0  0  0  0  0
  161.6820  211.5760  149.3120 C   0  0  0  0  0  2  0  0  0  0  0  0
  162.8080  213.6900  147.7400 O   0  0  0  0  0  0  0  0  0  0  0  0
  161.3190  211.9020  147.9380 N   0  0  0  0  0  2  0  0  0  0  0  0
  161.9720  212.9240  147.1850 C   0  0  0  0  0  0  0  0  0  0  0  0
  161.6880  213.0520  145.8270 O   0  0  0  0  0  0  0  0  0  0  0  0
  160.8450  214.0400  145.3680 N   0  0  0  0  0  2  0  0  0  0  0  0
  160.1270  211.9620  143.6290 O   0  0  0  0  0  0  0  0  0  0  0  0
  158.8030  214.2130  143.6520 O   0  0  0  0  0  1  0  0  0  0  0  0
  159.5200  213.2360  144.5550 P   0  0  2  0  0  0  0  0  0  0  0  0
  158.0360  213.6160  146.7540 N   0  0  0  0  0  1  0  0  0  0  0  0
  158.3640  212.5820  145.7900 C   0  0  0  0  0  2  0  0  0  0  0  0
  160.1970  210.1350  154.5790 N   0  0  0  0  0  2  0  0  0  0  0  0
  160.8570  210.8850  155.5680 C   0  0  0  0  0  0  0  0  0  0  0  0
  161.3990  211.5020  156.3830 N   0  0  0  0  0  0  0  0  0  0  0  0
  161.8950  205.2610  151.8700 C   0  0  0  0  0  2  0  0  0  0  0  0
  160.6350  204.4140  151.8140 C   0  0  0  0  0  2  0  0  0  0  0  0
  160.8760  203.0500  152.4370 C   0  0  0  0  0  2  0  0  0  0  0  0
  161.5340  202.1030  151.4420 C   0  0  0  0  0  2  0  0  0  0  0  0
  160.7040  201.9500  150.1770 C   0  0  0  0  0  2  0  0  0  0  0  0
  161.5880  201.6460  148.9750 C   0  0  1  0  0  3  0  0  0  0  0  0
  161.3370  200.3530  148.5090 O   0  0  0  0  0  1  0  0  0  0  0  0
  162.5060  206.0260  144.9210 N   0  0  0  0  0  1  0  0  0  0  0  0
  160.5290  203.7440  148.3520 O   0  0  0  0  0  0  0  0  0  0  0  0
  161.7380  205.0820  145.7130 C   0  0  1  0  0  3  0  0  0  0  0  0
  160.7380  201.9870  146.6310 C   0  0  1  0  0  3  0  0  0  0  0  0
  161.2720  202.5720  145.3130 C   0  0  2  0  0  3  0  0  0  0  0  0
  162.3220  203.6850  145.5120 C   0  0  0  0  0  2  0  0  0  0  0  0
  160.3580  205.9660  148.8650 O   0  0  0  0  0  0  0  0  0  0  0  0
  160.8580  205.0840  148.1200 C   0  0  0  0  0  0  0  0  0  0  0  0
  161.3300  202.6670  147.8760 C   0  0  2  0  0  3  0  0  0  0  0  0
  161.8010  205.4830  147.1160 N   0  0  0  0  0  2  0  0  0  0  0  0
  159.8760  202.9210  145.8020 C   0  0  0  0  0  2  0  0  0  0  0  0
  1 22  1  0  0  0  0
  1  5  1  0  0  0  0
  2  3  2  0  0  0  0
  3  5  1  0  0  0  0
  4  6  1  0  0  0  0
  4  9  2  0  0  0  0
  6  8  2  0  0  0  0
  7  1  2  0  0  0  0
  8  2  1  0  0  0  0
  8  7  1  0  0  0  0
  9  7  1  0  0  0  0
 10  4  1  0  0  0  0
 11 10  1  0  0  0  0
 13 11  1  0  0  0  0
 14 12  2  0  0  0  0
 14 13  1  0  0  0  0
 15 14  1  0  0  0  0
 16 15  1  0  0  0  0
 18 19  1  0  0  0  0
 19 17  2  6  0  0  0
 19 16  1  0  0  0  0
 19 21  1  0  0  0  0
 21 20  1  0  0  0  0
 22 23  1  0  0  0  0
 23 24  3  0  0  0  0
 25  2  1  0  0  0  0
 26 25  1  0  0  0  0
 26 27  1  0  0  0  0
 28 27  1  0  0  0  0
 29 28  1  0  0  0  0
 30 31  1  6  0  0  0
 30 29  1  0  0  0  0
 34 32  1  6  0  0  0
 34 41  1  0  0  0  0
 35 42  1  6  0  0  0
 35 40  1  0  0  0  0
 36 37  1  1  0  0  0
 36 42  1  0  0  0  0
 36 35  1  0  0  0  0
 37 34  1  0  0  0  0
 39 33  1  0  0  0  0
 39 38  2  0  0  0  0
 40 33  1  0  0  0  0
 40 30  1  1  0  0  0
 41 39  1  0  0  0  0
M  END
>  <MODEL>
5

>  <REMARK>
 VINA RESULT:      -7.0      2.755      8.217
  Name = 
  16 active torsions:
  status: ('A' for Active; 'I' for Inactive)
    1  A    between atoms: C_1  and  N_30
    2  A    between atoms: C_2  and  C_29
    3  A    between atoms: C_3  and  C_21
    4  A    between atoms: C_3  and  C_22
    5  A    between atoms: C_8  and  C_36
    6  A    between atoms: N_14  and  C_40
    7  A    between atoms: N_18  and  O_25
    8  A    between atoms: N_18  and  P_41
    9  A    between atoms: C_21  and  C_35
   10  A    between atoms: C_22  and  C_33
   11  A    between atoms: O_25  and  C_34
   12  A    between atoms: C_26  and  P_41
   13  A    between atoms: C_28  and  C_35
   14  A    between atoms: C_29  and  C_33
   15  A    between atoms: N_30  and  C_37
   16  A    between atoms: C_36  and  C_40
                            x       y       z     vdW  Elec       q    Type
                         _______ _______ _______ _____ _____    ______ ____

>  <TORSDO>
F 16

$$$$
=
 OpenBabel11072410553D

 42 45  0  0  1  0  0  0  0  0999 V2000
  161.8710  210.0500  150.0410 C   0  0  0  0  0  0  0  0  0  0  0  0
  161.8200  207.1690  150.5090 C   0  0  0  0  0  0  0  0  0  0  0  0
  162.1220  207.6100  149.2810 C   0  0  0  0  0  3  0  0  0  0  0  0
  161.0910  209.2160  153.3800 C   0  0  0  0  0  0  0  0  0  0  0  0
  162.0250  209.0770  148.8840 C   0  0  0  0  0  3  0  0  0  0  0  0
  161.2220  207.9280  152.7720 N   0  0  0  0  0  2  0  0  0  0  0  0
  161.5710  209.5680  151.2570 C   0  0  0  0  0  0  0  0  0  0  0  0
  161.4870  208.1610  151.5330 C   0  0  0  0  0  0  0  0  0  0  0  0
  161.3170  210.2240  152.5300 C   0  0  0  0  0  3  0  0  0  0  0  0
  160.8460  209.3930  154.8450 C   0  0  0  0  0  2  0  0  0  0  0  0
  161.4370  210.6940  155.3800 C   0  0  0  0  0  2  0  0  0  0  0  0
  159.6470  212.7030  154.3930 O   0  0  0  0  0  0  0  0  0  0  0  0
  160.4520  211.4210  156.1720 N   0  0  0  0  0  2  0  0  0  0  0  0
  159.5380  212.3600  155.6030 C   0  0  0  0  0  0  0  0  0  0  0  0
  158.5160  212.8760  156.3960 O   0  0  0  0  0  0  0  0  0  0  0  0
  157.7630  213.9500  155.9750 N   0  0  0  0  0  2  0  0  0  0  0  0
  156.2740  213.1730  153.7310 O   0  0  0  0  0  0  0  0  0  0  0  0
  155.1110  214.2320  155.8160 O   0  0  0  0  0  1  0  0  0  0  0  0
  156.2350  213.3070  155.4140 P   0  0  2  0  0  0  0  0  0  0  0  0
  155.5840  210.7260  155.1040 N   0  0  0  0  0  1  0  0  0  0  0  0
  155.9680  211.6670  156.1400 C   0  0  0  0  0  2  0  0  0  0  0  0
  161.9970  211.4520  149.7580 N   0  0  0  0  0  2  0  0  0  0  0  0
  161.8270  212.0440  148.4950 C   0  0  0  0  0  0  0  0  0  0  0  0
  161.6860  212.5310  147.4550 N   0  0  0  0  0  0  0  0  0  0  0  0
  161.9840  205.7280  150.8570 C   0  0  0  0  0  2  0  0  0  0  0  0
  160.7770  204.9480  150.3630 C   0  0  0  0  0  2  0  0  0  0  0  0
  160.4430  203.8150  151.3160 C   0  0  0  0  0  2  0  0  0  0  0  0
  160.8380  202.4680  150.7230 C   0  0  0  0  0  2  0  0  0  0  0  0
  160.2940  202.2920  149.3140 C   0  0  0  0  0  2  0  0  0  0  0  0
  161.4000  201.9000  148.3440 C   0  0  1  0  0  3  0  0  0  0  0  0
  161.1700  200.6160  147.8440 O   0  0  0  0  0  1  0  0  0  0  0  0
  160.0510  206.5780  144.7710 N   0  0  0  0  0  1  0  0  0  0  0  0
  161.1460  202.3030  145.9600 O   0  0  0  0  0  0  0  0  0  0  0  0
  160.7570  205.3810  145.1910 C   0  0  1  0  0  3  0  0  0  0  0  0
  162.8340  203.6180  147.1910 C   0  0  1  0  0  3  0  0  0  0  0  0
  162.7350  205.1100  146.8310 C   0  0  2  0  0  3  0  0  0  0  0  0
  161.2880  205.5960  146.6070 C   0  0  0  0  0  2  0  0  0  0  0  0
  159.7100  202.1370  144.1880 O   0  0  0  0  0  0  0  0  0  0  0  0
  160.2410  202.8740  145.0590 C   0  0  0  0  0  0  0  0  0  0  0  0
  161.4690  202.9100  147.2080 C   0  0  2  0  0  3  0  0  0  0  0  0
  159.8370  204.2480  145.1390 N   0  0  0  0  0  2  0  0  0  0  0  0
  163.2320  204.1000  145.8090 C   0  0  0  0  0  2  0  0  0  0  0  0
  1  7  1  0  0  0  0
  2 25  1  0  0  0  0
  2  8  1  0  0  0  0
  3  2  2  0  0  0  0
  4 10  1  0  0  0  0
  5  3  1  0  0  0  0
  5  1  2  0  0  0  0
  6  4  1  0  0  0  0
  7  8  2  0  0  0  0
  7  9  1  0  0  0  0
  8  6  1  0  0  0  0
  9  4  2  0  0  0  0
 10 11  1  0  0  0  0
 11 13  1  0  0  0  0
 12 14  2  0  0  0  0
 14 13  1  0  0  0  0
 14 15  1  0  0  0  0
 16 15  1  0  0  0  0
 19 17  2  6  0  0  0
 19 18  1  0  0  0  0
 19 16  1  0  0  0  0
 19 21  1  0  0  0  0
 20 21  1  0  0  0  0
 22  1  1  0  0  0  0
 23 22  1  0  0  0  0
 24 23  3  0  0  0  0
 26 25  1  0  0  0  0
 26 27  1  0  0  0  0
 28 27  1  0  0  0  0
 29 28  1  0  0  0  0
 30 31  1  6  0  0  0
 30 29  1  0  0  0  0
 33 40  1  0  0  0  0
 34 32  1  1  0  0  0
 34 37  1  0  0  0  0
 35 42  1  6  0  0  0
 35 40  1  0  0  0  0
 36 42  1  6  0  0  0
 36 35  1  0  0  0  0
 37 36  1  0  0  0  0
 38 39  2  0  0  0  0
 39 41  1  0  0  0  0
 39 33  1  0  0  0  0
 40 30  1  1  0  0  0
 41 34  1  0  0  0  0
M  END
>  <MODEL>
6

>  <REMARK>
 VINA RESULT:      -6.7      3.830      9.182
  Name = 
  16 active torsions:
  status: ('A' for Active; 'I' for Inactive)
    1  A    between atoms: C_1  and  N_30
    2  A    between atoms: C_2  and  C_29
    3  A    between atoms: C_3  and  C_21
    4  A    between atoms: C_3  and  C_22
    5  A    between atoms: C_8  and  C_36
    6  A    between atoms: N_14  and  C_40
    7  A    between atoms: N_18  and  O_25
    8  A    between atoms: N_18  and  P_41
    9  A    between atoms: C_21  and  C_35
   10  A    between atoms: C_22  and  C_33
   11  A    between atoms: O_25  and  C_34
   12  A    between atoms: C_26  and  P_41
   13  A    between atoms: C_28  and  C_35
   14  A    between atoms: C_29  and  C_33
   15  A    between atoms: N_30  and  C_37
   16  A    between atoms: C_36  and  C_40
                            x       y       z     vdW  Elec       q    Type
                         _______ _______ _______ _____ _____    ______ ____

>  <TORSDO>
F 16

$$$$
=
 OpenBabel11072410553D

 42 45  0  0  1  0  0  0  0  0999 V2000
  161.8380  210.2660  150.1070 C   0  0  0  0  0  0  0  0  0  0  0  0
  161.4650  207.9360  151.8240 C   0  0  0  0  0  0  0  0  0  0  0  0
  161.2950  209.1530  152.3560 C   0  0  0  0  0  3  0  0  0  0  0  0
  162.3110  207.2150  148.3990 C   0  0  0  0  0  0  0  0  0  0  0  0
  161.6150  210.4360  151.6000 C   0  0  0  0  0  2  0  0  0  0  0  0
  162.0360  206.7730  149.7320 N   0  0  0  0  0  0  0  0  0  0  0  0
  162.0020  209.0300  149.6130 C   0  0  0  0  0  0  0  0  0  0  0  0
  161.8750  207.8500  150.4220 C   0  0  0  0  0  0  0  0  0  0  0  0
  162.2730  208.5450  148.2680 C   0  0  0  0  0  3  0  0  0  0  0  0
  162.4970  206.2630  147.2590 C   0  0  0  0  0  2  0  0  0  0  0  0
  161.1680  205.7880  146.6780 C   0  0  0  0  0  2  0  0  0  0  0  0
  161.4260  203.3180  145.2500 O   0  0  0  0  0  0  0  0  0  0  0  0
  160.8240  204.4680  147.1910 N   0  0  0  0  0  2  0  0  0  0  0  0
  161.0460  203.2660  146.4520 C   0  0  0  0  0  0  0  0  0  0  0  0
  160.8550  202.0380  147.0820 O   0  0  0  0  0  0  0  0  0  0  0  0
  161.5910  201.6860  148.1910 N   0  0  0  0  0  2  0  0  0  0  0  0
  160.9410  200.4980  150.6450 O   0  0  0  0  0  1  0  0  0  0  0  0
  159.0820  201.4500  149.0790 O   0  0  0  0  0  0  0  0  0  0  0  0
  160.4920  201.7050  149.5540 P   0  0  2  0  0  0  0  0  0  0  0  0
  161.4510  203.2370  151.5330 N   0  0  0  0  0  1  0  0  0  0  0  0
  160.5800  203.3200  150.3760 C   0  0  0  0  0  2  0  0  0  0  0  0
  161.9240  211.4540  149.3040 N   0  0  0  0  0  2  0  0  0  0  0  0
  161.1400  212.6070  149.4730 C   0  0  0  0  0  0  0  0  0  0  0  0
  160.4950  213.5580  149.6120 N   0  0  0  0  0  0  0  0  0  0  0  0
  161.0840  206.7150  152.5920 C   0  0  0  0  0  2  0  0  0  0  0  0
  161.2160  206.9920  154.0800 C   0  0  0  0  0  2  0  0  0  0  0  0
  160.1450  207.9630  154.5440 C   0  0  0  0  0  2  0  0  0  0  0  0
  160.5130  208.5840  155.8850 C   0  0  0  0  0  2  0  0  0  0  0  0
  160.7230  210.0860  155.7710 C   0  0  0  0  0  2  0  0  0  0  0  0
  159.5990  210.8500  156.4580 C   0  0  1  0  0  3  0  0  0  0  0  0
  160.1280  211.8640  157.2610 O   0  0  0  0  0  1  0  0  0  0  0  0
  155.5500  214.4530  153.7950 N   0  0  0  0  0  1  0  0  0  0  0  0
  157.5370  210.5830  155.1970 O   0  0  0  0  0  0  0  0  0  0  0  0
  156.4200  213.2990  153.9350 C   0  0  1  0  0  3  0  0  0  0  0  0
  159.4220  211.7570  154.1170 C   0  0  1  0  0  3  0  0  0  0  0  0
  158.9460  213.0550  153.4450 C   0  0  2  0  0  3  0  0  0  0  0  0
  157.8370  213.7860  154.2310 C   0  0  0  0  0  2  0  0  0  0  0  0
  155.2810  210.2540  155.3690 O   0  0  0  0  0  0  0  0  0  0  0  0
  156.2240  211.0640  155.1750 C   0  0  0  0  0  0  0  0  0  0  0  0
  158.6600  211.4340  155.4130 C   0  0  2  0  0  3  0  0  0  0  0  0
  155.9160  212.4560  155.0160 N   0  0  0  0  0  2  0  0  0  0  0  0
  158.5400  211.7020  152.8840 C   0  0  0  0  0  2  0  0  0  0  0  0
  1  5  1  0  0  0  0
  2  3  2  0  0  0  0
  2 25  1  0  0  0  0
  4  6  1  0  0  0  0
  5  3  1  0  0  0  0
  6  8  2  0  0  0  0
  7  1  2  0  0  0  0
  7  8  1  0  0  0  0
  8  2  1  0  0  0  0
  9  4  2  0  0  0  0
  9  7  1  0  0  0  0
 10  4  1  0  0  0  0
 11 13  1  0  0  0  0
 11 10  1  0  0  0  0
 12 14  2  0  0  0  0
 14 15  1  0  0  0  0
 14 13  1  0  0  0  0
 15 16  1  0  0  0  0
 16 19  1  0  0  0  0
 19 18  2  6  0  0  0
 19 21  1  0  0  0  0
 19 17  1  0  0  0  0
 21 20  1  0  0  0  0
 22 23  1  0  0  0  0
 22  1  1  0  0  0  0
 23 24  3  0  0  0  0
 25 26  1  0  0  0  0
 26 27  1  0  0  0  0
 27 28  1  0  0  0  0
 29 28  1  0  0  0  0
 29 30  1  0  0  0  0
 30 31  1  6  0  0  0
 33 40  1  0  0  0  0
 34 32  1  1  0  0  0
 34 37  1  0  0  0  0
 34 41  1  0  0  0  0
 35 42  1  6  0  0  0
 35 40  1  0  0  0  0
 36 42  1  6  0  0  0
 36 35  1  0  0  0  0
 36 37  1  0  0  0  0
 39 33  1  0  0  0  0
 39 38  2  0  0  0  0
 40 30  1  1  0  0  0
 41 39  1  0  0  0  0
M  END
>  <MODEL>
7

>  <REMARK>
 VINA RESULT:      -6.6      3.973      7.103
  Name = 
  16 active torsions:
  status: ('A' for Active; 'I' for Inactive)
    1  A    between atoms: C_1  and  N_30
    2  A    between atoms: C_2  and  C_29
    3  A    between atoms: C_3  and  C_21
    4  A    between atoms: C_3  and  C_22
    5  A    between atoms: C_8  and  C_36
    6  A    between atoms: N_14  and  C_40
    7  A    between atoms: N_18  and  O_25
    8  A    between atoms: N_18  and  P_41
    9  A    between atoms: C_21  and  C_35
   10  A    between atoms: C_22  and  C_33
   11  A    between atoms: O_25  and  C_34
   12  A    between atoms: C_26  and  P_41
   13  A    between atoms: C_28  and  C_35
   14  A    between atoms: C_29  and  C_33
   15  A    between atoms: N_30  and  C_37
   16  A    between atoms: C_36  and  C_40
                            x       y       z     vdW  Elec       q    Type
                         _______ _______ _______ _____ _____    ______ ____

>  <TORSDO>
F 16

$$$$
=
 OpenBabel11072410553D

 42 45  0  0  1  0  0  0  0  0999 V2000
  161.3070  205.2180  148.3960 C   0  0  0  0  0  0  0  0  0  0  0  0
  162.0000  207.9090  149.2890 C   0  0  0  0  0  0  0  0  0  0  0  0
  162.0100  207.6510  147.9750 C   0  0  0  0  0  3  0  0  0  0  0  0
  161.1420  205.5840  151.9020 C   0  0  0  0  0  0  0  0  0  0  0  0
  161.8200  206.2510  147.4070 C   0  0  0  0  0  3  0  0  0  0  0  0
  161.5830  206.8800  151.4850 N   0  0  0  0  0  2  0  0  0  0  0  0
  161.3110  205.5150  149.7040 C   0  0  0  0  0  0  0  0  0  0  0  0
  161.6870  206.8080  150.2030 C   0  0  0  0  0  0  0  0  0  0  0  0
  160.9380  204.7450  150.8810 C   0  0  0  0  0  3  0  0  0  0  0  0
  160.8310  205.2610  153.3290 C   0  0  0  0  0  2  0  0  0  0  0  0
  161.3490  206.3270  154.2910 C   0  0  0  0  0  2  0  0  0  0  0  0
  161.5660  208.5540  156.0800 O   0  0  0  0  0  0  0  0  0  0  0  0
  160.4030  207.4310  154.3950 N   0  0  0  0  0  2  0  0  0  0  0  0
  160.6080  208.5500  155.2580 C   0  0  0  0  0  0  0  0  0  0  0  0
  159.7500  209.6430  155.1660 O   0  0  0  0  0  0  0  0  0  0  0  0
  159.1980  210.2100  156.2940 N   0  0  0  0  0  2  0  0  0  0  0  0
  160.5710  212.5390  157.0340 O   0  0  0  0  0  1  0  0  0  0  0  0
  158.0100  212.5920  156.5260 O   0  0  0  0  0  0  0  0  0  0  0  0
  159.3040  211.9450  156.0910 P   0  0  2  0  0  0  0  0  0  0  0  0
  158.6820  213.3290  153.8820 N   0  0  0  0  0  1  0  0  0  0  0  0
  159.6240  212.3280  154.3470 C   0  0  0  0  0  2  0  0  0  0  0  0
  160.8970  203.9420  147.8790 N   0  0  0  0  0  2  0  0  0  0  0  0
  161.0950  203.4990  146.5600 C   0  0  0  0  0  0  0  0  0  0  0  0
  161.2570  203.1340  145.4740 N   0  0  0  0  0  0  0  0  0  0  0  0
  162.1380  209.3080  149.7870 C   0  0  0  0  0  2  0  0  0  0  0  0
  161.9940  210.2740  148.6230 C   0  0  0  0  0  2  0  0  0  0  0  0
  162.5640  211.6350  148.9810 C   0  0  0  0  0  2  0  0  0  0  0  0
  162.7980  212.4750  147.7310 C   0  0  0  0  0  2  0  0  0  0  0  0
  161.5040  212.7330  146.9750 C   0  0  0  0  0  2  0  0  0  0  0  0
  161.6140  213.9800  146.1090 C   0  0  1  0  0  3  0  0  0  0  0  0
  162.9290  214.4530  146.1120 O   0  0  0  0  0  1  0  0  0  0  0  0
  160.5700  210.9410  140.9960 N   0  0  0  0  0  1  0  0  0  0  0  0
  161.9920  214.3160  143.7310 O   0  0  0  0  0  0  0  0  0  0  0  0
  160.6360  212.0990  141.8690 C   0  0  1  0  0  3  0  0  0  0  0  0
  159.6720  213.9790  144.5070 C   0  0  1  0  0  3  0  0  0  0  0  0
  158.9420  212.9550  143.6230 C   0  0  2  0  0  3  0  0  0  0  0  0
  159.8450  211.8000  143.1410 C   0  0  0  0  0  2  0  0  0  0  0  0
  163.5330  214.1480  142.0500 O   0  0  0  0  0  0  0  0  0  0  0  0
  162.5310  213.6490  142.6260 C   0  0  0  0  0  0  0  0  0  0  0  0
  161.1660  213.6620  144.6900 C   0  0  2  0  0  3  0  0  0  0  0  0
  162.0360  212.3820  142.1730 N   0  0  0  0  0  2  0  0  0  0  0  0
  159.3130  214.3230  143.0740 C   0  0  0  0  0  2  0  0  0  0  0  0
  1  7  1  0  0  0  0
  2 25  1  0  0  0  0
  2  8  1  0  0  0  0
  3  2  2  0  0  0  0
  4 10  1  0  0  0  0
  5  3  1  0  0  0  0
  5  1  2  0  0  0  0
  6  4  1  0  0  0  0
  7  8  2  0  0  0  0
  7  9  1  0  0  0  0
  8  6  1  0  0  0  0
  9  4  2  0  0  0  0
 10 11  1  0  0  0  0
 11 13  1  0  0  0  0
 13 14  1  0  0  0  0
 14 12  2  0  0  0  0
 15 14  1  0  0  0  0
 15 16  1  0  0  0  0
 19 16  1  0  0  0  0
 19 18  2  1  0  0  0
 19 17  1  0  0  0  0
 20 21  1  0  0  0  0
 21 19  1  0  0  0  0
 22  1  1  0  0  0  0
 23 22  1  0  0  0  0
 24 23  3  0  0  0  0
 26 27  1  0  0  0  0
 26 25  1  0  0  0  0
 28 27  1  0  0  0  0
 29 28  1  0  0  0  0
 30 31  1  6  0  0  0
 30 29  1  0  0  0  0
 33 40  1  0  0  0  0
 34 32  1  6  0  0  0
 34 41  1  0  0  0  0
 34 37  1  0  0  0  0
 35 42  1  6  0  0  0
 35 40  1  0  0  0  0
 36 42  1  6  0  0  0
 36 35  1  0  0  0  0
 37 36  1  0  0  0  0
 38 39  2  0  0  0  0
 39 33  1  0  0  0  0
 40 30  1  1  0  0  0
 41 39  1  0  0  0  0
M  END
>  <MODEL>
8

>  <REMARK>
 VINA RESULT:      -6.2      3.065      8.972
  Name = 
  16 active torsions:
  status: ('A' for Active; 'I' for Inactive)
    1  A    between atoms: C_1  and  N_30
    2  A    between atoms: C_2  and  C_29
    3  A    between atoms: C_3  and  C_21
    4  A    between atoms: C_3  and  C_22
    5  A    between atoms: C_8  and  C_36
    6  A    between atoms: N_14  and  C_40
    7  A    between atoms: N_18  and  O_25
    8  A    between atoms: N_18  and  P_41
    9  A    between atoms: C_21  and  C_35
   10  A    between atoms: C_22  and  C_33
   11  A    between atoms: O_25  and  C_34
   12  A    between atoms: C_26  and  P_41
   13  A    between atoms: C_28  and  C_35
   14  A    between atoms: C_29  and  C_33
   15  A    between atoms: N_30  and  C_37
   16  A    between atoms: C_36  and  C_40
                            x       y       z     vdW  Elec       q    Type
                         _______ _______ _______ _____ _____    ______ ____

>  <TORSDO>
F 16

$$$$
=
 OpenBabel11072410553D

 42 45  0  0  1  0  0  0  0  0999 V2000
  161.0210  202.2250  147.6990 C   0  0  0  0  0  0  0  0  0  0  0  0
  161.0550  204.6140  149.3750 C   0  0  0  0  0  0  0  0  0  0  0  0
  160.8160  203.4320  149.9560 C   0  0  0  0  0  3  0  0  0  0  0  0
  161.7230  205.1660  145.8800 C   0  0  0  0  0  0  0  0  0  0  0  0
  160.6200  202.1470  149.1630 C   0  0  0  0  0  2  0  0  0  0  0  0
  161.5240  205.6720  147.2040 N   0  0  0  0  0  0  0  0  0  0  0  0
  161.2540  203.4290  147.1550 C   0  0  0  0  0  0  0  0  0  0  0  0
  161.2380  204.6420  147.9230 C   0  0  0  0  0  0  0  0  0  0  0  0
  161.6030  203.8370  145.8020 C   0  0  0  0  0  3  0  0  0  0  0  0
  162.1410  206.0400  144.7400 C   0  0  0  0  0  2  0  0  0  0  0  0
  161.7190  205.4700  143.3880 C   0  0  0  0  0  2  0  0  0  0  0  0
  162.8290  205.7400  140.7610 O   0  0  0  0  0  0  0  0  0  0  0  0
  161.4260  206.5430  142.4460 N   0  0  0  0  0  2  0  0  0  0  0  0
  161.9580  206.5790  141.1210 C   0  0  0  0  0  0  0  0  0  0  0  0
  161.4890  207.5410  140.2280 O   0  0  0  0  0  0  0  0  0  0  0  0
  162.0040  208.8180  140.2250 N   0  0  0  0  0  2  0  0  0  0  0  0
  162.5300  210.5960  138.1230 O   0  0  0  0  0  0  0  0  0  0  0  0
  160.1700  210.4920  139.2360 O   0  0  0  0  0  1  0  0  0  0  0  0
  161.3380  209.6280  138.8230 P   0  0  2  0  0  0  0  0  0  0  0  0
  159.3620  208.5300  137.3830 N   0  0  0  0  0  1  0  0  0  0  0  0
  160.7870  208.3890  137.6180 C   0  0  0  0  0  2  0  0  0  0  0  0
  161.0720  200.9990  146.9530 N   0  0  0  0  0  2  0  0  0  0  0  0
  160.4780  200.7880  145.6970 C   0  0  0  0  0  0  0  0  0  0  0  0
  159.9890  200.6140  144.6620 N   0  0  0  0  0  0  0  0  0  0  0  0
  161.2920  205.8310  150.2050 C   0  0  0  0  0  2  0  0  0  0  0  0
  161.8650  205.4200  151.5510 C   0  0  0  0  0  2  0  0  0  0  0  0
  161.2450  206.2350  152.6710 C   0  0  0  0  0  2  0  0  0  0  0  0
  161.1390  207.7050  152.2840 C   0  0  0  0  0  2  0  0  0  0  0  0
  160.8270  208.5830  153.4850 C   0  0  0  0  0  2  0  0  0  0  0  0
  161.3110  210.0090  153.2630 C   0  0  1  0  0  3  0  0  0  0  0  0
  161.5220  210.2390  151.9010 O   0  0  0  0  0  1  0  0  0  0  0  0
  156.0200  212.5710  154.6470 N   0  0  0  0  0  1  0  0  0  0  0  0
  160.3000  212.2130  153.0820 O   0  0  0  0  0  0  0  0  0  0  0  0
  157.4650  212.4710  154.5350 C   0  0  1  0  0  3  0  0  0  0  0  0
  160.4950  211.2000  155.3250 C   0  0  1  0  0  3  0  0  0  0  0  0
  159.1750  211.3310  156.1020 C   0  0  2  0  0  3  0  0  0  0  0  0
  157.9200  211.1810  155.2160 C   0  0  0  0  0  2  0  0  0  0  0  0
  159.2120  213.6510  151.6760 O   0  0  0  0  0  0  0  0  0  0  0  0
  159.1290  212.8210  152.6180 C   0  0  0  0  0  0  0  0  0  0  0  0
  160.2890  210.9920  153.8150 C   0  0  2  0  0  3  0  0  0  0  0  0
  157.8310  212.4780  153.1220 N   0  0  0  0  0  2  0  0  0  0  0  0
  160.0200  212.5590  155.8040 C   0  0  0  0  0  2  0  0  0  0  0  0
  1  5  1  0  0  0  0
  2  3  2  0  0  0  0
  2 25  1  0  0  0  0
  4  6  1  0  0  0  0
  5  3  1  0  0  0  0
  6  8  2  0  0  0  0
  7  1  2  0  0  0  0
  7  8  1  0  0  0  0
  8  2  1  0  0  0  0
  9  4  2  0  0  0  0
  9  7  1  0  0  0  0
 10  4  1  0  0  0  0
 11 10  1  0  0  0  0
 12 14  2  0  0  0  0
 13 11  1  0  0  0  0
 14 13  1  0  0  0  0
 15 14  1  0  0  0  0
 16 15  1  0  0  0  0
 19 17  2  6  0  0  0
 19 18  1  0  0  0  0
 19 16  1  0  0  0  0
 20 21  1  0  0  0  0
 21 19  1  0  0  0  0
 22  1  1  0  0  0  0
 23 22  1  0  0  0  0
 24 23  3  0  0  0  0
 25 26  1  0  0  0  0
 26 27  1  0  0  0  0
 28 27  1  0  0  0  0
 28 29  1  0  0  0  0
 30 31  1  6  0  0  0
 30 29  1  0  0  0  0
 33 40  1  0  0  0  0
 34 32  1  6  0  0  0
 34 37  1  0  0  0  0
 35 42  1  6  0  0  0
 35 36  1  0  0  0  0
 36 37  1  6  0  0  0
 38 39  2  0  0  0  0
 39 33  1  0  0  0  0
 39 41  1  0  0  0  0
 40 30  1  6  0  0  0
 40 35  1  0  0  0  0
 41 34  1  0  0  0  0
 42 36  1  0  0  0  0
M  END
>  <MODEL>
9

>  <REMARK>
 VINA RESULT:      -6.2      4.343      5.041
  Name = 
  16 active torsions:
  status: ('A' for Active; 'I' for Inactive)
    1  A    between atoms: C_1  and  N_30
    2  A    between atoms: C_2  and  C_29
    3  A    between atoms: C_3  and  C_21
    4  A    between atoms: C_3  and  C_22
    5  A    between atoms: C_8  and  C_36
    6  A    between atoms: N_14  and  C_40
    7  A    between atoms: N_18  and  O_25
    8  A    between atoms: N_18  and  P_41
    9  A    between atoms: C_21  and  C_35
   10  A    between atoms: C_22  and  C_33
   11  A    between atoms: O_25  and  C_34
   12  A    between atoms: C_26  and  P_41
   13  A    between atoms: C_28  and  C_35
   14  A    between atoms: C_29  and  C_33
   15  A    between atoms: N_30  and  C_37
   16  A    between atoms: C_36  and  C_40
                            x       y       z     vdW  Elec       q    Type
                         _______ _______ _______ _____ _____    ______ ____

>  <TORSDO>
F 16

$$$$
