=
 OpenBabel11072409533D

 64 70  0  0  1  0  0  0  0  0999 V2000
  160.8270  207.6170  151.0070 C   0  0  0  0  0  2  0  0  0  0  0  0
  161.6030  209.8480  150.3320 N   0  0  0  0  0  0  0  0  0  0  0  0
  161.3380  210.3200  151.5140 C   0  0  0  0  0  0  0  0  0  0  0  0
  160.5640  207.3020  153.5340 N   0  0  0  0  0  0  0  0  0  0  0  0
  161.0890  209.4230  152.6100 N   0  0  0  0  0  0  0  0  0  0  0  0
  160.8790  208.1520  152.4170 C   0  0  0  0  0  0  0  0  0  0  0  0
  161.7730  208.4150  150.1110 C   0  0  0  0  0  2  0  0  0  0  0  0
  160.6520  207.7960  154.7960 O   0  0  0  0  0  0  0  0  0  0  0  0
  159.9000  206.9300  155.5980 C   0  0  0  0  0  1  0  0  0  0  0  0
  161.2050  211.7990  151.6970 C   0  0  2  0  0  3  0  0  0  0  0  0
  160.8770  212.0730  153.0230 O   0  0  0  0  0  1  0  0  0  0  0  0
  158.2350  213.6020  150.6640 C   0  0  2  0  0  3  0  0  0  0  0  0
  160.1660  212.4160  150.7630 C   0  0  1  0  0  3  0  0  0  0  0  0
  159.3270  213.2780  151.4980 O   0  0  0  0  0  0  0  0  0  0  0  0
  160.7820  213.1390  149.7210 O   0  0  0  0  0  0  0  0  0  0  0  0
  158.6900  214.2660  149.3610 C   0  0  0  0  0  2  0  0  0  0  0  0
  159.7710  213.3670  148.7750 C   0  0  1  0  0  3  0  0  0  0  0  0
  157.2200  214.4530  151.4250 C   0  0  0  0  0  2  0  0  0  0  0  0
  156.8190  213.5640  155.0900 O   0  0  0  0  0  1  0  0  0  0  0  0
  155.3290  213.6680  152.8770 F   0  0  0  0  0  0  0  0  0  0  0  0
  156.6980  213.8110  152.7150 C   0  0  2  0  0  0  0  0  0  0  0  0
  157.5970  213.7480  153.9460 C   0  0  2  0  0  3  0  0  0  0  0  0
  157.4460  212.5340  153.0330 C   0  0  0  0  0  2  0  0  0  0  0  0
  160.3390  213.9300  147.4810 C   0  0  0  0  0  2  0  0  0  0  0  0
  162.6910  213.2500  147.7210 C   0  0  0  0  0  2  0  0  0  0  0  0
  162.7400  214.1450  146.4960 C   0  0  2  0  0  3  0  0  0  0  0  0
  161.7640  214.4510  147.6470 C   0  0  1  0  0  3  0  0  0  0  0  0
  162.9440  213.2160  144.1890 C   0  0  0  0  0  3  0  0  0  0  0  0
  162.3900  212.6470  143.0410 C   0  0  0  0  0  3  0  0  0  0  0  0
  162.1140  213.5270  145.2680 C   0  0  0  0  0  0  0  0  0  0  0  0
  160.7760  213.2570  145.1940 N   0  0  0  0  0  0  0  0  0  0  0  0
  161.0140  212.3960  142.9720 C   0  0  0  0  0  0  0  0  0  0  0  0
  160.2170  212.7130  144.0820 C   0  0  0  0  0  3  0  0  0  0  0  0
  160.4240  211.8210  141.7550 C   0  0  0  0  0  0  0  0  0  0  0  0
  159.7100  212.5380  140.9990 O   0  0  0  0  0  0  0  0  0  0  0  0
  161.2850  210.1050  140.2110 C   0  0  0  0  0  1  0  0  0  0  0  0
  160.6660  210.4830  141.4330 O   0  0  0  0  0  0  0  0  0  0  0  0
  160.3690  205.8690  153.2950 C   0  0  0  0  0  2  0  0  0  0  0  0
  161.6440  205.1160  152.9130 C   0  0  0  0  0  2  0  0  0  0  0  0
  161.3640  203.6710  152.5030 C   0  0  2  0  0  3  0  0  0  0  0  0
  162.8620  202.1060  151.4850 O   0  0  0  0  0  1  0  0  0  0  0  0
  162.1810  203.3070  151.2560 C   0  0  1  0  0  3  0  0  0  0  0  0
  161.3210  203.2560  149.9830 C   0  0  1  0  0  3  0  0  0  0  0  0
  160.2280  205.2530  149.4160 O   0  0  0  0  0  0  0  0  0  0  0  0
  161.2540  204.6000  149.3290 C   0  0  0  0  0  0  0  0  0  0  0  0
  162.4040  205.1160  148.5190 C   0  0  0  0  0  2  0  0  0  0  0  0
  161.9850  206.3180  147.6890 C   0  0  0  0  0  2  0  0  0  0  0  0
  159.9870  206.6580  146.4330 O   0  0  0  0  0  1  0  0  0  0  0  0
  161.1380  205.8730  146.5090 C   0  0  1  0  0  3  0  0  0  0  0  0
  160.0510  204.4410  144.2300 C   0  0  0  0  0  1  0  0  0  0  0  0
  161.9350  206.0250  145.2230 C   0  0  2  0  0  3  0  0  0  0  0  0
  161.6910  205.7530  142.6700 C   0  0  0  0  0  1  0  0  0  0  0  0
  161.3250  205.2570  144.0550 C   0  0  0  0  0  0  0  0  0  0  0  0
  162.5050  204.6730  144.8000 C   0  0  0  0  0  2  0  0  0  0  0  0
  161.7720  202.2070  148.9630 C   0  0  0  0  0  2  0  0  0  0  0  0
  159.4990  201.2520  148.5260 C   0  0  0  0  0  1  0  0  0  0  0  0
  160.6950  201.9720  147.9040 C   0  0  2  0  0  3  0  0  0  0  0  0
  160.1010  200.0170  145.0120 C   0  0  0  0  0  2  0  0  0  0  0  0
  161.4540  199.8590  146.9610 C   0  0  0  0  0  2  0  0  0  0  0  0
  160.2930  201.4000  145.6140 C   0  0  0  0  0  2  0  0  0  0  0  0
  161.1420  199.1470  145.6730 C   0  0  0  0  0  2  0  0  0  0  0  0
  161.2450  201.2890  146.7200 N   0  0  0  0  0  0  0  0  0  0  0  0
  159.9900  203.4650  152.3000 O   0  0  0  0  0  0  0  0  0  0  0  0
  159.6590  202.3640  153.0930 C   0  0  0  0  0  1  0  0  0  0  0  0
  1  6  1  0  0  0  0
  2  3  2  0  0  0  0
  3 10  1  0  0  0  0
  3  5  1  0  0  0  0
  4  8  1  0  0  0  0
  6  5  2  0  0  0  0
  6  4  1  0  0  0  0
  7  2  1  0  0  0  0
  7  1  1  0  0  0  0
  8  9  1  0  0  0  0
 10 11  1  1  0  0  0
 12 18  1  1  0  0  0
 12 14  1  0  0  0  0
 13 14  1  0  0  0  0
 13 10  1  1  0  0  0
 15 13  1  0  0  0  0
 16 12  1  0  0  0  0
 17 24  1  6  0  0  0
 17 16  1  0  0  0  0
 17 15  1  0  0  0  0
 18 21  1  0  0  0  0
 21 20  1  1  0  0  0
 21 23  1  0  0  0  0
 21 22  1  0  0  0  0
 22 19  1  1  0  0  0
 23 22  1  0  0  0  0
 26 30  1  6  0  0  0
 26 27  1  0  0  0  0
 26 25  1  0  0  0  0
 27 24  1  6  0  0  0
 27 25  1  0  0  0  0
 28 30  1  0  0  0  0
 29 28  2  0  0  0  0
 31 30  2  0  0  0  0
 32 29  1  0  0  0  0
 32 33  2  0  0  0  0
 33 31  1  0  0  0  0
 34 32  1  0  0  0  0
 35 34  2  0  0  0  0
 36 37  1  0  0  0  0
 37 34  1  0  0  0  0
 38  4  1  0  0  0  0
 39 38  1  0  0  0  0
 40 39  1  6  0  0  0
 42 41  1  1  0  0  0
 42 40  1  0  0  0  0
 43 55  1  6  0  0  0
 43 42  1  0  0  0  0
 45 44  2  0  0  0  0
 45 43  1  0  0  0  0
 46 45  1  0  0  0  0
 47 46  1  0  0  0  0
 49 48  1  6  0  0  0
 49 47  1  0  0  0  0
 51 49  1  1  0  0  0
 52 53  1  0  0  0  0
 53 50  1  0  0  0  0
 53 54  1  0  0  0  0
 53 51  1  0  0  0  0
 54 51  1  0  0  0  0
 57 56  1  1  0  0  0
 57 55  1  0  0  0  0
 58 60  1  0  0  0  0
 58 61  1  0  0  0  0
 60 62  1  0  0  0  0
 61 59  1  0  0  0  0
 62 59  1  0  0  0  0
 62 57  1  0  0  0  0
 63 40  1  0  0  0  0
 63 64  1  0  0  0  0
M  END
>  <MODEL>
1

>  <REMARK>
 VINA RESULT:      -2.2      0.000      0.000
  Name = 
  24 active torsions:
  status: ('A' for Active; 'I' for Inactive)
    1  A    between atoms: C_1  and  C_10
    2  A    between atoms: C_1  and  C_38
    3  A    between atoms: C_3  and  C_6
    4  A    between atoms: C_3  and  C_15
    5  A    between atoms: C_5  and  O_35
    6  A    between atoms: C_5  and  C_36
    7  A    between atoms: C_6  and  O_29
    8  A    between atoms: C_6  and  C_53
    9  A    between atoms: O_9  and  N_27
   10  A    between atoms: C_12  and  C_58
   11  A    between atoms: C_12  and  C_63
   12  A    between atoms: C_13  and  C_26
   13  A    between atoms: C_13  and  C_60
   14  A    between atoms: C_15  and  N_27
   15  A    between atoms: C_18  and  C_22
   16  A    between atoms: C_18  and  C_59
   17  A    between atoms: C_19  and  C_25
   18  A    between atoms: C_22  and  N_40
   19  A    between atoms: C_24  and  C_60
   20  A    between atoms: C_25  and  C_32
   21  A    between atoms: C_26  and  C_57
   22  A    between atoms: C_31  and  C_62
   23  A    between atoms: C_53  and  C_59
   24  A    between atoms: C_57  and  C_59
                            x       y       z     vdW  Elec       q    Type
                         _______ _______ _______ _____ _____    ______ ____

>  <TORSDO>
F 24

$$$$
=
 OpenBabel11072409533D

 64 70  0  0  1  0  0  0  0  0999 V2000
  162.4980  208.2690  150.2600 C   0  0  0  0  0  2  0  0  0  0  0  0
  162.0030  206.6050  148.5210 N   0  0  0  0  0  0  0  0  0  0  0  0
  161.3300  207.4850  147.8430 C   0  0  0  0  0  0  0  0  0  0  0  0
  162.0390  210.6920  149.5730 N   0  0  0  0  0  0  0  0  0  0  0  0
  161.4430  208.8830  148.1600 N   0  0  0  0  0  0  0  0  0  0  0  0
  162.0100  209.2890  149.2600 C   0  0  0  0  0  0  0  0  0  0  0  0
  162.9740  207.0130  149.5330 C   0  0  0  0  0  2  0  0  0  0  0  0
  161.6270  211.5940  148.6440 O   0  0  0  0  0  0  0  0  0  0  0  0
  162.7840  212.2450  148.2040 C   0  0  0  0  0  1  0  0  0  0  0  0
  160.3700  207.0190  146.7930 C   0  0  2  0  0  3  0  0  0  0  0  0
  159.3280  206.3190  147.3970 O   0  0  0  0  0  1  0  0  0  0  0  0
  161.4940  204.0180  145.1010 C   0  0  2  0  0  3  0  0  0  0  0  0
  161.0380  206.1480  145.7320 C   0  0  1  0  0  3  0  0  0  0  0  0
  160.6520  204.8040  145.9150 O   0  0  0  0  0  0  0  0  0  0  0  0
  160.6800  206.5640  144.4320 O   0  0  0  0  0  0  0  0  0  0  0  0
  161.3930  204.4150  143.6240 C   0  0  0  0  0  2  0  0  0  0  0  0
  161.5860  205.9250  143.5720 C   0  0  1  0  0  3  0  0  0  0  0  0
  161.2100  202.5330  145.3210 C   0  0  0  0  0  2  0  0  0  0  0  0
  161.6650  200.4950  148.4870 O   0  0  0  0  0  1  0  0  0  0  0  0
  161.4640  203.0560  147.7630 F   0  0  0  0  0  0  0  0  0  0  0  0
  161.1730  202.1090  146.7930 C   0  0  2  0  0  0  0  0  0  0  0  0
  161.2620  200.6300  147.1570 C   0  0  2  0  0  3  0  0  0  0  0  0
  159.9100  201.3380  147.1100 C   0  0  0  0  0  2  0  0  0  0  0  0
  161.4790  206.4630  142.1530 C   0  0  0  0  0  2  0  0  0  0  0  0
  162.3030  205.7090  139.9610 C   0  0  0  0  0  2  0  0  0  0  0  0
  162.9380  207.0810  140.0870 C   0  0  2  0  0  3  0  0  0  0  0  0
  162.7380  206.1980  141.3310 C   0  0  1  0  0  3  0  0  0  0  0  0
  162.2420  209.4250  140.5870 C   0  0  0  0  0  3  0  0  0  0  0  0
  161.3500  210.4920  140.4720 C   0  0  0  0  0  3  0  0  0  0  0  0
  161.9560  208.2210  139.9410 C   0  0  0  0  0  0  0  0  0  0  0  0
  160.8190  208.1070  139.1910 N   0  0  0  0  0  0  0  0  0  0  0  0
  160.1780  210.3530  139.7180 C   0  0  0  0  0  0  0  0  0  0  0  0
  159.9340  209.1310  139.0750 C   0  0  0  0  0  3  0  0  0  0  0  0
  159.2240  211.4670  139.6150 C   0  0  0  0  0  0  0  0  0  0  0  0
  159.6050  212.6480  139.8470 O   0  0  0  0  0  0  0  0  0  0  0  0
  157.5600  210.7210  137.9590 C   0  0  0  0  0  1  0  0  0  0  0  0
  157.9000  211.2140  139.2470 O   0  0  0  0  0  0  0  0  0  0  0  0
  162.7150  211.1270  150.7990 C   0  0  0  0  0  2  0  0  0  0  0  0
  162.3670  210.2960  152.0360 C   0  0  0  0  0  2  0  0  0  0  0  0
  161.1490  210.8430  152.7780 C   0  0  2  0  0  3  0  0  0  0  0  0
  160.4330  208.5780  153.0690 O   0  0  0  0  0  1  0  0  0  0  0  0
  160.6030  209.7890  153.7490 C   0  0  1  0  0  3  0  0  0  0  0  0
  161.4780  209.6350  155.0040 C   0  0  1  0  0  3  0  0  0  0  0  0
  161.6660  210.7140  157.0790 O   0  0  0  0  0  0  0  0  0  0  0  0
  160.9390  210.4510  156.1360 C   0  0  0  0  0  0  0  0  0  0  0  0
  159.5060  210.8890  156.1500 C   0  0  0  0  0  2  0  0  0  0  0  0
  159.4040  212.4030  156.2140 C   0  0  0  0  0  2  0  0  0  0  0  0
  157.5390  213.7020  155.4920 O   0  0  0  0  0  1  0  0  0  0  0  0
  157.9690  212.8220  156.4870 C   0  0  1  0  0  3  0  0  0  0  0  0
  155.8140  212.8810  154.5420 C   0  0  0  0  0  1  0  0  0  0  0  0
  157.0710  211.5960  156.4950 C   0  0  2  0  0  3  0  0  0  0  0  0
  155.3720  210.3450  155.0120 C   0  0  0  0  0  1  0  0  0  0  0  0
  155.9570  211.6710  155.4560 C   0  0  0  0  0  0  0  0  0  0  0  0
  155.6540  211.9900  156.9050 C   0  0  0  0  0  2  0  0  0  0  0  0
  161.6740  208.1860  155.4590 C   0  0  0  0  0  2  0  0  0  0  0  0
  159.4780  207.0150  155.7410 C   0  0  0  0  0  1  0  0  0  0  0  0
  160.6540  207.2600  154.7950 C   0  0  2  0  0  3  0  0  0  0  0  0
  162.1170  205.4870  152.1030 C   0  0  0  0  0  2  0  0  0  0  0  0
  160.3290  205.1460  153.6330 C   0  0  0  0  0  2  0  0  0  0  0  0
  162.3200  206.3620  153.3290 C   0  0  0  0  0  2  0  0  0  0  0  0
  161.0640  204.4810  152.5010 C   0  0  0  0  0  2  0  0  0  0  0  0
  161.2880  206.0220  154.3090 N   0  0  0  0  0  0  0  0  0  0  0  0
  160.1640  211.2750  151.8760 O   0  0  0  0  0  0  0  0  0  0  0  0
  159.1900  211.8990  152.6590 C   0  0  0  0  0  1  0  0  0  0  0  0
  2  7  1  0  0  0  0
  3  5  1  0  0  0  0
  3  2  2  0  0  0  0
  4 38  1  0  0  0  0
  5  6  2  0  0  0  0
  6  4  1  0  0  0  0
  6  1  1  0  0  0  0
  7  1  1  0  0  0  0
  8  4  1  0  0  0  0
  9  8  1  0  0  0  0
 10 11  1  1  0  0  0
 10  3  1  0  0  0  0
 12 18  1  6  0  0  0
 12 14  1  0  0  0  0
 13 14  1  0  0  0  0
 13 10  1  1  0  0  0
 15 13  1  0  0  0  0
 16 12  1  0  0  0  0
 17 24  1  6  0  0  0
 17 16  1  0  0  0  0
 17 15  1  0  0  0  0
 18 21  1  0  0  0  0
 21 23  1  0  0  0  0
 21 22  1  0  0  0  0
 21 20  1  1  0  0  0
 22 19  1  1  0  0  0
 23 22  1  0  0  0  0
 25 26  1  0  0  0  0
 25 27  1  0  0  0  0
 26 30  1  1  0  0  0
 26 27  1  0  0  0  0
 27 24  1  1  0  0  0
 29 28  1  0  0  0  0
 30 28  2  0  0  0  0
 31 30  1  0  0  0  0
 32 29  2  0  0  0  0
 33 31  2  0  0  0  0
 33 32  1  0  0  0  0
 34 32  1  0  0  0  0
 34 35  2  0  0  0  0
 36 37  1  0  0  0  0
 37 34  1  0  0  0  0
 38 39  1  0  0  0  0
 40 39  1  6  0  0  0
 40 42  1  0  0  0  0
 42 41  1  6  0  0  0
 42 43  1  0  0  0  0
 43 55  1  1  0  0  0
 43 45  1  0  0  0  0
 45 46  1  0  0  0  0
 45 44  2  0  0  0  0
 46 47  1  0  0  0  0
 47 49  1  0  0  0  0
 49 48  1  6  0  0  0
 50 53  1  0  0  0  0
 51 49  1  6  0  0  0
 51 54  1  0  0  0  0
 52 53  1  0  0  0  0
 53 51  1  0  0  0  0
 53 54  1  0  0  0  0
 57 55  1  0  0  0  0
 57 56  1  1  0  0  0
 58 61  1  0  0  0  0
 58 60  1  0  0  0  0
 59 62  1  0  0  0  0
 60 62  1  0  0  0  0
 61 59  1  0  0  0  0
 62 57  1  0  0  0  0
 63 64  1  0  0  0  0
 63 40  1  0  0  0  0
M  END
>  <MODEL>
2

>  <REMARK>
 VINA RESULT:      -0.6      2.970      9.368
  Name = 
  24 active torsions:
  status: ('A' for Active; 'I' for Inactive)
    1  A    between atoms: C_1  and  C_10
    2  A    between atoms: C_1  and  C_38
    3  A    between atoms: C_3  and  C_6
    4  A    between atoms: C_3  and  C_15
    5  A    between atoms: C_5  and  O_35
    6  A    between atoms: C_5  and  C_36
    7  A    between atoms: C_6  and  O_29
    8  A    between atoms: C_6  and  C_53
    9  A    between atoms: O_9  and  N_27
   10  A    between atoms: C_12  and  C_58
   11  A    between atoms: C_12  and  C_63
   12  A    between atoms: C_13  and  C_26
   13  A    between atoms: C_13  and  C_60
   14  A    between atoms: C_15  and  N_27
   15  A    between atoms: C_18  and  C_22
   16  A    between atoms: C_18  and  C_59
   17  A    between atoms: C_19  and  C_25
   18  A    between atoms: C_22  and  N_40
   19  A    between atoms: C_24  and  C_60
   20  A    between atoms: C_25  and  C_32
   21  A    between atoms: C_26  and  C_57
   22  A    between atoms: C_31  and  C_62
   23  A    between atoms: C_53  and  C_59
   24  A    between atoms: C_57  and  C_59
                            x       y       z     vdW  Elec       q    Type
                         _______ _______ _______ _____ _____    ______ ____

>  <TORSDO>
F 24

$$$$
