=
 OpenBabel11072412073D

 50 56  0  0  1  0  0  0  0  0999 V2000
  161.0880  206.0490  153.1100 C   0  0  1  0  0  3  0  0  0  0  0  0
  160.2600  205.2280  152.1490 C   0  0  0  0  0  2  0  0  0  0  0  0
  161.2220  204.8510  151.0490 C   0  0  2  0  0  3  0  0  0  0  0  0
  162.2080  206.6340  152.3610 N   0  0  0  0  0  0  0  0  0  0  0  0
  162.4850  205.6650  151.3050 C   0  0  0  0  0  2  0  0  0  0  0  0
  160.4260  208.0040  150.8910 O   0  0  0  0  0  1  0  0  0  0  0  0
  162.9270  208.5660  150.3970 O   0  0  0  0  0  0  0  0  0  0  0  0
  161.7700  208.1530  151.5640 P   0  0  2  0  0  0  0  0  0  0  0  0
  161.6960  209.4170  152.7330 O   0  0  0  0  0  0  0  0  0  0  0  0
  160.7340  210.4350  152.7250 C   0  0  2  0  0  3  0  0  0  0  0  0
  160.7760  211.4500  151.8140 C   0  0  0  0  0  3  0  0  0  0  0  0
  159.9070  211.1180  154.8860 C   0  0  2  0  0  3  0  0  0  0  0  0
  159.0830  211.7450  153.8040 N   0  0  2  0  0  0  0  0  0  0  0  0
  159.8440  212.6270  151.8210 C   0  0  0  0  0  0  0  0  0  0  0  0
  159.6370  210.3720  153.7690 C   0  0  1  0  0  3  0  0  0  0  0  0
  159.0140  212.7930  152.8630 C   0  0  0  0  0  2  0  0  0  0  0  0
  159.9970  213.6630  150.7370 C   0  0  1  0  0  3  0  0  0  0  0  0
  161.1920  212.2180  147.5940 C   0  0  0  0  0  3  0  0  0  0  0  0
  161.4960  212.4370  148.9460 C   0  0  0  0  0  3  0  0  0  0  0  0
  160.3900  213.1040  149.4230 C   0  0  0  0  0  0  0  0  0  0  0  0
  159.9330  212.7670  147.3340 C   0  0  0  0  0  3  0  0  0  0  0  0
  159.5000  213.2920  148.4830 N   0  0  0  0  0  0  0  0  0  0  0  0
  158.6170  214.2880  150.4060 C   0  0  0  0  0  3  0  0  0  0  0  0
  158.3250  214.0000  148.9150 C   0  0  0  0  0  3  0  0  0  0  0  0
  159.0370  210.6970  155.9700 N   0  0  0  0  0  2  0  0  0  0  0  0
  159.8560  210.2110  156.9970 N   0  0  0  0  0  2  0  0  0  0  0  0
  161.0470  211.0470  157.0280 C   0  0  0  0  0  2  0  0  0  0  0  0
  163.4160  210.7630  156.5870 N   0  0  0  0  0  1  0  0  0  0  0  0
  162.2740  210.1770  157.2590 C   0  0  0  0  0  2  0  0  0  0  0  0
  160.3130  207.0100  153.7680 O   0  0  0  0  0  0  0  0  0  0  0  0
  160.7250  206.9510  155.1030 C   0  0  0  0  0  1  0  0  0  0  0  0
  160.6850  205.2150  149.8110 O   0  0  0  0  0  0  0  0  0  0  0  0
  160.0850  201.9050  145.4850 P   0  0  2  0  0  4  0  0  0  0  0  0
  160.4170  202.8520  148.4030 C   0  0  0  0  0  2  0  0  0  0  0  0
  162.0770  206.3890  148.2710 C   0  0  0  0  0  2  0  0  0  0  0  0
  162.4490  205.5660  144.5810 C   0  0  0  0  0  1  0  0  0  0  0  0
  161.2930  201.3250  146.6260 N   0  0  0  0  0  2  0  0  0  0  0  0
  161.7670  205.6350  145.9330 C   0  0  2  0  0  0  0  0  0  0  0  0
  160.0770  203.7130  145.6580 C   0  0  0  0  0  2  0  0  0  0  0  0
  161.3500  204.2120  146.3640 C   0  0  2  0  0  3  0  0  0  0  0  0
  160.7720  201.4170  147.9910 C   0  0  1  0  0  3  0  0  0  0  0  0
  161.4110  203.9040  147.8890 C   0  0  1  0  0  3  0  0  0  0  0  0
  160.6480  206.4670  145.8330 O   0  0  0  0  0  1  0  0  0  0  0  0
  162.7530  206.2360  146.9240 C   0  0  0  0  0  2  0  0  0  0  0  0
  160.3950  203.2620  144.4330 O   0  0  0  0  0  0  0  0  0  0  0  0
  161.7240  205.0390  148.8910 C   0  0  2  0  0  3  0  0  0  0  0  0
  158.6580  201.4480  145.6900 O   0  0  0  0  0  0  0  0  0  0  0  0
  161.7940  200.8580  148.9700 C   0  0  0  0  0  2  0  0  0  0  0  0
  161.2980  200.9700  150.4010 C   0  0  0  0  0  2  0  0  0  0  0  0
  162.2270  201.6600  151.1780 O   0  0  0  0  0  1  0  0  0  0  0  0
  1 30  1  6  0  0  0
  2  1  1  0  0  0  0
  3 32  1  6  0  0  0
  3  5  1  0  0  0  0
  3  2  1  0  0  0  0
  4  1  1  0  0  0  0
  5  4  1  0  0  0  0
  6  8  1  0  0  0  0
  8  7  2  6  0  0  0
  8  4  1  0  0  0  0
  8  9  1  0  0  0  0
 10  9  1  1  0  0  0
 10 15  1  0  0  0  0
 11 14  2  0  0  0  0
 11 10  1  0  0  0  0
 12 25  1  1  0  0  0
 13 16  1  6  0  0  0
 13 12  1  0  0  0  0
 14 16  1  0  0  0  0
 15 13  1  0  0  0  0
 15 12  1  0  0  0  0
 17 14  1  0  0  0  0
 18 19  1  0  0  0  0
 19 20  2  0  0  0  0
 20 17  1  0  0  0  0
 21 18  2  0  0  0  0
 21 22  1  0  0  0  0
 22 24  1  0  0  0  0
 22 20  1  0  0  0  0
 23 17  1  0  0  0  0
 24 23  2  0  0  0  0
 25 26  1  0  0  0  0
 26 27  1  0  0  0  0
 27 29  1  0  0  0  0
 28 29  1  0  0  0  0
 30 31  1  0  0  0  0
 33 47  2  0  0  0  0
 33 37  1  0  0  0  0
 35 46  1  0  0  0  0
 36 38  1  0  0  0  0
 37 41  1  0  0  0  0
 38 40  1  0  0  0  0
 38 44  1  0  0  0  0
 39 40  1  0  0  0  0
 40 42  1  0  0  0  0
 41 34  1  0  0  0  0
 41 48  1  0  0  0  0
 42 34  1  0  0  0  0
 42 46  1  0  0  0  0
 43 38  1  0  0  0  0
 44 35  1  0  0  0  0
 45 33  1  0  0  0  0
 45 39  1  0  0  0  0
 46 32  1  0  0  0  0
 48 49  1  0  0  0  0
 49 50  1  0  0  0  0
M  END
>  <MODEL>
1

>  <REMARK>
 VINA RESULT:      -4.7      0.000      0.000
  Name = 
  13 active torsions:
  status: ('A' for Active; 'I' for Inactive)
    1  A    between atoms: C_1  and  O_37
    2  A    between atoms: C_2  and  C_40
    3  A    between atoms: C_3  and  N_14
    4  A    between atoms: C_3  and  C_39
    5  A    between atoms: O_4  and  C_29
    6  A    between atoms: O_4  and  C_46
    7  A    between atoms: O_6  and  C_15
    8  A    between atoms: N_14  and  N_48
    9  A    between atoms: C_18  and  C_35
   10  A    between atoms: C_22  and  N_48
   11  A    between atoms: C_26  and  C_35
   12  A    between atoms: N_30  and  P_49
   13  A    between atoms: O_37  and  P_49
                            x       y       z     vdW  Elec       q    Type
                         _______ _______ _______ _____ _____    ______ ____

>  <TORSDO>
F 13

$$$$
=
 OpenBabel11072412073D

 50 56  0  0  1  0  0  0  0  0999 V2000
  162.1060  210.0160  151.1420 C   0  0  1  0  0  3  0  0  0  0  0  0
  161.0830  211.0890  151.4330 C   0  0  0  0  0  2  0  0  0  0  0  0
  161.2560  211.3850  152.9030 C   0  0  2  0  0  3  0  0  0  0  0  0
  162.3910  209.3060  152.3950 N   0  0  0  0  0  0  0  0  0  0  0  0
  162.1970  210.3110  153.4350 C   0  0  0  0  0  2  0  0  0  0  0  0
  160.0670  208.1180  151.7620 O   0  0  0  0  0  0  0  0  0  0  0  0
  160.6570  208.1000  154.3050 O   0  0  0  0  0  1  0  0  0  0  0  0
  161.2330  208.0050  152.7150 P   0  0  2  0  0  0  0  0  0  0  0  0
  162.0080  206.4790  152.5050 O   0  0  0  0  0  0  0  0  0  0  0  0
  161.9620  205.7350  151.3180 C   0  0  2  0  0  3  0  0  0  0  0  0
  161.9570  206.3410  150.0960 C   0  0  0  0  0  3  0  0  0  0  0  0
  160.6460  203.7150  151.3940 C   0  0  2  0  0  3  0  0  0  0  0  0
  161.4270  203.7650  150.1180 N   0  0  2  0  0  0  0  0  0  0  0  0
  161.7970  205.6090  148.7950 C   0  0  0  0  0  0  0  0  0  0  0  0
  161.9160  204.2250  151.4390 C   0  0  1  0  0  3  0  0  0  0  0  0
  161.4830  204.3050  148.8170 C   0  0  0  0  0  2  0  0  0  0  0  0
  161.8310  206.4110  147.5190 C   0  0  1  0  0  3  0  0  0  0  0  0
  162.8900  204.4040  144.6470 C   0  0  0  0  0  3  0  0  0  0  0  0
  163.2690  204.9010  145.9030 C   0  0  0  0  0  3  0  0  0  0  0  0
  162.1660  205.6120  146.3160 C   0  0  0  0  0  0  0  0  0  0  0  0
  161.5930  204.8470  144.3740 C   0  0  0  0  0  3  0  0  0  0  0  0
  161.2100  205.5780  145.4250 N   0  0  0  0  0  0  0  0  0  0  0  0
  160.4050  206.9100  147.1710 C   0  0  0  0  0  3  0  0  0  0  0  0
  160.0320  206.3190  145.7910 C   0  0  0  0  0  3  0  0  0  0  0  0
  160.6520  202.3570  151.9090 N   0  0  0  0  0  2  0  0  0  0  0  0
  161.4300  201.5840  151.0380 N   0  0  0  0  0  2  0  0  0  0  0  0
  160.5160  200.9250  150.1150 C   0  0  0  0  0  2  0  0  0  0  0  0
  160.5260  201.1110  147.6960 N   0  0  0  0  0  1  0  0  0  0  0  0
  161.2530  200.5780  148.8300 C   0  0  0  0  0  2  0  0  0  0  0  0
  161.6810  209.1620  150.1170 O   0  0  0  0  0  0  0  0  0  0  0  0
  162.0030  209.8340  148.9340 C   0  0  0  0  0  1  0  0  0  0  0  0
  160.0230  211.2780  153.5520 O   0  0  0  0  0  0  0  0  0  0  0  0
  155.0370  213.5520  153.4930 P   0  0  2  0  0  4  0  0  0  0  0  0
  157.7660  212.4920  152.5170 C   0  0  0  0  0  2  0  0  0  0  0  0
  160.1530  212.4700  155.6130 C   0  0  0  0  0  2  0  0  0  0  0  0
  157.2770  214.3270  157.2610 C   0  0  0  0  0  1  0  0  0  0  0  0
  156.2080  214.4490  152.5330 N   0  0  0  0  0  2  0  0  0  0  0  0
  157.9470  213.2800  156.3920 C   0  0  2  0  0  0  0  0  0  0  0  0
  155.9990  212.7360  154.7990 C   0  0  0  0  0  2  0  0  0  0  0  0
  157.3880  213.3790  154.9560 C   0  0  2  0  0  3  0  0  0  0  0  0
  156.9800  213.5250  151.6990 C   0  0  1  0  0  3  0  0  0  0  0  0
  158.3840  213.0650  153.8010 C   0  0  1  0  0  3  0  0  0  0  0  0
  157.6940  212.0160  156.9330 O   0  0  0  0  0  1  0  0  0  0  0  0
  159.4450  213.5450  156.4120 C   0  0  0  0  0  2  0  0  0  0  0  0
  155.0600  213.5910  155.2370 O   0  0  0  0  0  0  0  0  0  0  0  0
  159.7980  212.5320  154.1290 C   0  0  2  0  0  3  0  0  0  0  0  0
  154.2530  212.4650  152.7940 O   0  0  0  0  0  0  0  0  0  0  0  0
  157.9490  214.3080  150.8250 C   0  0  0  0  0  2  0  0  0  0  0  0
  158.6270  213.4020  149.8130 C   0  0  0  0  0  2  0  0  0  0  0  0
  157.8100  213.2360  148.6960 O   0  0  0  0  0  1  0  0  0  0  0  0
  1 30  1  6  0  0  0
  1  2  1  0  0  0  0
  1  4  1  0  0  0  0
  2  3  1  0  0  0  0
  3  5  1  0  0  0  0
  3 32  1  1  0  0  0
  4  8  1  0  0  0  0
  4  5  1  0  0  0  0
  8  6  2  6  0  0  0
  8  7  1  0  0  0  0
  9  8  1  0  0  0  0
 10 15  1  0  0  0  0
 10  9  1  1  0  0  0
 11 10  1  0  0  0  0
 12 15  1  0  0  0  0
 12 25  1  1  0  0  0
 13 16  1  6  0  0  0
 13 12  1  0  0  0  0
 13 15  1  0  0  0  0
 14 16  1  0  0  0  0
 14 11  2  0  0  0  0
 17 14  1  0  0  0  0
 18 19  1  0  0  0  0
 19 20  2  0  0  0  0
 20 17  1  0  0  0  0
 21 18  2  0  0  0  0
 21 22  1  0  0  0  0
 22 24  1  0  0  0  0
 22 20  1  0  0  0  0
 23 17  1  0  0  0  0
 24 23  2  0  0  0  0
 26 25  1  0  0  0  0
 27 26  1  0  0  0  0
 28 29  1  0  0  0  0
 29 27  1  0  0  0  0
 31 30  1  0  0  0  0
 32 46  1  0  0  0  0
 33 45  1  0  0  0  0
 34 42  1  0  0  0  0
 35 44  1  0  0  0  0
 37 33  1  0  0  0  0
 38 44  1  0  0  0  0
 38 43  1  0  0  0  0
 38 36  1  0  0  0  0
 39 40  1  0  0  0  0
 39 45  1  0  0  0  0
 40 38  1  0  0  0  0
 41 34  1  0  0  0  0
 41 37  1  0  0  0  0
 42 46  1  0  0  0  0
 42 40  1  0  0  0  0
 46 35  1  0  0  0  0
 47 33  2  0  0  0  0
 48 41  1  0  0  0  0
 49 48  1  0  0  0  0
 50 49  1  0  0  0  0
M  END
>  <MODEL>
2

>  <REMARK>
 VINA RESULT:      -3.4      3.323     10.100
  Name = 
  13 active torsions:
  status: ('A' for Active; 'I' for Inactive)
    1  A    between atoms: C_1  and  O_37
    2  A    between atoms: C_2  and  C_40
    3  A    between atoms: C_3  and  N_14
    4  A    between atoms: C_3  and  C_39
    5  A    between atoms: O_4  and  C_29
    6  A    between atoms: O_4  and  C_46
    7  A    between atoms: O_6  and  C_15
    8  A    between atoms: N_14  and  N_48
    9  A    between atoms: C_18  and  C_35
   10  A    between atoms: C_22  and  N_48
   11  A    between atoms: C_26  and  C_35
   12  A    between atoms: N_30  and  P_49
   13  A    between atoms: O_37  and  P_49
                            x       y       z     vdW  Elec       q    Type
                         _______ _______ _______ _____ _____    ______ ____

>  <TORSDO>
F 13

$$$$
=
 OpenBabel11072412073D

 50 56  0  0  1  0  0  0  0  0999 V2000
  159.8370  213.8160  149.3210 C   0  0  1  0  0  3  0  0  0  0  0  0
  158.8360  213.1250  150.2170 C   0  0  0  0  0  2  0  0  0  0  0  0
  159.6190  212.7780  151.4600 C   0  0  2  0  0  3  0  0  0  0  0  0
  161.1810  213.3590  149.7000 N   0  0  0  0  0  0  0  0  0  0  0  0
  161.0770  213.0720  151.1270 C   0  0  0  0  0  2  0  0  0  0  0  0
  162.9500  212.0190  148.1870 O   0  0  0  0  0  1  0  0  0  0  0  0
  160.4490  211.3930  147.7750 O   0  0  0  0  0  0  0  0  0  0  0  0
  161.6310  211.8440  148.9020 P   0  0  2  0  0  0  0  0  0  0  0  0
  161.7710  210.5920  150.0780 O   0  0  0  0  0  0  0  0  0  0  0  0
  161.9480  209.2380  149.7630 C   0  0  2  0  0  3  0  0  0  0  0  0
  161.8510  208.7860  148.4800 C   0  0  0  0  0  3  0  0  0  0  0  0
  161.1400  207.6620  151.4000 C   0  0  2  0  0  3  0  0  0  0  0  0
  161.9390  206.9460  150.3560 N   0  0  2  0  0  0  0  0  0  0  0  0
  161.9200  207.3380  148.0900 C   0  0  0  0  0  0  0  0  0  0  0  0
  162.2520  208.2860  150.9030 C   0  0  1  0  0  3  0  0  0  0  0  0
  161.9200  206.4040  149.0540 C   0  0  0  0  0  2  0  0  0  0  0  0
  161.8180  206.9880  146.6270 C   0  0  1  0  0  3  0  0  0  0  0  0
  163.0480  203.6160  145.9150 C   0  0  0  0  0  3  0  0  0  0  0  0
  163.3940  204.8850  146.4030 C   0  0  0  0  0  3  0  0  0  0  0  0
  162.2200  205.5980  146.3110 C   0  0  0  0  0  0  0  0  0  0  0  0
  161.6990  203.6380  145.5540 C   0  0  0  0  0  3  0  0  0  0  0  0
  161.2530  204.8700  145.8170 N   0  0  0  0  0  0  0  0  0  0  0  0
  160.3320  206.9870  146.1870 C   0  0  0  0  0  3  0  0  0  0  0  0
  160.0010  205.5650  145.6790 C   0  0  0  0  0  3  0  0  0  0  0  0
  161.4420  207.1020  152.7050 N   0  0  0  0  0  2  0  0  0  0  0  0
  162.0890  205.8780  152.4940 N   0  0  0  0  0  2  0  0  0  0  0  0
  161.2090  204.8340  153.0020 C   0  0  0  0  0  2  0  0  0  0  0  0
  161.5630  202.8430  151.6620 N   0  0  0  0  0  1  0  0  0  0  0  0
  160.6980  203.9910  151.8440 C   0  0  0  0  0  2  0  0  0  0  0  0
  159.5520  213.6020  147.9670 O   0  0  0  0  0  0  0  0  0  0  0  0
  158.2310  214.0310  147.8070 C   0  0  0  0  0  1  0  0  0  0  0  0
  159.4770  211.4170  151.7410 O   0  0  0  0  0  0  0  0  0  0  0  0
  160.8850  211.4450  157.0370 P   0  0  2  0  0  4  0  0  0  0  0  0
  160.5290  210.4930  154.1240 C   0  0  0  0  0  2  0  0  0  0  0  0
  157.5610  212.5390  152.6110 C   0  0  0  0  0  2  0  0  0  0  0  0
  157.1410  213.7030  156.2030 C   0  0  0  0  0  1  0  0  0  0  0  0
  160.1600  209.9230  156.5320 N   0  0  0  0  0  2  0  0  0  0  0  0
  157.8840  213.3240  154.9370 C   0  0  2  0  0  0  0  0  0  0  0  0
  160.1700  212.7130  155.9500 C   0  0  0  0  0  2  0  0  0  0  0  0
  158.8940  212.2010  155.2590 C   0  0  2  0  0  3  0  0  0  0  0  0
  160.7490  209.4890  155.2630 C   0  0  1  0  0  3  0  0  0  0  0  0
  159.1390  211.1460  154.1390 C   0  0  1  0  0  3  0  0  0  0  0  0
  158.5440  214.4530  154.4450 O   0  0  0  0  0  1  0  0  0  0  0  0
  156.8580  212.8550  153.9160 C   0  0  0  0  0  2  0  0  0  0  0  0
  159.9280  212.8870  157.2600 O   0  0  0  0  0  0  0  0  0  0  0  0
  158.5040  211.3460  152.7430 C   0  0  2  0  0  3  0  0  0  0  0  0
  162.3870  211.5740  156.9170 O   0  0  0  0  0  0  0  0  0  0  0  0
  160.1650  208.1430  154.8590 C   0  0  0  0  0  2  0  0  0  0  0  0
  159.6920  207.3650  156.0740 C   0  0  0  0  0  2  0  0  0  0  0  0
  160.7840  206.8430  156.7640 O   0  0  0  0  0  1  0  0  0  0  0  0
  1 30  1  6  0  0  0
  1  4  1  0  0  0  0
  1  2  1  0  0  0  0
  2  3  1  0  0  0  0
  3 32  1  6  0  0  0
  4  5  1  0  0  0  0
  5  3  1  0  0  0  0
  6  8  1  0  0  0  0
  8  7  2  6  0  0  0
  8  4  1  0  0  0  0
  8  9  1  0  0  0  0
 10  9  1  1  0  0  0
 10 15  1  0  0  0  0
 11 10  1  0  0  0  0
 12 25  1  1  0  0  0
 13 16  1  6  0  0  0
 13 15  1  0  0  0  0
 13 12  1  0  0  0  0
 14 11  2  0  0  0  0
 14 16  1  0  0  0  0
 15 12  1  0  0  0  0
 17 14  1  0  0  0  0
 18 19  1  0  0  0  0
 20 19  2  0  0  0  0
 20 17  1  0  0  0  0
 21 22  1  0  0  0  0
 21 18  2  0  0  0  0
 22 20  1  0  0  0  0
 23 17  1  0  0  0  0
 24 22  1  0  0  0  0
 24 23  2  0  0  0  0
 26 25  1  0  0  0  0
 26 27  1  0  0  0  0
 28 29  1  0  0  0  0
 29 27  1  0  0  0  0
 31 30  1  0  0  0  0
 32 46  1  0  0  0  0
 33 45  1  0  0  0  0
 34 42  1  0  0  0  0
 34 41  1  0  0  0  0
 35 46  1  0  0  0  0
 35 44  1  0  0  0  0
 37 33  1  0  0  0  0
 38 40  1  0  0  0  0
 38 36  1  0  0  0  0
 39 45  1  0  0  0  0
 40 39  1  0  0  0  0
 41 37  1  0  0  0  0
 42 40  1  0  0  0  0
 43 38  1  0  0  0  0
 44 38  1  0  0  0  0
 46 42  1  0  0  0  0
 47 33  2  0  0  0  0
 48 41  1  0  0  0  0
 48 49  1  0  0  0  0
 49 50  1  0  0  0  0
M  END
>  <MODEL>
3

>  <REMARK>
 VINA RESULT:      -3.1      3.565      9.298
  Name = 
  13 active torsions:
  status: ('A' for Active; 'I' for Inactive)
    1  A    between atoms: C_1  and  O_37
    2  A    between atoms: C_2  and  C_40
    3  A    between atoms: C_3  and  N_14
    4  A    between atoms: C_3  and  C_39
    5  A    between atoms: O_4  and  C_29
    6  A    between atoms: O_4  and  C_46
    7  A    between atoms: O_6  and  C_15
    8  A    between atoms: N_14  and  N_48
    9  A    between atoms: C_18  and  C_35
   10  A    between atoms: C_22  and  N_48
   11  A    between atoms: C_26  and  C_35
   12  A    between atoms: N_30  and  P_49
   13  A    between atoms: O_37  and  P_49
                            x       y       z     vdW  Elec       q    Type
                         _______ _______ _______ _____ _____    ______ ____

>  <TORSDO>
F 13

$$$$
=
 OpenBabel11072412073D

 50 56  0  0  1  0  0  0  0  0999 V2000
  161.1330  206.5780  153.0190 C   0  0  1  0  0  3  0  0  0  0  0  0
  160.4000  205.6920  152.0400 C   0  0  0  0  0  2  0  0  0  0  0  0
  161.4190  205.3920  150.9670 C   0  0  2  0  0  3  0  0  0  0  0  0
  162.2230  207.2490  152.3000 N   0  0  0  0  0  0  0  0  0  0  0  0
  162.6060  206.3040  151.2550 C   0  0  0  0  0  2  0  0  0  0  0  0
  161.3490  208.4190  150.0460 O   0  0  0  0  0  0  0  0  0  0  0  0
  162.9070  209.9020  151.5260 O   0  0  0  0  0  1  0  0  0  0  0  0
  161.6870  208.7270  151.4850 P   0  0  2  0  0  0  0  0  0  0  0  0
  160.2960  209.3550  152.2860 O   0  0  0  0  0  0  0  0  0  0  0  0
  160.0730  210.7200  152.5130 C   0  0  2  0  0  3  0  0  0  0  0  0
  159.2280  211.1510  153.4920 C   0  0  0  0  0  3  0  0  0  0  0  0
  160.0670  212.1240  150.5510 C   0  0  2  0  0  3  0  0  0  0  0  0
  160.0540  212.9730  151.7850 N   0  0  2  0  0  0  0  0  0  0  0  0
  158.8610  212.5900  153.7140 C   0  0  0  0  0  0  0  0  0  0  0  0
  160.8060  211.7070  151.6260 C   0  0  1  0  0  3  0  0  0  0  0  0
  159.2500  213.5060  152.8130 C   0  0  0  0  0  2  0  0  0  0  0  0
  157.9290  212.9200  154.8510 C   0  0  1  0  0  3  0  0  0  0  0  0
  155.1440  210.5590  155.0950 C   0  0  0  0  0  3  0  0  0  0  0  0
  155.7700  211.5160  154.2820 C   0  0  0  0  0  3  0  0  0  0  0  0
  156.8400  211.9350  155.0410 C   0  0  0  0  0  0  0  0  0  0  0  0
  155.8620  210.4620  156.2900 C   0  0  0  0  0  3  0  0  0  0  0  0
  156.8780  211.3240  156.1970 N   0  0  0  0  0  0  0  0  0  0  0  0
  158.6840  212.8100  156.2010 C   0  0  0  0  0  3  0  0  0  0  0  0
  157.9660  211.7310  157.0450 C   0  0  0  0  0  3  0  0  0  0  0  0
  160.9470  212.7250  149.5640 N   0  0  0  0  0  2  0  0  0  0  0  0
  161.7360  211.7000  149.0290 N   0  0  0  0  0  2  0  0  0  0  0  0
  162.7690  212.3300  148.2200 C   0  0  0  0  0  2  0  0  0  0  0  0
  162.4440  213.0820  145.9360 N   0  0  0  0  0  1  0  0  0  0  0  0
  162.1400  213.3830  147.3210 C   0  0  0  0  0  2  0  0  0  0  0  0
  160.2660  207.4750  153.6530 O   0  0  0  0  0  0  0  0  0  0  0  0
  160.5570  207.3550  155.0150 C   0  0  0  0  0  1  0  0  0  0  0  0
  160.8900  205.7090  149.7140 O   0  0  0  0  0  0  0  0  0  0  0  0
  160.0660  201.9650  145.7980 P   0  0  2  0  0  4  0  0  0  0  0  0
  160.5060  203.2160  148.5840 C   0  0  0  0  0  2  0  0  0  0  0  0
  162.2790  206.6550  148.0220 C   0  0  0  0  0  2  0  0  0  0  0  0
  162.5260  205.4170  144.4380 C   0  0  0  0  0  1  0  0  0  0  0  0
  161.2830  201.4720  146.9690 N   0  0  0  0  0  2  0  0  0  0  0  0
  161.8830  205.6590  145.7890 C   0  0  2  0  0  0  0  0  0  0  0  0
  160.1230  203.7800  145.7680 C   0  0  0  0  0  2  0  0  0  0  0  0
  161.4300  204.3090  146.3850 C   0  0  2  0  0  3  0  0  0  0  0  0
  160.8020  201.7330  148.3270 C   0  0  1  0  0  3  0  0  0  0  0  0
  161.5210  204.1680  147.9340 C   0  0  1  0  0  3  0  0  0  0  0  0
  160.7900  206.5150  145.6220 O   0  0  0  0  0  1  0  0  0  0  0  0
  162.9140  206.3290  146.6850 C   0  0  0  0  0  2  0  0  0  0  0  0
  160.3930  203.1860  144.5940 O   0  0  0  0  0  0  0  0  0  0  0  0
  161.8980  205.3960  148.7960 C   0  0  2  0  0  3  0  0  0  0  0  0
  158.6310  201.5860  146.0850 O   0  0  0  0  0  0  0  0  0  0  0  0
  161.8300  201.2500  149.3390 C   0  0  0  0  0  2  0  0  0  0  0  0
  161.2270  201.1590  150.7300 C   0  0  0  0  0  2  0  0  0  0  0  0
  161.7560  202.1560  151.5470 O   0  0  0  0  0  1  0  0  0  0  0  0
  1 30  1  6  0  0  0
  2  1  1  0  0  0  0
  3 32  1  6  0  0  0
  3  5  1  0  0  0  0
  3  2  1  0  0  0  0
  4  1  1  0  0  0  0
  5  4  1  0  0  0  0
  8  6  2  6  0  0  0
  8  7  1  0  0  0  0
  8  9  1  0  0  0  0
  8  4  1  0  0  0  0
 10  9  1  6  0  0  0
 10 11  1  0  0  0  0
 11 14  2  0  0  0  0
 12 25  1  6  0  0  0
 12 15  1  0  0  0  0
 12 13  1  0  0  0  0
 13 16  1  1  0  0  0
 14 17  1  0  0  0  0
 15 13  1  0  0  0  0
 15 10  1  0  0  0  0
 16 14  1  0  0  0  0
 17 20  1  0  0  0  0
 17 23  1  0  0  0  0
 18 21  2  0  0  0  0
 19 20  2  0  0  0  0
 19 18  1  0  0  0  0
 20 22  1  0  0  0  0
 22 21  1  0  0  0  0
 22 24  1  0  0  0  0
 23 24  2  0  0  0  0
 26 25  1  0  0  0  0
 27 26  1  0  0  0  0
 28 29  1  0  0  0  0
 29 27  1  0  0  0  0
 30 31  1  0  0  0  0
 33 47  2  0  0  0  0
 33 37  1  0  0  0  0
 35 46  1  0  0  0  0
 36 38  1  0  0  0  0
 37 41  1  0  0  0  0
 38 40  1  0  0  0  0
 38 44  1  0  0  0  0
 39 40  1  0  0  0  0
 40 42  1  0  0  0  0
 41 34  1  0  0  0  0
 41 48  1  0  0  0  0
 42 34  1  0  0  0  0
 42 46  1  0  0  0  0
 43 38  1  0  0  0  0
 44 35  1  0  0  0  0
 45 39  1  0  0  0  0
 45 33  1  0  0  0  0
 46 32  1  0  0  0  0
 48 49  1  0  0  0  0
 49 50  1  0  0  0  0
M  END
>  <MODEL>
4

>  <REMARK>
 VINA RESULT:      -3.1      1.702      4.452
  Name = 
  13 active torsions:
  status: ('A' for Active; 'I' for Inactive)
    1  A    between atoms: C_1  and  O_37
    2  A    between atoms: C_2  and  C_40
    3  A    between atoms: C_3  and  N_14
    4  A    between atoms: C_3  and  C_39
    5  A    between atoms: O_4  and  C_29
    6  A    between atoms: O_4  and  C_46
    7  A    between atoms: O_6  and  C_15
    8  A    between atoms: N_14  and  N_48
    9  A    between atoms: C_18  and  C_35
   10  A    between atoms: C_22  and  N_48
   11  A    between atoms: C_26  and  C_35
   12  A    between atoms: N_30  and  P_49
   13  A    between atoms: O_37  and  P_49
                            x       y       z     vdW  Elec       q    Type
                         _______ _______ _______ _____ _____    ______ ____

>  <TORSDO>
F 13

$$$$
=
 OpenBabel11072412073D

 50 56  0  0  1  0  0  0  0  0999 V2000
  160.9350  206.3530  153.9430 C   0  0  1  0  0  3  0  0  0  0  0  0
  160.8760  205.2560  152.9060 C   0  0  0  0  0  2  0  0  0  0  0  0
  162.3000  205.1140  152.4260 C   0  0  2  0  0  3  0  0  0  0  0  0
  162.1000  207.1970  153.6480 N   0  0  0  0  0  0  0  0  0  0  0  0
  163.0600  206.2880  153.0310 C   0  0  0  0  0  2  0  0  0  0  0  0
  160.4560  208.1170  151.7330 O   0  0  0  0  0  1  0  0  0  0  0  0
  162.9940  208.5720  151.3210 O   0  0  0  0  0  0  0  0  0  0  0  0
  161.7400  208.4540  152.4540 P   0  0  2  0  0  0  0  0  0  0  0  0
  161.5770  209.9750  153.2490 O   0  0  0  0  0  0  0  0  0  0  0  0
  160.5680  210.9040  152.9600 C   0  0  2  0  0  3  0  0  0  0  0  0
  160.7030  211.8140  151.9540 C   0  0  0  0  0  3  0  0  0  0  0  0
  159.3410  211.7460  154.8590 C   0  0  2  0  0  3  0  0  0  0  0  0
  158.6780  212.1840  153.5890 N   0  0  2  0  0  0  0  0  0  0  0  0
  159.7120  212.9040  151.6660 C   0  0  0  0  0  0  0  0  0  0  0  0
  159.3150  210.8640  153.8120 C   0  0  1  0  0  3  0  0  0  0  0  0
  158.7070  213.1140  152.5300 C   0  0  0  0  0  2  0  0  0  0  0  0
  159.9840  213.8260  150.5050 C   0  0  1  0  0  3  0  0  0  0  0  0
  161.4620  212.0690  147.6540 C   0  0  0  0  0  3  0  0  0  0  0  0
  161.6350  212.4210  149.0010 C   0  0  0  0  0  3  0  0  0  0  0  0
  160.4970  213.1370  149.2980 C   0  0  0  0  0  0  0  0  0  0  0  0
  160.2420  212.5940  147.2180 C   0  0  0  0  0  3  0  0  0  0  0  0
  159.7060  213.2330  148.2610 N   0  0  0  0  0  0  0  0  0  0  0  0
  158.6520  214.4200  149.9790 C   0  0  0  0  0  3  0  0  0  0  0  0
  158.5030  213.9850  148.5020 C   0  0  0  0  0  3  0  0  0  0  0  0
  158.3260  211.3760  155.8290 N   0  0  0  0  0  2  0  0  0  0  0  0
  157.2080  210.9290  155.1130 N   0  0  0  0  0  2  0  0  0  0  0  0
  156.0270  211.4020  155.8220 C   0  0  0  0  0  2  0  0  0  0  0  0
  155.1860  212.9930  154.1950 N   0  0  0  0  0  1  0  0  0  0  0  0
  155.7960  212.8710  155.5040 C   0  0  0  0  0  2  0  0  0  0  0  0
  159.7380  207.0770  153.9980 O   0  0  0  0  0  0  0  0  0  0  0  0
  159.5850  207.4150  155.3460 C   0  0  0  0  0  1  0  0  0  0  0  0
  162.3370  205.2130  151.0320 O   0  0  0  0  0  0  0  0  0  0  0  0
  161.5780  203.7740  145.8000 P   0  0  2  0  0  4  0  0  0  0  0  0
  162.0270  205.5200  148.3030 C   0  0  0  0  0  2  0  0  0  0  0  0
  160.7600  203.4580  151.3730 C   0  0  0  0  0  2  0  0  0  0  0  0
  159.4650  201.1150  148.6770 C   0  0  0  0  0  1  0  0  0  0  0  0
  160.6110  205.1660  146.2720 N   0  0  0  0  0  2  0  0  0  0  0  0
  160.4430  202.0490  149.3610 C   0  0  2  0  0  0  0  0  0  0  0  0
  161.8140  202.8050  147.3170 C   0  0  0  0  0  2  0  0  0  0  0  0
  160.7970  203.2050  148.4000 C   0  0  2  0  0  3  0  0  0  0  0  0
  161.4380  206.1160  147.0180 C   0  0  1  0  0  3  0  0  0  0  0  0
  161.0560  204.5960  149.0530 C   0  0  1  0  0  3  0  0  0  0  0  0
  161.5890  201.3290  149.7080 O   0  0  0  0  0  1  0  0  0  0  0  0
  159.7790  202.5770  150.6240 C   0  0  0  0  0  2  0  0  0  0  0  0
  161.1780  202.1590  146.3260 O   0  0  0  0  0  0  0  0  0  0  0  0
  161.1020  204.7250  150.5940 C   0  0  2  0  0  3  0  0  0  0  0  0
  162.9580  204.0420  145.2430 O   0  0  0  0  0  0  0  0  0  0  0  0
  160.6170  207.3470  147.3720 C   0  0  0  0  0  2  0  0  0  0  0  0
  161.2060  208.0730  148.5690 C   0  0  0  0  0  2  0  0  0  0  0  0
  162.3740  208.7350  148.1990 O   0  0  0  0  0  1  0  0  0  0  0  0
  1 30  1  6  0  0  0
  2  1  1  0  0  0  0
  3 32  1  6  0  0  0
  3  2  1  0  0  0  0
  3  5  1  0  0  0  0
  4  1  1  0  0  0  0
  5  4  1  0  0  0  0
  6  8  1  0  0  0  0
  8  7  2  6  0  0  0
  8  9  1  0  0  0  0
  8  4  1  0  0  0  0
 10  9  1  1  0  0  0
 10 15  1  0  0  0  0
 11 10  1  0  0  0  0
 12 25  1  1  0  0  0
 13 16  1  6  0  0  0
 13 15  1  0  0  0  0
 13 12  1  0  0  0  0
 14 11  2  0  0  0  0
 14 16  1  0  0  0  0
 15 12  1  0  0  0  0
 17 14  1  0  0  0  0
 18 19  1  0  0  0  0
 19 20  2  0  0  0  0
 20 17  1  0  0  0  0
 21 18  2  0  0  0  0
 21 22  1  0  0  0  0
 22 24  1  0  0  0  0
 22 20  1  0  0  0  0
 23 17  1  0  0  0  0
 24 23  2  0  0  0  0
 26 27  1  0  0  0  0
 26 25  1  0  0  0  0
 28 29  1  0  0  0  0
 29 27  1  0  0  0  0
 30 31  1  0  0  0  0
 33 37  1  0  0  0  0
 33 45  1  0  0  0  0
 34 42  1  0  0  0  0
 36 38  1  0  0  0  0
 37 41  1  0  0  0  0
 38 43  1  0  0  0  0
 38 44  1  0  0  0  0
 39 40  1  0  0  0  0
 40 42  1  0  0  0  0
 40 38  1  0  0  0  0
 41 48  1  0  0  0  0
 41 34  1  0  0  0  0
 42 46  1  0  0  0  0
 44 35  1  0  0  0  0
 45 39  1  0  0  0  0
 46 32  1  0  0  0  0
 46 35  1  0  0  0  0
 47 33  2  0  0  0  0
 48 49  1  0  0  0  0
 50 49  1  0  0  0  0
M  END
>  <MODEL>
5

>  <REMARK>
 VINA RESULT:      -2.9      1.742      3.533
  Name = 
  13 active torsions:
  status: ('A' for Active; 'I' for Inactive)
    1  A    between atoms: C_1  and  O_37
    2  A    between atoms: C_2  and  C_40
    3  A    between atoms: C_3  and  N_14
    4  A    between atoms: C_3  and  C_39
    5  A    between atoms: O_4  and  C_29
    6  A    between atoms: O_4  and  C_46
    7  A    between atoms: O_6  and  C_15
    8  A    between atoms: N_14  and  N_48
    9  A    between atoms: C_18  and  C_35
   10  A    between atoms: C_22  and  N_48
   11  A    between atoms: C_26  and  C_35
   12  A    between atoms: N_30  and  P_49
   13  A    between atoms: O_37  and  P_49
                            x       y       z     vdW  Elec       q    Type
                         _______ _______ _______ _____ _____    ______ ____

>  <TORSDO>
F 13

$$$$
=
 OpenBabel11072412073D

 50 56  0  0  1  0  0  0  0  0999 V2000
  161.6550  210.8840  148.4490 C   0  0  1  0  0  3  0  0  0  0  0  0
  160.7940  211.4270  149.5660 C   0  0  0  0  0  2  0  0  0  0  0  0
  161.5950  211.1670  150.8190 C   0  0  2  0  0  3  0  0  0  0  0  0
  162.5380  209.8550  149.0130 N   0  0  0  0  0  0  0  0  0  0  0  0
  162.7590  210.2820  150.3910 C   0  0  0  0  0  2  0  0  0  0  0  0
  160.4540  208.3690  149.8270 O   0  0  0  0  0  0  0  0  0  0  0  0
  162.7650  207.1540  149.8850 O   0  0  0  0  0  1  0  0  0  0  0  0
  161.7650  208.2640  149.0840 P   0  0  2  0  0  0  0  0  0  0  0  0
  161.4810  207.6880  147.4850 O   0  0  0  0  0  0  0  0  0  0  0  0
  161.2700  206.3410  147.1640 C   0  0  2  0  0  3  0  0  0  0  0  0
  161.5420  205.3450  148.0540 C   0  0  0  0  0  3  0  0  0  0  0  0
  161.7020  205.7250  144.8720 C   0  0  2  0  0  3  0  0  0  0  0  0
  161.0370  204.5900  145.5860 N   0  0  2  0  0  0  0  0  0  0  0  0
  161.4440  203.8800  147.7360 C   0  0  0  0  0  0  0  0  0  0  0  0
  160.7270  206.0260  145.7840 C   0  0  1  0  0  3  0  0  0  0  0  0
  161.2300  203.5050  146.4650 C   0  0  0  0  0  2  0  0  0  0  0  0
  161.7570  202.8910  148.8290 C   0  0  1  0  0  3  0  0  0  0  0  0
  160.8440  204.1480  152.1420 C   0  0  0  0  0  3  0  0  0  0  0  0
  161.6510  204.3630  151.0150 C   0  0  0  0  0  3  0  0  0  0  0  0
  161.3170  203.3250  150.1750 C   0  0  0  0  0  0  0  0  0  0  0  0
  160.0810  202.9990  151.9220 C   0  0  0  0  0  3  0  0  0  0  0  0
  160.4160  202.5440  150.7120 N   0  0  0  0  0  0  0  0  0  0  0  0
  160.9180  201.6030  148.6300 C   0  0  0  0  0  3  0  0  0  0  0  0
  160.0360  201.4270  149.8880 C   0  0  0  0  0  3  0  0  0  0  0  0
  161.1590  205.8340  143.5290 N   0  0  0  0  0  2  0  0  0  0  0  0
  162.2410  205.9590  142.6500 N   0  0  0  0  0  2  0  0  0  0  0  0
  161.7320  206.5600  141.4250 C   0  0  0  0  0  2  0  0  0  0  0  0
  162.1550  206.4920  139.0370 N   0  0  0  0  0  1  0  0  0  0  0  0
  162.7930  206.4760  140.3380 C   0  0  0  0  0  2  0  0  0  0  0  0
  160.8800  210.4110  147.3830 O   0  0  0  0  0  0  0  0  0  0  0  0
  160.5040  211.5570  146.6760 C   0  0  0  0  0  1  0  0  0  0  0  0
  160.8080  210.4750  151.7440 O   0  0  0  0  0  0  0  0  0  0  0  0
  156.7450  211.7940  155.1770 P   0  0  2  0  0  4  0  0  0  0  0  0
  158.6110  211.8390  152.7200 C   0  0  0  0  0  2  0  0  0  0  0  0
  161.9630  210.1440  153.8040 C   0  0  0  0  0  2  0  0  0  0  0  0
  160.3830  210.2900  157.2550 C   0  0  0  0  0  1  0  0  0  0  0  0
  157.6000  213.2030  154.5570 N   0  0  0  0  0  2  0  0  0  0  0  0
  160.4420  210.0760  155.7560 C   0  0  2  0  0  0  0  0  0  0  0  0
  157.9600  210.4450  155.1740 C   0  0  0  0  0  2  0  0  0  0  0  0
  159.3970  210.9860  155.0730 C   0  0  2  0  0  3  0  0  0  0  0  0
  157.7880  213.0740  153.1110 C   0  0  1  0  0  3  0  0  0  0  0  0
  159.7810  211.5530  153.6730 C   0  0  1  0  0  3  0  0  0  0  0  0
  160.1780  208.7320  155.4800 O   0  0  0  0  0  1  0  0  0  0  0  0
  161.8480  210.4190  155.2890 C   0  0  0  0  0  2  0  0  0  0  0  0
  157.4540  210.7480  156.3810 O   0  0  0  0  0  0  0  0  0  0  0  0
  161.0770  211.0740  152.9790 C   0  0  2  0  0  3  0  0  0  0  0  0
  155.5540  211.3010  154.3880 O   0  0  0  0  0  0  0  0  0  0  0  0
  158.4720  214.3190  152.5680 C   0  0  0  0  0  2  0  0  0  0  0  0
  159.3810  213.9790  151.4000 C   0  0  0  0  0  2  0  0  0  0  0  0
  158.7960  214.3870  150.2030 O   0  0  0  0  0  1  0  0  0  0  0  0
  1 30  1  6  0  0  0
  1  4  1  0  0  0  0
  1  2  1  0  0  0  0
  2  3  1  0  0  0  0
  3 32  1  1  0  0  0
  4  8  1  0  0  0  0
  4  5  1  0  0  0  0
  5  3  1  0  0  0  0
  8  6  2  1  0  0  0
  8  7  1  0  0  0  0
  9  8  1  0  0  0  0
 10  9  1  6  0  0  0
 10 11  1  0  0  0  0
 12 25  1  6  0  0  0
 12 13  1  0  0  0  0
 12 15  1  0  0  0  0
 13 15  1  0  0  0  0
 13 16  1  1  0  0  0
 14 11  2  0  0  0  0
 14 17  1  0  0  0  0
 15 10  1  0  0  0  0
 16 14  1  0  0  0  0
 17 20  1  0  0  0  0
 19 18  1  0  0  0  0
 20 22  1  0  0  0  0
 20 19  2  0  0  0  0
 21 18  2  0  0  0  0
 22 21  1  0  0  0  0
 23 17  1  0  0  0  0
 23 24  2  0  0  0  0
 24 22  1  0  0  0  0
 26 25  1  0  0  0  0
 27 26  1  0  0  0  0
 28 29  1  0  0  0  0
 29 27  1  0  0  0  0
 31 30  1  0  0  0  0
 32 46  1  0  0  0  0
 33 45  1  0  0  0  0
 34 41  1  0  0  0  0
 34 42  1  0  0  0  0
 35 44  1  0  0  0  0
 37 33  1  0  0  0  0
 38 36  1  0  0  0  0
 39 45  1  0  0  0  0
 40 39  1  0  0  0  0
 40 38  1  0  0  0  0
 41 37  1  0  0  0  0
 42 40  1  0  0  0  0
 43 38  1  0  0  0  0
 44 38  1  0  0  0  0
 46 42  1  0  0  0  0
 46 35  1  0  0  0  0
 47 33  2  0  0  0  0
 48 41  1  0  0  0  0
 49 48  1  0  0  0  0
 50 49  1  0  0  0  0
M  END
>  <MODEL>
6

>  <REMARK>
 VINA RESULT:      -2.7      3.163     10.859
  Name = 
  13 active torsions:
  status: ('A' for Active; 'I' for Inactive)
    1  A    between atoms: C_1  and  O_37
    2  A    between atoms: C_2  and  C_40
    3  A    between atoms: C_3  and  N_14
    4  A    between atoms: C_3  and  C_39
    5  A    between atoms: O_4  and  C_29
    6  A    between atoms: O_4  and  C_46
    7  A    between atoms: O_6  and  C_15
    8  A    between atoms: N_14  and  N_48
    9  A    between atoms: C_18  and  C_35
   10  A    between atoms: C_22  and  N_48
   11  A    between atoms: C_26  and  C_35
   12  A    between atoms: N_30  and  P_49
   13  A    between atoms: O_37  and  P_49
                            x       y       z     vdW  Elec       q    Type
                         _______ _______ _______ _____ _____    ______ ____

>  <TORSDO>
F 13

$$$$
=
 OpenBabel11072412073D

 50 56  0  0  1  0  0  0  0  0999 V2000
  160.7290  208.3110  155.4200 C   0  0  1  0  0  3  0  0  0  0  0  0
  160.8340  209.8160  155.5000 C   0  0  0  0  0  2  0  0  0  0  0  0
  159.7420  210.3190  154.5860 C   0  0  2  0  0  3  0  0  0  0  0  0
  160.1020  207.9650  154.1370 N   0  0  0  0  0  0  0  0  0  0  0  0
  159.2210  209.0920  153.8470 C   0  0  0  0  0  2  0  0  0  0  0  0
  161.9650  206.5320  152.8380 O   0  0  0  0  0  0  0  0  0  0  0  0
  162.4380  209.0960  152.9670 O   0  0  0  0  0  1  0  0  0  0  0  0
  161.2740  207.8740  152.8130 P   0  0  2  0  0  0  0  0  0  0  0  0
  160.4610  208.0800  151.3080 O   0  0  0  0  0  0  0  0  0  0  0  0
  161.0110  207.7310  150.0670 C   0  0  2  0  0  3  0  0  0  0  0  0
  161.3650  206.4460  149.7810 C   0  0  0  0  0  3  0  0  0  0  0  0
  162.4600  209.3740  149.0590 C   0  0  2  0  0  3  0  0  0  0  0  0
  162.1730  208.2800  148.0790 N   0  0  2  0  0  0  0  0  0  0  0  0
  162.0590  206.0250  148.5170 C   0  0  0  0  0  0  0  0  0  0  0  0
  161.2010  208.8370  149.0490 C   0  0  1  0  0  3  0  0  0  0  0  0
  162.5070  206.9700  147.6770 C   0  0  0  0  0  2  0  0  0  0  0  0
  162.3710  204.5630  148.3290 C   0  0  1  0  0  3  0  0  0  0  0  0
  160.8140  202.4690  150.8950 C   0  0  0  0  0  3  0  0  0  0  0  0
  161.7260  203.5090  150.6590 C   0  0  0  0  0  3  0  0  0  0  0  0
  161.6840  203.6720  149.2930 C   0  0  0  0  0  0  0  0  0  0  0  0
  160.2840  202.0640  149.6670 C   0  0  0  0  0  3  0  0  0  0  0  0
  160.8540  202.8310  148.7330 N   0  0  0  0  0  0  0  0  0  0  0  0
  161.7860  204.0680  146.9810 C   0  0  0  0  0  3  0  0  0  0  0  0
  160.7770  202.9410  147.3010 C   0  0  0  0  0  3  0  0  0  0  0  0
  162.4460  210.6530  148.3710 N   0  0  0  0  0  2  0  0  0  0  0  0
  161.9800  211.6110  149.2790 N   0  0  0  0  0  2  0  0  0  0  0  0
  161.6090  212.7890  148.5090 C   0  0  0  0  0  2  0  0  0  0  0  0
  162.3160  214.1100  146.5990 N   0  0  0  0  0  1  0  0  0  0  0  0
  162.7850  213.2250  147.6480 C   0  0  0  0  0  2  0  0  0  0  0  0
  161.9730  207.6960  155.6000 O   0  0  0  0  0  0  0  0  0  0  0  0
  162.4180  208.1470  156.8470 C   0  0  0  0  0  1  0  0  0  0  0  0
  160.2810  211.2170  153.6610 O   0  0  0  0  0  0  0  0  0  0  0  0
  155.3490  213.5980  153.4620 P   0  0  2  0  0  4  0  0  0  0  0  0
  158.0720  212.4620  152.5600 C   0  0  0  0  0  2  0  0  0  0  0  0
  160.3960  212.4420  155.7040 C   0  0  0  0  0  2  0  0  0  0  0  0
  157.5290  214.3890  157.2610 C   0  0  0  0  0  1  0  0  0  0  0  0
  156.5580  214.4520  152.5110 N   0  0  0  0  0  2  0  0  0  0  0  0
  158.1930  213.3140  156.4240 C   0  0  2  0  0  0  0  0  0  0  0  0
  156.2660  212.7840  154.8010 C   0  0  0  0  0  2  0  0  0  0  0  0
  157.6650  213.3990  154.9760 C   0  0  2  0  0  3  0  0  0  0  0  0
  157.3260  213.4980  151.7090 C   0  0  1  0  0  3  0  0  0  0  0  0
  158.6770  213.0430  153.8460 C   0  0  1  0  0  3  0  0  0  0  0  0
  157.9020  212.0650  156.9810 O   0  0  0  0  0  1  0  0  0  0  0  0
  159.6960  213.5460  156.4700 C   0  0  0  0  0  2  0  0  0  0  0  0
  155.3370  213.6670  155.2050 O   0  0  0  0  0  0  0  0  0  0  0  0
  160.0730  212.4860  154.2130 C   0  0  2  0  0  3  0  0  0  0  0  0
  154.5550  212.5150  152.7660 O   0  0  0  0  0  0  0  0  0  0  0  0
  158.3290  214.2430  150.8420 C   0  0  0  0  0  2  0  0  0  0  0  0
  158.2760  213.7590  149.4030 C   0  0  0  0  0  2  0  0  0  0  0  0
  156.9610  213.4730  149.0420 O   0  0  0  0  0  1  0  0  0  0  0  0
  1  2  1  0  0  0  0
  1 30  1  6  0  0  0
  3 32  1  6  0  0  0
  3  2  1  0  0  0  0
  4  1  1  0  0  0  0
  5  4  1  0  0  0  0
  5  3  1  0  0  0  0
  8  6  2  1  0  0  0
  8  7  1  0  0  0  0
  8  4  1  0  0  0  0
  9  8  1  0  0  0  0
 10  9  1  1  0  0  0
 11 10  1  0  0  0  0
 12 25  1  6  0  0  0
 13 16  1  1  0  0  0
 13 15  1  0  0  0  0
 13 12  1  0  0  0  0
 14 11  2  0  0  0  0
 15 12  1  0  0  0  0
 15 10  1  0  0  0  0
 16 14  1  0  0  0  0
 17 14  1  0  0  0  0
 17 20  1  0  0  0  0
 19 18  1  0  0  0  0
 20 19  2  0  0  0  0
 21 18  2  0  0  0  0
 22 20  1  0  0  0  0
 22 21  1  0  0  0  0
 23 24  2  0  0  0  0
 23 17  1  0  0  0  0
 24 22  1  0  0  0  0
 25 26  1  0  0  0  0
 27 26  1  0  0  0  0
 28 29  1  0  0  0  0
 29 27  1  0  0  0  0
 30 31  1  0  0  0  0
 32 46  1  0  0  0  0
 33 45  1  0  0  0  0
 34 42  1  0  0  0  0
 35 44  1  0  0  0  0
 37 33  1  0  0  0  0
 38 44  1  0  0  0  0
 38 43  1  0  0  0  0
 38 36  1  0  0  0  0
 39 40  1  0  0  0  0
 39 45  1  0  0  0  0
 40 38  1  0  0  0  0
 41 37  1  0  0  0  0
 41 34  1  0  0  0  0
 42 46  1  0  0  0  0
 42 40  1  0  0  0  0
 46 35  1  0  0  0  0
 47 33  2  0  0  0  0
 48 41  1  0  0  0  0
 49 48  1  0  0  0  0
 50 49  1  0  0  0  0
M  END
>  <MODEL>
7

>  <REMARK>
 VINA RESULT:      -2.4      3.214      9.943
  Name = 
  13 active torsions:
  status: ('A' for Active; 'I' for Inactive)
    1  A    between atoms: C_1  and  O_37
    2  A    between atoms: C_2  and  C_40
    3  A    between atoms: C_3  and  N_14
    4  A    between atoms: C_3  and  C_39
    5  A    between atoms: O_4  and  C_29
    6  A    between atoms: O_4  and  C_46
    7  A    between atoms: O_6  and  C_15
    8  A    between atoms: N_14  and  N_48
    9  A    between atoms: C_18  and  C_35
   10  A    between atoms: C_22  and  N_48
   11  A    between atoms: C_26  and  C_35
   12  A    between atoms: N_30  and  P_49
   13  A    between atoms: O_37  and  P_49
                            x       y       z     vdW  Elec       q    Type
                         _______ _______ _______ _____ _____    ______ ____

>  <TORSDO>
F 13

$$$$
=
 OpenBabel11072412073D

 50 56  0  0  1  0  0  0  0  0999 V2000
  162.1890  210.8890  149.5400 C   0  0  1  0  0  3  0  0  0  0  0  0
  161.2130  211.7190  150.3410 C   0  0  0  0  0  2  0  0  0  0  0  0
  161.6410  211.5250  151.7760 C   0  0  2  0  0  3  0  0  0  0  0  0
  162.7090  209.8290  150.4140 N   0  0  0  0  0  0  0  0  0  0  0  0
  162.6850  210.4140  151.7500 C   0  0  0  0  0  2  0  0  0  0  0  0
  160.9940  208.2250  149.1090 O   0  0  0  0  0  0  0  0  0  0  0  0
  160.4550  208.5930  151.6370 O   0  0  0  0  0  1  0  0  0  0  0  0
  161.6550  208.4070  150.4550 P   0  0  2  0  0  0  0  0  0  0  0  0
  162.5870  207.0090  150.8380 O   0  0  0  0  0  0  0  0  0  0  0  0
  162.0410  205.8110  151.3190 C   0  0  2  0  0  3  0  0  0  0  0  0
  161.4950  204.8880  150.4770 C   0  0  0  0  0  3  0  0  0  0  0  0
  160.9200  205.9490  153.4510 C   0  0  2  0  0  3  0  0  0  0  0  0
  161.0670  204.5150  153.0450 N   0  0  2  0  0  0  0  0  0  0  0  0
  160.7960  203.6400  150.9360 C   0  0  0  0  0  0  0  0  0  0  0  0
  162.0750  205.5770  152.8160 C   0  0  1  0  0  3  0  0  0  0  0  0
  160.5430  203.4810  152.2440 C   0  0  0  0  0  2  0  0  0  0  0  0
  160.2590  202.6990  149.8880 C   0  0  1  0  0  3  0  0  0  0  0  0
  161.2870  203.6510  146.5080 C   0  0  0  0  0  3  0  0  0  0  0  0
  160.5760  204.0540  147.6480 C   0  0  0  0  0  3  0  0  0  0  0  0
  160.7290  202.9960  148.5150 C   0  0  0  0  0  0  0  0  0  0  0  0
  161.8180  202.3810  146.7490 C   0  0  0  0  0  3  0  0  0  0  0  0
  161.4420  202.0380  147.9840 N   0  0  0  0  0  0  0  0  0  0  0  0
  160.8370  201.2780  150.1110 C   0  0  0  0  0  3  0  0  0  0  0  0
  161.6250  200.8940  148.8370 C   0  0  0  0  0  3  0  0  0  0  0  0
  161.1700  206.0740  154.8760 N   0  0  0  0  0  2  0  0  0  0  0  0
  160.1540  206.8760  155.4090 N   0  0  0  0  0  2  0  0  0  0  0  0
  160.7390  208.1790  155.6930 C   0  0  0  0  0  2  0  0  0  0  0  0
  162.3370  209.3110  157.1260 N   0  0  0  0  0  1  0  0  0  0  0  0
  161.5470  208.1040  156.9800 C   0  0  0  0  0  2  0  0  0  0  0  0
  161.6040  210.3910  148.3700 O   0  0  0  0  0  0  0  0  0  0  0  0
  160.9060  211.4750  147.8290 C   0  0  0  0  0  1  0  0  0  0  0  0
  160.5480  211.1110  152.5400 O   0  0  0  0  0  0  0  0  0  0  0  0
  155.4540  212.7180  153.7650 P   0  0  2  0  0  4  0  0  0  0  0  0
  158.0630  212.2660  152.1810 C   0  0  0  0  0  2  0  0  0  0  0  0
  160.9160  211.7600  154.8050 C   0  0  0  0  0  2  0  0  0  0  0  0
  158.2080  212.7940  157.2610 C   0  0  0  0  0  1  0  0  0  0  0  0
  156.3780  213.9580  152.9250 N   0  0  0  0  0  2  0  0  0  0  0  0
  158.8090  212.0830  156.0640 C   0  0  2  0  0  0  0  0  0  0  0  0
  156.6770  211.7230  154.6660 C   0  0  0  0  0  2  0  0  0  0  0  0
  158.0180  212.4680  154.7950 C   0  0  2  0  0  3  0  0  0  0  0  0
  157.0750  213.3690  151.7790 C   0  0  1  0  0  3  0  0  0  0  0  0
  158.8350  212.5710  153.4730 C   0  0  1  0  0  3  0  0  0  0  0  0
  158.7500  210.7040  156.2820 O   0  0  0  0  0  1  0  0  0  0  0  0
  160.2640  212.5120  155.9480 C   0  0  0  0  0  2  0  0  0  0  0  0
  155.7570  212.3250  155.4380 O   0  0  0  0  0  0  0  0  0  0  0  0
  160.3210  212.1460  153.4530 C   0  0  2  0  0  3  0  0  0  0  0  0
  154.6560  211.7520  152.9180 O   0  0  0  0  0  0  0  0  0  0  0  0
  157.8230  214.4530  151.0190 C   0  0  0  0  0  2  0  0  0  0  0  0
  157.4460  214.4490  149.5480 C   0  0  0  0  0  2  0  0  0  0  0  0
  158.0460  213.3700  148.9020 O   0  0  0  0  0  1  0  0  0  0  0  0
  1 30  1  6  0  0  0
  1  2  1  0  0  0  0
  1  4  1  0  0  0  0
  2  3  1  0  0  0  0
  3 32  1  1  0  0  0
  4  8  1  0  0  0  0
  4  5  1  0  0  0  0
  5  3  1  0  0  0  0
  8  6  2  6  0  0  0
  8  9  1  0  0  0  0
  8  7  1  0  0  0  0
 10  9  1  1  0  0  0
 10 15  1  0  0  0  0
 11 14  2  0  0  0  0
 11 10  1  0  0  0  0
 12 25  1  1  0  0  0
 13 16  1  6  0  0  0
 13 12  1  0  0  0  0
 14 16  1  0  0  0  0
 15 13  1  0  0  0  0
 15 12  1  0  0  0  0
 17 23  1  0  0  0  0
 17 14  1  0  0  0  0
 18 21  2  0  0  0  0
 18 19  1  0  0  0  0
 19 20  2  0  0  0  0
 20 17  1  0  0  0  0
 21 22  1  0  0  0  0
 22 20  1  0  0  0  0
 22 24  1  0  0  0  0
 24 23  2  0  0  0  0
 25 26  1  0  0  0  0
 26 27  1  0  0  0  0
 27 29  1  0  0  0  0
 29 28  1  0  0  0  0
 31 30  1  0  0  0  0
 32 46  1  0  0  0  0
 33 45  1  0  0  0  0
 34 42  1  0  0  0  0
 35 44  1  0  0  0  0
 37 33  1  0  0  0  0
 38 43  1  0  0  0  0
 38 36  1  0  0  0  0
 39 40  1  0  0  0  0
 39 45  1  0  0  0  0
 40 38  1  0  0  0  0
 41 34  1  0  0  0  0
 41 37  1  0  0  0  0
 42 40  1  0  0  0  0
 44 38  1  0  0  0  0
 46 42  1  0  0  0  0
 46 35  1  0  0  0  0
 47 33  2  0  0  0  0
 48 41  1  0  0  0  0
 49 48  1  0  0  0  0
 50 49  1  0  0  0  0
M  END
>  <MODEL>
8

>  <REMARK>
 VINA RESULT:      -2.3      2.827      9.607
  Name = 
  13 active torsions:
  status: ('A' for Active; 'I' for Inactive)
    1  A    between atoms: C_1  and  O_37
    2  A    between atoms: C_2  and  C_40
    3  A    between atoms: C_3  and  N_14
    4  A    between atoms: C_3  and  C_39
    5  A    between atoms: O_4  and  C_29
    6  A    between atoms: O_4  and  C_46
    7  A    between atoms: O_6  and  C_15
    8  A    between atoms: N_14  and  N_48
    9  A    between atoms: C_18  and  C_35
   10  A    between atoms: C_22  and  N_48
   11  A    between atoms: C_26  and  C_35
   12  A    between atoms: N_30  and  P_49
   13  A    between atoms: O_37  and  P_49
                            x       y       z     vdW  Elec       q    Type
                         _______ _______ _______ _____ _____    ______ ____

>  <TORSDO>
F 13

$$$$
=
 OpenBabel11072412073D

 50 56  0  0  1  0  0  0  0  0999 V2000
  162.1450  208.8730  148.3680 C   0  0  1  0  0  3  0  0  0  0  0  0
  162.7480  207.5810  147.8700 C   0  0  0  0  0  2  0  0  0  0  0  0
  161.6370  206.5680  148.0110 C   0  0  2  0  0  3  0  0  0  0  0  0
  161.0500  208.5410  149.2890 N   0  0  0  0  0  0  0  0  0  0  0  0
  160.5350  207.2670  148.7960 C   0  0  0  0  0  2  0  0  0  0  0  0
  162.8940  207.4540  150.9120 O   0  0  0  0  0  0  0  0  0  0  0  0
  160.4520  207.4160  151.8350 O   0  0  0  0  0  1  0  0  0  0  0  0
  161.6180  208.2620  150.9430 P   0  0  2  0  0  0  0  0  0  0  0  0
  161.9070  209.7750  151.7160 O   0  0  0  0  0  0  0  0  0  0  0  0
  160.8930  210.6250  152.1760 C   0  0  2  0  0  3  0  0  0  0  0  0
  160.4290  211.6580  151.4150 C   0  0  0  0  0  3  0  0  0  0  0  0
  160.9160  211.1070  154.5390 C   0  0  2  0  0  3  0  0  0  0  0  0
  159.6510  211.6240  153.9270 N   0  0  2  0  0  0  0  0  0  0  0  0
  159.4270  212.6690  151.8910 C   0  0  0  0  0  0  0  0  0  0  0  0
  160.3270  210.3580  153.5560 C   0  0  1  0  0  3  0  0  0  0  0  0
  159.0700  212.6720  153.1850 C   0  0  0  0  0  2  0  0  0  0  0  0
  158.9900  213.7460  150.9310 C   0  0  1  0  0  3  0  0  0  0  0  0
  161.3680  214.2060  148.1870 C   0  0  0  0  0  3  0  0  0  0  0  0
  161.1930  214.2680  149.5780 C   0  0  0  0  0  3  0  0  0  0  0  0
  159.8790  213.8990  149.7560 C   0  0  0  0  0  0  0  0  0  0  0  0
  160.1570  213.8120  147.6110 C   0  0  0  0  0  3  0  0  0  0  0  0
  159.2930  213.6440  148.6150 N   0  0  0  0  0  0  0  0  0  0  0  0
  157.6540  213.3410  150.2560 C   0  0  0  0  0  3  0  0  0  0  0  0
  157.9090  213.2670  148.7330 C   0  0  0  0  0  3  0  0  0  0  0  0
  160.6200  210.5230  155.8360 N   0  0  0  0  0  2  0  0  0  0  0  0
  161.3180  209.3120  155.9170 N   0  0  0  0  0  2  0  0  0  0  0  0
  160.8260  208.6100  157.0940 C   0  0  0  0  0  2  0  0  0  0  0  0
  159.3420  206.9520  156.1250 N   0  0  0  0  0  1  0  0  0  0  0  0
  160.6300  207.1380  156.7640 C   0  0  0  0  0  2  0  0  0  0  0  0
  163.1100  209.7040  148.9480 O   0  0  0  0  0  0  0  0  0  0  0  0
  162.7030  211.0040  148.6300 C   0  0  0  0  0  1  0  0  0  0  0  0
  162.0940  205.4680  148.7410 O   0  0  0  0  0  0  0  0  0  0  0  0
  161.2850  200.2880  147.1470 P   0  0  2  0  0  4  0  0  0  0  0  0
  161.5660  203.3580  147.0350 C   0  0  0  0  0  2  0  0  0  0  0  0
  160.8810  204.6970  150.6430 C   0  0  0  0  0  2  0  0  0  0  0  0
  159.8650  201.0940  151.2870 C   0  0  0  0  0  1  0  0  0  0  0  0
  160.1150  201.4050  146.4550 N   0  0  0  0  0  2  0  0  0  0  0  0
  160.6990  202.2290  150.7290 C   0  0  2  0  0  0  0  0  0  0  0  0
  161.7840  201.0200  148.7310 C   0  0  0  0  0  2  0  0  0  0  0  0
  160.7800  202.0910  149.1930 C   0  0  2  0  0  3  0  0  0  0  0  0
  160.8020  202.5940  145.9460 C   0  0  1  0  0  3  0  0  0  0  0  0
  160.8260  203.4190  148.3790 C   0  0  1  0  0  3  0  0  0  0  0  0
  161.9750  202.1730  151.2960 O   0  0  0  0  0  1  0  0  0  0  0  0
  160.0310  203.5380  151.1220 C   0  0  0  0  0  2  0  0  0  0  0  0
  161.2150  199.8070  148.8230 O   0  0  0  0  0  0  0  0  0  0  0  0
  160.9420  204.7710  149.1200 C   0  0  2  0  0  3  0  0  0  0  0  0
  162.5570  200.0430  146.3670 O   0  0  0  0  0  0  0  0  0  0  0  0
  159.7970  203.5300  145.2940 C   0  0  0  0  0  2  0  0  0  0  0  0
  160.4980  204.6360  144.5250 C   0  0  0  0  0  2  0  0  0  0  0  0
  160.0950  205.8820  145.0010 O   0  0  0  0  0  1  0  0  0  0  0  0
  1 30  1  1  0  0  0
  1  4  1  0  0  0  0
  2  3  1  0  0  0  0
  2  1  1  0  0  0  0
  3 32  1  1  0  0  0
  3  5  1  0  0  0  0
  4  8  1  0  0  0  0
  5  4  1  0  0  0  0
  8  6  2  6  0  0  0
  8  9  1  0  0  0  0
  8  7  1  0  0  0  0
 10  9  1  1  0  0  0
 10 15  1  0  0  0  0
 11 14  2  0  0  0  0
 11 10  1  0  0  0  0
 12 25  1  1  0  0  0
 13 16  1  6  0  0  0
 13 12  1  0  0  0  0
 14 16  1  0  0  0  0
 15 13  1  0  0  0  0
 15 12  1  0  0  0  0
 17 14  1  0  0  0  0
 18 19  1  0  0  0  0
 19 20  2  0  0  0  0
 20 17  1  0  0  0  0
 21 18  2  0  0  0  0
 21 22  1  0  0  0  0
 22 24  1  0  0  0  0
 22 20  1  0  0  0  0
 23 17  1  0  0  0  0
 24 23  2  0  0  0  0
 25 26  1  0  0  0  0
 26 27  1  0  0  0  0
 28 29  1  0  0  0  0
 29 27  1  0  0  0  0
 31 30  1  0  0  0  0
 32 46  1  0  0  0  0
 33 45  1  0  0  0  0
 34 42  1  0  0  0  0
 35 44  1  0  0  0  0
 37 33  1  0  0  0  0
 38 44  1  0  0  0  0
 38 36  1  0  0  0  0
 38 43  1  0  0  0  0
 39 45  1  0  0  0  0
 39 40  1  0  0  0  0
 40 38  1  0  0  0  0
 41 37  1  0  0  0  0
 41 34  1  0  0  0  0
 42 46  1  0  0  0  0
 42 40  1  0  0  0  0
 46 35  1  0  0  0  0
 47 33  2  0  0  0  0
 48 41  1  0  0  0  0
 49 50  1  0  0  0  0
 49 48  1  0  0  0  0
M  END
>  <MODEL>
9

>  <REMARK>
 VINA RESULT:      -1.9      1.645      3.821
  Name = 
  13 active torsions:
  status: ('A' for Active; 'I' for Inactive)
    1  A    between atoms: C_1  and  O_37
    2  A    between atoms: C_2  and  C_40
    3  A    between atoms: C_3  and  N_14
    4  A    between atoms: C_3  and  C_39
    5  A    between atoms: O_4  and  C_29
    6  A    between atoms: O_4  and  C_46
    7  A    between atoms: O_6  and  C_15
    8  A    between atoms: N_14  and  N_48
    9  A    between atoms: C_18  and  C_35
   10  A    between atoms: C_22  and  N_48
   11  A    between atoms: C_26  and  C_35
   12  A    between atoms: N_30  and  P_49
   13  A    between atoms: O_37  and  P_49
                            x       y       z     vdW  Elec       q    Type
                         _______ _______ _______ _____ _____    ______ ____

>  <TORSDO>
F 13

$$$$
