=
 OpenBabel11072413313D

 36 38  0  0  1  0  0  0  0  0999 V2000
  161.0230  212.3670  156.5680 O   0  0  0  0  0  0  0  0  0  0  0  0
  160.3160  210.4320  154.4570 O   0  0  0  0  0  0  0  0  0  0  0  0
  159.3600  211.2940  155.0110 C   0  0  1  0  0  3  0  0  0  0  0  0
  161.7840  210.0490  156.3340 C   0  0  2  0  0  3  0  0  0  0  0  0
  161.2660  211.1450  157.2610 C   0  0  0  0  0  2  0  0  0  0  0  0
  160.6380  209.5110  155.4640 C   0  0  2  0  0  3  0  0  0  0  0  0
  160.0290  212.5080  155.5940 C   0  0  0  0  0  0  0  0  0  0  0  0
  159.7300  213.6630  155.1970 O   0  0  0  0  0  0  0  0  0  0  0  0
  162.3160  209.0280  157.1220 O   0  0  0  0  0  1  0  0  0  0  0  0
  158.1690  211.5760  154.0630 C   0  0  1  0  0  0  0  0  0  0  0  0
  158.2780  211.9590  152.6140 C   0  0  2  0  0  3  0  0  0  0  0  0
  158.1210  210.6170  153.0280 O   0  0  0  0  0  0  0  0  0  0  0  0
  159.6720  212.2650  152.1170 C   0  0  0  0  0  0  0  0  0  0  0  0
  160.5200  211.3000  151.7810 C   0  0  0  0  0  2  0  0  0  0  0  0
  160.0680  213.5900  151.9030 O   0  0  0  0  0  0  0  0  0  0  0  0
  159.4690  214.4280  150.9200 C   0  0  0  0  0  2  0  0  0  0  0  0
  159.3360  213.7300  149.6910 O   0  0  0  0  0  0  0  0  0  0  0  0
  160.3140  213.7890  148.6990 C   0  0  0  0  0  0  0  0  0  0  0  0
  161.4770  214.1950  148.9620 O   0  0  0  0  0  1  0  0  0  0  0  0
  160.0020  213.3910  147.4070 O   0  0  0  0  0  0  0  0  0  0  0  0
  156.8040  211.7380  154.7540 C   0  0  1  0  0  3  0  0  0  0  0  0
  156.8020  211.0570  155.9730 O   0  0  0  0  0  1  0  0  0  0  0  0
  156.2390  213.6650  156.2420 O   0  0  0  0  0  1  0  0  0  0  0  0
  156.0580  213.8810  153.9690 O   0  0  0  0  0  0  0  0  0  0  0  0
  156.3610  213.1590  154.9550 C   0  0  0  0  0  0  0  0  0  0  0  0
  160.9830  208.1620  154.8330 C   0  0  0  0  0  2  0  0  0  0  0  0
  161.2270  208.2990  153.4360 O   0  0  0  0  0  0  0  0  0  0  0  0
  161.2250  207.4480  151.1820 C   0  0  0  0  0  3  0  0  0  0  0  0
  161.2330  207.2100  152.5600 C   0  0  0  0  0  0  0  0  0  0  0  0
  161.2240  206.3800  150.2770 C   0  0  0  0  0  0  0  0  0  0  0  0
  161.2330  203.9850  149.8740 O   0  0  0  0  0  1  0  0  0  0  0  0
  161.2510  204.8180  152.1320 C   0  0  0  0  0  3  0  0  0  0  0  0
  161.2490  205.8870  153.0310 C   0  0  0  0  0  3  0  0  0  0  0  0
  161.2360  205.0600  150.7560 C   0  0  0  0  0  0  0  0  0  0  0  0
  161.1870  206.8790  147.7300 N   0  0  0  0  0  0  0  0  0  0  0  0
  161.2030  206.6570  148.8660 C   0  0  0  0  0  0  0  0  0  0  0  0
  1  5  1  0  0  0  0
  2  6  1  0  0  0  0
  3  2  1  6  0  0  0
  3  7  1  0  0  0  0
  4  9  1  1  0  0  0
  4  5  1  0  0  0  0
  6 26  1  6  0  0  0
  6  4  1  0  0  0  0
  7  1  1  0  0  0  0
  8  7  2  0  0  0  0
 10 21  1  1  0  0  0
 10  3  1  0  0  0  0
 11 13  1  1  0  0  0
 11 12  1  0  0  0  0
 11 10  1  0  0  0  0
 12 10  1  0  0  0  0
 14 13  2  0  0  0  0
 15 13  1  0  0  0  0
 16 15  1  0  0  0  0
 17 16  1  0  0  0  0
 18 19  1  0  0  0  0
 18 17  1  0  0  0  0
 20 18  2  0  0  0  0
 21 25  1  0  0  0  0
 21 22  1  1  0  0  0
 24 25  2  0  0  0  0
 25 23  1  0  0  0  0
 27 26  1  0  0  0  0
 28 29  1  0  0  0  0
 29 33  2  0  0  0  0
 29 27  1  0  0  0  0
 30 34  1  0  0  0  0
 30 28  2  0  0  0  0
 31 34  1  0  0  0  0
 32 33  1  0  0  0  0
 34 32  2  0  0  0  0
 35 36  3  0  0  0  0
 36 30  1  0  0  0  0
M  END
>  <MODEL>
1

>  <REMARK>
 VINA RESULT:      -5.5      0.000      0.000
  Name = 
  12 active torsions:
  status: ('A' for Active; 'I' for Inactive)
    1  A    between atoms: C_3  and  C_9
    2  A    between atoms: C_3  and  C_13
    3  A    between atoms: C_4  and  O_35
    4  A    between atoms: C_7  and  O_30
    5  A    between atoms: C_10  and  O_12
    6  A    between atoms: C_10  and  C_24
    7  A    between atoms: C_11  and  C_28
    8  A    between atoms: O_12  and  C_36
    9  A    between atoms: C_13  and  C_25
   10  A    between atoms: C_20  and  C_23
   11  A    between atoms: C_23  and  O_30
   12  A    between atoms: O_35  and  C_36
                            x       y       z     vdW  Elec       q    Type
                         _______ _______ _______ _____ _____    ______ ____

>  <TORSDO>
F 12

$$$$
=
 OpenBabel11072413313D

 36 38  0  0  1  0  0  0  0  0999 V2000
  161.1300  202.0830  148.9360 O   0  0  0  0  0  0  0  0  0  0  0  0
  160.3450  204.9060  149.2800 O   0  0  0  0  0  0  0  0  0  0  0  0
  161.3460  204.5290  148.3740 C   0  0  1  0  0  3  0  0  0  0  0  0
  160.6080  203.2570  151.0240 C   0  0  2  0  0  3  0  0  0  0  0  0
  161.5310  202.2880  150.2890 C   0  0  0  0  0  2  0  0  0  0  0  0
  160.8800  204.6960  150.5590 C   0  0  2  0  0  3  0  0  0  0  0  0
  161.1650  203.0920  147.9680 C   0  0  0  0  0  0  0  0  0  0  0  0
  161.0140  202.7770  146.7600 O   0  0  0  0  0  0  0  0  0  0  0  0
  160.8510  203.1350  152.3930 O   0  0  0  0  0  1  0  0  0  0  0  0
  161.5300  205.5360  147.2130 C   0  0  1  0  0  0  0  0  0  0  0  0
  162.0800  206.9280  147.3430 C   0  0  2  0  0  3  0  0  0  0  0  0
  162.8980  205.8230  147.0180 O   0  0  0  0  0  0  0  0  0  0  0  0
  162.2900  207.4240  148.7550 C   0  0  0  0  0  0  0  0  0  0  0  0
  163.2780  206.9660  149.5150 C   0  0  0  0  0  2  0  0  0  0  0  0
  161.4980  208.4600  149.2630 O   0  0  0  0  0  0  0  0  0  0  0  0
  162.0110  209.7580  149.5460 C   0  0  0  0  0  2  0  0  0  0  0  0
  161.9170  210.5860  148.3970 O   0  0  0  0  0  0  0  0  0  0  0  0
  162.1940  211.9530  148.4480 C   0  0  0  0  0  0  0  0  0  0  0  0
  161.3500  212.7660  148.9090 O   0  0  0  0  0  1  0  0  0  0  0  0
  163.4180  212.4190  147.9890 O   0  0  0  0  0  0  0  0  0  0  0  0
  160.8330  205.1520  145.8960 C   0  0  1  0  0  3  0  0  0  0  0  0
  159.8520  206.0950  145.5820 O   0  0  0  0  0  1  0  0  0  0  0  0
  162.8980  204.1840  144.8740 O   0  0  0  0  0  1  0  0  0  0  0  0
  161.5190  205.5200  143.6240 O   0  0  0  0  0  0  0  0  0  0  0  0
  161.7540  204.9550  144.7260 C   0  0  0  0  0  0  0  0  0  0  0  0
  160.3080  205.7290  151.5300 C   0  0  0  0  0  2  0  0  0  0  0  0
  161.3320  206.2800  152.3510 O   0  0  0  0  0  0  0  0  0  0  0  0
  160.8450  208.6230  152.6380 C   0  0  0  0  0  3  0  0  0  0  0  0
  161.1150  207.3710  153.1990 C   0  0  0  0  0  0  0  0  0  0  0  0
  160.6300  209.7370  153.4570 C   0  0  0  0  0  0  0  0  0  0  0  0
  160.4740  210.6900  155.6860 O   0  0  0  0  0  1  0  0  0  0  0  0
  160.9450  208.3450  155.4180 C   0  0  0  0  0  3  0  0  0  0  0  0
  161.1620  207.2370  154.5960 C   0  0  0  0  0  3  0  0  0  0  0  0
  160.6820  209.5960  154.8540 C   0  0  0  0  0  0  0  0  0  0  0  0
  160.1550  212.0420  152.3630 N   0  0  0  0  0  0  0  0  0  0  0  0
  160.3660  211.0140  152.8510 C   0  0  0  0  0  0  0  0  0  0  0  0
  1  5  1  0  0  0  0
  2  6  1  0  0  0  0
  3  7  1  6  0  0  0
  3  2  1  0  0  0  0
  4  9  1  1  0  0  0
  5  4  1  0  0  0  0
  6  4  1  0  0  0  0
  6 26  1  1  0  0  0
  7  1  1  0  0  0  0
  8  7  2  0  0  0  0
 10 21  1  6  0  0  0
 10 11  1  0  0  0  0
 10  3  1  0  0  0  0
 11 13  1  1  0  0  0
 12 10  1  0  0  0  0
 12 11  1  0  0  0  0
 13 15  1  0  0  0  0
 13 14  2  0  0  0  0
 15 16  1  0  0  0  0
 17 18  1  0  0  0  0
 17 16  1  0  0  0  0
 18 19  1  0  0  0  0
 20 18  2  0  0  0  0
 21 22  1  6  0  0  0
 24 25  2  0  0  0  0
 25 23  1  0  0  0  0
 25 21  1  0  0  0  0
 26 27  1  0  0  0  0
 27 29  1  0  0  0  0
 28 29  2  0  0  0  0
 28 30  1  0  0  0  0
 29 33  1  0  0  0  0
 30 34  2  0  0  0  0
 33 32  2  0  0  0  0
 34 32  1  0  0  0  0
 34 31  1  0  0  0  0
 35 36  3  0  0  0  0
 36 30  1  0  0  0  0
M  END
>  <MODEL>
2

>  <REMARK>
 VINA RESULT:      -5.5      3.029      8.524
  Name = 
  12 active torsions:
  status: ('A' for Active; 'I' for Inactive)
    1  A    between atoms: C_3  and  C_9
    2  A    between atoms: C_3  and  C_13
    3  A    between atoms: C_4  and  O_35
    4  A    between atoms: C_7  and  O_30
    5  A    between atoms: C_10  and  O_12
    6  A    between atoms: C_10  and  C_24
    7  A    between atoms: C_11  and  C_28
    8  A    between atoms: O_12  and  C_36
    9  A    between atoms: C_13  and  C_25
   10  A    between atoms: C_20  and  C_23
   11  A    between atoms: C_23  and  O_30
   12  A    between atoms: O_35  and  C_36
                            x       y       z     vdW  Elec       q    Type
                         _______ _______ _______ _____ _____    ______ ____

>  <TORSDO>
F 12

$$$$
=
 OpenBabel11072413313D

 36 38  0  0  1  0  0  0  0  0999 V2000
  159.5300  213.1810  150.4740 O   0  0  0  0  0  0  0  0  0  0  0  0
  160.0240  210.6770  151.9540 O   0  0  0  0  0  0  0  0  0  0  0  0
  159.8170  211.8930  152.6200 C   0  0  1  0  0  3  0  0  0  0  0  0
  161.1250  211.4010  149.9310 C   0  0  2  0  0  3  0  0  0  0  0  0
  160.8600  212.9000  150.0470 C   0  0  0  0  0  2  0  0  0  0  0  0
  161.2750  210.7840  151.3300 C   0  0  2  0  0  3  0  0  0  0  0  0
  159.0470  212.8420  151.7420 C   0  0  0  0  0  0  0  0  0  0  0  0
  157.9470  213.3210  152.1200 O   0  0  0  0  0  0  0  0  0  0  0  0
  162.2960  211.2220  149.1930 O   0  0  0  0  0  1  0  0  0  0  0  0
  159.2710  211.7170  154.0580 C   0  0  1  0  0  0  0  0  0  0  0  0
  159.9500  210.9580  155.1620 C   0  0  2  0  0  3  0  0  0  0  0  0
  160.1220  212.3500  154.9910 O   0  0  0  0  0  0  0  0  0  0  0  0
  161.1680  210.1580  154.7600 C   0  0  0  0  0  0  0  0  0  0  0  0
  162.3990  210.6150  154.9590 C   0  0  0  0  0  2  0  0  0  0  0  0
  161.0240  208.8620  154.2540 O   0  0  0  0  0  0  0  0  0  0  0  0
  161.1630  207.6970  155.0610 C   0  0  0  0  0  2  0  0  0  0  0  0
  160.6160  206.5680  154.3970 O   0  0  0  0  0  0  0  0  0  0  0  0
  161.3520  205.8260  153.4730 C   0  0  0  0  0  0  0  0  0  0  0  0
  160.9400  204.7060  153.0690 O   0  0  0  0  0  1  0  0  0  0  0  0
  162.5520  206.3310  152.9920 O   0  0  0  0  0  0  0  0  0  0  0  0
  157.8020  212.1250  154.2560 C   0  0  1  0  0  3  0  0  0  0  0  0
  157.0110  210.9890  154.4390 O   0  0  0  0  0  1  0  0  0  0  0  0
  157.9370  214.4330  155.2060 O   0  0  0  0  0  0  0  0  0  0  0  0
  157.0600  212.7270  156.4590 O   0  0  0  0  0  1  0  0  0  0  0  0
  157.5610  213.1070  155.3670 C   0  0  0  0  0  0  0  0  0  0  0  0
  161.9420  209.4100  151.2820 C   0  0  0  0  0  2  0  0  0  0  0  0
  161.0160  208.4070  150.8760 O   0  0  0  0  0  0  0  0  0  0  0  0
  160.9350  206.1640  149.9980 C   0  0  0  0  0  3  0  0  0  0  0  0
  161.2820  207.5090  149.8380 C   0  0  0  0  0  0  0  0  0  0  0  0
  161.1930  205.2380  148.9820 C   0  0  0  0  0  0  0  0  0  0  0  0
  162.0680  204.7570  146.7680 O   0  0  0  0  0  1  0  0  0  0  0  0
  162.1430  207.0060  147.6220 C   0  0  0  0  0  3  0  0  0  0  0  0
  161.8860  207.9270  148.6410 C   0  0  0  0  0  3  0  0  0  0  0  0
  161.8010  205.6610  147.7890 C   0  0  0  0  0  0  0  0  0  0  0  0
  160.5470  202.7490  149.3420 N   0  0  0  0  0  0  0  0  0  0  0  0
  160.8350  203.8590  149.1820 C   0  0  0  0  0  0  0  0  0  0  0  0
  1  7  1  0  0  0  0
  2  3  1  0  0  0  0
  3  7  1  6  0  0  0
  3 10  1  0  0  0  0
  4  9  1  6  0  0  0
  4  5  1  0  0  0  0
  4  6  1  0  0  0  0
  5  1  1  0  0  0  0
  6 26  1  6  0  0  0
  6  2  1  0  0  0  0
  7  8  2  0  0  0  0
 10 21  1  1  0  0  0
 10 12  1  0  0  0  0
 10 11  1  0  0  0  0
 11 13  1  6  0  0  0
 12 11  1  0  0  0  0
 13 14  2  0  0  0  0
 15 13  1  0  0  0  0
 15 16  1  0  0  0  0
 17 16  1  0  0  0  0
 18 17  1  0  0  0  0
 19 18  1  0  0  0  0
 20 18  2  0  0  0  0
 21 22  1  1  0  0  0
 21 25  1  0  0  0  0
 23 25  2  0  0  0  0
 25 24  1  0  0  0  0
 27 26  1  0  0  0  0
 29 28  1  0  0  0  0
 29 27  1  0  0  0  0
 30 36  1  0  0  0  0
 30 28  2  0  0  0  0
 31 34  1  0  0  0  0
 32 34  2  0  0  0  0
 32 33  1  0  0  0  0
 33 29  2  0  0  0  0
 34 30  1  0  0  0  0
 36 35  3  0  0  0  0
M  END
>  <MODEL>
3

>  <REMARK>
 VINA RESULT:      -5.4      1.867      5.056
  Name = 
  12 active torsions:
  status: ('A' for Active; 'I' for Inactive)
    1  A    between atoms: C_3  and  C_9
    2  A    between atoms: C_3  and  C_13
    3  A    between atoms: C_4  and  O_35
    4  A    between atoms: C_7  and  O_30
    5  A    between atoms: C_10  and  O_12
    6  A    between atoms: C_10  and  C_24
    7  A    between atoms: C_11  and  C_28
    8  A    between atoms: O_12  and  C_36
    9  A    between atoms: C_13  and  C_25
   10  A    between atoms: C_20  and  C_23
   11  A    between atoms: C_23  and  O_30
   12  A    between atoms: O_35  and  C_36
                            x       y       z     vdW  Elec       q    Type
                         _______ _______ _______ _____ _____    ______ ____

>  <TORSDO>
F 12

$$$$
=
 OpenBabel11072413313D

 36 38  0  0  1  0  0  0  0  0999 V2000
  159.1010  213.3910  151.7220 O   0  0  0  0  0  0  0  0  0  0  0  0
  158.7950  210.8080  153.1130 O   0  0  0  0  0  0  0  0  0  0  0  0
  158.7290  212.0250  153.8050 C   0  0  1  0  0  3  0  0  0  0  0  0
  160.3640  211.3240  151.3530 C   0  0  2  0  0  3  0  0  0  0  0  0
  160.3990  212.8410  151.5100 C   0  0  0  0  0  2  0  0  0  0  0  0
  160.1320  210.6590  152.7180 C   0  0  2  0  0  3  0  0  0  0  0  0
  158.3410  213.1360  152.8670 C   0  0  0  0  0  0  0  0  0  0  0  0
  157.3140  213.8310  153.0810 O   0  0  0  0  0  0  0  0  0  0  0  0
  161.5850  210.9140  150.8150 O   0  0  0  0  0  1  0  0  0  0  0  0
  157.9110  211.9390  155.1160 C   0  0  1  0  0  0  0  0  0  0  0  0
  158.4780  211.6710  156.4820 C   0  0  2  0  0  3  0  0  0  0  0  0
  158.2740  212.9830  155.9960 O   0  0  0  0  0  0  0  0  0  0  0  0
  159.9360  211.2760  156.5240 C   0  0  0  0  0  0  0  0  0  0  0  0
  160.8860  212.1480  156.8430 C   0  0  0  0  0  2  0  0  0  0  0  0
  160.3110  209.9430  156.3220 O   0  0  0  0  0  0  0  0  0  0  0  0
  161.6690  209.5310  156.2010 C   0  0  0  0  0  2  0  0  0  0  0  0
  161.7620  208.1160  156.2540 O   0  0  0  0  0  0  0  0  0  0  0  0
  160.6310  207.3000  156.2040 C   0  0  0  0  0  0  0  0  0  0  0  0
  160.0340  206.9580  157.2590 O   0  0  0  0  0  1  0  0  0  0  0  0
  160.1580  206.8630  154.9750 O   0  0  0  0  0  0  0  0  0  0  0  0
  156.3870  211.8500  154.9350 C   0  0  1  0  0  3  0  0  0  0  0  0
  155.9780  210.5160  154.9740 O   0  0  0  0  0  1  0  0  0  0  0  0
  155.0930  212.0710  157.0610 O   0  0  0  0  0  1  0  0  0  0  0  0
  155.3160  213.8720  155.6640 O   0  0  0  0  0  0  0  0  0  0  0  0
  155.5840  212.6660  155.9080 C   0  0  0  0  0  0  0  0  0  0  0  0
  160.4990  209.1740  152.7020 C   0  0  0  0  0  2  0  0  0  0  0  0
  161.2100  208.8370  151.5150 O   0  0  0  0  0  0  0  0  0  0  0  0
  161.0240  207.4840  149.5300 C   0  0  0  0  0  3  0  0  0  0  0  0
  161.1310  207.5740  150.9210 C   0  0  0  0  0  0  0  0  0  0  0  0
  160.9370  206.2360  148.9040 C   0  0  0  0  0  0  0  0  0  0  0  0
  160.8750  203.8130  149.0760 O   0  0  0  0  0  1  0  0  0  0  0  0
  161.0770  205.1500  151.0680 C   0  0  0  0  0  3  0  0  0  0  0  0
  161.1600  206.3980  151.6880 C   0  0  0  0  0  3  0  0  0  0  0  0
  160.9630  205.0630  149.6770 C   0  0  0  0  0  0  0  0  0  0  0  0
  160.7150  206.1280  146.3200 N   0  0  0  0  0  0  0  0  0  0  0  0
  160.8150  206.1760  147.4720 C   0  0  0  0  0  0  0  0  0  0  0  0
  1  7  1  0  0  0  0
  2  3  1  0  0  0  0
  3  7  1  6  0  0  0
  3 10  1  0  0  0  0
  4  9  1  1  0  0  0
  4  5  1  0  0  0  0
  4  6  1  0  0  0  0
  5  1  1  0  0  0  0
  6 26  1  6  0  0  0
  6  2  1  0  0  0  0
  7  8  2  0  0  0  0
 10 21  1  6  0  0  0
 10 12  1  0  0  0  0
 10 11  1  0  0  0  0
 11 13  1  6  0  0  0
 12 11  1  0  0  0  0
 13 14  2  0  0  0  0
 15 13  1  0  0  0  0
 16 17  1  0  0  0  0
 16 15  1  0  0  0  0
 18 17  1  0  0  0  0
 18 19  1  0  0  0  0
 20 18  2  0  0  0  0
 21 22  1  1  0  0  0
 21 25  1  0  0  0  0
 24 25  2  0  0  0  0
 25 23  1  0  0  0  0
 27 26  1  0  0  0  0
 28 29  1  0  0  0  0
 29 27  1  0  0  0  0
 29 33  2  0  0  0  0
 30 28  2  0  0  0  0
 30 34  1  0  0  0  0
 31 34  1  0  0  0  0
 32 33  1  0  0  0  0
 34 32  2  0  0  0  0
 35 36  3  0  0  0  0
 36 30  1  0  0  0  0
M  END
>  <MODEL>
4

>  <REMARK>
 VINA RESULT:      -5.3      1.694      4.665
  Name = 
  12 active torsions:
  status: ('A' for Active; 'I' for Inactive)
    1  A    between atoms: C_3  and  C_9
    2  A    between atoms: C_3  and  C_13
    3  A    between atoms: C_4  and  O_35
    4  A    between atoms: C_7  and  O_30
    5  A    between atoms: C_10  and  O_12
    6  A    between atoms: C_10  and  C_24
    7  A    between atoms: C_11  and  C_28
    8  A    between atoms: O_12  and  C_36
    9  A    between atoms: C_13  and  C_25
   10  A    between atoms: C_20  and  C_23
   11  A    between atoms: C_23  and  O_30
   12  A    between atoms: O_35  and  C_36
                            x       y       z     vdW  Elec       q    Type
                         _______ _______ _______ _____ _____    ______ ____

>  <TORSDO>
F 12

$$$$
=
 OpenBabel11072413313D

 36 38  0  0  1  0  0  0  0  0999 V2000
  160.8090  207.5570  155.9200 O   0  0  0  0  0  0  0  0  0  0  0  0
  161.4170  208.5360  153.2040 O   0  0  0  0  0  0  0  0  0  0  0  0
  160.4060  209.1150  153.9820 C   0  0  1  0  0  3  0  0  0  0  0  0
  161.3410  206.2340  153.9270 C   0  0  2  0  0  3  0  0  0  0  0  0
  160.4550  206.4060  155.1570 C   0  0  0  0  0  2  0  0  0  0  0  0
  160.9530  207.2600  152.8520 C   0  0  2  0  0  3  0  0  0  0  0  0
  160.6640  208.8640  155.4430 C   0  0  0  0  0  0  0  0  0  0  0  0
  160.7840  209.8210  156.2500 O   0  0  0  0  0  0  0  0  0  0  0  0
  161.1670  204.9360  153.4440 O   0  0  0  0  0  1  0  0  0  0  0  0
  160.1040  210.5840  153.5980 C   0  0  1  0  0  0  0  0  0  0  0  0
  160.6190  211.2890  152.3750 C   0  0  2  0  0  3  0  0  0  0  0  0
  159.3640  210.6400  152.3970 O   0  0  0  0  0  0  0  0  0  0  0  0
  161.6580  210.5420  151.5720 C   0  0  0  0  0  0  0  0  0  0  0  0
  162.9050  210.3970  152.0070 C   0  0  0  0  0  2  0  0  0  0  0  0
  161.2990  209.8930  150.3860 O   0  0  0  0  0  0  0  0  0  0  0  0
  162.1610  209.8130  149.2550 C   0  0  0  0  0  2  0  0  0  0  0  0
  161.8150  210.8030  148.2990 O   0  0  0  0  0  0  0  0  0  0  0  0
  162.2590  212.1210  148.4080 C   0  0  0  0  0  0  0  0  0  0  0  0
  163.4120  212.4480  148.0190 O   0  0  0  0  0  0  0  0  0  0  0  0
  161.4180  213.0840  148.9470 O   0  0  0  0  0  1  0  0  0  0  0  0
  159.4590  211.4330  154.7060 C   0  0  1  0  0  3  0  0  0  0  0  0
  160.0060  212.7170  154.7040 O   0  0  0  0  0  1  0  0  0  0  0  0
  157.3480  212.5180  153.9220 O   0  0  0  0  0  0  0  0  0  0  0  0
  157.2540  210.6930  155.3040 O   0  0  0  0  0  1  0  0  0  0  0  0
  157.9600  211.5090  154.6540 C   0  0  0  0  0  0  0  0  0  0  0  0
  161.4960  206.8800  151.4740 C   0  0  0  0  0  2  0  0  0  0  0  0
  160.5610  206.0790  150.7600 O   0  0  0  0  0  0  0  0  0  0  0  0
  160.8720  204.0480  149.5000 C   0  0  0  0  0  3  0  0  0  0  0  0
  160.8750  205.4450  149.5540 C   0  0  0  0  0  0  0  0  0  0  0  0
  161.1880  203.3820  148.3110 C   0  0  0  0  0  0  0  0  0  0  0  0
  161.8250  203.4810  145.9690 O   0  0  0  0  0  1  0  0  0  0  0  0
  161.5020  205.5190  147.2080 C   0  0  0  0  0  3  0  0  0  0  0  0
  161.1890  206.1790  148.3980 C   0  0  0  0  0  3  0  0  0  0  0  0
  161.5060  204.1220  147.1600 C   0  0  0  0  0  0  0  0  0  0  0  0
  161.1890  200.7870  148.2760 N   0  0  0  0  0  0  0  0  0  0  0  0
  161.1890  201.9440  148.2910 C   0  0  0  0  0  0  0  0  0  0  0  0
  3  2  1  6  0  0  0
  3  7  1  0  0  0  0
  4  9  1  6  0  0  0
  4  5  1  0  0  0  0
  5  1  1  0  0  0  0
  6 26  1  6  0  0  0
  6  2  1  0  0  0  0
  6  4  1  0  0  0  0
  7  1  1  0  0  0  0
  7  8  2  0  0  0  0
 10  3  1  0  0  0  0
 10 21  1  1  0  0  0
 11 13  1  6  0  0  0
 11 12  1  0  0  0  0
 11 10  1  0  0  0  0
 12 10  1  0  0  0  0
 13 14  2  0  0  0  0
 15 13  1  0  0  0  0
 16 15  1  0  0  0  0
 17 18  1  0  0  0  0
 17 16  1  0  0  0  0
 18 20  1  0  0  0  0
 19 18  2  0  0  0  0
 21 22  1  6  0  0  0
 23 25  2  0  0  0  0
 25 21  1  0  0  0  0
 25 24  1  0  0  0  0
 27 26  1  0  0  0  0
 28 29  1  0  0  0  0
 29 27  1  0  0  0  0
 30 28  2  0  0  0  0
 31 34  1  0  0  0  0
 32 33  1  0  0  0  0
 33 29  2  0  0  0  0
 34 32  2  0  0  0  0
 34 30  1  0  0  0  0
 35 36  3  0  0  0  0
 36 30  1  0  0  0  0
M  END
>  <MODEL>
5

>  <REMARK>
 VINA RESULT:      -5.0      2.348      3.801
  Name = 
  12 active torsions:
  status: ('A' for Active; 'I' for Inactive)
    1  A    between atoms: C_3  and  C_9
    2  A    between atoms: C_3  and  C_13
    3  A    between atoms: C_4  and  O_35
    4  A    between atoms: C_7  and  O_30
    5  A    between atoms: C_10  and  O_12
    6  A    between atoms: C_10  and  C_24
    7  A    between atoms: C_11  and  C_28
    8  A    between atoms: O_12  and  C_36
    9  A    between atoms: C_13  and  C_25
   10  A    between atoms: C_20  and  C_23
   11  A    between atoms: C_23  and  O_30
   12  A    between atoms: O_35  and  C_36
                            x       y       z     vdW  Elec       q    Type
                         _______ _______ _______ _____ _____    ______ ____

>  <TORSDO>
F 12

$$$$
=
 OpenBabel11072413313D

 36 38  0  0  1  0  0  0  0  0999 V2000
  161.2120  211.7120  150.8440 O   0  0  0  0  0  0  0  0  0  0  0  0
  159.9190  209.6350  152.4920 O   0  0  0  0  0  0  0  0  0  0  0  0
  160.3170  210.8620  153.0390 C   0  0  1  0  0  3  0  0  0  0  0  0
  161.5880  209.2910  150.7820 C   0  0  2  0  0  3  0  0  0  0  0  0
  162.2010  210.6880  150.7720 C   0  0  0  0  0  2  0  0  0  0  0  0
  161.1010  208.9400  152.1960 C   0  0  2  0  0  3  0  0  0  0  0  0
  160.3980  211.9100  151.9630 C   0  0  0  0  0  0  0  0  0  0  0  0
  159.7150  212.9640  152.0370 O   0  0  0  0  0  0  0  0  0  0  0  0
  162.5640  208.3840  150.3660 O   0  0  0  0  0  1  0  0  0  0  0  0
  159.5130  211.2580  154.3010 C   0  0  1  0  0  0  0  0  0  0  0  0
  160.0270  211.2160  155.7130 C   0  0  2  0  0  3  0  0  0  0  0  0
  160.0900  212.3860  154.9230 O   0  0  0  0  0  0  0  0  0  0  0  0
  161.3750  210.5590  155.9030 C   0  0  0  0  0  0  0  0  0  0  0  0
  162.3530  210.7030  155.0170 C   0  0  0  0  0  2  0  0  0  0  0  0
  161.6560  209.8580  157.0810 O   0  0  0  0  0  0  0  0  0  0  0  0
  161.9140  208.4570  157.1060 C   0  0  0  0  0  2  0  0  0  0  0  0
  160.6980  207.7340  157.2200 O   0  0  0  0  0  0  0  0  0  0  0  0
  160.1240  207.0780  156.1310 C   0  0  0  0  0  0  0  0  0  0  0  0
  160.8430  206.5860  155.2210 O   0  0  0  0  0  0  0  0  0  0  0  0
  158.7430  206.9630  156.0530 O   0  0  0  0  0  1  0  0  0  0  0  0
  158.0000  211.4350  154.0870 C   0  0  1  0  0  3  0  0  0  0  0  0
  157.3010  210.4380  154.7700 O   0  0  0  0  0  1  0  0  0  0  0  0
  157.1150  213.0550  155.7710 O   0  0  0  0  0  1  0  0  0  0  0  0
  157.2840  213.6680  153.5710 O   0  0  0  0  0  0  0  0  0  0  0  0
  157.4620  212.7880  154.4550 C   0  0  0  0  0  0  0  0  0  0  0  0
  160.8690  207.4390  152.3660 C   0  0  0  0  0  2  0  0  0  0  0  0
  160.8250  206.7830  151.1030 O   0  0  0  0  0  0  0  0  0  0  0  0
  160.9890  204.8390  149.6890 C   0  0  0  0  0  3  0  0  0  0  0  0
  160.9140  205.3940  150.9690 C   0  0  0  0  0  0  0  0  0  0  0  0
  161.0730  203.4530  149.5190 C   0  0  0  0  0  0  0  0  0  0  0  0
  161.1670  201.2310  150.4980 O   0  0  0  0  0  1  0  0  0  0  0  0
  161.0190  203.1630  151.9260 C   0  0  0  0  0  3  0  0  0  0  0  0
  160.9330  204.5470  152.0900 C   0  0  0  0  0  3  0  0  0  0  0  0
  161.0870  202.6110  150.6440 C   0  0  0  0  0  0  0  0  0  0  0  0
  161.1840  202.4750  147.1170 N   0  0  0  0  0  0  0  0  0  0  0  0
  161.1350  202.9110  148.1880 C   0  0  0  0  0  0  0  0  0  0  0  0
  1  7  1  0  0  0  0
  2  3  1  0  0  0  0
  3  7  1  6  0  0  0
  3 10  1  0  0  0  0
  4  9  1  1  0  0  0
  4  6  1  0  0  0  0
  5  4  1  0  0  0  0
  5  1  1  0  0  0  0
  6 26  1  6  0  0  0
  6  2  1  0  0  0  0
  7  8  2  0  0  0  0
 10 21  1  6  0  0  0
 10 12  1  0  0  0  0
 10 11  1  0  0  0  0
 11 13  1  6  0  0  0
 12 11  1  0  0  0  0
 13 15  1  0  0  0  0
 14 13  2  0  0  0  0
 15 16  1  0  0  0  0
 16 17  1  0  0  0  0
 18 17  1  0  0  0  0
 19 18  2  0  0  0  0
 20 18  1  0  0  0  0
 21 25  1  0  0  0  0
 21 22  1  1  0  0  0
 24 25  2  0  0  0  0
 25 23  1  0  0  0  0
 27 26  1  0  0  0  0
 28 29  1  0  0  0  0
 29 27  1  0  0  0  0
 29 33  2  0  0  0  0
 30 28  2  0  0  0  0
 30 34  1  0  0  0  0
 31 34  1  0  0  0  0
 32 33  1  0  0  0  0
 34 32  2  0  0  0  0
 35 36  3  0  0  0  0
 36 30  1  0  0  0  0
M  END
>  <MODEL>
6

>  <REMARK>
 VINA RESULT:      -4.9      1.997      4.982
  Name = 
  12 active torsions:
  status: ('A' for Active; 'I' for Inactive)
    1  A    between atoms: C_3  and  C_9
    2  A    between atoms: C_3  and  C_13
    3  A    between atoms: C_4  and  O_35
    4  A    between atoms: C_7  and  O_30
    5  A    between atoms: C_10  and  O_12
    6  A    between atoms: C_10  and  C_24
    7  A    between atoms: C_11  and  C_28
    8  A    between atoms: O_12  and  C_36
    9  A    between atoms: C_13  and  C_25
   10  A    between atoms: C_20  and  C_23
   11  A    between atoms: C_23  and  O_30
   12  A    between atoms: O_35  and  C_36
                            x       y       z     vdW  Elec       q    Type
                         _______ _______ _______ _____ _____    ______ ____

>  <TORSDO>
F 12

$$$$
=
 OpenBabel11072413313D

 36 38  0  0  1  0  0  0  0  0999 V2000
  159.8760  210.6460  157.1580 O   0  0  0  0  0  0  0  0  0  0  0  0
  159.7760  210.9340  154.2240 O   0  0  0  0  0  0  0  0  0  0  0  0
  158.6100  210.9390  155.0000 C   0  0  1  0  0  3  0  0  0  0  0  0
  161.2030  209.4480  155.4810 C   0  0  2  0  0  3  0  0  0  0  0  0
  160.3850  209.3730  156.7670 C   0  0  0  0  0  2  0  0  0  0  0  0
  160.2700  209.6230  154.2730 C   0  0  2  0  0  3  0  0  0  0  0  0
  158.9260  211.3510  156.4120 C   0  0  0  0  0  0  0  0  0  0  0  0
  158.3670  212.3500  156.9330 O   0  0  0  0  0  0  0  0  0  0  0  0
  161.9360  208.2660  155.3620 O   0  0  0  0  0  1  0  0  0  0  0  0
  157.4320  211.6880  154.3310 C   0  0  1  0  0  0  0  0  0  0  0  0
  157.5580  212.8840  153.4310 C   0  0  2  0  0  3  0  0  0  0  0  0
  157.5010  211.5650  152.9260 O   0  0  0  0  0  0  0  0  0  0  0  0
  158.9380  213.4940  153.3350 C   0  0  0  0  0  0  0  0  0  0  0  0
  159.4230  214.2750  154.2930 C   0  0  0  0  0  2  0  0  0  0  0  0
  159.7810  213.1650  152.2680 O   0  0  0  0  0  0  0  0  0  0  0  0
  160.0390  214.0510  151.1830 C   0  0  0  0  0  2  0  0  0  0  0  0
  159.5350  213.5090  149.9720 O   0  0  0  0  0  0  0  0  0  0  0  0
  160.3750  212.9690  148.9980 C   0  0  0  0  0  0  0  0  0  0  0  0
  160.1180  213.1110  147.7730 O   0  0  0  0  0  0  0  0  0  0  0  0
  161.5110  212.2720  149.3860 O   0  0  0  0  0  1  0  0  0  0  0  0
  156.0370  211.3300  154.8680 C   0  0  1  0  0  3  0  0  0  0  0  0
  156.0490  210.0440  155.4120 O   0  0  0  0  0  1  0  0  0  0  0  0
  155.2620  211.9060  157.1730 O   0  0  0  0  0  1  0  0  0  0  0  0
  155.1410  213.4660  155.5000 O   0  0  0  0  0  0  0  0  0  0  0  0
  155.4690  212.3050  155.8600 C   0  0  0  0  0  0  0  0  0  0  0  0
  160.9710  209.2900  152.9550 C   0  0  0  0  0  2  0  0  0  0  0  0
  160.4490  208.0920  152.3890 O   0  0  0  0  0  0  0  0  0  0  0  0
  160.7500  206.2050  150.9210 C   0  0  0  0  0  3  0  0  0  0  0  0
  160.9020  207.5710  151.1730 C   0  0  0  0  0  0  0  0  0  0  0  0
  161.1980  205.6500  149.7170 C   0  0  0  0  0  0  0  0  0  0  0  0
  162.2550  205.9430  147.5500 O   0  0  0  0  0  1  0  0  0  0  0  0
  161.9490  207.8410  148.9970 C   0  0  0  0  0  3  0  0  0  0  0  0
  161.5030  208.3890  150.2020 C   0  0  0  0  0  3  0  0  0  0  0  0
  161.8010  206.4730  148.7520 C   0  0  0  0  0  0  0  0  0  0  0  0
  160.9110  203.1030  149.3100 N   0  0  0  0  0  0  0  0  0  0  0  0
  161.0380  204.2390  149.4920 C   0  0  0  0  0  0  0  0  0  0  0  0
  2  6  1  0  0  0  0
  3  2  1  6  0  0  0
  3  7  1  0  0  0  0
  4  9  1  6  0  0  0
  4  5  1  0  0  0  0
  5  1  1  0  0  0  0
  6 26  1  6  0  0  0
  6  4  1  0  0  0  0
  7  8  2  0  0  0  0
  7  1  1  0  0  0  0
 10 21  1  1  0  0  0
 10  3  1  0  0  0  0
 11 13  1  1  0  0  0
 11 10  1  0  0  0  0
 12 11  1  0  0  0  0
 12 10  1  0  0  0  0
 13 14  2  0  0  0  0
 15 13  1  0  0  0  0
 16 15  1  0  0  0  0
 17 16  1  0  0  0  0
 18 20  1  0  0  0  0
 18 17  1  0  0  0  0
 19 18  2  0  0  0  0
 21 22  1  1  0  0  0
 21 25  1  0  0  0  0
 24 25  2  0  0  0  0
 25 23  1  0  0  0  0
 27 26  1  0  0  0  0
 28 29  1  0  0  0  0
 29 27  1  0  0  0  0
 30 28  2  0  0  0  0
 31 34  1  0  0  0  0
 32 33  1  0  0  0  0
 33 29  2  0  0  0  0
 34 32  2  0  0  0  0
 34 30  1  0  0  0  0
 35 36  3  0  0  0  0
 36 30  1  0  0  0  0
M  END
>  <MODEL>
7

>  <REMARK>
 VINA RESULT:      -4.3      1.656      2.125
  Name = 
  12 active torsions:
  status: ('A' for Active; 'I' for Inactive)
    1  A    between atoms: C_3  and  C_9
    2  A    between atoms: C_3  and  C_13
    3  A    between atoms: C_4  and  O_35
    4  A    between atoms: C_7  and  O_30
    5  A    between atoms: C_10  and  O_12
    6  A    between atoms: C_10  and  C_24
    7  A    between atoms: C_11  and  C_28
    8  A    between atoms: O_12  and  C_36
    9  A    between atoms: C_13  and  C_25
   10  A    between atoms: C_20  and  C_23
   11  A    between atoms: C_23  and  O_30
   12  A    between atoms: O_35  and  C_36
                            x       y       z     vdW  Elec       q    Type
                         _______ _______ _______ _____ _____    ______ ____

>  <TORSDO>
F 12

$$$$
=
 OpenBabel11072413313D

 36 38  0  0  1  0  0  0  0  0999 V2000
  161.2340  207.7500  155.4200 O   0  0  0  0  0  0  0  0  0  0  0  0
  161.9810  208.1700  152.5980 O   0  0  0  0  0  0  0  0  0  0  0  0
  161.1820  209.0900  153.2880 C   0  0  1  0  0  3  0  0  0  0  0  0
  161.3370  206.0830  153.6270 C   0  0  2  0  0  3  0  0  0  0  0  0
  160.5680  206.6410  154.8210 C   0  0  0  0  0  2  0  0  0  0  0  0
  161.1910  207.0250  152.4210 C   0  0  2  0  0  3  0  0  0  0  0  0
  161.4160  208.9750  154.7700 C   0  0  0  0  0  0  0  0  0  0  0  0
  161.8070  209.9650  155.4390 O   0  0  0  0  0  0  0  0  0  0  0  0
  160.8170  204.8240  153.3240 O   0  0  0  0  0  1  0  0  0  0  0  0
  161.2580  210.5230  152.7070 C   0  0  1  0  0  0  0  0  0  0  0  0
  160.2150  211.5910  152.8790 C   0  0  2  0  0  3  0  0  0  0  0  0
  161.3250  211.4760  153.7470 O   0  0  0  0  0  0  0  0  0  0  0  0
  158.9180  211.1490  153.5170 C   0  0  0  0  0  0  0  0  0  0  0  0
  157.8060  210.9990  152.8060 C   0  0  0  0  0  2  0  0  0  0  0  0
  158.8850  210.7870  154.8690 O   0  0  0  0  0  0  0  0  0  0  0  0
  158.4300  211.6650  155.8940 C   0  0  0  0  0  2  0  0  0  0  0  0
  157.1870  211.2180  156.4110 O   0  0  0  0  0  0  0  0  0  0  0  0
  155.9750  211.5320  155.7950 C   0  0  0  0  0  0  0  0  0  0  0  0
  155.5490  212.7180  155.7760 O   0  0  0  0  0  1  0  0  0  0  0  0
  155.2330  210.5260  155.1930 O   0  0  0  0  0  0  0  0  0  0  0  0
  162.3570  210.7470  151.6550 C   0  0  1  0  0  3  0  0  0  0  0  0
  163.4680  209.9540  151.9480 O   0  0  0  0  0  1  0  0  0  0  0  0
  161.9560  209.2500  149.6950 O   0  0  0  0  0  1  0  0  0  0  0  0
  161.5820  211.5020  149.5120 O   0  0  0  0  0  0  0  0  0  0  0  0
  161.9270  210.5290  150.2320 C   0  0  0  0  0  0  0  0  0  0  0  0
  161.5710  206.3380  151.1090 C   0  0  0  0  0  2  0  0  0  0  0  0
  160.4820  205.5740  150.6000 O   0  0  0  0  0  0  0  0  0  0  0  0
  161.0310  204.6040  148.4630 C   0  0  0  0  0  3  0  0  0  0  0  0
  160.6630  204.4400  149.8020 C   0  0  0  0  0  0  0  0  0  0  0  0
  161.2140  203.4910  147.6350 C   0  0  0  0  0  0  0  0  0  0  0  0
  161.2060  201.0790  147.3470 O   0  0  0  0  0  1  0  0  0  0  0  0
  160.6710  202.0300  149.4920 C   0  0  0  0  0  3  0  0  0  0  0  0
  160.4870  203.1440  150.3140 C   0  0  0  0  0  3  0  0  0  0  0  0
  161.0320  202.1990  148.1530 C   0  0  0  0  0  0  0  0  0  0  0  0
  161.8740  203.8540  145.1500 N   0  0  0  0  0  0  0  0  0  0  0  0
  161.5790  203.6930  146.2580 C   0  0  0  0  0  0  0  0  0  0  0  0
  3  2  1  6  0  0  0
  3  7  1  0  0  0  0
  4  9  1  6  0  0  0
  4  5  1  0  0  0  0
  5  1  1  0  0  0  0
  6 26  1  6  0  0  0
  6  2  1  0  0  0  0
  6  4  1  0  0  0  0
  7  1  1  0  0  0  0
  7  8  2  0  0  0  0
 10 21  1  6  0  0  0
 10 11  1  0  0  0  0
 10  3  1  0  0  0  0
 10 12  1  0  0  0  0
 11 13  1  1  0  0  0
 11 12  1  0  0  0  0
 13 15  1  0  0  0  0
 14 13  2  0  0  0  0
 15 16  1  0  0  0  0
 16 17  1  0  0  0  0
 18 17  1  0  0  0  0
 19 18  1  0  0  0  0
 20 18  2  0  0  0  0
 21 22  1  1  0  0  0
 23 25  1  0  0  0  0
 24 25  2  0  0  0  0
 25 21  1  0  0  0  0
 27 26  1  0  0  0  0
 28 29  1  0  0  0  0
 29 33  2  0  0  0  0
 29 27  1  0  0  0  0
 30 34  1  0  0  0  0
 30 28  2  0  0  0  0
 31 34  1  0  0  0  0
 32 33  1  0  0  0  0
 34 32  2  0  0  0  0
 35 36  3  0  0  0  0
 36 30  1  0  0  0  0
M  END
>  <MODEL>
8

>  <REMARK>
 VINA RESULT:      -4.2      2.289      5.433
  Name = 
  12 active torsions:
  status: ('A' for Active; 'I' for Inactive)
    1  A    between atoms: C_3  and  C_9
    2  A    between atoms: C_3  and  C_13
    3  A    between atoms: C_4  and  O_35
    4  A    between atoms: C_7  and  O_30
    5  A    between atoms: C_10  and  O_12
    6  A    between atoms: C_10  and  C_24
    7  A    between atoms: C_11  and  C_28
    8  A    between atoms: O_12  and  C_36
    9  A    between atoms: C_13  and  C_25
   10  A    between atoms: C_20  and  C_23
   11  A    between atoms: C_23  and  O_30
   12  A    between atoms: O_35  and  C_36
                            x       y       z     vdW  Elec       q    Type
                         _______ _______ _______ _____ _____    ______ ____

>  <TORSDO>
F 12

$$$$
=
 OpenBabel11072413313D

 36 38  0  0  1  0  0  0  0  0999 V2000
  162.8750  208.1510  150.2150 O   0  0  0  0  0  0  0  0  0  0  0  0
  161.6190  209.3170  152.6150 O   0  0  0  0  0  0  0  0  0  0  0  0
  161.3940  207.9850  152.2450 C   0  0  1  0  0  3  0  0  0  0  0  0
  161.9050  210.3870  150.4700 C   0  0  2  0  0  3  0  0  0  0  0  0
  162.0460  209.1380  149.6050 C   0  0  0  0  0  2  0  0  0  0  0  0
  160.9670  210.1030  151.6540 C   0  0  2  0  0  3  0  0  0  0  0  0
  162.5280  207.4820  151.3930 C   0  0  0  0  0  0  0  0  0  0  0  0
  163.1980  206.4760  151.7390 O   0  0  0  0  0  0  0  0  0  0  0  0
  161.3860  211.4100  149.6750 O   0  0  0  0  0  1  0  0  0  0  0  0
  160.9970  207.0780  153.4350 C   0  0  1  0  0  0  0  0  0  0  0  0
  160.8570  205.5820  153.3840 C   0  0  2  0  0  3  0  0  0  0  0  0
  162.0600  206.2120  153.7740 O   0  0  0  0  0  0  0  0  0  0  0  0
  160.9350  204.9600  152.0080 C   0  0  0  0  0  0  0  0  0  0  0  0
  161.5170  203.7840  151.8070 C   0  0  0  0  0  2  0  0  0  0  0  0
  160.2990  205.5710  150.9220 O   0  0  0  0  0  0  0  0  0  0  0  0
  160.4940  205.1510  149.5750 C   0  0  0  0  0  2  0  0  0  0  0  0
  160.3140  206.2430  148.6860 O   0  0  0  0  0  0  0  0  0  0  0  0
  160.9750  206.3130  147.4600 C   0  0  0  0  0  0  0  0  0  0  0  0
  160.3280  206.3470  146.3790 O   0  0  0  0  0  0  0  0  0  0  0  0
  162.3620  206.3510  147.4310 O   0  0  0  0  0  1  0  0  0  0  0  0
  160.4460  207.8150  154.6660 C   0  0  1  0  0  3  0  0  0  0  0  0
  159.4370  207.0570  155.2660 O   0  0  0  0  0  1  0  0  0  0  0  0
  161.6630  207.4100  156.8110 O   0  0  0  0  0  1  0  0  0  0  0  0
  162.1430  209.2630  155.5530 O   0  0  0  0  0  0  0  0  0  0  0  0
  161.4770  208.2030  155.6880 C   0  0  0  0  0  0  0  0  0  0  0  0
  160.4590  211.3900  152.3040 C   0  0  0  0  0  2  0  0  0  0  0  0
  160.4250  211.2670  153.7220 O   0  0  0  0  0  0  0  0  0  0  0  0
  158.2030  212.1890  153.8640 C   0  0  0  0  0  3  0  0  0  0  0  0
  159.2810  211.5420  154.4770 C   0  0  0  0  0  0  0  0  0  0  0  0
  157.0450  212.4850  154.5920 C   0  0  0  0  0  0  0  0  0  0  0  0
  155.8230  212.4140  156.6900 O   0  0  0  0  0  1  0  0  0  0  0  0
  158.0350  211.4740  156.5620 C   0  0  0  0  0  3  0  0  0  0  0  0
  159.1890  211.1830  155.8320 C   0  0  0  0  0  3  0  0  0  0  0  0
  156.9620  212.1270  155.9480 C   0  0  0  0  0  0  0  0  0  0  0  0
  155.0840  213.7060  153.4090 N   0  0  0  0  0  0  0  0  0  0  0  0
  155.9590  213.1620  153.9370 C   0  0  0  0  0  0  0  0  0  0  0  0
  1  7  1  0  0  0  0
  3  7  1  1  0  0  0
  3  2  1  0  0  0  0
  3 10  1  0  0  0  0
  4  9  1  6  0  0  0
  4  6  1  0  0  0  0
  5  1  1  0  0  0  0
  5  4  1  0  0  0  0
  6 26  1  1  0  0  0
  6  2  1  0  0  0  0
  7  8  2  0  0  0  0
 10 12  1  0  0  0  0
 10 21  1  1  0  0  0
 11 13  1  6  0  0  0
 11 10  1  0  0  0  0
 11 12  1  0  0  0  0
 14 13  2  0  0  0  0
 15 13  1  0  0  0  0
 16 15  1  0  0  0  0
 17 16  1  0  0  0  0
 18 17  1  0  0  0  0
 19 18  2  0  0  0  0
 20 18  1  0  0  0  0
 21 22  1  1  0  0  0
 21 25  1  0  0  0  0
 24 25  2  0  0  0  0
 25 23  1  0  0  0  0
 26 27  1  0  0  0  0
 27 29  1  0  0  0  0
 28 29  2  0  0  0  0
 28 30  1  0  0  0  0
 29 33  1  0  0  0  0
 30 34  2  0  0  0  0
 33 32  2  0  0  0  0
 34 32  1  0  0  0  0
 34 31  1  0  0  0  0
 35 36  3  0  0  0  0
 36 30  1  0  0  0  0
M  END
>  <MODEL>
9

>  <REMARK>
 VINA RESULT:      -3.9      2.703      7.408
  Name = 
  12 active torsions:
  status: ('A' for Active; 'I' for Inactive)
    1  A    between atoms: C_3  and  C_9
    2  A    between atoms: C_3  and  C_13
    3  A    between atoms: C_4  and  O_35
    4  A    between atoms: C_7  and  O_30
    5  A    between atoms: C_10  and  O_12
    6  A    between atoms: C_10  and  C_24
    7  A    between atoms: C_11  and  C_28
    8  A    between atoms: O_12  and  C_36
    9  A    between atoms: C_13  and  C_25
   10  A    between atoms: C_20  and  C_23
   11  A    between atoms: C_23  and  O_30
   12  A    between atoms: O_35  and  C_36
                            x       y       z     vdW  Elec       q    Type
                         _______ _______ _______ _____ _____    ______ ____

>  <TORSDO>
F 12

$$$$
