=
 OpenBabel11072412113D

 31 35  0  0  1  0  0  0  0  0999 V2000
  161.4470  207.0880  150.0990 C   0  0  2  0  0  3  0  0  0  0  0  0
  160.4920  210.7730  155.8250 C   0  0  0  0  0  2  0  0  0  0  0  0
  159.7870  212.4690  154.3330 F   0  0  0  0  0  0  0  0  0  0  0  0
  162.6650  210.2660  151.9640 C   0  0  0  0  0  2  0  0  0  0  0  0
  162.1060  209.4450  150.8050 C   0  0  0  0  0  2  0  0  0  0  0  0
  159.7820  211.0970  154.5010 C   0  0  0  0  0  0  0  0  0  0  0  0
  160.4300  210.4460  153.2660 C   0  0  1  0  0  0  0  0  0  0  0  0
  161.9320  210.1430  153.3190 C   0  0  1  0  0  3  0  0  0  0  0  0
  160.5960  208.1020  152.2290 C   0  0  0  0  0  2  0  0  0  0  0  0
  160.8990  208.9990  153.4310 C   0  0  2  0  0  0  0  0  0  0  0  0
  160.9930  209.3280  155.9720 C   0  0  0  0  0  2  0  0  0  0  0  0
  159.9040  210.7770  152.0250 F   0  0  0  0  0  0  0  0  0  0  0  0
  161.7680  208.0370  151.2630 C   0  0  1  0  0  3  0  0  0  0  0  0
  160.6020  208.4070  154.8140 C   0  0  0  0  0  2  0  0  0  0  0  0
  158.4680  210.6720  154.5880 F   0  0  0  0  0  0  0  0  0  0  0  0
  162.0100  205.1160  151.5690 C   0  0  0  0  0  0  0  0  0  0  0  0
  161.8290  203.7790  151.9300 C   0  0  0  0  0  3  0  0  0  0  0  0
  161.2720  205.6470  150.4990 C   0  0  0  0  0  0  0  0  0  0  0  0
  162.9390  205.9180  152.2910 N   0  0  0  0  0  1  0  0  0  0  0  0
  160.9450  203.0000  151.2500 N   0  0  0  0  0  0  0  0  0  0  0  0
  160.3680  204.8210  149.8180 C   0  0  0  0  0  3  0  0  0  0  0  0
  160.2180  203.4900  150.2110 C   0  0  0  0  0  3  0  0  0  0  0  0
  162.2450  207.2990  148.8040 C   0  0  0  0  0  2  0  0  0  0  0  0
  161.3570  207.5030  147.5830 C   0  0  0  0  0  2  0  0  0  0  0  0
  160.8520  202.5390  144.9930 O   0  0  0  0  0  1  0  0  0  0  0  0
  162.4730  204.1890  145.9520 C   0  0  0  0  0  2  0  0  0  0  0  0
  160.5290  206.2430  145.4760 C   0  0  0  0  0  2  0  0  0  0  0  0
  160.2300  204.8080  145.1310 C   0  0  0  0  0  3  0  0  0  0  0  0
  161.4590  206.3360  146.6590 C   0  0  0  0  0  0  0  0  0  0  0  0
  161.1380  203.8510  145.3450 C   0  0  0  0  0  0  0  0  0  0  0  0
  162.3600  205.3650  146.8890 C   0  0  0  0  0  3  0  0  0  0  0  0
  1 23  1  6  0  0  0
  1 18  1  0  0  0  0
  2 11  1  0  0  0  0
  3  6  1  0  0  0  0
  5 13  1  0  0  0  0
  5  4  1  0  0  0  0
  6 15  1  0  0  0  0
  6  2  1  0  0  0  0
  7 12  1  6  0  0  0
  7  8  1  0  0  0  0
  7 10  1  0  0  0  0
  7  6  1  0  0  0  0
  8  4  1  6  0  0  0
  8 10  1  0  0  0  0
 10  9  1  6  0  0  0
 10 14  1  0  0  0  0
 13  1  1  6  0  0  0
 13  9  1  0  0  0  0
 14 11  1  0  0  0  0
 16 17  1  0  0  0  0
 16 19  1  0  0  0  0
 18 16  2  0  0  0  0
 20 17  2  0  0  0  0
 21 22  2  0  0  0  0
 21 18  1  0  0  0  0
 22 20  1  0  0  0  0
 24 23  1  0  0  0  0
 25 30  1  0  0  0  0
 26 31  1  0  0  0  0
 27 29  1  0  0  0  0
 28 30  2  0  0  0  0
 28 27  1  0  0  0  0
 29 31  2  0  0  0  0
 29 24  1  0  0  0  0
 30 26  1  0  0  0  0
M  END
>  <MODEL>
1

>  <REMARK>
 VINA RESULT:      -8.3      0.000      0.000
  Name = 
  5 active torsions:
  status: ('A' for Active; 'I' for Inactive)
    1  A    between atoms: C_4  and  C_29
    2  A    between atoms: C_12  and  C_17
    3  A    between atoms: C_12  and  C_21
    4  A    between atoms: C_21  and  C_29
    5  A    between atoms: C_27  and  C_29
                            x       y       z     vdW  Elec       q    Type
                         _______ _______ _______ _____ _____    ______ ____

>  <TORSDO>
F 5

$$$$
=
 OpenBabel11072412113D

 31 35  0  0  1  0  0  0  0  0999 V2000
  161.2600  209.2650  153.5210 C   0  0  2  0  0  3  0  0  0  0  0  0
  161.9300  205.9010  147.5610 C   0  0  0  0  0  2  0  0  0  0  0  0
  160.5660  204.2700  148.6010 F   0  0  0  0  0  0  0  0  0  0  0  0
  162.6800  206.0090  151.9560 C   0  0  0  0  0  2  0  0  0  0  0  0
  161.8510  206.8630  152.9130 C   0  0  0  0  0  2  0  0  0  0  0  0
  160.7750  205.6350  148.5400 C   0  0  0  0  0  0  0  0  0  0  0  0
  161.0260  206.1610  149.9650 C   0  0  1  0  0  0  0  0  0  0  0  0
  162.4780  206.2660  150.4450 C   0  0  1  0  0  3  0  0  0  0  0  0
  161.0870  208.4320  151.1610 C   0  0  0  0  0  2  0  0  0  0  0  0
  161.6830  207.5380  150.0720 C   0  0  2  0  0  0  0  0  0  0  0  0
  162.6110  207.2720  147.6960 C   0  0  0  0  0  2  0  0  0  0  0  0
  160.0700  205.8660  150.9260 F   0  0  0  0  0  0  0  0  0  0  0  0
  161.8530  208.3160  152.4690 C   0  0  1  0  0  3  0  0  0  0  0  0
  161.9510  208.2020  148.7160 C   0  0  0  0  0  2  0  0  0  0  0  0
  159.6290  206.2310  148.0430 F   0  0  0  0  0  0  0  0  0  0  0  0
  161.5320  209.0600  156.0210 C   0  0  0  0  0  0  0  0  0  0  0  0
  161.2060  208.4440  157.2320 C   0  0  0  0  0  3  0  0  0  0  0  0
  160.9280  208.6100  154.8350 C   0  0  0  0  0  0  0  0  0  0  0  0
  162.4710  210.1300  156.0080 N   0  0  0  0  0  1  0  0  0  0  0  0
  160.3100  207.4210  157.2600 N   0  0  0  0  0  0  0  0  0  0  0  0
  160.0080  207.5550  154.8960 C   0  0  0  0  0  3  0  0  0  0  0  0
  159.7110  206.9690  156.1270 C   0  0  0  0  0  3  0  0  0  0  0  0
  160.2090  210.2680  153.0230 C   0  0  0  0  0  2  0  0  0  0  0  0
  160.4890  211.6970  153.4700 C   0  0  0  0  0  2  0  0  0  0  0  0
  156.4010  214.1390  150.4800 O   0  0  0  0  0  1  0  0  0  0  0  0
  158.8800  213.9440  150.7770 C   0  0  0  0  0  2  0  0  0  0  0  0
  158.4080  213.2410  153.5170 C   0  0  0  0  0  2  0  0  0  0  0  0
  157.2570  213.5210  152.5870 C   0  0  0  0  0  3  0  0  0  0  0  0
  159.5790  212.6520  152.7710 C   0  0  0  0  0  0  0  0  0  0  0  0
  157.4750  213.8560  151.3120 C   0  0  0  0  0  0  0  0  0  0  0  0
  159.7900  212.9720  151.4830 C   0  0  0  0  0  3  0  0  0  0  0  0
  1 23  1  6  0  0  0
  1 18  1  0  0  0  0
  2 11  1  0  0  0  0
  2  6  1  0  0  0  0
  4  5  1  0  0  0  0
  6  3  1  0  0  0  0
  6  7  1  0  0  0  0
  7 10  1  0  0  0  0
  7  8  1  0  0  0  0
  7 12  1  1  0  0  0
  8  4  1  1  0  0  0
  9 13  1  0  0  0  0
 10 14  1  6  0  0  0
 10  8  1  0  0  0  0
 10  9  1  0  0  0  0
 11 14  1  0  0  0  0
 13  5  1  0  0  0  0
 13  1  1  1  0  0  0
 15  6  1  0  0  0  0
 16 17  1  0  0  0  0
 17 20  2  0  0  0  0
 18 21  1  0  0  0  0
 18 16  2  0  0  0  0
 19 16  1  0  0  0  0
 21 22  2  0  0  0  0
 22 20  1  0  0  0  0
 23 24  1  0  0  0  0
 25 30  1  0  0  0  0
 26 30  1  0  0  0  0
 26 31  1  0  0  0  0
 28 27  1  0  0  0  0
 29 24  1  0  0  0  0
 29 27  1  0  0  0  0
 30 28  2  0  0  0  0
 31 29  2  0  0  0  0
M  END
>  <MODEL>
2

>  <REMARK>
 VINA RESULT:      -7.7      3.916      7.697
  Name = 
  5 active torsions:
  status: ('A' for Active; 'I' for Inactive)
    1  A    between atoms: C_4  and  C_29
    2  A    between atoms: C_12  and  C_17
    3  A    between atoms: C_12  and  C_21
    4  A    between atoms: C_21  and  C_29
    5  A    between atoms: C_27  and  C_29
                            x       y       z     vdW  Elec       q    Type
                         _______ _______ _______ _____ _____    ______ ____

>  <TORSDO>
F 5

$$$$
=
 OpenBabel11072412113D

 31 35  0  0  1  0  0  0  0  0999 V2000
  162.0700  208.3090  150.1100 C   0  0  2  0  0  3  0  0  0  0  0  0
  162.0160  203.7800  144.9370 C   0  0  0  0  0  2  0  0  0  0  0  0
  159.7320  204.3710  144.7560 F   0  0  0  0  0  0  0  0  0  0  0  0
  160.5210  204.9360  148.9760 C   0  0  0  0  0  2  0  0  0  0  0  0
  160.5340  206.3770  149.4790 C   0  0  0  0  0  2  0  0  0  0  0  0
  160.9700  204.8970  145.0730 C   0  0  0  0  0  0  0  0  0  0  0  0
  160.8970  205.5210  146.4780 C   0  0  1  0  0  0  0  0  0  0  0  0
  161.3000  204.6480  147.6720 C   0  0  1  0  0  3  0  0  0  0  0  0
  162.3080  207.1100  147.9200 C   0  0  0  0  0  2  0  0  0  0  0  0
  162.2340  205.7750  147.1760 C   0  0  2  0  0  0  0  0  0  0  0  0
  163.3450  204.0220  145.6700 C   0  0  0  0  0  2  0  0  0  0  0  0
  159.9050  206.4650  146.7020 F   0  0  0  0  0  0  0  0  0  0  0  0
  161.9340  206.9620  149.3860 C   0  0  1  0  0  3  0  0  0  0  0  0
  163.4550  205.3990  146.3280 C   0  0  0  0  0  2  0  0  0  0  0  0
  161.2680  205.8940  144.1600 F   0  0  0  0  0  0  0  0  0  0  0  0
  161.9220  207.2630  152.4020 C   0  0  0  0  0  0  0  0  0  0  0  0
  161.4540  207.2820  153.7180 C   0  0  0  0  0  3  0  0  0  0  0  0
  161.5700  208.3070  151.5310 C   0  0  0  0  0  0  0  0  0  0  0  0
  162.7460  206.1860  151.9650 N   0  0  0  0  0  1  0  0  0  0  0  0
  160.6670  208.3040  154.1500 N   0  0  0  0  0  0  0  0  0  0  0  0
  160.7590  209.3460  152.0040 C   0  0  0  0  0  3  0  0  0  0  0  0
  160.3130  209.3260  153.3270 C   0  0  0  0  0  3  0  0  0  0  0  0
  161.6970  209.5610  149.3040 C   0  0  0  0  0  2  0  0  0  0  0  0
  162.4180  210.8150  149.7810 C   0  0  0  0  0  2  0  0  0  0  0  0
  160.5580  214.2070  145.7020 O   0  0  0  0  0  1  0  0  0  0  0  0
  162.5940  213.3730  146.8970 C   0  0  0  0  0  2  0  0  0  0  0  0
  160.9340  212.8510  149.1770 C   0  0  0  0  0  2  0  0  0  0  0  0
  160.3440  213.4120  147.9100 C   0  0  0  0  0  3  0  0  0  0  0  0
  162.1190  211.9670  148.8810 C   0  0  0  0  0  0  0  0  0  0  0  0
  161.1170  213.6630  146.8500 C   0  0  0  0  0  0  0  0  0  0  0  0
  162.8870  212.2040  147.8040 C   0  0  0  0  0  3  0  0  0  0  0  0
  1 23  1  6  0  0  0
  1 18  1  0  0  0  0
  2  6  1  0  0  0  0
  2 11  1  0  0  0  0
  3  6  1  0  0  0  0
  4  5  1  0  0  0  0
  6  7  1  0  0  0  0
  7 12  1  1  0  0  0
  7 10  1  0  0  0  0
  7  8  1  0  0  0  0
  8  4  1  1  0  0  0
  9 13  1  0  0  0  0
 10 14  1  6  0  0  0
 10  8  1  0  0  0  0
 10  9  1  0  0  0  0
 11 14  1  0  0  0  0
 13  5  1  0  0  0  0
 13  1  1  6  0  0  0
 15  6  1  0  0  0  0
 16 17  1  0  0  0  0
 17 20  2  0  0  0  0
 18 21  1  0  0  0  0
 18 16  2  0  0  0  0
 19 16  1  0  0  0  0
 21 22  2  0  0  0  0
 22 20  1  0  0  0  0
 23 24  1  0  0  0  0
 25 30  1  0  0  0  0
 26 31  1  0  0  0  0
 28 27  1  0  0  0  0
 29 27  1  0  0  0  0
 29 24  1  0  0  0  0
 30 26  1  0  0  0  0
 30 28  2  0  0  0  0
 31 29  2  0  0  0  0
M  END
>  <MODEL>
3

>  <REMARK>
 VINA RESULT:      -7.7      4.176      7.710
  Name = 
  5 active torsions:
  status: ('A' for Active; 'I' for Inactive)
    1  A    between atoms: C_4  and  C_29
    2  A    between atoms: C_12  and  C_17
    3  A    between atoms: C_12  and  C_21
    4  A    between atoms: C_21  and  C_29
    5  A    between atoms: C_27  and  C_29
                            x       y       z     vdW  Elec       q    Type
                         _______ _______ _______ _____ _____    ______ ____

>  <TORSDO>
F 5

$$$$
=
 OpenBabel11072412113D

 31 35  0  0  1  0  0  0  0  0999 V2000
  161.9420  207.6110  152.3440 C   0  0  2  0  0  3  0  0  0  0  0  0
  157.9690  212.1050  155.7050 C   0  0  0  0  0  2  0  0  0  0  0  0
  159.7510  212.1560  157.2610 F   0  0  0  0  0  0  0  0  0  0  0  0
  160.0060  208.1390  155.6660 C   0  0  0  0  0  2  0  0  0  0  0  0
  161.2060  207.8370  154.7720 C   0  0  0  0  0  2  0  0  0  0  0  0
  159.4900  212.0260  155.9100 C   0  0  0  0  0  0  0  0  0  0  0  0
  160.1240  210.7160  155.4080 C   0  0  1  0  0  0  0  0  0  0  0  0
  159.2490  209.4570  155.3900 C   0  0  1  0  0  3  0  0  0  0  0  0
  160.6980  209.6330  153.1510 C   0  0  0  0  0  2  0  0  0  0  0  0
  159.6060  210.1820  154.0720 C   0  0  2  0  0  0  0  0  0  0  0  0
  157.4490  211.5350  154.3760 C   0  0  0  0  0  2  0  0  0  0  0  0
  161.4770  210.5320  155.6540 F   0  0  0  0  0  0  0  0  0  0  0  0
  160.8770  208.1330  153.3190 C   0  0  1  0  0  3  0  0  0  0  0  0
  158.5490  211.0790  153.4150 C   0  0  0  0  0  2  0  0  0  0  0  0
  160.0810  213.0870  155.2460 F   0  0  0  0  0  0  0  0  0  0  0  0
  162.3310  209.4700  150.6830 C   0  0  0  0  0  0  0  0  0  0  0  0
  162.2410  209.9780  149.3840 C   0  0  0  0  0  3  0  0  0  0  0  0
  161.8470  208.1800  150.9530 C   0  0  0  0  0  0  0  0  0  0  0  0
  162.9110  210.2680  151.7100 N   0  0  0  0  0  1  0  0  0  0  0  0
  161.6900  209.2270  148.3920 N   0  0  0  0  0  0  0  0  0  0  0  0
  161.2870  207.4300  149.9100 C   0  0  0  0  0  3  0  0  0  0  0  0
  161.2160  207.9750  148.6280 C   0  0  0  0  0  3  0  0  0  0  0  0
  162.2420  206.1060  152.3990 C   0  0  0  0  0  2  0  0  0  0  0  0
  160.9890  205.2440  152.3260 C   0  0  0  0  0  2  0  0  0  0  0  0
  160.3700  200.9600  148.7380 O   0  0  0  0  0  1  0  0  0  0  0  0
  161.4090  201.6840  150.8980 C   0  0  0  0  0  2  0  0  0  0  0  0
  161.3690  204.3780  149.9140 C   0  0  0  0  0  2  0  0  0  0  0  0
  160.8240  203.2470  149.0800 C   0  0  0  0  0  3  0  0  0  0  0  0
  161.1910  204.1030  151.3860 C   0  0  0  0  0  0  0  0  0  0  0  0
  160.8500  201.9910  149.5340 C   0  0  0  0  0  0  0  0  0  0  0  0
  161.1950  202.8390  151.8430 C   0  0  0  0  0  3  0  0  0  0  0  0
  1 23  1  6  0  0  0
  2  6  1  0  0  0  0
  5  4  1  0  0  0  0
  6  3  1  0  0  0  0
  7 12  1  1  0  0  0
  7  6  1  0  0  0  0
  8  7  1  0  0  0  0
  8  4  1  6  0  0  0
  9 13  1  0  0  0  0
 10  9  1  6  0  0  0
 10  8  1  0  0  0  0
 10  7  1  0  0  0  0
 11  2  1  0  0  0  0
 13  1  1  6  0  0  0
 13  5  1  0  0  0  0
 14 10  1  0  0  0  0
 14 11  1  0  0  0  0
 15  6  1  0  0  0  0
 16 18  1  0  0  0  0
 16 19  1  0  0  0  0
 17 16  2  0  0  0  0
 18  1  1  0  0  0  0
 20 22  2  0  0  0  0
 20 17  1  0  0  0  0
 21 18  2  0  0  0  0
 22 21  1  0  0  0  0
 24 23  1  0  0  0  0
 25 30  1  0  0  0  0
 26 31  1  0  0  0  0
 27 29  1  0  0  0  0
 28 30  2  0  0  0  0
 28 27  1  0  0  0  0
 29 31  2  0  0  0  0
 29 24  1  0  0  0  0
 30 26  1  0  0  0  0
M  END
>  <MODEL>
4

>  <REMARK>
 VINA RESULT:      -7.4      2.594      4.173
  Name = 
  5 active torsions:
  status: ('A' for Active; 'I' for Inactive)
    1  A    between atoms: C_4  and  C_29
    2  A    between atoms: C_12  and  C_17
    3  A    between atoms: C_12  and  C_21
    4  A    between atoms: C_21  and  C_29
    5  A    between atoms: C_27  and  C_29
                            x       y       z     vdW  Elec       q    Type
                         _______ _______ _______ _____ _____    ______ ____

>  <TORSDO>
F 5

$$$$
=
 OpenBabel11072412113D

 31 35  0  0  1  0  0  0  0  0999 V2000
  160.6380  209.3850  153.5550 C   0  0  2  0  0  3  0  0  0  0  0  0
  156.8170  214.4530  156.1990 C   0  0  0  0  0  2  0  0  0  0  0  0
  155.1200  213.5860  154.7950 F   0  0  0  0  0  0  0  0  0  0  0  0
  158.7340  212.6310  152.6080 C   0  0  0  0  0  2  0  0  0  0  0  0
  159.1150  211.1550  152.5360 C   0  0  0  0  0  2  0  0  0  0  0  0
  156.2030  213.1970  155.5600 C   0  0  0  0  0  0  0  0  0  0  0  0
  157.1780  212.4050  154.6700 C   0  0  1  0  0  0  0  0  0  0  0  0
  158.3190  213.1750  153.9940 C   0  0  1  0  0  3  0  0  0  0  0  0
  159.2040  210.8590  154.9900 C   0  0  0  0  0  2  0  0  0  0  0  0
  158.6050  212.2510  155.2000 C   0  0  2  0  0  0  0  0  0  0  0  0
  158.2630  214.3040  156.6970 C   0  0  0  0  0  2  0  0  0  0  0  0
  156.6640  211.3170  153.9800 F   0  0  0  0  0  0  0  0  0  0  0  0
  160.0110  210.7780  153.7050 C   0  0  1  0  0  3  0  0  0  0  0  0
  158.8250  212.8860  156.5780 C   0  0  0  0  0  2  0  0  0  0  0  0
  155.7490  212.3660  156.5690 F   0  0  0  0  0  0  0  0  0  0  0  0
  161.7680  209.1960  155.8030 C   0  0  0  0  0  0  0  0  0  0  0  0
  161.9720  208.5170  157.0070 C   0  0  0  0  0  3  0  0  0  0  0  0
  160.8780  208.6650  154.8560 C   0  0  0  0  0  0  0  0  0  0  0  0
  162.4670  210.4120  155.5550 N   0  0  0  0  0  1  0  0  0  0  0  0
  161.3120  207.3550  157.2580 N   0  0  0  0  0  0  0  0  0  0  0  0
  160.2110  207.4670  155.1430 C   0  0  0  0  0  3  0  0  0  0  0  0
  160.4440  206.8220  156.3580 C   0  0  0  0  0  3  0  0  0  0  0  0
  161.7770  209.2520  152.5330 C   0  0  0  0  0  2  0  0  0  0  0  0
  161.2850  208.9150  151.1310 C   0  0  0  0  0  2  0  0  0  0  0  0
  160.6260  203.3670  150.5020 O   0  0  0  0  0  1  0  0  0  0  0  0
  162.0370  205.1530  151.5450 C   0  0  0  0  0  2  0  0  0  0  0  0
  161.1670  206.9300  149.4690 C   0  0  0  0  0  2  0  0  0  0  0  0
  160.6660  205.5110  149.5240 C   0  0  0  0  0  3  0  0  0  0  0  0
  161.4580  207.4590  150.8510 C   0  0  0  0  0  0  0  0  0  0  0  0
  161.0770  204.6790  150.4860 C   0  0  0  0  0  0  0  0  0  0  0  0
  161.8510  206.6220  151.8270 C   0  0  0  0  0  3  0  0  0  0  0  0
  1 23  1  1  0  0  0
  1 18  1  0  0  0  0
  2 11  1  0  0  0  0
  3  6  1  0  0  0  0
  5  4  1  0  0  0  0
  5 13  1  0  0  0  0
  6  2  1  0  0  0  0
  6 15  1  0  0  0  0
  7 12  1  6  0  0  0
  7 10  1  0  0  0  0
  7  6  1  0  0  0  0
  8  4  1  6  0  0  0
  8  7  1  0  0  0  0
  8 10  1  0  0  0  0
 10  9  1  6  0  0  0
 10 14  1  0  0  0  0
 13  1  1  6  0  0  0
 13  9  1  0  0  0  0
 14 11  1  0  0  0  0
 16 17  1  0  0  0  0
 17 20  2  0  0  0  0
 18 21  1  0  0  0  0
 18 16  2  0  0  0  0
 19 16  1  0  0  0  0
 21 22  2  0  0  0  0
 22 20  1  0  0  0  0
 24 23  1  0  0  0  0
 26 31  1  0  0  0  0
 27 28  1  0  0  0  0
 27 29  1  0  0  0  0
 28 30  2  0  0  0  0
 29 24  1  0  0  0  0
 29 31  2  0  0  0  0
 30 25  1  0  0  0  0
 30 26  1  0  0  0  0
M  END
>  <MODEL>
5

>  <REMARK>
 VINA RESULT:      -7.3      2.912      5.046
  Name = 
  5 active torsions:
  status: ('A' for Active; 'I' for Inactive)
    1  A    between atoms: C_4  and  C_29
    2  A    between atoms: C_12  and  C_17
    3  A    between atoms: C_12  and  C_21
    4  A    between atoms: C_21  and  C_29
    5  A    between atoms: C_27  and  C_29
                            x       y       z     vdW  Elec       q    Type
                         _______ _______ _______ _____ _____    ______ ____

>  <TORSDO>
F 5

$$$$
=
 OpenBabel11072412113D

 31 35  0  0  1  0  0  0  0  0999 V2000
  160.9550  206.1030  151.3320 C   0  0  2  0  0  3  0  0  0  0  0  0
  161.9830  204.0830  144.8400 C   0  0  0  0  0  2  0  0  0  0  0  0
  163.3120  206.0350  144.6930 F   0  0  0  0  0  0  0  0  0  0  0  0
  160.3400  207.1380  147.6420 C   0  0  0  0  0  2  0  0  0  0  0  0
  160.8310  207.2870  149.0800 C   0  0  0  0  0  2  0  0  0  0  0  0
  162.9380  205.0380  145.5730 C   0  0  0  0  0  0  0  0  0  0  0  0
  162.3310  205.6900  146.8290 C   0  0  1  0  0  0  0  0  0  0  0  0
  160.8110  205.8820  146.8740 C   0  0  1  0  0  3  0  0  0  0  0  0
  161.7190  204.9840  149.2210 C   0  0  0  0  0  2  0  0  0  0  0  0
  161.4860  204.7800  147.7230 C   0  0  2  0  0  0  0  0  0  0  0  0
  161.1090  203.1960  145.7420 C   0  0  0  0  0  2  0  0  0  0  0  0
  163.1000  206.6410  147.4830 F   0  0  0  0  0  0  0  0  0  0  0  0
  160.7240  205.9640  149.8200 C   0  0  1  0  0  3  0  0  0  0  0  0
  161.4140  203.3280  147.2350 C   0  0  0  0  0  2  0  0  0  0  0  0
  164.0700  204.3330  145.9430 F   0  0  0  0  0  0  0  0  0  0  0  0
  161.0910  207.9000  153.0970 C   0  0  0  0  0  0  0  0  0  0  0  0
  161.4660  209.1860  153.4960 C   0  0  0  0  0  3  0  0  0  0  0  0
  161.3450  207.4870  151.7790 C   0  0  0  0  0  0  0  0  0  0  0  0
  160.4560  207.0330  154.0310 N   0  0  0  0  0  1  0  0  0  0  0  0
  162.0730  210.0260  152.6150 N   0  0  0  0  0  0  0  0  0  0  0  0
  161.9730  208.3730  150.8950 C   0  0  0  0  0  3  0  0  0  0  0  0
  162.3310  209.6480  151.3350 C   0  0  0  0  0  3  0  0  0  0  0  0
  161.7340  204.9680  152.0120 C   0  0  0  0  0  2  0  0  0  0  0  0
  160.8340  203.8590  152.5420 C   0  0  0  0  0  2  0  0  0  0  0  0
  161.4360  200.3800  148.1670 O   0  0  0  0  0  1  0  0  0  0  0  0
  159.7970  201.3760  149.7760 C   0  0  0  0  0  2  0  0  0  0  0  0
  161.9560  201.7060  151.6350 C   0  0  0  0  0  2  0  0  0  0  0  0
  162.2000  201.1150  150.2710 C   0  0  0  0  0  3  0  0  0  0  0  0
  160.8220  202.7000  151.6020 C   0  0  0  0  0  0  0  0  0  0  0  0
  161.1940  200.9530  149.4070 C   0  0  0  0  0  0  0  0  0  0  0  0
  159.8180  202.5520  150.7200 C   0  0  0  0  0  3  0  0  0  0  0  0
  1 18  1  0  0  0  0
  1 23  1  6  0  0  0
  2  6  1  0  0  0  0
  2 11  1  0  0  0  0
  3  6  1  0  0  0  0
  4  5  1  0  0  0  0
  5 13  1  0  0  0  0
  6 15  1  0  0  0  0
  6  7  1  0  0  0  0
  7  8  1  0  0  0  0
  7 12  1  1  0  0  0
  7 10  1  0  0  0  0
  8  4  1  1  0  0  0
  8 10  1  0  0  0  0
  9 13  1  0  0  0  0
 10 14  1  6  0  0  0
 10  9  1  0  0  0  0
 11 14  1  0  0  0  0
 13  1  1  1  0  0  0
 16 17  1  0  0  0  0
 16 19  1  0  0  0  0
 18 16  2  0  0  0  0
 20 17  2  0  0  0  0
 21 22  2  0  0  0  0
 21 18  1  0  0  0  0
 22 20  1  0  0  0  0
 23 24  1  0  0  0  0
 25 30  1  0  0  0  0
 26 31  1  0  0  0  0
 28 27  1  0  0  0  0
 29 27  1  0  0  0  0
 29 24  1  0  0  0  0
 30 26  1  0  0  0  0
 30 28  2  0  0  0  0
 31 29  2  0  0  0  0
M  END
>  <MODEL>
6

>  <REMARK>
 VINA RESULT:      -7.2      3.256      7.139
  Name = 
  5 active torsions:
  status: ('A' for Active; 'I' for Inactive)
    1  A    between atoms: C_4  and  C_29
    2  A    between atoms: C_12  and  C_17
    3  A    between atoms: C_12  and  C_21
    4  A    between atoms: C_21  and  C_29
    5  A    between atoms: C_27  and  C_29
                            x       y       z     vdW  Elec       q    Type
                         _______ _______ _______ _____ _____    ______ ____

>  <TORSDO>
F 5

$$$$
=
 OpenBabel11072412113D

 31 35  0  0  1  0  0  0  0  0999 V2000
  161.7970  207.0310  150.8460 C   0  0  2  0  0  3  0  0  0  0  0  0
  160.6580  200.5740  148.7760 C   0  0  0  0  0  2  0  0  0  0  0  0
  159.3050  200.4420  150.7130 F   0  0  0  0  0  0  0  0  0  0  0  0
  162.3250  203.3230  151.8660 C   0  0  0  0  0  2  0  0  0  0  0  0
  161.8620  204.7700  152.0180 C   0  0  0  0  0  2  0  0  0  0  0  0
  159.7080  201.3210  149.7250 C   0  0  0  0  0  0  0  0  0  0  0  0
  160.3330  202.5600  150.3910 C   0  0  1  0  0  0  0  0  0  0  0  0
  161.8520  202.5720  150.6000 C   0  0  1  0  0  3  0  0  0  0  0  0
  161.0020  204.9430  149.7060 C   0  0  0  0  0  2  0  0  0  0  0  0
  161.2060  203.4410  149.4960 C   0  0  2  0  0  0  0  0  0  0  0  0
  161.5590  201.4630  147.9040 C   0  0  0  0  0  2  0  0  0  0  0  0
  159.5680  203.2240  151.3390 F   0  0  0  0  0  0  0  0  0  0  0  0
  161.9990  205.5150  150.7010 C   0  0  1  0  0  3  0  0  0  0  0  0
  161.2830  202.9610  148.0420 C   0  0  0  0  0  2  0  0  0  0  0  0
  158.5920  201.7180  149.0110 F   0  0  0  0  0  0  0  0  0  0  0  0
  161.5880  208.8130  152.6190 C   0  0  0  0  0  0  0  0  0  0  0  0
  161.2060  209.2110  153.9030 C   0  0  0  0  0  3  0  0  0  0  0  0
  161.4000  207.4780  152.2280 C   0  0  0  0  0  0  0  0  0  0  0  0
  162.1600  209.7670  151.7300 N   0  0  0  0  0  1  0  0  0  0  0  0
  160.6580  208.3120  154.7640 N   0  0  0  0  0  0  0  0  0  0  0  0
  160.8310  206.5750  153.1360 C   0  0  0  0  0  3  0  0  0  0  0  0
  160.4650  207.0140  154.4090 C   0  0  0  0  0  3  0  0  0  0  0  0
  161.0450  207.7340  149.7070 C   0  0  0  0  0  2  0  0  0  0  0  0
  161.9130  207.9760  148.4790 C   0  0  0  0  0  2  0  0  0  0  0  0
  161.3610  205.0800  143.6910 O   0  0  0  0  0  1  0  0  0  0  0  0
  160.1730  205.8800  145.7450 C   0  0  0  0  0  2  0  0  0  0  0  0
  162.7100  205.9440  147.0810 C   0  0  0  0  0  2  0  0  0  0  0  0
  162.6130  205.5300  145.6360 C   0  0  0  0  0  3  0  0  0  0  0  0
  161.6400  206.9470  147.4330 C   0  0  0  0  0  0  0  0  0  0  0  0
  161.4310  205.4920  145.0140 C   0  0  0  0  0  0  0  0  0  0  0  0
  160.4560  206.9250  146.7950 C   0  0  0  0  0  3  0  0  0  0  0  0
  1 23  1  6  0  0  0
  1 18  1  0  0  0  0
  2  6  1  0  0  0  0
  4  5  1  0  0  0  0
  6  7  1  0  0  0  0
  6  3  1  0  0  0  0
  7  8  1  0  0  0  0
  7 12  1  1  0  0  0
  8  4  1  1  0  0  0
  9 13  1  0  0  0  0
 10 14  1  6  0  0  0
 10  9  1  0  0  0  0
 10  7  1  0  0  0  0
 10  8  1  0  0  0  0
 11 14  1  0  0  0  0
 11  2  1  0  0  0  0
 13  1  1  1  0  0  0
 13  5  1  0  0  0  0
 15  6  1  0  0  0  0
 16 17  1  0  0  0  0
 17 20  2  0  0  0  0
 18 16  2  0  0  0  0
 18 21  1  0  0  0  0
 19 16  1  0  0  0  0
 21 22  2  0  0  0  0
 22 20  1  0  0  0  0
 24 23  1  0  0  0  0
 25 30  1  0  0  0  0
 26 31  1  0  0  0  0
 27 29  1  0  0  0  0
 28 27  1  0  0  0  0
 29 24  1  0  0  0  0
 30 28  2  0  0  0  0
 30 26  1  0  0  0  0
 31 29  2  0  0  0  0
M  END
>  <MODEL>
7

>  <REMARK>
 VINA RESULT:      -7.0      3.395      6.425
  Name = 
  5 active torsions:
  status: ('A' for Active; 'I' for Inactive)
    1  A    between atoms: C_4  and  C_29
    2  A    between atoms: C_12  and  C_17
    3  A    between atoms: C_12  and  C_21
    4  A    between atoms: C_21  and  C_29
    5  A    between atoms: C_27  and  C_29
                            x       y       z     vdW  Elec       q    Type
                         _______ _______ _______ _____ _____    ______ ____

>  <TORSDO>
F 5

$$$$
=
 OpenBabel11072412113D

 31 35  0  0  1  0  0  0  0  0999 V2000
  161.1090  206.6110  151.3510 C   0  0  2  0  0  3  0  0  0  0  0  0
  161.2060  205.4410  144.5760 C   0  0  0  0  0  2  0  0  0  0  0  0
  163.2480  204.3370  145.0350 F   0  0  0  0  0  0  0  0  0  0  0  0
  163.1080  207.3790  148.1130 C   0  0  0  0  0  2  0  0  0  0  0  0
  162.8810  206.8910  149.5420 C   0  0  0  0  0  2  0  0  0  0  0  0
  162.0020  204.5890  145.5770 C   0  0  0  0  0  0  0  0  0  0  0  0
  162.1870  205.2500  146.9550 C   0  0  1  0  0  0  0  0  0  0  0  0
  162.1910  206.7810  147.0220 C   0  0  1  0  0  3  0  0  0  0  0  0
  160.7480  205.7530  149.0220 C   0  0  0  0  0  2  0  0  0  0  0  0
  160.9690  205.9790  147.5250 C   0  0  2  0  0  0  0  0  0  0  0  0
  160.0040  206.2020  145.1600 C   0  0  0  0  0  2  0  0  0  0  0  0
  162.9820  204.5830  147.8750 F   0  0  0  0  0  0  0  0  0  0  0  0
  161.3960  206.8430  149.8600 C   0  0  1  0  0  3  0  0  0  0  0  0
  159.7250  205.8960  146.6320 C   0  0  0  0  0  2  0  0  0  0  0  0
  161.3470  203.3820  145.7480 F   0  0  0  0  0  0  0  0  0  0  0  0
  160.8300  207.7930  153.5630 C   0  0  0  0  0  0  0  0  0  0  0  0
  160.8380  208.9650  154.3230 C   0  0  0  0  0  3  0  0  0  0  0  0
  161.1050  207.8640  152.1870 C   0  0  0  0  0  0  0  0  0  0  0  0
  160.5430  206.5490  154.1930 N   0  0  0  0  0  1  0  0  0  0  0  0
  161.1110  210.1610  153.7360 N   0  0  0  0  0  0  0  0  0  0  0  0
  161.3830  209.1100  151.6100 C   0  0  0  0  0  3  0  0  0  0  0  0
  161.3810  210.2550  152.4070 C   0  0  0  0  0  3  0  0  0  0  0  0
  161.8060  205.4100  152.0040 C   0  0  0  0  0  2  0  0  0  0  0  0
  160.8320  204.3380  152.4760 C   0  0  0  0  0  2  0  0  0  0  0  0
  161.5810  200.8310  148.1470 O   0  0  0  0  0  1  0  0  0  0  0  0
  159.9070  202.2210  149.3860 C   0  0  0  0  0  2  0  0  0  0  0  0
  161.5560  201.9680  151.7190 C   0  0  0  0  0  2  0  0  0  0  0  0
  161.9680  201.3360  150.4160 C   0  0  0  0  0  3  0  0  0  0  0  0
  160.7550  203.2250  151.4860 C   0  0  0  0  0  0  0  0  0  0  0  0
  161.1970  201.4460  149.3300 C   0  0  0  0  0  0  0  0  0  0  0  0
  159.9950  203.3470  150.3840 C   0  0  0  0  0  3  0  0  0  0  0  0
  1 23  1  1  0  0  0
  1 18  1  0  0  0  0
  2 11  1  0  0  0  0
  2  6  1  0  0  0  0
  3  6  1  0  0  0  0
  4  5  1  0  0  0  0
  5 13  1  0  0  0  0
  6 15  1  0  0  0  0
  6  7  1  0  0  0  0
  7  8  1  0  0  0  0
  7 10  1  0  0  0  0
  7 12  1  1  0  0  0
  8 10  1  0  0  0  0
  8  4  1  1  0  0  0
  9 13  1  0  0  0  0
 10 14  1  6  0  0  0
 10  9  1  0  0  0  0
 11 14  1  0  0  0  0
 13  1  1  1  0  0  0
 16 19  1  0  0  0  0
 16 17  1  0  0  0  0
 18 16  2  0  0  0  0
 20 17  2  0  0  0  0
 21 18  1  0  0  0  0
 21 22  2  0  0  0  0
 22 20  1  0  0  0  0
 23 24  1  0  0  0  0
 25 30  1  0  0  0  0
 26 31  1  0  0  0  0
 28 27  1  0  0  0  0
 29 27  1  0  0  0  0
 29 24  1  0  0  0  0
 30 26  1  0  0  0  0
 30 28  2  0  0  0  0
 31 29  2  0  0  0  0
M  END
>  <MODEL>
8

>  <REMARK>
 VINA RESULT:      -6.9      3.419      7.024
  Name = 
  5 active torsions:
  status: ('A' for Active; 'I' for Inactive)
    1  A    between atoms: C_4  and  C_29
    2  A    between atoms: C_12  and  C_17
    3  A    between atoms: C_12  and  C_21
    4  A    between atoms: C_21  and  C_29
    5  A    between atoms: C_27  and  C_29
                            x       y       z     vdW  Elec       q    Type
                         _______ _______ _______ _____ _____    ______ ____

>  <TORSDO>
F 5

$$$$
=
 OpenBabel11072412113D

 31 35  0  0  1  0  0  0  0  0999 V2000
  161.7160  206.2020  150.8720 C   0  0  2  0  0  3  0  0  0  0  0  0
  160.8120  210.9320  155.7800 C   0  0  0  0  0  2  0  0  0  0  0  0
  159.3700  211.9500  154.2030 F   0  0  0  0  0  0  0  0  0  0  0  0
  162.2710  209.9570  151.6800 C   0  0  0  0  0  2  0  0  0  0  0  0
  161.7710  208.7490  150.8930 C   0  0  0  0  0  2  0  0  0  0  0  0
  159.8020  210.7130  154.6420 C   0  0  0  0  0  0  0  0  0  0  0  0
  160.3690  209.9330  153.4420 C   0  0  1  0  0  0  0  0  0  0  0  0
  161.8750  210.0260  153.1730 C   0  0  1  0  0  3  0  0  0  0  0  0
  161.0200  207.5090  152.8960 C   0  0  0  0  0  2  0  0  0  0  0  0
  161.2650  208.7380  153.7740 C   0  0  2  0  0  0  0  0  0  0  0  0
  161.7350  209.7420  156.0860 C   0  0  0  0  0  2  0  0  0  0  0  0
  159.5450  209.7870  152.3360 F   0  0  0  0  0  0  0  0  0  0  0  0
  161.9550  207.4730  151.6990 C   0  0  1  0  0  3  0  0  0  0  0  0
  161.4220  208.4820  155.2780 C   0  0  0  0  0  2  0  0  0  0  0  0
  158.7130  210.0230  155.1450 F   0  0  0  0  0  0  0  0  0  0  0  0
  162.4770  206.8070  148.5440 C   0  0  0  0  0  0  0  0  0  0  0  0
  162.1970  207.0260  147.1930 C   0  0  0  0  0  3  0  0  0  0  0  0
  161.4340  206.4490  149.4140 C   0  0  0  0  0  0  0  0  0  0  0  0
  163.8120  206.9530  149.0170 N   0  0  0  0  0  1  0  0  0  0  0  0
  160.9270  206.8910  146.7260 N   0  0  0  0  0  0  0  0  0  0  0  0
  160.1360  206.3160  148.9040 C   0  0  0  0  0  3  0  0  0  0  0  0
  159.9010  206.5440  147.5470 C   0  0  0  0  0  3  0  0  0  0  0  0
  160.8370  205.1210  151.5180 C   0  0  0  0  0  2  0  0  0  0  0  0
  161.5370  203.7740  151.6370 C   0  0  0  0  0  2  0  0  0  0  0  0
  161.5450  200.2170  147.2830 O   0  0  0  0  0  1  0  0  0  0  0  0
  160.8330  202.4850  148.0690 C   0  0  0  0  0  2  0  0  0  0  0  0
  160.8060  201.4530  150.7450 C   0  0  0  0  0  2  0  0  0  0  0  0
  161.2010  200.5750  149.5870 C   0  0  0  0  0  3  0  0  0  0  0  0
  161.1780  202.8920  150.4880 C   0  0  0  0  0  0  0  0  0  0  0  0
  161.2060  201.0520  148.3380 C   0  0  0  0  0  0  0  0  0  0  0  0
  161.2050  203.3700  149.2310 C   0  0  0  0  0  3  0  0  0  0  0  0
  1 23  1  1  0  0  0
  2 11  1  0  0  0  0
  3  6  1  0  0  0  0
  5  4  1  0  0  0  0
  5 13  1  0  0  0  0
  6 15  1  0  0  0  0
  6  2  1  0  0  0  0
  7 12  1  6  0  0  0
  7 10  1  0  0  0  0
  7  6  1  0  0  0  0
  8  4  1  6  0  0  0
  8  7  1  0  0  0  0
  8 10  1  0  0  0  0
 10  9  1  6  0  0  0
 10 14  1  0  0  0  0
 13  1  1  6  0  0  0
 13  9  1  0  0  0  0
 14 11  1  0  0  0  0
 16 19  1  0  0  0  0
 16 18  1  0  0  0  0
 17 16  2  0  0  0  0
 18  1  1  0  0  0  0
 20 17  1  0  0  0  0
 20 22  2  0  0  0  0
 21 18  2  0  0  0  0
 22 21  1  0  0  0  0
 23 24  1  0  0  0  0
 25 30  1  0  0  0  0
 26 30  1  0  0  0  0
 26 31  1  0  0  0  0
 28 27  1  0  0  0  0
 29 27  1  0  0  0  0
 29 24  1  0  0  0  0
 30 28  2  0  0  0  0
 31 29  2  0  0  0  0
M  END
>  <MODEL>
9

>  <REMARK>
 VINA RESULT:      -6.7      1.899      3.279
  Name = 
  5 active torsions:
  status: ('A' for Active; 'I' for Inactive)
    1  A    between atoms: C_4  and  C_29
    2  A    between atoms: C_12  and  C_17
    3  A    between atoms: C_12  and  C_21
    4  A    between atoms: C_21  and  C_29
    5  A    between atoms: C_27  and  C_29
                            x       y       z     vdW  Elec       q    Type
                         _______ _______ _______ _____ _____    ______ ____

>  <TORSDO>
F 5

$$$$
