=
 OpenBabel11072412503D

 52 57  0  0  1  0  0  0  0  0999 V2000
  161.1720  208.3760  148.8270 O   0  0  0  0  0  0  0  0  0  0  0  0
  161.8370  208.2950  151.4080 C   0  0  2  0  0  0  0  0  0  0  0  0
  162.2210  207.0060  150.8850 C   0  0  2  0  0  3  0  0  0  0  0  0
  161.5820  208.0370  149.9250 C   0  0  0  0  0  0  0  0  0  0  0  0
  162.9030  209.1730  151.6030 O   0  0  0  0  0  1  0  0  0  0  0  0
  160.2400  202.3980  152.4700 O   0  0  0  0  0  1  0  0  0  0  0  0
  161.8860  201.6640  150.9260 C   0  0  0  0  0  2  0  0  0  0  0  0
  162.3040  201.9570  149.6190 O   0  0  0  0  0  0  0  0  0  0  0  0
  161.2460  205.8740  151.1980 C   0  0  2  0  0  3  0  0  0  0  0  0
  162.1910  203.7450  152.2430 C   0  0  0  0  0  2  0  0  0  0  0  0
  158.8510  202.1110  149.4120 O   0  0  0  0  0  1  0  0  0  0  0  0
  161.1540  202.8670  151.5260 C   0  0  2  0  0  0  0  0  0  0  0  0
  161.6600  205.1580  152.4940 C   0  0  0  0  0  2  0  0  0  0  0  0
  160.3770  203.6530  150.4290 C   0  0  1  0  0  3  0  0  0  0  0  0
  161.1650  201.8260  148.8010 C   0  0  1  0  0  3  0  0  0  0  0  0
  161.1010  204.9270  150.0040 C   0  0  0  0  0  2  0  0  0  0  0  0
  160.0380  202.8140  149.1930 C   0  0  1  0  0  3  0  0  0  0  0  0
  160.3830  203.0190  145.4220 C   0  0  0  0  0  2  0  0  0  0  0  0
  161.1660  199.6290  146.5740 C   0  0  0  0  0  2  0  0  0  0  0  0
  160.5080  201.0250  144.1300 F   0  0  0  0  0  0  0  0  0  0  0  0
  158.7560  201.2720  145.5690 O   0  0  0  0  0  1  0  0  0  0  0  0
  161.5690  201.9630  147.3240 C   0  0  1  0  0  3  0  0  0  0  0  0
  160.9190  200.9370  146.4630 C   0  0  0  0  0  0  0  0  0  0  0  0
  161.1020  203.2970  146.7470 C   0  0  1  0  0  3  0  0  0  0  0  0
  160.1130  201.5220  145.3590 C   0  0  2  0  0  0  0  0  0  0  0  0
  161.7830  205.5860  146.5650 O   0  0  0  0  0  1  0  0  0  0  0  0
  162.2620  204.2750  146.5890 C   0  0  0  0  0  3  0  0  0  0  0  0
  162.9800  204.0160  145.4180 O   0  0  0  0  0  1  0  0  0  0  0  0
  160.5780  208.5510  152.2630 C   0  0  1  0  0  3  0  0  0  0  0  0
  160.5080  207.6910  153.3660 O   0  0  0  0  0  1  0  0  0  0  0  0
  160.5100  210.0270  152.7020 C   0  0  2  0  0  3  0  0  0  0  0  0
  159.0120  211.0160  154.5420 C   0  0  0  0  0  2  0  0  0  0  0  0
  160.3200  210.2920  154.2060 C   0  0  2  0  0  3  0  0  0  0  0  0
  158.9310  211.3810  156.0350 C   0  0  1  0  0  3  0  0  0  0  0  0
  161.4240  210.9910  154.7330 O   0  0  0  0  0  0  0  0  0  0  0  0
  160.0500  210.7100  156.8440 C   0  0  0  0  0  2  0  0  0  0  0  0
  161.4230  210.8940  156.1540 C   0  0  1  0  0  3  0  0  0  0  0  0
  158.9220  212.8990  156.2300 C   0  0  2  0  0  3  0  0  0  0  0  0
  160.0500  213.2920  156.9520 O   0  0  0  0  0  1  0  0  0  0  0  0
  157.6730  213.3260  156.9900 C   0  0  1  0  0  3  0  0  0  0  0  0
  156.9130  214.3890  156.2140 C   0  0  0  0  0  2  0  0  0  0  0  0
  156.4460  212.9500  156.1780 C   0  0  2  0  0  3  0  0  0  0  0  0
  154.9400  211.3040  157.2600 C   0  0  0  0  0  1  0  0  0  0  0  0
  155.2670  212.7790  157.1120 C   0  0  0  0  0  2  0  0  0  0  0  0
  161.8750  208.7390  156.7440 C   0  0  0  0  0  1  0  0  0  0  0  0
  162.4210  210.0270  156.6400 O   0  0  0  0  0  0  0  0  0  0  0  0
  159.7340  210.8480  151.8510 O   0  0  0  0  0  0  0  0  0  0  0  0
  160.4590  212.0090  151.5400 C   0  0  1  0  0  3  0  0  0  0  0  0
  161.2050  211.8030  150.2300 C   0  0  0  0  0  1  0  0  0  0  0  0
  159.3770  213.8020  152.7220 O   0  0  0  0  0  1  0  0  0  0  0  0
  160.0030  214.1600  150.5530 O   0  0  0  0  0  1  0  0  0  0  0  0
  159.5240  213.2150  151.4630 C   0  0  0  0  0  3  0  0  0  0  0  0
  1  4  2  0  0  0  0
  2  5  1  1  0  0  0
  2 29  1  0  0  0  0
  3  4  1  6  0  0  0
  3  9  1  0  0  0  0
  3  2  1  0  0  0  0
  4  2  1  0  0  0  0
  7 12  1  0  0  0  0
  8  7  1  0  0  0  0
  9 16  1  6  0  0  0
  9 13  1  0  0  0  0
 10 13  1  0  0  0  0
 12 10  1  0  0  0  0
 12  6  1  1  0  0  0
 14 16  1  6  0  0  0
 14 12  1  0  0  0  0
 15 17  1  0  0  0  0
 15  8  1  1  0  0  0
 17 11  1  1  0  0  0
 17 14  1  0  0  0  0
 18 24  1  0  0  0  0
 22 23  1  6  0  0  0
 22 15  1  0  0  0  0
 23 19  2  0  0  0  0
 24 27  1  6  0  0  0
 24 22  1  0  0  0  0
 25 20  1  6  0  0  0
 25 18  1  0  0  0  0
 25 21  1  0  0  0  0
 25 23  1  0  0  0  0
 26 27  1  0  0  0  0
 28 27  1  0  0  0  0
 29 31  1  0  0  0  0
 29 30  1  1  0  0  0
 31 47  1  6  0  0  0
 32 34  1  0  0  0  0
 33 31  1  6  0  0  0
 33 32  1  0  0  0  0
 33 35  1  0  0  0  0
 34 38  1  6  0  0  0
 34 36  1  0  0  0  0
 35 37  1  0  0  0  0
 37 46  1  6  0  0  0
 37 36  1  0  0  0  0
 38 39  1  1  0  0  0
 40 38  1  6  0  0  0
 41 40  1  0  0  0  0
 42 41  1  0  0  0  0
 42 40  1  0  0  0  0
 42 44  1  1  0  0  0
 44 43  1  0  0  0  0
 46 45  1  0  0  0  0
 48 49  1  6  0  0  0
 48 47  1  0  0  0  0
 51 52  1  0  0  0  0
 52 48  1  0  0  0  0
 52 50  1  0  0  0  0
M  END
>  <MODEL>
1

>  <REMARK>
 VINA RESULT:      -4.1      0.000      0.000
  Name = 
  13 active torsions:
  status: ('A' for Active; 'I' for Inactive)
    1  A    between atoms: C_1  and  C_14
    2  A    between atoms: C_1  and  C_30
    3  A    between atoms: O_7  and  C_12
    4  A    between atoms: O_7  and  C_16
    5  A    between atoms: C_12  and  C_27
    6  A    between atoms: C_12  and  C_28
    7  A    between atoms: C_13  and  C_27
    8  A    between atoms: C_16  and  C_45
    9  A    between atoms: C_17  and  C_19
   10  A    between atoms: C_18  and  C_32
   11  A    between atoms: C_20  and  C_40
   12  A    between atoms: C_37  and  C_52
   13  A    between atoms: C_44  and  O_50
                            x       y       z     vdW  Elec       q    Type
                         _______ _______ _______ _____ _____    ______ ____

>  <TORSDO>
F 13

$$$$
=
 OpenBabel11072412503D

 52 57  0  0  1  0  0  0  0  0999 V2000
  161.5830  209.1260  148.4680 O   0  0  0  0  0  0  0  0  0  0  0  0
  162.0010  209.4920  151.0760 C   0  0  2  0  0  0  0  0  0  0  0  0
  162.3890  208.1240  150.8260 C   0  0  2  0  0  3  0  0  0  0  0  0
  161.8770  208.9800  149.6430 C   0  0  0  0  0  0  0  0  0  0  0  0
  163.0740  210.3720  151.2180 O   0  0  0  0  0  1  0  0  0  0  0  0
  160.1230  203.8830  152.9580 O   0  0  0  0  0  1  0  0  0  0  0  0
  161.8550  202.8690  151.6920 C   0  0  0  0  0  2  0  0  0  0  0  0
  162.3820  202.9360  150.3930 O   0  0  0  0  0  0  0  0  0  0  0  0
  161.3510  207.0820  151.2340 C   0  0  2  0  0  3  0  0  0  0  0  0
  162.1340  205.1280  152.6800 C   0  0  0  0  0  2  0  0  0  0  0  0
  158.9640  203.1370  149.8820 O   0  0  0  0  0  1  0  0  0  0  0  0
  161.1240  204.1710  152.0300 C   0  0  2  0  0  0  0  0  0  0  0  0
  161.6380  206.5750  152.6580 C   0  0  0  0  0  2  0  0  0  0  0  0
  160.4630  204.7870  150.7610 C   0  0  1  0  0  3  0  0  0  0  0  0
  161.3050  202.7020  149.5160 C   0  0  1  0  0  3  0  0  0  0  0  0
  161.2640  205.9580  150.1990 C   0  0  0  0  0  2  0  0  0  0  0  0
  160.1890  203.7680  149.6520 C   0  0  1  0  0  3  0  0  0  0  0  0
  160.8060  203.3010  145.9330 C   0  0  0  0  0  2  0  0  0  0  0  0
  161.4620  200.1590  147.7010 C   0  0  0  0  0  2  0  0  0  0  0  0
  161.0130  201.1170  145.0110 F   0  0  0  0  0  0  0  0  0  0  0  0
  159.1560  201.5980  146.2440 O   0  0  0  0  0  1  0  0  0  0  0  0
  161.8270  202.5880  148.0740 C   0  0  1  0  0  3  0  0  0  0  0  0
  161.2370  201.4280  147.3510 C   0  0  0  0  0  0  0  0  0  0  0  0
  161.4190  203.8030  147.2440 C   0  0  1  0  0  3  0  0  0  0  0  0
  160.5270  201.8140  146.1030 C   0  0  2  0  0  0  0  0  0  0  0  0
  162.2550  206.0410  147.4020 O   0  0  0  0  0  1  0  0  0  0  0  0
  162.5980  204.7440  147.0150 C   0  0  0  0  0  3  0  0  0  0  0  0
  162.9890  204.7420  145.6740 O   0  0  0  0  0  1  0  0  0  0  0  0
  160.6770  209.9160  151.7470 C   0  0  1  0  0  3  0  0  0  0  0  0
  160.5830  209.4490  153.0640 O   0  0  0  0  0  1  0  0  0  0  0  0
  160.5020  211.4460  151.6830 C   0  0  2  0  0  3  0  0  0  0  0  0
  160.6710  211.6010  154.2440 C   0  0  0  0  0  2  0  0  0  0  0  0
  160.0130  212.1380  152.9680 C   0  0  2  0  0  3  0  0  0  0  0  0
  160.0520  212.2230  155.5080 C   0  0  1  0  0  3  0  0  0  0  0  0
  158.6090  212.0710  153.0680 O   0  0  0  0  0  0  0  0  0  0  0  0
  159.1230  213.3960  155.1660 C   0  0  0  0  0  2  0  0  0  0  0  0
  158.1480  213.0190  154.0260 C   0  0  1  0  0  3  0  0  0  0  0  0
  159.3400  211.1630  156.3510 C   0  0  2  0  0  3  0  0  0  0  0  0
  158.3550  211.7630  157.1370 O   0  0  0  0  0  1  0  0  0  0  0  0
  160.3370  210.4540  157.2610 C   0  0  1  0  0  3  0  0  0  0  0  0
  160.0880  208.9550  157.2610 C   0  0  0  0  0  2  0  0  0  0  0  0
  161.2060  209.5340  156.4220 C   0  0  2  0  0  3  0  0  0  0  0  0
  163.2790  210.6380  157.2160 C   0  0  0  0  0  1  0  0  0  0  0  0
  162.5280  209.3220  157.1270 C   0  0  0  0  0  2  0  0  0  0  0  0
  156.1300  213.9550  153.5260 C   0  0  0  0  0  1  0  0  0  0  0  0
  157.5180  214.1300  153.4310 O   0  0  0  0  0  0  0  0  0  0  0  0
  159.8990  211.9090  150.4910 O   0  0  0  0  0  0  0  0  0  0  0  0
  160.5760  213.0560  150.0460 C   0  0  1  0  0  3  0  0  0  0  0  0
  161.5620  212.6680  148.9550 C   0  0  0  0  0  1  0  0  0  0  0  0
  159.3890  213.9790  148.1690 O   0  0  0  0  0  1  0  0  0  0  0  0
  158.3530  213.9740  150.2060 O   0  0  0  0  0  1  0  0  0  0  0  0
  159.5780  214.1010  149.5480 C   0  0  0  0  0  3  0  0  0  0  0  0
  1  4  2  0  0  0  0
  2  5  1  1  0  0  0
  2 29  1  0  0  0  0
  3  4  1  6  0  0  0
  3  2  1  0  0  0  0
  3  9  1  0  0  0  0
  4  2  1  0  0  0  0
  7 12  1  0  0  0  0
  8  7  1  0  0  0  0
  9 16  1  6  0  0  0
  9 13  1  0  0  0  0
 12 10  1  0  0  0  0
 12  6  1  1  0  0  0
 13 10  1  0  0  0  0
 14 16  1  6  0  0  0
 14 12  1  0  0  0  0
 15 17  1  0  0  0  0
 15  8  1  1  0  0  0
 17 11  1  1  0  0  0
 17 14  1  0  0  0  0
 18 25  1  0  0  0  0
 18 24  1  0  0  0  0
 22 23  1  6  0  0  0
 22 15  1  0  0  0  0
 23 19  2  0  0  0  0
 24 27  1  6  0  0  0
 24 22  1  0  0  0  0
 25 20  1  6  0  0  0
 25 21  1  0  0  0  0
 25 23  1  0  0  0  0
 27 26  1  0  0  0  0
 28 27  1  0  0  0  0
 29 30  1  1  0  0  0
 31 47  1  6  0  0  0
 31 29  1  0  0  0  0
 32 34  1  0  0  0  0
 33 31  1  6  0  0  0
 33 35  1  0  0  0  0
 33 32  1  0  0  0  0
 34 38  1  6  0  0  0
 35 37  1  0  0  0  0
 36 34  1  0  0  0  0
 37 46  1  6  0  0  0
 37 36  1  0  0  0  0
 38 39  1  1  0  0  0
 40 38  1  6  0  0  0
 41 40  1  0  0  0  0
 42 44  1  1  0  0  0
 42 41  1  0  0  0  0
 42 40  1  0  0  0  0
 44 43  1  0  0  0  0
 46 45  1  0  0  0  0
 48 49  1  6  0  0  0
 48 47  1  0  0  0  0
 50 52  1  0  0  0  0
 52 48  1  0  0  0  0
 52 51  1  0  0  0  0
M  END
>  <MODEL>
2

>  <REMARK>
 VINA RESULT:      -3.0      1.656      3.069
  Name = 
  13 active torsions:
  status: ('A' for Active; 'I' for Inactive)
    1  A    between atoms: C_1  and  C_14
    2  A    between atoms: C_1  and  C_30
    3  A    between atoms: O_7  and  C_12
    4  A    between atoms: O_7  and  C_16
    5  A    between atoms: C_12  and  C_27
    6  A    between atoms: C_12  and  C_28
    7  A    between atoms: C_13  and  C_27
    8  A    between atoms: C_16  and  C_45
    9  A    between atoms: C_17  and  C_19
   10  A    between atoms: C_18  and  C_32
   11  A    between atoms: C_20  and  C_40
   12  A    between atoms: C_37  and  C_52
   13  A    between atoms: C_44  and  O_50
                            x       y       z     vdW  Elec       q    Type
                         _______ _______ _______ _____ _____    ______ ____

>  <TORSDO>
F 13

$$$$
=
 OpenBabel11072412503D

 52 57  0  0  1  0  0  0  0  0999 V2000
  161.1990  208.3260  148.7590 O   0  0  0  0  0  0  0  0  0  0  0  0
  161.8110  208.2910  151.3540 C   0  0  2  0  0  0  0  0  0  0  0  0
  162.2190  206.9980  150.8580 C   0  0  2  0  0  3  0  0  0  0  0  0
  161.5890  208.0080  149.8700 C   0  0  0  0  0  0  0  0  0  0  0  0
  162.8630  209.1830  151.5570 O   0  0  0  0  0  1  0  0  0  0  0  0
  160.2620  202.3780  152.4360 O   0  0  0  0  0  1  0  0  0  0  0  0
  161.9160  201.6540  150.8970 C   0  0  0  0  0  2  0  0  0  0  0  0
  162.3350  201.9500  149.5910 O   0  0  0  0  0  0  0  0  0  0  0  0
  161.2500  205.8600  151.1680 C   0  0  2  0  0  3  0  0  0  0  0  0
  162.2050  203.7370  152.2150 C   0  0  0  0  0  2  0  0  0  0  0  0
  158.8820  202.0830  149.3750 O   0  0  0  0  0  1  0  0  0  0  0  0
  161.1760  202.8530  151.4960 C   0  0  2  0  0  0  0  0  0  0  0  0
  161.6660  205.1460  152.4650 C   0  0  0  0  0  2  0  0  0  0  0  0
  160.3970  203.6340  150.3960 C   0  0  1  0  0  3  0  0  0  0  0  0
  161.1990  201.8130  148.7700 C   0  0  1  0  0  3  0  0  0  0  0  0
  161.1140  204.9130  149.9740 C   0  0  0  0  0  2  0  0  0  0  0  0
  160.0660  202.7940  149.1600 C   0  0  1  0  0  3  0  0  0  0  0  0
  160.4280  203.0180  145.3940 C   0  0  0  0  0  2  0  0  0  0  0  0
  161.1960  199.6230  146.5360 C   0  0  0  0  0  2  0  0  0  0  0  0
  160.5470  201.0280  144.0950 F   0  0  0  0  0  0  0  0  0  0  0  0
  158.7940  201.2770  145.5330 O   0  0  0  0  0  1  0  0  0  0  0  0
  161.6070  201.9520  147.2940 C   0  0  1  0  0  3  0  0  0  0  0  0
  160.9540  200.9310  146.4290 C   0  0  0  0  0  0  0  0  0  0  0  0
  161.1450  203.2900  146.7200 C   0  0  1  0  0  3  0  0  0  0  0  0
  160.1530  201.5230  145.3260 C   0  0  2  0  0  0  0  0  0  0  0  0
  161.8780  205.5680  146.8150 O   0  0  0  0  0  1  0  0  0  0  0  0
  162.3090  204.2640  146.5670 C   0  0  0  0  0  3  0  0  0  0  0  0
  162.8620  204.1880  145.2850 O   0  0  0  0  0  1  0  0  0  0  0  0
  160.5320  208.5460  152.1790 C   0  0  1  0  0  3  0  0  0  0  0  0
  160.2750  207.5080  153.0830 O   0  0  0  0  0  1  0  0  0  0  0  0
  160.6120  209.9060  152.9000 C   0  0  2  0  0  3  0  0  0  0  0  0
  160.4040  211.1990  150.6870 C   0  0  0  0  0  2  0  0  0  0  0  0
  160.0030  211.1130  152.1650 C   0  0  2  0  0  3  0  0  0  0  0  0
  159.8870  212.4920  150.0330 C   0  0  1  0  0  3  0  0  0  0  0  0
  160.3130  212.3130  152.8340 O   0  0  0  0  0  0  0  0  0  0  0  0
  158.8970  213.2320  150.9430 C   0  0  0  0  0  2  0  0  0  0  0  0
  159.4510  213.3530  152.3830 C   0  0  1  0  0  3  0  0  0  0  0  0
  161.0470  213.3930  149.6030 C   0  0  2  0  0  3  0  0  0  0  0  0
  161.1840  214.4520  150.5010 O   0  0  0  0  0  1  0  0  0  0  0  0
  160.7930  213.9530  148.2090 C   0  0  1  0  0  3  0  0  0  0  0  0
  161.9050  213.5450  147.2580 C   0  0  0  0  0  2  0  0  0  0  0  0
  160.5870  212.8010  147.2410 C   0  0  2  0  0  3  0  0  0  0  0  0
  158.3840  212.6260  146.1190 C   0  0  0  0  0  1  0  0  0  0  0  0
  159.7530  213.2790  146.0730 C   0  0  0  0  0  2  0  0  0  0  0  0
  157.3220  214.1220  152.6560 C   0  0  0  0  0  1  0  0  0  0  0  0
  158.4730  213.7000  153.3360 O   0  0  0  0  0  0  0  0  0  0  0  0
  161.8560  210.1550  153.5260 O   0  0  0  0  0  0  0  0  0  0  0  0
  161.7560  209.8440  154.8910 C   0  0  1  0  0  3  0  0  0  0  0  0
  162.7080  210.7310  155.6810 C   0  0  0  0  0  1  0  0  0  0  0  0
  159.8930  208.8720  156.0590 O   0  0  0  0  0  1  0  0  0  0  0  0
  160.1890  211.1350  156.1920 O   0  0  0  0  0  1  0  0  0  0  0  0
  160.3150  210.0110  155.3700 C   0  0  0  0  0  3  0  0  0  0  0  0
  1  4  2  0  0  0  0
  2  5  1  1  0  0  0
  2 29  1  0  0  0  0
  3  4  1  6  0  0  0
  3  9  1  0  0  0  0
  3  2  1  0  0  0  0
  4  2  1  0  0  0  0
  7 12  1  0  0  0  0
  8  7  1  0  0  0  0
  9 16  1  6  0  0  0
  9 13  1  0  0  0  0
 10 13  1  0  0  0  0
 12 10  1  0  0  0  0
 12  6  1  1  0  0  0
 14 16  1  6  0  0  0
 14 12  1  0  0  0  0
 15 17  1  0  0  0  0
 15  8  1  1  0  0  0
 17 11  1  1  0  0  0
 17 14  1  0  0  0  0
 18 24  1  0  0  0  0
 22 23  1  6  0  0  0
 22 15  1  0  0  0  0
 23 19  2  0  0  0  0
 24 27  1  6  0  0  0
 24 22  1  0  0  0  0
 25 20  1  6  0  0  0
 25 18  1  0  0  0  0
 25 21  1  0  0  0  0
 25 23  1  0  0  0  0
 27 26  1  0  0  0  0
 28 27  1  0  0  0  0
 29 31  1  0  0  0  0
 29 30  1  1  0  0  0
 31 47  1  6  0  0  0
 32 33  1  0  0  0  0
 33 35  1  0  0  0  0
 33 31  1  1  0  0  0
 34 38  1  1  0  0  0
 34 32  1  0  0  0  0
 34 36  1  0  0  0  0
 36 37  1  0  0  0  0
 37 35  1  0  0  0  0
 37 46  1  1  0  0  0
 38 39  1  1  0  0  0
 40 38  1  1  0  0  0
 41 40  1  0  0  0  0
 42 44  1  6  0  0  0
 42 41  1  0  0  0  0
 42 40  1  0  0  0  0
 44 43  1  0  0  0  0
 45 46  1  0  0  0  0
 47 48  1  0  0  0  0
 48 52  1  0  0  0  0
 48 49  1  1  0  0  0
 52 50  1  0  0  0  0
 52 51  1  0  0  0  0
M  END
>  <MODEL>
3

>  <REMARK>
 VINA RESULT:      -2.3      1.755      4.524
  Name = 
  13 active torsions:
  status: ('A' for Active; 'I' for Inactive)
    1  A    between atoms: C_1  and  C_14
    2  A    between atoms: C_1  and  C_30
    3  A    between atoms: O_7  and  C_12
    4  A    between atoms: O_7  and  C_16
    5  A    between atoms: C_12  and  C_27
    6  A    between atoms: C_12  and  C_28
    7  A    between atoms: C_13  and  C_27
    8  A    between atoms: C_16  and  C_45
    9  A    between atoms: C_17  and  C_19
   10  A    between atoms: C_18  and  C_32
   11  A    between atoms: C_20  and  C_40
   12  A    between atoms: C_37  and  C_52
   13  A    between atoms: C_44  and  O_50
                            x       y       z     vdW  Elec       q    Type
                         _______ _______ _______ _____ _____    ______ ____

>  <TORSDO>
F 13

$$$$
=
 OpenBabel11072412503D

 52 57  0  0  1  0  0  0  0  0999 V2000
  161.6870  208.5080  148.8780 O   0  0  0  0  0  0  0  0  0  0  0  0
  161.8300  209.0310  151.4880 C   0  0  2  0  0  0  0  0  0  0  0  0
  162.4800  207.7520  151.3290 C   0  0  2  0  0  3  0  0  0  0  0  0
  161.9120  208.4570  150.0760 C   0  0  0  0  0  0  0  0  0  0  0  0
  162.7090  210.1000  151.6630 O   0  0  0  0  0  1  0  0  0  0  0  0
  160.9710  202.8560  152.5230 O   0  0  0  0  0  1  0  0  0  0  0  0
  161.9890  202.5010  150.4090 C   0  0  0  0  0  2  0  0  0  0  0  0
  161.9610  203.0640  149.1240 O   0  0  0  0  0  0  0  0  0  0  0  0
  161.6230  206.5480  151.7130 C   0  0  2  0  0  3  0  0  0  0  0  0
  162.7840  204.2860  151.9390 C   0  0  0  0  0  2  0  0  0  0  0  0
  158.6410  203.1410  150.1050 O   0  0  0  0  0  1  0  0  0  0  0  0
  161.5390  203.5350  151.4450 C   0  0  2  0  0  0  0  0  0  0  0  0
  162.4170  205.6010  152.6290 C   0  0  0  0  0  2  0  0  0  0  0  0
  160.4710  204.4990  150.8470 C   0  0  1  0  0  3  0  0  0  0  0  0
  160.6120  203.0620  148.7200 C   0  0  1  0  0  3  0  0  0  0  0  0
  161.0590  205.8550  150.4710 C   0  0  0  0  0  2  0  0  0  0  0  0
  159.7140  203.9140  149.6520 C   0  0  1  0  0  3  0  0  0  0  0  0
  162.0810  203.1830  145.3620 C   0  0  0  0  0  2  0  0  0  0  0  0
  160.9830  205.9300  147.5250 C   0  0  0  0  0  2  0  0  0  0  0  0
  162.1530  205.5190  144.9140 F   0  0  0  0  0  0  0  0  0  0  0  0
  163.5920  204.6710  146.4660 O   0  0  0  0  0  1  0  0  0  0  0  0
  160.5110  203.5060  147.2510 C   0  0  1  0  0  3  0  0  0  0  0  0
  161.2870  204.7480  146.9820 C   0  0  0  0  0  0  0  0  0  0  0  0
  161.1240  202.4640  146.3180 C   0  0  1  0  0  3  0  0  0  0  0  0
  162.3120  204.5810  145.9180 C   0  0  2  0  0  0  0  0  0  0  0  0
  160.4940  200.3700  145.3410 O   0  0  0  0  0  1  0  0  0  0  0  0
  160.0490  201.6710  145.5830 C   0  0  0  0  0  3  0  0  0  0  0  0
  159.7120  202.2840  144.3730 O   0  0  0  0  0  1  0  0  0  0  0  0
  160.4030  209.2220  152.0460 C   0  0  1  0  0  3  0  0  0  0  0  0
  160.0810  208.2560  153.0060 O   0  0  0  0  0  1  0  0  0  0  0  0
  160.2260  210.6470  152.6060 C   0  0  2  0  0  3  0  0  0  0  0  0
  158.7620  211.3030  154.6140 C   0  0  0  0  0  2  0  0  0  0  0  0
  160.1200  210.7790  154.1350 C   0  0  2  0  0  3  0  0  0  0  0  0
  158.7510  211.5490  156.1330 C   0  0  1  0  0  3  0  0  0  0  0  0
  161.1660  211.5750  154.6420 O   0  0  0  0  0  0  0  0  0  0  0  0
  160.0010  210.9720  156.8100 C   0  0  0  0  0  2  0  0  0  0  0  0
  161.2850  211.3790  156.0470 C   0  0  1  0  0  3  0  0  0  0  0  0
  158.5690  213.0360  156.4480 C   0  0  2  0  0  3  0  0  0  0  0  0
  159.6600  213.5020  157.1850 O   0  0  0  0  0  1  0  0  0  0  0  0
  157.2960  213.2540  157.2560 C   0  0  1  0  0  3  0  0  0  0  0  0
  156.4820  214.3970  156.6720 C   0  0  0  0  0  2  0  0  0  0  0  0
  156.0940  212.9650  156.3730 C   0  0  2  0  0  3  0  0  0  0  0  0
  154.5950  211.1010  157.0270 C   0  0  0  0  0  1  0  0  0  0  0  0
  154.9230  212.5670  157.2450 C   0  0  0  0  0  2  0  0  0  0  0  0
  163.4890  211.0200  155.5890 C   0  0  0  0  0  1  0  0  0  0  0  0
  162.4160  210.6150  156.3960 O   0  0  0  0  0  0  0  0  0  0  0  0
  159.3160  211.4460  151.8750 O   0  0  0  0  0  0  0  0  0  0  0  0
  159.8870  212.7080  151.6490 C   0  0  1  0  0  3  0  0  0  0  0  0
  160.6240  212.6970  150.3180 C   0  0  0  0  0  1  0  0  0  0  0  0
  158.7450  214.4510  150.4490 O   0  0  0  0  0  1  0  0  0  0  0  0
  157.5610  213.2440  151.9860 O   0  0  0  0  0  1  0  0  0  0  0  0
  158.8090  213.7910  151.6780 C   0  0  0  0  0  3  0  0  0  0  0  0
  1  4  2  0  0  0  0
  2  5  1  1  0  0  0
  2 29  1  0  0  0  0
  3  4  1  6  0  0  0
  3  2  1  0  0  0  0
  3  9  1  0  0  0  0
  4  2  1  0  0  0  0
  7 12  1  0  0  0  0
  8  7  1  0  0  0  0
  9 16  1  6  0  0  0
  9 13  1  0  0  0  0
 10 13  1  0  0  0  0
 12 10  1  0  0  0  0
 12  6  1  1  0  0  0
 14 16  1  6  0  0  0
 14 12  1  0  0  0  0
 15  8  1  1  0  0  0
 15 17  1  0  0  0  0
 17 11  1  1  0  0  0
 17 14  1  0  0  0  0
 18 25  1  0  0  0  0
 18 24  1  0  0  0  0
 22 23  1  1  0  0  0
 22 15  1  0  0  0  0
 23 19  2  0  0  0  0
 24 27  1  6  0  0  0
 24 22  1  0  0  0  0
 25 20  1  6  0  0  0
 25 21  1  0  0  0  0
 25 23  1  0  0  0  0
 26 27  1  0  0  0  0
 28 27  1  0  0  0  0
 29 31  1  0  0  0  0
 29 30  1  1  0  0  0
 31 47  1  6  0  0  0
 32 34  1  0  0  0  0
 33 31  1  6  0  0  0
 33 32  1  0  0  0  0
 33 35  1  0  0  0  0
 34 38  1  6  0  0  0
 34 36  1  0  0  0  0
 35 37  1  0  0  0  0
 37 46  1  6  0  0  0
 37 36  1  0  0  0  0
 38 39  1  1  0  0  0
 40 38  1  6  0  0  0
 41 40  1  0  0  0  0
 42 41  1  0  0  0  0
 42 44  1  1  0  0  0
 42 40  1  0  0  0  0
 43 44  1  0  0  0  0
 45 46  1  0  0  0  0
 48 49  1  6  0  0  0
 48 52  1  0  0  0  0
 48 47  1  0  0  0  0
 50 52  1  0  0  0  0
 52 51  1  0  0  0  0
M  END
>  <MODEL>
4

>  <REMARK>
 VINA RESULT:      -1.6      1.257      2.161
  Name = 
  13 active torsions:
  status: ('A' for Active; 'I' for Inactive)
    1  A    between atoms: C_1  and  C_14
    2  A    between atoms: C_1  and  C_30
    3  A    between atoms: O_7  and  C_12
    4  A    between atoms: O_7  and  C_16
    5  A    between atoms: C_12  and  C_27
    6  A    between atoms: C_12  and  C_28
    7  A    between atoms: C_13  and  C_27
    8  A    between atoms: C_16  and  C_45
    9  A    between atoms: C_17  and  C_19
   10  A    between atoms: C_18  and  C_32
   11  A    between atoms: C_20  and  C_40
   12  A    between atoms: C_37  and  C_52
   13  A    between atoms: C_44  and  O_50
                            x       y       z     vdW  Elec       q    Type
                         _______ _______ _______ _____ _____    ______ ____

>  <TORSDO>
F 13

$$$$
