=
 OpenBabel11072413213D

 44 49  0  0  1  0  0  0  0  0999 V2000
  161.3620  209.5700  153.7500 C   0  0  2  0  0  3  0  0  0  0  0  0
  159.9750  209.7730  156.6130 C   0  0  0  0  0  2  0  0  0  0  0  0
  158.2580  210.8400  155.3940 O   0  0  0  0  0  0  0  0  0  0  0  0
  161.6550  208.1950  156.0750 C   0  0  2  0  0  0  0  0  0  0  0  0
  160.0660  210.2020  154.0440 N   0  0  0  0  0  0  0  0  0  0  0  0
  161.7240  210.0110  152.3440 C   0  0  0  0  0  2  0  0  0  0  0  0
  160.4250  210.4900  151.7200 C   0  0  0  0  0  2  0  0  0  0  0  0
  161.9000  207.3790  154.9630 O   0  0  0  0  0  0  0  0  0  0  0  0
  159.5420  210.9030  152.8800 C   0  0  2  0  0  3  0  0  0  0  0  0
  161.1400  207.6220  157.2450 O   0  0  0  0  0  0  0  0  0  0  0  0
  159.3960  210.3040  155.3330 C   0  0  0  0  0  0  0  0  0  0  0  0
  160.2180  208.3010  156.4090 C   0  0  1  0  0  3  0  0  0  0  0  0
  161.3500  208.0070  153.8030 C   0  0  1  0  0  3  0  0  0  0  0  0
  162.5720  209.2220  156.3520 O   0  0  0  0  0  1  0  0  0  0  0  0
  159.6770  212.4060  153.0840 C   0  0  0  0  0  2  0  0  0  0  0  0
  158.4300  213.1340  152.5890 C   0  0  2  0  0  3  0  0  0  0  0  0
  158.6210  213.8140  151.2260 C   0  0  2  0  0  3  0  0  0  0  0  0
  157.8260  213.1980  150.2570 O   0  0  0  0  0  1  0  0  0  0  0  0
  160.2180  213.3690  149.4800 O   0  0  0  0  0  1  0  0  0  0  0  0
  160.0730  213.9150  150.7550 C   0  0  0  0  0  2  0  0  0  0  0  0
  157.8690  214.0890  153.6420 C   0  0  0  0  0  2  0  0  0  0  0  0
  156.5530  214.4530  153.3330 O   0  0  0  0  0  0  0  0  0  0  0  0
  155.6050  213.8710  154.6150 P   0  0  0  0  0  0  0  0  0  0  0  0
  155.5780  212.3600  154.5900 O   0  0  0  0  0  1  0  0  0  0  0  0
  156.2260  214.4040  156.0970 O   0  0  0  0  0  1  0  0  0  0  0  0
  154.0250  214.4530  154.4350 O   0  0  0  0  0  0  0  0  0  0  0  0
  159.7840  207.2240  153.2820 S   0  0  0  0  0  0  0  0  0  0  0  0
  160.6080  205.2310  151.6100 C   0  0  1  0  0  3  0  0  0  0  0  0
  161.8450  204.9130  152.2010 O   0  0  0  0  0  0  0  0  0  0  0  0
  162.7220  206.4480  150.4720 C   0  0  1  0  0  3  0  0  0  0  0  0
  161.9980  205.4740  149.6110 N   0  0  0  0  0  0  0  0  0  0  0  0
  161.8930  207.1950  151.5400 C   0  0  1  0  0  3  0  0  0  0  0  0
  160.4690  206.7220  151.6760 C   0  0  2  0  0  3  0  0  0  0  0  0
  160.7310  204.9290  150.1300 C   0  0  0  0  0  2  0  0  0  0  0  0
  162.7200  205.9980  151.9470 C   0  0  1  0  0  3  0  0  0  0  0  0
  162.6970  207.2790  147.8290 O   0  0  0  0  0  0  0  0  0  0  0  0
  160.3530  206.6390  147.8990 O   0  0  0  0  0  0  0  0  0  0  0  0
  161.7580  206.1230  148.0130 S   0  0  0  0  0  0  0  0  0  0  0  0
  163.4110  205.0120  146.3600 F   0  0  0  0  0  0  0  0  0  0  0  0
  162.0690  204.9470  146.6940 C   0  0  0  0  0  0  0  0  0  0  0  0
  161.7970  203.6620  147.1240 F   0  0  0  0  0  0  0  0  0  0  0  0
  160.1350  206.0270  145.5860 F   0  0  0  0  0  0  0  0  0  0  0  0
  161.5860  204.8470  144.3760 O   0  0  0  0  0  0  0  0  0  0  0  0
  161.2550  205.2660  145.4740 C   0  0  0  0  0  0  0  0  0  0  0  0
  1  6  1  6  0  0  0
  1 13  1  0  0  0  0
  1  5  1  0  0  0  0
  4 14  1  1  0  0  0
  4 12  1  0  0  0  0
  4 10  1  0  0  0  0
  5 11  1  0  0  0  0
  7  6  1  0  0  0  0
  7  9  1  0  0  0  0
  8  4  1  0  0  0  0
  9 15  1  1  0  0  0
  9  5  1  0  0  0  0
 11  3  2  0  0  0  0
 11  2  1  0  0  0  0
 12  2  1  1  0  0  0
 12 10  1  0  0  0  0
 13 27  1  1  0  0  0
 13  8  1  0  0  0  0
 16 15  1  1  0  0  0
 16 21  1  0  0  0  0
 17 18  1  6  0  0  0
 17 16  1  0  0  0  0
 19 20  1  0  0  0  0
 20 17  1  0  0  0  0
 22 21  1  0  0  0  0
 22 23  1  0  0  0  0
 23 25  1  0  0  0  0
 24 23  1  0  0  0  0
 26 23  2  0  0  0  0
 28 34  1  6  0  0  0
 28 33  1  0  0  0  0
 28 29  1  0  0  0  0
 30 31  1  6  0  0  0
 30 32  1  0  0  0  0
 30 35  1  0  0  0  0
 31 34  1  0  0  0  0
 32 33  1  0  0  0  0
 32 35  1  0  0  0  0
 33 27  1  0  0  0  0
 35 29  1  0  0  0  0
 36 38  2  0  0  0  0
 37 38  2  0  0  0  0
 38 31  1  0  0  0  0
 39 40  1  0  0  0  0
 40 41  1  0  0  0  0
 40 38  1  0  0  0  0
 43 44  2  0  0  0  0
 44 42  1  0  0  0  0
 44 40  1  0  0  0  0
M  END
>  <MODEL>
1

>  <REMARK>
 VINA RESULT:      -4.0      0.000      0.000
  Name = 
  12 active torsions:
  status: ('A' for Active; 'I' for Inactive)
    1  A    between atoms: C_5  and  C_19
    2  A    between atoms: C_5  and  C_31
    3  A    between atoms: C_6  and  C_19
    4  A    between atoms: C_6  and  C_24
    5  A    between atoms: C_14  and  C_19
    6  A    between atoms: C_14  and  O_37
    7  A    between atoms: C_15  and  C_23
    8  A    between atoms: C_15  and  S_41
    9  A    between atoms: S_17  and  C_32
   10  A    between atoms: S_17  and  C_42
   11  A    between atoms: N_21  and  S_41
   12  A    between atoms: P_26  and  O_37
                            x       y       z     vdW  Elec       q    Type
                         _______ _______ _______ _____ _____    ______ ____

>  <TORSDO>
F 12

$$$$
=
 OpenBabel11072413213D

 44 49  0  0  1  0  0  0  0  0999 V2000
  162.4510  207.0480  151.9370 C   0  0  2  0  0  3  0  0  0  0  0  0
  161.3070  208.5870  149.3900 C   0  0  0  0  0  2  0  0  0  0  0  0
  160.0700  206.5980  149.0940 O   0  0  0  0  0  0  0  0  0  0  0  0
  162.2780  209.6720  151.2560 C   0  0  2  0  0  0  0  0  0  0  0  0
  161.4840  206.5160  150.9620 N   0  0  0  0  0  0  0  0  0  0  0  0
  162.9130  205.8520  152.7490 C   0  0  0  0  0  2  0  0  0  0  0  0
  161.8650  204.7770  152.5260 C   0  0  0  0  0  2  0  0  0  0  0  0
  162.1790  209.4950  152.6420 O   0  0  0  0  0  0  0  0  0  0  0  0
  161.2240  205.1010  151.1920 C   0  0  2  0  0  3  0  0  0  0  0  0
  161.6180  210.7510  150.6550 O   0  0  0  0  0  0  0  0  0  0  0  0
  160.9310  207.1900  149.7970 C   0  0  0  0  0  0  0  0  0  0  0  0
  160.9880  209.4850  150.5560 C   0  0  1  0  0  3  0  0  0  0  0  0
  161.8680  208.1250  152.9080 C   0  0  1  0  0  3  0  0  0  0  0  0
  163.5130  209.4050  150.6460 O   0  0  0  0  0  1  0  0  0  0  0  0
  161.9060  204.2740  150.1100 C   0  0  0  0  0  2  0  0  0  0  0  0
  160.8760  203.5020  149.2900 C   0  0  2  0  0  3  0  0  0  0  0  0
  160.4470  202.1780  149.9370 C   0  0  2  0  0  3  0  0  0  0  0  0
  161.5050  201.6230  150.6610 O   0  0  0  0  0  1  0  0  0  0  0  0
  158.4670  201.0900  149.1060 O   0  0  0  0  0  1  0  0  0  0  0  0
  159.8530  201.1510  148.9700 C   0  0  0  0  0  2  0  0  0  0  0  0
  161.3190  203.3230  147.8370 C   0  0  0  0  0  2  0  0  0  0  0  0
  162.0500  204.4330  147.4000 O   0  0  0  0  0  0  0  0  0  0  0  0
  161.4960  204.7540  145.8280 P   0  0  0  0  0  0  0  0  0  0  0  0
  162.6350  205.2650  144.9750 O   0  0  0  0  0  0  0  0  0  0  0  0
  160.8490  203.3520  145.1330 O   0  0  0  0  0  1  0  0  0  0  0  0
  160.2910  205.9410  145.9050 O   0  0  0  0  0  1  0  0  0  0  0  0
  160.1110  207.9000  153.3570 S   0  0  0  0  0  0  0  0  0  0  0  0
  161.4320  209.5900  155.0430 C   0  0  1  0  0  3  0  0  0  0  0  0
  161.4340  208.8110  156.2160 O   0  0  0  0  0  0  0  0  0  0  0  0
  159.4360  210.1650  156.7550 C   0  0  1  0  0  3  0  0  0  0  0  0
  160.4330  211.2490  156.5390 N   0  0  0  0  0  0  0  0  0  0  0  0
  159.1790  209.2000  155.5750 C   0  0  1  0  0  3  0  0  0  0  0  0
  160.0950  209.3910  154.3950 C   0  0  2  0  0  3  0  0  0  0  0  0
  161.4300  211.0430  155.4730 C   0  0  0  0  0  2  0  0  0  0  0  0
  160.1000  208.7750  156.6940 C   0  0  1  0  0  3  0  0  0  0  0  0
  160.6080  213.8690  156.6900 O   0  0  0  0  0  0  0  0  0  0  0  0
  158.4670  212.8660  157.2590 O   0  0  0  0  0  0  0  0  0  0  0  0
  159.6390  212.7840  156.3230 S   0  0  0  0  0  0  0  0  0  0  0  0
  158.9100  214.4510  154.4820 F   0  0  0  0  0  0  0  0  0  0  0  0
  159.0820  213.0870  154.6440 C   0  0  0  0  0  0  0  0  0  0  0  0
  160.0390  212.6670  153.7400 F   0  0  0  0  0  0  0  0  0  0  0  0
  156.6880  212.6840  155.1340 F   0  0  0  0  0  0  0  0  0  0  0  0
  157.6750  211.5880  153.4650 O   0  0  0  0  0  0  0  0  0  0  0  0
  157.7750  212.4020  154.3690 C   0  0  0  0  0  0  0  0  0  0  0  0
  1  6  1  1  0  0  0
  1 13  1  0  0  0  0
  2 11  1  0  0  0  0
  3 11  2  0  0  0  0
  4 14  1  6  0  0  0
  4  8  1  0  0  0  0
  5  9  1  0  0  0  0
  5  1  1  0  0  0  0
  7  6  1  0  0  0  0
  8 13  1  0  0  0  0
  9 15  1  6  0  0  0
  9  7  1  0  0  0  0
 10  4  1  0  0  0  0
 11  5  1  0  0  0  0
 12  2  1  6  0  0  0
 12 10  1  0  0  0  0
 12  4  1  0  0  0  0
 13 27  1  6  0  0  0
 16 21  1  6  0  0  0
 16 17  1  0  0  0  0
 16 15  1  0  0  0  0
 17 18  1  6  0  0  0
 20 19  1  0  0  0  0
 20 17  1  0  0  0  0
 22 21  1  0  0  0  0
 23 26  1  0  0  0  0
 23 22  1  0  0  0  0
 24 23  2  0  0  0  0
 25 23  1  0  0  0  0
 27 33  1  0  0  0  0
 28 34  1  1  0  0  0
 28 29  1  0  0  0  0
 29 35  1  0  0  0  0
 30 31  1  6  0  0  0
 32 35  1  0  0  0  0
 32 30  1  0  0  0  0
 33 28  1  0  0  0  0
 33 32  1  0  0  0  0
 34 31  1  0  0  0  0
 35 30  1  0  0  0  0
 38 31  1  0  0  0  0
 38 36  2  0  0  0  0
 38 37  2  0  0  0  0
 39 40  1  0  0  0  0
 40 38  1  0  0  0  0
 41 40  1  0  0  0  0
 43 44  2  0  0  0  0
 44 40  1  0  0  0  0
 44 42  1  0  0  0  0
M  END
>  <MODEL>
2

>  <REMARK>
 VINA RESULT:      -2.7      4.416      9.553
  Name = 
  12 active torsions:
  status: ('A' for Active; 'I' for Inactive)
    1  A    between atoms: C_5  and  C_19
    2  A    between atoms: C_5  and  C_31
    3  A    between atoms: C_6  and  C_19
    4  A    between atoms: C_6  and  C_24
    5  A    between atoms: C_14  and  C_19
    6  A    between atoms: C_14  and  O_37
    7  A    between atoms: C_15  and  C_23
    8  A    between atoms: C_15  and  S_41
    9  A    between atoms: S_17  and  C_32
   10  A    between atoms: S_17  and  C_42
   11  A    between atoms: N_21  and  S_41
   12  A    between atoms: P_26  and  O_37
                            x       y       z     vdW  Elec       q    Type
                         _______ _______ _______ _____ _____    ______ ____

>  <TORSDO>
F 12

$$$$
=
 OpenBabel11072413213D

 44 49  0  0  1  0  0  0  0  0999 V2000
  162.2600  208.1890  152.0740 C   0  0  2  0  0  3  0  0  0  0  0  0
  160.8500  206.5130  154.3890 C   0  0  0  0  0  2  0  0  0  0  0  0
  159.3920  208.3690  154.4600 O   0  0  0  0  0  0  0  0  0  0  0  0
  162.2290  205.5520  152.7240 C   0  0  2  0  0  0  0  0  0  0  0  0
  161.0930  208.6120  152.8650 N   0  0  0  0  0  0  0  0  0  0  0  0
  162.7380  209.4350  151.3500 C   0  0  0  0  0  2  0  0  0  0  0  0
  161.5670  210.4010  151.3850 C   0  0  0  0  0  2  0  0  0  0  0  0
  162.3540  205.7370  151.3410 O   0  0  0  0  0  0  0  0  0  0  0  0
  160.7400  209.9980  152.5890 C   0  0  2  0  0  3  0  0  0  0  0  0
  161.5840  204.4060  153.2050 O   0  0  0  0  0  0  0  0  0  0  0  0
  160.4150  207.8720  153.9190 C   0  0  0  0  0  0  0  0  0  0  0  0
  160.8260  205.6040  153.1890 C   0  0  1  0  0  3  0  0  0  0  0  0
  161.9620  207.0740  151.0200 C   0  0  1  0  0  3  0  0  0  0  0  0
  163.3090  205.9280  153.5380 O   0  0  0  0  0  1  0  0  0  0  0  0
  161.1410  210.8730  153.7700 C   0  0  0  0  0  2  0  0  0  0  0  0
  160.0200  211.8460  154.1280 C   0  0  2  0  0  3  0  0  0  0  0  0
  159.7610  211.9490  155.6370 C   0  0  2  0  0  3  0  0  0  0  0  0
  159.9730  213.2560  156.0810 O   0  0  0  0  0  1  0  0  0  0  0  0
  161.8180  211.4310  156.7750 O   0  0  0  0  0  1  0  0  0  0  0  0
  160.5410  210.9500  156.4940 C   0  0  0  0  0  2  0  0  0  0  0  0
  158.7440  211.5640  153.3350 C   0  0  0  0  0  2  0  0  0  0  0  0
  158.3470  212.6950  152.6130 O   0  0  0  0  0  0  0  0  0  0  0  0
  157.0190  213.3320  153.4560 P   0  0  0  0  0  0  0  0  0  0  0  0
  157.4730  214.4530  154.3630 O   0  0  0  0  0  1  0  0  0  0  0  0
  155.8550  213.9140  152.3720 O   0  0  0  0  0  0  0  0  0  0  0  0
  156.3310  212.1050  154.4000 O   0  0  0  0  0  1  0  0  0  0  0  0
  160.2950  207.1350  150.2740 S   0  0  0  0  0  0  0  0  0  0  0  0
  162.2170  206.6920  148.3880 C   0  0  1  0  0  3  0  0  0  0  0  0
  162.0680  207.8560  147.6100 O   0  0  0  0  0  0  0  0  0  0  0  0
  160.6530  206.3790  146.2200 C   0  0  1  0  0  3  0  0  0  0  0  0
  161.9210  205.6000  146.2180 N   0  0  0  0  0  0  0  0  0  0  0  0
  160.0080  206.6710  147.5930 C   0  0  1  0  0  3  0  0  0  0  0  0
  160.8380  206.2550  148.7800 C   0  0  2  0  0  3  0  0  0  0  0  0
  162.7110  205.5980  147.4620 C   0  0  0  0  0  2  0  0  0  0  0  0
  160.8360  207.7400  146.9200 C   0  0  1  0  0  3  0  0  0  0  0  0
  162.8890  203.4640  145.0250 O   0  0  0  0  0  0  0  0  0  0  0  0
  160.5360  203.9610  144.6720 O   0  0  0  0  0  0  0  0  0  0  0  0
  161.6400  203.9650  145.6900 S   0  0  0  0  0  0  0  0  0  0  0  0
  162.3160  202.7510  147.8740 F   0  0  0  0  0  0  0  0  0  0  0  0
  161.2300  202.8290  147.0180 C   0  0  0  0  0  0  0  0  0  0  0  0
  160.1510  203.3040  147.7370 F   0  0  0  0  0  0  0  0  0  0  0  0
  160.3540  201.3080  145.2700 F   0  0  0  0  0  0  0  0  0  0  0  0
  161.2090  200.4630  147.1460 O   0  0  0  0  0  0  0  0  0  0  0  0
  160.9350  201.4550  146.4900 C   0  0  0  0  0  0  0  0  0  0  0  0
  1  6  1  6  0  0  0
  1  5  1  0  0  0  0
  4 12  1  0  0  0  0
  4 10  1  0  0  0  0
  4 14  1  1  0  0  0
  5 11  1  0  0  0  0
  6  7  1  0  0  0  0
  7  9  1  0  0  0  0
  8  4  1  0  0  0  0
  9  5  1  0  0  0  0
  9 15  1  1  0  0  0
 11  2  1  0  0  0  0
 11  3  2  0  0  0  0
 12 10  1  0  0  0  0
 12  2  1  1  0  0  0
 13 27  1  1  0  0  0
 13  8  1  0  0  0  0
 13  1  1  0  0  0  0
 15 16  1  0  0  0  0
 16 21  1  6  0  0  0
 16 17  1  0  0  0  0
 17 18  1  1  0  0  0
 17 20  1  0  0  0  0
 20 19  1  0  0  0  0
 22 21  1  0  0  0  0
 22 23  1  0  0  0  0
 23 24  1  0  0  0  0
 23 26  1  0  0  0  0
 25 23  2  0  0  0  0
 28 34  1  6  0  0  0
 28 33  1  0  0  0  0
 29 28  1  0  0  0  0
 30 31  1  1  0  0  0
 30 35  1  0  0  0  0
 30 32  1  0  0  0  0
 31 34  1  0  0  0  0
 32 33  1  0  0  0  0
 33 27  1  0  0  0  0
 35 32  1  0  0  0  0
 35 29  1  0  0  0  0
 36 38  2  0  0  0  0
 37 38  2  0  0  0  0
 38 31  1  0  0  0  0
 38 40  1  0  0  0  0
 40 41  1  0  0  0  0
 40 39  1  0  0  0  0
 42 44  1  0  0  0  0
 44 40  1  0  0  0  0
 44 43  2  0  0  0  0
M  END
>  <MODEL>
3

>  <REMARK>
 VINA RESULT:      -2.6      2.168      3.921
  Name = 
  12 active torsions:
  status: ('A' for Active; 'I' for Inactive)
    1  A    between atoms: C_5  and  C_19
    2  A    between atoms: C_5  and  C_31
    3  A    between atoms: C_6  and  C_19
    4  A    between atoms: C_6  and  C_24
    5  A    between atoms: C_14  and  C_19
    6  A    between atoms: C_14  and  O_37
    7  A    between atoms: C_15  and  C_23
    8  A    between atoms: C_15  and  S_41
    9  A    between atoms: S_17  and  C_32
   10  A    between atoms: S_17  and  C_42
   11  A    between atoms: N_21  and  S_41
   12  A    between atoms: P_26  and  O_37
                            x       y       z     vdW  Elec       q    Type
                         _______ _______ _______ _____ _____    ______ ____

>  <TORSDO>
F 12

$$$$
=
 OpenBabel11072413213D

 44 49  0  0  1  0  0  0  0  0999 V2000
  159.7070  210.3710  153.8350 C   0  0  2  0  0  3  0  0  0  0  0  0
  162.8100  211.0970  153.7580 C   0  0  0  0  0  2  0  0  0  0  0  0
  162.7040  210.5620  156.0550 O   0  0  0  0  0  0  0  0  0  0  0  0
  161.5610  210.4650  151.8500 C   0  0  2  0  0  0  0  0  0  0  0  0
  160.6300  210.3590  154.9810 N   0  0  0  0  0  0  0  0  0  0  0  0
  158.3140  210.2740  154.4290 C   0  0  0  0  0  2  0  0  0  0  0  0
  158.5080  209.7480  155.8400 C   0  0  0  0  0  2  0  0  0  0  0  0
  160.5960  209.4790  151.6040 O   0  0  0  0  0  0  0  0  0  0  0  0
  159.9180  210.1410  156.2330 C   0  0  2  0  0  3  0  0  0  0  0  0
  162.8630  210.2850  151.3670 O   0  0  0  0  0  0  0  0  0  0  0  0
  162.0520  210.6720  154.9840 C   0  0  0  0  0  0  0  0  0  0  0  0
  162.6480  210.0000  152.7390 C   0  0  1  0  0  3  0  0  0  0  0  0
  159.9100  209.1940  152.8250 C   0  0  1  0  0  3  0  0  0  0  0  0
  161.1580  211.8080  151.7890 O   0  0  0  0  0  1  0  0  0  0  0  0
  159.8590  211.4420  157.0220 C   0  0  0  0  0  2  0  0  0  0  0  0
  158.9550  212.4560  156.3260 C   0  0  2  0  0  3  0  0  0  0  0  0
  159.7270  213.5830  155.6260 C   0  0  2  0  0  3  0  0  0  0  0  0
  160.2820  214.4530  156.5660 O   0  0  0  0  0  1  0  0  0  0  0  0
  159.0150  213.7350  153.3310 O   0  0  0  0  0  1  0  0  0  0  0  0
  158.9250  214.3560  154.5760 C   0  0  0  0  0  2  0  0  0  0  0  0
  157.8680  212.9890  157.2600 C   0  0  0  0  0  2  0  0  0  0  0  0
  157.0300  213.8860  156.5880 O   0  0  0  0  0  0  0  0  0  0  0  0
  155.6650  212.9840  156.1380 P   0  0  0  0  0  0  0  0  0  0  0  0
  154.4060  213.7440  156.4910 O   0  0  0  0  0  1  0  0  0  0  0  0
  155.6890  212.6670  154.4740 O   0  0  0  0  0  0  0  0  0  0  0  0
  155.6760  211.5160  156.9810 O   0  0  0  0  0  1  0  0  0  0  0  0
  160.4640  207.6190  153.5680 S   0  0  0  0  0  0  0  0  0  0  0  0
  160.5100  205.4210  151.9520 C   0  0  1  0  0  3  0  0  0  0  0  0
  161.6380  204.7590  152.4720 O   0  0  0  0  0  0  0  0  0  0  0  0
  162.7920  205.9020  150.6070 C   0  0  1  0  0  3  0  0  0  0  0  0
  161.7400  205.1690  149.8510 N   0  0  0  0  0  0  0  0  0  0  0  0
  162.3160  206.8980  151.6890 C   0  0  1  0  0  3  0  0  0  0  0  0
  160.8320  206.8850  151.9470 C   0  0  2  0  0  3  0  0  0  0  0  0
  160.4150  205.0510  150.4850 C   0  0  0  0  0  2  0  0  0  0  0  0
  162.7750  205.5190  152.1000 C   0  0  1  0  0  3  0  0  0  0  0  0
  162.5970  206.8970  148.0620 O   0  0  0  0  0  0  0  0  0  0  0  0
  160.2130  206.4240  148.0940 O   0  0  0  0  0  0  0  0  0  0  0  0
  161.5760  205.8120  148.2410 S   0  0  0  0  0  0  0  0  0  0  0  0
  163.1870  204.3600  146.8280 F   0  0  0  0  0  0  0  0  0  0  0  0
  161.8280  204.5990  146.9430 C   0  0  0  0  0  0  0  0  0  0  0  0
  161.2100  203.4090  147.2740 F   0  0  0  0  0  0  0  0  0  0  0  0
  159.9830  205.2970  145.4440 F   0  0  0  0  0  0  0  0  0  0  0  0
  162.0830  205.3250  144.7010 O   0  0  0  0  0  0  0  0  0  0  0  0
  161.3160  205.0980  145.6230 C   0  0  0  0  0  0  0  0  0  0  0  0
  1  6  1  1  0  0  0
  1  5  1  0  0  0  0
  2 11  1  0  0  0  0
  4 14  1  1  0  0  0
  4 12  1  0  0  0  0
  5 11  1  0  0  0  0
  5  9  1  0  0  0  0
  6  7  1  0  0  0  0
  7  9  1  0  0  0  0
  8  4  1  0  0  0  0
  8 13  1  0  0  0  0
  9 15  1  1  0  0  0
 10  4  1  0  0  0  0
 10 12  1  0  0  0  0
 11  3  2  0  0  0  0
 12  2  1  1  0  0  0
 13 27  1  1  0  0  0
 13  1  1  0  0  0  0
 16 15  1  1  0  0  0
 16 21  1  0  0  0  0
 17 16  1  0  0  0  0
 17 18  1  1  0  0  0
 19 20  1  0  0  0  0
 20 17  1  0  0  0  0
 22 21  1  0  0  0  0
 23 24  1  0  0  0  0
 23 22  1  0  0  0  0
 23 26  1  0  0  0  0
 25 23  2  0  0  0  0
 28 34  1  6  0  0  0
 28 29  1  0  0  0  0
 30 31  1  6  0  0  0
 30 32  1  0  0  0  0
 30 35  1  0  0  0  0
 31 34  1  0  0  0  0
 32 33  1  0  0  0  0
 32 35  1  0  0  0  0
 33 28  1  0  0  0  0
 33 27  1  0  0  0  0
 35 29  1  0  0  0  0
 36 38  2  0  0  0  0
 37 38  2  0  0  0  0
 38 31  1  0  0  0  0
 39 40  1  0  0  0  0
 40 41  1  0  0  0  0
 40 38  1  0  0  0  0
 42 44  1  0  0  0  0
 43 44  2  0  0  0  0
 44 40  1  0  0  0  0
M  END
>  <MODEL>
4

>  <REMARK>
 VINA RESULT:      -2.3      1.794      3.152
  Name = 
  12 active torsions:
  status: ('A' for Active; 'I' for Inactive)
    1  A    between atoms: C_5  and  C_19
    2  A    between atoms: C_5  and  C_31
    3  A    between atoms: C_6  and  C_19
    4  A    between atoms: C_6  and  C_24
    5  A    between atoms: C_14  and  C_19
    6  A    between atoms: C_14  and  O_37
    7  A    between atoms: C_15  and  C_23
    8  A    between atoms: C_15  and  S_41
    9  A    between atoms: S_17  and  C_32
   10  A    between atoms: S_17  and  C_42
   11  A    between atoms: N_21  and  S_41
   12  A    between atoms: P_26  and  O_37
                            x       y       z     vdW  Elec       q    Type
                         _______ _______ _______ _____ _____    ______ ____

>  <TORSDO>
F 12

$$$$
=
 OpenBabel11072413213D

 44 49  0  0  1  0  0  0  0  0999 V2000
  160.3540  208.8340  153.6280 C   0  0  2  0  0  3  0  0  0  0  0  0
  162.6210  210.9690  152.9500 C   0  0  0  0  0  2  0  0  0  0  0  0
  163.4620  210.3290  155.0610 O   0  0  0  0  0  0  0  0  0  0  0  0
  161.2770  209.9140  151.3130 C   0  0  2  0  0  0  0  0  0  0  0  0
  161.4820  209.2080  154.4970 N   0  0  0  0  0  0  0  0  0  0  0  0
  159.4020  208.0460  154.5090 C   0  0  0  0  0  2  0  0  0  0  0  0
  160.2250  207.6050  155.7070 C   0  0  0  0  0  2  0  0  0  0  0  0
  160.8300  208.6000  151.1230 O   0  0  0  0  0  0  0  0  0  0  0  0
  161.3560  208.6080  155.8170 C   0  0  2  0  0  3  0  0  0  0  0  0
  162.3080  210.4100  150.5060 O   0  0  0  0  0  0  0  0  0  0  0  0
  162.5410  210.1670  154.2180 C   0  0  0  0  0  0  0  0  0  0  0  0
  162.6680  209.9850  151.8100 C   0  0  1  0  0  3  0  0  0  0  0  0
  160.7460  207.9550  152.3950 C   0  0  1  0  0  3  0  0  0  0  0  0
  160.3190  210.8980  151.6050 O   0  0  0  0  0  1  0  0  0  0  0  0
  160.9630  209.6760  156.8290 C   0  0  0  0  0  2  0  0  0  0  0  0
  160.2060  210.8130  156.1500 C   0  0  2  0  0  3  0  0  0  0  0  0
  160.8890  212.1790  156.3010 C   0  0  2  0  0  3  0  0  0  0  0  0
  161.9050  212.1130  157.2580 O   0  0  0  0  0  1  0  0  0  0  0  0
  159.3180  213.7780  155.4240 O   0  0  0  0  0  1  0  0  0  0  0  0
  159.9410  213.3440  156.5930 C   0  0  0  0  0  2  0  0  0  0  0  0
  158.7340  210.8500  156.5650 C   0  0  0  0  0  2  0  0  0  0  0  0
  157.9100  210.4400  155.5100 O   0  0  0  0  0  0  0  0  0  0  0  0
  156.4720  211.3250  155.6860 P   0  0  0  0  0  0  0  0  0  0  0  0
  156.4240  212.4370  154.6630 O   0  0  0  0  0  0  0  0  0  0  0  0
  155.1290  210.3140  155.4900 O   0  0  0  0  0  1  0  0  0  0  0  0
  156.4330  212.0030  157.2370 O   0  0  0  0  0  1  0  0  0  0  0  0
  162.1400  206.8070  152.6710 S   0  0  0  0  0  0  0  0  0  0  0  0
  160.3550  205.8300  150.8540 C   0  0  1  0  0  3  0  0  0  0  0  0
  159.8850  204.7030  151.5550 O   0  0  0  0  0  0  0  0  0  0  0  0
  161.5910  203.5280  150.2050 C   0  0  1  0  0  3  0  0  0  0  0  0
  160.7920  204.1580  149.1200 N   0  0  0  0  0  0  0  0  0  0  0  0
  162.2300  204.4720  151.2480 C   0  0  1  0  0  3  0  0  0  0  0  0
  161.8280  205.9180  151.1180 C   0  0  2  0  0  3  0  0  0  0  0  0
  160.2560  205.5070  149.3760 C   0  0  0  0  0  2  0  0  0  0  0  0
  160.9410  203.7590  151.5840 C   0  0  1  0  0  3  0  0  0  0  0  0
  161.2030  202.9630  146.8130 O   0  0  0  0  0  0  0  0  0  0  0  0
  163.1330  203.9600  147.9050 O   0  0  0  0  0  0  0  0  0  0  0  0
  161.6700  204.1420  147.6170 S   0  0  0  0  0  0  0  0  0  0  0  0
  160.1030  205.9780  146.6840 F   0  0  0  0  0  0  0  0  0  0  0  0
  161.4370  205.6150  146.6200 C   0  0  0  0  0  0  0  0  0  0  0  0
  162.1890  206.6590  147.1260 F   0  0  0  0  0  0  0  0  0  0  0  0
  162.9630  204.7350  144.8780 F   0  0  0  0  0  0  0  0  0  0  0  0
  161.0600  205.7290  144.2830 O   0  0  0  0  0  0  0  0  0  0  0  0
  161.7990  205.3670  145.1840 C   0  0  0  0  0  0  0  0  0  0  0  0
  1  5  1  0  0  0  0
  1  6  1  1  0  0  0
  2 11  1  0  0  0  0
  4 14  1  1  0  0  0
  4 12  1  0  0  0  0
  5  9  1  0  0  0  0
  6  7  1  0  0  0  0
  7  9  1  0  0  0  0
  8  4  1  0  0  0  0
  8 13  1  0  0  0  0
  9 15  1  1  0  0  0
 10  4  1  0  0  0  0
 10 12  1  0  0  0  0
 11  5  1  0  0  0  0
 11  3  2  0  0  0  0
 12  2  1  1  0  0  0
 13 27  1  1  0  0  0
 13  1  1  0  0  0  0
 16 17  1  0  0  0  0
 16 21  1  1  0  0  0
 16 15  1  0  0  0  0
 17 20  1  0  0  0  0
 17 18  1  1  0  0  0
 19 20  1  0  0  0  0
 22 23  1  0  0  0  0
 22 21  1  0  0  0  0
 23 26  1  0  0  0  0
 24 23  2  0  0  0  0
 25 23  1  0  0  0  0
 28 34  1  6  0  0  0
 28 33  1  0  0  0  0
 28 29  1  0  0  0  0
 29 35  1  0  0  0  0
 30 31  1  6  0  0  0
 30 32  1  0  0  0  0
 30 35  1  0  0  0  0
 31 34  1  0  0  0  0
 32 35  1  0  0  0  0
 33 32  1  0  0  0  0
 33 27  1  0  0  0  0
 36 38  2  0  0  0  0
 38 37  2  0  0  0  0
 38 31  1  0  0  0  0
 40 39  1  0  0  0  0
 40 41  1  0  0  0  0
 40 38  1  0  0  0  0
 42 44  1  0  0  0  0
 43 44  2  0  0  0  0
 44 40  1  0  0  0  0
M  END
>  <MODEL>
5

>  <REMARK>
 VINA RESULT:      -2.2      2.402      4.003
  Name = 
  12 active torsions:
  status: ('A' for Active; 'I' for Inactive)
    1  A    between atoms: C_5  and  C_19
    2  A    between atoms: C_5  and  C_31
    3  A    between atoms: C_6  and  C_19
    4  A    between atoms: C_6  and  C_24
    5  A    between atoms: C_14  and  C_19
    6  A    between atoms: C_14  and  O_37
    7  A    between atoms: C_15  and  C_23
    8  A    between atoms: C_15  and  S_41
    9  A    between atoms: S_17  and  C_32
   10  A    between atoms: S_17  and  C_42
   11  A    between atoms: N_21  and  S_41
   12  A    between atoms: P_26  and  O_37
                            x       y       z     vdW  Elec       q    Type
                         _______ _______ _______ _____ _____    ______ ____

>  <TORSDO>
F 12

$$$$
=
 OpenBabel11072413213D

 44 49  0  0  1  0  0  0  0  0999 V2000
  162.1550  211.3330  149.8620 C   0  0  2  0  0  3  0  0  0  0  0  0
  161.3490  212.0900  146.8720 C   0  0  0  0  0  2  0  0  0  0  0  0
  160.6220  209.8450  146.7990 O   0  0  0  0  0  0  0  0  0  0  0  0
  161.6380  213.6820  148.5990 C   0  0  2  0  0  0  0  0  0  0  0  0
  161.5590  210.4260  148.8680 N   0  0  0  0  0  0  0  0  0  0  0  0
  162.6410  210.4420  150.9900 C   0  0  0  0  0  2  0  0  0  0  0  0
  161.9010  209.1270  150.8190 C   0  0  0  0  0  2  0  0  0  0  0  0
  161.2600  213.7320  149.9470 O   0  0  0  0  0  0  0  0  0  0  0  0
  161.5320  209.0530  149.3520 C   0  0  2  0  0  3  0  0  0  0  0  0
  160.9370  214.4530  147.6630 O   0  0  0  0  0  0  0  0  0  0  0  0
  161.1670  210.7370  147.5010 C   0  0  0  0  0  0  0  0  0  0  0  0
  160.6040  213.0770  147.7320 C   0  0  1  0  0  3  0  0  0  0  0  0
  161.1680  212.3960  150.4470 C   0  0  1  0  0  3  0  0  0  0  0  0
  163.0080  213.6120  148.3020 O   0  0  0  0  0  1  0  0  0  0  0  0
  162.5900  208.2340  148.6250 C   0  0  0  0  0  2  0  0  0  0  0  0
  162.0810  206.8240  148.3370 C   0  0  2  0  0  3  0  0  0  0  0  0
  161.6490  206.6160  146.8800 C   0  0  2  0  0  3  0  0  0  0  0  0
  160.2580  206.5220  146.7910 O   0  0  0  0  0  1  0  0  0  0  0  0
  162.0770  205.4810  144.8000 O   0  0  0  0  0  1  0  0  0  0  0  0
  162.3200  205.4370  146.1720 C   0  0  0  0  0  2  0  0  0  0  0  0
  161.0020  206.3920  149.3320 C   0  0  0  0  0  2  0  0  0  0  0  0
  161.2660  205.1090  149.8250 O   0  0  0  0  0  0  0  0  0  0  0  0
  161.4540  205.2950  151.5010 P   0  0  0  0  0  0  0  0  0  0  0  0
  162.8920  205.6340  151.8240 O   0  0  0  0  0  0  0  0  0  0  0  0
  160.4380  206.5220  152.0770 O   0  0  0  0  0  1  0  0  0  0  0  0
  161.0480  203.8380  152.2620 O   0  0  0  0  0  1  0  0  0  0  0  0
  159.4330  211.8440  150.6010 S   0  0  0  0  0  0  0  0  0  0  0  0
  158.2060  211.3530  152.9880 C   0  0  1  0  0  3  0  0  0  0  0  0
  157.4380  212.5260  153.1130 O   0  0  0  0  0  0  0  0  0  0  0  0
  159.3550  213.2730  154.4850 C   0  0  1  0  0  3  0  0  0  0  0  0
  158.9910  212.0240  155.2070 N   0  0  0  0  0  0  0  0  0  0  0  0
  159.7300  213.1390  152.9920 C   0  0  1  0  0  3  0  0  0  0  0  0
  159.5280  211.7630  152.4130 C   0  0  2  0  0  3  0  0  0  0  0  0
  158.5340  210.8840  154.3920 C   0  0  0  0  0  2  0  0  0  0  0  0
  158.3390  213.5890  153.3690 C   0  0  1  0  0  3  0  0  0  0  0  0
  159.7290  210.5280  157.2410 O   0  0  0  0  0  0  0  0  0  0  0  0
  160.7770  212.7120  157.0320 O   0  0  0  0  0  0  0  0  0  0  0  0
  160.2820  211.5220  156.2620 S   0  0  0  0  0  0  0  0  0  0  0  0
  161.6790  211.2090  154.1050 F   0  0  0  0  0  0  0  0  0  0  0  0
  161.6600  210.7480  155.4110 C   0  0  0  0  0  0  0  0  0  0  0  0
  162.8530  211.1050  156.0080 F   0  0  0  0  0  0  0  0  0  0  0  0
  160.8980  208.6460  154.3450 F   0  0  0  0  0  0  0  0  0  0  0  0
  161.9540  208.5730  156.3050 O   0  0  0  0  0  0  0  0  0  0  0  0
  161.5190  209.2540  155.3900 C   0  0  0  0  0  0  0  0  0  0  0  0
  1 13  1  0  0  0  0
  1  6  1  1  0  0  0
  2 11  1  0  0  0  0
  3 11  2  0  0  0  0
  4 14  1  6  0  0  0
  4  8  1  0  0  0  0
  5  9  1  0  0  0  0
  5  1  1  0  0  0  0
  7  6  1  0  0  0  0
  8 13  1  0  0  0  0
  9 15  1  6  0  0  0
  9  7  1  0  0  0  0
 10 12  1  0  0  0  0
 10  4  1  0  0  0  0
 11  5  1  0  0  0  0
 12  2  1  6  0  0  0
 12  4  1  0  0  0  0
 13 27  1  6  0  0  0
 16 15  1  6  0  0  0
 16 21  1  0  0  0  0
 17 18  1  1  0  0  0
 17 16  1  0  0  0  0
 19 20  1  0  0  0  0
 20 17  1  0  0  0  0
 21 22  1  0  0  0  0
 22 23  1  0  0  0  0
 23 24  2  0  0  0  0
 23 25  1  0  0  0  0
 23 26  1  0  0  0  0
 27 33  1  0  0  0  0
 28 29  1  0  0  0  0
 28 34  1  1  0  0  0
 29 35  1  0  0  0  0
 30 31  1  1  0  0  0
 31 38  1  0  0  0  0
 32 35  1  0  0  0  0
 32 30  1  0  0  0  0
 33 28  1  0  0  0  0
 33 32  1  0  0  0  0
 34 31  1  0  0  0  0
 35 30  1  0  0  0  0
 38 37  2  0  0  0  0
 38 36  2  0  0  0  0
 39 40  1  0  0  0  0
 40 41  1  0  0  0  0
 40 38  1  0  0  0  0
 42 44  1  0  0  0  0
 44 40  1  0  0  0  0
 44 43  2  0  0  0  0
M  END
>  <MODEL>
6

>  <REMARK>
 VINA RESULT:      -2.1      3.975      8.934
  Name = 
  12 active torsions:
  status: ('A' for Active; 'I' for Inactive)
    1  A    between atoms: C_5  and  C_19
    2  A    between atoms: C_5  and  C_31
    3  A    between atoms: C_6  and  C_19
    4  A    between atoms: C_6  and  C_24
    5  A    between atoms: C_14  and  C_19
    6  A    between atoms: C_14  and  O_37
    7  A    between atoms: C_15  and  C_23
    8  A    between atoms: C_15  and  S_41
    9  A    between atoms: S_17  and  C_32
   10  A    between atoms: S_17  and  C_42
   11  A    between atoms: N_21  and  S_41
   12  A    between atoms: P_26  and  O_37
                            x       y       z     vdW  Elec       q    Type
                         _______ _______ _______ _____ _____    ______ ____

>  <TORSDO>
F 12

$$$$
=
 OpenBabel11072413213D

 44 49  0  0  1  0  0  0  0  0999 V2000
  161.9880  211.5150  150.1950 C   0  0  2  0  0  3  0  0  0  0  0  0
  161.4250  212.0010  147.0960 C   0  0  0  0  0  2  0  0  0  0  0  0
  160.5710  209.8030  147.1940 O   0  0  0  0  0  0  0  0  0  0  0  0
  161.6960  213.7460  148.6720 C   0  0  2  0  0  0  0  0  0  0  0  0
  161.4040  210.5440  149.2560 N   0  0  0  0  0  0  0  0  0  0  0  0
  162.3450  210.7200  151.4380 C   0  0  0  0  0  2  0  0  0  0  0  0
  161.5400  209.4360  151.3460 C   0  0  0  0  0  2  0  0  0  0  0  0
  161.2350  213.9540  149.9780 O   0  0  0  0  0  0  0  0  0  0  0  0
  161.2640  209.2310  149.8710 C   0  0  2  0  0  3  0  0  0  0  0  0
  161.1050  214.4520  147.6170 O   0  0  0  0  0  0  0  0  0  0  0  0
  161.1220  210.7320  147.8400 C   0  0  0  0  0  0  0  0  0  0  0  0
  160.6860  213.1100  147.7980 C   0  0  1  0  0  3  0  0  0  0  0  0
  161.0300  212.6830  150.6000 C   0  0  1  0  0  3  0  0  0  0  0  0
  163.0760  213.5730  148.4810 O   0  0  0  0  0  1  0  0  0  0  0  0
  162.3170  208.2860  149.3050 C   0  0  0  0  0  2  0  0  0  0  0  0
  161.6720  207.0000  148.7970 C   0  0  2  0  0  3  0  0  0  0  0  0
  161.7350  205.8450  149.8050 C   0  0  2  0  0  3  0  0  0  0  0  0
  160.4700  205.2800  149.9820 O   0  0  0  0  0  1  0  0  0  0  0  0
  161.4870  205.9210  152.1990 O   0  0  0  0  0  1  0  0  0  0  0  0
  162.3650  206.2020  151.1540 C   0  0  0  0  0  2  0  0  0  0  0  0
  162.2020  206.5990  147.4200 C   0  0  0  0  0  2  0  0  0  0  0  0
  162.2480  205.2070  147.2900 O   0  0  0  0  0  0  0  0  0  0  0  0
  161.6400  204.8730  145.7410 P   0  0  0  0  0  0  0  0  0  0  0  0
  160.2380  205.4230  145.6090 O   0  0  0  0  0  1  0  0  0  0  0  0
  162.6340  205.5590  144.5550 O   0  0  0  0  0  0  0  0  0  0  0  0
  161.5950  203.1940  145.5220 O   0  0  0  0  0  1  0  0  0  0  0  0
  159.2590  212.2430  150.6850 S   0  0  0  0  0  0  0  0  0  0  0  0
  157.9460  211.7150  153.0170 C   0  0  1  0  0  3  0  0  0  0  0  0
  157.3470  212.9680  153.2490 O   0  0  0  0  0  0  0  0  0  0  0  0
  159.3320  213.3120  154.6830 C   0  0  1  0  0  3  0  0  0  0  0  0
  158.7880  212.0670  155.2880 N   0  0  0  0  0  0  0  0  0  0  0  0
  159.7040  213.2620  153.1830 C   0  0  1  0  0  3  0  0  0  0  0  0
  159.3190  211.9860  152.4820 C   0  0  2  0  0  3  0  0  0  0  0  0
  158.1870  211.0800  154.3730 C   0  0  0  0  0  2  0  0  0  0  0  0
  158.3850  213.8670  153.6010 C   0  0  1  0  0  3  0  0  0  0  0  0
  159.2740  210.3940  157.2600 O   0  0  0  0  0  0  0  0  0  0  0  0
  160.7130  212.3450  157.0800 O   0  0  0  0  0  0  0  0  0  0  0  0
  159.9840  211.2950  156.2920 S   0  0  0  0  0  0  0  0  0  0  0  0
  160.4710  209.4630  154.5300 F   0  0  0  0  0  0  0  0  0  0  0  0
  161.1690  210.3010  155.3830 C   0  0  0  0  0  0  0  0  0  0  0  0
  161.9830  211.1120  154.6140 F   0  0  0  0  0  0  0  0  0  0  0  0
  163.1840  209.9380  156.7760 F   0  0  0  0  0  0  0  0  0  0  0  0
  161.6290  208.3480  156.6430 O   0  0  0  0  0  0  0  0  0  0  0  0
  162.0010  209.4610  156.3070 C   0  0  0  0  0  0  0  0  0  0  0  0
  1 13  1  0  0  0  0
  1  6  1  1  0  0  0
  2 11  1  0  0  0  0
  3 11  2  0  0  0  0
  4 14  1  6  0  0  0
  4  8  1  0  0  0  0
  5  9  1  0  0  0  0
  5  1  1  0  0  0  0
  7  6  1  0  0  0  0
  8 13  1  0  0  0  0
  9 15  1  6  0  0  0
  9  7  1  0  0  0  0
 10 12  1  0  0  0  0
 10  4  1  0  0  0  0
 11  5  1  0  0  0  0
 12  2  1  6  0  0  0
 12  4  1  0  0  0  0
 13 27  1  6  0  0  0
 16 21  1  6  0  0  0
 16 15  1  0  0  0  0
 16 17  1  0  0  0  0
 17 18  1  1  0  0  0
 17 20  1  0  0  0  0
 20 19  1  0  0  0  0
 22 21  1  0  0  0  0
 23 22  1  0  0  0  0
 24 23  1  0  0  0  0
 25 23  2  0  0  0  0
 26 23  1  0  0  0  0
 27 33  1  0  0  0  0
 28 29  1  0  0  0  0
 28 34  1  1  0  0  0
 29 35  1  0  0  0  0
 30 31  1  6  0  0  0
 31 38  1  0  0  0  0
 32 35  1  0  0  0  0
 32 30  1  0  0  0  0
 33 28  1  0  0  0  0
 33 32  1  0  0  0  0
 34 31  1  0  0  0  0
 35 30  1  0  0  0  0
 38 37  2  0  0  0  0
 38 36  2  0  0  0  0
 39 40  1  0  0  0  0
 40 38  1  0  0  0  0
 40 44  1  0  0  0  0
 41 40  1  0  0  0  0
 44 43  2  0  0  0  0
 44 42  1  0  0  0  0
M  END
>  <MODEL>
7

>  <REMARK>
 VINA RESULT:      -1.9      4.218      9.461
  Name = 
  12 active torsions:
  status: ('A' for Active; 'I' for Inactive)
    1  A    between atoms: C_5  and  C_19
    2  A    between atoms: C_5  and  C_31
    3  A    between atoms: C_6  and  C_19
    4  A    between atoms: C_6  and  C_24
    5  A    between atoms: C_14  and  C_19
    6  A    between atoms: C_14  and  O_37
    7  A    between atoms: C_15  and  C_23
    8  A    between atoms: C_15  and  S_41
    9  A    between atoms: S_17  and  C_32
   10  A    between atoms: S_17  and  C_42
   11  A    between atoms: N_21  and  S_41
   12  A    between atoms: P_26  and  O_37
                            x       y       z     vdW  Elec       q    Type
                         _______ _______ _______ _____ _____    ______ ____

>  <TORSDO>
F 12

$$$$
=
 OpenBabel11072413213D

 44 49  0  0  1  0  0  0  0  0999 V2000
  162.0030  208.4570  152.0970 C   0  0  2  0  0  3  0  0  0  0  0  0
  160.4880  207.2730  154.6390 C   0  0  0  0  0  2  0  0  0  0  0  0
  159.0330  209.0950  154.2700 O   0  0  0  0  0  0  0  0  0  0  0  0
  161.9370  206.0050  153.2630 C   0  0  2  0  0  0  0  0  0  0  0  0
  160.8020  209.0230  152.7340 N   0  0  0  0  0  0  0  0  0  0  0  0
  162.5150  209.5340  151.1580 C   0  0  0  0  0  2  0  0  0  0  0  0
  161.3450  210.4800  150.9460 C   0  0  0  0  0  2  0  0  0  0  0  0
  162.1240  205.9090  151.8780 O   0  0  0  0  0  0  0  0  0  0  0  0
  160.4650  210.3220  152.1690 C   0  0  2  0  0  3  0  0  0  0  0  0
  161.2690  204.9750  153.9370 O   0  0  0  0  0  0  0  0  0  0  0  0
  160.0770  208.5060  153.8850 C   0  0  0  0  0  0  0  0  0  0  0  0
  160.5150  206.1400  153.6470 C   0  0  1  0  0  3  0  0  0  0  0  0
  161.7490  207.1500  151.2770 C   0  0  1  0  0  3  0  0  0  0  0  0
  162.9810  206.5450  154.0310 O   0  0  0  0  0  1  0  0  0  0  0  0
  160.8150  211.4200  153.1660 C   0  0  0  0  0  2  0  0  0  0  0  0
  159.5590  212.1550  153.6250 C   0  0  2  0  0  3  0  0  0  0  0  0
  159.1220  213.2730  152.6690 C   0  0  2  0  0  3  0  0  0  0  0  0
  157.7890  213.1010  152.2920 O   0  0  0  0  0  1  0  0  0  0  0  0
  159.2520  213.4990  150.2760 O   0  0  0  0  0  1  0  0  0  0  0  0
  160.0160  213.4560  151.4400 C   0  0  0  0  0  2  0  0  0  0  0  0
  159.6740  212.6370  155.0710 C   0  0  0  0  0  2  0  0  0  0  0  0
  158.5310  213.3480  155.4510 O   0  0  0  0  0  0  0  0  0  0  0  0
  157.5280  212.2190  156.2250 P   0  0  0  0  0  0  0  0  0  0  0  0
  156.7190  211.4590  155.1980 O   0  0  0  0  0  0  0  0  0  0  0  0
  158.4540  211.1330  157.1360 O   0  0  0  0  0  1  0  0  0  0  0  0
  156.4700  213.0440  157.2580 O   0  0  0  0  0  1  0  0  0  0  0  0
  160.1170  207.0480  150.4620 S   0  0  0  0  0  0  0  0  0  0  0  0
  162.1910  206.7210  148.7190 C   0  0  1  0  0  3  0  0  0  0  0  0
  162.0520  207.8950  147.9530 O   0  0  0  0  0  0  0  0  0  0  0  0
  160.8060  206.3940  146.4330 C   0  0  1  0  0  3  0  0  0  0  0  0
  162.1010  205.6650  146.5130 N   0  0  0  0  0  0  0  0  0  0  0  0
  160.0500  206.6310  147.7600 C   0  0  1  0  0  3  0  0  0  0  0  0
  160.8050  206.2220  148.9970 C   0  0  2  0  0  3  0  0  0  0  0  0
  162.7960  205.6670  147.8120 C   0  0  0  0  0  2  0  0  0  0  0  0
  160.8800  207.7460  147.1700 C   0  0  1  0  0  3  0  0  0  0  0  0
  163.2710  203.5510  145.4700 O   0  0  0  0  0  0  0  0  0  0  0  0
  160.9960  204.0250  144.7570 O   0  0  0  0  0  0  0  0  0  0  0  0
  161.9270  204.0310  145.9340 S   0  0  0  0  0  0  0  0  0  0  0  0
  162.3800  202.5600  148.0150 F   0  0  0  0  0  0  0  0  0  0  0  0
  161.3290  202.8790  147.1730 C   0  0  0  0  0  0  0  0  0  0  0  0
  160.3350  203.4670  147.9330 F   0  0  0  0  0  0  0  0  0  0  0  0
  159.8720  201.6780  145.5700 F   0  0  0  0  0  0  0  0  0  0  0  0
  161.2410  200.5270  146.8970 O   0  0  0  0  0  0  0  0  0  0  0  0
  160.8180  201.6160  146.5430 C   0  0  0  0  0  0  0  0  0  0  0  0
  1  6  1  6  0  0  0
  1  5  1  0  0  0  0
  4 12  1  0  0  0  0
  4 10  1  0  0  0  0
  4 14  1  1  0  0  0
  5 11  1  0  0  0  0
  7  6  1  0  0  0  0
  7  9  1  0  0  0  0
  8  4  1  0  0  0  0
  9  5  1  0  0  0  0
  9 15  1  1  0  0  0
 11  3  2  0  0  0  0
 11  2  1  0  0  0  0
 12 10  1  0  0  0  0
 12  2  1  1  0  0  0
 13 27  1  1  0  0  0
 13  8  1  0  0  0  0
 13  1  1  0  0  0  0
 16 15  1  6  0  0  0
 16 21  1  0  0  0  0
 17 18  1  6  0  0  0
 17 16  1  0  0  0  0
 19 20  1  0  0  0  0
 20 17  1  0  0  0  0
 21 22  1  0  0  0  0
 22 23  1  0  0  0  0
 23 25  1  0  0  0  0
 23 26  1  0  0  0  0
 24 23  2  0  0  0  0
 28 34  1  6  0  0  0
 28 33  1  0  0  0  0
 29 28  1  0  0  0  0
 30 31  1  1  0  0  0
 30 35  1  0  0  0  0
 30 32  1  0  0  0  0
 31 34  1  0  0  0  0
 32 33  1  0  0  0  0
 33 27  1  0  0  0  0
 35 32  1  0  0  0  0
 35 29  1  0  0  0  0
 36 38  2  0  0  0  0
 37 38  2  0  0  0  0
 38 31  1  0  0  0  0
 38 40  1  0  0  0  0
 40 41  1  0  0  0  0
 40 39  1  0  0  0  0
 42 44  1  0  0  0  0
 44 43  2  0  0  0  0
 44 40  1  0  0  0  0
M  END
>  <MODEL>
8

>  <REMARK>
 VINA RESULT:      -1.8      2.086      3.198
  Name = 
  12 active torsions:
  status: ('A' for Active; 'I' for Inactive)
    1  A    between atoms: C_5  and  C_19
    2  A    between atoms: C_5  and  C_31
    3  A    between atoms: C_6  and  C_19
    4  A    between atoms: C_6  and  C_24
    5  A    between atoms: C_14  and  C_19
    6  A    between atoms: C_14  and  O_37
    7  A    between atoms: C_15  and  C_23
    8  A    between atoms: C_15  and  S_41
    9  A    between atoms: S_17  and  C_32
   10  A    between atoms: S_17  and  C_42
   11  A    between atoms: N_21  and  S_41
   12  A    between atoms: P_26  and  O_37
                            x       y       z     vdW  Elec       q    Type
                         _______ _______ _______ _____ _____    ______ ____

>  <TORSDO>
F 12

$$$$
=
 OpenBabel11072413213D

 44 49  0  0  1  0  0  0  0  0999 V2000
  160.3540  208.7180  153.8470 C   0  0  2  0  0  3  0  0  0  0  0  0
  162.4230  210.9810  152.9780 C   0  0  0  0  0  2  0  0  0  0  0  0
  163.4290  210.4620  155.0500 O   0  0  0  0  0  0  0  0  0  0  0  0
  161.0610  209.7900  151.4530 C   0  0  2  0  0  0  0  0  0  0  0  0
  161.5020  209.1930  154.6360 N   0  0  0  0  0  0  0  0  0  0  0  0
  159.5120  207.8930  154.8040 C   0  0  0  0  0  2  0  0  0  0  0  0
  160.4330  207.5450  155.9600 C   0  0  0  0  0  2  0  0  0  0  0  0
  160.6970  208.4440  151.3240 O   0  0  0  0  0  0  0  0  0  0  0  0
  161.4960  208.6240  155.9760 C   0  0  2  0  0  3  0  0  0  0  0  0
  162.0060  210.3320  150.5730 O   0  0  0  0  0  0  0  0  0  0  0  0
  162.4730  210.2130  154.2690 C   0  0  0  0  0  0  0  0  0  0  0  0
  162.4700  209.9710  151.8630 C   0  0  1  0  0  3  0  0  0  0  0  0
  160.7330  207.8320  152.6150 C   0  0  1  0  0  3  0  0  0  0  0  0
  160.0560  210.7150  151.7790 O   0  0  0  0  0  1  0  0  0  0  0  0
  161.0890  209.6920  156.9830 C   0  0  0  0  0  2  0  0  0  0  0  0
  160.3810  210.8510  156.2870 C   0  0  2  0  0  3  0  0  0  0  0  0
  161.0950  212.1980  156.4650 C   0  0  2  0  0  3  0  0  0  0  0  0
  162.2330  212.0480  157.2610 O   0  0  0  0  0  1  0  0  0  0  0  0
  159.7550  214.1290  155.9420 O   0  0  0  0  0  1  0  0  0  0  0  0
  160.2100  213.3310  156.9900 C   0  0  0  0  0  2  0  0  0  0  0  0
  158.9000  210.9240  156.6590 C   0  0  0  0  0  2  0  0  0  0  0  0
  158.0940  210.7760  155.5250 O   0  0  0  0  0  0  0  0  0  0  0  0
  156.6520  211.5960  155.8810 P   0  0  0  0  0  0  0  0  0  0  0  0
  156.8480  212.4830  157.0900 O   0  0  0  0  0  1  0  0  0  0  0  0
  156.1660  212.5370  154.5590 O   0  0  0  0  0  0  0  0  0  0  0  0
  155.4460  210.4580  156.2230 O   0  0  0  0  0  1  0  0  0  0  0  0
  162.2170  206.7900  152.8340 S   0  0  0  0  0  0  0  0  0  0  0  0
  160.2690  205.4870  151.4370 C   0  0  1  0  0  3  0  0  0  0  0  0
  159.9890  204.4360  152.3310 O   0  0  0  0  0  0  0  0  0  0  0  0
  161.5680  203.1930  150.8900 C   0  0  1  0  0  3  0  0  0  0  0  0
  160.5780  203.6320  149.8700 N   0  0  0  0  0  0  0  0  0  0  0  0
  162.2770  204.3000  151.7040 C   0  0  1  0  0  3  0  0  0  0  0  0
  161.7540  205.6920  151.4630 C   0  0  2  0  0  3  0  0  0  0  0  0
  159.9850  204.9700  150.0400 C   0  0  0  0  0  2  0  0  0  0  0  0
  161.1060  203.5650  152.3130 C   0  0  1  0  0  3  0  0  0  0  0  0
  162.7290  203.4810  148.3640 O   0  0  0  0  0  0  0  0  0  0  0  0
  160.8100  204.6520  147.4410 O   0  0  0  0  0  0  0  0  0  0  0  0
  161.2320  203.4700  148.2650 S   0  0  0  0  0  0  0  0  0  0  0  0
  159.3710  201.8320  147.5200 F   0  0  0  0  0  0  0  0  0  0  0  0
  160.7470  201.9580  147.4290 C   0  0  0  0  0  0  0  0  0  0  0  0
  161.0830  202.0220  146.0910 F   0  0  0  0  0  0  0  0  0  0  0  0
  160.8920  200.2690  149.2360 F   0  0  0  0  0  0  0  0  0  0  0  0
  162.3380  200.2050  147.5420 O   0  0  0  0  0  0  0  0  0  0  0  0
  161.3820  200.7550  148.0640 C   0  0  0  0  0  0  0  0  0  0  0  0
  1  5  1  0  0  0  0
  1  6  1  1  0  0  0
  2 11  1  0  0  0  0
  4 14  1  1  0  0  0
  4 12  1  0  0  0  0
  5  9  1  0  0  0  0
  6  7  1  0  0  0  0
  7  9  1  0  0  0  0
  8  4  1  0  0  0  0
  8 13  1  0  0  0  0
  9 15  1  1  0  0  0
 10  4  1  0  0  0  0
 10 12  1  0  0  0  0
 11  5  1  0  0  0  0
 11  3  2  0  0  0  0
 12  2  1  1  0  0  0
 13 27  1  1  0  0  0
 13  1  1  0  0  0  0
 16 17  1  0  0  0  0
 16 21  1  1  0  0  0
 16 15  1  0  0  0  0
 17 20  1  0  0  0  0
 17 18  1  1  0  0  0
 19 20  1  0  0  0  0
 22 23  1  0  0  0  0
 22 21  1  0  0  0  0
 23 26  1  0  0  0  0
 23 24  1  0  0  0  0
 25 23  2  0  0  0  0
 28 34  1  6  0  0  0
 28 33  1  0  0  0  0
 28 29  1  0  0  0  0
 30 31  1  6  0  0  0
 30 32  1  0  0  0  0
 30 35  1  0  0  0  0
 31 34  1  0  0  0  0
 32 35  1  0  0  0  0
 33 32  1  0  0  0  0
 33 27  1  0  0  0  0
 35 29  1  0  0  0  0
 37 38  2  0  0  0  0
 38 36  2  0  0  0  0
 38 31  1  0  0  0  0
 40 39  1  0  0  0  0
 40 44  1  0  0  0  0
 40 38  1  0  0  0  0
 41 40  1  0  0  0  0
 43 44  2  0  0  0  0
 44 42  1  0  0  0  0
M  END
>  <MODEL>
9

>  <REMARK>
 VINA RESULT:      -1.6      2.657      4.316
  Name = 
  12 active torsions:
  status: ('A' for Active; 'I' for Inactive)
    1  A    between atoms: C_5  and  C_19
    2  A    between atoms: C_5  and  C_31
    3  A    between atoms: C_6  and  C_19
    4  A    between atoms: C_6  and  C_24
    5  A    between atoms: C_14  and  C_19
    6  A    between atoms: C_14  and  O_37
    7  A    between atoms: C_15  and  C_23
    8  A    between atoms: C_15  and  S_41
    9  A    between atoms: S_17  and  C_32
   10  A    between atoms: S_17  and  C_42
   11  A    between atoms: N_21  and  S_41
   12  A    between atoms: P_26  and  O_37
                            x       y       z     vdW  Elec       q    Type
                         _______ _______ _______ _____ _____    ______ ____

>  <TORSDO>
F 12

$$$$
