=
 OpenBabel11072409523D

 64 70  0  0  1  0  0  0  0  0999 V2000
  160.8600  210.8320  153.8090 C   0  0  2  0  0  3  0  0  0  0  0  0
  158.8480  213.7830  151.3020 C   0  0  0  0  0  2  0  0  0  0  0  0
  157.6970  211.4880  156.7880 N   0  0  0  0  0  2  0  0  0  0  0  0
  156.8940  212.5530  154.8240 C   0  0  1  0  0  3  0  0  0  0  0  0
  156.6200  212.1960  156.2640 C   0  0  0  0  0  0  0  0  0  0  0  0
  158.6680  212.0160  153.1750 C   0  0  2  0  0  3  0  0  0  0  0  0
  160.5760  212.0400  151.5340 C   0  0  0  0  0  2  0  0  0  0  0  0
  155.4930  212.0700  156.8030 O   0  0  0  0  0  0  0  0  0  0  0  0
  158.3980  211.0250  155.6650 C   0  0  0  0  0  2  0  0  0  0  0  0
  160.1910  211.9880  153.0120 C   0  0  2  0  0  3  0  0  0  0  0  0
  155.3640  214.2820  154.5740 O   0  0  0  0  0  1  0  0  0  0  0  0
  159.1070  213.2400  155.1850 O   0  0  0  0  0  1  0  0  0  0  0  0
  157.9280  213.0090  152.1960 C   0  0  1  0  0  3  0  0  0  0  0  0
  160.0390  213.3070  150.9470 C   0  0  1  0  0  3  0  0  0  0  0  0
  156.6640  213.9250  154.3000 C   0  0  2  0  0  3  0  0  0  0  0  0
  158.3510  212.2030  154.6970 C   0  0  2  0  0  0  0  0  0  0  0  0
  156.8500  213.9460  152.7910 C   0  0  0  0  0  2  0  0  0  0  0  0
  160.5390  213.9380  149.6730 C   0  0  0  0  0  2  0  0  0  0  0  0
  161.1180  212.9640  148.6410 C   0  0  0  0  0  0  0  0  0  0  0  0
  160.3440  212.3830  147.8720 O   0  0  0  0  0  0  0  0  0  0  0  0
  162.6070  212.6690  148.5970 C   0  0  0  0  0  2  0  0  0  0  0  0
  163.0900  212.5060  147.2860 O   0  0  0  0  0  1  0  0  0  0  0  0
  161.0510  207.2610  154.3190 C   0  0  2  0  0  3  0  0  0  0  0  0
  158.9680  208.1370  154.7970 O   0  0  0  0  0  0  0  0  0  0  0  0
  160.2820  208.5320  154.6580 C   0  0  2  0  0  3  0  0  0  0  0  0
  161.9000  207.5580  153.0620 C   0  0  2  0  0  3  0  0  0  0  0  0
  161.1930  208.7610  152.4890 C   0  0  0  0  0  0  0  0  0  0  0  0
  160.3320  209.4390  153.4700 C   0  0  2  0  0  3  0  0  0  0  0  0
  161.4950  209.2390  151.3640 O   0  0  0  0  0  0  0  0  0  0  0  0
  159.0410  206.7650  154.8980 C   0  0  0  0  0  2  0  0  0  0  0  0
  160.0620  206.3000  154.0450 O   0  0  0  0  0  0  0  0  0  0  0  0
  163.6550  205.8950  151.4080 O   0  0  0  0  0  0  0  0  0  0  0  0
  162.2020  206.1670  151.8100 P   0  0  1  0  0  0  0  0  0  0  0  0
  161.6410  203.6990  151.6060 C   0  0  0  0  0  1  0  0  0  0  0  0
  161.6110  204.7520  152.5510 O   0  0  0  0  0  0  0  0  0  0  0  0
  161.3680  206.6760  150.3960 O   0  0  0  0  0  0  0  0  0  0  0  0
  161.8760  206.0060  149.2360 C   0  0  1  0  0  3  0  0  0  0  0  0
  160.8300  205.0410  148.7370 C   0  0  0  0  0  0  0  0  0  0  0  0
  161.0370  203.6020  148.8080 N   0  0  0  0  0  0  0  0  0  0  0  0
  159.6910  205.4850  148.4470 O   0  0  0  0  0  0  0  0  0  0  0  0
  161.6760  200.9320  148.9110 O   0  0  0  0  0  0  0  0  0  0  0  0
  160.6980  202.7270  147.7750 N   0  0  0  0  0  0  0  0  0  0  0  0
  161.0950  201.3640  147.8310 C   0  0  0  0  0  0  0  0  0  0  0  0
  161.6870  199.1770  146.6190 C   0  0  0  0  0  3  0  0  0  0  0  0
  161.0710  200.4250  146.6960 C   0  0  2  0  0  3  0  0  0  0  0  0
  160.4460  200.6410  145.5180 N   0  0  0  0  0  0  0  0  0  0  0  0
  161.3960  198.6320  145.4290 N   0  0  0  0  0  0  0  0  0  0  0  0
  160.6220  199.5420  144.7750 C   0  0  0  0  0  3  0  0  0  0  0  0
  162.0710  207.0520  148.0720 C   0  0  2  0  0  3  0  0  0  0  0  0
  162.2440  206.5390  146.7520 O   0  0  0  0  0  1  0  0  0  0  0  0
  162.7360  208.4590  148.3430 C   0  0  0  0  0  2  0  0  0  0  0  0
  161.6240  209.4590  148.4430 C   0  0  0  0  0  1  0  0  0  0  0  0
  161.4560  212.6430  155.8320 O   0  0  0  0  0  0  0  0  0  0  0  0
  161.2500  211.0750  155.5910 S   0  0  2  0  0  0  0  0  0  0  0  0
  162.8290  210.3470  155.8830 C   0  0  1  0  0  3  0  0  0  0  0  0
  165.2820  212.0570  155.8000 C   0  0  0  0  0  0  0  0  0  0  0  0
  164.7700  211.0810  156.7910 O   0  0  0  0  0  0  0  0  0  0  0  0
  163.7750  211.6070  155.9930 C   0  0  2  0  0  3  0  0  0  0  0  0
  166.0440  212.8470  156.6300 F   0  0  0  0  0  0  0  0  0  0  0  0
  165.8960  211.4950  154.5860 F   0  0  0  0  0  0  0  0  0  0  0  0
  162.5280  209.4760  157.2300 C   0  0  0  0  0  2  0  0  0  0  0  0
  162.3730  207.9680  157.2420 C   0  0  0  0  0  2  0  0  0  0  0  0
  160.7530  207.7770  157.2550 C   0  0  0  0  0  2  0  0  0  0  0  0
  160.2950  206.3940  156.9730 F   0  0  0  0  0  0  0  0  0  0  0  0
  1 54  1  1  0  0  0
  2 13  1  0  0  0  0
  4  5  1  1  0  0  0
  5  3  1  0  0  0  0
  5  8  2  0  0  0  0
  6 16  1  0  0  0  0
  7 10  1  0  0  0  0
  9  3  1  0  0  0  0
 10  6  1  0  0  0  0
 10  1  1  0  0  0  0
 13 17  1  0  0  0  0
 13  6  1  0  0  0  0
 14  2  1  0  0  0  0
 14  7  1  0  0  0  0
 15 11  1  0  0  0  0
 15  4  1  0  0  0  0
 16  4  1  0  0  0  0
 16 12  1  0  0  0  0
 16  9  1  0  0  0  0
 17 15  1  0  0  0  0
 18 14  1  0  0  0  0
 19 18  1  0  0  0  0
 20 19  2  0  0  0  0
 21 19  1  0  0  0  0
 22 21  1  0  0  0  0
 23 25  1  0  0  0  0
 24 30  1  0  0  0  0
 25 24  1  0  0  0  0
 26 23  1  0  0  0  0
 27 26  1  0  0  0  0
 27 28  1  0  0  0  0
 28  1  1  0  0  0  0
 28 25  1  0  0  0  0
 29 27  2  0  0  0  0
 31 23  1  0  0  0  0
 31 30  1  0  0  0  0
 32 33  2  0  0  0  0
 33 35  1  0  0  0  0
 33 26  1  0  0  0  0
 34 35  1  0  0  0  0
 36 33  1  0  0  0  0
 37 36  1  0  0  0  0
 38 39  1  0  0  0  0
 38 37  1  0  0  0  0
 40 38  2  0  0  0  0
 42 43  1  0  0  0  0
 42 39  2  0  0  0  0
 43 41  2  0  0  0  0
 44 45  1  0  0  0  0
 45 43  1  0  0  0  0
 46 45  1  0  0  0  0
 47 44  2  0  0  0  0
 48 47  1  0  0  0  0
 48 46  2  0  0  0  0
 49 51  1  0  0  0  0
 49 37  1  0  0  0  0
 50 49  1  0  0  0  0
 51 52  1  0  0  0  0
 54 53  2  0  0  0  0
 54 55  1  0  0  0  0
 55 58  1  0  0  0  0
 55 61  1  0  0  0  0
 56 58  1  0  0  0  0
 56 59  1  0  0  0  0
 56 57  1  0  0  0  0
 58 57  1  0  0  0  0
 60 56  1  0  0  0  0
 61 62  1  0  0  0  0
 62 63  1  0  0  0  0
 64 63  1  0  0  0  0
M  END
>  <MODEL>
1

>  <REMARK>
 VINA RESULT:      -1.1      0.000      0.000
  Name = 
  20 active torsions:
  status: ('A' for Active; 'I' for Inactive)
    1  A    between atoms: C_1  and  C_60
    2  A    between atoms: C_1  and  C_61
    3  A    between atoms: C_2  and  C_40
    4  A    between atoms: C_2  and  C_53
    5  A    between atoms: C_4  and  C_16
    6  A    between atoms: C_16  and  C_37
    7  A    between atoms: C_16  and  O_56
    8  A    between atoms: C_18  and  P_49
    9  A    between atoms: N_19  and  N_32
   10  A    between atoms: C_20  and  C_37
   11  A    between atoms: C_21  and  C_52
   12  A    between atoms: C_22  and  C_40
   13  A    between atoms: C_23  and  C_33
   14  A    between atoms: C_23  and  C_42
   15  A    between atoms: C_23  and  S_63
   16  A    between atoms: C_27  and  C_61
   17  A    between atoms: C_28  and  C_60
   18  A    between atoms: P_49  and  O_56
   19  A    between atoms: P_49  and  O_64
   20  A    between atoms: C_60  and  S_63
                            x       y       z     vdW  Elec       q    Type
                         _______ _______ _______ _____ _____    ______ ____

>  <TORSDO>
F 20

$$$$
=
 OpenBabel11072409523D

 64 71  0  0  1  0  0  0  0  0999 V2000
  161.7950  206.8820  149.7320 C   0  0  2  0  0  3  0  0  0  0  0  0
  160.6280  204.9680  153.4760 C   0  0  0  0  0  2  0  0  0  0  0  0
  161.9470  202.8690  147.9490 N   0  0  0  0  0  2  0  0  0  0  0  0
  160.8550  202.5530  150.0330 C   0  0  1  0  0  3  0  0  0  0  0  0
  161.3480  201.9100  148.7600 C   0  0  0  0  0  0  0  0  0  0  0  0
  160.6930  204.8730  150.8970 C   0  0  2  0  0  3  0  0  0  0  0  0
  160.9140  207.0370  152.1640 C   0  0  0  0  0  2  0  0  0  0  0  0
  160.9060  200.8610  148.2310 O   0  0  0  0  0  0  0  0  0  0  0  0
  161.4740  204.0960  148.4390 C   0  0  1  0  0  3  0  0  0  0  0  0
  161.5200  206.1500  151.0760 C   0  0  2  0  0  3  0  0  0  0  0  0
  160.6730  200.6550  151.3590 O   0  0  0  0  0  1  0  0  0  0  0  0
  162.7890  203.8280  150.3980 O   0  0  0  0  0  1  0  0  0  0  0  0
  160.1830  204.2350  152.2480 C   0  0  1  0  0  3  0  0  0  0  0  0
  160.9020  206.2700  153.4490 C   0  0  0  0  0  0  0  0  0  0  0  0
  161.1250  201.9540  151.3670 C   0  0  2  0  0  3  0  0  0  0  0  0
  161.4930  203.9130  149.9530 C   0  0  2  0  0  0  0  0  0  0  0  0
  160.3610  202.7110  152.4430 C   0  0  0  0  0  2  0  0  0  0  0  0
  160.7900  206.8950  154.8160 C   0  0  0  0  0  3  0  0  0  0  0  0
  160.8390  208.4270  154.8440 C   0  0  0  0  0  0  0  0  0  0  0  0
  160.3050  209.0560  153.9240 O   0  0  0  0  0  0  0  0  0  0  0  0
  161.5800  209.1630  155.9470 C   0  0  0  0  0  2  0  0  0  0  0  0
  162.3200  208.2990  156.7750 O   0  0  0  0  0  1  0  0  0  0  0  0
  161.4170  210.3490  150.6760 C   0  0  2  0  0  3  0  0  0  0  0  0
  163.0820  209.2630  151.8530 O   0  0  0  0  0  0  0  0  0  0  0  0
  161.9570  208.9900  151.1030 C   0  0  2  0  0  3  0  0  0  0  0  0
  161.1960  210.2970  149.1470 C   0  0  2  0  0  3  0  0  0  0  0  0
  162.0770  209.1390  148.7470 C   0  0  0  0  0  0  0  0  0  0  0  0
  162.4230  208.2670  149.8800 C   0  0  2  0  0  3  0  0  0  0  0  0
  162.2910  208.8500  147.5410 O   0  0  0  0  0  0  0  0  0  0  0  0
  162.9780  210.6080  152.1300 C   0  0  0  0  0  2  0  0  0  0  0  0
  162.4310  211.2650  151.0090 O   0  0  0  0  0  0  0  0  0  0  0  0
  161.0380  213.1970  148.7580 O   0  0  0  0  0  0  0  0  0  0  0  0
  161.4750  211.8700  148.1270 P   0  0  1  0  0  0  0  0  0  0  0  0
  163.5430  213.3230  147.8780 C   0  0  0  0  0  1  0  0  0  0  0  0
  163.1580  211.9610  147.8800 O   0  0  0  0  0  0  0  0  0  0  0  0
  160.5230  211.6390  146.7140 O   0  0  0  0  0  0  0  0  0  0  0  0
  160.3480  212.8750  146.0100 C   0  0  1  0  0  3  0  0  0  0  0  0
  160.9090  212.7230  144.6190 C   0  0  0  0  0  0  0  0  0  0  0  0
  160.0690  212.2900  143.5110 N   0  0  0  0  0  2  0  0  0  0  0  0
  162.0580  213.1700  144.3810 O   0  0  0  0  0  0  0  0  0  0  0  0
  160.9860  213.0960  141.0500 O   0  0  0  0  0  0  0  0  0  0  0  0
  160.4860  211.3710  142.5470 N   0  0  0  0  0  2  0  0  0  0  0  0
  160.8990  211.8170  141.2630 C   0  0  0  0  0  0  0  0  0  0  0  0
  160.5310  211.1550  138.8070 C   0  0  0  0  0  3  0  0  0  0  0  0
  161.0680  210.9570  140.0790 C   0  0  2  0  0  3  0  0  0  0  0  0
  161.7730  209.8050  140.0460 N   0  0  0  0  0  0  0  0  0  0  0  0
  160.9480  210.1590  138.0110 N   0  0  0  0  0  0  0  0  0  0  0  0
  161.7200  209.3510  138.7880 C   0  0  0  0  0  3  0  0  0  0  0  0
  158.8080  213.1510  145.8130 C   0  0  2  0  0  3  0  0  0  0  0  0
  158.4270  214.4490  145.3620 O   0  0  0  0  0  1  0  0  0  0  0  0
  157.7260  212.3910  146.6790 C   0  0  0  0  0  2  0  0  0  0  0  0
  157.5840  213.1440  147.9660 C   0  0  0  0  0  1  0  0  0  0  0  0
  159.2170  206.1510  148.9910 O   0  0  0  0  0  0  0  0  0  0  0  0
  160.5610  206.7590  148.3720 S   0  0  2  0  0  0  0  0  0  0  0  0
  161.1500  205.5370  147.2450 C   0  0  2  0  0  0  0  0  0  0  0  0
  159.3120  204.8920  144.9730 C   0  0  0  0  0  0  0  0  0  0  0  0
  159.8290  206.1710  145.5170 O   0  0  0  0  0  0  0  0  0  0  0  0
  159.8440  205.1490  146.4440 C   0  0  2  0  0  3  0  0  0  0  0  0
  158.1430  205.3420  144.4050 F   0  0  0  0  0  0  0  0  0  0  0  0
  160.2480  204.1040  144.1560 F   0  0  0  0  0  0  0  0  0  0  0  0
  162.3240  206.3650  146.4710 C   0  0  0  0  0  2  0  0  0  0  0  0
  162.8870  205.9650  145.1210 C   0  0  0  0  0  2  0  0  0  0  0  0
  163.4390  204.4550  145.3990 C   0  0  0  0  0  2  0  0  0  0  0  0
  164.3890  204.3480  146.5340 F   0  0  0  0  0  0  0  0  0  0  0  0
  1 28  1  1  0  0  0
  1 10  1  0  0  0  0
  3  9  1  0  0  0  0
  3  5  1  0  0  0  0
  4  5  1  6  0  0  0
  4 15  1  0  0  0  0
  6 10  1  0  0  0  0
  6 13  1  0  0  0  0
  7 14  1  0  0  0  0
  8  5  2  0  0  0  0
  9 16  1  0  0  0  0
 10  7  1  0  0  0  0
 11 15  1  0  0  0  0
 13 17  1  0  0  0  0
 13  2  1  0  0  0  0
 14  2  1  0  0  0  0
 14 18  2  0  0  0  0
 15 17  1  0  0  0  0
 16  4  1  0  0  0  0
 16 12  1  0  0  0  0
 16  6  1  0  0  0  0
 18 19  1  0  0  0  0
 19 21  1  0  0  0  0
 20 19  2  0  0  0  0
 21 22  1  0  0  0  0
 23 31  1  0  0  0  0
 23 25  1  0  0  0  0
 24 30  1  0  0  0  0
 25 24  1  0  0  0  0
 26 23  1  0  0  0  0
 27 26  1  0  0  0  0
 27 28  1  0  0  0  0
 28 25  1  0  0  0  0
 29 27  2  0  0  0  0
 31 30  1  0  0  0  0
 33 32  2  0  0  0  0
 33 26  1  0  0  0  0
 34 35  1  0  0  0  0
 35 33  1  0  0  0  0
 36 33  1  0  0  0  0
 37 36  1  0  0  0  0
 38 37  1  0  0  0  0
 39 38  1  0  0  0  0
 40 38  2  0  0  0  0
 41 43  2  0  0  0  0
 42 39  1  0  0  0  0
 43 42  1  0  0  0  0
 44 45  1  0  0  0  0
 45 43  1  0  0  0  0
 46 45  1  0  0  0  0
 47 48  1  0  0  0  0
 47 44  2  0  0  0  0
 48 46  2  0  0  0  0
 49 37  1  0  0  0  0
 49 51  1  0  0  0  0
 50 49  1  0  0  0  0
 51 52  1  0  0  0  0
 54 53  2  0  0  0  0
 54  1  1  0  0  0  0
 55 54  1  0  0  0  0
 55  9  1  0  0  0  0
 56 57  1  0  0  0  0
 56 58  1  0  0  0  0
 57 58  1  0  0  0  0
 58 55  1  0  0  0  0
 59 56  1  0  0  0  0
 60 56  1  0  0  0  0
 61 55  1  0  0  0  0
 62 63  1  0  0  0  0
 62 61  1  0  0  0  0
 63 64  1  0  0  0  0
M  END
>  <MODEL>
2

>  <REMARK>
 VINA RESULT:       0.4      5.086     10.078
  Name = 
  20 active torsions:
  status: ('A' for Active; 'I' for Inactive)
    1  A    between atoms: C_1  and  C_60
    2  A    between atoms: C_1  and  C_61
    3  A    between atoms: C_2  and  C_40
    4  A    between atoms: C_2  and  C_53
    5  A    between atoms: C_4  and  C_16
    6  A    between atoms: C_16  and  C_37
    7  A    between atoms: C_16  and  O_56
    8  A    between atoms: C_18  and  P_49
    9  A    between atoms: N_19  and  N_32
   10  A    between atoms: C_20  and  C_37
   11  A    between atoms: C_21  and  C_52
   12  A    between atoms: C_22  and  C_40
   13  A    between atoms: C_23  and  C_33
   14  A    between atoms: C_23  and  C_42
   15  A    between atoms: C_23  and  S_63
   16  A    between atoms: C_27  and  C_61
   17  A    between atoms: C_28  and  C_60
   18  A    between atoms: P_49  and  O_56
   19  A    between atoms: P_49  and  O_64
   20  A    between atoms: C_60  and  S_63
                            x       y       z     vdW  Elec       q    Type
                         _______ _______ _______ _____ _____    ______ ____

>  <TORSDO>
F 20

$$$$
