=
 OpenBabel11072414113D

 28 30  0  0  1  0  0  0  0  0999 V2000
  162.1030  210.6420  155.4720 S   0  0  0  0  0  0  0  0  0  0  0  0
  160.7130  211.4710  156.3020 C   0  0  2  0  0  3  0  0  0  0  0  0
  159.7960  212.0490  155.2300 C   0  0  1  0  0  3  0  0  0  0  0  0
  161.2130  212.5370  157.1500 N   0  0  0  0  0  1  0  0  0  0  0  0
  161.0860  210.4570  154.0130 C   0  0  0  0  0  0  0  0  0  0  0  0
  160.0080  211.2410  153.9960 C   0  0  0  0  0  0  0  0  0  0  0  0
  161.1980  206.9740  152.3250 C   0  0  1  0  0  3  0  0  0  0  0  0
  161.6720  205.7900  153.0220 N   0  0  0  0  0  1  0  0  0  0  0  0
  162.0530  206.3920  150.1680 O   0  0  0  0  0  1  0  0  0  0  0  0
  160.9830  208.1020  153.3110 C   0  0  0  0  0  0  0  0  0  0  0  0
  162.1710  207.3250  151.1980 C   0  0  1  0  0  3  0  0  0  0  0  0
  161.8600  208.7090  150.6620 C   0  0  0  0  0  2  0  0  0  0  0  0
  161.3400  209.3760  153.0360 C   0  0  0  0  0  0  0  0  0  0  0  0
  160.3560  207.8000  154.5170 O   0  0  0  0  0  1  0  0  0  0  0  0
  162.0890  209.7240  151.7720 C   0  0  0  0  0  2  0  0  0  0  0  0
  158.3650  212.0100  155.6790 C   0  0  0  0  0  0  0  0  0  0  0  0
  157.8600  210.9660  156.0650 O   0  0  0  0  0  0  0  0  0  0  0  0
  158.3860  214.3540  155.3880 O   0  0  0  0  0  1  0  0  0  0  0  0
  157.5590  213.2640  155.6590 C   0  0  0  0  0  2  0  0  0  0  0  0
  159.1000  211.3100  152.9270 O   0  0  0  0  0  0  0  0  0  0  0  0
  160.0490  213.5920  150.1730 C   0  0  0  0  0  0  0  0  0  0  0  0
  157.8800  214.2700  151.0290 C   0  0  0  0  0  3  0  0  0  0  0  0
  158.9410  214.4530  150.1400 C   0  0  0  0  0  3  0  0  0  0  0  0
  159.0290  212.3670  152.0080 C   0  0  0  0  0  0  0  0  0  0  0  0
  157.9210  213.2280  151.9570 C   0  0  0  0  0  3  0  0  0  0  0  0
  160.0820  212.5500  151.1070 C   0  0  0  0  0  3  0  0  0  0  0  0
  161.1240  213.7460  149.2950 O   0  0  0  0  0  0  0  0  0  0  0  0
  161.5870  212.6970  148.4550 C   0  0  0  0  0  1  0  0  0  0  0  0
  1  2  1  0  0  0  0
  2  4  1  1  0  0  0
  3 16  1  1  0  0  0
  3  2  1  0  0  0  0
  5  1  1  0  0  0  0
  6  5  2  0  0  0  0
  6  3  1  0  0  0  0
  7  8  1  1  0  0  0
  7 10  1  0  0  0  0
 10 14  1  0  0  0  0
 11  9  1  6  0  0  0
 11  7  1  0  0  0  0
 12 11  1  0  0  0  0
 12 15  1  0  0  0  0
 13 10  2  0  0  0  0
 13  5  1  0  0  0  0
 15 13  1  0  0  0  0
 16 17  2  0  0  0  0
 18 19  1  0  0  0  0
 19 16  1  0  0  0  0
 20  6  1  0  0  0  0
 21 26  1  0  0  0  0
 22 25  2  0  0  0  0
 23 21  2  0  0  0  0
 23 22  1  0  0  0  0
 24 20  1  0  0  0  0
 25 24  1  0  0  0  0
 26 24  2  0  0  0  0
 27 21  1  0  0  0  0
 28 27  1  0  0  0  0
M  END
>  <MODEL>
1

>  <REMARK>
 VINA RESULT:      -5.2      0.000      0.000
  Name = 
  6 active torsions:
  status: ('A' for Active; 'I' for Inactive)
    1  A    between atoms: C_1  and  O_3
    2  A    between atoms: C_5  and  O_17
    3  A    between atoms: C_9  and  C_13
    4  A    between atoms: C_9  and  C_18
    5  A    between atoms: O_17  and  C_24
    6  A    between atoms: C_21  and  C_25
                            x       y       z     vdW  Elec       q    Type
                         _______ _______ _______ _____ _____    ______ ____

>  <TORSDO>
F 6

$$$$
=
 OpenBabel11072414113D

 28 30  0  0  1  0  0  0  0  0999 V2000
  162.2270  208.8300  148.7820 S   0  0  0  0  0  0  0  0  0  0  0  0
  162.3980  208.5770  150.5760 C   0  0  2  0  0  3  0  0  0  0  0  0
  161.2540  207.6850  151.0400 C   0  0  1  0  0  3  0  0  0  0  0  0
  162.3350  209.8560  151.2590 N   0  0  0  0  0  1  0  0  0  0  0  0
  161.2840  207.3150  148.6860 C   0  0  0  0  0  0  0  0  0  0  0  0
  160.8200  206.8850  149.8600 C   0  0  0  0  0  0  0  0  0  0  0  0
  162.1530  204.8090  145.8650 C   0  0  1  0  0  3  0  0  0  0  0  0
  163.4740  204.7490  145.2620 N   0  0  0  0  0  1  0  0  0  0  0  0
  160.9130  204.3150  143.8790 O   0  0  0  0  0  1  0  0  0  0  0  0
  162.1970  205.6510  147.1220 C   0  0  0  0  0  0  0  0  0  0  0  0
  161.1430  205.3090  144.8300 C   0  0  1  0  0  3  0  0  0  0  0  0
  159.8370  205.6620  145.5140 C   0  0  0  0  0  2  0  0  0  0  0  0
  161.2200  206.5310  147.4330 C   0  0  0  0  0  0  0  0  0  0  0  0
  163.2680  205.4630  147.9920 O   0  0  0  0  0  1  0  0  0  0  0  0
  160.0860  206.8140  146.4770 C   0  0  0  0  0  2  0  0  0  0  0  0
  161.6940  206.8050  152.1730 C   0  0  0  0  0  0  0  0  0  0  0  0
  162.7170  206.1410  152.0880 O   0  0  0  0  0  0  0  0  0  0  0  0
  160.8600  208.0060  154.0290 O   0  0  0  0  0  1  0  0  0  0  0  0
  160.8740  206.7520  153.4180 C   0  0  0  0  0  2  0  0  0  0  0  0
  160.0050  205.7520  150.0190 O   0  0  0  0  0  0  0  0  0  0  0  0
  161.1780  202.3260  149.2650 C   0  0  0  0  0  0  0  0  0  0  0  0
  161.2410  202.6540  151.6700 C   0  0  0  0  0  3  0  0  0  0  0  0
  161.4460  201.8400  150.5540 C   0  0  0  0  0  3  0  0  0  0  0  0
  160.4820  204.4500  150.2200 C   0  0  0  0  0  0  0  0  0  0  0  0
  160.7650  203.9560  151.5040 C   0  0  0  0  0  3  0  0  0  0  0  0
  160.7010  203.6320  149.1070 C   0  0  0  0  0  3  0  0  0  0  0  0
  161.3760  201.5370  148.1280 O   0  0  0  0  0  0  0  0  0  0  0  0
  160.6900  201.7680  146.9050 C   0  0  0  0  0  1  0  0  0  0  0  0
  1  2  1  0  0  0  0
  2  3  1  0  0  0  0
  2  4  1  1  0  0  0
  3 16  1  1  0  0  0
  5  1  1  0  0  0  0
  5  6  2  0  0  0  0
  6 20  1  0  0  0  0
  6  3  1  0  0  0  0
  7  8  1  6  0  0  0
  7 10  1  0  0  0  0
 10 13  2  0  0  0  0
 10 14  1  0  0  0  0
 11  9  1  6  0  0  0
 11 12  1  0  0  0  0
 11  7  1  0  0  0  0
 12 15  1  0  0  0  0
 13  5  1  0  0  0  0
 15 13  1  0  0  0  0
 16 19  1  0  0  0  0
 17 16  2  0  0  0  0
 19 18  1  0  0  0  0
 20 24  1  0  0  0  0
 21 23  1  0  0  0  0
 23 22  2  0  0  0  0
 24 25  2  0  0  0  0
 25 22  1  0  0  0  0
 26 21  2  0  0  0  0
 26 24  1  0  0  0  0
 27 21  1  0  0  0  0
 28 27  1  0  0  0  0
M  END
>  <MODEL>
2

>  <REMARK>
 VINA RESULT:      -5.2      5.037      8.225
  Name = 
  6 active torsions:
  status: ('A' for Active; 'I' for Inactive)
    1  A    between atoms: C_1  and  O_3
    2  A    between atoms: C_5  and  O_17
    3  A    between atoms: C_9  and  C_13
    4  A    between atoms: C_9  and  C_18
    5  A    between atoms: O_17  and  C_24
    6  A    between atoms: C_21  and  C_25
                            x       y       z     vdW  Elec       q    Type
                         _______ _______ _______ _____ _____    ______ ____

>  <TORSDO>
F 6

$$$$
=
 OpenBabel11072414113D

 28 30  0  0  1  0  0  0  0  0999 V2000
  161.9880  210.2310  155.7330 S   0  0  0  0  0  0  0  0  0  0  0  0
  160.6620  211.2700  156.4180 C   0  0  2  0  0  3  0  0  0  0  0  0
  159.8670  211.8520  155.2560 C   0  0  1  0  0  3  0  0  0  0  0  0
  161.2380  212.3430  157.2080 N   0  0  0  0  0  1  0  0  0  0  0  0
  161.0260  210.0360  154.2390 C   0  0  0  0  0  0  0  0  0  0  0  0
  160.0440  210.9270  154.1010 C   0  0  0  0  0  0  0  0  0  0  0  0
  162.0550  207.7820  151.2640 C   0  0  1  0  0  3  0  0  0  0  0  0
  161.8030  208.1580  149.8820 N   0  0  0  0  0  1  0  0  0  0  0  0
  161.7020  205.4320  150.9840 O   0  0  0  0  0  1  0  0  0  0  0  0
  161.8290  208.9700  152.1720 C   0  0  0  0  0  0  0  0  0  0  0  0
  161.2010  206.5660  151.6230 C   0  0  1  0  0  3  0  0  0  0  0  0
  161.2220  206.3470  153.1240 C   0  0  0  0  0  2  0  0  0  0  0  0
  161.2030  208.8560  153.3640 C   0  0  0  0  0  0  0  0  0  0  0  0
  162.3300  210.2040  151.7650 O   0  0  0  0  0  1  0  0  0  0  0  0
  160.5820  207.5500  153.8010 C   0  0  0  0  0  2  0  0  0  0  0  0
  158.4210  212.0040  155.6270 C   0  0  0  0  0  0  0  0  0  0  0  0
  157.7500  211.0310  155.9390 O   0  0  0  0  0  0  0  0  0  0  0  0
  158.7820  214.3240  155.3730 O   0  0  0  0  0  1  0  0  0  0  0  0
  157.8030  213.3610  155.6200 C   0  0  0  0  0  2  0  0  0  0  0  0
  159.2000  211.0040  152.9820 O   0  0  0  0  0  0  0  0  0  0  0  0
  157.5740  213.8450  151.2590 C   0  0  0  0  0  0  0  0  0  0  0  0
  159.9440  213.8710  150.7290 C   0  0  0  0  0  3  0  0  0  0  0  0
  158.6680  214.4240  150.5970 C   0  0  0  0  0  3  0  0  0  0  0  0
  159.0440  212.1420  152.1780 C   0  0  0  0  0  0  0  0  0  0  0  0
  160.1330  212.7370  151.5210 C   0  0  0  0  0  3  0  0  0  0  0  0
  157.7720  212.7080  152.0500 C   0  0  0  0  0  3  0  0  0  0  0  0
  156.2860  214.3760  151.1500 O   0  0  0  0  0  0  0  0  0  0  0  0
  155.4470  214.1310  150.0290 C   0  0  0  0  0  1  0  0  0  0  0  0
  1  2  1  0  0  0  0
  2  4  1  6  0  0  0
  3 16  1  1  0  0  0
  3  2  1  0  0  0  0
  5  1  1  0  0  0  0
  6  5  2  0  0  0  0
  6  3  1  0  0  0  0
  7  8  1  6  0  0  0
  7 11  1  0  0  0  0
  7 10  1  0  0  0  0
 10 13  2  0  0  0  0
 11  9  1  6  0  0  0
 11 12  1  0  0  0  0
 12 15  1  0  0  0  0
 13 15  1  0  0  0  0
 13  5  1  0  0  0  0
 14 10  1  0  0  0  0
 16 17  2  0  0  0  0
 18 19  1  0  0  0  0
 19 16  1  0  0  0  0
 20  6  1  0  0  0  0
 21 26  1  0  0  0  0
 22 25  2  0  0  0  0
 23 22  1  0  0  0  0
 23 21  2  0  0  0  0
 24 20  1  0  0  0  0
 25 24  1  0  0  0  0
 26 24  2  0  0  0  0
 27 21  1  0  0  0  0
 28 27  1  0  0  0  0
M  END
>  <MODEL>
3

>  <REMARK>
 VINA RESULT:      -5.1      1.549      2.386
  Name = 
  6 active torsions:
  status: ('A' for Active; 'I' for Inactive)
    1  A    between atoms: C_1  and  O_3
    2  A    between atoms: C_5  and  O_17
    3  A    between atoms: C_9  and  C_13
    4  A    between atoms: C_9  and  C_18
    5  A    between atoms: O_17  and  C_24
    6  A    between atoms: C_21  and  C_25
                            x       y       z     vdW  Elec       q    Type
                         _______ _______ _______ _____ _____    ______ ____

>  <TORSDO>
F 6

$$$$
=
 OpenBabel11072414113D

 28 30  0  0  1  0  0  0  0  0999 V2000
  162.6820  208.6200  150.5980 S   0  0  0  0  0  0  0  0  0  0  0  0
  162.0850  208.0320  148.9830 C   0  0  2  0  0  3  0  0  0  0  0  0
  161.5870  206.6020  149.1540 C   0  0  1  0  0  3  0  0  0  0  0  0
  163.1680  208.0660  148.0170 N   0  0  0  0  0  1  0  0  0  0  0  0
  161.6370  207.4090  151.3950 C   0  0  0  0  0  0  0  0  0  0  0  0
  161.2040  206.4420  150.5850 C   0  0  0  0  0  0  0  0  0  0  0  0
  160.0730  209.0230  154.5490 C   0  0  1  0  0  3  0  0  0  0  0  0
  160.4510  210.3480  155.0090 N   0  0  0  0  0  1  0  0  0  0  0  0
  159.7500  208.0540  156.7120 O   0  0  0  0  0  1  0  0  0  0  0  0
  160.6080  208.7900  153.1530 C   0  0  0  0  0  0  0  0  0  0  0  0
  160.5390  207.9790  155.5640 C   0  0  1  0  0  3  0  0  0  0  0  0
  160.4240  206.5910  154.9660 C   0  0  0  0  0  2  0  0  0  0  0  0
  161.1510  207.6100  152.7780 C   0  0  0  0  0  0  0  0  0  0  0  0
  160.4880  209.8240  152.2290 O   0  0  0  0  0  1  0  0  0  0  0  0
  161.3660  206.4950  153.7730 C   0  0  0  0  0  2  0  0  0  0  0  0
  160.4300  206.3310  148.2380 C   0  0  0  0  0  0  0  0  0  0  0  0
  159.2790  206.4650  148.6280 O   0  0  0  0  0  0  0  0  0  0  0  0
  161.8950  205.1950  146.7750 O   0  0  0  0  0  1  0  0  0  0  0  0
  160.6940  205.9010  146.8340 C   0  0  0  0  0  2  0  0  0  0  0  0
  160.4220  205.3540  151.0040 O   0  0  0  0  0  0  0  0  0  0  0  0
  160.7550  202.0270  149.4200 C   0  0  0  0  0  0  0  0  0  0  0  0
  161.8140  201.9550  151.6040 C   0  0  0  0  0  3  0  0  0  0  0  0
  161.4520  201.3220  150.4130 C   0  0  0  0  0  3  0  0  0  0  0  0
  160.7710  204.0080  150.8290 C   0  0  0  0  0  0  0  0  0  0  0  0
  161.4790  203.2950  151.8100 C   0  0  0  0  0  3  0  0  0  0  0  0
  160.4230  203.3700  149.6350 C   0  0  0  0  0  3  0  0  0  0  0  0
  160.3820  201.4240  148.2160 O   0  0  0  0  0  0  0  0  0  0  0  0
  160.8810  201.8500  146.9560 C   0  0  0  0  0  1  0  0  0  0  0  0
  1  5  1  0  0  0  0
  2  4  1  6  0  0  0
  2  3  1  0  0  0  0
  2  1  1  0  0  0  0
  3 16  1  6  0  0  0
  3  6  1  0  0  0  0
  5 13  1  0  0  0  0
  6 20  1  0  0  0  0
  6  5  2  0  0  0  0
  7  8  1  1  0  0  0
  7 11  1  0  0  0  0
 10  7  1  0  0  0  0
 11  9  1  1  0  0  0
 12 11  1  0  0  0  0
 13 10  2  0  0  0  0
 13 15  1  0  0  0  0
 14 10  1  0  0  0  0
 15 12  1  0  0  0  0
 16 17  2  0  0  0  0
 18 19  1  0  0  0  0
 19 16  1  0  0  0  0
 21 26  2  0  0  0  0
 21 23  1  0  0  0  0
 22 25  1  0  0  0  0
 23 22  2  0  0  0  0
 24 20  1  0  0  0  0
 24 25  2  0  0  0  0
 26 24  1  0  0  0  0
 27 21  1  0  0  0  0
 28 27  1  0  0  0  0
M  END
>  <MODEL>
4

>  <REMARK>
 VINA RESULT:      -4.4      3.921      8.531
  Name = 
  6 active torsions:
  status: ('A' for Active; 'I' for Inactive)
    1  A    between atoms: C_1  and  O_3
    2  A    between atoms: C_5  and  O_17
    3  A    between atoms: C_9  and  C_13
    4  A    between atoms: C_9  and  C_18
    5  A    between atoms: O_17  and  C_24
    6  A    between atoms: C_21  and  C_25
                            x       y       z     vdW  Elec       q    Type
                         _______ _______ _______ _____ _____    ______ ____

>  <TORSDO>
F 6

$$$$
=
 OpenBabel11072414113D

 28 30  0  0  1  0  0  0  0  0999 V2000
  159.2950  213.8350  154.9010 S   0  0  0  0  0  0  0  0  0  0  0  0
  160.1960  212.5760  155.8570 C   0  0  2  0  0  3  0  0  0  0  0  0
  159.8070  211.2040  155.3210 C   0  0  1  0  0  3  0  0  0  0  0  0
  159.8370  212.6770  157.2600 N   0  0  0  0  0  1  0  0  0  0  0  0
  159.1380  212.6630  153.5600 C   0  0  0  0  0  0  0  0  0  0  0  0
  159.3670  211.3980  153.9100 C   0  0  0  0  0  0  0  0  0  0  0  0
  157.5450  213.9550  150.2760 C   0  0  1  0  0  3  0  0  0  0  0  0
  156.3440  213.3630  149.7110 N   0  0  0  0  0  1  0  0  0  0  0  0
  158.6170  214.4530  148.1960 O   0  0  0  0  0  1  0  0  0  0  0  0
  157.7510  213.4570  151.6890 C   0  0  0  0  0  0  0  0  0  0  0  0
  158.7310  213.6800  149.3510 C   0  0  1  0  0  3  0  0  0  0  0  0
  160.0270  214.0230  150.0600 C   0  0  0  0  0  2  0  0  0  0  0  0
  158.9710  213.1180  152.1620 C   0  0  0  0  0  0  0  0  0  0  0  0
  156.6390  213.3940  152.5250 O   0  0  0  0  0  1  0  0  0  0  0  0
  160.1830  213.1020  151.2620 C   0  0  0  0  0  2  0  0  0  0  0  0
  160.9620  210.2510  155.4160 C   0  0  0  0  0  0  0  0  0  0  0  0
  162.0720  210.5730  155.0160 O   0  0  0  0  0  0  0  0  0  0  0  0
  161.9320  208.1650  155.9510 O   0  0  0  0  0  1  0  0  0  0  0  0
  160.7490  208.9010  156.0120 C   0  0  0  0  0  2  0  0  0  0  0  0
  159.2430  210.3030  153.0390 O   0  0  0  0  0  0  0  0  0  0  0  0
  161.4780  207.5750  151.9240 C   0  0  0  0  0  0  0  0  0  0  0  0
  162.3360  209.6780  151.0660 C   0  0  0  0  0  3  0  0  0  0  0  0
  162.4380  208.2910  151.1920 C   0  0  0  0  0  3  0  0  0  0  0  0
  160.3190  209.6520  152.4190 C   0  0  0  0  0  0  0  0  0  0  0  0
  161.2780  210.3570  151.6740 C   0  0  0  0  0  3  0  0  0  0  0  0
  160.4210  208.2630  152.5300 C   0  0  0  0  0  3  0  0  0  0  0  0
  161.5500  206.1860  152.0650 O   0  0  0  0  0  0  0  0  0  0  0  0
  161.2290  205.5200  153.2790 C   0  0  0  0  0  1  0  0  0  0  0  0
  1  2  1  0  0  0  0
  2  4  1  1  0  0  0
  3 16  1  6  0  0  0
  3  2  1  0  0  0  0
  5  6  2  0  0  0  0
  5  1  1  0  0  0  0
  6  3  1  0  0  0  0
  7  8  1  6  0  0  0
  7 10  1  0  0  0  0
 10 13  2  0  0  0  0
 10 14  1  0  0  0  0
 11  9  1  6  0  0  0
 11 12  1  0  0  0  0
 11  7  1  0  0  0  0
 12 15  1  0  0  0  0
 13  5  1  0  0  0  0
 15 13  1  0  0  0  0
 16 19  1  0  0  0  0
 17 16  2  0  0  0  0
 18 19  1  0  0  0  0
 20  6  1  0  0  0  0
 21 27  1  0  0  0  0
 21 26  1  0  0  0  0
 22 23  1  0  0  0  0
 22 25  2  0  0  0  0
 23 21  2  0  0  0  0
 24 26  2  0  0  0  0
 24 20  1  0  0  0  0
 25 24  1  0  0  0  0
 27 28  1  0  0  0  0
M  END
>  <MODEL>
5

>  <REMARK>
 VINA RESULT:      -3.7      2.420      5.742
  Name = 
  6 active torsions:
  status: ('A' for Active; 'I' for Inactive)
    1  A    between atoms: C_1  and  O_3
    2  A    between atoms: C_5  and  O_17
    3  A    between atoms: C_9  and  C_13
    4  A    between atoms: C_9  and  C_18
    5  A    between atoms: O_17  and  C_24
    6  A    between atoms: C_21  and  C_25
                            x       y       z     vdW  Elec       q    Type
                         _______ _______ _______ _____ _____    ______ ____

>  <TORSDO>
F 6

$$$$
=
 OpenBabel11072414113D

 28 30  0  0  1  0  0  0  0  0999 V2000
  160.5510  203.2580  150.0140 S   0  0  0  0  0  0  0  0  0  0  0  0
  160.4370  204.0940  151.6260 C   0  0  2  0  0  3  0  0  0  0  0  0
  161.6340  205.0270  151.7620 C   0  0  1  0  0  3  0  0  0  0  0  0
  160.4560  203.1080  152.6920 N   0  0  0  0  0  1  0  0  0  0  0  0
  161.5640  204.6050  149.4180 C   0  0  0  0  0  0  0  0  0  0  0  0
  162.0760  205.3710  150.3810 C   0  0  0  0  0  0  0  0  0  0  0  0
  160.8040  206.1650  145.9560 C   0  0  1  0  0  3  0  0  0  0  0  0
  159.4620  206.2030  145.4010 N   0  0  0  0  0  1  0  0  0  0  0  0
  161.9560  205.8280  143.8870 O   0  0  0  0  0  1  0  0  0  0  0  0
  160.7470  205.7860  147.4200 C   0  0  0  0  0  0  0  0  0  0  0  0
  161.6760  205.2320  145.1160 C   0  0  1  0  0  3  0  0  0  0  0  0
  162.9760  204.9470  145.8440 C   0  0  0  0  0  2  0  0  0  0  0  0
  161.6330  204.9300  147.9760 C   0  0  0  0  0  0  0  0  0  0  0  0
  159.7670  206.3820  148.2080 O   0  0  0  0  0  1  0  0  0  0  0  0
  162.6590  204.2090  147.1360 C   0  0  0  0  0  2  0  0  0  0  0  0
  161.2650  206.2520  152.5470 C   0  0  0  0  0  0  0  0  0  0  0  0
  160.4560  207.0560  152.1060 O   0  0  0  0  0  0  0  0  0  0  0  0
  160.9510  207.0300  154.7550 O   0  0  0  0  0  1  0  0  0  0  0  0
  161.8900  206.4800  153.8810 C   0  0  0  0  0  2  0  0  0  0  0  0
  162.9480  206.4480  150.1520 O   0  0  0  0  0  0  0  0  0  0  0  0
  161.9260  209.9280  150.8790 C   0  0  0  0  0  0  0  0  0  0  0  0
  161.9560  209.6160  148.4710 C   0  0  0  0  0  3  0  0  0  0  0  0
  161.7370  210.4330  149.5830 C   0  0  0  0  0  3  0  0  0  0  0  0
  162.5410  207.7720  149.9400 C   0  0  0  0  0  0  0  0  0  0  0  0
  162.3610  208.2920  148.6480 C   0  0  0  0  0  3  0  0  0  0  0  0
  162.3310  208.6000  151.0470 C   0  0  0  0  0  3  0  0  0  0  0  0
  161.7190  210.7200  152.0110 O   0  0  0  0  0  0  0  0  0  0  0  0
  161.6010  210.1750  153.3190 C   0  0  0  0  0  1  0  0  0  0  0  0
  1  2  1  0  0  0  0
  2  3  1  0  0  0  0
  2  4  1  1  0  0  0
  3 16  1  6  0  0  0
  5  1  1  0  0  0  0
  5  6  2  0  0  0  0
  6  3  1  0  0  0  0
  7  8  1  6  0  0  0
  7 10  1  0  0  0  0
 10 13  2  0  0  0  0
 10 14  1  0  0  0  0
 11  9  1  6  0  0  0
 11 12  1  0  0  0  0
 11  7  1  0  0  0  0
 12 15  1  0  0  0  0
 13  5  1  0  0  0  0
 15 13  1  0  0  0  0
 16 19  1  0  0  0  0
 17 16  2  0  0  0  0
 19 18  1  0  0  0  0
 20  6  1  0  0  0  0
 21 26  1  0  0  0  0
 21 27  1  0  0  0  0
 22 25  2  0  0  0  0
 22 23  1  0  0  0  0
 23 21  2  0  0  0  0
 24 20  1  0  0  0  0
 24 26  2  0  0  0  0
 25 24  1  0  0  0  0
 27 28  1  0  0  0  0
M  END
>  <MODEL>
6

>  <REMARK>
 VINA RESULT:      -3.3      4.237      6.969
  Name = 
  6 active torsions:
  status: ('A' for Active; 'I' for Inactive)
    1  A    between atoms: C_1  and  O_3
    2  A    between atoms: C_5  and  O_17
    3  A    between atoms: C_9  and  C_13
    4  A    between atoms: C_9  and  C_18
    5  A    between atoms: O_17  and  C_24
    6  A    between atoms: C_21  and  C_25
                            x       y       z     vdW  Elec       q    Type
                         _______ _______ _______ _____ _____    ______ ____

>  <TORSDO>
F 6

$$$$
=
 OpenBabel11072414113D

 28 30  0  0  1  0  0  0  0  0999 V2000
  161.2700  210.5980  151.3390 S   0  0  0  0  0  0  0  0  0  0  0  0
  161.4040  209.8680  149.6780 C   0  0  2  0  0  3  0  0  0  0  0  0
  162.3340  208.6630  149.7630 C   0  0  1  0  0  3  0  0  0  0  0  0
  161.9480  210.8460  148.7540 N   0  0  0  0  0  1  0  0  0  0  0  0
  161.7300  209.0190  152.0400 C   0  0  0  0  0  0  0  0  0  0  0  0
  162.2880  208.1770  151.1710 C   0  0  0  0  0  0  0  0  0  0  0  0
  161.2450  209.0850  155.8810 C   0  0  1  0  0  3  0  0  0  0  0  0
  162.3460  209.3290  156.7980 N   0  0  0  0  0  1  0  0  0  0  0  0
  160.0720  207.5210  157.2600 O   0  0  0  0  0  1  0  0  0  0  0  0
  161.6670  209.4190  154.4670 C   0  0  0  0  0  0  0  0  0  0  0  0
  160.7520  207.6470  156.0490 C   0  0  1  0  0  3  0  0  0  0  0  0
  159.8200  207.2860  154.9090 C   0  0  0  0  0  2  0  0  0  0  0  0
  161.3250  208.6450  153.4130 C   0  0  0  0  0  0  0  0  0  0  0  0
  162.3940  210.5890  154.2650 O   0  0  0  0  0  1  0  0  0  0  0  0
  160.6030  207.3320  153.6050 C   0  0  0  0  0  2  0  0  0  0  0  0
  161.9110  207.5980  148.7940 C   0  0  0  0  0  0  0  0  0  0  0  0
  160.7460  207.2300  148.7390 O   0  0  0  0  0  0  0  0  0  0  0  0
  162.3340  205.9920  147.1150 O   0  0  0  0  0  1  0  0  0  0  0  0
  162.9270  206.9910  147.8870 C   0  0  0  0  0  2  0  0  0  0  0  0
  162.7810  206.9060  151.5090 O   0  0  0  0  0  0  0  0  0  0  0  0
  161.0170  203.9640  150.1250 C   0  0  0  0  0  0  0  0  0  0  0  0
  160.8310  203.9110  152.5460 C   0  0  0  0  0  3  0  0  0  0  0  0
  160.5530  203.3480  151.2980 C   0  0  0  0  0  3  0  0  0  0  0  0
  162.0330  205.7220  151.4610 C   0  0  0  0  0  0  0  0  0  0  0  0
  161.5730  205.0910  152.6280 C   0  0  0  0  0  3  0  0  0  0  0  0
  161.7590  205.1460  150.2160 C   0  0  0  0  0  3  0  0  0  0  0  0
  160.7580  203.4250  148.8620 O   0  0  0  0  0  0  0  0  0  0  0  0
  160.8230  202.0310  148.5940 C   0  0  0  0  0  1  0  0  0  0  0  0
  1  5  1  0  0  0  0
  2  4  1  6  0  0  0
  2  3  1  0  0  0  0
  2  1  1  0  0  0  0
  3 16  1  6  0  0  0
  3  6  1  0  0  0  0
  5 13  1  0  0  0  0
  6 20  1  0  0  0  0
  6  5  2  0  0  0  0
  7 11  1  0  0  0  0
  7  8  1  1  0  0  0
 10  7  1  0  0  0  0
 11  9  1  1  0  0  0
 12 11  1  0  0  0  0
 13 15  1  0  0  0  0
 13 10  2  0  0  0  0
 14 10  1  0  0  0  0
 15 12  1  0  0  0  0
 17 16  2  0  0  0  0
 18 19  1  0  0  0  0
 19 16  1  0  0  0  0
 21 26  2  0  0  0  0
 21 23  1  0  0  0  0
 22 25  1  0  0  0  0
 23 22  2  0  0  0  0
 24 20  1  0  0  0  0
 24 25  2  0  0  0  0
 26 24  1  0  0  0  0
 27 21  1  0  0  0  0
 28 27  1  0  0  0  0
M  END
>  <MODEL>
7

>  <REMARK>
 VINA RESULT:      -3.1      3.722      7.601
  Name = 
  6 active torsions:
  status: ('A' for Active; 'I' for Inactive)
    1  A    between atoms: C_1  and  O_3
    2  A    between atoms: C_5  and  O_17
    3  A    between atoms: C_9  and  C_13
    4  A    between atoms: C_9  and  C_18
    5  A    between atoms: O_17  and  C_24
    6  A    between atoms: C_21  and  C_25
                            x       y       z     vdW  Elec       q    Type
                         _______ _______ _______ _____ _____    ______ ____

>  <TORSDO>
F 6

$$$$
=
 OpenBabel11072414113D

 28 30  0  0  1  0  0  0  0  0999 V2000
  161.4940  205.6510  152.2280 S   0  0  0  0  0  0  0  0  0  0  0  0
  161.4990  203.9960  151.4710 C   0  0  2  0  0  3  0  0  0  0  0  0
  160.6460  204.0490  150.2090 C   0  0  1  0  0  3  0  0  0  0  0  0
  160.9460  203.0290  152.4010 N   0  0  0  0  0  1  0  0  0  0  0  0
  161.0980  206.3500  150.6310 C   0  0  0  0  0  0  0  0  0  0  0  0
  160.6450  205.4650  149.7430 C   0  0  0  0  0  0  0  0  0  0  0  0
  161.9570  210.1100  150.9780 C   0  0  1  0  0  3  0  0  0  0  0  0
  161.1540  211.0170  151.7820 N   0  0  0  0  0  1  0  0  0  0  0  0
  162.5120  211.6750  149.2560 O   0  0  0  0  0  1  0  0  0  0  0  0
  161.5690  208.6780  151.2740 C   0  0  0  0  0  0  0  0  0  0  0  0
  161.8250  210.4860  149.5020 C   0  0  1  0  0  3  0  0  0  0  0  0
  162.4030  209.3840  148.6360 C   0  0  0  0  0  2  0  0  0  0  0  0
  161.4510  207.7490  150.3000 C   0  0  0  0  0  0  0  0  0  0  0  0
  161.3740  208.3190  152.6050 O   0  0  0  0  0  1  0  0  0  0  0  0
  161.5810  208.1200  148.8420 C   0  0  0  0  0  2  0  0  0  0  0  0
  161.1890  203.1210  149.1630 C   0  0  0  0  0  0  0  0  0  0  0  0
  162.2800  203.3280  148.6500 O   0  0  0  0  0  0  0  0  0  0  0  0
  161.2400  200.8880  148.3940 O   0  0  0  0  0  1  0  0  0  0  0  0
  160.3880  201.9320  148.7530 C   0  0  0  0  0  2  0  0  0  0  0  0
  160.2170  205.7950  148.4480 O   0  0  0  0  0  0  0  0  0  0  0  0
  160.8910  204.0140  145.2760 C   0  0  0  0  0  0  0  0  0  0  0  0
  162.7060  205.5730  145.6900 C   0  0  0  0  0  3  0  0  0  0  0  0
  162.1130  204.5910  144.8950 C   0  0  0  0  0  3  0  0  0  0  0  0
  160.8680  205.4050  147.2690 C   0  0  0  0  0  0  0  0  0  0  0  0
  162.0840  205.9830  146.8710 C   0  0  0  0  0  3  0  0  0  0  0  0
  160.2750  204.4300  146.4620 C   0  0  0  0  0  3  0  0  0  0  0  0
  160.2700  203.0310  144.5010 O   0  0  0  0  0  0  0  0  0  0  0  0
  160.0810  201.6990  144.9570 C   0  0  0  0  0  1  0  0  0  0  0  0
  2  1  1  0  0  0  0
  2  4  1  1  0  0  0
  3 16  1  6  0  0  0
  3  2  1  0  0  0  0
  5  1  1  0  0  0  0
  6  3  1  0  0  0  0
  6  5  2  0  0  0  0
  7 10  1  0  0  0  0
  7  8  1  1  0  0  0
 10 14  1  0  0  0  0
 11  9  1  1  0  0  0
 11  7  1  0  0  0  0
 12 15  1  0  0  0  0
 12 11  1  0  0  0  0
 13  5  1  0  0  0  0
 13 10  2  0  0  0  0
 15 13  1  0  0  0  0
 17 16  2  0  0  0  0
 18 19  1  0  0  0  0
 19 16  1  0  0  0  0
 20  6  1  0  0  0  0
 21 26  1  0  0  0  0
 22 25  2  0  0  0  0
 23 21  2  0  0  0  0
 23 22  1  0  0  0  0
 24 20  1  0  0  0  0
 25 24  1  0  0  0  0
 26 24  2  0  0  0  0
 27 28  1  0  0  0  0
 27 21  1  0  0  0  0
M  END
>  <MODEL>
8

>  <REMARK>
 VINA RESULT:      -3.1      4.524      8.793
  Name = 
  6 active torsions:
  status: ('A' for Active; 'I' for Inactive)
    1  A    between atoms: C_1  and  O_3
    2  A    between atoms: C_5  and  O_17
    3  A    between atoms: C_9  and  C_13
    4  A    between atoms: C_9  and  C_18
    5  A    between atoms: O_17  and  C_24
    6  A    between atoms: C_21  and  C_25
                            x       y       z     vdW  Elec       q    Type
                         _______ _______ _______ _____ _____    ______ ____

>  <TORSDO>
F 6

$$$$
=
 OpenBabel11072414113D

 28 30  0  0  1  0  0  0  0  0999 V2000
  161.6030  209.9440  153.9430 S   0  0  0  0  0  0  0  0  0  0  0  0
  161.8990  208.1570  154.1120 C   0  0  2  0  0  3  0  0  0  0  0  0
  161.0000  207.4320  153.1170 C   0  0  1  0  0  3  0  0  0  0  0  0
  161.5810  207.7320  155.4630 N   0  0  0  0  0  1  0  0  0  0  0  0
  161.0150  209.6620  152.2790 C   0  0  0  0  0  0  0  0  0  0  0  0
  160.7060  208.3930  152.0160 C   0  0  0  0  0  0  0  0  0  0  0  0
  160.3520  212.9530  150.3490 C   0  0  1  0  0  3  0  0  0  0  0  0
  159.0080  213.4210  150.0530 N   0  0  0  0  0  1  0  0  0  0  0  0
  161.3710  213.7240  148.3270 O   0  0  0  0  0  1  0  0  0  0  0  0
  160.2960  211.8280  151.3590 C   0  0  0  0  0  0  0  0  0  0  0  0
  161.0570  212.5720  149.0470 C   0  0  1  0  0  3  0  0  0  0  0  0
  162.3310  211.8090  149.3560 C   0  0  0  0  0  2  0  0  0  0  0  0
  161.0760  210.7300  151.2560 C   0  0  0  0  0  0  0  0  0  0  0  0
  159.4360  211.9710  152.4450 O   0  0  0  0  0  1  0  0  0  0  0  0
  161.9630  210.5080  150.0540 C   0  0  0  0  0  2  0  0  0  0  0  0
  161.6700  206.1910  152.6040 C   0  0  0  0  0  0  0  0  0  0  0  0
  162.7620  206.2500  152.0590 O   0  0  0  0  0  0  0  0  0  0  0  0
  161.6100  203.9170  151.9660 O   0  0  0  0  0  1  0  0  0  0  0  0
  160.9930  204.8730  152.7730 C   0  0  0  0  0  2  0  0  0  0  0  0
  160.1700  207.9480  150.7970 O   0  0  0  0  0  0  0  0  0  0  0  0
  161.2380  205.3730  148.3650 C   0  0  0  0  0  0  0  0  0  0  0  0
  162.7060  207.2960  148.1530 C   0  0  0  0  0  3  0  0  0  0  0  0
  162.3310  206.0100  147.7570 C   0  0  0  0  0  3  0  0  0  0  0  0
  160.9060  207.3180  149.7850 C   0  0  0  0  0  0  0  0  0  0  0  0
  161.9940  207.9500  149.1600 C   0  0  0  0  0  3  0  0  0  0  0  0
  160.5300  206.0360  149.3740 C   0  0  0  0  0  3  0  0  0  0  0  0
  160.8350  204.0890  147.9890 O   0  0  0  0  0  0  0  0  0  0  0  0
  160.8310  202.9900  148.8910 C   0  0  0  0  0  1  0  0  0  0  0  0
  1  2  1  0  0  0  0
  2  4  1  1  0  0  0
  3 16  1  6  0  0  0
  3  2  1  0  0  0  0
  5  1  1  0  0  0  0
  6  5  2  0  0  0  0
  6  3  1  0  0  0  0
  7  8  1  6  0  0  0
  7 10  1  0  0  0  0
 10 14  1  0  0  0  0
 11  9  1  1  0  0  0
 11 12  1  0  0  0  0
 11  7  1  0  0  0  0
 12 15  1  0  0  0  0
 13 10  2  0  0  0  0
 13  5  1  0  0  0  0
 15 13  1  0  0  0  0
 16 19  1  0  0  0  0
 17 16  2  0  0  0  0
 18 19  1  0  0  0  0
 20  6  1  0  0  0  0
 21 26  1  0  0  0  0
 22 25  2  0  0  0  0
 23 22  1  0  0  0  0
 23 21  2  0  0  0  0
 24 20  1  0  0  0  0
 25 24  1  0  0  0  0
 26 24  2  0  0  0  0
 27 21  1  0  0  0  0
 27 28  1  0  0  0  0
M  END
>  <MODEL>
9

>  <REMARK>
 VINA RESULT:      -3.1      2.792      6.746
  Name = 
  6 active torsions:
  status: ('A' for Active; 'I' for Inactive)
    1  A    between atoms: C_1  and  O_3
    2  A    between atoms: C_5  and  O_17
    3  A    between atoms: C_9  and  C_13
    4  A    between atoms: C_9  and  C_18
    5  A    between atoms: O_17  and  C_24
    6  A    between atoms: C_21  and  C_25
                            x       y       z     vdW  Elec       q    Type
                         _______ _______ _______ _____ _____    ______ ____

>  <TORSDO>
F 6

$$$$
