=
 OpenBabel11072410003D

 54 56  0  0  1  0  0  0  0  0999 V2000
  161.5490  209.9220  151.0610 C   0  0  2  0  0  3  0  0  0  0  0  0
  161.9060  208.7380  148.3020 C   0  0  0  0  0  2  0  0  0  0  0  0
  161.9450  206.5080  149.4250 C   0  0  0  0  0  0  0  0  0  0  0  0
  161.3660  210.7340  149.7440 C   0  0  2  0  0  3  0  0  0  0  0  0
  161.7530  207.8530  149.5230 C   0  0  0  0  0  0  0  0  0  0  0  0
  162.3600  210.1330  148.7020 C   0  0  0  0  0  2  0  0  0  0  0  0
  161.6090  205.7480  150.5490 O   0  0  0  0  0  1  0  0  0  0  0  0
  161.3370  208.3950  150.8990 C   0  0  0  0  0  2  0  0  0  0  0  0
  161.4130  212.2940  149.6510 C   0  0  0  0  0  0  0  0  0  0  0  0
  160.5670  212.9890  150.2270 O   0  0  0  0  0  0  0  0  0  0  0  0
  162.4920  212.8850  148.8890 O   0  0  0  0  0  0  0  0  0  0  0  0
  162.2480  213.8610  147.8770 C   0  0  0  0  0  2  0  0  0  0  0  0
  160.9650  213.7880  147.2730 O   0  0  0  0  0  0  0  0  0  0  0  0
  161.0240  213.0870  146.0360 C   0  0  0  0  0  2  0  0  0  0  0  0
  161.3700  213.8870  144.9130 O   0  0  0  0  0  0  0  0  0  0  0  0
  159.9990  214.2270  144.7370 C   0  0  2  0  0  3  0  0  0  0  0  0
  158.9690  213.2630  145.3090 C   0  0  2  0  0  3  0  0  0  0  0  0
  158.9820  213.5010  143.8330 C   0  0  2  0  0  3  0  0  0  0  0  0
  160.2990  212.1350  142.2020 C   0  0  0  0  0  0  0  0  0  0  0  0
  159.3280  212.3160  143.0610 C   0  0  0  0  0  3  0  0  0  0  0  0
  162.4670  211.6450  141.3560 O   0  0  0  0  0  1  0  0  0  0  0  0
  161.0740  211.7080  141.2350 C   0  0  0  0  0  0  0  0  0  0  0  0
  160.3890  210.9660  140.1130 C   0  0  0  0  0  2  0  0  0  0  0  0
  159.3680  211.6860  139.2640 C   0  0  1  0  0  3  0  0  0  0  0  0
  159.9230  212.8950  138.7970 O   0  0  0  0  0  1  0  0  0  0  0  0
  157.4860  209.6800  138.6580 O   0  0  0  0  0  1  0  0  0  0  0  0
  157.6320  211.8630  137.2610 O   0  0  0  0  0  1  0  0  0  0  0  0
  158.7110  210.6490  137.8870 P   0  0  0  0  0  0  0  0  0  0  0  0
  157.0180  214.3800  144.7050 O   0  0  0  0  0  1  0  0  0  0  0  0
  157.5450  213.7320  145.7840 C   0  0  2  0  0  3  0  0  0  0  0  0
  157.4400  214.4530  147.0610 O   0  0  0  0  0  0  0  0  0  0  0  0
  157.5340  212.8150  148.8250 O   0  0  0  0  0  1  0  0  0  0  0  0
  156.6970  213.7580  148.1030 C   0  0  0  0  0  2  0  0  0  0  0  0
  160.9600  210.2240  153.5680 C   0  0  0  0  0  3  0  0  0  0  0  0
  161.7670  210.4100  152.5090 C   0  0  0  0  0  3  0  0  0  0  0  0
  161.4060  210.5700  154.9740 C   0  0  0  0  0  2  0  0  0  0  0  0
  160.5150  211.7180  155.4230 C   0  0  2  0  0  3  0  0  0  0  0  0
  160.8640  212.1590  156.8580 C   0  0  0  0  0  1  0  0  0  0  0  0
  159.0890  211.2000  155.4010 C   0  0  0  0  0  2  0  0  0  0  0  0
  158.2530  212.1780  154.6920 C   0  0  0  0  0  0  0  0  0  0  0  0
  157.0050  211.7340  154.2880 O   0  0  0  0  0  0  0  0  0  0  0  0
  158.6350  213.3710  154.5090 O   0  0  0  0  0  1  0  0  0  0  0  0
  162.4870  205.7400  148.1830 C   0  0  0  0  0  2  0  0  0  0  0  0
  161.4000  204.7750  147.5160 C   0  0  2  0  0  3  0  0  0  0  0  0
  160.4070  200.6840  149.8270 S   0  0  0  0  0  0  0  0  0  0  0  0
  161.3940  200.8160  148.2970 C   0  0  0  0  0  2  0  0  0  0  0  0
  160.3960  203.4150  149.5520 C   0  0  0  0  0  2  0  0  0  0  0  0
  161.0870  203.3920  148.2030 C   0  0  0  0  0  3  0  0  0  0  0  0
  160.9450  202.3220  150.4350 C   0  0  0  0  0  2  0  0  0  0  0  0
  161.0540  202.0700  147.4680 C   0  0  0  0  0  2  0  0  0  0  0  0
  161.7420  204.5780  146.0620 C   0  0  0  0  0  0  0  0  0  0  0  0
  162.8990  204.3160  145.7370 O   0  0  0  0  0  0  0  0  0  0  0  0
  160.7170  204.9160  145.0150 C   0  0  0  0  0  2  0  0  0  0  0  0
  161.3120  205.4120  143.8560 O   0  0  0  0  0  1  0  0  0  0  0  0
  1 35  1  1  0  0  0
  2  6  1  0  0  0  0
  2  5  1  0  0  0  0
  3  5  2  0  0  0  0
  3  7  1  0  0  0  0
  4  9  1  1  0  0  0
  4  1  1  0  0  0  0
  5  8  1  0  0  0  0
  6  4  1  0  0  0  0
  8  1  1  0  0  0  0
  9 10  2  0  0  0  0
 11  9  1  0  0  0  0
 12 11  1  0  0  0  0
 13 12  1  0  0  0  0
 14 13  1  0  0  0  0
 15 14  1  0  0  0  0
 16 15  1  6  0  0  0
 16 17  1  0  0  0  0
 17 30  1  1  0  0  0
 18 20  1  6  0  0  0
 18 16  1  0  0  0  0
 18 17  1  0  0  0  0
 19 20  2  0  0  0  0
 22 21  1  0  0  0  0
 22 19  2  0  0  0  0
 23 22  1  0  0  0  0
 24 25  1  6  0  0  0
 24 23  1  0  0  0  0
 27 28  1  0  0  0  0
 28 26  1  0  0  0  0
 28 24  1  0  0  0  0
 30 29  1  6  0  0  0
 30 31  1  0  0  0  0
 31 33  1  0  0  0  0
 33 32  1  0  0  0  0
 34 36  1  0  0  0  0
 35 34  2  0  0  0  0
 36 37  1  0  0  0  0
 37 38  1  1  0  0  0
 39 37  1  0  0  0  0
 40 39  1  0  0  0  0
 41 40  2  0  0  0  0
 42 40  1  0  0  0  0
 43  3  1  0  0  0  0
 44 43  1  1  0  0  0
 44 48  1  0  0  0  0
 45 49  1  0  0  0  0
 46 45  1  0  0  0  0
 47 49  1  0  0  0  0
 48 47  1  0  0  0  0
 50 48  1  0  0  0  0
 50 46  1  0  0  0  0
 51 44  1  0  0  0  0
 52 51  2  0  0  0  0
 53 51  1  0  0  0  0
 54 53  1  0  0  0  0
M  END
>  <MODEL>
1

>  <REMARK>
 VINA RESULT:      -4.8      0.000      0.000
  Name = 
  24 active torsions:
  status: ('A' for Active; 'I' for Inactive)
    1  A    between atoms: C_4  and  C_11
    2  A    between atoms: C_4  and  C_31
    3  A    between atoms: C_6  and  C_38
    4  A    between atoms: C_6  and  C_46
    5  A    between atoms: C_8  and  C_38
    6  A    between atoms: C_9  and  O_12
    7  A    between atoms: C_9  and  O_29
    8  A    between atoms: O_10  and  C_22
    9  A    between atoms: O_10  and  C_41
   10  A    between atoms: O_12  and  C_42
   11  A    between atoms: C_14  and  P_26
   12  A    between atoms: C_14  and  C_52
   13  A    between atoms: C_17  and  C_31
   14  A    between atoms: O_19  and  C_33
   15  A    between atoms: O_19  and  C_50
   16  A    between atoms: C_20  and  C_45
   17  A    between atoms: C_25  and  C_37
   18  A    between atoms: C_27  and  C_42
   19  A    between atoms: C_28  and  C_46
   20  A    between atoms: O_29  and  C_41
   21  A    between atoms: C_31  and  C_37
   22  A    between atoms: C_36  and  C_50
   23  A    between atoms: C_39  and  C_43
   24  A    between atoms: C_51  and  C_52
                            x       y       z     vdW  Elec       q    Type
                         _______ _______ _______ _____ _____    ______ ____

>  <TORSDO>
F 24

$$$$
=
 OpenBabel11072410003D

 54 56  0  0  1  0  0  0  0  0999 V2000
  161.5270  204.8420  148.5650 C   0  0  2  0  0  3  0  0  0  0  0  0
  161.6710  207.8610  148.4850 C   0  0  0  0  0  2  0  0  0  0  0  0
  161.2360  207.7990  150.9430 C   0  0  0  0  0  0  0  0  0  0  0  0
  162.0390  205.6480  147.3350 C   0  0  2  0  0  3  0  0  0  0  0  0
  161.5010  207.1170  149.7940 C   0  0  0  0  0  0  0  0  0  0  0  0
  161.2450  206.9900  147.3130 C   0  0  0  0  0  2  0  0  0  0  0  0
  161.2750  207.0610  152.1290 O   0  0  0  0  0  1  0  0  0  0  0  0
  161.6570  205.5930  149.9150 C   0  0  0  0  0  2  0  0  0  0  0  0
  162.1260  205.0840  145.8790 C   0  0  0  0  0  0  0  0  0  0  0  0
  162.7570  204.0470  145.6380 O   0  0  0  0  0  0  0  0  0  0  0  0
  161.4220  205.8050  144.8410 O   0  0  0  0  0  0  0  0  0  0  0  0
  162.0870  206.2690  143.6680 C   0  0  0  0  0  2  0  0  0  0  0  0
  161.4420  205.9430  142.4450 O   0  0  0  0  0  0  0  0  0  0  0  0
  162.1100  206.5420  141.3410 C   0  0  0  0  0  2  0  0  0  0  0  0
  161.2600  206.9350  140.2710 O   0  0  0  0  0  0  0  0  0  0  0  0
  162.2260  207.8980  139.8630 C   0  0  2  0  0  3  0  0  0  0  0  0
  161.8060  209.3610  139.9090 C   0  0  2  0  0  3  0  0  0  0  0  0
  162.1760  208.7660  138.5880 C   0  0  2  0  0  3  0  0  0  0  0  0
  159.9830  209.4470  137.5930 C   0  0  0  0  0  0  0  0  0  0  0  0
  161.0650  208.7120  137.6490 C   0  0  0  0  0  3  0  0  0  0  0  0
  158.5500  211.2720  137.0690 O   0  0  0  0  0  1  0  0  0  0  0  0
  158.7840  209.9240  137.3650 C   0  0  0  0  0  0  0  0  0  0  0  0
  157.7050  208.9030  137.0950 C   0  0  0  0  0  2  0  0  0  0  0  0
  156.4830  208.8650  137.9830 C   0  0  1  0  0  3  0  0  0  0  0  0
  156.4990  209.9820  138.8420 O   0  0  0  0  0  1  0  0  0  0  0  0
  154.5520  207.0340  137.0580 O   0  0  0  0  0  1  0  0  0  0  0  0
  153.8730  209.1680  138.3720 O   0  0  0  0  0  1  0  0  0  0  0  0
  154.9040  208.7410  137.0370 P   0  0  0  0  0  0  0  0  0  0  0  0
  162.2570  211.3210  141.0820 O   0  0  0  0  0  1  0  0  0  0  0  0
  162.8340  210.5290  140.1320 C   0  0  2  0  0  3  0  0  0  0  0  0
  163.3460  211.2400  138.9510 O   0  0  0  0  0  0  0  0  0  0  0  0
  162.6850  213.3370  137.9660 O   0  0  0  0  0  1  0  0  0  0  0  0
  163.3750  212.6910  139.0690 C   0  0  0  0  0  2  0  0  0  0  0  0
  160.2850  202.8300  149.6300 C   0  0  0  0  0  3  0  0  0  0  0  0
  161.0460  203.3780  148.6660 C   0  0  0  0  0  3  0  0  0  0  0  0
  159.7090  201.4370  149.4860 C   0  0  0  0  0  2  0  0  0  0  0  0
  160.4350  200.8050  148.3080 C   0  0  2  0  0  3  0  0  0  0  0  0
  161.8710  200.4030  148.6960 C   0  0  0  0  0  1  0  0  0  0  0  0
  160.4970  201.8570  147.2170 C   0  0  0  0  0  2  0  0  0  0  0  0
  160.3280  201.1890  145.9200 C   0  0  0  0  0  0  0  0  0  0  0  0
  159.2280  201.5770  145.1730 O   0  0  0  0  0  0  0  0  0  0  0  0
  161.1690  200.3450  145.4910 O   0  0  0  0  0  1  0  0  0  0  0  0
  160.9130  209.3180  151.0610 C   0  0  0  0  0  2  0  0  0  0  0  0
  160.6600  209.7940  152.5670 C   0  0  2  0  0  3  0  0  0  0  0  0
  157.5600  213.3250  153.5540 S   0  0  0  0  0  0  0  0  0  0  0  0
  158.4170  213.0930  151.9600 C   0  0  0  0  0  2  0  0  0  0  0  0
  158.9020  211.0010  154.1320 C   0  0  0  0  0  2  0  0  0  0  0  0
  159.6790  210.9970  152.8300 C   0  0  0  0  0  3  0  0  0  0  0  0
  157.5080  211.5320  153.9040 C   0  0  0  0  0  2  0  0  0  0  0  0
  159.7430  212.3190  152.0970 C   0  0  0  0  0  2  0  0  0  0  0  0
  161.9880  210.0380  153.2370 C   0  0  0  0  0  0  0  0  0  0  0  0
  162.9940  210.2140  152.5510 O   0  0  0  0  0  0  0  0  0  0  0  0
  162.1050  209.8500  154.7240 C   0  0  0  0  0  2  0  0  0  0  0  0
  161.3540  208.7600  155.1630 O   0  0  0  0  0  1  0  0  0  0  0  0
  1 35  1  1  0  0  0
  1  8  1  0  0  0  0
  2  5  1  0  0  0  0
  3 43  1  0  0  0  0
  3  7  1  0  0  0  0
  4  9  1  6  0  0  0
  4  1  1  0  0  0  0
  5  8  1  0  0  0  0
  5  3  2  0  0  0  0
  6  4  1  0  0  0  0
  6  2  1  0  0  0  0
 10  9  2  0  0  0  0
 11  9  1  0  0  0  0
 12 11  1  0  0  0  0
 13 12  1  0  0  0  0
 14 13  1  0  0  0  0
 15 14  1  0  0  0  0
 16 17  1  0  0  0  0
 16 15  1  6  0  0  0
 17 30  1  1  0  0  0
 18 20  1  6  0  0  0
 18 16  1  0  0  0  0
 18 17  1  0  0  0  0
 19 20  2  0  0  0  0
 21 22  1  0  0  0  0
 22 19  2  0  0  0  0
 23 22  1  0  0  0  0
 23 24  1  0  0  0  0
 24 25  1  6  0  0  0
 28 26  1  0  0  0  0
 28 24  1  0  0  0  0
 28 27  1  0  0  0  0
 30 29  1  1  0  0  0
 31 33  1  0  0  0  0
 31 30  1  0  0  0  0
 32 33  1  0  0  0  0
 35 34  2  0  0  0  0
 36 34  1  0  0  0  0
 37 38  1  1  0  0  0
 37 36  1  0  0  0  0
 39 37  1  0  0  0  0
 40 39  1  0  0  0  0
 41 40  2  0  0  0  0
 42 40  1  0  0  0  0
 44 43  1  6  0  0  0
 44 48  1  0  0  0  0
 44 51  1  0  0  0  0
 45 49  1  0  0  0  0
 46 50  1  0  0  0  0
 46 45  1  0  0  0  0
 48 47  1  0  0  0  0
 49 47  1  0  0  0  0
 50 48  1  0  0  0  0
 51 53  1  0  0  0  0
 52 51  2  0  0  0  0
 53 54  1  0  0  0  0
M  END
>  <MODEL>
2

>  <REMARK>
 VINA RESULT:      -3.7      4.081      8.873
  Name = 
  24 active torsions:
  status: ('A' for Active; 'I' for Inactive)
    1  A    between atoms: C_4  and  C_11
    2  A    between atoms: C_4  and  C_31
    3  A    between atoms: C_6  and  C_38
    4  A    between atoms: C_6  and  C_46
    5  A    between atoms: C_8  and  C_38
    6  A    between atoms: C_9  and  O_12
    7  A    between atoms: C_9  and  O_29
    8  A    between atoms: O_10  and  C_22
    9  A    between atoms: O_10  and  C_41
   10  A    between atoms: O_12  and  C_42
   11  A    between atoms: C_14  and  P_26
   12  A    between atoms: C_14  and  C_52
   13  A    between atoms: C_17  and  C_31
   14  A    between atoms: O_19  and  C_33
   15  A    between atoms: O_19  and  C_50
   16  A    between atoms: C_20  and  C_45
   17  A    between atoms: C_25  and  C_37
   18  A    between atoms: C_27  and  C_42
   19  A    between atoms: C_28  and  C_46
   20  A    between atoms: O_29  and  C_41
   21  A    between atoms: C_31  and  C_37
   22  A    between atoms: C_36  and  C_50
   23  A    between atoms: C_39  and  C_43
   24  A    between atoms: C_51  and  C_52
                            x       y       z     vdW  Elec       q    Type
                         _______ _______ _______ _____ _____    ______ ____

>  <TORSDO>
F 24

$$$$
=
 OpenBabel11072410003D

 54 56  0  0  1  0  0  0  0  0999 V2000
  161.6140  209.6640  150.7450 C   0  0  2  0  0  3  0  0  0  0  0  0
  161.9120  208.4210  148.0040 C   0  0  0  0  0  2  0  0  0  0  0  0
  161.6350  206.2140  149.1380 C   0  0  0  0  0  0  0  0  0  0  0  0
  161.5790  210.4810  149.4190 C   0  0  2  0  0  3  0  0  0  0  0  0
  161.6090  207.5730  149.2230 C   0  0  0  0  0  0  0  0  0  0  0  0
  162.5240  209.7520  148.4140 C   0  0  0  0  0  2  0  0  0  0  0  0
  161.1690  205.5110  150.2520 O   0  0  0  0  0  1  0  0  0  0  0  0
  161.2190  208.1740  150.5820 C   0  0  0  0  0  2  0  0  0  0  0  0
  161.8230  212.0230  149.3210 C   0  0  0  0  0  0  0  0  0  0  0  0
  161.2620  212.8040  150.0990 O   0  0  0  0  0  0  0  0  0  0  0  0
  162.7450  212.4890  148.3070 O   0  0  0  0  0  0  0  0  0  0  0  0
  162.2990  213.2330  147.1750 C   0  0  0  0  0  2  0  0  0  0  0  0
  161.1580  212.6990  146.5190 O   0  0  0  0  0  0  0  0  0  0  0  0
  161.1510  213.0530  145.1410 C   0  0  0  0  0  2  0  0  0  0  0  0
  161.1350  214.4510  144.8840 O   0  0  0  0  0  0  0  0  0  0  0  0
  159.7140  214.4460  144.9690 C   0  0  2  0  0  3  0  0  0  0  0  0
  159.0230  213.0900  144.9230 C   0  0  2  0  0  3  0  0  0  0  0  0
  158.7270  214.0780  143.8410 C   0  0  2  0  0  3  0  0  0  0  0  0
  158.4770  213.1570  141.5280 C   0  0  0  0  0  0  0  0  0  0  0  0
  159.1720  213.6420  142.5260 C   0  0  0  0  0  3  0  0  0  0  0  0
  157.1150  213.0970  139.5790 O   0  0  0  0  0  1  0  0  0  0  0  0
  158.0760  212.5500  140.4370 C   0  0  0  0  0  0  0  0  0  0  0  0
  158.9350  211.4030  139.9620 C   0  0  0  0  0  2  0  0  0  0  0  0
  160.2030  211.6960  139.1950 C   0  0  1  0  0  3  0  0  0  0  0  0
  160.4320  213.0870  139.1910 O   0  0  0  0  0  1  0  0  0  0  0  0
  163.0170  211.7180  139.3020 O   0  0  0  0  0  1  0  0  0  0  0  0
  161.5850  211.3860  141.4420 O   0  0  0  0  0  1  0  0  0  0  0  0
  161.6610  210.7560  139.8210 P   0  0  0  0  0  0  0  0  0  0  0  0
  156.9780  214.0150  145.5430 O   0  0  0  0  0  1  0  0  0  0  0  0
  157.6380  212.8230  145.6190 C   0  0  2  0  0  3  0  0  0  0  0  0
  157.6370  212.1900  146.9470 O   0  0  0  0  0  0  0  0  0  0  0  0
  156.7780  213.8320  148.4850 O   0  0  0  0  0  1  0  0  0  0  0  0
  157.9450  213.0810  148.0560 C   0  0  0  0  0  2  0  0  0  0  0  0
  160.9260  210.5920  153.0660 C   0  0  0  0  0  3  0  0  0  0  0  0
  161.8450  210.1330  152.1980 C   0  0  0  0  0  3  0  0  0  0  0  0
  161.2590  210.8100  154.5280 C   0  0  0  0  0  2  0  0  0  0  0  0
  160.1890  211.7500  155.0630 C   0  0  2  0  0  3  0  0  0  0  0  0
  159.4600  211.1270  156.2690 C   0  0  0  0  0  1  0  0  0  0  0  0
  159.1920  211.9630  153.9400 C   0  0  0  0  0  2  0  0  0  0  0  0
  158.2260  212.9840  154.3670 C   0  0  0  0  0  0  0  0  0  0  0  0
  156.9100  212.5690  154.4820 O   0  0  0  0  0  0  0  0  0  0  0  0
  158.5890  214.1620  154.6610 O   0  0  0  0  0  1  0  0  0  0  0  0
  162.1170  205.3740  147.9180 C   0  0  0  0  0  2  0  0  0  0  0  0
  160.9330  204.5780  147.1940 C   0  0  2  0  0  3  0  0  0  0  0  0
  161.1540  199.8070  146.7090 S   0  0  0  0  0  0  0  0  0  0  0  0
  160.5470  200.6870  148.1880 C   0  0  0  0  0  2  0  0  0  0  0  0
  161.3760  202.3820  145.7870 C   0  0  0  0  0  2  0  0  0  0  0  0
  161.0080  203.0070  147.1180 C   0  0  0  0  0  3  0  0  0  0  0  0
  160.5830  201.1160  145.5700 C   0  0  0  0  0  2  0  0  0  0  0  0
  161.1340  202.1050  148.3270 C   0  0  0  0  0  2  0  0  0  0  0  0
  160.7130  205.1650  145.8230 C   0  0  0  0  0  0  0  0  0  0  0  0
  159.6770  205.7830  145.5830 O   0  0  0  0  0  0  0  0  0  0  0  0
  161.6590  204.8050  144.7100 C   0  0  0  0  0  2  0  0  0  0  0  0
  162.9760  205.1260  145.0340 O   0  0  0  0  0  1  0  0  0  0  0  0
  1 35  1  1  0  0  0
  2  6  1  0  0  0  0
  2  5  1  0  0  0  0
  3  5  2  0  0  0  0
  3  7  1  0  0  0  0
  4  9  1  1  0  0  0
  4  1  1  0  0  0  0
  5  8  1  0  0  0  0
  6  4  1  0  0  0  0
  8  1  1  0  0  0  0
  9 10  2  0  0  0  0
 11  9  1  0  0  0  0
 12 11  1  0  0  0  0
 13 12  1  0  0  0  0
 14 13  1  0  0  0  0
 15 14  1  0  0  0  0
 16 15  1  6  0  0  0
 17 16  1  0  0  0  0
 17 30  1  1  0  0  0
 18 20  1  6  0  0  0
 18 17  1  0  0  0  0
 18 16  1  0  0  0  0
 19 20  2  0  0  0  0
 21 22  1  0  0  0  0
 22 19  2  0  0  0  0
 23 22  1  0  0  0  0
 24 25  1  1  0  0  0
 24 28  1  0  0  0  0
 24 23  1  0  0  0  0
 26 28  1  0  0  0  0
 28 27  1  0  0  0  0
 30 29  1  1  0  0  0
 30 31  1  0  0  0  0
 31 33  1  0  0  0  0
 33 32  1  0  0  0  0
 34 36  1  0  0  0  0
 35 34  2  0  0  0  0
 36 37  1  0  0  0  0
 37 38  1  1  0  0  0
 39 40  1  0  0  0  0
 39 37  1  0  0  0  0
 40 41  2  0  0  0  0
 40 42  1  0  0  0  0
 43  3  1  0  0  0  0
 44 43  1  6  0  0  0
 45 46  1  0  0  0  0
 46 50  1  0  0  0  0
 47 48  1  0  0  0  0
 48 44  1  0  0  0  0
 48 50  1  0  0  0  0
 49 47  1  0  0  0  0
 49 45  1  0  0  0  0
 51 44  1  0  0  0  0
 52 51  2  0  0  0  0
 53 54  1  0  0  0  0
 53 51  1  0  0  0  0
M  END
>  <MODEL>
3

>  <REMARK>
 VINA RESULT:      -3.5      1.363      2.102
  Name = 
  24 active torsions:
  status: ('A' for Active; 'I' for Inactive)
    1  A    between atoms: C_4  and  C_11
    2  A    between atoms: C_4  and  C_31
    3  A    between atoms: C_6  and  C_38
    4  A    between atoms: C_6  and  C_46
    5  A    between atoms: C_8  and  C_38
    6  A    between atoms: C_9  and  O_12
    7  A    between atoms: C_9  and  O_29
    8  A    between atoms: O_10  and  C_22
    9  A    between atoms: O_10  and  C_41
   10  A    between atoms: O_12  and  C_42
   11  A    between atoms: C_14  and  P_26
   12  A    between atoms: C_14  and  C_52
   13  A    between atoms: C_17  and  C_31
   14  A    between atoms: O_19  and  C_33
   15  A    between atoms: O_19  and  C_50
   16  A    between atoms: C_20  and  C_45
   17  A    between atoms: C_25  and  C_37
   18  A    between atoms: C_27  and  C_42
   19  A    between atoms: C_28  and  C_46
   20  A    between atoms: O_29  and  C_41
   21  A    between atoms: C_31  and  C_37
   22  A    between atoms: C_36  and  C_50
   23  A    between atoms: C_39  and  C_43
   24  A    between atoms: C_51  and  C_52
                            x       y       z     vdW  Elec       q    Type
                         _______ _______ _______ _____ _____    ______ ____

>  <TORSDO>
F 24

$$$$
=
 OpenBabel11072410003D

 54 56  0  0  1  0  0  0  0  0999 V2000
  161.7570  205.2020  148.5120 C   0  0  2  0  0  3  0  0  0  0  0  0
  161.8040  208.2110  148.2200 C   0  0  0  0  0  2  0  0  0  0  0  0
  161.6700  208.3070  150.7120 C   0  0  0  0  0  0  0  0  0  0  0  0
  162.0940  205.9340  147.1790 C   0  0  2  0  0  3  0  0  0  0  0  0
  161.8140  207.5540  149.5860 C   0  0  0  0  0  0  0  0  0  0  0  0
  161.2650  207.2550  147.1680 C   0  0  0  0  0  2  0  0  0  0  0  0
  161.8720  207.6520  151.9290 O   0  0  0  0  0  1  0  0  0  0  0  0
  162.0270  206.0460  149.7840 C   0  0  0  0  0  2  0  0  0  0  0  0
  162.0210  205.2740  145.7630 C   0  0  0  0  0  0  0  0  0  0  0  0
  162.4970  204.1500  145.5620 O   0  0  0  0  0  0  0  0  0  0  0  0
  161.3580  206.0190  144.7140 O   0  0  0  0  0  0  0  0  0  0  0  0
  162.0600  206.4700  143.5570 C   0  0  0  0  0  2  0  0  0  0  0  0
  161.5270  206.0190  142.3200 O   0  0  0  0  0  0  0  0  0  0  0  0
  162.1380  206.6930  141.2260 C   0  0  0  0  0  2  0  0  0  0  0  0
  161.2910  206.8990  140.1030 O   0  0  0  0  0  0  0  0  0  0  0  0
  161.9750  208.1130  139.8140 C   0  0  2  0  0  3  0  0  0  0  0  0
  161.2190  209.4110  140.0670 C   0  0  2  0  0  3  0  0  0  0  0  0
  161.6550  209.0990  138.6710 C   0  0  2  0  0  3  0  0  0  0  0  0
  159.4130  209.5470  137.6540 C   0  0  0  0  0  0  0  0  0  0  0  0
  160.5450  208.8960  137.7530 C   0  0  0  0  0  3  0  0  0  0  0  0
  157.8520  211.2220  137.0110 O   0  0  0  0  0  1  0  0  0  0  0  0
  158.1810  209.9200  137.4050 C   0  0  0  0  0  0  0  0  0  0  0  0
  157.1750  208.8090  137.2270 C   0  0  0  0  0  2  0  0  0  0  0  0
  155.7410  209.0360  137.6440 C   0  0  1  0  0  3  0  0  0  0  0  0
  155.0760  207.7950  137.7110 O   0  0  0  0  0  1  0  0  0  0  0  0
  154.7340  211.4320  138.7290 O   0  0  0  0  0  1  0  0  0  0  0  0
  154.1910  209.1300  139.7990 O   0  0  0  0  0  1  0  0  0  0  0  0
  155.5850  209.9920  139.2140 P   0  0  0  0  0  0  0  0  0  0  0  0
  163.2580  210.5320  140.1230 O   0  0  0  0  0  1  0  0  0  0  0  0
  161.9470  210.7560  140.4300 C   0  0  2  0  0  3  0  0  0  0  0  0
  161.7050  211.3430  141.7570 O   0  0  0  0  0  0  0  0  0  0  0  0
  160.1070  211.8940  143.4730 O   0  0  0  0  0  1  0  0  0  0  0  0
  160.3110  211.6330  142.0580 C   0  0  0  0  0  2  0  0  0  0  0  0
  160.9070  202.8410  147.8600 C   0  0  0  0  0  3  0  0  0  0  0  0
  161.3340  203.7390  148.7650 C   0  0  0  0  0  3  0  0  0  0  0  0
  160.7340  201.3790  148.2180 C   0  0  0  0  0  2  0  0  0  0  0  0
  161.0050  201.2810  149.7120 C   0  0  2  0  0  3  0  0  0  0  0  0
  160.2890  200.0610  150.3230 C   0  0  0  0  0  1  0  0  0  0  0  0
  160.4490  202.5440  150.3410 C   0  0  0  0  0  2  0  0  0  0  0  0
  161.1620  202.7840  151.6030 C   0  0  0  0  0  0  0  0  0  0  0  0
  160.6120  203.7380  152.4420 O   0  0  0  0  0  1  0  0  0  0  0  0
  162.1910  202.1180  151.9230 O   0  0  0  0  0  0  0  0  0  0  0  0
  161.3200  209.8230  150.7700 C   0  0  0  0  0  2  0  0  0  0  0  0
  160.7420  210.2830  152.1890 C   0  0  2  0  0  3  0  0  0  0  0  0
  158.0540  214.2340  152.6520 S   0  0  0  0  0  0  0  0  0  0  0  0
  158.8340  213.6680  151.1020 C   0  0  0  0  0  2  0  0  0  0  0  0
  159.1660  211.8990  153.5690 C   0  0  0  0  0  2  0  0  0  0  0  0
  159.8980  211.6100  152.2730 C   0  0  0  0  0  3  0  0  0  0  0  0
  157.8280  212.5330  153.2790 C   0  0  0  0  0  2  0  0  0  0  0  0
  160.0760  212.7880  151.3400 C   0  0  0  0  0  2  0  0  0  0  0  0
  161.8640  210.3040  153.1940 C   0  0  0  0  0  0  0  0  0  0  0  0
  163.0270  210.4130  152.8090 O   0  0  0  0  0  0  0  0  0  0  0  0
  161.5670  209.9790  154.6320 C   0  0  0  0  0  2  0  0  0  0  0  0
  162.3510  210.7370  155.5010 O   0  0  0  0  0  1  0  0  0  0  0  0
  1 35  1  1  0  0  0
  1  8  1  0  0  0  0
  2  5  1  0  0  0  0
  3 43  1  0  0  0  0
  3  7  1  0  0  0  0
  4  9  1  6  0  0  0
  4  1  1  0  0  0  0
  5  8  1  0  0  0  0
  5  3  2  0  0  0  0
  6  4  1  0  0  0  0
  6  2  1  0  0  0  0
 10  9  2  0  0  0  0
 11  9  1  0  0  0  0
 12 11  1  0  0  0  0
 13 12  1  0  0  0  0
 14 13  1  0  0  0  0
 15 14  1  0  0  0  0
 16 17  1  0  0  0  0
 16 15  1  6  0  0  0
 17 30  1  1  0  0  0
 18 20  1  6  0  0  0
 18 16  1  0  0  0  0
 18 17  1  0  0  0  0
 19 20  2  0  0  0  0
 21 22  1  0  0  0  0
 22 19  2  0  0  0  0
 23 22  1  0  0  0  0
 23 24  1  0  0  0  0
 24 25  1  1  0  0  0
 24 28  1  0  0  0  0
 26 28  1  0  0  0  0
 28 27  1  0  0  0  0
 30 29  1  1  0  0  0
 30 31  1  0  0  0  0
 31 33  1  0  0  0  0
 33 32  1  0  0  0  0
 34 36  1  0  0  0  0
 34 35  2  0  0  0  0
 36 37  1  0  0  0  0
 37 38  1  1  0  0  0
 37 39  1  0  0  0  0
 39 40  1  0  0  0  0
 40 42  2  0  0  0  0
 40 41  1  0  0  0  0
 44 43  1  6  0  0  0
 44 48  1  0  0  0  0
 44 51  1  0  0  0  0
 45 49  1  0  0  0  0
 46 50  1  0  0  0  0
 46 45  1  0  0  0  0
 48 47  1  0  0  0  0
 49 47  1  0  0  0  0
 50 48  1  0  0  0  0
 51 53  1  0  0  0  0
 52 51  2  0  0  0  0
 53 54  1  0  0  0  0
M  END
>  <MODEL>
4

>  <REMARK>
 VINA RESULT:      -3.1      3.344      8.304
  Name = 
  24 active torsions:
  status: ('A' for Active; 'I' for Inactive)
    1  A    between atoms: C_4  and  C_11
    2  A    between atoms: C_4  and  C_31
    3  A    between atoms: C_6  and  C_38
    4  A    between atoms: C_6  and  C_46
    5  A    between atoms: C_8  and  C_38
    6  A    between atoms: C_9  and  O_12
    7  A    between atoms: C_9  and  O_29
    8  A    between atoms: O_10  and  C_22
    9  A    between atoms: O_10  and  C_41
   10  A    between atoms: O_12  and  C_42
   11  A    between atoms: C_14  and  P_26
   12  A    between atoms: C_14  and  C_52
   13  A    between atoms: C_17  and  C_31
   14  A    between atoms: O_19  and  C_33
   15  A    between atoms: O_19  and  C_50
   16  A    between atoms: C_20  and  C_45
   17  A    between atoms: C_25  and  C_37
   18  A    between atoms: C_27  and  C_42
   19  A    between atoms: C_28  and  C_46
   20  A    between atoms: O_29  and  C_41
   21  A    between atoms: C_31  and  C_37
   22  A    between atoms: C_36  and  C_50
   23  A    between atoms: C_39  and  C_43
   24  A    between atoms: C_51  and  C_52
                            x       y       z     vdW  Elec       q    Type
                         _______ _______ _______ _____ _____    ______ ____

>  <TORSDO>
F 24

$$$$
=
 OpenBabel11072410003D

 54 56  0  0  1  0  0  0  0  0999 V2000
  160.9670  209.0220  152.5780 C   0  0  2  0  0  3  0  0  0  0  0  0
  160.8200  212.0380  152.4280 C   0  0  0  0  0  2  0  0  0  0  0  0
  160.0930  211.9740  154.8160 C   0  0  0  0  0  0  0  0  0  0  0  0
  161.5450  209.8560  151.3950 C   0  0  2  0  0  3  0  0  0  0  0  0
  160.5640  211.3030  153.7280 C   0  0  0  0  0  0  0  0  0  0  0  0
  160.6300  211.1090  151.2390 C   0  0  0  0  0  2  0  0  0  0  0  0
  160.0580  211.2640  156.0190 O   0  0  0  0  0  1  0  0  0  0  0  0
  160.8540  209.8060  153.9110 C   0  0  0  0  0  2  0  0  0  0  0  0
  161.8660  209.2790  149.9780 C   0  0  0  0  0  0  0  0  0  0  0  0
  161.6880  209.9600  148.9610 O   0  0  0  0  0  0  0  0  0  0  0  0
  162.4000  207.9350  149.9110 O   0  0  0  0  0  0  0  0  0  0  0  0
  162.8500  207.3690  148.6810 C   0  0  0  0  0  2  0  0  0  0  0  0
  161.8180  206.8970  147.8260 O   0  0  0  0  0  0  0  0  0  0  0  0
  162.3080  205.8970  146.9410 C   0  0  0  0  0  2  0  0  0  0  0  0
  162.5720  206.3480  145.6190 O   0  0  0  0  0  0  0  0  0  0  0  0
  161.3880  205.7000  145.1660 C   0  0  2  0  0  3  0  0  0  0  0  0
  161.5470  204.3150  144.5540 C   0  0  2  0  0  3  0  0  0  0  0  0
  161.0010  205.4140  143.7000 C   0  0  2  0  0  3  0  0  0  0  0  0
  161.8130  206.7870  141.7720 C   0  0  0  0  0  0  0  0  0  0  0  0
  161.8660  205.7590  142.5820 C   0  0  0  0  0  3  0  0  0  0  0  0
  162.1480  208.9890  140.9370 O   0  0  0  0  0  1  0  0  0  0  0  0
  161.9360  207.6160  140.7640 C   0  0  0  0  0  0  0  0  0  0  0  0
  162.1850  206.9870  139.4150 C   0  0  0  0  0  2  0  0  0  0  0  0
  161.9540  207.8020  138.1640 C   0  0  1  0  0  3  0  0  0  0  0  0
  161.3620  206.9840  137.1800 O   0  0  0  0  0  1  0  0  0  0  0  0
  161.2060  210.2620  137.0120 O   0  0  0  0  0  1  0  0  0  0  0  0
  159.4400  208.6490  138.0220 O   0  0  0  0  0  1  0  0  0  0  0  0
  160.9760  209.3360  138.4700 P   0  0  0  0  0  0  0  0  0  0  0  0
  159.2980  203.9190  145.0050 O   0  0  0  0  0  1  0  0  0  0  0  0
  160.4080  203.2330  144.6030 C   0  0  2  0  0  3  0  0  0  0  0  0
  160.6670  201.9810  145.3280 O   0  0  0  0  0  0  0  0  0  0  0  0
  161.1960  200.8690  147.3990 O   0  0  0  0  0  1  0  0  0  0  0  0
  161.0810  202.1450  146.7150 C   0  0  0  0  0  2  0  0  0  0  0  0
  161.4760  206.4790  152.6030 C   0  0  0  0  0  3  0  0  0  0  0  0
  160.6250  207.5190  152.6630 C   0  0  0  0  0  3  0  0  0  0  0  0
  161.0240  205.0680  152.9190 C   0  0  0  0  0  2  0  0  0  0  0  0
  161.4000  204.2290  151.7070 C   0  0  2  0  0  3  0  0  0  0  0  0
  160.9930  204.9350  150.3990 C   0  0  0  0  0  1  0  0  0  0  0  0
  160.6340  202.9260  151.8220 C   0  0  0  0  0  2  0  0  0  0  0  0
  161.4570  201.8530  151.2490 C   0  0  0  0  0  0  0  0  0  0  0  0
  160.8000  200.9520  150.4270 O   0  0  0  0  0  0  0  0  0  0  0  0
  162.7050  201.7890  151.4550 O   0  0  0  0  0  1  0  0  0  0  0  0
  159.6090  213.4540  154.8490 C   0  0  0  0  0  2  0  0  0  0  0  0
  158.0240  213.6030  154.6950 C   0  0  2  0  0  3  0  0  0  0  0  0
  155.1750  210.1290  156.3900 S   0  0  0  0  0  0  0  0  0  0  0  0
  155.3370  211.8000  157.1060 C   0  0  0  0  0  2  0  0  0  0  0  0
  156.9130  211.2060  154.5590 C   0  0  0  0  0  2  0  0  0  0  0  0
  157.0920  212.5010  155.3260 C   0  0  0  0  0  3  0  0  0  0  0  0
  155.4910  210.7170  154.6890 C   0  0  0  0  0  2  0  0  0  0  0  0
  156.6900  212.4640  156.7840 C   0  0  0  0  0  2  0  0  0  0  0  0
  157.6880  213.8120  153.2410 C   0  0  0  0  0  0  0  0  0  0  0  0
  158.5700  213.7030  152.3890 O   0  0  0  0  0  0  0  0  0  0  0  0
  156.3370  214.3570  152.8710 C   0  0  0  0  0  2  0  0  0  0  0  0
  155.4650  214.3450  153.9590 O   0  0  0  0  0  1  0  0  0  0  0  0
  1 35  1  1  0  0  0
  1  8  1  0  0  0  0
  2  5  1  0  0  0  0
  3 43  1  0  0  0  0
  3  7  1  0  0  0  0
  4  9  1  6  0  0  0
  4  1  1  0  0  0  0
  5  8  1  0  0  0  0
  5  3  2  0  0  0  0
  6  4  1  0  0  0  0
  6  2  1  0  0  0  0
 10  9  2  0  0  0  0
 11  9  1  0  0  0  0
 12 11  1  0  0  0  0
 13 12  1  0  0  0  0
 14 13  1  0  0  0  0
 15 14  1  0  0  0  0
 16 15  1  6  0  0  0
 17 30  1  1  0  0  0
 17 16  1  0  0  0  0
 18 20  1  6  0  0  0
 18 17  1  0  0  0  0
 18 16  1  0  0  0  0
 19 20  2  0  0  0  0
 22 21  1  0  0  0  0
 22 19  2  0  0  0  0
 23 22  1  0  0  0  0
 24 25  1  6  0  0  0
 24 28  1  0  0  0  0
 24 23  1  0  0  0  0
 26 28  1  0  0  0  0
 27 28  1  0  0  0  0
 30 29  1  1  0  0  0
 30 31  1  0  0  0  0
 31 33  1  0  0  0  0
 33 32  1  0  0  0  0
 34 35  2  0  0  0  0
 34 36  1  0  0  0  0
 37 38  1  6  0  0  0
 37 39  1  0  0  0  0
 37 36  1  0  0  0  0
 40 42  1  0  0  0  0
 40 39  1  0  0  0  0
 41 40  2  0  0  0  0
 44 43  1  6  0  0  0
 44 48  1  0  0  0  0
 45 46  1  0  0  0  0
 47 49  1  0  0  0  0
 47 48  1  0  0  0  0
 48 50  1  0  0  0  0
 49 45  1  0  0  0  0
 50 46  1  0  0  0  0
 51 44  1  0  0  0  0
 52 51  2  0  0  0  0
 53 51  1  0  0  0  0
 53 54  1  0  0  0  0
M  END
>  <MODEL>
5

>  <REMARK>
 VINA RESULT:      -2.5      3.952      8.925
  Name = 
  24 active torsions:
  status: ('A' for Active; 'I' for Inactive)
    1  A    between atoms: C_4  and  C_11
    2  A    between atoms: C_4  and  C_31
    3  A    between atoms: C_6  and  C_38
    4  A    between atoms: C_6  and  C_46
    5  A    between atoms: C_8  and  C_38
    6  A    between atoms: C_9  and  O_12
    7  A    between atoms: C_9  and  O_29
    8  A    between atoms: O_10  and  C_22
    9  A    between atoms: O_10  and  C_41
   10  A    between atoms: O_12  and  C_42
   11  A    between atoms: C_14  and  P_26
   12  A    between atoms: C_14  and  C_52
   13  A    between atoms: C_17  and  C_31
   14  A    between atoms: O_19  and  C_33
   15  A    between atoms: O_19  and  C_50
   16  A    between atoms: C_20  and  C_45
   17  A    between atoms: C_25  and  C_37
   18  A    between atoms: C_27  and  C_42
   19  A    between atoms: C_28  and  C_46
   20  A    between atoms: O_29  and  C_41
   21  A    between atoms: C_31  and  C_37
   22  A    between atoms: C_36  and  C_50
   23  A    between atoms: C_39  and  C_43
   24  A    between atoms: C_51  and  C_52
                            x       y       z     vdW  Elec       q    Type
                         _______ _______ _______ _____ _____    ______ ____

>  <TORSDO>
F 24

$$$$
=
 OpenBabel11072410003D

 54 56  0  0  1  0  0  0  0  0999 V2000
  161.1620  206.9280  147.8400 C   0  0  2  0  0  3  0  0  0  0  0  0
  161.7500  208.9240  150.0330 C   0  0  0  0  0  2  0  0  0  0  0  0
  161.5360  210.6890  148.2800 C   0  0  0  0  0  0  0  0  0  0  0  0
  161.1730  206.5650  149.3550 C   0  0  2  0  0  3  0  0  0  0  0  0
  161.4130  209.3780  148.6270 C   0  0  0  0  0  0  0  0  0  0  0  0
  162.2390  207.4840  150.0300 C   0  0  0  0  0  2  0  0  0  0  0  0
  161.0340  211.0520  147.0270 O   0  0  0  0  0  1  0  0  0  0  0  0
  160.8810  208.4230  147.5470 C   0  0  0  0  0  2  0  0  0  0  0  0
  161.3200  205.1140  149.9190 C   0  0  0  0  0  0  0  0  0  0  0  0
  161.2140  204.1320  149.1750 O   0  0  0  0  0  0  0  0  0  0  0  0
  161.6080  204.9730  151.3310 O   0  0  0  0  0  0  0  0  0  0  0  0
  161.0770  205.8780  152.2970 C   0  0  0  0  0  2  0  0  0  0  0  0
  161.9830  206.2560  153.3240 O   0  0  0  0  0  0  0  0  0  0  0  0
  161.4460  207.3100  154.1140 C   0  0  0  0  0  2  0  0  0  0  0  0
  160.5830  208.1990  153.4160 O   0  0  0  0  0  0  0  0  0  0  0  0
  161.2090  209.3040  154.0580 C   0  0  2  0  0  3  0  0  0  0  0  0
  160.6190  209.7580  155.3860 C   0  0  2  0  0  3  0  0  0  0  0  0
  160.6160  210.7180  154.2390 C   0  0  2  0  0  3  0  0  0  0  0  0
  158.6640  212.2240  153.8140 C   0  0  0  0  0  0  0  0  0  0  0  0
  159.2790  211.0680  153.7850 C   0  0  0  0  0  3  0  0  0  0  0  0
  157.9770  214.4020  153.1520 O   0  0  0  0  0  1  0  0  0  0  0  0
  157.7780  213.1900  153.8210 C   0  0  0  0  0  0  0  0  0  0  0  0
  156.3930  212.8150  154.2920 C   0  0  0  0  0  2  0  0  0  0  0  0
  155.9500  213.2130  155.6800 C   0  0  1  0  0  3  0  0  0  0  0  0
  154.7910  214.0100  155.5870 O   0  0  0  0  0  1  0  0  0  0  0  0
  155.2190  210.4920  155.7240 O   0  0  0  0  0  1  0  0  0  0  0  0
  157.3910  211.3280  156.8760 O   0  0  0  0  0  1  0  0  0  0  0  0
  155.7090  211.7690  156.8030 P   0  0  0  0  0  0  0  0  0  0  0  0
  161.4220  211.7880  156.1970 O   0  0  0  0  0  1  0  0  0  0  0  0
  161.4820  210.4580  156.4990 C   0  0  2  0  0  3  0  0  0  0  0  0
  162.8320  209.9360  156.7640 O   0  0  0  0  0  0  0  0  0  0  0  0
  164.5210  211.6430  156.5760 O   0  0  0  0  0  1  0  0  0  0  0  0
  163.8860  210.5040  155.9360 C   0  0  0  0  0  2  0  0  0  0  0  0
  161.9880  204.9010  146.4490 C   0  0  0  0  0  3  0  0  0  0  0  0
  161.2490  206.0140  146.5980 C   0  0  0  0  0  3  0  0  0  0  0  0
  161.8070  203.9860  145.2550 C   0  0  0  0  0  2  0  0  0  0  0  0
  161.1710  202.7150  145.7980 C   0  0  2  0  0  3  0  0  0  0  0  0
  159.6680  202.6630  145.4630 C   0  0  0  0  0  1  0  0  0  0  0  0
  161.3380  202.7510  147.3050 C   0  0  0  0  0  2  0  0  0  0  0  0
  160.8390  201.4840  147.8560 C   0  0  0  0  0  0  0  0  0  0  0  0
  161.4170  200.3300  147.3530 O   0  0  0  0  0  0  0  0  0  0  0  0
  159.9680  201.4550  148.7740 O   0  0  0  0  0  1  0  0  0  0  0  0
  162.1650  211.8190  149.1490 C   0  0  0  0  0  2  0  0  0  0  0  0
  161.5710  213.2680  148.8240 C   0  0  2  0  0  3  0  0  0  0  0  0
  156.8800  213.7180  147.9050 S   0  0  0  0  0  0  0  0  0  0  0  0
  158.0630  212.7660  146.8930 C   0  0  0  0  0  2  0  0  0  0  0  0
  159.1280  214.0790  149.4370 C   0  0  0  0  0  2  0  0  0  0  0  0
  160.0480  213.3990  148.4420 C   0  0  0  0  0  3  0  0  0  0  0  0
  157.7850  213.3900  149.4570 C   0  0  0  0  0  2  0  0  0  0  0  0
  159.5140  213.2670  147.0330 C   0  0  0  0  0  2  0  0  0  0  0  0
  162.4360  213.9330  147.7840 C   0  0  0  0  0  0  0  0  0  0  0  0
  161.9450  214.2750  146.7100 O   0  0  0  0  0  0  0  0  0  0  0  0
  163.9250  213.9760  147.9880 C   0  0  0  0  0  2  0  0  0  0  0  0
  164.4300  212.7250  148.3390 O   0  0  0  0  0  1  0  0  0  0  0  0
  1 35  1  6  0  0  0
  1  4  1  0  0  0  0
  3  5  2  0  0  0  0
  3 43  1  0  0  0  0
  4  9  1  6  0  0  0
  4  6  1  0  0  0  0
  5  2  1  0  0  0  0
  6  2  1  0  0  0  0
  7  3  1  0  0  0  0
  8  1  1  0  0  0  0
  8  5  1  0  0  0  0
  9 11  1  0  0  0  0
 10  9  2  0  0  0  0
 11 12  1  0  0  0  0
 12 13  1  0  0  0  0
 13 14  1  0  0  0  0
 15 14  1  0  0  0  0
 16 15  1  6  0  0  0
 16 18  1  0  0  0  0
 16 17  1  0  0  0  0
 17 30  1  1  0  0  0
 18 20  1  6  0  0  0
 18 17  1  0  0  0  0
 19 22  2  0  0  0  0
 20 19  2  0  0  0  0
 21 22  1  0  0  0  0
 22 23  1  0  0  0  0
 23 24  1  0  0  0  0
 24 25  1  6  0  0  0
 24 28  1  0  0  0  0
 26 28  1  0  0  0  0
 28 27  1  0  0  0  0
 30 29  1  6  0  0  0
 30 31  1  0  0  0  0
 33 32  1  0  0  0  0
 33 31  1  0  0  0  0
 34 35  2  0  0  0  0
 36 37  1  0  0  0  0
 36 34  1  0  0  0  0
 37 38  1  1  0  0  0
 37 39  1  0  0  0  0
 39 40  1  0  0  0  0
 40 42  1  0  0  0  0
 41 40  2  0  0  0  0
 44 43  1  6  0  0  0
 45 49  1  0  0  0  0
 46 50  1  0  0  0  0
 46 45  1  0  0  0  0
 47 49  1  0  0  0  0
 48 44  1  0  0  0  0
 48 47  1  0  0  0  0
 50 48  1  0  0  0  0
 51 53  1  0  0  0  0
 51 44  1  0  0  0  0
 52 51  2  0  0  0  0
 53 54  1  0  0  0  0
M  END
>  <MODEL>
6

>  <REMARK>
 VINA RESULT:      -1.9      4.844     11.262
  Name = 
  24 active torsions:
  status: ('A' for Active; 'I' for Inactive)
    1  A    between atoms: C_4  and  C_11
    2  A    between atoms: C_4  and  C_31
    3  A    between atoms: C_6  and  C_38
    4  A    between atoms: C_6  and  C_46
    5  A    between atoms: C_8  and  C_38
    6  A    between atoms: C_9  and  O_12
    7  A    between atoms: C_9  and  O_29
    8  A    between atoms: O_10  and  C_22
    9  A    between atoms: O_10  and  C_41
   10  A    between atoms: O_12  and  C_42
   11  A    between atoms: C_14  and  P_26
   12  A    between atoms: C_14  and  C_52
   13  A    between atoms: C_17  and  C_31
   14  A    between atoms: O_19  and  C_33
   15  A    between atoms: O_19  and  C_50
   16  A    between atoms: C_20  and  C_45
   17  A    between atoms: C_25  and  C_37
   18  A    between atoms: C_27  and  C_42
   19  A    between atoms: C_28  and  C_46
   20  A    between atoms: O_29  and  C_41
   21  A    between atoms: C_31  and  C_37
   22  A    between atoms: C_36  and  C_50
   23  A    between atoms: C_39  and  C_43
   24  A    between atoms: C_51  and  C_52
                            x       y       z     vdW  Elec       q    Type
                         _______ _______ _______ _____ _____    ______ ____

>  <TORSDO>
F 24

$$$$
=
 OpenBabel11072410003D

 54 56  0  0  1  0  0  0  0  0999 V2000
  161.7150  211.7390  148.2650 C   0  0  2  0  0  3  0  0  0  0  0  0
  161.2730  209.7010  150.4550 C   0  0  0  0  0  2  0  0  0  0  0  0
  162.5030  208.0890  148.9980 C   0  0  0  0  0  0  0  0  0  0  0  0
  161.1940  212.1020  149.6880 C   0  0  2  0  0  3  0  0  0  0  0  0
  162.0920  209.3680  149.2240 C   0  0  0  0  0  0  0  0  0  0  0  0
  160.3560  210.8840  150.1850 C   0  0  0  0  0  2  0  0  0  0  0  0
  163.4010  207.9000  147.9440 O   0  0  0  0  0  1  0  0  0  0  0  0
  162.5390  210.4280  148.2060 C   0  0  0  0  0  2  0  0  0  0  0  0
  160.4360  213.4220  150.0450 C   0  0  0  0  0  0  0  0  0  0  0  0
  160.6140  214.4530  149.3850 O   0  0  0  0  0  0  0  0  0  0  0  0
  159.5070  213.3790  151.1540 O   0  0  0  0  0  0  0  0  0  0  0  0
  159.9250  213.6490  152.4910 C   0  0  0  0  0  2  0  0  0  0  0  0
  159.6380  212.6190  153.4270 O   0  0  0  0  0  0  0  0  0  0  0  0
  158.5530  211.8140  152.9820 C   0  0  0  0  0  2  0  0  0  0  0  0
  158.2880  210.6720  153.7860 O   0  0  0  0  0  0  0  0  0  0  0  0
  157.4460  211.4600  154.6200 C   0  0  2  0  0  3  0  0  0  0  0  0
  158.0990  212.6090  155.3760 C   0  0  2  0  0  3  0  0  0  0  0  0
  157.4640  211.5070  156.1620 C   0  0  2  0  0  3  0  0  0  0  0  0
  159.6400  210.3820  156.6700 C   0  0  0  0  0  0  0  0  0  0  0  0
  158.4150  210.7440  156.9560 C   0  0  0  0  0  3  0  0  0  0  0  0
  162.0050  210.4960  156.4460 O   0  0  0  0  0  1  0  0  0  0  0  0
  160.8080  209.7900  156.6160 C   0  0  0  0  0  0  0  0  0  0  0  0
  160.8480  208.3560  157.0870 C   0  0  0  0  0  2  0  0  0  0  0  0
  160.4630  207.2520  156.1310 C   0  0  1  0  0  3  0  0  0  0  0  0
  159.0700  207.2890  155.9170 O   0  0  0  0  0  1  0  0  0  0  0  0
  160.8370  205.8980  153.6890 O   0  0  0  0  0  1  0  0  0  0  0  0
  160.3630  208.4490  153.7620 O   0  0  0  0  0  1  0  0  0  0  0  0
  161.4080  207.3020  154.5480 P   0  0  0  0  0  0  0  0  0  0  0  0
  157.5610  214.0550  157.1200 O   0  0  0  0  0  1  0  0  0  0  0  0
  157.3120  213.9070  155.7860 C   0  0  2  0  0  3  0  0  0  0  0  0
  155.8980  214.0160  155.3960 O   0  0  0  0  0  0  0  0  0  0  0  0
  154.4060  213.9530  153.5060 O   0  0  0  0  0  1  0  0  0  0  0  0
  155.6670  214.4520  154.0260 C   0  0  0  0  0  2  0  0  0  0  0  0
  162.0160  213.8240  146.7530 C   0  0  0  0  0  3  0  0  0  0  0  0
  161.6550  212.5440  146.9480 C   0  0  0  0  0  3  0  0  0  0  0  0
  162.1090  214.4160  145.3620 C   0  0  0  0  0  2  0  0  0  0  0  0
  162.0420  213.2370  144.4020 C   0  0  2  0  0  3  0  0  0  0  0  0
  163.0000  213.4390  143.2120 C   0  0  0  0  0  1  0  0  0  0  0  0
  160.6180  213.1760  143.8830 C   0  0  0  0  0  2  0  0  0  0  0  0
  160.6610  212.8310  142.4560 C   0  0  0  0  0  0  0  0  0  0  0  0
  160.5310  213.8880  141.5690 O   0  0  0  0  0  0  0  0  0  0  0  0
  160.8570  211.6430  142.0630 O   0  0  0  0  0  1  0  0  0  0  0  0
  162.0810  206.8270  149.8070 C   0  0  0  0  0  2  0  0  0  0  0  0
  161.0310  205.9020  149.0320 C   0  0  2  0  0  3  0  0  0  0  0  0
  160.7000  201.3310  150.4620 S   0  0  0  0  0  0  0  0  0  0  0  0
  161.4020  201.8880  148.8720 C   0  0  0  0  0  2  0  0  0  0  0  0
  160.4740  204.0410  150.8280 C   0  0  0  0  0  2  0  0  0  0  0  0
  160.9250  204.3800  149.4210 C   0  0  0  0  0  3  0  0  0  0  0  0
  161.2310  202.8410  151.3420 C   0  0  0  0  0  2  0  0  0  0  0  0
  160.8490  203.2520  148.4150 C   0  0  0  0  0  2  0  0  0  0  0  0
  161.2420  206.0560  147.5470 C   0  0  0  0  0  0  0  0  0  0  0  0
  160.4950  206.7860  146.8970 O   0  0  0  0  0  0  0  0  0  0  0  0
  162.2220  205.1550  146.8490 C   0  0  0  0  0  2  0  0  0  0  0  0
  162.8170  205.7920  145.7600 O   0  0  0  0  0  1  0  0  0  0  0  0
  1 35  1  1  0  0  0
  1  4  1  0  0  0  0
  3  5  2  0  0  0  0
  3 43  1  0  0  0  0
  4  9  1  6  0  0  0
  4  6  1  0  0  0  0
  5  2  1  0  0  0  0
  6  2  1  0  0  0  0
  7  3  1  0  0  0  0
  8  1  1  0  0  0  0
  8  5  1  0  0  0  0
  9 11  1  0  0  0  0
 10  9  2  0  0  0  0
 11 12  1  0  0  0  0
 12 13  1  0  0  0  0
 14 13  1  0  0  0  0
 14 15  1  0  0  0  0
 16 15  1  1  0  0  0
 16 17  1  0  0  0  0
 16 18  1  0  0  0  0
 17 30  1  6  0  0  0
 17 18  1  0  0  0  0
 18 20  1  1  0  0  0
 19 20  2  0  0  0  0
 21 22  1  0  0  0  0
 22 19  2  0  0  0  0
 22 23  1  0  0  0  0
 24 25  1  6  0  0  0
 24 23  1  0  0  0  0
 26 28  1  0  0  0  0
 27 28  1  0  0  0  0
 28 24  1  0  0  0  0
 30 29  1  1  0  0  0
 31 30  1  0  0  0  0
 32 33  1  0  0  0  0
 33 31  1  0  0  0  0
 34 35  2  0  0  0  0
 36 34  1  0  0  0  0
 37 38  1  6  0  0  0
 37 36  1  0  0  0  0
 39 37  1  0  0  0  0
 40 39  1  0  0  0  0
 41 40  2  0  0  0  0
 42 40  1  0  0  0  0
 44 48  1  0  0  0  0
 44 43  1  1  0  0  0
 45 49  1  0  0  0  0
 46 45  1  0  0  0  0
 47 49  1  0  0  0  0
 48 47  1  0  0  0  0
 50 46  1  0  0  0  0
 50 48  1  0  0  0  0
 51 44  1  0  0  0  0
 52 51  2  0  0  0  0
 53 51  1  0  0  0  0
 54 53  1  0  0  0  0
M  END
>  <MODEL>
7

>  <REMARK>
 VINA RESULT:      -1.8      3.301      9.545
  Name = 
  24 active torsions:
  status: ('A' for Active; 'I' for Inactive)
    1  A    between atoms: C_4  and  C_11
    2  A    between atoms: C_4  and  C_31
    3  A    between atoms: C_6  and  C_38
    4  A    between atoms: C_6  and  C_46
    5  A    between atoms: C_8  and  C_38
    6  A    between atoms: C_9  and  O_12
    7  A    between atoms: C_9  and  O_29
    8  A    between atoms: O_10  and  C_22
    9  A    between atoms: O_10  and  C_41
   10  A    between atoms: O_12  and  C_42
   11  A    between atoms: C_14  and  P_26
   12  A    between atoms: C_14  and  C_52
   13  A    between atoms: C_17  and  C_31
   14  A    between atoms: O_19  and  C_33
   15  A    between atoms: O_19  and  C_50
   16  A    between atoms: C_20  and  C_45
   17  A    between atoms: C_25  and  C_37
   18  A    between atoms: C_27  and  C_42
   19  A    between atoms: C_28  and  C_46
   20  A    between atoms: O_29  and  C_41
   21  A    between atoms: C_31  and  C_37
   22  A    between atoms: C_36  and  C_50
   23  A    between atoms: C_39  and  C_43
   24  A    between atoms: C_51  and  C_52
                            x       y       z     vdW  Elec       q    Type
                         _______ _______ _______ _____ _____    ______ ____

>  <TORSDO>
F 24

$$$$
=
 OpenBabel11072410003D

 54 56  0  0  1  0  0  0  0  0999 V2000
  161.1900  211.6770  149.0360 C   0  0  2  0  0  3  0  0  0  0  0  0
  161.3440  209.7340  151.3470 C   0  0  0  0  0  2  0  0  0  0  0  0
  162.1280  208.0460  149.6830 C   0  0  0  0  0  0  0  0  0  0  0  0
  161.0730  212.1030  150.5300 C   0  0  2  0  0  3  0  0  0  0  0  0
  161.8000  209.3390  149.9570 C   0  0  0  0  0  0  0  0  0  0  0  0
  160.3930  210.9190  151.2840 C   0  0  0  0  0  2  0  0  0  0  0  0
  162.7100  207.8020  148.4360 O   0  0  0  0  0  1  0  0  0  0  0  0
  161.9620  210.3520  148.8130 C   0  0  0  0  0  2  0  0  0  0  0  0
  160.4450  213.4490  151.0220 C   0  0  0  0  0  0  0  0  0  0  0  0
  160.1470  214.3400  150.2170 O   0  0  0  0  0  0  0  0  0  0  0  0
  160.2080  213.5940  152.4420 O   0  0  0  0  0  0  0  0  0  0  0  0
  158.8890  213.7030  152.9740 C   0  0  0  0  0  2  0  0  0  0  0  0
  158.8160  213.7320  154.3920 O   0  0  0  0  0  0  0  0  0  0  0  0
  159.7860  212.8670  154.9690 C   0  0  0  0  0  2  0  0  0  0  0  0
  160.1890  213.2170  156.2870 O   0  0  0  0  0  0  0  0  0  0  0  0
  160.3930  211.8400  156.5860 C   0  0  2  0  0  3  0  0  0  0  0  0
  160.0060  210.8340  155.5110 C   0  0  2  0  0  3  0  0  0  0  0  0
  159.2980  210.7800  156.8270 C   0  0  2  0  0  3  0  0  0  0  0  0
  157.0300  210.8210  155.7700 C   0  0  0  0  0  0  0  0  0  0  0  0
  157.8790  211.0880  156.7300 C   0  0  0  0  0  3  0  0  0  0  0  0
  155.4610  209.6160  154.4510 O   0  0  0  0  0  1  0  0  0  0  0  0
  156.0110  210.8030  154.9460 C   0  0  0  0  0  0  0  0  0  0  0  0
  155.2370  212.0930  154.8200 C   0  0  0  0  0  2  0  0  0  0  0  0
  155.5720  213.2500  155.7320 C   0  0  1  0  0  3  0  0  0  0  0  0
  155.7060  214.4240  154.9640 O   0  0  0  0  0  1  0  0  0  0  0  0
  153.0850  214.3970  156.3900 O   0  0  0  0  0  1  0  0  0  0  0  0
  153.6040  211.9060  156.9060 O   0  0  0  0  0  1  0  0  0  0  0  0
  154.3640  213.4580  157.1100 P   0  0  0  0  0  0  0  0  0  0  0  0
  159.9720  208.7710  154.4320 O   0  0  0  0  0  1  0  0  0  0  0  0
  160.7090  209.4350  155.3700 C   0  0  2  0  0  3  0  0  0  0  0  0
  160.9960  208.6730  156.5950 O   0  0  0  0  0  0  0  0  0  0  0  0
  163.0950  209.8300  156.8380 O   0  0  0  0  0  1  0  0  0  0  0  0
  162.4070  208.5540  156.9320 C   0  0  0  0  0  2  0  0  0  0  0  0
  161.5710  213.1690  146.9490 C   0  0  0  0  0  3  0  0  0  0  0  0
  160.7830  212.4310  147.7510 C   0  0  0  0  0  3  0  0  0  0  0  0
  161.0830  213.6690  145.6050 C   0  0  0  0  0  2  0  0  0  0  0  0
  162.1790  213.3210  144.6080 C   0  0  2  0  0  3  0  0  0  0  0  0
  163.4110  214.2260  144.8040 C   0  0  0  0  0  1  0  0  0  0  0  0
  161.6050  213.5630  143.2250 C   0  0  0  0  0  2  0  0  0  0  0  0
  160.8540  212.3670  142.8200 C   0  0  0  0  0  0  0  0  0  0  0  0
  161.3080  211.7170  141.6850 O   0  0  0  0  0  0  0  0  0  0  0  0
  159.8800  211.9310  143.5020 O   0  0  0  0  0  1  0  0  0  0  0  0
  161.9330  206.8240  150.6280 C   0  0  0  0  0  2  0  0  0  0  0  0
  161.9440  205.4230  149.8560 C   0  0  2  0  0  3  0  0  0  0  0  0
  161.0650  205.2450  145.1390 S   0  0  0  0  0  0  0  0  0  0  0  0
  160.2030  206.3270  146.3300 C   0  0  0  0  0  2  0  0  0  0  0  0
  162.4640  204.5780  147.4040 C   0  0  0  0  0  2  0  0  0  0  0  0
  161.5790  205.3950  148.3250 C   0  0  0  0  0  3  0  0  0  0  0  0
  162.6300  205.2840  146.0810 C   0  0  0  0  0  2  0  0  0  0  0  0
  160.2240  205.7750  147.7690 C   0  0  0  0  0  2  0  0  0  0  0  0
  161.1000  204.4340  150.6190 C   0  0  0  0  0  0  0  0  0  0  0  0
  160.0830  204.8170  151.1960 O   0  0  0  0  0  0  0  0  0  0  0  0
  161.6230  203.0420  150.8440 C   0  0  0  0  0  2  0  0  0  0  0  0
  161.8080  202.3640  149.6400 O   0  0  0  0  0  1  0  0  0  0  0  0
  1 35  1  6  0  0  0
  1  4  1  0  0  0  0
  3  5  2  0  0  0  0
  3 43  1  0  0  0  0
  4  9  1  6  0  0  0
  4  6  1  0  0  0  0
  5  2  1  0  0  0  0
  6  2  1  0  0  0  0
  7  3  1  0  0  0  0
  8  1  1  0  0  0  0
  8  5  1  0  0  0  0
  9 11  1  0  0  0  0
 10  9  2  0  0  0  0
 11 12  1  0  0  0  0
 12 13  1  0  0  0  0
 13 14  1  0  0  0  0
 14 15  1  0  0  0  0
 16 15  1  6  0  0  0
 16 18  1  0  0  0  0
 17 30  1  1  0  0  0
 17 16  1  0  0  0  0
 17 18  1  0  0  0  0
 18 20  1  6  0  0  0
 19 20  2  0  0  0  0
 21 22  1  0  0  0  0
 22 19  2  0  0  0  0
 23 22  1  0  0  0  0
 23 24  1  0  0  0  0
 24 25  1  6  0  0  0
 24 28  1  0  0  0  0
 26 28  1  0  0  0  0
 27 28  1  0  0  0  0
 30 29  1  6  0  0  0
 30 31  1  0  0  0  0
 31 33  1  0  0  0  0
 32 33  1  0  0  0  0
 34 35  2  0  0  0  0
 36 34  1  0  0  0  0
 37 38  1  1  0  0  0
 37 36  1  0  0  0  0
 39 37  1  0  0  0  0
 40 39  1  0  0  0  0
 40 42  1  0  0  0  0
 41 40  2  0  0  0  0
 44 51  1  0  0  0  0
 44 43  1  1  0  0  0
 45 49  1  0  0  0  0
 45 46  1  0  0  0  0
 46 50  1  0  0  0  0
 47 48  1  0  0  0  0
 48 44  1  0  0  0  0
 49 47  1  0  0  0  0
 50 48  1  0  0  0  0
 51 53  1  0  0  0  0
 51 52  2  0  0  0  0
 54 53  1  0  0  0  0
M  END
>  <MODEL>
8

>  <REMARK>
 VINA RESULT:      -1.8      3.799     10.188
  Name = 
  24 active torsions:
  status: ('A' for Active; 'I' for Inactive)
    1  A    between atoms: C_4  and  C_11
    2  A    between atoms: C_4  and  C_31
    3  A    between atoms: C_6  and  C_38
    4  A    between atoms: C_6  and  C_46
    5  A    between atoms: C_8  and  C_38
    6  A    between atoms: C_9  and  O_12
    7  A    between atoms: C_9  and  O_29
    8  A    between atoms: O_10  and  C_22
    9  A    between atoms: O_10  and  C_41
   10  A    between atoms: O_12  and  C_42
   11  A    between atoms: C_14  and  P_26
   12  A    between atoms: C_14  and  C_52
   13  A    between atoms: C_17  and  C_31
   14  A    between atoms: O_19  and  C_33
   15  A    between atoms: O_19  and  C_50
   16  A    between atoms: C_20  and  C_45
   17  A    between atoms: C_25  and  C_37
   18  A    between atoms: C_27  and  C_42
   19  A    between atoms: C_28  and  C_46
   20  A    between atoms: O_29  and  C_41
   21  A    between atoms: C_31  and  C_37
   22  A    between atoms: C_36  and  C_50
   23  A    between atoms: C_39  and  C_43
   24  A    between atoms: C_51  and  C_52
                            x       y       z     vdW  Elec       q    Type
                         _______ _______ _______ _____ _____    ______ ____

>  <TORSDO>
F 24

$$$$
