=
 OpenBabel11072414243D

 26 30  0  0  1  0  0  0  0  0999 V2000
  157.5230  213.9620  152.8000 C   0  0  0  0  0  2  0  0  0  0  0  0
  158.4580  212.2330  156.8400 S   0  0  0  0  0  0  0  0  0  0  0  0
  160.3300  209.7530  154.1620 C   0  0  0  0  0  0  0  0  0  0  0  0
  157.2860  211.9230  154.3770 C   0  0  1  0  0  3  0  0  0  0  0  0
  157.0780  211.5880  155.8470 C   0  0  0  0  0  2  0  0  0  0  0  0
  156.9190  213.3890  154.0950 C   0  0  0  0  0  2  0  0  0  0  0  0
  159.0720  212.0720  152.7470 N   0  0  0  0  0  0  0  0  0  0  0  0
  158.6780  211.5900  153.8880 C   0  0  0  0  0  0  0  0  0  0  0  0
  162.2790  209.7750  155.5350 O   0  0  0  0  0  0  0  0  0  0  0  0
  159.6550  210.9980  156.2140 C   0  0  1  0  0  3  0  0  0  0  0  0
  161.8010  210.1950  156.7810 C   0  0  0  0  0  2  0  0  0  0  0  0
  159.5960  210.7590  154.7100 C   0  0  0  0  0  0  0  0  0  0  0  0
  161.2770  208.9500  155.0110 C   0  0  0  0  0  2  0  0  0  0  0  0
  158.1820  212.8920  151.9300 C   0  0  0  0  0  2  0  0  0  0  0  0
  160.9980  211.4010  156.6210 N   0  0  0  0  0  2  0  0  0  0  0  0
  161.4500  209.8010  152.0580 O   0  0  0  0  0  0  0  0  0  0  0  0
  160.2620  209.3970  152.7030 C   0  0  1  0  0  3  0  0  0  0  0  0
  161.3340  208.4290  152.3430 C   0  0  1  0  0  3  0  0  0  0  0  0
  162.1940  205.3950  151.6000 C   0  0  0  0  0  1  0  0  0  0  0  0
  160.9390  206.1150  151.1200 C   0  0  1  0  0  3  0  0  0  0  0  0
  161.1220  207.6470  151.0300 C   0  0  2  0  0  3  0  0  0  0  0  0
  161.6920  207.4650  148.5980 C   0  0  0  0  0  2  0  0  0  0  0  0
  160.5210  205.5670  149.7540 C   0  0  0  0  0  2  0  0  0  0  0  0
  162.1340  208.0360  149.9430 C   0  0  1  0  0  3  0  0  0  0  0  0
  161.5350  205.9490  148.6730 C   0  0  0  0  0  2  0  0  0  0  0  0
  162.2230  209.4250  149.8370 O   0  0  0  0  0  1  0  0  0  0  0  0
  1  6  1  0  0  0  0
  3 12  2  0  0  0  0
  3 13  1  0  0  0  0
  4  6  1  1  0  0  0
  4  5  1  0  0  0  0
  5  2  1  0  0  0  0
  7  8  2  0  0  0  0
  8  4  1  0  0  0  0
  8 12  1  0  0  0  0
  9 11  1  0  0  0  0
 10 12  1  6  0  0  0
 10 15  1  0  0  0  0
 10  2  1  0  0  0  0
 13  9  1  0  0  0  0
 14  7  1  0  0  0  0
 14  1  1  0  0  0  0
 15 11  1  0  0  0  0
 16 17  1  0  0  0  0
 17  3  1  1  0  0  0
 18 16  1  6  0  0  0
 18 17  1  0  0  0  0
 20 19  1  6  0  0  0
 21 20  1  0  0  0  0
 21 18  1  1  0  0  0
 22 25  1  0  0  0  0
 22 24  1  0  0  0  0
 23 20  1  0  0  0  0
 24 26  1  6  0  0  0
 24 21  1  0  0  0  0
 25 23  1  0  0  0  0
M  END
>  <MODEL>
1

>  <REMARK>
 VINA RESULT:      -7.2      0.000      0.000
  Name = 
  2 active torsions:
  status: ('A' for Active; 'I' for Inactive)
    1  A    between atoms: C_5  and  C_18
    2  A    between atoms: C_6  and  C_23
                            x       y       z     vdW  Elec       q    Type
                         _______ _______ _______ _____ _____    ______ ____

>  <TORSDO>
F 2

$$$$
=
 OpenBabel11072414243D

 26 30  0  0  1  0  0  0  0  0999 V2000
  161.5740  200.9900  150.9280 C   0  0  0  0  0  2  0  0  0  0  0  0
  161.3960  202.3360  146.6460 S   0  0  0  0  0  0  0  0  0  0  0  0
  160.8800  205.7510  148.8570 C   0  0  0  0  0  0  0  0  0  0  0  0
  160.1390  202.0880  149.0740 C   0  0  1  0  0  3  0  0  0  0  0  0
  159.8730  201.9930  147.5780 C   0  0  0  0  0  2  0  0  0  0  0  0
  160.8430  200.8190  149.5840 C   0  0  0  0  0  2  0  0  0  0  0  0
  161.4220  203.4130  150.6450 N   0  0  0  0  0  0  0  0  0  0  0  0
  160.8950  203.3400  149.4600 C   0  0  0  0  0  0  0  0  0  0  0  0
  162.4260  206.8810  147.4360 O   0  0  0  0  0  0  0  0  0  0  0  0
  161.3870  204.1240  147.0380 C   0  0  1  0  0  3  0  0  0  0  0  0
  162.4560  206.0880  146.2840 C   0  0  0  0  0  2  0  0  0  0  0  0
  161.0660  204.4560  148.4910 C   0  0  0  0  0  0  0  0  0  0  0  0
  161.0940  206.8630  147.8650 C   0  0  0  0  0  2  0  0  0  0  0  0
  161.2640  202.3250  151.6050 C   0  0  0  0  0  2  0  0  0  0  0  0
  162.6730  204.6940  146.6500 N   0  0  0  0  0  2  0  0  0  0  0  0
  161.4920  205.8030  151.1610 O   0  0  0  0  0  0  0  0  0  0  0  0
  160.4770  206.1560  150.2480 C   0  0  1  0  0  3  0  0  0  0  0  0
  161.4230  207.1610  150.8030 C   0  0  1  0  0  3  0  0  0  0  0  0
  162.3340  210.0980  151.8260 C   0  0  0  0  0  1  0  0  0  0  0  0
  160.9230  209.5240  151.8880 C   0  0  1  0  0  3  0  0  0  0  0  0
  160.9050  207.9830  152.0020 C   0  0  2  0  0  3  0  0  0  0  0  0
  160.7230  208.1420  154.4960 C   0  0  0  0  0  2  0  0  0  0  0  0
  160.1700  210.1350  153.0710 C   0  0  0  0  0  2  0  0  0  0  0  0
  161.4910  207.5050  153.3390 C   0  0  1  0  0  3  0  0  0  0  0  0
  160.7600  209.6640  154.4020 C   0  0  0  0  0  2  0  0  0  0  0  0
  161.3940  206.1160  153.4440 O   0  0  0  0  0  1  0  0  0  0  0  0
  1 14  1  0  0  0  0
  2  5  1  0  0  0  0
  4  5  1  6  0  0  0
  4  8  1  0  0  0  0
  4  6  1  0  0  0  0
  6  1  1  0  0  0  0
  7 14  1  0  0  0  0
  8  7  2  0  0  0  0
  9 13  1  0  0  0  0
 10  2  1  1  0  0  0
 10 12  1  0  0  0  0
 11 15  1  0  0  0  0
 11  9  1  0  0  0  0
 12  3  2  0  0  0  0
 12  8  1  0  0  0  0
 13  3  1  0  0  0  0
 15 10  1  0  0  0  0
 17  3  1  6  0  0  0
 17 18  1  0  0  0  0
 17 16  1  0  0  0  0
 18 16  1  1  0  0  0
 20 19  1  1  0  0  0
 20 21  1  0  0  0  0
 20 23  1  0  0  0  0
 21 18  1  6  0  0  0
 21 24  1  0  0  0  0
 23 25  1  0  0  0  0
 24 26  1  1  0  0  0
 24 22  1  0  0  0  0
 25 22  1  0  0  0  0
M  END
>  <MODEL>
2

>  <REMARK>
 VINA RESULT:      -7.1      4.659      8.947
  Name = 
  2 active torsions:
  status: ('A' for Active; 'I' for Inactive)
    1  A    between atoms: C_5  and  C_18
    2  A    between atoms: C_6  and  C_23
                            x       y       z     vdW  Elec       q    Type
                         _______ _______ _______ _____ _____    ______ ____

>  <TORSDO>
F 2

$$$$
=
 OpenBabel11072414243D

 26 30  0  0  1  0  0  0  0  0999 V2000
  160.9240  212.5860  150.9380 C   0  0  0  0  0  2  0  0  0  0  0  0
  159.4680  211.6200  155.0770 S   0  0  0  0  0  0  0  0  0  0  0  0
  160.7170  208.0350  153.5260 C   0  0  0  0  0  0  0  0  0  0  0  0
  159.2170  211.2630  152.3660 C   0  0  1  0  0  3  0  0  0  0  0  0
  158.3840  211.4000  153.6330 C   0  0  0  0  0  2  0  0  0  0  0  0
  159.7170  212.6380  151.8920 C   0  0  0  0  0  2  0  0  0  0  0  0
  161.2930  210.2660  151.6150 N   0  0  0  0  0  0  0  0  0  0  0  0
  160.3520  210.2750  152.5110 C   0  0  0  0  0  0  0  0  0  0  0  0
  161.8330  207.5580  155.5780 O   0  0  0  0  0  0  0  0  0  0  0  0
  160.0610  209.8890  155.0580 C   0  0  1  0  0  3  0  0  0  0  0  0
  161.2190  208.4190  156.4960 C   0  0  0  0  0  2  0  0  0  0  0  0
  160.4160  209.3520  153.6760 C   0  0  0  0  0  0  0  0  0  0  0  0
  160.8090  207.1310  154.7260 C   0  0  0  0  0  2  0  0  0  0  0  0
  161.2450  211.1670  150.4670 C   0  0  0  0  0  2  0  0  0  0  0  0
  161.2000  209.7760  155.9640 N   0  0  0  0  0  2  0  0  0  0  0  0
  162.3860  207.2840  151.9970 O   0  0  0  0  0  0  0  0  0  0  0  0
  160.9940  207.4090  152.1870 C   0  0  1  0  0  3  0  0  0  0  0  0
  161.6990  206.1080  152.3440 C   0  0  1  0  0  3  0  0  0  0  0  0
  160.2730  206.5440  149.4680 C   0  0  0  0  0  1  0  0  0  0  0  0
  161.5780  205.7980  149.7180 C   0  0  1  0  0  3  0  0  0  0  0  0
  161.6480  205.1630  151.1260 C   0  0  2  0  0  3  0  0  0  0  0  0
  160.8200  202.9810  150.2140 C   0  0  0  0  0  2  0  0  0  0  0  0
  161.7630  204.7120  148.6560 C   0  0  0  0  0  2  0  0  0  0  0  0
  160.6140  204.0400  151.2950 C   0  0  1  0  0  3  0  0  0  0  0  0
  160.7270  203.5970  148.8210 C   0  0  0  0  0  2  0  0  0  0  0  0
  160.7490  203.4390  152.5480 O   0  0  0  0  0  1  0  0  0  0  0  0
  1  6  1  0  0  0  0
  3 12  2  0  0  0  0
  3 13  1  0  0  0  0
  4  6  1  1  0  0  0
  4  8  1  0  0  0  0
  4  5  1  0  0  0  0
  5  2  1  0  0  0  0
  7  8  2  0  0  0  0
  8 12  1  0  0  0  0
  9 11  1  0  0  0  0
 10 12  1  6  0  0  0
 10  2  1  0  0  0  0
 10 15  1  0  0  0  0
 13  9  1  0  0  0  0
 14  1  1  0  0  0  0
 14  7  1  0  0  0  0
 15 11  1  0  0  0  0
 16 17  1  0  0  0  0
 17 18  1  0  0  0  0
 17  3  1  1  0  0  0
 18 16  1  6  0  0  0
 20 19  1  6  0  0  0
 20 21  1  0  0  0  0
 21 24  1  0  0  0  0
 21 18  1  1  0  0  0
 22 24  1  0  0  0  0
 23 25  1  0  0  0  0
 23 20  1  0  0  0  0
 24 26  1  1  0  0  0
 25 22  1  0  0  0  0
M  END
>  <MODEL>
3

>  <REMARK>
 VINA RESULT:      -6.6      2.209      3.037
  Name = 
  2 active torsions:
  status: ('A' for Active; 'I' for Inactive)
    1  A    between atoms: C_5  and  C_18
    2  A    between atoms: C_6  and  C_23
                            x       y       z     vdW  Elec       q    Type
                         _______ _______ _______ _____ _____    ______ ____

>  <TORSDO>
F 2

$$$$
=
 OpenBabel11072414243D

 26 30  0  0  1  0  0  0  0  0999 V2000
  159.4740  213.7030  152.1430 C   0  0  0  0  0  2  0  0  0  0  0  0
  158.6810  211.4250  155.9330 S   0  0  0  0  0  0  0  0  0  0  0  0
  160.5700  208.7520  153.4620 C   0  0  0  0  0  0  0  0  0  0  0  0
  158.2630  211.6910  153.2330 C   0  0  1  0  0  3  0  0  0  0  0  0
  157.5440  211.3030  154.5190 C   0  0  0  0  0  2  0  0  0  0  0  0
  158.3840  213.2200  153.1180 C   0  0  0  0  0  2  0  0  0  0  0  0
  160.4310  211.4530  152.1800 N   0  0  0  0  0  0  0  0  0  0  0  0
  159.6030  211.0100  153.0780 C   0  0  0  0  0  0  0  0  0  0  0  0
  161.9560  208.0790  155.2820 O   0  0  0  0  0  0  0  0  0  0  0  0
  159.6530  209.9530  155.4450 C   0  0  1  0  0  3  0  0  0  0  0  0
  161.2500  208.5090  156.4110 C   0  0  0  0  0  2  0  0  0  0  0  0
  159.9890  209.8760  153.9600 C   0  0  0  0  0  0  0  0  0  0  0  0
  160.9810  207.6340  154.3820 C   0  0  0  0  0  2  0  0  0  0  0  0
  160.0670  212.5670  151.3090 C   0  0  0  0  0  2  0  0  0  0  0  0
  160.8680  209.9070  156.2520 N   0  0  0  0  0  2  0  0  0  0  0  0
  162.1970  208.8950  151.7250 O   0  0  0  0  0  0  0  0  0  0  0  0
  160.8550  208.5610  151.9980 C   0  0  1  0  0  3  0  0  0  0  0  0
  161.9000  207.5230  151.7910 C   0  0  1  0  0  3  0  0  0  0  0  0
  161.5820  208.9740  148.9120 C   0  0  0  0  0  1  0  0  0  0  0  0
  162.5030  207.8020  149.2290 C   0  0  1  0  0  3  0  0  0  0  0  0
  161.9720  206.9130  150.3760 C   0  0  2  0  0  3  0  0  0  0  0  0
  160.9130  205.3590  148.7200 C   0  0  0  0  0  2  0  0  0  0  0  0
  162.7060  206.9520  147.9730 C   0  0  0  0  0  2  0  0  0  0  0  0
  160.6770  206.1880  149.9810 C   0  0  1  0  0  3  0  0  0  0  0  0
  161.4130  206.2370  147.5760 C   0  0  0  0  0  2  0  0  0  0  0  0
  160.2630  205.3390  151.0090 O   0  0  0  0  0  1  0  0  0  0  0  0
  1  6  1  0  0  0  0
  3 12  2  0  0  0  0
  3 13  1  0  0  0  0
  4  6  1  1  0  0  0
  4  5  1  0  0  0  0
  5  2  1  0  0  0  0
  7  8  2  0  0  0  0
  8  4  1  0  0  0  0
  8 12  1  0  0  0  0
  9 11  1  0  0  0  0
 10 12  1  6  0  0  0
 10  2  1  0  0  0  0
 10 15  1  0  0  0  0
 13  9  1  0  0  0  0
 14  1  1  0  0  0  0
 14  7  1  0  0  0  0
 15 11  1  0  0  0  0
 16 17  1  0  0  0  0
 17  3  1  1  0  0  0
 18 16  1  6  0  0  0
 18 17  1  0  0  0  0
 20 19  1  6  0  0  0
 20 21  1  0  0  0  0
 21 18  1  1  0  0  0
 22 24  1  0  0  0  0
 23 20  1  0  0  0  0
 24 21  1  0  0  0  0
 24 26  1  1  0  0  0
 25 23  1  0  0  0  0
 25 22  1  0  0  0  0
M  END
>  <MODEL>
4

>  <REMARK>
 VINA RESULT:      -6.2      1.527      2.117
  Name = 
  2 active torsions:
  status: ('A' for Active; 'I' for Inactive)
    1  A    between atoms: C_5  and  C_18
    2  A    between atoms: C_6  and  C_23
                            x       y       z     vdW  Elec       q    Type
                         _______ _______ _______ _____ _____    ______ ____

>  <TORSDO>
F 2

$$$$
=
 OpenBabel11072414243D

 26 30  0  0  1  0  0  0  0  0999 V2000
  160.1770  206.1960  145.2190 C   0  0  0  0  0  2  0  0  0  0  0  0
  161.6220  202.1760  146.6090 S   0  0  0  0  0  0  0  0  0  0  0  0
  161.1600  204.3830  150.0350 C   0  0  0  0  0  0  0  0  0  0  0  0
  162.0480  204.8830  146.4330 C   0  0  1  0  0  3  0  0  0  0  0  0
  162.7870  203.5520  146.3680 C   0  0  0  0  0  2  0  0  0  0  0  0
  161.3100  205.1590  145.1120 C   0  0  0  0  0  2  0  0  0  0  0  0
  160.2390  205.9390  147.6490 N   0  0  0  0  0  0  0  0  0  0  0  0
  161.1230  204.9860  147.6240 C   0  0  0  0  0  0  0  0  0  0  0  0
  160.0750  202.5250  151.0620 O   0  0  0  0  0  0  0  0  0  0  0  0
  161.3790  202.5230  148.3900 C   0  0  1  0  0  3  0  0  0  0  0  0
  160.4720  201.4360  150.2770 C   0  0  0  0  0  2  0  0  0  0  0  0
  161.1920  203.9970  148.7320 C   0  0  0  0  0  0  0  0  0  0  0  0
  161.1970  203.3580  151.1360 C   0  0  0  0  0  2  0  0  0  0  0  0
  160.1580  206.9160  146.5670 C   0  0  0  0  0  2  0  0  0  0  0  0
  160.2480  201.7350  148.8680 N   0  0  0  0  0  2  0  0  0  0  0  0
  161.5730  205.9730  151.7630 O   0  0  0  0  0  0  0  0  0  0  0  0
  161.0650  205.8230  150.4560 C   0  0  1  0  0  3  0  0  0  0  0  0
  162.4160  206.3890  150.7180 C   0  0  1  0  0  3  0  0  0  0  0  0
  160.4670  208.5670  152.1170 C   0  0  0  0  0  1  0  0  0  0  0  0
  161.9780  208.6900  151.9540 C   0  0  1  0  0  3  0  0  0  0  0  0
  162.5130  207.9290  150.7190 C   0  0  2  0  0  3  0  0  0  0  0  0
  162.4070  210.0240  149.3480 C   0  0  0  0  0  2  0  0  0  0  0  0
  162.3680  210.1660  151.8560 C   0  0  0  0  0  2  0  0  0  0  0  0
  162.0100  208.5500  149.4070 C   0  0  1  0  0  3  0  0  0  0  0  0
  161.8600  210.7850  150.5520 C   0  0  0  0  0  2  0  0  0  0  0  0
  162.5670  207.8890  148.3110 O   0  0  0  0  0  1  0  0  0  0  0  0
  1 14  1  0  0  0  0
  3 13  1  0  0  0  0
  4  6  1  6  0  0  0
  4  8  1  0  0  0  0
  5  4  1  0  0  0  0
  5  2  1  0  0  0  0
  6  1  1  0  0  0  0
  8  7  2  0  0  0  0
  8 12  1  0  0  0  0
  9 13  1  0  0  0  0
 10  2  1  6  0  0  0
 10 12  1  0  0  0  0
 10 15  1  0  0  0  0
 11  9  1  0  0  0  0
 12  3  2  0  0  0  0
 14  7  1  0  0  0  0
 15 11  1  0  0  0  0
 17  3  1  6  0  0  0
 17 18  1  0  0  0  0
 17 16  1  0  0  0  0
 18 16  1  1  0  0  0
 20 19  1  6  0  0  0
 21 18  1  1  0  0  0
 21 20  1  0  0  0  0
 22 24  1  0  0  0  0
 22 25  1  0  0  0  0
 23 20  1  0  0  0  0
 24 26  1  6  0  0  0
 24 21  1  0  0  0  0
 25 23  1  0  0  0  0
M  END
>  <MODEL>
5

>  <REMARK>
 VINA RESULT:      -6.2      5.178      8.440
  Name = 
  2 active torsions:
  status: ('A' for Active; 'I' for Inactive)
    1  A    between atoms: C_5  and  C_18
    2  A    between atoms: C_6  and  C_23
                            x       y       z     vdW  Elec       q    Type
                         _______ _______ _______ _____ _____    ______ ____

>  <TORSDO>
F 2

$$$$
=
 OpenBabel11072414243D

 26 30  0  0  1  0  0  0  0  0999 V2000
  160.1200  206.9570  156.9290 C   0  0  0  0  0  2  0  0  0  0  0  0
  161.4800  211.2260  157.2590 S   0  0  0  0  0  0  0  0  0  0  0  0
  160.2120  210.8100  153.3810 C   0  0  0  0  0  0  0  0  0  0  0  0
  161.7790  208.7590  156.0920 C   0  0  1  0  0  3  0  0  0  0  0  0
  162.5890  209.9430  156.6020 C   0  0  0  0  0  2  0  0  0  0  0  0
  161.3080  207.8780  157.2610 C   0  0  0  0  0  2  0  0  0  0  0  0
  159.7050  208.2980  154.9280 N   0  0  0  0  0  0  0  0  0  0  0  0
  160.6280  209.1710  155.2020 C   0  0  0  0  0  0  0  0  0  0  0  0
  159.0490  212.8840  153.5590 O   0  0  0  0  0  0  0  0  0  0  0  0
  160.8630  211.7210  155.6080 C   0  0  1  0  0  3  0  0  0  0  0  0
  159.6570  213.5100  154.6540 C   0  0  0  0  0  2  0  0  0  0  0  0
  160.5280  210.5600  154.6790 C   0  0  0  0  0  0  0  0  0  0  0  0
  160.0840  212.2260  152.8860 C   0  0  0  0  0  2  0  0  0  0  0  0
  159.7890  206.9330  155.4370 C   0  0  0  0  0  2  0  0  0  0  0  0
  159.7050  212.5910  155.7840 N   0  0  0  0  0  2  0  0  0  0  0  0
  160.6310  210.0050  151.1760 O   0  0  0  0  0  0  0  0  0  0  0  0
  159.9530  209.7190  152.3790 C   0  0  1  0  0  3  0  0  0  0  0  0
  161.2190  209.0320  152.0030 C   0  0  1  0  0  3  0  0  0  0  0  0
  162.3640  206.1650  152.9890 C   0  0  0  0  0  1  0  0  0  0  0  0
  161.0350  206.4060  152.2810 C   0  0  1  0  0  3  0  0  0  0  0  0
  161.0630  207.6420  151.3530 C   0  0  2  0  0  3  0  0  0  0  0  0
  161.6070  206.1880  149.3870 C   0  0  0  0  0  2  0  0  0  0  0  0
  160.6500  205.1660  151.4730 C   0  0  0  0  0  2  0  0  0  0  0  0
  162.0120  207.4380  150.1640 C   0  0  1  0  0  3  0  0  0  0  0  0
  161.6020  204.9600  150.2920 C   0  0  0  0  0  2  0  0  0  0  0  0
  161.9610  208.5390  149.3070 O   0  0  0  0  0  1  0  0  0  0  0  0
  1  6  1  0  0  0  0
  3 12  2  0  0  0  0
  4  5  1  1  0  0  0
  4  6  1  0  0  0  0
  5  2  1  0  0  0  0
  7  8  2  0  0  0  0
  7 14  1  0  0  0  0
  8  4  1  0  0  0  0
  9 11  1  0  0  0  0
 10 12  1  6  0  0  0
 10 15  1  0  0  0  0
 10  2  1  0  0  0  0
 11 15  1  0  0  0  0
 12  8  1  0  0  0  0
 13  3  1  0  0  0  0
 13  9  1  0  0  0  0
 14  1  1  0  0  0  0
 16 17  1  0  0  0  0
 17  3  1  1  0  0  0
 18 16  1  6  0  0  0
 18 17  1  0  0  0  0
 20 19  1  6  0  0  0
 21 18  1  1  0  0  0
 21 20  1  0  0  0  0
 22 24  1  0  0  0  0
 22 25  1  0  0  0  0
 23 20  1  0  0  0  0
 24 26  1  6  0  0  0
 24 21  1  0  0  0  0
 25 23  1  0  0  0  0
M  END
>  <MODEL>
6

>  <REMARK>
 VINA RESULT:      -6.2      2.031      3.810
  Name = 
  2 active torsions:
  status: ('A' for Active; 'I' for Inactive)
    1  A    between atoms: C_5  and  C_18
    2  A    between atoms: C_6  and  C_23
                            x       y       z     vdW  Elec       q    Type
                         _______ _______ _______ _____ _____    ______ ____

>  <TORSDO>
F 2

$$$$
=
 OpenBabel11072414243D

 26 30  0  0  1  0  0  0  0  0999 V2000
  161.9420  204.0130  151.5930 C   0  0  0  0  0  2  0  0  0  0  0  0
  161.5780  206.6520  147.9750 S   0  0  0  0  0  0  0  0  0  0  0  0
  161.0540  209.1600  151.1780 C   0  0  0  0  0  0  0  0  0  0  0  0
  160.4150  205.5960  150.2270 C   0  0  1  0  0  3  0  0  0  0  0  0
  160.0980  205.9750  148.7860 C   0  0  0  0  0  2  0  0  0  0  0  0
  161.1680  204.2570  150.2840 C   0  0  0  0  0  2  0  0  0  0  0  0
  161.7190  206.3930  152.1060 N   0  0  0  0  0  0  0  0  0  0  0  0
  161.1520  206.6850  150.9740 C   0  0  0  0  0  0  0  0  0  0  0  0
  162.5190  210.7390  150.1560 O   0  0  0  0  0  0  0  0  0  0  0  0
  161.5370  208.2190  148.9210 C   0  0  1  0  0  3  0  0  0  0  0  0
  162.5290  210.3580  148.8100 C   0  0  0  0  0  2  0  0  0  0  0  0
  161.2600  208.0570  150.4110 C   0  0  0  0  0  0  0  0  0  0  0  0
  161.2040  210.5370  150.5900 C   0  0  0  0  0  2  0  0  0  0  0  0
  161.6230  205.0500  152.6700 C   0  0  0  0  0  2  0  0  0  0  0  0
  162.7940  208.9280  148.7040 N   0  0  0  0  0  2  0  0  0  0  0  0
  161.8440  209.2710  153.4250 O   0  0  0  0  0  0  0  0  0  0  0  0
  160.6910  209.0840  152.6350 C   0  0  1  0  0  3  0  0  0  0  0  0
  160.9770  210.3720  153.3220 C   0  0  1  0  0  3  0  0  0  0  0  0
  158.6850  212.5260  154.1030 C   0  0  0  0  0  1  0  0  0  0  0  0
  158.8020  211.1040  154.6430 C   0  0  1  0  0  3  0  0  0  0  0  0
  160.2600  210.5900  154.6700 C   0  0  2  0  0  3  0  0  0  0  0  0
  160.4920  211.2930  157.0640 C   0  0  0  0  0  2  0  0  0  0  0  0
  158.2080  211.0370  156.0500 C   0  0  0  0  0  2  0  0  0  0  0  0
  161.1200  211.3720  155.6740 C   0  0  1  0  0  3  0  0  0  0  0  0
  159.0610  211.8230  157.0480 C   0  0  0  0  0  2  0  0  0  0  0  0
  162.4080  210.8390  155.7300 O   0  0  0  0  0  1  0  0  0  0  0  0
  1 14  1  0  0  0  0
  2  5  1  0  0  0  0
  4  5  1  6  0  0  0
  4  6  1  0  0  0  0
  4  8  1  0  0  0  0
  6  1  1  0  0  0  0
  7 14  1  0  0  0  0
  8  7  2  0  0  0  0
  9 13  1  0  0  0  0
 10  2  1  6  0  0  0
 10 12  1  0  0  0  0
 11  9  1  0  0  0  0
 12  8  1  0  0  0  0
 12  3  2  0  0  0  0
 13  3  1  0  0  0  0
 15 11  1  0  0  0  0
 15 10  1  0  0  0  0
 17  3  1  6  0  0  0
 17 18  1  0  0  0  0
 17 16  1  0  0  0  0
 18 16  1  1  0  0  0
 20 19  1  1  0  0  0
 20 21  1  0  0  0  0
 20 23  1  0  0  0  0
 21 18  1  6  0  0  0
 21 24  1  0  0  0  0
 23 25  1  0  0  0  0
 24 26  1  1  0  0  0
 24 22  1  0  0  0  0
 25 22  1  0  0  0  0
M  END
>  <MODEL>
7

>  <REMARK>
 VINA RESULT:      -6.0      3.082      7.475
  Name = 
  2 active torsions:
  status: ('A' for Active; 'I' for Inactive)
    1  A    between atoms: C_5  and  C_18
    2  A    between atoms: C_6  and  C_23
                            x       y       z     vdW  Elec       q    Type
                         _______ _______ _______ _____ _____    ______ ____

>  <TORSDO>
F 2

$$$$
=
 OpenBabel11072414243D

 26 30  0  0  1  0  0  0  0  0999 V2000
  159.7580  207.0470  156.3200 C   0  0  0  0  0  2  0  0  0  0  0  0
  160.9240  211.2990  155.4590 S   0  0  0  0  0  0  0  0  0  0  0  0
  161.7650  209.2460  152.0100 C   0  0  0  0  0  0  0  0  0  0  0  0
  161.6780  208.6710  155.7080 C   0  0  1  0  0  3  0  0  0  0  0  0
  162.1650  210.0840  155.9990 C   0  0  0  0  0  2  0  0  0  0  0  0
  160.6510  208.2210  156.7600 C   0  0  0  0  0  2  0  0  0  0  0  0
  160.4560  207.4470  154.0120 N   0  0  0  0  0  0  0  0  0  0  0  0
  161.1470  208.5080  154.3010 C   0  0  0  0  0  0  0  0  0  0  0  0
  160.7480  210.9930  150.7450 O   0  0  0  0  0  0  0  0  0  0  0  0
  161.2410  211.0230  153.6780 C   0  0  1  0  0  3  0  0  0  0  0  0
  160.7450  212.0800  151.6270 C   0  0  0  0  0  2  0  0  0  0  0  0
  161.3760  209.5590  153.2740 C   0  0  0  0  0  0  0  0  0  0  0  0
  161.9560  210.3270  150.9800 C   0  0  0  0  0  2  0  0  0  0  0  0
  160.2210  206.4080  155.0110 C   0  0  0  0  0  2  0  0  0  0  0  0
  160.1840  211.6740  152.9100 N   0  0  0  0  0  2  0  0  0  0  0  0
  160.8220  207.0780  151.7000 O   0  0  0  0  0  0  0  0  0  0  0  0
  162.0050  207.8330  151.5570 C   0  0  1  0  0  3  0  0  0  0  0  0
  161.1400  207.4930  150.3950 C   0  0  1  0  0  3  0  0  0  0  0  0
  160.8120  206.9530  147.2170 C   0  0  0  0  0  1  0  0  0  0  0  0
  161.9830  206.5090  148.0860 C   0  0  1  0  0  3  0  0  0  0  0  0
  161.5810  206.2730  149.5600 C   0  0  2  0  0  3  0  0  0  0  0  0
  161.2600  203.8290  149.1110 C   0  0  0  0  0  2  0  0  0  0  0  0
  162.5960  205.2310  147.5110 C   0  0  0  0  0  2  0  0  0  0  0  0
  160.6220  205.0830  149.7040 C   0  0  1  0  0  3  0  0  0  0  0  0
  161.6360  204.0480  147.6480 C   0  0  0  0  0  2  0  0  0  0  0  0
  160.3350  204.8500  151.0510 O   0  0  0  0  0  1  0  0  0  0  0  0
  1  6  1  0  0  0  0
  2  5  1  0  0  0  0
  3 12  2  0  0  0  0
  4  5  1  1  0  0  0
  4  6  1  0  0  0  0
  7  8  2  0  0  0  0
  7 14  1  0  0  0  0
  8  4  1  0  0  0  0
  9 13  1  0  0  0  0
  9 11  1  0  0  0  0
 10 15  1  6  0  0  0
 10  2  1  0  0  0  0
 11 15  1  0  0  0  0
 12 10  1  0  0  0  0
 12  8  1  0  0  0  0
 13  3  1  0  0  0  0
 14  1  1  0  0  0  0
 17 16  1  0  0  0  0
 17  3  1  1  0  0  0
 18 17  1  0  0  0  0
 18 16  1  1  0  0  0
 20 19  1  6  0  0  0
 20 21  1  0  0  0  0
 21 24  1  0  0  0  0
 21 18  1  6  0  0  0
 22 24  1  0  0  0  0
 23 25  1  0  0  0  0
 23 20  1  0  0  0  0
 24 26  1  1  0  0  0
 25 22  1  0  0  0  0
M  END
>  <MODEL>
8

>  <REMARK>
 VINA RESULT:      -5.7      2.619      4.447
  Name = 
  2 active torsions:
  status: ('A' for Active; 'I' for Inactive)
    1  A    between atoms: C_5  and  C_18
    2  A    between atoms: C_6  and  C_23
                            x       y       z     vdW  Elec       q    Type
                         _______ _______ _______ _____ _____    ______ ____

>  <TORSDO>
F 2

$$$$
=
 OpenBabel11072414243D

 26 30  0  0  1  0  0  0  0  0999 V2000
  160.4230  206.5480  145.9910 C   0  0  0  0  0  2  0  0  0  0  0  0
  161.2050  202.2630  147.0900 S   0  0  0  0  0  0  0  0  0  0  0  0
  161.5350  204.3400  150.6100 C   0  0  0  0  0  0  0  0  0  0  0  0
  162.1230  204.8460  146.9480 C   0  0  1  0  0  3  0  0  0  0  0  0
  162.5810  203.4060  146.7620 C   0  0  0  0  0  2  0  0  0  0  0  0
  161.3180  205.3230  145.7280 C   0  0  0  0  0  2  0  0  0  0  0  0
  160.6880  206.1600  148.3910 N   0  0  0  0  0  0  0  0  0  0  0  0
  161.3640  205.0610  148.2380 C   0  0  0  0  0  0  0  0  0  0  0  0
  160.2260  202.6690  151.6960 O   0  0  0  0  0  0  0  0  0  0  0  0
  161.2200  202.5580  148.8960 C   0  0  1  0  0  3  0  0  0  0  0  0
  160.3220  201.5660  150.8400 C   0  0  0  0  0  2  0  0  0  0  0  0
  161.3570  204.0210  149.3010 C   0  0  0  0  0  0  0  0  0  0  0  0
  161.4890  203.2720  151.6690 C   0  0  0  0  0  2  0  0  0  0  0  0
  160.6830  207.1890  147.3540 C   0  0  0  0  0  2  0  0  0  0  0  0
  160.0150  201.9730  149.4750 N   0  0  0  0  0  2  0  0  0  0  0  0
  160.5810  206.5010  150.9320 O   0  0  0  0  0  0  0  0  0  0  0  0
  161.7640  205.7490  151.0830 C   0  0  1  0  0  3  0  0  0  0  0  0
  160.8820  206.0720  152.2370 C   0  0  1  0  0  3  0  0  0  0  0  0
  159.7050  207.0970  155.0760 C   0  0  0  0  0  1  0  0  0  0  0  0
  161.1590  207.1780  154.6260 C   0  0  1  0  0  3  0  0  0  0  0  0
  161.3080  207.2840  153.0910 C   0  0  2  0  0  3  0  0  0  0  0  0
  161.4370  209.7810  153.2470 C   0  0  0  0  0  2  0  0  0  0  0  0
  161.8380  208.3770  155.2910 C   0  0  0  0  0  2  0  0  0  0  0  0
  160.7460  208.6080  152.5550 C   0  0  1  0  0  3  0  0  0  0  0  0
  161.2710  209.6960  154.7620 C   0  0  0  0  0  2  0  0  0  0  0  0
  160.9600  208.7070  151.1790 O   0  0  0  0  0  1  0  0  0  0  0  0
  1 14  1  0  0  0  0
  3 13  1  0  0  0  0
  4  6  1  6  0  0  0
  4  8  1  0  0  0  0
  5  4  1  0  0  0  0
  5  2  1  0  0  0  0
  6  1  1  0  0  0  0
  8  7  2  0  0  0  0
  8 12  1  0  0  0  0
 10  2  1  6  0  0  0
 10 12  1  0  0  0  0
 10 15  1  0  0  0  0
 11  9  1  0  0  0  0
 12  3  2  0  0  0  0
 13  9  1  0  0  0  0
 14  7  1  0  0  0  0
 15 11  1  0  0  0  0
 16 17  1  0  0  0  0
 17  3  1  6  0  0  0
 17 18  1  0  0  0  0
 18 16  1  6  0  0  0
 20 19  1  6  0  0  0
 20 23  1  0  0  0  0
 21 18  1  6  0  0  0
 21 20  1  0  0  0  0
 22 25  1  0  0  0  0
 24 26  1  6  0  0  0
 24 21  1  0  0  0  0
 24 22  1  0  0  0  0
 25 23  1  0  0  0  0
M  END
>  <MODEL>
9

>  <REMARK>
 VINA RESULT:      -5.2      4.644      8.307
  Name = 
  2 active torsions:
  status: ('A' for Active; 'I' for Inactive)
    1  A    between atoms: C_5  and  C_18
    2  A    between atoms: C_6  and  C_23
                            x       y       z     vdW  Elec       q    Type
                         _______ _______ _______ _____ _____    ______ ____

>  <TORSDO>
F 2

$$$$
