=
 OpenBabel11072415073D

 58 61  0  0  1  0  0  0  0  0999 V2000
  159.1220  211.3680  154.0400 C   0  0  2  0  0  3  0  0  0  0  0  0
  159.2040  211.2170  155.5630 C   0  0  0  0  0  2  0  0  0  0  0  0
  160.5820  211.4590  156.1030 C   0  0  0  0  0  0  0  0  0  0  0  0
  160.9460  212.6320  156.3900 O   0  0  0  0  0  0  0  0  0  0  0  0
  161.4840  210.3640  156.2620 N   0  0  0  0  0  2  0  0  0  0  0  0
  161.0620  209.1890  156.2950 O   0  0  0  0  0  1  0  0  0  0  0  0
  157.8220  212.0550  153.6470 C   0  0  0  0  0  2  0  0  0  0  0  0
  158.0460  213.4810  153.1650 C   0  0  0  0  0  2  0  0  0  0  0  0
  157.4140  213.6820  151.7930 C   0  0  1  0  0  3  0  0  0  0  0  0
  156.0980  214.4100  151.9630 C   0  0  0  0  0  1  0  0  0  0  0  0
  158.2710  214.4530  150.9510 O   0  0  0  0  0  0  0  0  0  0  0  0
  158.5360  214.1270  149.6160 C   0  0  0  0  0  0  0  0  0  0  0  0
  160.1010  214.0810  147.7610 C   0  0  0  0  0  3  0  0  0  0  0  0
  157.5790  213.4860  148.8110 C   0  0  0  0  0  3  0  0  0  0  0  0
  159.7880  214.4390  149.0770 C   0  0  0  0  0  3  0  0  0  0  0  0
  159.1660  213.4060  146.9720 C   0  0  0  0  0  0  0  0  0  0  0  0
  157.8940  213.1240  147.5000 C   0  0  0  0  0  3  0  0  0  0  0  0
  159.5250  213.0100  145.6790 O   0  0  0  0  0  0  0  0  0  0  0  0
  159.9640  213.9310  144.6870 C   0  0  2  0  0  3  0  0  0  0  0  0
  160.4950  213.6780  142.4320 N   0  0  1  0  0  0  0  0  0  0  0  0
  159.1380  213.8230  142.4690 O   0  0  0  0  0  0  0  0  0  0  0  0
  158.8230  214.2750  143.7660 C   0  0  0  0  0  2  0  0  0  0  0  0
  160.9310  213.2740  143.7590 C   0  0  0  0  0  2  0  0  0  0  0  0
  162.3260  212.5570  141.0060 C   0  0  2  0  0  3  0  0  0  0  0  0
  160.3930  211.7020  139.1320 C   0  0  0  0  0  2  0  0  0  0  0  0
  161.3160  210.7760  139.6540 O   0  0  0  0  0  0  0  0  0  0  0  0
  159.8550  212.6200  140.2410 C   0  0  0  0  0  2  0  0  0  0  0  0
  162.9040  213.8700  140.4950 C   0  0  0  0  0  1  0  0  0  0  0  0
  162.5050  211.4930  139.9040 C   0  0  0  0  0  2  0  0  0  0  0  0
  160.8370  212.6680  141.4170 C   0  0  2  0  0  3  0  0  0  0  0  0
  159.3020  210.0300  153.3200 C   0  0  0  0  0  2  0  0  0  0  0  0
  160.3490  210.1480  152.2200 C   0  0  1  0  0  3  0  0  0  0  0  0
  160.5040  211.5950  151.7750 C   0  0  0  0  0  2  0  0  0  0  0  0
  161.0040  211.6430  150.4080 N   0  0  0  0  0  1  0  0  0  0  0  0
  163.0040  210.4540  152.5600 S   0  0  0  0  0  0  0  0  0  0  0  0
  161.6570  209.5380  152.6430 C   0  0  0  0  0  0  0  0  0  0  0  0
  161.7800  208.1690  153.0420 N   0  0  0  0  0  2  0  0  0  0  0  0
  160.6630  207.2390  153.1030 C   0  0  0  0  0  2  0  0  0  0  0  0
  161.1100  205.8600  152.6600 C   0  0  2  0  0  3  0  0  0  0  0  0
  162.6070  205.7170  152.8790 C   0  0  0  0  0  1  0  0  0  0  0  0
  160.7730  205.6870  151.1860 C   0  0  0  0  0  2  0  0  0  0  0  0
  161.5130  204.5040  150.5680 C   0  0  0  0  0  2  0  0  0  0  0  0
  161.2110  202.2600  151.5670 C   0  0  0  0  0  1  0  0  0  0  0  0
  160.6630  203.2360  150.5470 C   0  0  2  0  0  3  0  0  0  0  0  0
  160.6280  202.5830  149.1830 C   0  0  0  0  0  0  0  0  0  0  0  0
  159.7720  201.7480  148.9290 O   0  0  0  0  0  0  0  0  0  0  0  0
  161.5750  203.0110  148.0850 C   0  0  1  0  0  3  0  0  0  0  0  0
  161.7100  201.9140  147.0220 C   0  0  2  0  0  3  0  0  0  0  0  0
  160.7940  202.1710  145.8430 C   0  0  0  0  0  2  0  0  0  0  0  0
  160.9660  199.8900  146.4610 C   0  0  0  0  0  2  0  0  0  0  0  0
  160.2990  200.8070  145.4630 C   0  0  0  0  0  2  0  0  0  0  0  0
  161.3750  200.6590  147.5590 O   0  0  0  0  0  0  0  0  0  0  0  0
  161.1380  204.3200  147.4310 C   0  0  0  0  0  2  0  0  0  0  0  0
  162.3290  205.1280  146.9500 C   0  0  0  0  0  2  0  0  0  0  0  0
  161.9050  206.5530  146.6290 C   0  0  0  0  0  2  0  0  0  0  0  0
  160.7120  206.9860  147.4660 C   0  0  0  0  0  2  0  0  0  0  0  0
  162.4800  208.2050  148.6910 C   0  0  0  0  0  1  0  0  0  0  0  0
  161.1420  207.5100  148.8220 C   0  0  0  0  0  2  0  0  0  0  0  0
  1 31  1  6  0  0  0
  1  2  1  0  0  0  0
  2  3  1  0  0  0  0
  3  5  1  0  0  0  0
  3  4  2  0  0  0  0
  5  6  1  0  0  0  0
  7  1  1  0  0  0  0
  8  7  1  0  0  0  0
  9 10  1  1  0  0  0
  9  8  1  0  0  0  0
 11  9  1  0  0  0  0
 12 11  1  0  0  0  0
 13 15  2  0  0  0  0
 14 12  2  0  0  0  0
 15 12  1  0  0  0  0
 16 17  2  0  0  0  0
 16 13  1  0  0  0  0
 17 14  1  0  0  0  0
 18 16  1  0  0  0  0
 19 18  1  1  0  0  0
 20 21  1  0  0  0  0
 20 23  1  1  0  0  0
 21 22  1  0  0  0  0
 22 19  1  0  0  0  0
 23 19  1  0  0  0  0
 24 28  1  6  0  0  0
 24 30  1  0  0  0  0
 25 26  1  0  0  0  0
 25 27  1  0  0  0  0
 26 29  1  0  0  0  0
 29 24  1  0  0  0  0
 30 27  1  6  0  0  0
 30 20  1  0  0  0  0
 32 33  1  1  0  0  0
 32 36  1  0  0  0  0
 32 31  1  0  0  0  0
 34 33  1  0  0  0  0
 35 36  2  0  0  0  0
 36 37  1  0  0  0  0
 37 38  1  0  0  0  0
 39 40  1  6  0  0  0
 39 38  1  0  0  0  0
 41 39  1  0  0  0  0
 42 41  1  0  0  0  0
 44 42  1  0  0  0  0
 44 43  1  1  0  0  0
 45 44  1  0  0  0  0
 46 45  2  0  0  0  0
 47 53  1  6  0  0  0
 47 45  1  0  0  0  0
 48 52  1  0  0  0  0
 48 47  1  1  0  0  0
 49 48  1  0  0  0  0
 50 52  1  0  0  0  0
 51 49  1  0  0  0  0
 51 50  1  0  0  0  0
 54 53  1  0  0  0  0
 55 54  1  0  0  0  0
 55 56  1  0  0  0  0
 56 58  1  0  0  0  0
 57 58  1  0  0  0  0
M  END
>  <MODEL>
1

>  <REMARK>
 VINA RESULT:      -4.6      0.000      0.000
  Name = 
  29 active torsions:
  status: ('A' for Active; 'I' for Inactive)
    1  A    between atoms: C_2  and  C_29
    2  A    between atoms: C_2  and  C_31
    3  A    between atoms: O_3  and  C_19
    4  A    between atoms: O_3  and  C_23
    5  A    between atoms: N_4  and  C_7
    6  A    between atoms: C_5  and  C_26
    7  A    between atoms: C_7  and  C_41
    8  A    between atoms: C_9  and  O_40
    9  A    between atoms: C_10  and  C_15
   10  A    between atoms: C_10  and  O_40
   11  A    between atoms: C_12  and  C_20
   12  A    between atoms: C_12  and  C_49
   13  A    between atoms: C_15  and  C_27
   14  A    between atoms: C_20  and  C_26
   15  A    between atoms: C_21  and  C_30
   16  A    between atoms: C_21  and  C_31
   17  A    between atoms: C_24  and  C_28
   18  A    between atoms: C_24  and  C_57
   19  A    between atoms: C_26  and  C_30
   20  A    between atoms: C_27  and  C_28
   21  A    between atoms: C_28  and  C_41
   22  A    between atoms: C_29  and  C_43
   23  A    between atoms: N_34  and  C_53
   24  A    between atoms: C_38  and  C_57
   25  A    between atoms: C_39  and  N_55
   26  A    between atoms: C_39  and  C_57
   27  A    between atoms: C_43  and  N_55
   28  A    between atoms: C_47  and  C_49
   29  A    between atoms: C_47  and  C_58
                            x       y       z     vdW  Elec       q    Type
                         _______ _______ _______ _____ _____    ______ ____

>  <TORSDO>
F 29

$$$$
=
 OpenBabel11072415073D

 58 61  0  0  1  0  0  0  0  0999 V2000
  159.3510  211.8660  153.1030 C   0  0  2  0  0  3  0  0  0  0  0  0
  158.0710  211.4030  153.8090 C   0  0  0  0  0  2  0  0  0  0  0  0
  157.8180  212.1270  155.0980 C   0  0  0  0  0  0  0  0  0  0  0  0
  158.7730  212.6860  155.7010 O   0  0  0  0  0  0  0  0  0  0  0  0
  156.5010  212.1530  155.6500 N   0  0  0  0  0  2  0  0  0  0  0  0
  156.3290  212.2000  156.8850 O   0  0  0  0  0  1  0  0  0  0  0  0
  160.5320  211.8070  154.0610 C   0  0  0  0  0  2  0  0  0  0  0  0
  161.5570  210.7610  153.6490 C   0  0  0  0  0  2  0  0  0  0  0  0
  161.8840  209.8470  154.8240 C   0  0  1  0  0  3  0  0  0  0  0  0
  161.5790  210.5810  156.1130 C   0  0  0  0  0  1  0  0  0  0  0  0
  161.1020  208.6540  154.7680 O   0  0  0  0  0  0  0  0  0  0  0  0
  161.3390  207.6200  153.8550 C   0  0  0  0  0  0  0  0  0  0  0  0
  160.7920  205.3980  153.0470 C   0  0  0  0  0  3  0  0  0  0  0  0
  162.2800  207.7540  152.8190 C   0  0  0  0  0  3  0  0  0  0  0  0
  160.6130  206.4300  153.9730 C   0  0  0  0  0  3  0  0  0  0  0  0
  161.6960  205.5450  151.9910 C   0  0  0  0  0  0  0  0  0  0  0  0
  162.4530  206.7250  151.8920 C   0  0  0  0  0  3  0  0  0  0  0  0
  161.8130  204.5190  151.0470 O   0  0  0  0  0  0  0  0  0  0  0  0
  160.7470  204.1470  150.1800 C   0  0  2  0  0  3  0  0  0  0  0  0
  160.5480  204.1090  147.8590 N   0  0  1  0  0  0  0  0  0  0  0  0
  161.1600  202.9340  148.1870 O   0  0  0  0  0  0  0  0  0  0  0  0
  161.0220  202.7920  149.5830 C   0  0  0  0  0  2  0  0  0  0  0  0
  160.7270  205.0250  148.9750 C   0  0  0  0  0  2  0  0  0  0  0  0
  160.3950  204.3760  145.3000 C   0  0  2  0  0  3  0  0  0  0  0  0
  163.1870  204.7720  145.1390 C   0  0  0  0  0  2  0  0  0  0  0  0
  162.3160  205.6830  144.5110 O   0  0  0  0  0  0  0  0  0  0  0  0
  162.6690  204.3960  146.5360 C   0  0  0  0  0  2  0  0  0  0  0  0
  160.1300  202.9000  145.0390 C   0  0  0  0  0  1  0  0  0  0  0  0
  161.1880  204.9410  144.1030 C   0  0  0  0  0  2  0  0  0  0  0  0
  161.1560  204.6320  146.6250 C   0  0  2  0  0  3  0  0  0  0  0  0
  159.1910  213.2530  152.4770 C   0  0  0  0  0  2  0  0  0  0  0  0
  158.3200  213.1800  151.2280 C   0  0  1  0  0  3  0  0  0  0  0  0
  157.1990  214.2070  151.2920 C   0  0  0  0  0  2  0  0  0  0  0  0
  156.5760  214.1800  152.6090 N   0  0  0  0  0  1  0  0  0  0  0  0
  160.6870  212.7790  150.0050 S   0  0  0  0  0  0  0  0  0  0  0  0
  159.1460  213.3150  149.9790 C   0  0  0  0  0  0  0  0  0  0  0  0
  158.6630  213.9590  148.7960 N   0  0  0  0  0  2  0  0  0  0  0  0
  157.6380  213.3980  147.9280 C   0  0  0  0  0  2  0  0  0  0  0  0
  158.0080  213.6210  146.4760 C   0  0  2  0  0  3  0  0  0  0  0  0
  156.8250  213.2680  145.5900 C   0  0  0  0  0  1  0  0  0  0  0  0
  159.2040  212.7410  146.1360 C   0  0  0  0  0  2  0  0  0  0  0  0
  159.1940  212.3100  144.6720 C   0  0  0  0  0  2  0  0  0  0  0  0
  158.7340  214.2780  143.2420 C   0  0  0  0  0  1  0  0  0  0  0  0
  159.8230  213.3580  143.7560 C   0  0  2  0  0  3  0  0  0  0  0  0
  160.5620  212.7420  142.5900 C   0  0  0  0  0  0  0  0  0  0  0  0
  160.9930  211.6010  142.6760 O   0  0  0  0  0  0  0  0  0  0  0  0
  160.6970  213.4730  141.2730 C   0  0  1  0  0  3  0  0  0  0  0  0
  162.0520  213.1750  140.6190 C   0  0  2  0  0  3  0  0  0  0  0  0
  162.7700  214.4510  140.2300 C   0  0  0  0  0  2  0  0  0  0  0  0
  163.0070  212.6860  138.6670 C   0  0  0  0  0  2  0  0  0  0  0  0
  163.4180  214.1170  138.9180 C   0  0  0  0  0  2  0  0  0  0  0  0
  161.8830  212.4060  139.4540 O   0  0  0  0  0  0  0  0  0  0  0  0
  159.5650  213.1280  140.3080 C   0  0  0  0  0  2  0  0  0  0  0  0
  158.3970  214.0860  140.4540 C   0  0  0  0  0  2  0  0  0  0  0  0
  157.5450  214.0750  139.1940 C   0  0  0  0  0  2  0  0  0  0  0  0
  156.2020  213.4030  139.4300 C   0  0  0  0  0  2  0  0  0  0  0  0
  154.3160  213.9790  137.9390 C   0  0  0  0  0  1  0  0  0  0  0  0
  155.0500  214.3630  139.2060 C   0  0  0  0  0  2  0  0  0  0  0  0
  1 31  1  1  0  0  0
  1  2  1  0  0  0  0
  1  7  1  0  0  0  0
  2  3  1  0  0  0  0
  3  5  1  0  0  0  0
  3  4  2  0  0  0  0
  5  6  1  0  0  0  0
  8  7  1  0  0  0  0
  8  9  1  0  0  0  0
  9 10  1  1  0  0  0
 11  9  1  0  0  0  0
 12 15  1  0  0  0  0
 12 11  1  0  0  0  0
 13 15  2  0  0  0  0
 14 12  2  0  0  0  0
 16 13  1  0  0  0  0
 17 16  2  0  0  0  0
 17 14  1  0  0  0  0
 18 16  1  0  0  0  0
 19 18  1  1  0  0  0
 20 21  1  0  0  0  0
 20 23  1  1  0  0  0
 21 22  1  0  0  0  0
 22 19  1  0  0  0  0
 23 19  1  0  0  0  0
 24 28  1  6  0  0  0
 24 30  1  0  0  0  0
 25 27  1  0  0  0  0
 26 25  1  0  0  0  0
 29 26  1  0  0  0  0
 29 24  1  0  0  0  0
 30 27  1  6  0  0  0
 30 20  1  0  0  0  0
 32 33  1  1  0  0  0
 32 31  1  0  0  0  0
 33 34  1  0  0  0  0
 36 35  2  0  0  0  0
 36 32  1  0  0  0  0
 37 36  1  0  0  0  0
 38 37  1  0  0  0  0
 39 40  1  6  0  0  0
 39 38  1  0  0  0  0
 41 39  1  0  0  0  0
 42 41  1  0  0  0  0
 44 43  1  6  0  0  0
 44 42  1  0  0  0  0
 45 46  2  0  0  0  0
 45 44  1  0  0  0  0
 47 53  1  6  0  0  0
 47 45  1  0  0  0  0
 48 47  1  6  0  0  0
 49 48  1  0  0  0  0
 50 51  1  0  0  0  0
 50 52  1  0  0  0  0
 51 49  1  0  0  0  0
 52 48  1  0  0  0  0
 53 54  1  0  0  0  0
 55 56  1  0  0  0  0
 55 54  1  0  0  0  0
 57 58  1  0  0  0  0
 58 56  1  0  0  0  0
M  END
>  <MODEL>
2

>  <REMARK>
 VINA RESULT:      -3.5      2.630      9.852
  Name = 
  29 active torsions:
  status: ('A' for Active; 'I' for Inactive)
    1  A    between atoms: C_2  and  C_29
    2  A    between atoms: C_2  and  C_31
    3  A    between atoms: O_3  and  C_19
    4  A    between atoms: O_3  and  C_23
    5  A    between atoms: N_4  and  C_7
    6  A    between atoms: C_5  and  C_26
    7  A    between atoms: C_7  and  C_41
    8  A    between atoms: C_9  and  O_40
    9  A    between atoms: C_10  and  C_15
   10  A    between atoms: C_10  and  O_40
   11  A    between atoms: C_12  and  C_20
   12  A    between atoms: C_12  and  C_49
   13  A    between atoms: C_15  and  C_27
   14  A    between atoms: C_20  and  C_26
   15  A    between atoms: C_21  and  C_30
   16  A    between atoms: C_21  and  C_31
   17  A    between atoms: C_24  and  C_28
   18  A    between atoms: C_24  and  C_57
   19  A    between atoms: C_26  and  C_30
   20  A    between atoms: C_27  and  C_28
   21  A    between atoms: C_28  and  C_41
   22  A    between atoms: C_29  and  C_43
   23  A    between atoms: N_34  and  C_53
   24  A    between atoms: C_38  and  C_57
   25  A    between atoms: C_39  and  N_55
   26  A    between atoms: C_39  and  C_57
   27  A    between atoms: C_43  and  N_55
   28  A    between atoms: C_47  and  C_49
   29  A    between atoms: C_47  and  C_58
                            x       y       z     vdW  Elec       q    Type
                         _______ _______ _______ _____ _____    ______ ____

>  <TORSDO>
F 29

$$$$
=
 OpenBabel11072415073D

 58 61  0  0  1  0  0  0  0  0999 V2000
  161.1360  203.6820  146.6080 C   0  0  2  0  0  3  0  0  0  0  0  0
  161.4280  202.4630  145.7250 C   0  0  0  0  0  2  0  0  0  0  0  0
  160.2020  201.9150  145.0580 C   0  0  0  0  0  0  0  0  0  0  0  0
  159.3550  202.7030  144.5570 O   0  0  0  0  0  0  0  0  0  0  0  0
  159.9840  200.5040  145.0220 N   0  0  0  0  0  2  0  0  0  0  0  0
  160.7890  199.7210  145.5670 O   0  0  0  0  0  1  0  0  0  0  0  0
  161.6200  204.9540  145.9270 C   0  0  0  0  0  2  0  0  0  0  0  0
  162.1670  204.6890  144.5320 C   0  0  0  0  0  2  0  0  0  0  0  0
  161.4420  205.5530  143.5060 C   0  0  1  0  0  3  0  0  0  0  0  0
  160.5230  206.5100  144.2350 C   0  0  0  0  0  1  0  0  0  0  0  0
  162.3760  206.3010  142.7280 O   0  0  0  0  0  0  0  0  0  0  0  0
  162.1090  206.7560  141.4310 C   0  0  0  0  0  0  0  0  0  0  0  0
  162.2980  206.4220  139.0350 C   0  0  0  0  0  3  0  0  0  0  0  0
  161.3620  207.9240  141.2000 C   0  0  0  0  0  3  0  0  0  0  0  0
  162.5900  206.0220  140.3420 C   0  0  0  0  0  3  0  0  0  0  0  0
  161.5200  207.5600  138.8020 C   0  0  0  0  0  0  0  0  0  0  0  0
  161.0660  208.3200  139.8950 C   0  0  0  0  0  3  0  0  0  0  0  0
  161.1950  207.9060  137.4860 O   0  0  0  0  0  0  0  0  0  0  0  0
  161.2320  209.2470  137.0120 C   0  0  2  0  0  3  0  0  0  0  0  0
  160.6530  211.2790  137.9940 N   0  0  1  0  0  0  0  0  0  0  0  0
  161.9240  211.0220  138.4200 O   0  0  0  0  0  0  0  0  0  0  0  0
  162.4070  209.9720  137.6140 C   0  0  0  0  0  2  0  0  0  0  0  0
  160.0750  210.0210  137.5490 C   0  0  0  0  0  2  0  0  0  0  0  0
  158.3990  212.1950  138.8440 C   0  0  2  0  0  3  0  0  0  0  0  0
  159.7160  213.6580  140.8700 C   0  0  0  0  0  2  0  0  0  0  0  0
  158.6260  212.8310  141.2030 O   0  0  0  0  0  0  0  0  0  0  0  0
  160.6490  212.9540  139.8720 C   0  0  0  0  0  2  0  0  0  0  0  0
  158.1960  213.1350  137.6640 C   0  0  0  0  0  1  0  0  0  0  0  0
  157.7600  212.8440  140.0900 C   0  0  0  0  0  2  0  0  0  0  0  0
  159.8890  211.8640  139.1080 C   0  0  2  0  0  3  0  0  0  0  0  0
  161.7220  203.5260  148.0130 C   0  0  0  0  0  2  0  0  0  0  0  0
  160.6210  203.2370  149.0250 C   0  0  1  0  0  3  0  0  0  0  0  0
  160.0280  201.8540  148.7970 C   0  0  0  0  0  2  0  0  0  0  0  0
  161.0930  200.8650  148.7100 N   0  0  0  0  0  1  0  0  0  0  0  0
  161.3110  202.0990  151.3680 S   0  0  0  0  0  0  0  0  0  0  0  0
  161.1130  203.4220  150.4340 C   0  0  0  0  0  0  0  0  0  0  0  0
  161.3420  204.7110  151.0120 N   0  0  0  0  0  2  0  0  0  0  0  0
  162.3110  204.9660  152.0670 C   0  0  0  0  0  2  0  0  0  0  0  0
  162.2030  206.4030  152.5360 C   0  0  2  0  0  3  0  0  0  0  0  0
  161.1190  206.5110  153.5960 C   0  0  0  0  0  1  0  0  0  0  0  0
  161.8630  207.2830  151.3410 C   0  0  0  0  0  2  0  0  0  0  0  0
  160.7010  208.2250  151.6420 C   0  0  0  0  0  2  0  0  0  0  0  0
  162.1890  209.7250  150.3520 C   0  0  0  0  0  1  0  0  0  0  0  0
  161.0480  209.6830  151.3480 C   0  0  2  0  0  3  0  0  0  0  0  0
  161.4290  210.4520  152.5940 C   0  0  0  0  0  0  0  0  0  0  0  0
  162.5600  210.3540  153.0480 O   0  0  0  0  0  0  0  0  0  0  0  0
  160.4670  211.4230  153.2400 C   0  0  1  0  0  3  0  0  0  0  0  0
  159.4730  211.9740  152.2110 C   0  0  2  0  0  3  0  0  0  0  0  0
  160.0600  213.1460  151.4490 C   0  0  0  0  0  2  0  0  0  0  0  0
  157.7620  213.3830  151.9790 C   0  0  0  0  0  2  0  0  0  0  0  0
  158.9050  214.0890  151.2880 C   0  0  0  0  0  2  0  0  0  0  0  0
  158.3000  212.4200  152.8440 O   0  0  0  0  0  0  0  0  0  0  0  0
  159.7130  210.7900  154.4070 C   0  0  0  0  0  2  0  0  0  0  0  0
  159.8480  211.6160  155.6730 C   0  0  0  0  0  2  0  0  0  0  0  0
  159.0480  210.9870  156.8030 C   0  0  0  0  0  2  0  0  0  0  0  0
  157.9090  211.8860  157.2540 C   0  0  0  0  0  2  0  0  0  0  0  0
  155.6120  211.5510  156.4020 C   0  0  0  0  0  1  0  0  0  0  0  0
  156.9540  212.1910  156.1160 C   0  0  0  0  0  2  0  0  0  0  0  0
  1  2  1  6  0  0  0
  1 31  1  0  0  0  0
  3  2  1  0  0  0  0
  4  3  2  0  0  0  0
  5  3  1  0  0  0  0
  5  6  1  0  0  0  0
  7  1  1  0  0  0  0
  8  7  1  0  0  0  0
  9 10  1  1  0  0  0
  9  8  1  0  0  0  0
 11  9  1  0  0  0  0
 12 11  1  0  0  0  0
 13 15  1  0  0  0  0
 14 12  1  0  0  0  0
 15 12  2  0  0  0  0
 16 13  2  0  0  0  0
 16 17  1  0  0  0  0
 17 14  2  0  0  0  0
 18 16  1  0  0  0  0
 19 18  1  1  0  0  0
 19 23  1  0  0  0  0
 19 22  1  0  0  0  0
 20 23  1  1  0  0  0
 20 21  1  0  0  0  0
 20 30  1  0  0  0  0
 22 21  1  0  0  0  0
 24 28  1  6  0  0  0
 24 30  1  0  0  0  0
 24 29  1  0  0  0  0
 25 26  1  0  0  0  0
 27 25  1  0  0  0  0
 29 26  1  0  0  0  0
 30 27  1  6  0  0  0
 32 31  1  6  0  0  0
 32 36  1  0  0  0  0
 33 32  1  0  0  0  0
 34 33  1  0  0  0  0
 36 37  1  0  0  0  0
 36 35  2  0  0  0  0
 37 38  1  0  0  0  0
 38 39  1  0  0  0  0
 39 40  1  1  0  0  0
 41 42  1  0  0  0  0
 41 39  1  0  0  0  0
 44 43  1  6  0  0  0
 44 42  1  0  0  0  0
 44 45  1  0  0  0  0
 45 46  2  0  0  0  0
 45 47  1  0  0  0  0
 47 53  1  1  0  0  0
 48 52  1  0  0  0  0
 48 47  1  1  0  0  0
 49 48  1  0  0  0  0
 50 52  1  0  0  0  0
 51 49  1  0  0  0  0
 51 50  1  0  0  0  0
 53 54  1  0  0  0  0
 54 55  1  0  0  0  0
 55 56  1  0  0  0  0
 58 57  1  0  0  0  0
 58 56  1  0  0  0  0
M  END
>  <MODEL>
3

>  <REMARK>
 VINA RESULT:      -3.4      3.383      9.813
  Name = 
  29 active torsions:
  status: ('A' for Active; 'I' for Inactive)
    1  A    between atoms: C_2  and  C_29
    2  A    between atoms: C_2  and  C_31
    3  A    between atoms: O_3  and  C_19
    4  A    between atoms: O_3  and  C_23
    5  A    between atoms: N_4  and  C_7
    6  A    between atoms: C_5  and  C_26
    7  A    between atoms: C_7  and  C_41
    8  A    between atoms: C_9  and  O_40
    9  A    between atoms: C_10  and  C_15
   10  A    between atoms: C_10  and  O_40
   11  A    between atoms: C_12  and  C_20
   12  A    between atoms: C_12  and  C_49
   13  A    between atoms: C_15  and  C_27
   14  A    between atoms: C_20  and  C_26
   15  A    between atoms: C_21  and  C_30
   16  A    between atoms: C_21  and  C_31
   17  A    between atoms: C_24  and  C_28
   18  A    between atoms: C_24  and  C_57
   19  A    between atoms: C_26  and  C_30
   20  A    between atoms: C_27  and  C_28
   21  A    between atoms: C_28  and  C_41
   22  A    between atoms: C_29  and  C_43
   23  A    between atoms: N_34  and  C_53
   24  A    between atoms: C_38  and  C_57
   25  A    between atoms: C_39  and  N_55
   26  A    between atoms: C_39  and  C_57
   27  A    between atoms: C_43  and  N_55
   28  A    between atoms: C_47  and  C_49
   29  A    between atoms: C_47  and  C_58
                            x       y       z     vdW  Elec       q    Type
                         _______ _______ _______ _____ _____    ______ ____

>  <TORSDO>
F 29

$$$$
=
 OpenBabel11072415073D

 58 61  0  0  1  0  0  0  0  0999 V2000
  161.2180  203.6310  146.8270 C   0  0  2  0  0  3  0  0  0  0  0  0
  161.8080  202.4160  146.1010 C   0  0  0  0  0  2  0  0  0  0  0  0
  160.7740  201.3950  145.7320 C   0  0  0  0  0  0  0  0  0  0  0  0
  159.7920  201.7270  145.0140 O   0  0  0  0  0  0  0  0  0  0  0  0
  160.8900  200.0580  146.2210 N   0  0  0  0  0  2  0  0  0  0  0  0
  160.9790  199.0960  145.4320 O   0  0  0  0  0  1  0  0  0  0  0  0
  161.4620  204.8980  146.0190 C   0  0  0  0  0  2  0  0  0  0  0  0
  162.0570  204.6020  144.6500 C   0  0  0  0  0  2  0  0  0  0  0  0
  161.4050  205.4810  143.5880 C   0  0  1  0  0  3  0  0  0  0  0  0
  160.5250  206.5040  144.2750 C   0  0  0  0  0  1  0  0  0  0  0  0
  162.3970  206.1580  142.8170 O   0  0  0  0  0  0  0  0  0  0  0  0
  162.1760  206.6230  141.5150 C   0  0  0  0  0  0  0  0  0  0  0  0
  162.3380  206.2490  139.1220 C   0  0  0  0  0  3  0  0  0  0  0  0
  161.5400  207.8520  141.2700 C   0  0  0  0  0  3  0  0  0  0  0  0
  162.5900  205.8370  140.4350 C   0  0  0  0  0  3  0  0  0  0  0  0
  161.6680  207.4510  138.8760 C   0  0  0  0  0  0  0  0  0  0  0  0
  161.2840  208.2610  139.9600 C   0  0  0  0  0  3  0  0  0  0  0  0
  161.3800  207.8120  137.5560 O   0  0  0  0  0  0  0  0  0  0  0  0
  161.4390  209.1580  137.0960 C   0  0  2  0  0  3  0  0  0  0  0  0
  160.7380  211.1730  138.0340 N   0  0  1  0  0  0  0  0  0  0  0  0
  161.9690  210.9320  138.5740 O   0  0  0  0  0  0  0  0  0  0  0  0
  162.5410  209.8960  137.8090 C   0  0  0  0  0  2  0  0  0  0  0  0
  160.2250  209.9090  137.5300 C   0  0  0  0  0  2  0  0  0  0  0  0
  158.3760  211.9510  138.7100 C   0  0  2  0  0  3  0  0  0  0  0  0
  159.4560  213.5680  140.7590 C   0  0  0  0  0  2  0  0  0  0  0  0
  158.4070  212.6760  141.0540 O   0  0  0  0  0  0  0  0  0  0  0  0
  160.4980  212.9020  139.8460 C   0  0  0  0  0  2  0  0  0  0  0  0
  158.1850  212.8360  137.4860 C   0  0  0  0  0  1  0  0  0  0  0  0
  157.6160  212.5910  139.8900 C   0  0  0  0  0  2  0  0  0  0  0  0
  159.8660  211.7360  139.0770 C   0  0  2  0  0  3  0  0  0  0  0  0
  161.7440  203.7550  148.2580 C   0  0  0  0  0  2  0  0  0  0  0  0
  160.7280  203.2090  149.2530 C   0  0  1  0  0  3  0  0  0  0  0  0
  160.5580  201.7060  149.0820 C   0  0  0  0  0  2  0  0  0  0  0  0
  159.1450  201.3780  148.9510 N   0  0  0  0  0  1  0  0  0  0  0  0
  161.4620  202.3950  151.7150 S   0  0  0  0  0  0  0  0  0  0  0  0
  161.0880  203.5860  150.6640 C   0  0  0  0  0  0  0  0  0  0  0  0
  161.0440  204.9340  151.1410 N   0  0  0  0  0  2  0  0  0  0  0  0
  161.5900  205.3590  152.4210 C   0  0  0  0  0  2  0  0  0  0  0  0
  161.7620  206.8650  152.4380 C   0  0  2  0  0  3  0  0  0  0  0  0
  160.8370  207.4700  153.4820 C   0  0  0  0  0  1  0  0  0  0  0  0
  161.4280  207.4110  151.0570 C   0  0  0  0  0  2  0  0  0  0  0  0
  161.0740  208.8940  151.1030 C   0  0  0  0  0  2  0  0  0  0  0  0
  162.1810  208.6700  148.9000 C   0  0  0  0  0  1  0  0  0  0  0  0
  161.3800  209.6030  149.7850 C   0  0  2  0  0  3  0  0  0  0  0  0
  162.1400  210.8960  149.9830 C   0  0  0  0  0  0  0  0  0  0  0  0
  163.1880  210.8950  150.6130 O   0  0  0  0  0  0  0  0  0  0  0  0
  161.6820  212.1820  149.3330 C   0  0  1  0  0  3  0  0  0  0  0  0
  161.7660  212.0820  147.8060 C   0  0  2  0  0  3  0  0  0  0  0  0
  162.5820  213.2170  147.2210 C   0  0  0  0  0  2  0  0  0  0  0  0
  160.6840  212.6210  145.9340 C   0  0  0  0  0  2  0  0  0  0  0  0
  161.8560  213.5730  145.9580 C   0  0  0  0  0  2  0  0  0  0  0  0
  160.4820  212.1390  147.2340 O   0  0  0  0  0  0  0  0  0  0  0  0
  160.2650  212.5630  149.7550 C   0  0  0  0  0  2  0  0  0  0  0  0
  160.2340  213.1220  151.1660 C   0  0  0  0  0  2  0  0  0  0  0  0
  159.4600  212.1920  152.0870 C   0  0  0  0  0  2  0  0  0  0  0  0
  160.2210  211.9150  153.3730 C   0  0  0  0  0  2  0  0  0  0  0  0
  159.8970  212.6520  155.7110 C   0  0  0  0  0  1  0  0  0  0  0  0
  159.2930  211.8610  154.5700 C   0  0  0  0  0  2  0  0  0  0  0  0
  1  7  1  6  0  0  0
  1 31  1  0  0  0  0
  2  1  1  0  0  0  0
  3  2  1  0  0  0  0
  3  5  1  0  0  0  0
  4  3  2  0  0  0  0
  6  5  1  0  0  0  0
  8  7  1  0  0  0  0
  9 10  1  1  0  0  0
  9  8  1  0  0  0  0
 11  9  1  0  0  0  0
 12 11  1  0  0  0  0
 13 15  1  0  0  0  0
 14 12  1  0  0  0  0
 15 12  2  0  0  0  0
 16 13  2  0  0  0  0
 16 17  1  0  0  0  0
 17 14  2  0  0  0  0
 18 16  1  0  0  0  0
 19 23  1  0  0  0  0
 19 18  1  1  0  0  0
 19 22  1  0  0  0  0
 20 23  1  1  0  0  0
 20 21  1  0  0  0  0
 20 30  1  0  0  0  0
 22 21  1  0  0  0  0
 24 28  1  6  0  0  0
 24 30  1  0  0  0  0
 24 29  1  0  0  0  0
 25 26  1  0  0  0  0
 27 25  1  0  0  0  0
 29 26  1  0  0  0  0
 30 27  1  6  0  0  0
 32 31  1  6  0  0  0
 32 36  1  0  0  0  0
 33 32  1  0  0  0  0
 34 33  1  0  0  0  0
 36 37  1  0  0  0  0
 36 35  2  0  0  0  0
 37 38  1  0  0  0  0
 38 39  1  0  0  0  0
 39 40  1  1  0  0  0
 41 42  1  0  0  0  0
 41 39  1  0  0  0  0
 44 43  1  6  0  0  0
 44 45  1  0  0  0  0
 44 42  1  0  0  0  0
 45 46  2  0  0  0  0
 47 53  1  6  0  0  0
 47 45  1  0  0  0  0
 48 47  1  1  0  0  0
 49 48  1  0  0  0  0
 50 51  1  0  0  0  0
 50 52  1  0  0  0  0
 51 49  1  0  0  0  0
 52 48  1  0  0  0  0
 53 54  1  0  0  0  0
 54 55  1  0  0  0  0
 55 56  1  0  0  0  0
 56 58  1  0  0  0  0
 58 57  1  0  0  0  0
M  END
>  <MODEL>
4

>  <REMARK>
 VINA RESULT:      -2.9      3.405      9.348
  Name = 
  29 active torsions:
  status: ('A' for Active; 'I' for Inactive)
    1  A    between atoms: C_2  and  C_29
    2  A    between atoms: C_2  and  C_31
    3  A    between atoms: O_3  and  C_19
    4  A    between atoms: O_3  and  C_23
    5  A    between atoms: N_4  and  C_7
    6  A    between atoms: C_5  and  C_26
    7  A    between atoms: C_7  and  C_41
    8  A    between atoms: C_9  and  O_40
    9  A    between atoms: C_10  and  C_15
   10  A    between atoms: C_10  and  O_40
   11  A    between atoms: C_12  and  C_20
   12  A    between atoms: C_12  and  C_49
   13  A    between atoms: C_15  and  C_27
   14  A    between atoms: C_20  and  C_26
   15  A    between atoms: C_21  and  C_30
   16  A    between atoms: C_21  and  C_31
   17  A    between atoms: C_24  and  C_28
   18  A    between atoms: C_24  and  C_57
   19  A    between atoms: C_26  and  C_30
   20  A    between atoms: C_27  and  C_28
   21  A    between atoms: C_28  and  C_41
   22  A    between atoms: C_29  and  C_43
   23  A    between atoms: N_34  and  C_53
   24  A    between atoms: C_38  and  C_57
   25  A    between atoms: C_39  and  N_55
   26  A    between atoms: C_39  and  C_57
   27  A    between atoms: C_43  and  N_55
   28  A    between atoms: C_47  and  C_49
   29  A    between atoms: C_47  and  C_58
                            x       y       z     vdW  Elec       q    Type
                         _______ _______ _______ _____ _____    ______ ____

>  <TORSDO>
F 29

$$$$
=
 OpenBabel11072415073D

 58 61  0  0  1  0  0  0  0  0999 V2000
  160.9650  203.5590  146.6250 C   0  0  2  0  0  3  0  0  0  0  0  0
  161.1940  202.3280  145.7400 C   0  0  0  0  0  2  0  0  0  0  0  0
  159.9610  201.8970  145.0040 C   0  0  0  0  0  0  0  0  0  0  0  0
  159.8750  200.7210  144.5580 O   0  0  0  0  0  0  0  0  0  0  0  0
  158.9020  202.8300  144.7850 N   0  0  0  0  0  2  0  0  0  0  0  0
  158.7190  203.3340  143.6570 O   0  0  0  0  0  1  0  0  0  0  0  0
  161.4130  204.8200  145.9010 C   0  0  0  0  0  2  0  0  0  0  0  0
  162.0550  204.5150  144.5560 C   0  0  0  0  0  2  0  0  0  0  0  0
  161.4610  205.4060  143.4710 C   0  0  1  0  0  3  0  0  0  0  0  0
  160.8140  206.6080  144.1260 C   0  0  0  0  0  1  0  0  0  0  0  0
  162.4770  205.8510  142.5720 O   0  0  0  0  0  0  0  0  0  0  0  0
  162.2040  206.4640  141.3440 C   0  0  0  0  0  0  0  0  0  0  0  0
  162.2950  206.3870  138.9200 C   0  0  0  0  0  3  0  0  0  0  0  0
  161.5370  207.6990  141.2700 C   0  0  0  0  0  3  0  0  0  0  0  0
  162.5970  205.8250  140.1640 C   0  0  0  0  0  3  0  0  0  0  0  0
  161.5940  207.5940  138.8420 C   0  0  0  0  0  0  0  0  0  0  0  0
  161.2300  208.2570  140.0270 C   0  0  0  0  0  3  0  0  0  0  0  0
  161.2550  208.1060  137.5850 O   0  0  0  0  0  0  0  0  0  0  0  0
  160.8670  209.4600  137.3850 C   0  0  2  0  0  3  0  0  0  0  0  0
  160.6020  211.2530  138.8490 N   0  0  1  0  0  0  0  0  0  0  0  0
  161.9340  211.2220  138.5540 O   0  0  0  0  0  0  0  0  0  0  0  0
  162.0760  210.3550  137.4520 C   0  0  0  0  0  2  0  0  0  0  0  0
  160.0520  209.9430  138.5370 C   0  0  0  0  0  2  0  0  0  0  0  0
  159.3420  212.6150  140.6380 C   0  0  2  0  0  3  0  0  0  0  0  0
  161.5120  212.3410  142.4260 C   0  0  0  0  0  2  0  0  0  0  0  0
  160.2090  212.0260  142.8570 O   0  0  0  0  0  0  0  0  0  0  0  0
  161.7670  211.7920  141.0140 C   0  0  0  0  0  2  0  0  0  0  0  0
  159.5120  213.9460  139.9190 C   0  0  0  0  0  1  0  0  0  0  0  0
  159.3380  212.8860  142.1570 C   0  0  0  0  0  2  0  0  0  0  0  0
  160.4390  211.5840  140.2740 C   0  0  2  0  0  3  0  0  0  0  0  0
  161.6360  203.4150  147.9920 C   0  0  0  0  0  2  0  0  0  0  0  0
  160.6350  202.9270  149.0330 C   0  0  1  0  0  3  0  0  0  0  0  0
  160.2900  201.4630  148.8050 C   0  0  0  0  0  2  0  0  0  0  0  0
  161.5100  200.6840  148.6420 N   0  0  0  0  0  1  0  0  0  0  0  0
  161.0620  201.9720  151.5160 S   0  0  0  0  0  0  0  0  0  0  0  0
  161.1300  203.1860  150.4290 C   0  0  0  0  0  0  0  0  0  0  0  0
  161.5870  204.4720  150.8630 N   0  0  0  0  0  2  0  0  0  0  0  0
  162.0830  204.7450  152.2030 C   0  0  0  0  0  2  0  0  0  0  0  0
  161.8820  206.2080  152.5430 C   0  0  2  0  0  3  0  0  0  0  0  0
  160.9770  206.3280  153.7580 C   0  0  0  0  0  1  0  0  0  0  0  0
  161.2530  206.9060  151.3450 C   0  0  0  0  0  2  0  0  0  0  0  0
  160.9880  208.3830  151.6230 C   0  0  0  0  0  2  0  0  0  0  0  0
  162.0050  208.4500  149.3670 C   0  0  0  0  0  1  0  0  0  0  0  0
  161.2390  209.2570  150.3950 C   0  0  2  0  0  3  0  0  0  0  0  0
  162.0040  210.5180  150.7270 C   0  0  0  0  0  0  0  0  0  0  0  0
  163.0300  210.4520  151.3880 O   0  0  0  0  0  0  0  0  0  0  0  0
  161.5810  211.8600  150.1730 C   0  0  1  0  0  3  0  0  0  0  0  0
  161.5240  211.8260  148.6420 C   0  0  2  0  0  3  0  0  0  0  0  0
  162.9120  211.8840  148.0360 C   0  0  0  0  0  2  0  0  0  0  0  0
  161.2800  213.1250  146.8480 C   0  0  0  0  0  2  0  0  0  0  0  0
  162.7430  212.7540  146.8250 C   0  0  0  0  0  2  0  0  0  0  0  0
  160.7950  212.9210  148.1470 O   0  0  0  0  0  0  0  0  0  0  0  0
  160.2350  212.3120  150.7360 C   0  0  0  0  0  2  0  0  0  0  0  0
  160.0190  213.8010  150.5390 C   0  0  0  0  0  2  0  0  0  0  0  0
  158.7010  214.0540  149.8250 C   0  0  0  0  0  2  0  0  0  0  0  0
  157.5120  213.6580  150.6860 C   0  0  0  0  0  2  0  0  0  0  0  0
  156.4250  214.0660  148.5030 C   0  0  0  0  0  1  0  0  0  0  0  0
  156.1970  213.9640  149.9960 C   0  0  0  0  0  2  0  0  0  0  0  0
  1  2  1  6  0  0  0
  1 31  1  0  0  0  0
  3  2  1  0  0  0  0
  4  3  2  0  0  0  0
  5  3  1  0  0  0  0
  6  5  1  0  0  0  0
  7  1  1  0  0  0  0
  8  7  1  0  0  0  0
  9 10  1  1  0  0  0
  9  8  1  0  0  0  0
 11  9  1  0  0  0  0
 12 11  1  0  0  0  0
 13 15  1  0  0  0  0
 14 12  1  0  0  0  0
 15 12  2  0  0  0  0
 16 13  2  0  0  0  0
 16 17  1  0  0  0  0
 17 14  2  0  0  0  0
 18 16  1  0  0  0  0
 19 22  1  0  0  0  0
 19 18  1  1  0  0  0
 19 23  1  0  0  0  0
 20 23  1  1  0  0  0
 20 30  1  0  0  0  0
 21 20  1  0  0  0  0
 22 21  1  0  0  0  0
 24 28  1  6  0  0  0
 24 29  1  0  0  0  0
 25 26  1  0  0  0  0
 27 25  1  0  0  0  0
 29 26  1  0  0  0  0
 30 24  1  0  0  0  0
 30 27  1  6  0  0  0
 32 31  1  6  0  0  0
 32 36  1  0  0  0  0
 33 32  1  0  0  0  0
 34 33  1  0  0  0  0
 36 37  1  0  0  0  0
 36 35  2  0  0  0  0
 37 38  1  0  0  0  0
 38 39  1  0  0  0  0
 39 40  1  1  0  0  0
 41 42  1  0  0  0  0
 41 39  1  0  0  0  0
 44 43  1  6  0  0  0
 44 45  1  0  0  0  0
 44 42  1  0  0  0  0
 45 46  2  0  0  0  0
 47 45  1  0  0  0  0
 47 53  1  1  0  0  0
 48 47  1  1  0  0  0
 49 48  1  0  0  0  0
 50 52  1  0  0  0  0
 51 50  1  0  0  0  0
 51 49  1  0  0  0  0
 52 48  1  0  0  0  0
 54 53  1  0  0  0  0
 55 54  1  0  0  0  0
 55 56  1  0  0  0  0
 57 58  1  0  0  0  0
 58 56  1  0  0  0  0
M  END
>  <MODEL>
5

>  <REMARK>
 VINA RESULT:      -2.5      3.435      9.365
  Name = 
  29 active torsions:
  status: ('A' for Active; 'I' for Inactive)
    1  A    between atoms: C_2  and  C_29
    2  A    between atoms: C_2  and  C_31
    3  A    between atoms: O_3  and  C_19
    4  A    between atoms: O_3  and  C_23
    5  A    between atoms: N_4  and  C_7
    6  A    between atoms: C_5  and  C_26
    7  A    between atoms: C_7  and  C_41
    8  A    between atoms: C_9  and  O_40
    9  A    between atoms: C_10  and  C_15
   10  A    between atoms: C_10  and  O_40
   11  A    between atoms: C_12  and  C_20
   12  A    between atoms: C_12  and  C_49
   13  A    between atoms: C_15  and  C_27
   14  A    between atoms: C_20  and  C_26
   15  A    between atoms: C_21  and  C_30
   16  A    between atoms: C_21  and  C_31
   17  A    between atoms: C_24  and  C_28
   18  A    between atoms: C_24  and  C_57
   19  A    between atoms: C_26  and  C_30
   20  A    between atoms: C_27  and  C_28
   21  A    between atoms: C_28  and  C_41
   22  A    between atoms: C_29  and  C_43
   23  A    between atoms: N_34  and  C_53
   24  A    between atoms: C_38  and  C_57
   25  A    between atoms: C_39  and  N_55
   26  A    between atoms: C_39  and  C_57
   27  A    between atoms: C_43  and  N_55
   28  A    between atoms: C_47  and  C_49
   29  A    between atoms: C_47  and  C_58
                            x       y       z     vdW  Elec       q    Type
                         _______ _______ _______ _____ _____    ______ ____

>  <TORSDO>
F 29

$$$$
=
 OpenBabel11072415073D

 58 61  0  0  1  0  0  0  0  0999 V2000
  161.2540  205.8720  148.4330 C   0  0  2  0  0  3  0  0  0  0  0  0
  162.3400  206.9320  148.2160 C   0  0  0  0  0  2  0  0  0  0  0  0
  161.9920  208.2600  148.8200 C   0  0  0  0  0  0  0  0  0  0  0  0
  161.1770  208.3170  149.7810 O   0  0  0  0  0  0  0  0  0  0  0  0
  162.5620  209.4550  148.2850 N   0  0  0  0  0  2  0  0  0  0  0  0
  162.1020  210.5740  148.5920 O   0  0  0  0  0  1  0  0  0  0  0  0
  161.4620  205.1700  149.7670 C   0  0  0  0  0  2  0  0  0  0  0  0
  161.2230  206.0980  150.9490 C   0  0  0  0  0  2  0  0  0  0  0  0
  160.6820  205.3130  152.1390 C   0  0  1  0  0  3  0  0  0  0  0  0
  160.8800  203.8350  151.8790 C   0  0  0  0  0  1  0  0  0  0  0  0
  161.3690  205.6750  153.3360 O   0  0  0  0  0  0  0  0  0  0  0  0
  161.2600  206.9350  153.9370 C   0  0  0  0  0  0  0  0  0  0  0  0
  161.3770  208.2950  155.9430 C   0  0  0  0  0  3  0  0  0  0  0  0
  160.9930  208.0890  153.1810 C   0  0  0  0  0  3  0  0  0  0  0  0
  161.4310  207.0440  155.3200 C   0  0  0  0  0  3  0  0  0  0  0  0
  161.1530  209.4500  155.1880 C   0  0  0  0  0  0  0  0  0  0  0  0
  160.9450  209.3380  153.8020 C   0  0  0  0  0  3  0  0  0  0  0  0
  161.1610  210.6940  155.8280 O   0  0  0  0  0  0  0  0  0  0  0  0
  159.9680  211.3770  156.1960 C   0  0  2  0  0  3  0  0  0  0  0  0
  158.3810  212.5490  154.9560 N   0  0  1  0  0  0  0  0  0  0  0  0
  158.0180  211.2370  154.8580 O   0  0  0  0  0  0  0  0  0  0  0  0
  158.7670  210.5450  155.8310 C   0  0  0  0  0  2  0  0  0  0  0  0
  159.7810  212.5900  155.3480 C   0  0  0  0  0  2  0  0  0  0  0  0
  156.7830  213.8650  153.4210 C   0  0  2  0  0  3  0  0  0  0  0  0
  158.2200  213.0200  151.1410 C   0  0  0  0  0  2  0  0  0  0  0  0
  157.9340  214.3870  151.3190 O   0  0  0  0  0  0  0  0  0  0  0  0
  158.6740  212.3820  152.4630 C   0  0  0  0  0  2  0  0  0  0  0  0
  155.6170  212.9030  153.6060 C   0  0  0  0  0  1  0  0  0  0  0  0
  156.7000  214.4530  151.9980 C   0  0  0  0  0  2  0  0  0  0  0  0
  158.1620  213.2000  153.6550 C   0  0  2  0  0  3  0  0  0  0  0  0
  161.1810  204.8800  147.2700 C   0  0  0  0  0  2  0  0  0  0  0  0
  162.0170  205.3680  146.0940 C   0  0  1  0  0  3  0  0  0  0  0  0
  163.1130  204.3670  145.7580 C   0  0  0  0  0  2  0  0  0  0  0  0
  164.3720  204.7880  146.3560 N   0  0  0  0  0  1  0  0  0  0  0  0
  159.6190  206.1790  145.1710 S   0  0  0  0  0  0  0  0  0  0  0  0
  161.1530  205.6890  144.9060 C   0  0  0  0  0  0  0  0  0  0  0  0
  161.5940  205.5120  143.5560 N   0  0  0  0  0  2  0  0  0  0  0  0
  162.2250  206.5580  142.7650 C   0  0  0  0  0  2  0  0  0  0  0  0
  161.6820  206.5380  141.3500 C   0  0  2  0  0  3  0  0  0  0  0  0
  162.5540  205.6440  140.4850 C   0  0  0  0  0  1  0  0  0  0  0  0
  161.6790  207.9600  140.8080 C   0  0  0  0  0  2  0  0  0  0  0  0
  160.6810  208.1300  139.6660 C   0  0  0  0  0  2  0  0  0  0  0  0
  162.5380  209.3810  138.6110 C   0  0  0  0  0  1  0  0  0  0  0  0
  161.0320  209.3100  138.7620 C   0  0  2  0  0  3  0  0  0  0  0  0
  160.5100  210.6260  139.2950 C   0  0  0  0  0  0  0  0  0  0  0  0
  159.4180  211.0400  138.9320 O   0  0  0  0  0  0  0  0  0  0  0  0
  161.2680  211.4000  140.3490 C   0  0  1  0  0  3  0  0  0  0  0  0
  161.5510  212.8310  139.8780 C   0  0  2  0  0  3  0  0  0  0  0  0
  160.4710  213.3270  138.9370 C   0  0  0  0  0  2  0  0  0  0  0  0
  162.6620  214.0030  138.3430 C   0  0  0  0  0  2  0  0  0  0  0  0
  161.2210  214.1210  137.9090 C   0  0  0  0  0  2  0  0  0  0  0  0
  162.7770  212.8950  139.1920 O   0  0  0  0  0  0  0  0  0  0  0  0
  160.5260  211.4270  141.6840 C   0  0  0  0  0  2  0  0  0  0  0  0
  159.8440  212.7630  141.9150 C   0  0  0  0  0  2  0  0  0  0  0  0
  159.9880  213.1850  143.3690 C   0  0  0  0  0  2  0  0  0  0  0  0
  161.1820  212.5160  144.0320 C   0  0  0  0  0  2  0  0  0  0  0  0
  162.3120  213.7910  145.8230 C   0  0  0  0  0  1  0  0  0  0  0  0
  162.2830  213.5120  144.3360 C   0  0  0  0  0  2  0  0  0  0  0  0
  1 31  1  6  0  0  0
  1  7  1  0  0  0  0
  2  1  1  0  0  0  0
  2  3  1  0  0  0  0
  3  4  2  0  0  0  0
  5  6  1  0  0  0  0
  5  3  1  0  0  0  0
  7  8  1  0  0  0  0
  8  9  1  0  0  0  0
  9 10  1  6  0  0  0
  9 11  1  0  0  0  0
 11 12  1  0  0  0  0
 12 15  1  0  0  0  0
 14 17  1  0  0  0  0
 14 12  2  0  0  0  0
 15 13  2  0  0  0  0
 16 18  1  0  0  0  0
 16 13  1  0  0  0  0
 17 16  2  0  0  0  0
 19 18  1  6  0  0  0
 20 23  1  6  0  0  0
 21 20  1  0  0  0  0
 21 22  1  0  0  0  0
 22 19  1  0  0  0  0
 23 19  1  0  0  0  0
 24 28  1  6  0  0  0
 24 30  1  0  0  0  0
 25 26  1  0  0  0  0
 25 27  1  0  0  0  0
 26 29  1  0  0  0  0
 29 24  1  0  0  0  0
 30 27  1  6  0  0  0
 30 20  1  0  0  0  0
 32 33  1  6  0  0  0
 32 31  1  0  0  0  0
 33 34  1  0  0  0  0
 36 35  2  0  0  0  0
 36 32  1  0  0  0  0
 37 36  1  0  0  0  0
 38 37  1  0  0  0  0
 39 40  1  6  0  0  0
 39 38  1  0  0  0  0
 41 39  1  0  0  0  0
 42 41  1  0  0  0  0
 44 43  1  1  0  0  0
 44 45  1  0  0  0  0
 44 42  1  0  0  0  0
 45 47  1  0  0  0  0
 46 45  2  0  0  0  0
 47 53  1  1  0  0  0
 48 47  1  6  0  0  0
 49 48  1  0  0  0  0
 50 52  1  0  0  0  0
 51 50  1  0  0  0  0
 51 49  1  0  0  0  0
 52 48  1  0  0  0  0
 53 54  1  0  0  0  0
 54 55  1  0  0  0  0
 55 56  1  0  0  0  0
 56 58  1  0  0  0  0
 58 57  1  0  0  0  0
M  END
>  <MODEL>
6

>  <REMARK>
 VINA RESULT:      -2.0      3.109     10.941
  Name = 
  29 active torsions:
  status: ('A' for Active; 'I' for Inactive)
    1  A    between atoms: C_2  and  C_29
    2  A    between atoms: C_2  and  C_31
    3  A    between atoms: O_3  and  C_19
    4  A    between atoms: O_3  and  C_23
    5  A    between atoms: N_4  and  C_7
    6  A    between atoms: C_5  and  C_26
    7  A    between atoms: C_7  and  C_41
    8  A    between atoms: C_9  and  O_40
    9  A    between atoms: C_10  and  C_15
   10  A    between atoms: C_10  and  O_40
   11  A    between atoms: C_12  and  C_20
   12  A    between atoms: C_12  and  C_49
   13  A    between atoms: C_15  and  C_27
   14  A    between atoms: C_20  and  C_26
   15  A    between atoms: C_21  and  C_30
   16  A    between atoms: C_21  and  C_31
   17  A    between atoms: C_24  and  C_28
   18  A    between atoms: C_24  and  C_57
   19  A    between atoms: C_26  and  C_30
   20  A    between atoms: C_27  and  C_28
   21  A    between atoms: C_28  and  C_41
   22  A    between atoms: C_29  and  C_43
   23  A    between atoms: N_34  and  C_53
   24  A    between atoms: C_38  and  C_57
   25  A    between atoms: C_39  and  N_55
   26  A    between atoms: C_39  and  C_57
   27  A    between atoms: C_43  and  N_55
   28  A    between atoms: C_47  and  C_49
   29  A    between atoms: C_47  and  C_58
                            x       y       z     vdW  Elec       q    Type
                         _______ _______ _______ _____ _____    ______ ____

>  <TORSDO>
F 29

$$$$
