=
 OpenBabel11072414223D

 62 66  0  0  1  0  0  0  0  0999 V2000
  159.9570  210.2130  152.8500 C   0  0  2  0  0  3  0  0  0  0  0  0
  161.0290  209.1350  152.6540 C   0  0  0  0  0  2  0  0  0  0  0  0
  162.6380  208.7490  150.9400 O   0  0  0  0  0  1  0  0  0  0  0  0
  161.2660  208.8220  151.1820 C   0  0  1  0  0  3  0  0  0  0  0  0
  160.6150  207.4920  150.8370 C   0  0  0  0  0  2  0  0  0  0  0  0
  161.4960  206.3200  151.2630 C   0  0  1  0  0  3  0  0  0  0  0  0
  162.0920  206.5320  152.6480 C   0  0  0  0  0  1  0  0  0  0  0  0
  160.7730  204.9710  151.1740 C   0  0  2  0  0  3  0  0  0  0  0  0
  160.4190  204.4960  152.4360 O   0  0  0  0  0  1  0  0  0  0  0  0
  161.4700  203.8910  150.3360 C   0  0  0  0  0  2  0  0  0  0  0  0
  160.5670  203.2480  149.3760 N   0  0  0  0  0  0  0  0  0  0  0  0
  159.8290  200.5710  144.4590 O   0  0  0  0  0  0  0  0  0  0  0  0
  161.5240  206.4360  146.6430 N   0  0  0  0  0  2  0  0  0  0  0  0
  160.4990  201.4170  145.3590 C   0  0  1  0  0  3  0  0  0  0  0  0
  161.6230  205.0510  146.5980 C   0  0  1  0  0  0  0  0  0  0  0  0
  159.4900  202.2750  146.1390 C   0  0  1  0  0  3  0  0  0  0  0  0
  161.2960  200.8270  147.5770 O   0  0  0  0  0  0  0  0  0  0  0  0
  163.4770  205.6480  144.9360 O   0  0  0  0  0  0  0  0  0  0  0  0
  162.0880  204.4170  147.8700 C   0  0  0  0  0  2  0  0  0  0  0  0
  161.9530  198.3750  145.1950 C   0  0  0  0  0  1  0  0  0  0  0  0
  162.0620  201.9780  147.7720 C   0  0  0  0  0  2  0  0  0  0  0  0
  158.6490  201.5010  146.9410 O   0  0  0  0  0  1  0  0  0  0  0  0
  159.7330  199.3530  145.0700 N   0  0  0  0  0  2  0  0  0  0  0  0
  160.5330  204.4420  145.9820 O   0  0  0  0  0  0  0  0  0  0  0  0
  161.1750  203.2200  148.0160 C   0  0  1  0  0  0  0  0  0  0  0  0
  160.1010  203.4670  146.9030 C   0  0  2  0  0  3  0  0  0  0  0  0
  162.5350  205.6740  145.7710 C   0  0  0  0  0  0  0  0  0  0  0  0
  161.4120  200.5490  146.2110 C   0  0  1  0  0  3  0  0  0  0  0  0
  160.8970  199.1770  145.9280 C   0  0  2  0  0  3  0  0  0  0  0  0
  161.4150  201.5400  150.8970 C   0  0  0  0  0  1  0  0  0  0  0  0
  160.3460  201.8980  149.8850 C   0  0  0  0  0  2  0  0  0  0  0  0
  160.4280  211.5610  152.2920 C   0  0  2  0  0  3  0  0  0  0  0  0
  159.8120  212.7410  153.0400 C   0  0  0  0  0  2  0  0  0  0  0  0
  158.4390  212.5540  153.2120 O   0  0  0  0  0  0  0  0  0  0  0  0
  158.1640  213.1460  154.4440 C   0  0  0  0  0  2  0  0  0  0  0  0
  156.7200  213.1650  154.6650 N   0  0  0  0  0  2  0  0  0  0  0  0
  157.6200  212.0460  156.6110 C   0  0  0  0  0  1  0  0  0  0  0  0
  156.3520  212.3990  155.8620 C   0  0  0  0  0  0  0  0  0  0  0  0
  155.6470  211.1020  155.4880 C   0  0  0  0  0  1  0  0  0  0  0  0
  155.4680  213.2190  156.7910 C   0  0  0  0  0  1  0  0  0  0  0  0
  160.1110  211.6530  150.8730 N   0  0  0  0  0  2  0  0  0  0  0  0
  161.2480  212.1710  150.2280 N   0  0  0  0  0  2  0  0  0  0  0  0
  160.7010  214.4010  150.4600 F   0  0  0  0  0  0  0  0  0  0  0  0
  160.8650  213.3940  149.5260 C   0  0  0  0  0  0  0  0  0  0  0  0
  161.8840  213.7640  148.6630 F   0  0  0  0  0  0  0  0  0  0  0  0
  158.6010  214.1250  149.1760 O   0  0  0  0  0  1  0  0  0  0  0  0
  159.5440  213.1800  148.7590 C   0  0  1  0  0  3  0  0  0  0  0  0
  159.6840  213.1860  147.2200 C   0  0  2  0  0  0  0  0  0  0  0  0
  160.5740  212.1690  146.8530 O   0  0  0  0  0  1  0  0  0  0  0  0
  160.1630  214.4530  146.8010 O   0  0  0  0  0  0  0  0  0  0  0  0
  160.9150  214.3100  145.6210 C   0  0  0  0  0  1  0  0  0  0  0  0
  157.4780  212.2480  147.4900 F   0  0  0  0  0  0  0  0  0  0  0  0
  158.3210  212.8720  146.5880 C   0  0  0  0  0  2  0  0  0  0  0  0
  159.6150  210.3170  154.2050 O   0  0  0  0  0  0  0  0  0  0  0  0
  160.4100  207.1630  156.0730 C   0  0  0  0  0  2  0  0  0  0  0  0
  161.7570  209.0760  157.0320 C   0  0  0  0  0  2  0  0  0  0  0  0
  161.3080  210.0550  155.9350 C   0  0  2  0  0  0  0  0  0  0  0  0
  159.5490  208.2890  155.4840 C   0  0  0  0  0  2  0  0  0  0  0  0
  160.6130  211.0880  156.5420 F   0  0  0  0  0  0  0  0  0  0  0  0
  160.4200  209.3810  154.8640 C   0  0  1  0  0  3  0  0  0  0  0  0
  161.7970  207.6320  156.5340 C   0  0  0  0  0  2  0  0  0  0  0  0
  162.5420  210.6280  155.2640 C   0  0  0  0  0  1  0  0  0  0  0  0
  1  2  1  1  0  0  0
  1 54  1  0  0  0  0
  4  3  1  1  0  0  0
  4  2  1  0  0  0  0
  5  4  1  0  0  0  0
  5  6  1  0  0  0  0
  6  7  1  1  0  0  0
  8  6  1  0  0  0  0
  8  9  1  1  0  0  0
 10  8  1  0  0  0  0
 11 31  1  0  0  0  0
 11 10  1  0  0  0  0
 12 23  1  0  0  0  0
 14 12  1  6  0  0  0
 14 16  1  0  0  0  0
 14 28  1  0  0  0  0
 15 13  1  0  0  0  0
 15 19  1  1  0  0  0
 16 26  1  0  0  0  0
 16 22  1  1  0  0  0
 17 21  1  0  0  0  0
 18 27  2  0  0  0  0
 19 25  1  0  0  0  0
 21 25  1  0  0  0  0
 23 29  1  0  0  0  0
 24 15  1  0  0  0  0
 25 11  1  1  0  0  0
 26 24  1  6  0  0  0
 26 25  1  0  0  0  0
 27 15  1  0  0  0  0
 27 13  1  0  0  0  0
 28 17  1  1  0  0  0
 29 20  1  6  0  0  0
 29 28  1  0  0  0  0
 31 30  1  0  0  0  0
 32  1  1  0  0  0  0
 32 33  1  1  0  0  0
 33 34  1  0  0  0  0
 34 35  1  0  0  0  0
 35 36  1  0  0  0  0
 36 38  1  0  0  0  0
 38 37  1  0  0  0  0
 38 40  1  0  0  0  0
 39 38  1  0  0  0  0
 41 32  1  0  0  0  0
 42 41  1  0  0  0  0
 44 42  1  0  0  0  0
 44 43  1  0  0  0  0
 45 44  1  0  0  0  0
 47 46  1  6  0  0  0
 47 44  1  0  0  0  0
 48 49  1  6  0  0  0
 48 47  1  0  0  0  0
 50 48  1  0  0  0  0
 51 50  1  0  0  0  0
 53 48  1  0  0  0  0
 53 52  1  0  0  0  0
 55 61  1  0  0  0  0
 57 62  1  6  0  0  0
 57 59  1  0  0  0  0
 57 56  1  0  0  0  0
 58 55  1  0  0  0  0
 60 54  1  1  0  0  0
 60 58  1  0  0  0  0
 60 57  1  0  0  0  0
 61 56  1  0  0  0  0
M  END
>  <MODEL>
1

>  <REMARK>
 VINA RESULT:      -1.9      0.000      0.000
  Name = 
  24 active torsions:
  status: ('A' for Active; 'I' for Inactive)
    1  A    between atoms: O_5  and  C_34
    2  A    between atoms: O_5  and  C_60
    3  A    between atoms: O_7  and  C_39
    4  A    between atoms: O_7  and  C_41
    5  A    between atoms: C_10  and  C_36
    6  A    between atoms: C_10  and  C_45
    7  A    between atoms: C_11  and  C_32
    8  A    between atoms: N_18  and  N_19
    9  A    between atoms: N_18  and  C_22
   10  A    between atoms: N_19  and  C_46
   11  A    between atoms: C_21  and  C_22
   12  A    between atoms: C_21  and  C_32
   13  A    between atoms: O_28  and  C_32
   14  A    between atoms: C_33  and  N_62
   15  A    between atoms: C_34  and  N_62
   16  A    between atoms: C_35  and  C_45
   17  A    between atoms: C_35  and  C_54
   18  A    between atoms: C_36  and  C_40
   19  A    between atoms: C_40  and  N_47
   20  A    between atoms: C_41  and  C_46
   21  A    between atoms: C_41  and  C_54
   22  A    between atoms: C_46  and  C_60
   23  A    between atoms: N_47  and  C_49
   24  A    between atoms: N_47  and  C_50
                            x       y       z     vdW  Elec       q    Type
                         _______ _______ _______ _____ _____    ______ ____

>  <TORSDO>
F 24

$$$$
=
 OpenBabel11072414223D

 62 66  0  0  1  0  0  0  0  0999 V2000
  161.6110  205.1790  146.7540 C   0  0  2  0  0  3  0  0  0  0  0  0
  162.2560  205.7380  145.4820 C   0  0  0  0  0  2  0  0  0  0  0  0
  160.0180  206.0370  144.7210 O   0  0  0  0  0  1  0  0  0  0  0  0
  161.3040  205.7100  144.2930 C   0  0  1  0  0  3  0  0  0  0  0  0
  161.7670  206.7150  143.2500 C   0  0  0  0  0  2  0  0  0  0  0  0
  161.9910  206.0430  141.8980 C   0  0  1  0  0  3  0  0  0  0  0  0
  160.7920  205.2020  141.4780 C   0  0  0  0  0  1  0  0  0  0  0  0
  162.3800  207.0370  140.7980 C   0  0  2  0  0  3  0  0  0  0  0  0
  163.7400  207.3390  140.8380 O   0  0  0  0  0  1  0  0  0  0  0  0
  161.5190  208.3040  140.7050 C   0  0  0  0  0  2  0  0  0  0  0  0
  160.9390  208.4980  139.3720 N   0  0  0  0  0  0  0  0  0  0  0  0
  162.5650  213.8290  138.4620 O   0  0  0  0  0  0  0  0  0  0  0  0
  157.6170  209.8970  137.0150 N   0  0  0  0  0  2  0  0  0  0  0  0
  161.6450  212.8170  138.7850 C   0  0  1  0  0  3  0  0  0  0  0  0
  158.5100  210.4980  137.8930 C   0  0  1  0  0  0  0  0  0  0  0  0
  161.8690  211.5850  137.8930 C   0  0  1  0  0  3  0  0  0  0  0  0
  161.8460  211.2040  140.5910 O   0  0  0  0  0  0  0  0  0  0  0  0
  156.5420  212.1170  138.1410 O   0  0  0  0  0  0  0  0  0  0  0  0
  158.8270  209.6890  139.1110 C   0  0  0  0  0  2  0  0  0  0  0  0
  162.7350  214.4320  141.5410 C   0  0  0  0  0  1  0  0  0  0  0  0
  160.5370  210.7250  140.5110 C   0  0  0  0  0  2  0  0  0  0  0  0
  163.1210  211.0040  138.1010 O   0  0  0  0  0  1  0  0  0  0  0  0
  163.5800  213.7360  139.3730 N   0  0  0  0  0  2  0  0  0  0  0  0
  159.6010  211.0800  137.2540 O   0  0  0  0  0  0  0  0  0  0  0  0
  160.3240  209.8500  139.2560 C   0  0  1  0  0  0  0  0  0  0  0  0
  160.7270  210.5490  137.9120 C   0  0  2  0  0  3  0  0  0  0  0  0
  157.3100  211.1740  137.8140 C   0  0  0  0  0  0  0  0  0  0  0  0
  161.7480  212.5640  140.2810 C   0  0  1  0  0  3  0  0  0  0  0  0
  163.0240  213.2560  140.6300 C   0  0  2  0  0  3  0  0  0  0  0  0
  161.6470  207.4000  137.3110 C   0  0  0  0  0  1  0  0  0  0  0  0
  162.0450  208.3380  138.4330 C   0  0  0  0  0  2  0  0  0  0  0  0
  161.6420  206.2130  147.8840 C   0  0  2  0  0  3  0  0  0  0  0  0
  160.2520  206.4800  148.4600 C   0  0  0  0  0  2  0  0  0  0  0  0
  160.0320  205.7020  149.5990 O   0  0  0  0  0  0  0  0  0  0  0  0
  161.0840  206.0370  150.4490 C   0  0  0  0  0  2  0  0  0  0  0  0
  160.5800  206.8550  151.5510 N   0  0  0  0  0  2  0  0  0  0  0  0
  161.8730  208.3750  152.9170 C   0  0  0  0  0  1  0  0  0  0  0  0
  161.5460  206.9210  152.6530 C   0  0  0  0  0  0  0  0  0  0  0  0
  162.8400  206.2030  152.2940 C   0  0  0  0  0  1  0  0  0  0  0  0
  160.9650  206.3290  153.9300 C   0  0  0  0  0  1  0  0  0  0  0  0
  162.2270  207.4590  147.4060 N   0  0  0  0  0  2  0  0  0  0  0  0
  161.4360  208.5070  147.9070 N   0  0  0  0  0  2  0  0  0  0  0  0
  162.7940  208.6480  149.7670 F   0  0  0  0  0  0  0  0  0  0  0  0
  162.2830  209.3840  148.7130 C   0  0  0  0  0  0  0  0  0  0  0  0
  163.3430  209.8310  147.9420 F   0  0  0  0  0  0  0  0  0  0  0  0
  161.8600  210.8520  150.5700 O   0  0  0  0  0  1  0  0  0  0  0  0
  161.4600  210.5680  149.2600 C   0  0  1  0  0  3  0  0  0  0  0  0
  161.5040  211.8410  148.3840 C   0  0  2  0  0  0  0  0  0  0  0  0
  161.0550  211.5100  147.1000 O   0  0  0  0  0  1  0  0  0  0  0  0
  162.8330  212.3340  148.3450 O   0  0  0  0  0  0  0  0  0  0  0  0
  163.0280  213.0770  147.1670 C   0  0  0  0  0  1  0  0  0  0  0  0
  161.2010  213.7750  149.7940 F   0  0  0  0  0  0  0  0  0  0  0  0
  160.5410  212.8860  148.9650 C   0  0  0  0  0  2  0  0  0  0  0  0
  162.2450  203.9890  147.1380 O   0  0  0  0  0  0  0  0  0  0  0  0
  160.5530  202.3110  150.0350 C   0  0  0  0  0  2  0  0  0  0  0  0
  160.3780  200.8400  147.9860 C   0  0  0  0  0  2  0  0  0  0  0  0
  160.9800  201.9100  147.0610 C   0  0  2  0  0  0  0  0  0  0  0  0
  161.6810  202.9870  149.2430 C   0  0  0  0  0  2  0  0  0  0  0  0
  162.1560  201.4050  146.5300 F   0  0  0  0  0  0  0  0  0  0  0  0
  161.2620  203.2410  147.7960 C   0  0  1  0  0  3  0  0  0  0  0  0
  159.6230  201.4550  149.1630 C   0  0  0  0  0  2  0  0  0  0  0  0
  160.0070  202.1700  145.9250 C   0  0  0  0  0  1  0  0  0  0  0  0
  1  2  1  6  0  0  0
  1 54  1  0  0  0  0
  1 32  1  0  0  0  0
  4  3  1  1  0  0  0
  4  2  1  0  0  0  0
  5  4  1  0  0  0  0
  6  7  1  6  0  0  0
  6  5  1  0  0  0  0
  8  9  1  1  0  0  0
  8  6  1  0  0  0  0
 10  8  1  0  0  0  0
 11 10  1  0  0  0  0
 12 23  1  0  0  0  0
 13 27  1  0  0  0  0
 13 15  1  0  0  0  0
 14 12  1  6  0  0  0
 14 28  1  0  0  0  0
 15 19  1  1  0  0  0
 16 26  1  0  0  0  0
 16 22  1  1  0  0  0
 16 14  1  0  0  0  0
 19 25  1  0  0  0  0
 21 17  1  0  0  0  0
 23 29  1  0  0  0  0
 24 15  1  0  0  0  0
 25 11  1  1  0  0  0
 25 21  1  0  0  0  0
 26 24  1  1  0  0  0
 26 25  1  0  0  0  0
 27 15  1  0  0  0  0
 27 18  2  0  0  0  0
 28 17  1  6  0  0  0
 28 29  1  0  0  0  0
 29 20  1  1  0  0  0
 30 31  1  0  0  0  0
 31 11  1  0  0  0  0
 32 33  1  6  0  0  0
 33 34  1  0  0  0  0
 34 35  1  0  0  0  0
 35 36  1  0  0  0  0
 36 38  1  0  0  0  0
 38 37  1  0  0  0  0
 38 40  1  0  0  0  0
 39 38  1  0  0  0  0
 41 32  1  0  0  0  0
 41 42  1  0  0  0  0
 42 44  1  0  0  0  0
 44 47  1  0  0  0  0
 44 43  1  0  0  0  0
 45 44  1  0  0  0  0
 47 46  1  1  0  0  0
 48 49  1  6  0  0  0
 48 53  1  0  0  0  0
 48 47  1  0  0  0  0
 50 48  1  0  0  0  0
 51 50  1  0  0  0  0
 53 52  1  0  0  0  0
 56 61  1  0  0  0  0
 57 62  1  6  0  0  0
 57 60  1  0  0  0  0
 57 56  1  0  0  0  0
 58 55  1  0  0  0  0
 59 57  1  0  0  0  0
 60 54  1  6  0  0  0
 60 58  1  0  0  0  0
 61 55  1  0  0  0  0
M  END
>  <MODEL>
2

>  <REMARK>
 VINA RESULT:      -1.0      5.436     10.047
  Name = 
  24 active torsions:
  status: ('A' for Active; 'I' for Inactive)
    1  A    between atoms: O_5  and  C_34
    2  A    between atoms: O_5  and  C_60
    3  A    between atoms: O_7  and  C_39
    4  A    between atoms: O_7  and  C_41
    5  A    between atoms: C_10  and  C_36
    6  A    between atoms: C_10  and  C_45
    7  A    between atoms: C_11  and  C_32
    8  A    between atoms: N_18  and  N_19
    9  A    between atoms: N_18  and  C_22
   10  A    between atoms: N_19  and  C_46
   11  A    between atoms: C_21  and  C_22
   12  A    between atoms: C_21  and  C_32
   13  A    between atoms: O_28  and  C_32
   14  A    between atoms: C_33  and  N_62
   15  A    between atoms: C_34  and  N_62
   16  A    between atoms: C_35  and  C_45
   17  A    between atoms: C_35  and  C_54
   18  A    between atoms: C_36  and  C_40
   19  A    between atoms: C_40  and  N_47
   20  A    between atoms: C_41  and  C_46
   21  A    between atoms: C_41  and  C_54
   22  A    between atoms: C_46  and  C_60
   23  A    between atoms: N_47  and  C_49
   24  A    between atoms: N_47  and  C_50
                            x       y       z     vdW  Elec       q    Type
                         _______ _______ _______ _____ _____    ______ ____

>  <TORSDO>
F 24

$$$$
=
 OpenBabel11072414223D

 62 66  0  0  1  0  0  0  0  0999 V2000
  161.3580  206.0290  147.3800 C   0  0  2  0  0  3  0  0  0  0  0  0
  161.9240  206.4120  146.0090 C   0  0  0  0  0  2  0  0  0  0  0  0
  159.6780  206.2840  145.2220 O   0  0  0  0  0  1  0  0  0  0  0  0
  160.9990  206.0040  144.8700 C   0  0  1  0  0  3  0  0  0  0  0  0
  161.3690  206.7780  143.6150 C   0  0  0  0  0  2  0  0  0  0  0  0
  161.6730  205.8350  142.4550 C   0  0  1  0  0  3  0  0  0  0  0  0
  160.5670  204.8060  142.2560 C   0  0  0  0  0  1  0  0  0  0  0  0
  161.9750  206.5780  141.1490 C   0  0  2  0  0  3  0  0  0  0  0  0
  163.3460  206.6430  140.9020 O   0  0  0  0  0  1  0  0  0  0  0  0
  161.3040  207.9470  140.9860 C   0  0  0  0  0  2  0  0  0  0  0  0
  160.9430  208.2400  139.5940 N   0  0  0  0  0  0  0  0  0  0  0  0
  162.4740  213.6500  139.0730 O   0  0  0  0  0  0  0  0  0  0  0  0
  157.7950  209.6590  137.0200 N   0  0  0  0  0  2  0  0  0  0  0  0
  161.5620  212.5990  139.2690 C   0  0  1  0  0  3  0  0  0  0  0  0
  158.5900  210.2410  138.0010 C   0  0  1  0  0  0  0  0  0  0  0  0
  161.9000  211.4180  138.3450 C   0  0  1  0  0  3  0  0  0  0  0  0
  161.6560  210.9070  141.0100 O   0  0  0  0  0  0  0  0  0  0  0  0
  156.5580  211.7930  138.1470 O   0  0  0  0  0  0  0  0  0  0  0  0
  158.8250  209.3840  139.2030 C   0  0  0  0  0  2  0  0  0  0  0  0
  162.3590  214.1100  142.1800 C   0  0  0  0  0  1  0  0  0  0  0  0
  160.3740  210.3980  140.7940 C   0  0  0  0  0  2  0  0  0  0  0  0
  163.1480  210.8620  138.6350 O   0  0  0  0  0  1  0  0  0  0  0  0
  163.4090  213.5410  140.0650 N   0  0  0  0  0  2  0  0  0  0  0  0
  159.7130  210.8830  137.4870 O   0  0  0  0  0  0  0  0  0  0  0  0
  160.2980  209.5790  139.4860 C   0  0  1  0  0  0  0  0  0  0  0  0
  160.7940  210.3520  138.2170 C   0  0  2  0  0  3  0  0  0  0  0  0
  157.3810  210.8880  137.8470 C   0  0  0  0  0  0  0  0  0  0  0  0
  161.5430  212.2780  140.7550 C   0  0  1  0  0  3  0  0  0  0  0  0
  162.7610  212.9870  141.2460 C   0  0  2  0  0  3  0  0  0  0  0  0
  162.0760  207.2180  137.6910 C   0  0  0  0  0  1  0  0  0  0  0  0
  162.1940  208.1930  138.8440 C   0  0  0  0  0  2  0  0  0  0  0  0
  161.2920  207.2490  148.3060 C   0  0  2  0  0  3  0  0  0  0  0  0
  162.6630  207.8900  148.5130 C   0  0  0  0  0  2  0  0  0  0  0  0
  162.7440  209.1110  147.8410 O   0  0  0  0  0  0  0  0  0  0  0  0
  162.1140  210.0140  148.6950 C   0  0  0  0  0  2  0  0  0  0  0  0
  161.2300  210.8830  147.9200 N   0  0  0  0  0  2  0  0  0  0  0  0
  161.2800  212.9490  146.6640 C   0  0  0  0  0  1  0  0  0  0  0  0
  161.6830  212.2780  147.9600 C   0  0  0  0  0  0  0  0  0  0  0  0
  163.1980  212.3610  148.0830 C   0  0  0  0  0  1  0  0  0  0  0  0
  161.0290  213.0370  149.1070 C   0  0  0  0  0  1  0  0  0  0  0  0
  160.7210  206.8720  149.5920 N   0  0  0  0  0  2  0  0  0  0  0  0
  161.7670  206.8940  150.5310 N   0  0  0  0  0  2  0  0  0  0  0  0
  162.4300  208.7050  151.7980 F   0  0  0  0  0  0  0  0  0  0  0  0
  161.3970  207.8020  151.6150 C   0  0  0  0  0  0  0  0  0  0  0  0
  160.2620  208.5090  151.2530 F   0  0  0  0  0  0  0  0  0  0  0  0
  162.2740  206.2050  153.1840 O   0  0  0  0  0  1  0  0  0  0  0  0
  161.1630  207.0120  152.9180 C   0  0  1  0  0  3  0  0  0  0  0  0
  160.8110  207.8830  154.1450 C   0  0  2  0  0  0  0  0  0  0  0  0
  159.8890  208.8580  153.7450 O   0  0  0  0  0  1  0  0  0  0  0  0
  161.9950  208.4810  154.6460 O   0  0  0  0  0  0  0  0  0  0  0  0
  161.8590  209.8810  154.6390 C   0  0  0  0  0  1  0  0  0  0  0  0
  159.1270  207.6890  155.8610 F   0  0  0  0  0  0  0  0  0  0  0  0
  160.1380  207.0060  155.2100 C   0  0  0  0  0  2  0  0  0  0  0  0
  162.1210  205.0010  147.9510 O   0  0  0  0  0  0  0  0  0  0  0  0
  160.1270  202.6750  150.1160 C   0  0  0  0  0  2  0  0  0  0  0  0
  160.9390  201.4350  148.0680 C   0  0  0  0  0  2  0  0  0  0  0  0
  161.4990  202.7090  147.4130 C   0  0  2  0  0  0  0  0  0  0  0  0
  161.2300  203.6730  149.7390 C   0  0  0  0  0  2  0  0  0  0  0  0
  162.8660  202.5470  147.2610 F   0  0  0  0  0  0  0  0  0  0  0  0
  161.2080  203.9800  148.2430 C   0  0  1  0  0  3  0  0  0  0  0  0
  159.7420  201.7300  148.9690 C   0  0  0  0  0  2  0  0  0  0  0  0
  160.8720  202.8620  146.0390 C   0  0  0  0  0  1  0  0  0  0  0  0
  1  2  1  6  0  0  0
  1 54  1  0  0  0  0
  1 32  1  0  0  0  0
  4  3  1  1  0  0  0
  4  2  1  0  0  0  0
  5  4  1  0  0  0  0
  6  7  1  6  0  0  0
  6  5  1  0  0  0  0
  8  9  1  1  0  0  0
  8  6  1  0  0  0  0
 10  8  1  0  0  0  0
 11 10  1  0  0  0  0
 12 23  1  0  0  0  0
 13 27  1  0  0  0  0
 13 15  1  0  0  0  0
 14 12  1  1  0  0  0
 14 28  1  0  0  0  0
 15 19  1  1  0  0  0
 16 22  1  1  0  0  0
 16 14  1  0  0  0  0
 19 25  1  0  0  0  0
 21 17  1  0  0  0  0
 23 29  1  0  0  0  0
 24 15  1  0  0  0  0
 25 11  1  1  0  0  0
 25 21  1  0  0  0  0
 26 24  1  1  0  0  0
 26 16  1  0  0  0  0
 26 25  1  0  0  0  0
 27 15  1  0  0  0  0
 27 18  2  0  0  0  0
 28 17  1  6  0  0  0
 28 29  1  0  0  0  0
 29 20  1  1  0  0  0
 30 31  1  0  0  0  0
 31 11  1  0  0  0  0
 32 33  1  1  0  0  0
 32 41  1  0  0  0  0
 34 33  1  0  0  0  0
 34 35  1  0  0  0  0
 36 38  1  0  0  0  0
 36 35  1  0  0  0  0
 37 38  1  0  0  0  0
 38 39  1  0  0  0  0
 38 40  1  0  0  0  0
 41 42  1  0  0  0  0
 42 44  1  0  0  0  0
 44 43  1  0  0  0  0
 44 47  1  0  0  0  0
 45 44  1  0  0  0  0
 47 46  1  1  0  0  0
 47 48  1  0  0  0  0
 48 49  1  6  0  0  0
 48 50  1  0  0  0  0
 48 53  1  0  0  0  0
 51 50  1  0  0  0  0
 53 52  1  0  0  0  0
 56 61  1  0  0  0  0
 57 62  1  6  0  0  0
 57 56  1  0  0  0  0
 57 60  1  0  0  0  0
 58 55  1  0  0  0  0
 59 57  1  0  0  0  0
 60 54  1  1  0  0  0
 60 58  1  0  0  0  0
 61 55  1  0  0  0  0
M  END
>  <MODEL>
3

>  <REMARK>
 VINA RESULT:      -0.8      5.319     10.276
  Name = 
  24 active torsions:
  status: ('A' for Active; 'I' for Inactive)
    1  A    between atoms: O_5  and  C_34
    2  A    between atoms: O_5  and  C_60
    3  A    between atoms: O_7  and  C_39
    4  A    between atoms: O_7  and  C_41
    5  A    between atoms: C_10  and  C_36
    6  A    between atoms: C_10  and  C_45
    7  A    between atoms: C_11  and  C_32
    8  A    between atoms: N_18  and  N_19
    9  A    between atoms: N_18  and  C_22
   10  A    between atoms: N_19  and  C_46
   11  A    between atoms: C_21  and  C_22
   12  A    between atoms: C_21  and  C_32
   13  A    between atoms: O_28  and  C_32
   14  A    between atoms: C_33  and  N_62
   15  A    between atoms: C_34  and  N_62
   16  A    between atoms: C_35  and  C_45
   17  A    between atoms: C_35  and  C_54
   18  A    between atoms: C_36  and  C_40
   19  A    between atoms: C_40  and  N_47
   20  A    between atoms: C_41  and  C_46
   21  A    between atoms: C_41  and  C_54
   22  A    between atoms: C_46  and  C_60
   23  A    between atoms: N_47  and  C_49
   24  A    between atoms: N_47  and  C_50
                            x       y       z     vdW  Elec       q    Type
                         _______ _______ _______ _____ _____    ______ ____

>  <TORSDO>
F 24

$$$$
=
 OpenBabel11072414223D

 62 66  0  0  1  0  0  0  0  0999 V2000
  160.9230  210.3450  152.7840 C   0  0  2  0  0  3  0  0  0  0  0  0
  161.9410  209.8710  151.7420 C   0  0  0  0  0  2  0  0  0  0  0  0
  162.1490  209.2180  149.4600 O   0  0  0  0  0  1  0  0  0  0  0  0
  161.2730  209.2070  150.5450 C   0  0  1  0  0  3  0  0  0  0  0  0
  160.9140  207.7720  150.8970 C   0  0  0  0  0  2  0  0  0  0  0  0
  162.1070  206.8410  150.7000 C   0  0  1  0  0  3  0  0  0  0  0  0
  162.2800  205.8850  151.8720 C   0  0  0  0  0  1  0  0  0  0  0  0
  162.0530  206.0800  149.3710 C   0  0  2  0  0  3  0  0  0  0  0  0
  162.7390  206.7570  148.3630 O   0  0  0  0  0  1  0  0  0  0  0  0
  160.6580  205.6370  148.9080 C   0  0  0  0  0  2  0  0  0  0  0  0
  160.5820  204.1990  148.6320 N   0  0  0  0  0  0  0  0  0  0  0  0
  159.6230  200.2920  144.6690 O   0  0  0  0  0  0  0  0  0  0  0  0
  160.5730  206.6900  145.1190 N   0  0  0  0  0  2  0  0  0  0  0  0
  160.2590  201.4190  145.2170 C   0  0  1  0  0  3  0  0  0  0  0  0
  160.9030  205.3640  145.3730 C   0  0  1  0  0  0  0  0  0  0  0  0
  159.2390  202.3050  145.9510 C   0  0  1  0  0  3  0  0  0  0  0  0
  161.4550  201.5210  147.3290 O   0  0  0  0  0  0  0  0  0  0  0  0
  162.3690  205.7630  143.3120 O   0  0  0  0  0  0  0  0  0  0  0  0
  161.6470  205.1400  146.6510 C   0  0  0  0  0  2  0  0  0  0  0  0
  162.1790  198.6560  145.4890 C   0  0  0  0  0  1  0  0  0  0  0  0
  162.0300  202.7750  147.1160 C   0  0  0  0  0  2  0  0  0  0  0  0
  158.6680  201.6540  147.0460 O   0  0  0  0  0  1  0  0  0  0  0  0
  159.8280  199.2660  145.5490 N   0  0  0  0  0  2  0  0  0  0  0  0
  159.8580  204.4800  145.1190 O   0  0  0  0  0  0  0  0  0  0  0  0
  160.9860  203.9090  147.2280 C   0  0  1  0  0  0  0  0  0  0  0  0
  159.7370  203.7210  146.3000 C   0  0  2  0  0  3  0  0  0  0  0  0
  161.5660  205.8730  144.2750 C   0  0  0  0  0  0  0  0  0  0  0  0
  161.4210  200.9240  146.0640 C   0  0  1  0  0  3  0  0  0  0  0  0
  161.1150  199.4700  146.1990 C   0  0  2  0  0  3  0  0  0  0  0  0
  160.7190  202.6410  150.5050 C   0  0  0  0  0  1  0  0  0  0  0  0
  161.4890  203.5660  149.5850 C   0  0  0  0  0  2  0  0  0  0  0  0
  160.0360  211.4580  152.2160 C   0  0  2  0  0  3  0  0  0  0  0  0
  160.5840  212.0180  150.9040 C   0  0  0  0  0  2  0  0  0  0  0  0
  160.2770  213.3750  150.7800 O   0  0  0  0  0  0  0  0  0  0  0  0
  160.9010  213.7590  149.5940 C   0  0  0  0  0  2  0  0  0  0  0  0
  160.1290  213.2660  148.4550 N   0  0  0  0  0  2  0  0  0  0  0  0
  160.4060  214.0360  146.1790 C   0  0  0  0  0  1  0  0  0  0  0  0
  160.9670  213.1340  147.2580 C   0  0  0  0  0  0  0  0  0  0  0  0
  160.9540  211.7050  146.7330 C   0  0  0  0  0  1  0  0  0  0  0  0
  162.3990  213.5680  147.5390 C   0  0  0  0  0  1  0  0  0  0  0  0
  159.8920  212.5310  153.1910 N   0  0  0  0  0  2  0  0  0  0  0  0
  158.5230  212.8340  153.2750 N   0  0  0  0  0  2  0  0  0  0  0  0
  159.2960  212.9500  155.4460 F   0  0  0  0  0  0  0  0  0  0  0  0
  158.1420  212.8750  154.6850 C   0  0  0  0  0  0  0  0  0  0  0  0
  157.3910  214.0150  154.9240 F   0  0  0  0  0  0  0  0  0  0  0  0
  158.1130  210.8270  155.9450 O   0  0  0  0  0  1  0  0  0  0  0  0
  157.3540  211.6050  155.0650 C   0  0  1  0  0  3  0  0  0  0  0  0
  155.9450  211.8700  155.6420 C   0  0  2  0  0  0  0  0  0  0  0  0
  155.1590  212.4530  154.6400 O   0  0  0  0  0  1  0  0  0  0  0  0
  156.0560  212.7310  156.7630 O   0  0  0  0  0  0  0  0  0  0  0  0
  154.8270  213.3780  156.9870 C   0  0  0  0  0  1  0  0  0  0  0  0
  154.9740  209.7860  154.9120 F   0  0  0  0  0  0  0  0  0  0  0  0
  155.2990  210.5330  156.0300 C   0  0  0  0  0  2  0  0  0  0  0  0
  161.5790  210.7650  153.9500 O   0  0  0  0  0  0  0  0  0  0  0  0
  160.3360  207.5200  155.3620 C   0  0  0  0  0  2  0  0  0  0  0  0
  161.0950  209.0260  157.2450 C   0  0  0  0  0  2  0  0  0  0  0  0
  161.6640  210.0830  156.2850 C   0  0  2  0  0  0  0  0  0  0  0  0
  160.3030  208.8270  154.5580 C   0  0  0  0  0  2  0  0  0  0  0  0
  160.9670  211.2630  156.4850 F   0  0  0  0  0  0  0  0  0  0  0  0
  161.5630  209.6550  154.8030 C   0  0  1  0  0  3  0  0  0  0  0  0
  161.1580  207.6190  156.6540 C   0  0  0  0  0  2  0  0  0  0  0  0
  163.1230  210.3170  156.6330 C   0  0  0  0  0  1  0  0  0  0  0  0
  1  2  1  6  0  0  0
  1 54  1  0  0  0  0
  4  3  1  6  0  0  0
  4  5  1  0  0  0  0
  4  2  1  0  0  0  0
  6  5  1  0  0  0  0
  6  7  1  1  0  0  0
  8  9  1  6  0  0  0
  8  6  1  0  0  0  0
 10  8  1  0  0  0  0
 11 10  1  0  0  0  0
 11 31  1  0  0  0  0
 12 23  1  0  0  0  0
 13 15  1  0  0  0  0
 14 12  1  1  0  0  0
 14 16  1  0  0  0  0
 14 28  1  0  0  0  0
 15 19  1  1  0  0  0
 16 26  1  0  0  0  0
 16 22  1  1  0  0  0
 18 27  2  0  0  0  0
 19 25  1  0  0  0  0
 21 25  1  0  0  0  0
 21 17  1  0  0  0  0
 23 29  1  0  0  0  0
 24 15  1  0  0  0  0
 25 11  1  1  0  0  0
 26 24  1  6  0  0  0
 26 25  1  0  0  0  0
 27 13  1  0  0  0  0
 27 15  1  0  0  0  0
 28 29  1  0  0  0  0
 28 17  1  1  0  0  0
 29 20  1  6  0  0  0
 31 30  1  0  0  0  0
 32 33  1  6  0  0  0
 32  1  1  0  0  0  0
 32 41  1  0  0  0  0
 34 33  1  0  0  0  0
 35 34  1  0  0  0  0
 36 35  1  0  0  0  0
 37 38  1  0  0  0  0
 38 40  1  0  0  0  0
 38 36  1  0  0  0  0
 39 38  1  0  0  0  0
 41 42  1  0  0  0  0
 42 44  1  0  0  0  0
 44 45  1  0  0  0  0
 44 47  1  0  0  0  0
 44 43  1  0  0  0  0
 47 48  1  0  0  0  0
 47 46  1  1  0  0  0
 48 49  1  6  0  0  0
 48 53  1  0  0  0  0
 48 50  1  0  0  0  0
 50 51  1  0  0  0  0
 52 53  1  0  0  0  0
 55 61  1  0  0  0  0
 57 59  1  0  0  0  0
 57 62  1  1  0  0  0
 57 56  1  0  0  0  0
 58 60  1  0  0  0  0
 58 55  1  0  0  0  0
 60 54  1  6  0  0  0
 60 57  1  0  0  0  0
 61 56  1  0  0  0  0
M  END
>  <MODEL>
4

>  <REMARK>
 VINA RESULT:      -0.7      2.185      4.957
  Name = 
  24 active torsions:
  status: ('A' for Active; 'I' for Inactive)
    1  A    between atoms: O_5  and  C_34
    2  A    between atoms: O_5  and  C_60
    3  A    between atoms: O_7  and  C_39
    4  A    between atoms: O_7  and  C_41
    5  A    between atoms: C_10  and  C_36
    6  A    between atoms: C_10  and  C_45
    7  A    between atoms: C_11  and  C_32
    8  A    between atoms: N_18  and  N_19
    9  A    between atoms: N_18  and  C_22
   10  A    between atoms: N_19  and  C_46
   11  A    between atoms: C_21  and  C_22
   12  A    between atoms: C_21  and  C_32
   13  A    between atoms: O_28  and  C_32
   14  A    between atoms: C_33  and  N_62
   15  A    between atoms: C_34  and  N_62
   16  A    between atoms: C_35  and  C_45
   17  A    between atoms: C_35  and  C_54
   18  A    between atoms: C_36  and  C_40
   19  A    between atoms: C_40  and  N_47
   20  A    between atoms: C_41  and  C_46
   21  A    between atoms: C_41  and  C_54
   22  A    between atoms: C_46  and  C_60
   23  A    between atoms: N_47  and  C_49
   24  A    between atoms: N_47  and  C_50
                            x       y       z     vdW  Elec       q    Type
                         _______ _______ _______ _____ _____    ______ ____

>  <TORSDO>
F 24

$$$$
=
 OpenBabel11072414223D

 62 66  0  0  1  0  0  0  0  0999 V2000
  160.0160  212.2320  152.7080 C   0  0  2  0  0  3  0  0  0  0  0  0
  161.1180  211.3890  153.3570 C   0  0  0  0  0  2  0  0  0  0  0  0
  162.9380  210.2100  152.3690 O   0  0  0  0  0  1  0  0  0  0  0  0
  161.5470  210.2250  152.4730 C   0  0  1  0  0  3  0  0  0  0  0  0
  161.0670  208.9190  153.0880 C   0  0  0  0  0  2  0  0  0  0  0  0
  160.6720  207.9140  152.0090 C   0  0  1  0  0  3  0  0  0  0  0  0
  161.1050  208.3720  150.6220 C   0  0  0  0  0  1  0  0  0  0  0  0
  161.1760  206.4970  152.3040 C   0  0  2  0  0  3  0  0  0  0  0  0
  162.1670  206.4990  153.2860 O   0  0  0  0  0  1  0  0  0  0  0  0
  161.5900  205.6650  151.0830 C   0  0  0  0  0  2  0  0  0  0  0  0
  161.1870  204.2590  151.1930 N   0  0  0  0  0  0  0  0  0  0  0  0
  161.9240  204.1690  145.5960 O   0  0  0  0  0  0  0  0  0  0  0  0
  159.2430  200.5340  150.2470 N   0  0  0  0  0  2  0  0  0  0  0  0
  161.1920  204.0130  146.7850 C   0  0  1  0  0  3  0  0  0  0  0  0
  159.4460  201.7280  149.5660 C   0  0  1  0  0  0  0  0  0  0  0  0
  162.0700  203.3750  147.8740 C   0  0  1  0  0  3  0  0  0  0  0  0
  160.8060  205.7120  148.4780 O   0  0  0  0  0  0  0  0  0  0  0  0
  157.3270  200.9310  148.3700 O   0  0  0  0  0  0  0  0  0  0  0  0
  159.2820  202.9580  150.4010 C   0  0  0  0  0  2  0  0  0  0  0  0
  160.4340  206.9130  145.2320 C   0  0  0  0  0  1  0  0  0  0  0  0
  159.8330  205.0020  149.1850 C   0  0  0  0  0  2  0  0  0  0  0  0
  163.1480  204.1900  148.2260 O   0  0  0  0  0  1  0  0  0  0  0  0
  162.3550  205.4650  145.5730 N   0  0  0  0  0  2  0  0  0  0  0  0
  160.5650  201.7040  148.7380 O   0  0  0  0  0  0  0  0  0  0  0  0
  160.4470  203.8250  149.9750 C   0  0  1  0  0  0  0  0  0  0  0  0
  161.3040  202.8460  149.1030 C   0  0  2  0  0  3  0  0  0  0  0  0
  158.3300  201.0490  149.1220 C   0  0  0  0  0  0  0  0  0  0  0  0
  160.5970  205.3670  147.1390 C   0  0  1  0  0  3  0  0  0  0  0  0
  161.3650  206.2900  146.2530 C   0  0  2  0  0  3  0  0  0  0  0  0
  162.2750  202.4820  152.4630 C   0  0  0  0  0  1  0  0  0  0  0  0
  162.4260  203.5050  151.3560 C   0  0  0  0  0  2  0  0  0  0  0  0
  160.5830  213.0980  151.5780 C   0  0  2  0  0  3  0  0  0  0  0  0
  159.5270  214.0200  150.9720 C   0  0  0  0  0  2  0  0  0  0  0  0
  158.2690  213.4140  150.9970 O   0  0  0  0  0  0  0  0  0  0  0  0
  157.5490  214.0800  150.0070 C   0  0  0  0  0  2  0  0  0  0  0  0
  156.9780  213.1050  149.0790 N   0  0  0  0  0  2  0  0  0  0  0  0
  157.0490  212.4120  146.7630 C   0  0  0  0  0  1  0  0  0  0  0  0
  157.0040  213.6020  147.6980 C   0  0  0  0  0  0  0  0  0  0  0  0
  158.2430  214.4500  147.4430 C   0  0  0  0  0  1  0  0  0  0  0  0
  155.7520  214.4060  147.3790 C   0  0  0  0  0  1  0  0  0  0  0  0
  161.1560  212.2510  150.5390 N   0  0  0  0  0  2  0  0  0  0  0  0
  160.9340  212.8970  149.3110 N   0  0  0  0  0  2  0  0  0  0  0  0
  162.8240  213.7070  148.2640 F   0  0  0  0  0  0  0  0  0  0  0  0
  162.0420  212.5760  148.4120 C   0  0  0  0  0  0  0  0  0  0  0  0
  162.8200  211.5810  148.9800 F   0  0  0  0  0  0  0  0  0  0  0  0
  160.2680  211.4990  147.1970 O   0  0  0  0  0  1  0  0  0  0  0  0
  161.5030  212.1360  147.0350 C   0  0  1  0  0  3  0  0  0  0  0  0
  161.4020  213.2710  145.9910 C   0  0  2  0  0  0  0  0  0  0  0  0
  161.0480  214.4520  146.6540 O   0  0  0  0  0  1  0  0  0  0  0  0
  160.4300  212.9240  145.0180 O   0  0  0  0  0  0  0  0  0  0  0  0
  161.0650  212.3910  143.8820 C   0  0  0  0  0  1  0  0  0  0  0  0
  162.6680  214.0990  144.1110 F   0  0  0  0  0  0  0  0  0  0  0  0
  162.7790  213.4860  145.3470 C   0  0  0  0  0  2  0  0  0  0  0  0
  159.3720  213.0190  153.6740 O   0  0  0  0  0  0  0  0  0  0  0  0
  156.3370  211.0190  154.6010 C   0  0  0  0  0  2  0  0  0  0  0  0
  157.4220  211.9300  156.6960 C   0  0  0  0  0  2  0  0  0  0  0  0
  158.6380  212.4760  155.9310 C   0  0  2  0  0  0  0  0  0  0  0  0
  157.1660  212.1070  153.9050 C   0  0  0  0  0  2  0  0  0  0  0  0
  158.6650  213.8510  156.0950 F   0  0  0  0  0  0  0  0  0  0  0  0
  158.6020  212.1240  154.4270 C   0  0  1  0  0  3  0  0  0  0  0  0
  156.8240  210.6960  156.0210 C   0  0  0  0  0  2  0  0  0  0  0  0
  159.8970  211.8900  156.5440 C   0  0  0  0  0  1  0  0  0  0  0  0
  1  2  1  1  0  0  0
  1 54  1  0  0  0  0
  4  3  1  1  0  0  0
  4  5  1  0  0  0  0
  4  2  1  0  0  0  0
  6  7  1  6  0  0  0
  6  8  1  0  0  0  0
  6  5  1  0  0  0  0
  8  9  1  1  0  0  0
 10 11  1  0  0  0  0
 10  8  1  0  0  0  0
 11 31  1  0  0  0  0
 14 12  1  6  0  0  0
 14 28  1  0  0  0  0
 14 16  1  0  0  0  0
 15 13  1  0  0  0  0
 15 19  1  1  0  0  0
 16 22  1  1  0  0  0
 16 26  1  0  0  0  0
 17 21  1  0  0  0  0
 18 27  2  0  0  0  0
 21 25  1  0  0  0  0
 23 12  1  0  0  0  0
 23 29  1  0  0  0  0
 24 15  1  0  0  0  0
 25 19  1  0  0  0  0
 25 11  1  1  0  0  0
 26 24  1  6  0  0  0
 26 25  1  0  0  0  0
 27 15  1  0  0  0  0
 27 13  1  0  0  0  0
 28 17  1  1  0  0  0
 29 20  1  6  0  0  0
 29 28  1  0  0  0  0
 31 30  1  0  0  0  0
 32 33  1  6  0  0  0
 32  1  1  0  0  0  0
 33 34  1  0  0  0  0
 35 34  1  0  0  0  0
 36 35  1  0  0  0  0
 37 38  1  0  0  0  0
 38 36  1  0  0  0  0
 39 38  1  0  0  0  0
 40 38  1  0  0  0  0
 41 32  1  0  0  0  0
 42 41  1  0  0  0  0
 43 44  1  0  0  0  0
 44 45  1  0  0  0  0
 44 42  1  0  0  0  0
 47 46  1  1  0  0  0
 47 44  1  0  0  0  0
 48 49  1  1  0  0  0
 48 47  1  0  0  0  0
 50 48  1  0  0  0  0
 51 50  1  0  0  0  0
 52 53  1  0  0  0  0
 53 48  1  0  0  0  0
 55 61  1  0  0  0  0
 57 59  1  0  0  0  0
 57 62  1  1  0  0  0
 57 56  1  0  0  0  0
 58 60  1  0  0  0  0
 58 55  1  0  0  0  0
 60 54  1  6  0  0  0
 60 57  1  0  0  0  0
 61 56  1  0  0  0  0
M  END
>  <MODEL>
5

>  <REMARK>
 VINA RESULT:       0.0      2.449      4.620
  Name = 
  24 active torsions:
  status: ('A' for Active; 'I' for Inactive)
    1  A    between atoms: O_5  and  C_34
    2  A    between atoms: O_5  and  C_60
    3  A    between atoms: O_7  and  C_39
    4  A    between atoms: O_7  and  C_41
    5  A    between atoms: C_10  and  C_36
    6  A    between atoms: C_10  and  C_45
    7  A    between atoms: C_11  and  C_32
    8  A    between atoms: N_18  and  N_19
    9  A    between atoms: N_18  and  C_22
   10  A    between atoms: N_19  and  C_46
   11  A    between atoms: C_21  and  C_22
   12  A    between atoms: C_21  and  C_32
   13  A    between atoms: O_28  and  C_32
   14  A    between atoms: C_33  and  N_62
   15  A    between atoms: C_34  and  N_62
   16  A    between atoms: C_35  and  C_45
   17  A    between atoms: C_35  and  C_54
   18  A    between atoms: C_36  and  C_40
   19  A    between atoms: C_40  and  N_47
   20  A    between atoms: C_41  and  C_46
   21  A    between atoms: C_41  and  C_54
   22  A    between atoms: C_46  and  C_60
   23  A    between atoms: N_47  and  C_49
   24  A    between atoms: N_47  and  C_50
                            x       y       z     vdW  Elec       q    Type
                         _______ _______ _______ _____ _____    ______ ____

>  <TORSDO>
F 24

$$$$
