=
 OpenBabel11072410113D

 43 48  0  0  1  0  0  0  0  0999 V2000
  161.6540  208.3560  156.2210 C   0  0  0  0  0  0  0  0  0  0  0  0
  162.4200  210.5040  157.2370 C   0  0  0  0  0  3  0  0  0  0  0  0
  158.7960  210.1490  154.8560 F   0  0  0  0  0  0  0  0  0  0  0  0
  161.8330  207.0800  156.3060 N   0  0  0  0  0  2  0  0  0  0  0  0
  160.4440  212.4290  154.7230 N   0  0  0  0  0  2  0  0  0  0  0  0
  161.8150  211.4540  156.3410 N   0  0  0  0  0  0  0  0  0  0  0  0
  160.7850  208.8680  155.1200 C   0  0  1  0  0  3  0  0  0  0  0  0
  162.3320  209.2040  157.1610 N   0  0  0  0  0  0  0  0  0  0  0  0
  159.9670  210.0570  155.5840 C   0  0  1  0  0  3  0  0  0  0  0  0
  160.7820  211.3210  155.5690 C   0  0  0  0  0  0  0  0  0  0  0  0
  161.5420  209.1680  153.9800 O   0  0  0  0  0  0  0  0  0  0  0  0
  160.7660  206.4530  151.9150 C   0  0  1  0  0  3  0  0  0  0  0  0
  161.6830  208.6090  151.6660 C   0  0  0  0  0  2  0  0  0  0  0  0
  160.4920  207.1900  153.2070 C   0  0  0  0  0  2  0  0  0  0  0  0
  161.7370  207.2380  151.1540 N   0  0  0  0  0  0  0  0  0  0  0  0
  160.8220  208.6280  152.9130 C   0  0  1  0  0  3  0  0  0  0  0  0
  162.5980  204.9120  151.7550 F   0  0  0  0  0  0  0  0  0  0  0  0
  161.2890  205.0400  152.1910 C   0  0  0  0  0  0  0  0  0  0  0  0
  160.4990  204.1170  151.5310 F   0  0  0  0  0  0  0  0  0  0  0  0
  161.2320  204.7790  153.5490 F   0  0  0  0  0  0  0  0  0  0  0  0
  161.7190  208.4760  148.9670 C   0  0  0  0  0  1  0  0  0  0  0  0
  161.3900  207.1860  149.7200 C   0  0  1  0  0  3  0  0  0  0  0  0
  162.0080  205.9850  148.9850 C   0  0  2  0  0  3  0  0  0  0  0  0
  161.6920  205.9760  147.5330 C   0  0  0  0  0  0  0  0  0  0  0  0
  160.9410  207.0480  147.0340 O   0  0  0  0  0  1  0  0  0  0  0  0
  160.9410  204.9810  148.4520 C   0  0  0  0  0  0  0  0  0  0  0  0
  161.1200  203.6720  147.6580 C   0  0  0  0  0  2  0  0  0  0  0  0
  161.6290  203.7340  149.0360 C   0  0  0  0  0  2  0  0  0  0  0  0
  162.7720  205.5530  146.7430 O   0  0  0  0  0  1  0  0  0  0  0  0
  159.6080  212.3540  153.5380 C   0  0  0  0  0  2  0  0  0  0  0  0
  158.9160  213.6310  153.3490 N   0  0  0  0  0  0  0  0  0  0  0  0
  157.5110  213.5070  153.7820 C   0  0  1  0  0  3  0  0  0  0  0  0
  157.0390  212.0670  153.9540 C   0  0  0  0  0  2  0  0  0  0  0  0
  156.3210  213.0280  156.0540 C   0  0  2  0  0  3  0  0  0  0  0  0
  155.8910  212.1060  154.9340 C   0  0  0  0  0  2  0  0  0  0  0  0
  155.1100  213.5180  156.8230 C   0  0  0  0  0  1  0  0  0  0  0  0
  157.2000  214.4400  155.3230 S   0  0  0  0  0  0  0  0  0  0  0  0
  158.6170  213.7370  149.0810 C   0  0  0  0  0  2  0  0  0  0  0  0
  159.9630  213.5590  149.8130 C   0  0  0  0  0  2  0  0  0  0  0  0
  157.4200  213.4410  149.9820 C   0  0  0  0  0  2  0  0  0  0  0  0
  158.9860  214.0180  151.9320 C   0  0  1  0  0  3  0  0  0  0  0  0
  159.7810  213.0440  151.1710 N   0  0  0  0  0  2  0  0  0  0  0  0
  157.5640  214.1440  151.3330 C   0  0  0  0  0  2  0  0  0  0  0  0
  1  4  2  0  0  0  0
  1  8  1  0  0  0  0
  5 10  1  0  0  0  0
  6  2  1  0  0  0  0
  7 11  1  6  0  0  0
  7  9  1  0  0  0  0
  7  1  1  0  0  0  0
  8  2  2  0  0  0  0
  9  3  1  6  0  0  0
 10  9  1  0  0  0  0
 10  6  2  0  0  0  0
 12 18  1  1  0  0  0
 12 14  1  0  0  0  0
 13 16  1  0  0  0  0
 15 13  1  0  0  0  0
 15 12  1  0  0  0  0
 16 14  1  0  0  0  0
 16 11  1  1  0  0  0
 17 18  1  0  0  0  0
 18 20  1  0  0  0  0
 19 18  1  0  0  0  0
 22 21  1  6  0  0  0
 22 15  1  0  0  0  0
 23 22  1  1  0  0  0
 24 26  1  0  0  0  0
 24 23  1  0  0  0  0
 25 24  1  0  0  0  0
 26 23  1  0  0  0  0
 26 28  1  0  0  0  0
 27 26  1  0  0  0  0
 27 28  1  0  0  0  0
 29 24  1  0  0  0  0
 30  5  1  0  0  0  0
 31 30  1  0  0  0  0
 32 31  1  1  0  0  0
 32 33  1  0  0  0  0
 32 37  1  0  0  0  0
 33 35  1  0  0  0  0
 34 36  1  6  0  0  0
 35 34  1  0  0  0  0
 37 34  1  0  0  0  0
 38 39  1  0  0  0  0
 38 40  1  0  0  0  0
 39 42  1  0  0  0  0
 40 43  1  0  0  0  0
 41 31  1  1  0  0  0
 42 41  1  0  0  0  0
 43 41  1  0  0  0  0
M  END
>  <MODEL>
1

>  <REMARK>
 VINA RESULT:      -7.4      0.000      0.000
  Name = 
  9 active torsions:
  status: ('A' for Active; 'I' for Inactive)
    1  A    between atoms: C_1  and  C_40
    2  A    between atoms: C_2  and  C_15
    3  A    between atoms: C_8  and  N_27
    4  A    between atoms: O_16  and  C_31
    5  A    between atoms: O_16  and  C_43
    6  A    between atoms: N_20  and  C_38
    7  A    between atoms: C_25  and  N_27
    8  A    between atoms: N_27  and  C_38
    9  A    between atoms: N_37  and  C_40
                            x       y       z     vdW  Elec       q    Type
                         _______ _______ _______ _____ _____    ______ ____

>  <TORSDO>
F 9

$$$$
=
 OpenBabel11072410113D

 43 48  0  0  1  0  0  0  0  0999 V2000
  161.2180  208.1560  155.1840 C   0  0  0  0  0  0  0  0  0  0  0  0
  162.1660  210.2820  156.0870 C   0  0  0  0  0  3  0  0  0  0  0  0
  158.8250  210.1500  153.3010 F   0  0  0  0  0  0  0  0  0  0  0  0
  161.2000  206.8850  155.4090 N   0  0  0  0  0  2  0  0  0  0  0  0
  160.7900  212.1640  153.1720 N   0  0  0  0  0  2  0  0  0  0  0  0
  161.8110  211.2000  155.0360 N   0  0  0  0  0  0  0  0  0  0  0  0
  160.5650  208.6540  153.9380 C   0  0  1  0  0  3  0  0  0  0  0  0
  161.8990  209.0050  156.1210 N   0  0  0  0  0  0  0  0  0  0  0  0
  159.8800  209.9850  154.1800 C   0  0  1  0  0  3  0  0  0  0  0  0
  160.8660  211.1210  154.1530 C   0  0  0  0  0  0  0  0  0  0  0  0
  161.4830  208.7250  152.8820 O   0  0  0  0  0  0  0  0  0  0  0  0
  160.8010  205.9040  150.9290 C   0  0  1  0  0  3  0  0  0  0  0  0
  161.7880  208.0210  150.6240 C   0  0  0  0  0  2  0  0  0  0  0  0
  160.4460  206.7250  152.1500 C   0  0  0  0  0  2  0  0  0  0  0  0
  161.8470  206.6200  150.2010 N   0  0  0  0  0  0  0  0  0  0  0  0
  160.8340  208.1350  151.7960 C   0  0  1  0  0  3  0  0  0  0  0  0
  160.8860  204.2150  152.6320 F   0  0  0  0  0  0  0  0  0  0  0  0
  161.2660  204.5000  151.3300 C   0  0  0  0  0  0  0  0  0  0  0  0
  162.6420  204.4210  151.2320 F   0  0  0  0  0  0  0  0  0  0  0  0
  160.7090  203.5630  150.4760 F   0  0  0  0  0  0  0  0  0  0  0  0
  162.0510  207.7110  147.9460 C   0  0  0  0  0  1  0  0  0  0  0  0
  161.6110  206.4860  148.7500 C   0  0  1  0  0  3  0  0  0  0  0  0
  162.2340  205.2180  148.1440 C   0  0  2  0  0  3  0  0  0  0  0  0
  162.2640  205.2470  146.6580 C   0  0  0  0  0  0  0  0  0  0  0  0
  161.7850  206.4030  146.0300 O   0  0  0  0  0  1  0  0  0  0  0  0
  161.2070  204.3530  147.3510 C   0  0  0  0  0  0  0  0  0  0  0  0
  161.4070  203.0320  146.5830 C   0  0  0  0  0  2  0  0  0  0  0  0
  161.5850  203.0310  148.0430 C   0  0  0  0  0  2  0  0  0  0  0  0
  163.4390  204.6940  146.1270 O   0  0  0  0  0  1  0  0  0  0  0  0
  160.0940  212.0700  151.9000 C   0  0  0  0  0  2  0  0  0  0  0  0
  160.1870  213.3540  151.2000 N   0  0  0  0  0  0  0  0  0  0  0  0
  158.9330  214.1110  151.3740 C   0  0  1  0  0  3  0  0  0  0  0  0
  157.7940  213.6420  150.4750 C   0  0  0  0  0  2  0  0  0  0  0  0
  156.6820  213.6810  152.6220 C   0  0  2  0  0  3  0  0  0  0  0  0
  156.5110  214.0410  151.1620 C   0  0  0  0  0  2  0  0  0  0  0  0
  155.6940  214.4530  153.4720 C   0  0  0  0  0  1  0  0  0  0  0  0
  158.3800  214.0980  153.1160 S   0  0  0  0  0  0  0  0  0  0  0  0
  162.0360  212.7280  147.3900 C   0  0  0  0  0  2  0  0  0  0  0  0
  161.2800  214.0250  147.7410 C   0  0  0  0  0  2  0  0  0  0  0  0
  162.4140  211.9210  148.6300 C   0  0  0  0  0  2  0  0  0  0  0  0
  160.4480  213.1110  149.7730 C   0  0  1  0  0  3  0  0  0  0  0  0
  161.1950  214.2330  149.1880 N   0  0  0  0  0  2  0  0  0  0  0  0
  161.2230  211.7840  149.5810 C   0  0  0  0  0  2  0  0  0  0  0  0
  1  4  2  0  0  0  0
  1  8  1  0  0  0  0
  2  8  2  0  0  0  0
  5 10  1  0  0  0  0
  6  2  1  0  0  0  0
  7 11  1  6  0  0  0
  7  9  1  0  0  0  0
  7  1  1  0  0  0  0
  9  3  1  6  0  0  0
 10  9  1  0  0  0  0
 10  6  2  0  0  0  0
 12 18  1  1  0  0  0
 12 14  1  0  0  0  0
 13 16  1  0  0  0  0
 15 13  1  0  0  0  0
 15 12  1  0  0  0  0
 16 14  1  0  0  0  0
 16 11  1  1  0  0  0
 18 17  1  0  0  0  0
 19 18  1  0  0  0  0
 20 18  1  0  0  0  0
 22 21  1  6  0  0  0
 22 15  1  0  0  0  0
 23 22  1  1  0  0  0
 24 26  1  0  0  0  0
 24 23  1  0  0  0  0
 25 24  1  0  0  0  0
 26 28  1  0  0  0  0
 26 23  1  0  0  0  0
 27 26  1  0  0  0  0
 27 28  1  0  0  0  0
 29 24  1  0  0  0  0
 30  5  1  0  0  0  0
 31 30  1  0  0  0  0
 32 31  1  1  0  0  0
 32 37  1  0  0  0  0
 33 35  1  0  0  0  0
 33 32  1  0  0  0  0
 34 37  1  0  0  0  0
 34 36  1  1  0  0  0
 35 34  1  0  0  0  0
 38 39  1  0  0  0  0
 38 40  1  0  0  0  0
 39 42  1  0  0  0  0
 40 43  1  0  0  0  0
 41 31  1  1  0  0  0
 42 41  1  0  0  0  0
 43 41  1  0  0  0  0
M  END
>  <MODEL>
2

>  <REMARK>
 VINA RESULT:      -6.6      1.502      2.322
  Name = 
  9 active torsions:
  status: ('A' for Active; 'I' for Inactive)
    1  A    between atoms: C_1  and  C_40
    2  A    between atoms: C_2  and  C_15
    3  A    between atoms: C_8  and  N_27
    4  A    between atoms: O_16  and  C_31
    5  A    between atoms: O_16  and  C_43
    6  A    between atoms: N_20  and  C_38
    7  A    between atoms: C_25  and  N_27
    8  A    between atoms: N_27  and  C_38
    9  A    between atoms: N_37  and  C_40
                            x       y       z     vdW  Elec       q    Type
                         _______ _______ _______ _____ _____    ______ ____

>  <TORSDO>
F 9

$$$$
=
 OpenBabel11072410113D

 43 48  0  0  1  0  0  0  0  0999 V2000
  161.8800  207.4470  151.3950 C   0  0  0  0  0  0  0  0  0  0  0  0
  161.6370  207.2150  148.9210 C   0  0  0  0  0  3  0  0  0  0  0  0
  163.1130  210.8270  150.8450 F   0  0  0  0  0  0  0  0  0  0  0  0
  161.9380  206.7390  152.4730 N   0  0  0  0  0  2  0  0  0  0  0  0
  161.4670  210.9260  148.5610 N   0  0  0  0  0  2  0  0  0  0  0  0
  161.4680  208.5910  148.5380 N   0  0  0  0  0  0  0  0  0  0  0  0
  161.8470  208.9330  151.5350 C   0  0  1  0  0  3  0  0  0  0  0  0
  161.8120  206.7640  150.1330 N   0  0  0  0  0  0  0  0  0  0  0  0
  162.6350  209.6000  150.4250 C   0  0  1  0  0  3  0  0  0  0  0  0
  161.8350  209.6720  149.1530 C   0  0  0  0  0  0  0  0  0  0  0  0
  160.5280  209.4030  151.5930 O   0  0  0  0  0  0  0  0  0  0  0  0
  160.3130  210.7050  154.8330 C   0  0  1  0  0  3  0  0  0  0  0  0
  159.1610  210.9460  152.7920 C   0  0  0  0  0  2  0  0  0  0  0  0
  161.1830  210.0720  153.7690 C   0  0  0  0  0  2  0  0  0  0  0  0
  158.9930  210.9360  154.2470 N   0  0  0  0  0  0  0  0  0  0  0  0
  160.5700  210.4940  152.4620 C   0  0  1  0  0  3  0  0  0  0  0  0
  161.4690  209.3050  156.4020 F   0  0  0  0  0  0  0  0  0  0  0  0
  160.2200  209.8070  156.0710 C   0  0  0  0  0  0  0  0  0  0  0  0
  159.3610  208.7550  155.8170 F   0  0  0  0  0  0  0  0  0  0  0  0
  159.7230  210.5350  157.1380 F   0  0  0  0  0  0  0  0  0  0  0  0
  158.8510  213.4150  153.8560 C   0  0  0  0  0  1  0  0  0  0  0  0
  158.4620  212.2250  154.7350 C   0  0  1  0  0  3  0  0  0  0  0  0
  156.9400  212.2150  154.9510 C   0  0  2  0  0  3  0  0  0  0  0  0
  156.5360  212.8820  156.2160 C   0  0  0  0  0  0  0  0  0  0  0  0
  157.5520  213.4530  156.9920 O   0  0  0  0  0  1  0  0  0  0  0  0
  156.5010  211.3350  156.1610 C   0  0  0  0  0  0  0  0  0  0  0  0
  155.0960  211.0630  156.7310 C   0  0  0  0  0  2  0  0  0  0  0  0
  155.4150  210.5720  155.3820 C   0  0  0  0  0  2  0  0  0  0  0  0
  155.3590  213.6340  156.0830 O   0  0  0  0  0  1  0  0  0  0  0  0
  161.4240  212.2000  149.2570 C   0  0  0  0  0  2  0  0  0  0  0  0
  161.1750  213.2730  148.2910 N   0  0  0  0  0  0  0  0  0  0  0  0
  159.8060  213.7950  148.4660 C   0  0  1  0  0  3  0  0  0  0  0  0
  158.7120  212.8400  147.9990 C   0  0  0  0  0  2  0  0  0  0  0  0
  157.8980  213.4110  150.2030 C   0  0  2  0  0  3  0  0  0  0  0  0
  157.4660  213.2060  148.7680 C   0  0  0  0  0  2  0  0  0  0  0  0
  156.8650  214.2320  150.9500 C   0  0  0  0  0  1  0  0  0  0  0  0
  159.4920  214.2830  150.1990 S   0  0  0  0  0  0  0  0  0  0  0  0
  161.9050  212.8600  144.0930 C   0  0  0  0  0  2  0  0  0  0  0  0
  160.5000  212.7010  144.7090 C   0  0  0  0  0  2  0  0  0  0  0  0
  162.8740  213.5790  145.0300 C   0  0  0  0  0  2  0  0  0  0  0  0
  161.3560  212.7510  146.9280 C   0  0  1  0  0  3  0  0  0  0  0  0
  160.3940  213.3720  146.0070 N   0  0  0  0  0  2  0  0  0  0  0  0
  162.8070  212.9950  146.4420 C   0  0  0  0  0  2  0  0  0  0  0  0
  1  7  1  0  0  0  0
  1  4  2  0  0  0  0
  2  8  2  0  0  0  0
  5 10  1  0  0  0  0
  5 30  1  0  0  0  0
  6  2  1  0  0  0  0
  6 10  2  0  0  0  0
  7 11  1  6  0  0  0
  8  1  1  0  0  0  0
  9  3  1  1  0  0  0
  9  7  1  0  0  0  0
 10  9  1  0  0  0  0
 12 18  1  1  0  0  0
 13 15  1  0  0  0  0
 14 12  1  0  0  0  0
 15 22  1  0  0  0  0
 15 12  1  0  0  0  0
 16 11  1  6  0  0  0
 16 13  1  0  0  0  0
 16 14  1  0  0  0  0
 18 17  1  0  0  0  0
 18 20  1  0  0  0  0
 19 18  1  0  0  0  0
 22 21  1  6  0  0  0
 23 22  1  1  0  0  0
 23 26  1  0  0  0  0
 23 24  1  0  0  0  0
 24 25  1  0  0  0  0
 26 24  1  0  0  0  0
 26 27  1  0  0  0  0
 28 26  1  0  0  0  0
 28 27  1  0  0  0  0
 29 24  1  0  0  0  0
 31 30  1  0  0  0  0
 32 31  1  1  0  0  0
 32 37  1  0  0  0  0
 33 32  1  0  0  0  0
 33 35  1  0  0  0  0
 34 36  1  1  0  0  0
 35 34  1  0  0  0  0
 37 34  1  0  0  0  0
 38 39  1  0  0  0  0
 38 40  1  0  0  0  0
 39 42  1  0  0  0  0
 40 43  1  0  0  0  0
 41 31  1  1  0  0  0
 42 41  1  0  0  0  0
 43 41  1  0  0  0  0
M  END
>  <MODEL>
3

>  <REMARK>
 VINA RESULT:      -6.4      3.177      7.346
  Name = 
  9 active torsions:
  status: ('A' for Active; 'I' for Inactive)
    1  A    between atoms: C_1  and  C_40
    2  A    between atoms: C_2  and  C_15
    3  A    between atoms: C_8  and  N_27
    4  A    between atoms: O_16  and  C_31
    5  A    between atoms: O_16  and  C_43
    6  A    between atoms: N_20  and  C_38
    7  A    between atoms: C_25  and  N_27
    8  A    between atoms: N_27  and  C_38
    9  A    between atoms: N_37  and  C_40
                            x       y       z     vdW  Elec       q    Type
                         _______ _______ _______ _____ _____    ______ ____

>  <TORSDO>
F 9

$$$$
=
 OpenBabel11072410113D

 43 48  0  0  1  0  0  0  0  0999 V2000
  162.1690  211.4290  149.2170 C   0  0  0  0  0  0  0  0  0  0  0  0
  160.3100  212.9790  149.8310 C   0  0  0  0  0  3  0  0  0  0  0  0
  162.4390  210.5360  152.7350 F   0  0  0  0  0  0  0  0  0  0  0  0
  163.0020  211.1830  148.2610 N   0  0  0  0  0  2  0  0  0  0  0  0
  159.6730  211.0240  152.9460 N   0  0  0  0  0  2  0  0  0  0  0  0
  159.8260  212.3520  151.0330 N   0  0  0  0  0  0  0  0  0  0  0  0
  162.1340  210.4870  150.3740 C   0  0  1  0  0  3  0  0  0  0  0  0
  161.3010  212.5670  149.0890 N   0  0  0  0  0  0  0  0  0  0  0  0
  161.8940  211.2320  151.6720 C   0  0  1  0  0  3  0  0  0  0  0  0
  160.4360  211.5570  151.8550 C   0  0  0  0  0  0  0  0  0  0  0  0
  161.1870  209.4750  150.1700 O   0  0  0  0  0  0  0  0  0  0  0  0
  162.1500  206.3810  148.8520 C   0  0  1  0  0  3  0  0  0  0  0  0
  160.9750  207.1680  150.7360 C   0  0  0  0  0  2  0  0  0  0  0  0
  162.4130  207.8690  148.9340 C   0  0  0  0  0  2  0  0  0  0  0  0
  161.0510  206.0740  149.7660 N   0  0  0  0  0  0  0  0  0  0  0  0
  161.9000  208.2810  150.2870 C   0  0  1  0  0  3  0  0  0  0  0  0
  162.4470  204.7720  147.0980 F   0  0  0  0  0  0  0  0  0  0  0  0
  161.8140  205.9620  147.4180 C   0  0  0  0  0  0  0  0  0  0  0  0
  162.2260  206.9460  146.5390 F   0  0  0  0  0  0  0  0  0  0  0  0
  160.4450  205.8020  147.2880 F   0  0  0  0  0  0  0  0  0  0  0  0
  161.0480  204.8080  151.9380 C   0  0  0  0  0  1  0  0  0  0  0  0
  161.3160  204.7830  150.4320 C   0  0  1  0  0  3  0  0  0  0  0  0
  160.5680  203.6010  149.7920 C   0  0  2  0  0  3  0  0  0  0  0  0
  160.8450  202.3100  150.4740 C   0  0  0  0  0  0  0  0  0  0  0  0
  161.6810  202.3450  151.5970 O   0  0  0  0  0  1  0  0  0  0  0  0
  161.5210  202.5750  149.1060 C   0  0  0  0  0  0  0  0  0  0  0  0
  161.1990  201.2600  148.3720 C   0  0  0  0  0  2  0  0  0  0  0  0
  160.7330  202.5250  147.7850 C   0  0  0  0  0  2  0  0  0  0  0  0
  159.7110  201.4900  150.5700 O   0  0  0  0  0  1  0  0  0  0  0  0
  160.0290  209.8480  153.7210 C   0  0  0  0  0  2  0  0  0  0  0  0
  159.3510  209.8980  155.0190 N   0  0  0  0  0  0  0  0  0  0  0  0
  158.5270  211.1190  155.1050 C   0  0  1  0  0  3  0  0  0  0  0  0
  157.2120  211.0370  154.3370 C   0  0  0  0  0  2  0  0  0  0  0  0
  156.4280  211.8290  156.4820 C   0  0  2  0  0  3  0  0  0  0  0  0
  156.2710  212.0190  154.9890 C   0  0  0  0  0  2  0  0  0  0  0  0
  155.9200  213.0500  157.2230 C   0  0  0  0  0  1  0  0  0  0  0  0
  158.1920  211.5790  156.8420 S   0  0  0  0  0  0  0  0  0  0  0  0
  162.9950  209.7320  157.2590 C   0  0  0  0  0  2  0  0  0  0  0  0
  161.9750  208.5750  157.2500 C   0  0  0  0  0  2  0  0  0  0  0  0
  162.7880  210.7010  156.0980 C   0  0  0  0  0  2  0  0  0  0  0  0
  160.3560  209.8790  156.0930 C   0  0  1  0  0  3  0  0  0  0  0  0
  161.1120  208.6190  156.0670 N   0  0  0  0  0  2  0  0  0  0  0  0
  161.3130  211.0890  155.9630 C   0  0  0  0  0  2  0  0  0  0  0  0
  1  7  1  0  0  0  0
  2  6  1  0  0  0  0
  4  1  2  0  0  0  0
  5 30  1  0  0  0  0
  6 10  2  0  0  0  0
  7 11  1  6  0  0  0
  7  9  1  0  0  0  0
  8  1  1  0  0  0  0
  8  2  2  0  0  0  0
  9 10  1  0  0  0  0
  9  3  1  1  0  0  0
 10  5  1  0  0  0  0
 12 18  1  6  0  0  0
 12 14  1  0  0  0  0
 12 15  1  0  0  0  0
 14 16  1  0  0  0  0
 15 22  1  0  0  0  0
 15 13  1  0  0  0  0
 16 11  1  6  0  0  0
 16 13  1  0  0  0  0
 17 18  1  0  0  0  0
 19 18  1  0  0  0  0
 20 18  1  0  0  0  0
 22 21  1  1  0  0  0
 23 22  1  1  0  0  0
 23 24  1  0  0  0  0
 24 29  1  0  0  0  0
 24 25  1  0  0  0  0
 26 23  1  0  0  0  0
 26 24  1  0  0  0  0
 27 26  1  0  0  0  0
 28 27  1  0  0  0  0
 28 26  1  0  0  0  0
 30 31  1  0  0  0  0
 32 31  1  1  0  0  0
 32 37  1  0  0  0  0
 33 35  1  0  0  0  0
 33 32  1  0  0  0  0
 34 37  1  0  0  0  0
 34 36  1  1  0  0  0
 35 34  1  0  0  0  0
 39 38  1  0  0  0  0
 40 38  1  0  0  0  0
 41 31  1  6  0  0  0
 42 41  1  0  0  0  0
 42 39  1  0  0  0  0
 43 41  1  0  0  0  0
 43 40  1  0  0  0  0
M  END
>  <MODEL>
4

>  <REMARK>
 VINA RESULT:      -6.2      2.673      5.247
  Name = 
  9 active torsions:
  status: ('A' for Active; 'I' for Inactive)
    1  A    between atoms: C_1  and  C_40
    2  A    between atoms: C_2  and  C_15
    3  A    between atoms: C_8  and  N_27
    4  A    between atoms: O_16  and  C_31
    5  A    between atoms: O_16  and  C_43
    6  A    between atoms: N_20  and  C_38
    7  A    between atoms: C_25  and  N_27
    8  A    between atoms: N_27  and  C_38
    9  A    between atoms: N_37  and  C_40
                            x       y       z     vdW  Elec       q    Type
                         _______ _______ _______ _____ _____    ______ ____

>  <TORSDO>
F 9

$$$$
=
 OpenBabel11072410113D

 43 48  0  0  1  0  0  0  0  0999 V2000
  162.2130  212.3320  148.5700 C   0  0  0  0  0  0  0  0  0  0  0  0
  160.1650  213.7600  148.5100 C   0  0  0  0  0  3  0  0  0  0  0  0
  161.6290  211.8370  152.1280 F   0  0  0  0  0  0  0  0  0  0  0  0
  163.2770  212.0650  147.8880 N   0  0  0  0  0  2  0  0  0  0  0  0
  158.8760  212.0880  151.5880 N   0  0  0  0  0  2  0  0  0  0  0  0
  159.4300  213.2190  149.6230 N   0  0  0  0  0  0  0  0  0  0  0  0
  161.9420  211.5150  149.7900 C   0  0  1  0  0  3  0  0  0  0  0  0
  161.3370  213.3660  148.0930 N   0  0  0  0  0  0  0  0  0  0  0  0
  161.3310  212.3660  150.8870 C   0  0  1  0  0  3  0  0  0  0  0  0
  159.8580  212.5730  150.6620 C   0  0  0  0  0  0  0  0  0  0  0  0
  161.1440  210.4050  149.4850 O   0  0  0  0  0  0  0  0  0  0  0  0
  162.0370  207.0900  148.8170 C   0  0  1  0  0  3  0  0  0  0  0  0
  161.2250  208.3260  150.6500 C   0  0  0  0  0  2  0  0  0  0  0  0
  162.2010  208.5500  148.4590 C   0  0  0  0  0  2  0  0  0  0  0  0
  161.1770  207.0160  149.9970 N   0  0  0  0  0  0  0  0  0  0  0  0
  161.9520  209.2960  149.7410 C   0  0  1  0  0  3  0  0  0  0  0  0
  162.0470  205.0600  147.5370 F   0  0  0  0  0  0  0  0  0  0  0  0
  161.4420  206.3020  147.6460 C   0  0  0  0  0  0  0  0  0  0  0  0
  161.6320  207.0040  146.4710 F   0  0  0  0  0  0  0  0  0  0  0  0
  160.0820  206.1320  147.8420 F   0  0  0  0  0  0  0  0  0  0  0  0
  161.9080  206.4250  152.3280 C   0  0  0  0  0  1  0  0  0  0  0  0
  161.6690  205.9500  150.8940 C   0  0  1  0  0  3  0  0  0  0  0  0
  160.7750  204.7000  150.9030 C   0  0  2  0  0  3  0  0  0  0  0  0
  161.3900  203.5610  151.6340 C   0  0  0  0  0  0  0  0  0  0  0  0
  162.6340  203.7830  152.2370 O   0  0  0  0  0  1  0  0  0  0  0  0
  161.3750  203.5150  150.0860 C   0  0  0  0  0  0  0  0  0  0  0  0
  160.8260  202.0940  149.8510 C   0  0  0  0  0  2  0  0  0  0  0  0
  160.0870  203.2360  149.2920 C   0  0  0  0  0  2  0  0  0  0  0  0
  160.4570  202.8290  152.3860 O   0  0  0  0  0  1  0  0  0  0  0  0
  159.0940  211.0360  152.5650 C   0  0  0  0  0  2  0  0  0  0  0  0
  159.1580  211.6240  153.9060 N   0  0  0  0  0  0  0  0  0  0  0  0
  159.7140  210.6420  154.8560 C   0  0  1  0  0  3  0  0  0  0  0  0
  160.4510  209.4830  154.1930 C   0  0  0  0  0  2  0  0  0  0  0  0
  162.0850  210.1690  155.8380 C   0  0  2  0  0  3  0  0  0  0  0  0
  161.4310  208.9570  155.2130 C   0  0  0  0  0  2  0  0  0  0  0  0
  162.7060  209.8020  157.1710 C   0  0  0  0  0  1  0  0  0  0  0  0
  160.8110  211.4420  156.0810 S   0  0  0  0  0  0  0  0  0  0  0  0
  155.7240  212.8460  156.1500 C   0  0  0  0  0  2  0  0  0  0  0  0
  155.8560  211.4350  155.5400 C   0  0  0  0  0  2  0  0  0  0  0  0
  157.0660  213.5690  156.2410 C   0  0  0  0  0  2  0  0  0  0  0  0
  157.8090  212.0350  154.3210 C   0  0  1  0  0  3  0  0  0  0  0  0
  157.2540  211.0790  155.2890 N   0  0  0  0  0  2  0  0  0  0  0  0
  157.8380  213.4610  154.9240 C   0  0  0  0  0  2  0  0  0  0  0  0
  1  7  1  0  0  0  0
  2  6  1  0  0  0  0
  4  1  2  0  0  0  0
  5 30  1  0  0  0  0
  6 10  2  0  0  0  0
  7 11  1  6  0  0  0
  7  9  1  0  0  0  0
  8  2  2  0  0  0  0
  8  1  1  0  0  0  0
  9  3  1  1  0  0  0
 10  9  1  0  0  0  0
 10  5  1  0  0  0  0
 12 18  1  6  0  0  0
 12 15  1  0  0  0  0
 14 12  1  0  0  0  0
 14 16  1  0  0  0  0
 15 13  1  0  0  0  0
 15 22  1  0  0  0  0
 16 11  1  6  0  0  0
 16 13  1  0  0  0  0
 17 18  1  0  0  0  0
 18 20  1  0  0  0  0
 19 18  1  0  0  0  0
 22 21  1  1  0  0  0
 23 22  1  6  0  0  0
 23 24  1  0  0  0  0
 24 25  1  0  0  0  0
 24 29  1  0  0  0  0
 26 23  1  0  0  0  0
 26 24  1  0  0  0  0
 27 26  1  0  0  0  0
 28 27  1  0  0  0  0
 28 26  1  0  0  0  0
 30 31  1  0  0  0  0
 32 31  1  6  0  0  0
 32 37  1  0  0  0  0
 33 32  1  0  0  0  0
 33 35  1  0  0  0  0
 34 37  1  0  0  0  0
 34 36  1  1  0  0  0
 35 34  1  0  0  0  0
 38 40  1  0  0  0  0
 39 38  1  0  0  0  0
 41 31  1  1  0  0  0
 41 43  1  0  0  0  0
 41 42  1  0  0  0  0
 42 39  1  0  0  0  0
 43 40  1  0  0  0  0
M  END
>  <MODEL>
5

>  <REMARK>
 VINA RESULT:      -6.1      2.763      5.494
  Name = 
  9 active torsions:
  status: ('A' for Active; 'I' for Inactive)
    1  A    between atoms: C_1  and  C_40
    2  A    between atoms: C_2  and  C_15
    3  A    between atoms: C_8  and  N_27
    4  A    between atoms: O_16  and  C_31
    5  A    between atoms: O_16  and  C_43
    6  A    between atoms: N_20  and  C_38
    7  A    between atoms: C_25  and  N_27
    8  A    between atoms: N_27  and  C_38
    9  A    between atoms: N_37  and  C_40
                            x       y       z     vdW  Elec       q    Type
                         _______ _______ _______ _____ _____    ______ ____

>  <TORSDO>
F 9

$$$$
=
 OpenBabel11072410113D

 43 48  0  0  1  0  0  0  0  0999 V2000
  161.1690  208.0220  154.3970 C   0  0  0  0  0  0  0  0  0  0  0  0
  161.6450  210.1160  155.6700 C   0  0  0  0  0  3  0  0  0  0  0  0
  158.7930  209.9120  152.3890 F   0  0  0  0  0  0  0  0  0  0  0  0
  161.3110  206.7400  154.4740 N   0  0  0  0  0  2  0  0  0  0  0  0
  160.4280  212.1690  152.8000 N   0  0  0  0  0  2  0  0  0  0  0  0
  161.3080  211.1100  154.6850 N   0  0  0  0  0  0  0  0  0  0  0  0
  160.6310  208.5900  153.1250 C   0  0  1  0  0  3  0  0  0  0  0  0
  161.5730  208.8220  155.5190 N   0  0  0  0  0  0  0  0  0  0  0  0
  159.7250  209.7730  153.4010 C   0  0  1  0  0  3  0  0  0  0  0  0
  160.5210  211.0240  153.6580 C   0  0  0  0  0  0  0  0  0  0  0  0
  161.6690  208.9210  152.2440 O   0  0  0  0  0  0  0  0  0  0  0  0
  162.2910  206.5030  149.7950 C   0  0  1  0  0  3  0  0  0  0  0  0
  161.1630  206.6240  151.8590 C   0  0  0  0  0  2  0  0  0  0  0  0
  162.7290  207.7930  150.4510 C   0  0  0  0  0  2  0  0  0  0  0  0
  161.1350  205.9990  150.5350 N   0  0  0  0  0  0  0  0  0  0  0  0
  162.2290  207.7000  151.8670 C   0  0  1  0  0  3  0  0  0  0  0  0
  160.5860  206.5960  148.1090 F   0  0  0  0  0  0  0  0  0  0  0  0
  161.9500  206.7270  148.3180 C   0  0  0  0  0  0  0  0  0  0  0  0
  162.6190  205.7990  147.5420 F   0  0  0  0  0  0  0  0  0  0  0  0
  162.3520  207.9950  147.9350 F   0  0  0  0  0  0  0  0  0  0  0  0
  160.8040  203.9840  152.0000 C   0  0  0  0  0  1  0  0  0  0  0  0
  161.2210  204.5280  150.6330 C   0  0  1  0  0  3  0  0  0  0  0  0
  160.4450  203.7960  149.5250 C   0  0  2  0  0  3  0  0  0  0  0  0
  160.5870  202.3190  149.6060 C   0  0  0  0  0  0  0  0  0  0  0  0
  161.3390  201.8050  150.6680 O   0  0  0  0  0  1  0  0  0  0  0  0
  161.3760  203.0710  148.5060 C   0  0  0  0  0  0  0  0  0  0  0  0
  161.0220  202.2190  147.2710 C   0  0  0  0  0  2  0  0  0  0  0  0
  160.6840  203.6500  147.2590 C   0  0  0  0  0  2  0  0  0  0  0  0
  159.3960  201.6410  149.3020 O   0  0  0  0  0  1  0  0  0  0  0  0
  159.9420  212.1530  151.4310 C   0  0  0  0  0  2  0  0  0  0  0  0
  160.1110  213.4830  150.8400 N   0  0  0  0  0  0  0  0  0  0  0  0
  158.8620  214.2560  150.9860 C   0  0  1  0  0  3  0  0  0  0  0  0
  157.8110  213.9450  149.9260 C   0  0  0  0  0  2  0  0  0  0  0  0
  156.4860  213.7520  151.9390 C   0  0  2  0  0  3  0  0  0  0  0  0
  156.4740  214.3000  150.5280 C   0  0  0  0  0  2  0  0  0  0  0  0
  155.4340  214.4460  152.7810 C   0  0  0  0  0  1  0  0  0  0  0  0
  158.1330  214.0440  152.6490 S   0  0  0  0  0  0  0  0  0  0  0  0
  162.2100  213.0480  147.1360 C   0  0  0  0  0  2  0  0  0  0  0  0
  161.5170  214.3630  147.5450 C   0  0  0  0  0  2  0  0  0  0  0  0
  162.4340  212.1130  148.3230 C   0  0  0  0  0  2  0  0  0  0  0  0
  160.4670  213.3430  149.4200 C   0  0  1  0  0  3  0  0  0  0  0  0
  161.3310  214.4530  148.9950 N   0  0  0  0  0  2  0  0  0  0  0  0
  161.1650  211.9850  149.1670 C   0  0  0  0  0  2  0  0  0  0  0  0
  1  4  2  0  0  0  0
  1  8  1  0  0  0  0
  5 10  1  0  0  0  0
  6  2  1  0  0  0  0
  7 11  1  6  0  0  0
  7  9  1  0  0  0  0
  7  1  1  0  0  0  0
  8  2  2  0  0  0  0
  9  3  1  6  0  0  0
  9 10  1  0  0  0  0
 10  6  2  0  0  0  0
 12 18  1  6  0  0  0
 12 14  1  0  0  0  0
 12 15  1  0  0  0  0
 13 16  1  0  0  0  0
 14 16  1  0  0  0  0
 15 22  1  0  0  0  0
 15 13  1  0  0  0  0
 16 11  1  6  0  0  0
 17 18  1  0  0  0  0
 19 18  1  0  0  0  0
 20 18  1  0  0  0  0
 22 21  1  1  0  0  0
 23 24  1  0  0  0  0
 23 22  1  1  0  0  0
 24 25  1  0  0  0  0
 26 23  1  0  0  0  0
 26 24  1  0  0  0  0
 27 26  1  0  0  0  0
 28 27  1  0  0  0  0
 28 26  1  0  0  0  0
 29 24  1  0  0  0  0
 30  5  1  0  0  0  0
 31 30  1  0  0  0  0
 32 31  1  1  0  0  0
 32 37  1  0  0  0  0
 33 35  1  0  0  0  0
 33 32  1  0  0  0  0
 34 37  1  0  0  0  0
 34 36  1  1  0  0  0
 35 34  1  0  0  0  0
 38 39  1  0  0  0  0
 38 40  1  0  0  0  0
 39 42  1  0  0  0  0
 40 43  1  0  0  0  0
 41 31  1  1  0  0  0
 42 41  1  0  0  0  0
 43 41  1  0  0  0  0
M  END
>  <MODEL>
6

>  <REMARK>
 VINA RESULT:      -6.0      2.455      3.520
  Name = 
  9 active torsions:
  status: ('A' for Active; 'I' for Inactive)
    1  A    between atoms: C_1  and  C_40
    2  A    between atoms: C_2  and  C_15
    3  A    between atoms: C_8  and  N_27
    4  A    between atoms: O_16  and  C_31
    5  A    between atoms: O_16  and  C_43
    6  A    between atoms: N_20  and  C_38
    7  A    between atoms: C_25  and  N_27
    8  A    between atoms: N_27  and  C_38
    9  A    between atoms: N_37  and  C_40
                            x       y       z     vdW  Elec       q    Type
                         _______ _______ _______ _____ _____    ______ ____

>  <TORSDO>
F 9

$$$$
