=
 OpenBabel11072411003D

 42 46  0  0  1  0  0  0  0  0999 V2000
  161.6520  206.9470  150.8060 C   0  0  0  0  0  2  0  0  0  0  0  0
  160.4840  211.8200  154.9050 C   0  0  0  0  0  3  0  0  0  0  0  0
  162.5670  208.7370  148.6390 C   0  0  0  0  0  2  0  0  0  0  0  0
  161.1110  208.0610  154.6710 C   0  0  0  0  0  0  0  0  0  0  0  0
  162.2610  211.1380  149.3740 C   0  0  2  0  0  3  0  0  0  0  0  0
  159.3820  212.6690  154.7340 C   0  0  0  0  0  0  0  0  0  0  0  0
  162.2010  210.2250  154.1040 C   0  0  0  0  0  2  0  0  0  0  0  0
  157.7120  213.6240  153.2740 O   0  0  0  0  0  1  0  0  0  0  0  0
  160.0810  204.6810  150.4300 C   0  0  0  0  0  2  0  0  0  0  0  0
  158.8020  212.7810  153.4640 C   0  0  0  0  0  0  0  0  0  0  0  0
  160.9990  211.0780  153.8400 C   0  0  0  0  0  0  0  0  0  0  0  0
  161.8260  206.0130  155.5850 O   0  0  0  0  0  1  0  0  0  0  0  0
  160.2020  205.5940  149.2000 C   0  0  2  0  0  3  0  0  0  0  0  0
  161.6710  209.9640  148.5680 C   0  0  1  0  0  3  0  0  0  0  0  0
  161.4310  210.3750  147.1170 C   0  0  0  0  0  2  0  0  0  0  0  0
  160.8040  206.5240  152.0110 C   0  0  1  0  0  3  0  0  0  0  0  0
  159.7060  207.9710  149.6060 C   0  0  0  0  0  1  0  0  0  0  0  0
  160.4110  211.1930  152.5620 C   0  0  0  0  0  0  0  0  0  0  0  0
  160.4470  211.5480  147.0090 C   0  0  0  0  0  2  0  0  0  0  0  0
  160.8320  204.8240  148.0420 C   0  0  0  0  0  2  0  0  0  0  0  0
  162.8110  206.3700  147.8840 C   0  0  2  0  0  3  0  0  0  0  0  0
  159.7200  205.4820  151.6780 C   0  0  0  0  0  2  0  0  0  0  0  0
  162.1050  204.6590  153.1600 C   0  0  0  0  0  1  0  0  0  0  0  0
  161.7110  206.1340  153.1830 C   0  0  2  0  0  3  0  0  0  0  0  0
  158.7070  212.1630  151.1340 O   0  0  0  0  0  1  0  0  0  0  0  0
  162.2490  210.9050  150.8870 C   0  0  0  0  0  2  0  0  0  0  0  0
  160.8590  206.9810  149.4860 C   0  0  1  0  0  0  0  0  0  0  0  0
  161.1060  206.5680  154.5240 C   0  0  2  0  0  3  0  0  0  0  0  0
  162.3450  204.9290  148.1140 C   0  0  0  0  0  2  0  0  0  0  0  0
  161.6340  212.4980  149.0260 C   0  0  0  0  0  2  0  0  0  0  0  0
  160.4010  208.5930  155.5660 O   0  0  0  0  0  0  0  0  0  0  0  0
  161.9430  208.8460  153.8610 O   0  0  0  0  0  0  0  0  0  0  0  0
  159.3090  212.0460  152.3840 C   0  0  0  0  0  0  0  0  0  0  0  0
  160.9050  210.3950  151.3940 C   0  0  0  0  0  2  0  0  0  0  0  0
  160.2950  212.3490  148.3070 C   0  0  0  0  0  2  0  0  0  0  0  0
  161.7970  207.4430  148.3300 C   0  0  1  0  0  3  0  0  0  0  0  0
  162.7130  205.4920  145.6630 O   0  0  0  0  0  1  0  0  0  0  0  0
  163.1570  206.5780  146.4180 C   0  0  0  0  0  2  0  0  0  0  0  0
  158.8500  213.4300  155.7880 O   0  0  0  0  0  0  0  0  0  0  0  0
  157.7560  213.0890  156.5960 C   0  0  0  0  0  0  0  0  0  0  0  0
  157.6720  211.8310  157.2610 N   0  0  0  0  0  1  0  0  0  0  0  0
  156.8080  213.9060  156.7170 O   0  0  0  0  0  0  0  0  0  0  0  0
  4 31  2  0  0  0  0
  5 30  1  1  0  0  0
  5 26  1  0  0  0  0
  6  2  1  0  0  0  0
  6 39  1  0  0  0  0
  8 10  1  0  0  0  0
  9 22  1  0  0  0  0
 10  6  2  0  0  0  0
 11  7  1  0  0  0  0
 11  2  2  0  0  0  0
 13 20  1  6  0  0  0
 13 27  1  0  0  0  0
 13  9  1  0  0  0  0
 14 15  1  6  0  0  0
 14  3  1  0  0  0  0
 14  5  1  0  0  0  0
 16  1  1  6  0  0  0
 16 24  1  0  0  0  0
 18 11  1  0  0  0  0
 19 15  1  0  0  0  0
 19 35  1  0  0  0  0
 20 29  1  0  0  0  0
 21 38  1  6  0  0  0
 21 29  1  0  0  0  0
 21 36  1  0  0  0  0
 22 16  1  0  0  0  0
 24 23  1  1  0  0  0
 24 28  1  0  0  0  0
 25 33  1  0  0  0  0
 26 34  1  0  0  0  0
 27 17  1  1  0  0  0
 27  1  1  0  0  0  0
 28  4  1  0  0  0  0
 28 12  1  1  0  0  0
 32  7  1  0  0  0  0
 32  4  1  0  0  0  0
 33 18  2  0  0  0  0
 33 10  1  0  0  0  0
 34 18  1  0  0  0  0
 35 30  1  0  0  0  0
 36  3  1  1  0  0  0
 36 27  1  0  0  0  0
 37 38  1  0  0  0  0
 39 40  1  0  0  0  0
 40 42  2  0  0  0  0
 40 41  1  0  0  0  0
M  END
>  <MODEL>
1

>  <REMARK>
 VINA RESULT:       9.0      0.000      0.000
  Name = 
  3 active torsions:
  status: ('A' for Active; 'I' for Inactive)
    1  A    between atoms: C_6  and  O_33
    2  A    between atoms: C_9  and  O_33
    3  A    between atoms: C_23  and  C_42
                            x       y       z     vdW  Elec       q    Type
                         _______ _______ _______ _____ _____    ______ ____

>  <TORSDO>
F 3

$$$$
=
 OpenBabel11072411003D

 42 46  0  0  1  0  0  0  0  0999 V2000
  160.8510  211.1130  151.7720 C   0  0  0  0  0  2  0  0  0  0  0  0
  162.4030  205.9370  148.2070 C   0  0  0  0  0  3  0  0  0  0  0  0
  161.4120  209.7530  154.3360 C   0  0  0  0  0  2  0  0  0  0  0  0
  161.9350  209.7250  148.1160 C   0  0  0  0  0  0  0  0  0  0  0  0
  161.9920  207.3350  153.8720 C   0  0  2  0  0  3  0  0  0  0  0  0
  161.5620  204.8180  148.1420 C   0  0  0  0  0  0  0  0  0  0  0  0
  163.2860  207.9890  149.2770 C   0  0  0  0  0  2  0  0  0  0  0  0
  159.8020  203.4900  149.1280 O   0  0  0  0  0  1  0  0  0  0  0  0
  158.7210  212.8520  151.3360 C   0  0  0  0  0  2  0  0  0  0  0  0
  160.6400  204.6000  149.1720 C   0  0  0  0  0  0  0  0  0  0  0  0
  162.3240  206.8400  149.2690 C   0  0  0  0  0  0  0  0  0  0  0  0
  162.3680  211.8510  147.2010 O   0  0  0  0  0  1  0  0  0  0  0  0
  158.6530  212.0650  152.6540 C   0  0  2  0  0  3  0  0  0  0  0  0
  160.8880  208.3260  154.2910 C   0  0  1  0  0  3  0  0  0  0  0  0
  160.2910  207.9270  155.6380 C   0  0  0  0  0  2  0  0  0  0  0  0
  160.3750  211.2250  150.3180 C   0  0  1  0  0  3  0  0  0  0  0  0
  158.9440  209.6300  152.4380 C   0  0  0  0  0  1  0  0  0  0  0  0
  161.3930  206.6180  150.3050 C   0  0  0  0  0  0  0  0  0  0  0  0
  159.6600  206.5280  155.5930 C   0  0  0  0  0  2  0  0  0  0  0  0
  158.6400  213.0320  153.8350 C   0  0  0  0  0  2  0  0  0  0  0  0
  160.7780  212.1220  154.8040 C   0  0  2  0  0  3  0  0  0  0  0  0
  159.0150  211.9280  150.1570 C   0  0  0  0  0  2  0  0  0  0  0  0
  161.4650  213.3310  149.3880 C   0  0  0  0  0  1  0  0  0  0  0  0
  161.4910  211.8060  149.4430 C   0  0  2  0  0  3  0  0  0  0  0  0
  159.6170  205.2650  151.2540 O   0  0  0  0  0  1  0  0  0  0  0  0
  162.4280  207.4900  152.4120 C   0  0  0  0  0  2  0  0  0  0  0  0
  159.6980  210.9120  152.7740 C   0  0  1  0  0  0  0  0  0  0  0  0
  161.5010  211.1600  148.0520 C   0  0  2  0  0  3  0  0  0  0  0  0
  160.0650  213.3590  154.2490 C   0  0  0  0  0  2  0  0  0  0  0  0
  161.6540  205.8700  154.1880 C   0  0  0  0  0  2  0  0  0  0  0  0
  161.7260  208.9750  147.1250 O   0  0  0  0  0  0  0  0  0  0  0  0
  162.6190  209.2460  149.2410 O   0  0  0  0  0  0  0  0  0  0  0  0
  160.5520  205.4950  150.2470 C   0  0  0  0  0  0  0  0  0  0  0  0
  161.2480  207.5730  151.4510 C   0  0  0  0  0  2  0  0  0  0  0  0
  160.1610  205.6610  154.4310 C   0  0  0  0  0  2  0  0  0  0  0  0
  160.2800  210.7870  154.2140 C   0  0  1  0  0  3  0  0  0  0  0  0
  161.7730  212.6810  156.9040 O   0  0  0  0  0  1  0  0  0  0  0  0
  160.6550  212.0850  156.3190 C   0  0  0  0  0  2  0  0  0  0  0  0
  161.6260  203.8920  147.0870 O   0  0  0  0  0  0  0  0  0  0  0  0
  162.2450  204.0830  145.8430 C   0  0  0  0  0  0  0  0  0  0  0  0
  161.5370  203.9280  144.6160 N   0  0  0  0  0  1  0  0  0  0  0  0
  163.4680  204.3760  145.8090 O   0  0  0  0  0  0  0  0  0  0  0  0
  1 27  1  0  0  0  0
  2 11  1  0  0  0  0
  4 32  1  0  0  0  0
  5 26  1  6  0  0  0
  5 30  1  0  0  0  0
  5 14  1  0  0  0  0
  6  2  2  0  0  0  0
  6 10  1  0  0  0  0
  8 10  1  0  0  0  0
 10 33  2  0  0  0  0
 11  7  1  0  0  0  0
 11 18  2  0  0  0  0
 13  9  1  6  0  0  0
 13 27  1  0  0  0  0
 13 20  1  0  0  0  0
 14  3  1  1  0  0  0
 14 15  1  0  0  0  0
 16 22  1  1  0  0  0
 16  1  1  0  0  0  0
 18 34  1  0  0  0  0
 19 15  1  0  0  0  0
 20 29  1  0  0  0  0
 21 38  1  1  0  0  0
 22  9  1  0  0  0  0
 24 23  1  6  0  0  0
 24 16  1  0  0  0  0
 27 17  1  6  0  0  0
 27 36  1  0  0  0  0
 28 12  1  6  0  0  0
 28  4  1  0  0  0  0
 28 24  1  0  0  0  0
 29 21  1  0  0  0  0
 30 35  1  0  0  0  0
 31  4  2  0  0  0  0
 32  7  1  0  0  0  0
 33 18  1  0  0  0  0
 33 25  1  0  0  0  0
 34 26  1  0  0  0  0
 35 19  1  0  0  0  0
 36  3  1  6  0  0  0
 36 21  1  0  0  0  0
 38 37  1  0  0  0  0
 39  6  1  0  0  0  0
 40 39  1  0  0  0  0
 41 40  1  0  0  0  0
 42 40  2  0  0  0  0
M  END
>  <MODEL>
2

>  <REMARK>
 VINA RESULT:       9.8      3.281      8.875
  Name = 
  3 active torsions:
  status: ('A' for Active; 'I' for Inactive)
    1  A    between atoms: C_6  and  O_33
    2  A    between atoms: C_9  and  O_33
    3  A    between atoms: C_23  and  C_42
                            x       y       z     vdW  Elec       q    Type
                         _______ _______ _______ _____ _____    ______ ____

>  <TORSDO>
F 3

$$$$
=
 OpenBabel11072411003D

 42 46  0  0  1  0  0  0  0  0999 V2000
  160.2460  210.1540  154.9430 C   0  0  0  0  0  2  0  0  0  0  0  0
  161.5250  206.6900  149.6250 C   0  0  0  0  0  3  0  0  0  0  0  0
  158.8680  212.2980  153.4460 C   0  0  0  0  0  2  0  0  0  0  0  0
  161.2270  206.5190  153.4280 C   0  0  0  0  0  0  0  0  0  0  0  0
  159.0490  211.8160  150.9690 C   0  0  2  0  0  3  0  0  0  0  0  0
  162.5070  207.0940  148.7100 C   0  0  0  0  0  0  0  0  0  0  0  0
  159.8690  207.0900  151.4230 C   0  0  0  0  0  2  0  0  0  0  0  0
  163.8550  208.8620  147.7660 O   0  0  0  0  0  1  0  0  0  0  0  0
  161.9540  210.5760  157.1010 C   0  0  0  0  0  2  0  0  0  0  0  0
  162.8870  208.4410  148.6730 C   0  0  0  0  0  0  0  0  0  0  0  0
  160.9360  207.6010  150.5040 C   0  0  0  0  0  0  0  0  0  0  0  0
  160.8450  205.3430  155.4310 O   0  0  0  0  0  1  0  0  0  0  0  0
  161.5730  211.8440  156.3210 C   0  0  2  0  0  3  0  0  0  0  0  0
  159.6250  212.6030  152.1630 C   0  0  1  0  0  3  0  0  0  0  0  0
  159.6160  214.1020  151.8730 C   0  0  0  0  0  2  0  0  0  0  0  0
  161.2940  209.0600  155.1800 C   0  0  1  0  0  3  0  0  0  0  0  0
  161.8970  211.7130  153.8830 C   0  0  0  0  0  1  0  0  0  0  0  0
  161.3220  208.9580  150.4640 C   0  0  0  0  0  0  0  0  0  0  0  0
  160.4610  214.4530  150.6400 C   0  0  0  0  0  2  0  0  0  0  0  0
  160.8600  212.8270  157.2460 C   0  0  0  0  0  2  0  0  0  0  0  0
  158.7420  212.8120  155.8860 C   0  0  2  0  0  3  0  0  0  0  0  0
  162.4120  209.4660  156.1580 C   0  0  0  0  0  2  0  0  0  0  0  0
  160.3510  207.5790  157.0270 C   0  0  0  0  0  1  0  0  0  0  0  0
  160.6040  207.7370  155.5290 C   0  0  2  0  0  3  0  0  0  0  0  0
  162.7060  210.7000  149.4990 O   0  0  0  0  0  1  0  0  0  0  0  0
  159.2990  210.3080  151.0560 C   0  0  0  0  0  2  0  0  0  0  0  0
  160.8370  211.5770  154.9710 C   0  0  1  0  0  0  0  0  0  0  0  0
  161.3510  206.5420  154.9230 C   0  0  2  0  0  3  0  0  0  0  0  0
  159.3690  212.5370  157.2560 C   0  0  0  0  0  2  0  0  0  0  0  0
  159.4900  212.3640  149.6030 C   0  0  0  0  0  2  0  0  0  0  0  0
  162.0040  205.7870  152.7580 O   0  0  0  0  0  0  0  0  0  0  0  0
  160.2180  207.2560  152.7940 O   0  0  0  0  0  0  0  0  0  0  0  0
  162.3020  209.3690  149.5460 C   0  0  0  0  0  0  0  0  0  0  0  0
  160.7430  209.9690  151.4060 C   0  0  0  0  0  2  0  0  0  0  0  0
  160.7200  213.2620  149.7100 C   0  0  0  0  0  2  0  0  0  0  0  0
  159.7040  212.6120  154.6980 C   0  0  1  0  0  3  0  0  0  0  0  0
  156.8370  214.1860  155.4420 O   0  0  0  0  0  1  0  0  0  0  0  0
  158.1720  214.2210  155.8460 C   0  0  0  0  0  2  0  0  0  0  0  0
  163.1100  206.1970  147.8130 O   0  0  0  0  0  0  0  0  0  0  0  0
  162.4690  205.4720  146.7980 C   0  0  0  0  0  0  0  0  0  0  0  0
  161.6950  204.3080  147.0750 N   0  0  0  0  0  1  0  0  0  0  0  0
  162.6020  205.8460  145.6040 O   0  0  0  0  0  0  0  0  0  0  0  0
  1 27  1  0  0  0  0
  2 11  1  0  0  0  0
  4 28  1  0  0  0  0
  5 30  1  6  0  0  0
  5 26  1  0  0  0  0
  5 14  1  0  0  0  0
  6  2  2  0  0  0  0
  7 32  1  0  0  0  0
  8 10  1  0  0  0  0
 10  6  1  0  0  0  0
 10 33  2  0  0  0  0
 11  7  1  0  0  0  0
 13  9  1  1  0  0  0
 13 20  1  0  0  0  0
 14 15  1  6  0  0  0
 14  3  1  0  0  0  0
 16  1  1  1  0  0  0
 16 24  1  0  0  0  0
 16 22  1  0  0  0  0
 18 11  2  0  0  0  0
 18 34  1  0  0  0  0
 19 15  1  0  0  0  0
 20 29  1  0  0  0  0
 21 38  1  1  0  0  0
 21 29  1  0  0  0  0
 22  9  1  0  0  0  0
 24 23  1  1  0  0  0
 25 33  1  0  0  0  0
 26 34  1  0  0  0  0
 27 17  1  6  0  0  0
 27 13  1  0  0  0  0
 28 12  1  1  0  0  0
 28 24  1  0  0  0  0
 30 35  1  0  0  0  0
 31  4  2  0  0  0  0
 32  4  1  0  0  0  0
 33 18  1  0  0  0  0
 35 19  1  0  0  0  0
 36  3  1  6  0  0  0
 36 27  1  0  0  0  0
 36 21  1  0  0  0  0
 37 38  1  0  0  0  0
 39  6  1  0  0  0  0
 40 41  1  0  0  0  0
 40 39  1  0  0  0  0
 42 40  2  0  0  0  0
M  END
>  <MODEL>
3

>  <REMARK>
 VINA RESULT:      11.3      2.734      7.786
  Name = 
  3 active torsions:
  status: ('A' for Active; 'I' for Inactive)
    1  A    between atoms: C_6  and  O_33
    2  A    between atoms: C_9  and  O_33
    3  A    between atoms: C_23  and  C_42
                            x       y       z     vdW  Elec       q    Type
                         _______ _______ _______ _____ _____    ______ ____

>  <TORSDO>
F 3

$$$$
