=
 OpenBabel11072411003D

 42 43  0  0  1  0  0  0  0  0999 V2000
  160.7960  208.9760  152.8400 C   0  0  0  0  0  3  0  0  0  0  0  0
  161.1070  207.7600  152.3680 C   0  0  0  0  0  0  0  0  0  0  0  0
  162.3750  207.7960  148.7960 C   0  0  0  0  0  3  0  0  0  0  0  0
  161.6020  206.7890  148.2050 C   0  0  0  0  0  0  0  0  0  0  0  0
  162.1980  208.1110  150.1440 C   0  0  0  0  0  3  0  0  0  0  0  0
  160.4380  206.4620  150.3020 C   0  0  0  0  0  3  0  0  0  0  0  0
  160.6200  206.1390  148.9560 C   0  0  0  0  0  3  0  0  0  0  0  0
  161.2450  207.4310  150.9210 C   0  0  0  0  0  0  0  0  0  0  0  0
  161.8260  206.3800  146.7840 C   0  0  0  0  0  2  0  0  0  0  0  0
  163.4160  205.0620  145.5800 O   0  0  0  0  0  1  0  0  0  0  0  0
  162.5480  205.0350  146.6720 C   0  0  2  0  0  3  0  0  0  0  0  0
  160.7650  203.8600  145.5900 O   0  0  0  0  0  0  0  0  0  0  0  0
  161.5940  203.8900  146.5390 C   0  0  0  0  0  0  0  0  0  0  0  0
  161.6160  202.8510  147.5210 N   0  0  0  0  0  2  0  0  0  0  0  0
  160.6130  201.7940  147.5980 C   0  0  2  0  0  3  0  0  0  0  0  0
  161.1660  203.0920  150.6340 O   0  0  0  0  0  0  0  0  0  0  0  0
  160.5970  202.1970  149.9570 C   0  0  0  0  0  0  0  0  0  0  0  0
  159.3500  201.3890  149.5830 N   0  0  0  0  0  2  0  0  0  0  0  0
  160.6040  201.1930  148.9990 C   0  0  1  0  0  3  0  0  0  0  0  0
  160.3730  200.7950  145.3130 O   0  0  0  0  0  0  0  0  0  0  0  0
  161.6810  199.7780  146.8960 O   0  0  0  0  0  1  0  0  0  0  0  0
  160.9040  200.7210  146.5970 C   0  0  0  0  0  0  0  0  0  0  0  0
  160.5320  210.2120  152.0320 C   0  0  0  0  0  2  0  0  0  0  0  0
  159.7700  211.3120  152.7830 C   0  0  2  0  0  3  0  0  0  0  0  0
  159.6880  212.6530  152.0370 C   0  0  2  0  0  3  0  0  0  0  0  0
  157.5440  213.4800  152.5840 O   0  0  0  0  0  0  0  0  0  0  0  0
  158.2770  213.0390  151.7130 C   0  0  0  0  0  3  0  0  0  0  0  0
  160.4480  212.5860  150.8630 O   0  0  0  0  0  0  0  0  0  0  0  0
  160.0170  213.6630  150.0840 C   0  0  0  0  0  2  0  0  0  0  0  0
  160.2720  213.3730  148.6150 C   0  0  0  0  0  2  0  0  0  0  0  0
  162.5890  213.6630  148.1380 O   0  0  0  0  0  0  0  0  0  0  0  0
  161.6610  212.8670  148.4360 C   0  0  0  0  0  0  0  0  0  0  0  0
  161.9400  211.5210  148.6340 O   0  0  0  0  0  1  0  0  0  0  0  0
  160.1720  211.4300  154.2520 C   0  0  0  0  0  2  0  0  0  0  0  0
  158.9950  211.1230  155.1690 C   0  0  0  0  0  2  0  0  0  0  0  0
  157.1900  212.1760  156.5390 C   0  0  0  0  0  1  0  0  0  0  0  0
  158.5870  212.3480  155.9740 C   0  0  0  0  0  2  0  0  0  0  0  0
  161.2460  206.6750  153.3910 C   0  0  0  0  0  2  0  0  0  0  0  0
  161.5400  207.2100  154.6770 O   0  0  0  0  0  0  0  0  0  0  0  0
  160.5990  207.2480  155.7080 C   0  0  0  0  0  0  0  0  0  0  0  0
  160.9420  207.5080  156.8910 O   0  0  0  0  0  0  0  0  0  0  0  0
  159.2960  206.9960  155.4290 F   0  0  0  0  0  0  0  0  0  0  0  0
  2  1  2  0  0  0  0
  2 38  1  0  0  0  0
  3  5  1  0  0  0  0
  4  3  2  0  0  0  0
  4  7  1  0  0  0  0
  5  8  2  0  0  0  0
  6  8  1  0  0  0  0
  7  6  2  0  0  0  0
  8  2  1  0  0  0  0
  9  4  1  0  0  0  0
 11 10  1  6  0  0  0
 11  9  1  0  0  0  0
 12 13  2  0  0  0  0
 13 11  1  0  0  0  0
 13 14  1  0  0  0  0
 14 15  1  0  0  0  0
 15 22  1  6  0  0  0
 17 16  2  0  0  0  0
 18 17  1  0  0  0  0
 19 15  1  6  0  0  0
 19 18  1  0  0  0  0
 19 17  1  0  0  0  0
 20 22  2  0  0  0  0
 22 21  1  0  0  0  0
 23  1  1  0  0  0  0
 24 23  1  6  0  0  0
 24 34  1  0  0  0  0
 25 27  1  6  0  0  0
 25 24  1  0  0  0  0
 27 26  2  0  0  0  0
 28 25  1  0  0  0  0
 29 28  1  0  0  0  0
 30 29  1  0  0  0  0
 31 32  2  0  0  0  0
 32 30  1  0  0  0  0
 32 33  1  0  0  0  0
 34 35  1  0  0  0  0
 35 37  1  0  0  0  0
 37 36  1  0  0  0  0
 38 39  1  0  0  0  0
 39 40  1  0  0  0  0
 40 41  2  0  0  0  0
 42 40  1  0  0  0  0
M  END
>  <MODEL>
1

>  <REMARK>
 VINA RESULT:      -7.0      0.000      0.000
  Name = 
  21 active torsions:
  status: ('A' for Active; 'I' for Inactive)
    1  A    between atoms: C_3  and  O_8
    2  A    between atoms: C_7  and  C_19
    3  A    between atoms: O_8  and  C_33
    4  A    between atoms: C_9  and  C_10
    5  A    between atoms: C_10  and  C_26
    6  A    between atoms: C_12  and  C_41
    7  A    between atoms: C_13  and  C_34
    8  A    between atoms: C_17  and  C_26
    9  A    between atoms: C_18  and  C_23
   10  A    between atoms: C_18  and  N_39
   11  A    between atoms: C_18  and  CA_42
   12  A    between atoms: C_19  and  C_30
   13  A    between atoms: C_20  and  O_37
   14  A    between atoms: C_20  and  C_41
   15  A    between atoms: C_24  and  C_33
   16  A    between atoms: C_24  and  C_38
   17  A    between atoms: C_28  and  C_31
   18  A    between atoms: C_30  and  C_32
   19  A    between atoms: C_31  and  C_32
   20  A    between atoms: C_31  and  O_37
   21  A    between atoms: C_32  and  C_34
                            x       y       z     vdW  Elec       q    Type
                         _______ _______ _______ _____ _____    ______ ____

>  <TORSDO>
F 21

$$$$
=
 OpenBabel11072411003D

 42 43  0  0  1  0  0  0  0  0999 V2000
  161.3820  208.0440  152.5680 C   0  0  0  0  0  3  0  0  0  0  0  0
  161.7330  206.9740  151.8420 C   0  0  0  0  0  0  0  0  0  0  0  0
  160.1440  206.2100  148.4860 C   0  0  0  0  0  3  0  0  0  0  0  0
  161.1050  206.6990  147.5930 C   0  0  0  0  0  0  0  0  0  0  0  0
  160.3630  206.2930  149.8610 C   0  0  0  0  0  3  0  0  0  0  0  0
  162.5240  207.2960  149.4610 C   0  0  0  0  0  3  0  0  0  0  0  0
  162.3030  207.2220  148.0850 C   0  0  0  0  0  3  0  0  0  0  0  0
  161.5440  206.8600  150.3680 C   0  0  0  0  0  0  0  0  0  0  0  0
  160.8600  206.6930  146.1180 C   0  0  0  0  0  2  0  0  0  0  0  0
  161.5230  205.7420  144.0280 O   0  0  0  0  0  1  0  0  0  0  0  0
  161.9270  205.9070  145.3530 C   0  0  2  0  0  3  0  0  0  0  0  0
  163.3810  204.2540  146.2940 O   0  0  0  0  0  0  0  0  0  0  0  0
  162.2040  204.5750  145.9740 C   0  0  0  0  0  0  0  0  0  0  0  0
  161.1210  203.6610  146.1680 N   0  0  0  0  0  2  0  0  0  0  0  0
  161.3020  202.2740  146.5830 C   0  0  2  0  0  3  0  0  0  0  0  0
  159.1580  202.7140  144.0500 O   0  0  0  0  0  0  0  0  0  0  0  0
  159.7780  201.8960  144.7780 C   0  0  0  0  0  0  0  0  0  0  0  0
  160.6620  200.6570  144.9480 N   0  0  0  0  0  2  0  0  0  0  0  0
  160.1780  201.4150  146.0170 C   0  0  1  0  0  3  0  0  0  0  0  0
  161.4580  203.3100  148.8590 O   0  0  0  0  0  1  0  0  0  0  0  0
  161.1110  201.0570  148.6280 O   0  0  0  0  0  0  0  0  0  0  0  0
  161.3060  202.1700  148.0760 C   0  0  0  0  0  0  0  0  0  0  0  0
  160.7480  209.3060  152.0590 C   0  0  0  0  0  2  0  0  0  0  0  0
  160.2250  210.2420  153.1560 C   0  0  2  0  0  3  0  0  0  0  0  0
  160.1780  211.7260  152.7580 C   0  0  2  0  0  3  0  0  0  0  0  0
  157.9150  212.0330  153.3630 O   0  0  0  0  0  0  0  0  0  0  0  0
  159.0570  212.4590  153.4290 C   0  0  0  0  0  3  0  0  0  0  0  0
  160.0600  211.8360  151.3680 O   0  0  0  0  0  0  0  0  0  0  0  0
  160.2870  213.1860  151.0850 C   0  0  0  0  0  2  0  0  0  0  0  0
  160.5230  213.3700  149.5970 C   0  0  0  0  0  2  0  0  0  0  0  0
  159.1300  213.2840  147.6650 O   0  0  0  0  0  0  0  0  0  0  0  0
  159.2200  213.5310  148.8960 C   0  0  0  0  0  0  0  0  0  0  0  0
  158.0920  213.9190  149.6080 O   0  0  0  0  0  1  0  0  0  0  0  0
  160.8480  209.9750  154.5260 C   0  0  0  0  0  2  0  0  0  0  0  0
  159.7820  209.6260  155.5550 C   0  0  0  0  0  2  0  0  0  0  0  0
  159.6050  207.2100  156.1700 C   0  0  0  0  0  1  0  0  0  0  0  0
  160.2620  208.5360  156.5020 C   0  0  0  0  0  2  0  0  0  0  0  0
  162.2800  205.8100  152.6100 C   0  0  0  0  0  2  0  0  0  0  0  0
  161.2620  204.8600  152.9060 O   0  0  0  0  0  0  0  0  0  0  0  0
  161.0400  203.7280  152.1180 C   0  0  0  0  0  0  0  0  0  0  0  0
  161.8810  202.7920  152.0760 O   0  0  0  0  0  0  0  0  0  0  0  0
  159.9040  203.6400  151.3850 F   0  0  0  0  0  0  0  0  0  0  0  0
  2  1  2  0  0  0  0
  2 38  1  0  0  0  0
  3  5  1  0  0  0  0
  4  7  1  0  0  0  0
  4  3  2  0  0  0  0
  5  8  2  0  0  0  0
  6  8  1  0  0  0  0
  7  6  2  0  0  0  0
  8  2  1  0  0  0  0
  9  4  1  0  0  0  0
 11 10  1  6  0  0  0
 11 13  1  0  0  0  0
 11  9  1  0  0  0  0
 13 14  1  0  0  0  0
 13 12  2  0  0  0  0
 15 14  1  1  0  0  0
 15 22  1  0  0  0  0
 16 17  2  0  0  0  0
 17 18  1  0  0  0  0
 17 19  1  0  0  0  0
 18 19  1  0  0  0  0
 19 15  1  6  0  0  0
 22 21  2  0  0  0  0
 22 20  1  0  0  0  0
 23  1  1  0  0  0  0
 24 23  1  6  0  0  0
 24 34  1  0  0  0  0
 25 24  1  0  0  0  0
 25 27  1  1  0  0  0
 26 27  2  0  0  0  0
 28 25  1  0  0  0  0
 29 28  1  0  0  0  0
 30 29  1  0  0  0  0
 31 32  2  0  0  0  0
 32 30  1  0  0  0  0
 32 33  1  0  0  0  0
 34 35  1  0  0  0  0
 35 37  1  0  0  0  0
 36 37  1  0  0  0  0
 38 39  1  0  0  0  0
 40 39  1  0  0  0  0
 41 40  2  0  0  0  0
 42 40  1  0  0  0  0
M  END
>  <MODEL>
2

>  <REMARK>
 VINA RESULT:      -6.5      2.117      3.122
  Name = 
  21 active torsions:
  status: ('A' for Active; 'I' for Inactive)
    1  A    between atoms: C_3  and  O_8
    2  A    between atoms: C_7  and  C_19
    3  A    between atoms: O_8  and  C_33
    4  A    between atoms: C_9  and  C_10
    5  A    between atoms: C_10  and  C_26
    6  A    between atoms: C_12  and  C_41
    7  A    between atoms: C_13  and  C_34
    8  A    between atoms: C_17  and  C_26
    9  A    between atoms: C_18  and  C_23
   10  A    between atoms: C_18  and  N_39
   11  A    between atoms: C_18  and  CA_42
   12  A    between atoms: C_19  and  C_30
   13  A    between atoms: C_20  and  O_37
   14  A    between atoms: C_20  and  C_41
   15  A    between atoms: C_24  and  C_33
   16  A    between atoms: C_24  and  C_38
   17  A    between atoms: C_28  and  C_31
   18  A    between atoms: C_30  and  C_32
   19  A    between atoms: C_31  and  C_32
   20  A    between atoms: C_31  and  O_37
   21  A    between atoms: C_32  and  C_34
                            x       y       z     vdW  Elec       q    Type
                         _______ _______ _______ _____ _____    ______ ____

>  <TORSDO>
F 21

$$$$
=
 OpenBabel11072411003D

 42 43  0  0  1  0  0  0  0  0999 V2000
  160.1070  211.7410  153.9200 C   0  0  0  0  0  3  0  0  0  0  0  0
  161.0830  210.8290  154.0310 C   0  0  0  0  0  0  0  0  0  0  0  0
  160.8600  207.4590  152.3110 C   0  0  0  0  0  3  0  0  0  0  0  0
  161.6740  207.6520  151.1890 C   0  0  0  0  0  0  0  0  0  0  0  0
  160.6850  208.4910  153.2330 C   0  0  0  0  0  3  0  0  0  0  0  0
  162.1800  209.8930  151.9530 C   0  0  0  0  0  3  0  0  0  0  0  0
  162.3500  208.8640  151.0250 C   0  0  0  0  0  3  0  0  0  0  0  0
  161.3220  209.7300  153.0530 C   0  0  0  0  0  0  0  0  0  0  0  0
  161.8160  206.5890  150.1470 C   0  0  0  0  0  2  0  0  0  0  0  0
  161.3050  208.3910  148.6620 O   0  0  0  0  0  1  0  0  0  0  0  0
  161.9750  207.1690  148.7400 C   0  0  2  0  0  3  0  0  0  0  0  0
  160.7390  206.6740  146.7510 O   0  0  0  0  0  0  0  0  0  0  0  0
  161.4680  206.2390  147.6840 C   0  0  0  0  0  0  0  0  0  0  0  0
  161.7940  204.8490  147.7670 N   0  0  0  0  0  2  0  0  0  0  0  0
  161.2020  203.8300  146.9080 C   0  0  2  0  0  3  0  0  0  0  0  0
  160.1100  201.8860  149.4050 O   0  0  0  0  0  0  0  0  0  0  0  0
  160.6590  201.9410  148.2740 C   0  0  0  0  0  0  0  0  0  0  0  0
  160.7770  201.4820  146.8180 N   0  0  0  0  0  2  0  0  0  0  0  0
  161.6090  202.4440  147.3950 C   0  0  1  0  0  3  0  0  0  0  0  0
  160.7190  204.2420  144.4840 O   0  0  0  0  0  0  0  0  0  0  0  0
  162.8780  204.0180  145.2190 O   0  0  0  0  0  1  0  0  0  0  0  0
  161.6500  204.0120  145.4920 C   0  0  0  0  0  0  0  0  0  0  0  0
  159.0900  211.8370  152.8210 C   0  0  0  0  0  2  0  0  0  0  0  0
  158.3000  213.1530  152.8000 C   0  0  2  0  0  3  0  0  0  0  0  0
  158.3160  213.8840  151.4490 C   0  0  2  0  0  3  0  0  0  0  0  0
  156.5220  213.7100  149.9220 O   0  0  0  0  0  0  0  0  0  0  0  0
  156.9370  214.2050  150.9580 C   0  0  0  0  0  3  0  0  0  0  0  0
  158.9940  213.1080  150.5010 O   0  0  0  0  0  0  0  0  0  0  0  0
  160.0740  213.8910  150.0880 C   0  0  0  0  0  2  0  0  0  0  0  0
  160.9410  213.1060  149.1190 C   0  0  0  0  0  2  0  0  0  0  0  0
  159.6310  214.0930  147.3900 O   0  0  0  0  0  1  0  0  0  0  0  0
  160.3130  213.1050  147.7700 C   0  0  0  0  0  0  0  0  0  0  0  0
  160.5090  212.0300  146.9130 O   0  0  0  0  0  0  0  0  0  0  0  0
  158.5820  214.0470  154.0060 C   0  0  0  0  0  2  0  0  0  0  0  0
  157.2990  214.3780  154.7560 C   0  0  0  0  0  2  0  0  0  0  0  0
  154.8880  214.1130  154.1550 C   0  0  0  0  0  1  0  0  0  0  0  0
  156.1930  213.3880  154.4260 C   0  0  0  0  0  2  0  0  0  0  0  0
  161.9210  210.9120  155.2710 C   0  0  0  0  0  2  0  0  0  0  0  0
  161.2030  210.4540  156.4120 O   0  0  0  0  0  0  0  0  0  0  0  0
  161.0960  209.1010  156.7400 C   0  0  0  0  0  0  0  0  0  0  0  0
  159.9980  208.6070  157.1080 O   0  0  0  0  0  0  0  0  0  0  0  0
  162.1940  208.3100  156.6640 F   0  0  0  0  0  0  0  0  0  0  0  0
  1  2  2  0  0  0  0
  2 38  1  0  0  0  0
  3  5  1  0  0  0  0
  4  3  2  0  0  0  0
  6  8  1  0  0  0  0
  7  4  1  0  0  0  0
  7  6  2  0  0  0  0
  8  5  2  0  0  0  0
  8  2  1  0  0  0  0
  9  4  1  0  0  0  0
 11 10  1  1  0  0  0
 11  9  1  0  0  0  0
 12 13  2  0  0  0  0
 13 14  1  0  0  0  0
 13 11  1  0  0  0  0
 15 22  1  6  0  0  0
 15 14  1  0  0  0  0
 17 16  2  0  0  0  0
 18 19  1  0  0  0  0
 18 17  1  0  0  0  0
 19 15  1  6  0  0  0
 19 17  1  0  0  0  0
 20 22  2  0  0  0  0
 21 22  1  0  0  0  0
 23  1  1  0  0  0  0
 24 23  1  6  0  0  0
 24 34  1  0  0  0  0
 25 27  1  6  0  0  0
 25 24  1  0  0  0  0
 26 27  2  0  0  0  0
 28 25  1  0  0  0  0
 29 28  1  0  0  0  0
 30 29  1  0  0  0  0
 31 32  1  0  0  0  0
 32 30  1  0  0  0  0
 33 32  2  0  0  0  0
 34 35  1  0  0  0  0
 36 37  1  0  0  0  0
 37 35  1  0  0  0  0
 38 39  1  0  0  0  0
 39 40  1  0  0  0  0
 40 41  2  0  0  0  0
 42 40  1  0  0  0  0
M  END
>  <MODEL>
3

>  <REMARK>
 VINA RESULT:      -6.2      1.876      3.040
  Name = 
  21 active torsions:
  status: ('A' for Active; 'I' for Inactive)
    1  A    between atoms: C_3  and  O_8
    2  A    between atoms: C_7  and  C_19
    3  A    between atoms: O_8  and  C_33
    4  A    between atoms: C_9  and  C_10
    5  A    between atoms: C_10  and  C_26
    6  A    between atoms: C_12  and  C_41
    7  A    between atoms: C_13  and  C_34
    8  A    between atoms: C_17  and  C_26
    9  A    between atoms: C_18  and  C_23
   10  A    between atoms: C_18  and  N_39
   11  A    between atoms: C_18  and  CA_42
   12  A    between atoms: C_19  and  C_30
   13  A    between atoms: C_20  and  O_37
   14  A    between atoms: C_20  and  C_41
   15  A    between atoms: C_24  and  C_33
   16  A    between atoms: C_24  and  C_38
   17  A    between atoms: C_28  and  C_31
   18  A    between atoms: C_30  and  C_32
   19  A    between atoms: C_31  and  C_32
   20  A    between atoms: C_31  and  O_37
   21  A    between atoms: C_32  and  C_34
                            x       y       z     vdW  Elec       q    Type
                         _______ _______ _______ _____ _____    ______ ____

>  <TORSDO>
F 21

$$$$
=
 OpenBabel11072411003D

 42 43  0  0  1  0  0  0  0  0999 V2000
  160.9470  209.8800  152.9300 C   0  0  0  0  0  3  0  0  0  0  0  0
  161.2270  208.6160  152.5840 C   0  0  0  0  0  0  0  0  0  0  0  0
  160.4470  206.4200  149.5940 C   0  0  0  0  0  3  0  0  0  0  0  0
  161.0420  207.1340  148.5480 C   0  0  0  0  0  0  0  0  0  0  0  0
  160.5230  206.9030  150.9010 C   0  0  0  0  0  3  0  0  0  0  0  0
  161.8380  208.7800  150.1350 C   0  0  0  0  0  3  0  0  0  0  0  0
  161.7550  208.3030  148.8260 C   0  0  0  0  0  3  0  0  0  0  0  0
  161.1970  208.1020  151.1850 C   0  0  0  0  0  0  0  0  0  0  0  0
  160.9080  206.6780  147.1300 C   0  0  0  0  0  2  0  0  0  0  0  0
  162.1940  206.1040  145.1980 O   0  0  0  0  0  1  0  0  0  0  0  0
  162.1990  206.0560  146.5930 C   0  0  2  0  0  3  0  0  0  0  0  0
  163.4650  204.0390  146.8350 O   0  0  0  0  0  0  0  0  0  0  0  0
  162.3820  204.6450  147.0560 C   0  0  0  0  0  0  0  0  0  0  0  0
  161.3000  203.9860  147.7200 N   0  0  0  0  0  2  0  0  0  0  0  0
  161.2990  202.5630  148.0400 C   0  0  2  0  0  3  0  0  0  0  0  0
  160.5860  202.9390  144.7910 O   0  0  0  0  0  0  0  0  0  0  0  0
  160.6430  202.1570  145.7750 C   0  0  0  0  0  0  0  0  0  0  0  0
  161.0770  200.8330  146.4100 N   0  0  0  0  0  2  0  0  0  0  0  0
  160.3640  201.8210  147.0930 C   0  0  1  0  0  3  0  0  0  0  0  0
  160.1250  201.2090  149.7910 O   0  0  0  0  0  0  0  0  0  0  0  0
  161.1940  203.1580  150.3500 O   0  0  0  0  0  1  0  0  0  0  0  0
  160.8550  202.3440  149.4520 C   0  0  0  0  0  0  0  0  0  0  0  0
  160.5600  210.9990  152.0080 C   0  0  0  0  0  2  0  0  0  0  0  0
  159.5930  212.0210  152.6200 C   0  0  2  0  0  3  0  0  0  0  0  0
  159.3950  213.2930  151.7810 C   0  0  2  0  0  3  0  0  0  0  0  0
  157.2940  214.2580  152.2670 O   0  0  0  0  0  0  0  0  0  0  0  0
  158.5000  214.2870  152.4560 C   0  0  0  0  0  3  0  0  0  0  0  0
  158.8730  212.9520  150.5270 O   0  0  0  0  0  0  0  0  0  0  0  0
  159.4120  213.8860  149.6380 C   0  0  0  0  0  2  0  0  0  0  0  0
  160.8570  213.5340  149.3330 C   0  0  0  0  0  2  0  0  0  0  0  0
  161.4410  211.6660  147.9740 O   0  0  0  0  0  1  0  0  0  0  0  0
  160.9380  212.8180  148.0310 C   0  0  0  0  0  0  0  0  0  0  0  0
  160.4240  213.4070  146.8820 O   0  0  0  0  0  0  0  0  0  0  0  0
  159.8440  212.2780  154.1050 C   0  0  0  0  0  2  0  0  0  0  0  0
  158.7110  211.7240  154.9580 C   0  0  0  0  0  2  0  0  0  0  0  0
  160.7170  211.3530  156.4010 C   0  0  0  0  0  1  0  0  0  0  0  0
  159.2020  211.3260  156.3410 C   0  0  0  0  0  2  0  0  0  0  0  0
  161.5130  207.6740  153.7130 C   0  0  0  0  0  2  0  0  0  0  0  0
  160.6020  207.8650  154.7900 O   0  0  0  0  0  0  0  0  0  0  0  0
  160.9450  207.6070  156.1190 C   0  0  0  0  0  0  0  0  0  0  0  0
  160.2190  206.8800  156.8470 O   0  0  0  0  0  0  0  0  0  0  0  0
  162.0740  208.1520  156.6320 F   0  0  0  0  0  0  0  0  0  0  0  0
  2  1  2  0  0  0  0
  2 38  1  0  0  0  0
  3  5  1  0  0  0  0
  4  7  1  0  0  0  0
  4  3  2  0  0  0  0
  5  8  2  0  0  0  0
  6  8  1  0  0  0  0
  7  6  2  0  0  0  0
  8  2  1  0  0  0  0
  9  4  1  0  0  0  0
 11 10  1  6  0  0  0
 11 13  1  0  0  0  0
 11  9  1  0  0  0  0
 12 13  2  0  0  0  0
 13 14  1  0  0  0  0
 15 14  1  6  0  0  0
 15 22  1  0  0  0  0
 16 17  2  0  0  0  0
 17 18  1  0  0  0  0
 17 19  1  0  0  0  0
 18 19  1  0  0  0  0
 19 15  1  1  0  0  0
 22 20  2  0  0  0  0
 22 21  1  0  0  0  0
 23  1  1  0  0  0  0
 24 23  1  6  0  0  0
 24 34  1  0  0  0  0
 25 27  1  1  0  0  0
 25 24  1  0  0  0  0
 26 27  2  0  0  0  0
 28 25  1  0  0  0  0
 29 28  1  0  0  0  0
 30 29  1  0  0  0  0
 31 32  1  0  0  0  0
 32 30  1  0  0  0  0
 33 32  2  0  0  0  0
 34 35  1  0  0  0  0
 35 37  1  0  0  0  0
 37 36  1  0  0  0  0
 38 39  1  0  0  0  0
 39 40  1  0  0  0  0
 40 42  1  0  0  0  0
 40 41  2  0  0  0  0
M  END
>  <MODEL>
4

>  <REMARK>
 VINA RESULT:      -6.2      1.415      2.306
  Name = 
  21 active torsions:
  status: ('A' for Active; 'I' for Inactive)
    1  A    between atoms: C_3  and  O_8
    2  A    between atoms: C_7  and  C_19
    3  A    between atoms: O_8  and  C_33
    4  A    between atoms: C_9  and  C_10
    5  A    between atoms: C_10  and  C_26
    6  A    between atoms: C_12  and  C_41
    7  A    between atoms: C_13  and  C_34
    8  A    between atoms: C_17  and  C_26
    9  A    between atoms: C_18  and  C_23
   10  A    between atoms: C_18  and  N_39
   11  A    between atoms: C_18  and  CA_42
   12  A    between atoms: C_19  and  C_30
   13  A    between atoms: C_20  and  O_37
   14  A    between atoms: C_20  and  C_41
   15  A    between atoms: C_24  and  C_33
   16  A    between atoms: C_24  and  C_38
   17  A    between atoms: C_28  and  C_31
   18  A    between atoms: C_30  and  C_32
   19  A    between atoms: C_31  and  C_32
   20  A    between atoms: C_31  and  O_37
   21  A    between atoms: C_32  and  C_34
                            x       y       z     vdW  Elec       q    Type
                         _______ _______ _______ _____ _____    ______ ____

>  <TORSDO>
F 21

$$$$
=
 OpenBabel11072411003D

 42 43  0  0  1  0  0  0  0  0999 V2000
  161.3080  211.0170  152.8620 C   0  0  0  0  0  3  0  0  0  0  0  0
  161.5120  210.3060  151.7440 C   0  0  0  0  0  0  0  0  0  0  0  0
  162.5870  206.7920  150.8140 C   0  0  0  0  0  3  0  0  0  0  0  0
  161.7530  206.0110  151.6230 C   0  0  0  0  0  0  0  0  0  0  0  0
  162.4920  208.1830  150.8520 C   0  0  0  0  0  3  0  0  0  0  0  0
  160.6940  208.0210  152.4580 C   0  0  0  0  0  3  0  0  0  0  0  0
  160.7930  206.6290  152.4280 C   0  0  0  0  0  3  0  0  0  0  0  0
  161.5620  208.8170  151.6930 C   0  0  0  0  0  0  0  0  0  0  0  0
  161.8880  204.5220  151.6580 C   0  0  0  0  0  2  0  0  0  0  0  0
  161.1160  202.4530  150.7440 O   0  0  0  0  0  1  0  0  0  0  0  0
  160.8450  203.8210  150.7850 C   0  0  2  0  0  3  0  0  0  0  0  0
  160.0730  205.3690  149.1300 O   0  0  0  0  0  0  0  0  0  0  0  0
  160.8040  204.3760  149.3960 C   0  0  0  0  0  0  0  0  0  0  0  0
  161.5780  203.7450  148.3730 N   0  0  0  0  0  2  0  0  0  0  0  0
  161.4680  204.0800  146.9570 C   0  0  2  0  0  3  0  0  0  0  0  0
  160.8770  200.8330  147.5180 O   0  0  0  0  0  0  0  0  0  0  0  0
  161.0000  201.7510  146.6660 C   0  0  0  0  0  0  0  0  0  0  0  0
  160.4960  202.5150  145.4380 N   0  0  0  0  0  2  0  0  0  0  0  0
  161.6780  202.8290  146.1130 C   0  0  1  0  0  3  0  0  0  0  0  0
  162.3210  206.4360  146.9770 O   0  0  0  0  0  1  0  0  0  0  0  0
  163.5220  204.7720  145.9570 O   0  0  0  0  0  0  0  0  0  0  0  0
  162.4840  205.1120  146.5810 C   0  0  0  0  0  0  0  0  0  0  0  0
  161.0950  210.4740  154.2440 C   0  0  0  0  0  2  0  0  0  0  0  0
  159.7490  210.8530  154.8760 C   0  0  2  0  0  3  0  0  0  0  0  0
  159.4960  212.3660  154.9760 C   0  0  2  0  0  3  0  0  0  0  0  0
  160.5570  213.3400  156.8480 O   0  0  0  0  0  0  0  0  0  0  0  0
  159.5340  212.8560  156.3910 C   0  0  0  0  0  3  0  0  0  0  0  0
  158.2610  212.6760  154.3940 O   0  0  0  0  0  0  0  0  0  0  0  0
  157.5010  213.2410  155.4220 C   0  0  0  0  0  2  0  0  0  0  0  0
  156.0330  212.9050  155.2250 C   0  0  0  0  0  2  0  0  0  0  0  0
  155.5290  211.5530  157.1220 O   0  0  0  0  0  1  0  0  0  0  0  0
  155.7230  211.6040  155.8790 C   0  0  0  0  0  0  0  0  0  0  0  0
  155.6120  210.4510  155.1130 O   0  0  0  0  0  0  0  0  0  0  0  0
  159.4390  210.0740  156.1530 C   0  0  0  0  0  2  0  0  0  0  0  0
  160.6910  209.4050  156.7040 C   0  0  0  0  0  2  0  0  0  0  0  0
  159.7460  207.1980  156.0100 C   0  0  0  0  0  1  0  0  0  0  0  0
  160.4100  207.9720  157.1320 C   0  0  0  0  0  2  0  0  0  0  0  0
  161.7730  211.0990  150.5000 C   0  0  0  0  0  2  0  0  0  0  0  0
  160.7970  212.1190  150.3220 O   0  0  0  0  0  0  0  0  0  0  0  0
  160.8970  213.0880  149.3210 C   0  0  0  0  0  0  0  0  0  0  0  0
  161.5950  212.8890  148.2930 O   0  0  0  0  0  0  0  0  0  0  0  0
  160.2370  214.2630  149.4640 F   0  0  0  0  0  0  0  0  0  0  0  0
  1 23  1  0  0  0  0
  2  1  2  0  0  0  0
  3  5  2  0  0  0  0
  3  4  1  0  0  0  0
  4  9  1  0  0  0  0
  4  7  2  0  0  0  0
  5  8  1  0  0  0  0
  7  6  1  0  0  0  0
  8  2  1  0  0  0  0
  8  6  2  0  0  0  0
 11 10  1  6  0  0  0
 11  9  1  0  0  0  0
 12 13  2  0  0  0  0
 13 11  1  0  0  0  0
 14 13  1  0  0  0  0
 15 22  1  6  0  0  0
 15 14  1  0  0  0  0
 17 16  2  0  0  0  0
 18 19  1  0  0  0  0
 18 17  1  0  0  0  0
 19 17  1  0  0  0  0
 19 15  1  1  0  0  0
 21 22  2  0  0  0  0
 22 20  1  0  0  0  0
 24 23  1  1  0  0  0
 24 25  1  0  0  0  0
 24 34  1  0  0  0  0
 25 27  1  1  0  0  0
 27 26  2  0  0  0  0
 28 25  1  0  0  0  0
 28 29  1  0  0  0  0
 30 29  1  0  0  0  0
 30 32  1  0  0  0  0
 32 31  1  0  0  0  0
 33 32  2  0  0  0  0
 34 35  1  0  0  0  0
 35 37  1  0  0  0  0
 36 37  1  0  0  0  0
 38  2  1  0  0  0  0
 39 38  1  0  0  0  0
 40 42  1  0  0  0  0
 40 39  1  0  0  0  0
 41 40  2  0  0  0  0
M  END
>  <MODEL>
5

>  <REMARK>
 VINA RESULT:      -6.2      2.524      5.393
  Name = 
  21 active torsions:
  status: ('A' for Active; 'I' for Inactive)
    1  A    between atoms: C_3  and  O_8
    2  A    between atoms: C_7  and  C_19
    3  A    between atoms: O_8  and  C_33
    4  A    between atoms: C_9  and  C_10
    5  A    between atoms: C_10  and  C_26
    6  A    between atoms: C_12  and  C_41
    7  A    between atoms: C_13  and  C_34
    8  A    between atoms: C_17  and  C_26
    9  A    between atoms: C_18  and  C_23
   10  A    between atoms: C_18  and  N_39
   11  A    between atoms: C_18  and  CA_42
   12  A    between atoms: C_19  and  C_30
   13  A    between atoms: C_20  and  O_37
   14  A    between atoms: C_20  and  C_41
   15  A    between atoms: C_24  and  C_33
   16  A    between atoms: C_24  and  C_38
   17  A    between atoms: C_28  and  C_31
   18  A    between atoms: C_30  and  C_32
   19  A    between atoms: C_31  and  C_32
   20  A    between atoms: C_31  and  O_37
   21  A    between atoms: C_32  and  C_34
                            x       y       z     vdW  Elec       q    Type
                         _______ _______ _______ _____ _____    ______ ____

>  <TORSDO>
F 21

$$$$
=
 OpenBabel11072411003D

 42 43  0  0  1  0  0  0  0  0999 V2000
  161.3350  204.3720  149.7170 C   0  0  0  0  0  3  0  0  0  0  0  0
  160.9360  204.2780  150.9930 C   0  0  0  0  0  0  0  0  0  0  0  0
  161.0200  207.7720  152.4620 C   0  0  0  0  0  3  0  0  0  0  0  0
  161.1310  207.5070  153.8320 C   0  0  0  0  0  0  0  0  0  0  0  0
  160.9700  206.7180  151.5490 C   0  0  0  0  0  3  0  0  0  0  0  0
  161.2010  205.1340  153.3590 C   0  0  0  0  0  3  0  0  0  0  0  0
  161.2430  206.1860  154.2750 C   0  0  0  0  0  3  0  0  0  0  0  0
  161.0340  205.3850  151.9870 C   0  0  0  0  0  0  0  0  0  0  0  0
  161.1090  208.6150  154.8360 C   0  0  0  0  0  2  0  0  0  0  0  0
  162.2190  210.6710  154.3270 O   0  0  0  0  0  1  0  0  0  0  0  0
  161.0070  209.9940  154.1790 C   0  0  2  0  0  3  0  0  0  0  0  0
  158.9550  210.2540  155.3840 O   0  0  0  0  0  0  0  0  0  0  0  0
  159.8910  210.8110  154.7490 C   0  0  0  0  0  0  0  0  0  0  0  0
  159.8870  212.2250  154.5340 N   0  0  0  0  0  2  0  0  0  0  0  0
  158.7610  213.0880  154.8750 C   0  0  2  0  0  3  0  0  0  0  0  0
  158.2240  212.7200  151.5910 O   0  0  0  0  0  0  0  0  0  0  0  0
  158.0490  213.4290  152.6160 C   0  0  0  0  0  0  0  0  0  0  0  0
  157.1390  214.2340  153.5490 N   0  0  0  0  0  2  0  0  0  0  0  0
  158.5140  214.0840  153.7480 C   0  0  1  0  0  3  0  0  0  0  0  0
  157.9910  214.4100  156.8590 O   0  0  0  0  0  1  0  0  0  0  0  0
  160.2050  213.8780  156.6040 O   0  0  0  0  0  0  0  0  0  0  0  0
  159.0350  213.8290  156.1450 C   0  0  0  0  0  0  0  0  0  0  0  0
  161.9430  205.5720  149.0520 C   0  0  0  0  0  2  0  0  0  0  0  0
  161.3050  205.9450  147.7080 C   0  0  2  0  0  3  0  0  0  0  0  0
  162.0680  205.4320  146.4760 C   0  0  2  0  0  3  0  0  0  0  0  0
  161.9270  205.7030  144.1340 O   0  0  0  0  0  0  0  0  0  0  0  0
  161.3310  205.6970  145.1990 C   0  0  0  0  0  3  0  0  0  0  0  0
  162.3120  204.0600  146.6120 O   0  0  0  0  0  0  0  0  0  0  0  0
  161.4760  203.4430  145.6790 C   0  0  0  0  0  2  0  0  0  0  0  0
  160.7760  202.2560  146.3180 C   0  0  0  0  0  2  0  0  0  0  0  0
  159.2220  201.9140  144.5430 O   0  0  0  0  0  0  0  0  0  0  0  0
  160.1320  201.4250  145.2640 C   0  0  0  0  0  0  0  0  0  0  0  0
  160.5580  200.1210  145.0510 O   0  0  0  0  0  1  0  0  0  0  0  0
  160.8850  207.4120  147.6250 C   0  0  0  0  0  2  0  0  0  0  0  0
  161.2820  208.1690  148.8840 C   0  0  0  0  0  2  0  0  0  0  0  0
  162.1510  210.3290  149.7920 C   0  0  0  0  0  1  0  0  0  0  0  0
  161.9760  209.4800  148.5470 C   0  0  0  0  0  2  0  0  0  0  0  0
  160.4300  202.9370  151.4260 C   0  0  0  0  0  2  0  0  0  0  0  0
  161.2080  201.8840  150.8650 O   0  0  0  0  0  0  0  0  0  0  0  0
  160.8430  201.2240  149.6900 C   0  0  0  0  0  0  0  0  0  0  0  0
  159.6320  201.0110  149.4160 O   0  0  0  0  0  0  0  0  0  0  0  0
  161.8070  200.8020  148.8360 F   0  0  0  0  0  0  0  0  0  0  0  0
  1  2  2  0  0  0  0
  2 38  1  0  0  0  0
  2  8  1  0  0  0  0
  3  4  1  0  0  0  0
  4  7  2  0  0  0  0
  4  9  1  0  0  0  0
  5  8  1  0  0  0  0
  5  3  2  0  0  0  0
  6  7  1  0  0  0  0
  8  6  2  0  0  0  0
 11 10  1  1  0  0  0
 11 13  1  0  0  0  0
 11  9  1  0  0  0  0
 13 12  2  0  0  0  0
 14 13  1  0  0  0  0
 15 14  1  6  0  0  0
 15 22  1  0  0  0  0
 16 17  2  0  0  0  0
 17 18  1  0  0  0  0
 17 19  1  0  0  0  0
 18 19  1  0  0  0  0
 19 15  1  1  0  0  0
 22 21  2  0  0  0  0
 22 20  1  0  0  0  0
 23  1  1  0  0  0  0
 24 34  1  6  0  0  0
 24 23  1  0  0  0  0
 25 27  1  6  0  0  0
 25 28  1  0  0  0  0
 25 24  1  0  0  0  0
 26 27  2  0  0  0  0
 29 30  1  0  0  0  0
 29 28  1  0  0  0  0
 31 32  2  0  0  0  0
 32 30  1  0  0  0  0
 33 32  1  0  0  0  0
 34 35  1  0  0  0  0
 37 35  1  0  0  0  0
 37 36  1  0  0  0  0
 39 38  1  0  0  0  0
 40 39  1  0  0  0  0
 41 40  2  0  0  0  0
 42 40  1  0  0  0  0
M  END
>  <MODEL>
6

>  <REMARK>
 VINA RESULT:      -6.2      3.678     10.136
  Name = 
  21 active torsions:
  status: ('A' for Active; 'I' for Inactive)
    1  A    between atoms: C_3  and  O_8
    2  A    between atoms: C_7  and  C_19
    3  A    between atoms: O_8  and  C_33
    4  A    between atoms: C_9  and  C_10
    5  A    between atoms: C_10  and  C_26
    6  A    between atoms: C_12  and  C_41
    7  A    between atoms: C_13  and  C_34
    8  A    between atoms: C_17  and  C_26
    9  A    between atoms: C_18  and  C_23
   10  A    between atoms: C_18  and  N_39
   11  A    between atoms: C_18  and  CA_42
   12  A    between atoms: C_19  and  C_30
   13  A    between atoms: C_20  and  O_37
   14  A    between atoms: C_20  and  C_41
   15  A    between atoms: C_24  and  C_33
   16  A    between atoms: C_24  and  C_38
   17  A    between atoms: C_28  and  C_31
   18  A    between atoms: C_30  and  C_32
   19  A    between atoms: C_31  and  C_32
   20  A    between atoms: C_31  and  O_37
   21  A    between atoms: C_32  and  C_34
                            x       y       z     vdW  Elec       q    Type
                         _______ _______ _______ _____ _____    ______ ____

>  <TORSDO>
F 21

$$$$
=
 OpenBabel11072411003D

 42 43  0  0  1  0  0  0  0  0999 V2000
  160.6960  205.7980  149.7900 C   0  0  0  0  0  3  0  0  0  0  0  0
  160.8040  205.2130  150.9920 C   0  0  0  0  0  0  0  0  0  0  0  0
  161.1050  208.0740  153.4600 C   0  0  0  0  0  3  0  0  0  0  0  0
  161.2630  207.3940  154.6730 C   0  0  0  0  0  0  0  0  0  0  0  0
  160.9690  207.3570  152.2710 C   0  0  0  0  0  3  0  0  0  0  0  0
  161.2090  205.2840  153.4880 C   0  0  0  0  0  3  0  0  0  0  0  0
  161.3360  205.9990  154.6800 C   0  0  0  0  0  3  0  0  0  0  0  0
  160.9940  205.9530  152.2720 C   0  0  0  0  0  0  0  0  0  0  0  0
  161.3330  208.1370  155.9700 C   0  0  0  0  0  2  0  0  0  0  0  0
  158.9550  207.9030  155.9250 O   0  0  0  0  0  1  0  0  0  0  0  0
  159.9830  208.7340  156.3720 C   0  0  2  0  0  3  0  0  0  0  0  0
  160.7490  210.9390  155.8440 O   0  0  0  0  0  0  0  0  0  0  0  0
  159.7930  210.1180  155.8360 C   0  0  0  0  0  0  0  0  0  0  0  0
  158.5050  210.5020  155.3480 N   0  0  0  0  0  2  0  0  0  0  0  0
  158.1580  211.8710  154.9830 C   0  0  2  0  0  3  0  0  0  0  0  0
  155.2080  210.3230  154.6500 O   0  0  0  0  0  0  0  0  0  0  0  0
  155.9220  211.0960  155.3400 C   0  0  0  0  0  0  0  0  0  0  0  0
  156.5180  211.5270  156.6840 N   0  0  0  0  0  2  0  0  0  0  0  0
  156.7550  212.1970  155.4810 C   0  0  1  0  0  3  0  0  0  0  0  0
  158.8250  211.0880  152.6980 O   0  0  0  0  0  0  0  0  0  0  0  0
  157.6530  213.0390  152.9640 O   0  0  0  0  0  1  0  0  0  0  0  0
  158.2140  212.0480  153.4980 C   0  0  0  0  0  0  0  0  0  0  0  0
  160.7420  207.2690  149.5010 C   0  0  0  0  0  2  0  0  0  0  0  0
  161.9730  207.7220  148.7040 C   0  0  2  0  0  3  0  0  0  0  0  0
  162.3830  209.1840  148.9400 C   0  0  2  0  0  3  0  0  0  0  0  0
  162.7120  210.0100  151.1290 O   0  0  0  0  0  0  0  0  0  0  0  0
  161.9080  209.7010  150.2640 C   0  0  0  0  0  3  0  0  0  0  0  0
  161.8860  209.9850  147.9060 O   0  0  0  0  0  0  0  0  0  0  0  0
  161.7030  211.2490  148.4740 C   0  0  0  0  0  2  0  0  0  0  0  0
  160.9690  212.1530  147.4990 C   0  0  0  0  0  2  0  0  0  0  0  0
  162.0000  213.0700  145.5560 O   0  0  0  0  0  0  0  0  0  0  0  0
  161.9410  213.0470  146.8140 C   0  0  0  0  0  0  0  0  0  0  0  0
  162.7590  213.8860  147.5600 O   0  0  0  0  0  1  0  0  0  0  0  0
  161.9260  207.3090  147.2330 C   0  0  0  0  0  2  0  0  0  0  0  0
  162.4200  205.8800  147.0490 C   0  0  0  0  0  2  0  0  0  0  0  0
  161.5770  203.6550  146.2840 C   0  0  0  0  0  1  0  0  0  0  0  0
  161.6050  205.1440  145.9960 C   0  0  0  0  0  2  0  0  0  0  0  0
  160.8020  203.7150  150.9960 C   0  0  0  0  0  2  0  0  0  0  0  0
  160.4070  203.1950  149.7310 O   0  0  0  0  0  0  0  0  0  0  0  0
  160.2550  201.8270  149.4950 C   0  0  0  0  0  0  0  0  0  0  0  0
  161.2250  201.0350  149.6250 O   0  0  0  0  0  0  0  0  0  0  0  0
  159.0450  201.3470  149.1170 F   0  0  0  0  0  0  0  0  0  0  0  0
  1  2  2  0  0  0  0
  2 38  1  0  0  0  0
  2  8  1  0  0  0  0
  3  4  1  0  0  0  0
  4  7  2  0  0  0  0
  4  9  1  0  0  0  0
  5  8  1  0  0  0  0
  5  3  2  0  0  0  0
  6  7  1  0  0  0  0
  8  6  2  0  0  0  0
  9 11  1  0  0  0  0
 11 10  1  6  0  0  0
 13 12  2  0  0  0  0
 13 11  1  0  0  0  0
 14 13  1  0  0  0  0
 15 22  1  6  0  0  0
 15 14  1  0  0  0  0
 16 17  2  0  0  0  0
 17 19  1  0  0  0  0
 17 18  1  0  0  0  0
 19 15  1  6  0  0  0
 19 18  1  0  0  0  0
 20 22  2  0  0  0  0
 21 22  1  0  0  0  0
 23  1  1  0  0  0  0
 24 34  1  6  0  0  0
 24 25  1  0  0  0  0
 24 23  1  0  0  0  0
 25 27  1  1  0  0  0
 27 26  2  0  0  0  0
 28 29  1  0  0  0  0
 28 25  1  0  0  0  0
 30 29  1  0  0  0  0
 31 32  2  0  0  0  0
 32 30  1  0  0  0  0
 32 33  1  0  0  0  0
 35 34  1  0  0  0  0
 37 36  1  0  0  0  0
 37 35  1  0  0  0  0
 39 38  1  0  0  0  0
 40 41  2  0  0  0  0
 40 39  1  0  0  0  0
 42 40  1  0  0  0  0
M  END
>  <MODEL>
7

>  <REMARK>
 VINA RESULT:      -6.2      3.416      8.768
  Name = 
  21 active torsions:
  status: ('A' for Active; 'I' for Inactive)
    1  A    between atoms: C_3  and  O_8
    2  A    between atoms: C_7  and  C_19
    3  A    between atoms: O_8  and  C_33
    4  A    between atoms: C_9  and  C_10
    5  A    between atoms: C_10  and  C_26
    6  A    between atoms: C_12  and  C_41
    7  A    between atoms: C_13  and  C_34
    8  A    between atoms: C_17  and  C_26
    9  A    between atoms: C_18  and  C_23
   10  A    between atoms: C_18  and  N_39
   11  A    between atoms: C_18  and  CA_42
   12  A    between atoms: C_19  and  C_30
   13  A    between atoms: C_20  and  O_37
   14  A    between atoms: C_20  and  C_41
   15  A    between atoms: C_24  and  C_33
   16  A    between atoms: C_24  and  C_38
   17  A    between atoms: C_28  and  C_31
   18  A    between atoms: C_30  and  C_32
   19  A    between atoms: C_31  and  C_32
   20  A    between atoms: C_31  and  O_37
   21  A    between atoms: C_32  and  C_34
                            x       y       z     vdW  Elec       q    Type
                         _______ _______ _______ _____ _____    ______ ____

>  <TORSDO>
F 21

$$$$
=
 OpenBabel11072411003D

 42 43  0  0  1  0  0  0  0  0999 V2000
  161.9200  205.9030  151.0140 C   0  0  0  0  0  3  0  0  0  0  0  0
  161.3180  205.7180  152.1970 C   0  0  0  0  0  0  0  0  0  0  0  0
  161.1450  209.1080  153.8850 C   0  0  0  0  0  3  0  0  0  0  0  0
  160.9670  208.7540  155.2270 C   0  0  0  0  0  0  0  0  0  0  0  0
  161.2700  208.1160  152.9120 C   0  0  0  0  0  3  0  0  0  0  0  0
  161.1000  206.4140  154.6190 C   0  0  0  0  0  3  0  0  0  0  0  0
  160.9660  207.4060  155.5930 C   0  0  0  0  0  3  0  0  0  0  0  0
  161.2240  206.7560  153.2620 C   0  0  0  0  0  0  0  0  0  0  0  0
  160.7530  209.7970  156.2780 C   0  0  0  0  0  2  0  0  0  0  0  0
  158.5050  209.6220  155.4850 O   0  0  0  0  0  1  0  0  0  0  0  0
  159.3840  210.4690  156.1610 C   0  0  2  0  0  3  0  0  0  0  0  0
  160.0000  212.7790  156.0300 O   0  0  0  0  0  0  0  0  0  0  0  0
  159.4590  211.7910  155.4640 C   0  0  0  0  0  0  0  0  0  0  0  0
  158.8800  211.9230  154.1630 N   0  0  0  0  0  2  0  0  0  0  0  0
  158.7260  213.2010  153.4760 C   0  0  2  0  0  3  0  0  0  0  0  0
  155.9410  211.7530  154.6400 O   0  0  0  0  0  0  0  0  0  0  0  0
  156.4910  212.8110  154.2360 C   0  0  0  0  0  0  0  0  0  0  0  0
  156.8180  214.2970  154.4020 N   0  0  0  0  0  2  0  0  0  0  0  0
  157.2460  213.5270  153.3180 C   0  0  1  0  0  3  0  0  0  0  0  0
  160.1030  212.0340  151.7380 O   0  0  0  0  0  1  0  0  0  0  0  0
  159.2080  214.1010  151.3180 O   0  0  0  0  0  0  0  0  0  0  0  0
  159.3730  213.1520  152.1280 C   0  0  0  0  0  0  0  0  0  0  0  0
  162.6000  207.1530  150.5380 C   0  0  0  0  0  2  0  0  0  0  0  0
  161.7270  208.0560  149.6560 C   0  0  2  0  0  3  0  0  0  0  0  0
  161.5750  207.5740  148.2050 C   0  0  2  0  0  3  0  0  0  0  0  0
  159.7390  206.2910  148.9540 O   0  0  0  0  0  0  0  0  0  0  0  0
  160.3270  206.7720  147.9990 C   0  0  0  0  0  3  0  0  0  0  0  0
  162.6970  206.8200  147.8400 O   0  0  0  0  0  0  0  0  0  0  0  0
  162.3490  206.2020  146.6360 C   0  0  0  0  0  2  0  0  0  0  0  0
  162.7310  204.7330  146.6790 C   0  0  0  0  0  2  0  0  0  0  0  0
  161.3980  204.2900  144.7540 O   0  0  0  0  0  0  0  0  0  0  0  0
  161.7390  203.9320  145.9120 C   0  0  0  0  0  0  0  0  0  0  0  0
  161.2140  202.7680  146.4600 O   0  0  0  0  0  1  0  0  0  0  0  0
  162.0560  209.5410  149.7980 C   0  0  0  0  0  2  0  0  0  0  0  0
  161.9540  210.2570  148.4590 C   0  0  0  0  0  2  0  0  0  0  0  0
  163.0520  212.4270  147.8850 C   0  0  0  0  0  1  0  0  0  0  0  0
  161.9140  211.7670  148.6390 C   0  0  0  0  0  2  0  0  0  0  0  0
  160.7800  204.3440  152.4520 C   0  0  0  0  0  2  0  0  0  0  0  0
  161.4720  203.3660  151.6830 O   0  0  0  0  0  0  0  0  0  0  0  0
  160.8510  202.6260  150.6750 C   0  0  0  0  0  0  0  0  0  0  0  0
  160.4600  203.1780  149.6120 O   0  0  0  0  0  0  0  0  0  0  0  0
  160.6610  201.2950  150.8450 F   0  0  0  0  0  0  0  0  0  0  0  0
  1  2  2  0  0  0  0
  2 38  1  0  0  0  0
  2  8  1  0  0  0  0
  3  4  1  0  0  0  0
  4  7  2  0  0  0  0
  4  9  1  0  0  0  0
  5  8  1  0  0  0  0
  5  3  2  0  0  0  0
  6  7  1  0  0  0  0
  8  6  2  0  0  0  0
 11 10  1  6  0  0  0
 11  9  1  0  0  0  0
 13 12  2  0  0  0  0
 13 11  1  0  0  0  0
 14 13  1  0  0  0  0
 15 22  1  6  0  0  0
 15 14  1  0  0  0  0
 17 18  1  0  0  0  0
 17 16  2  0  0  0  0
 19 15  1  1  0  0  0
 19 17  1  0  0  0  0
 19 18  1  0  0  0  0
 20 22  1  0  0  0  0
 21 22  2  0  0  0  0
 23  1  1  0  0  0  0
 24 34  1  6  0  0  0
 24 23  1  0  0  0  0
 25 27  1  1  0  0  0
 25 24  1  0  0  0  0
 27 26  2  0  0  0  0
 28 25  1  0  0  0  0
 29 30  1  0  0  0  0
 29 28  1  0  0  0  0
 31 32  2  0  0  0  0
 32 33  1  0  0  0  0
 32 30  1  0  0  0  0
 35 37  1  0  0  0  0
 35 34  1  0  0  0  0
 36 37  1  0  0  0  0
 39 38  1  0  0  0  0
 40 42  1  0  0  0  0
 40 39  1  0  0  0  0
 41 40  2  0  0  0  0
M  END
>  <MODEL>
8

>  <REMARK>
 VINA RESULT:      -6.0      3.509      9.219
  Name = 
  21 active torsions:
  status: ('A' for Active; 'I' for Inactive)
    1  A    between atoms: C_3  and  O_8
    2  A    between atoms: C_7  and  C_19
    3  A    between atoms: O_8  and  C_33
    4  A    between atoms: C_9  and  C_10
    5  A    between atoms: C_10  and  C_26
    6  A    between atoms: C_12  and  C_41
    7  A    between atoms: C_13  and  C_34
    8  A    between atoms: C_17  and  C_26
    9  A    between atoms: C_18  and  C_23
   10  A    between atoms: C_18  and  N_39
   11  A    between atoms: C_18  and  CA_42
   12  A    between atoms: C_19  and  C_30
   13  A    between atoms: C_20  and  O_37
   14  A    between atoms: C_20  and  C_41
   15  A    between atoms: C_24  and  C_33
   16  A    between atoms: C_24  and  C_38
   17  A    between atoms: C_28  and  C_31
   18  A    between atoms: C_30  and  C_32
   19  A    between atoms: C_31  and  C_32
   20  A    between atoms: C_31  and  O_37
   21  A    between atoms: C_32  and  C_34
                            x       y       z     vdW  Elec       q    Type
                         _______ _______ _______ _____ _____    ______ ____

>  <TORSDO>
F 21

$$$$
=
 OpenBabel11072411003D

 42 43  0  0  1  0  0  0  0  0999 V2000
  161.0970  208.2770  152.9250 C   0  0  0  0  0  3  0  0  0  0  0  0
  161.4980  207.1820  152.2640 C   0  0  0  0  0  0  0  0  0  0  0  0
  160.1120  206.1220  148.8990 C   0  0  0  0  0  3  0  0  0  0  0  0
  161.0360  206.6880  148.0140 C   0  0  0  0  0  0  0  0  0  0  0  0
  160.2780  206.2780  150.2750 C   0  0  0  0  0  3  0  0  0  0  0  0
  162.3200  207.5120  149.8940 C   0  0  0  0  0  3  0  0  0  0  0  0
  162.1510  207.3650  148.5160 C   0  0  0  0  0  3  0  0  0  0  0  0
  161.3690  206.9960  150.7900 C   0  0  0  0  0  0  0  0  0  0  0  0
  160.8390  206.6020  146.5340 C   0  0  0  0  0  2  0  0  0  0  0  0
  161.6870  205.7310  144.4760 O   0  0  0  0  0  1  0  0  0  0  0  0
  161.9670  205.8360  145.8390 C   0  0  2  0  0  3  0  0  0  0  0  0
  163.3150  204.1210  146.8250 O   0  0  0  0  0  0  0  0  0  0  0  0
  162.1730  204.4750  146.4260 C   0  0  0  0  0  0  0  0  0  0  0  0
  161.0640  203.5740  146.4950 N   0  0  0  0  0  2  0  0  0  0  0  0
  161.1910  202.1700  146.8670 C   0  0  2  0  0  3  0  0  0  0  0  0
  159.3260  202.7200  144.1420 O   0  0  0  0  0  0  0  0  0  0  0  0
  159.8490  201.8700  144.9080 C   0  0  0  0  0  0  0  0  0  0  0  0
  160.6840  200.6060  145.1350 N   0  0  0  0  0  2  0  0  0  0  0  0
  160.1110  201.3520  146.1690 C   0  0  1  0  0  3  0  0  0  0  0  0
  161.5720  200.8750  148.9790 O   0  0  0  0  0  0  0  0  0  0  0  0
  160.5410  202.9210  149.0380 O   0  0  0  0  0  1  0  0  0  0  0  0
  161.0600  202.0060  148.3490 C   0  0  0  0  0  0  0  0  0  0  0  0
  160.4580  209.4990  152.3330 C   0  0  0  0  0  2  0  0  0  0  0  0
  159.9340  210.5060  153.3660 C   0  0  2  0  0  3  0  0  0  0  0  0
  159.1400  211.6770  152.7680 C   0  0  2  0  0  3  0  0  0  0  0  0
  160.1960  212.4420  150.7980 O   0  0  0  0  0  0  0  0  0  0  0  0
  160.0100  212.6180  151.9920 C   0  0  0  0  0  3  0  0  0  0  0  0
  158.4800  212.3690  153.7910 O   0  0  0  0  0  0  0  0  0  0  0  0
  157.4590  213.0790  153.1550 C   0  0  0  0  0  2  0  0  0  0  0  0
  156.1460  212.8660  153.8890 C   0  0  0  0  0  2  0  0  0  0  0  0
  157.1670  212.3900  155.9890 O   0  0  0  0  0  1  0  0  0  0  0  0
  156.3730  212.0140  155.0870 C   0  0  0  0  0  0  0  0  0  0  0  0
  155.6810  210.8180  155.2300 O   0  0  0  0  0  0  0  0  0  0  0  0
  160.9850  210.9150  154.3970 C   0  0  0  0  0  2  0  0  0  0  0  0
  161.0360  209.9250  155.5530 C   0  0  0  0  0  2  0  0  0  0  0  0
  160.7510  212.0830  156.7800 C   0  0  0  0  0  1  0  0  0  0  0  0
  160.6040  210.5760  156.8590 C   0  0  0  0  0  2  0  0  0  0  0  0
  162.0390  206.0680  153.1060 C   0  0  0  0  0  2  0  0  0  0  0  0
  161.1810  204.9320  153.0770 O   0  0  0  0  0  0  0  0  0  0  0  0
  161.4160  203.8350  152.2460 C   0  0  0  0  0  0  0  0  0  0  0  0
  160.7720  202.7620  152.3910 O   0  0  0  0  0  0  0  0  0  0  0  0
  162.3550  203.9250  151.2730 F   0  0  0  0  0  0  0  0  0  0  0  0
  2  1  2  0  0  0  0
  2 38  1  0  0  0  0
  3  5  1  0  0  0  0
  4  7  1  0  0  0  0
  4  3  2  0  0  0  0
  5  8  2  0  0  0  0
  6  8  1  0  0  0  0
  7  6  2  0  0  0  0
  8  2  1  0  0  0  0
  9  4  1  0  0  0  0
 11 10  1  6  0  0  0
 11 13  1  0  0  0  0
 11  9  1  0  0  0  0
 13 14  1  0  0  0  0
 13 12  2  0  0  0  0
 15 14  1  1  0  0  0
 15 22  1  0  0  0  0
 16 17  2  0  0  0  0
 17 18  1  0  0  0  0
 17 19  1  0  0  0  0
 18 19  1  0  0  0  0
 19 15  1  1  0  0  0
 22 20  2  0  0  0  0
 22 21  1  0  0  0  0
 23  1  1  0  0  0  0
 24 23  1  6  0  0  0
 24 34  1  0  0  0  0
 25 27  1  1  0  0  0
 25 24  1  0  0  0  0
 25 28  1  0  0  0  0
 26 27  2  0  0  0  0
 29 28  1  0  0  0  0
 29 30  1  0  0  0  0
 30 32  1  0  0  0  0
 32 33  2  0  0  0  0
 32 31  1  0  0  0  0
 34 35  1  0  0  0  0
 35 37  1  0  0  0  0
 36 37  1  0  0  0  0
 39 38  1  0  0  0  0
 40 41  2  0  0  0  0
 40 39  1  0  0  0  0
 42 40  1  0  0  0  0
M  END
>  <MODEL>
9

>  <REMARK>
 VINA RESULT:      -6.0      2.198      3.972
  Name = 
  21 active torsions:
  status: ('A' for Active; 'I' for Inactive)
    1  A    between atoms: C_3  and  O_8
    2  A    between atoms: C_7  and  C_19
    3  A    between atoms: O_8  and  C_33
    4  A    between atoms: C_9  and  C_10
    5  A    between atoms: C_10  and  C_26
    6  A    between atoms: C_12  and  C_41
    7  A    between atoms: C_13  and  C_34
    8  A    between atoms: C_17  and  C_26
    9  A    between atoms: C_18  and  C_23
   10  A    between atoms: C_18  and  N_39
   11  A    between atoms: C_18  and  CA_42
   12  A    between atoms: C_19  and  C_30
   13  A    between atoms: C_20  and  O_37
   14  A    between atoms: C_20  and  C_41
   15  A    between atoms: C_24  and  C_33
   16  A    between atoms: C_24  and  C_38
   17  A    between atoms: C_28  and  C_31
   18  A    between atoms: C_30  and  C_32
   19  A    between atoms: C_31  and  C_32
   20  A    between atoms: C_31  and  O_37
   21  A    between atoms: C_32  and  C_34
                            x       y       z     vdW  Elec       q    Type
                         _______ _______ _______ _____ _____    ______ ____

>  <TORSDO>
F 21

$$$$
