=
 OpenBabel11072415103D

 39 43  0  0  1  0  0  0  0  0999 V2000
  160.2610  209.0070  153.6200 C   0  0  2  0  0  3  0  0  0  0  0  0
  161.9350  209.5530  155.3290 O   0  0  0  0  0  0  0  0  0  0  0  0
  160.4940  211.7920  156.3230 C   0  0  2  0  0  3  0  0  0  0  0  0
  158.5670  211.2960  154.9490 C   0  0  0  0  0  0  0  0  0  0  0  0
  159.7700  210.6530  155.5960 C   0  0  1  0  0  0  0  0  0  0  0  0
  162.6180  210.6540  155.8900 C   0  0  0  0  0  2  0  0  0  0  0  0
  161.7780  211.3210  156.9840 C   0  0  0  0  0  2  0  0  0  0  0  0
  160.8110  210.0470  154.6220 C   0  0  2  0  0  3  0  0  0  0  0  0
  159.5380  212.5830  157.2160 C   0  0  0  0  0  2  0  0  0  0  0  0
  156.7390  212.8400  155.0780 O   0  0  0  0  0  1  0  0  0  0  0  0
  158.5770  213.2200  156.4000 O   0  0  0  0  0  0  0  0  0  0  0  0
  159.2930  209.5970  156.5930 C   0  0  0  0  0  1  0  0  0  0  0  0
  157.7490  212.2280  155.8220 C   0  0  2  0  0  3  0  0  0  0  0  0
  158.2600  211.0800  153.7880 O   0  0  0  0  0  0  0  0  0  0  0  0
  160.2740  206.8500  154.6130 O   0  0  0  0  0  0  0  0  0  0  0  0
  160.7830  207.6050  153.8020 C   0  0  0  0  0  0  0  0  0  0  0  0
  162.0000  207.1570  153.0540 C   0  0  0  0  0  2  0  0  0  0  0  0
  161.7530  206.1180  150.6950 C   0  0  0  0  0  0  0  0  0  0  0  0
  160.3920  204.0070  150.5570 C   0  0  0  0  0  2  0  0  0  0  0  0
  161.7080  205.9860  152.1710 C   0  0  0  0  0  0  0  0  0  0  0  0
  161.0840  203.6110  151.8680 C   0  0  0  0  0  2  0  0  0  0  0  0
  162.4110  207.3190  148.6940 C   0  0  0  0  0  3  0  0  0  0  0  0
  161.7820  206.3530  147.9020 C   0  0  0  0  0  0  0  0  0  0  0  0
  160.5090  204.3410  147.7270 F   0  0  0  0  0  0  0  0  0  0  0  0
  161.1360  205.1340  149.8960 C   0  0  0  0  0  0  0  0  0  0  0  0
  161.3490  204.8210  152.7230 C   0  0  0  0  0  3  0  0  0  0  0  0
  161.7950  206.4840  146.5210 O   0  0  0  0  0  1  0  0  0  0  0  0
  161.1380  205.2630  148.4990 C   0  0  0  0  0  0  0  0  0  0  0  0
  162.3950  207.2050  150.0850 C   0  0  0  0  0  3  0  0  0  0  0  0
  160.4800  209.4560  152.1810 C   0  0  0  0  0  2  0  0  0  0  0  0
  160.5510  211.7040  151.0670 C   0  0  1  0  0  3  0  0  0  0  0  0
  161.8080  211.6150  150.2250 C   0  0  1  0  0  3  0  0  0  0  0  0
  161.1870  210.8070  152.1140 C   0  0  2  0  0  3  0  0  0  0  0  0
  162.4310  210.6920  151.2550 C   0  0  0  0  0  2  0  0  0  0  0  0
  160.4220  212.9950  151.5770 O   0  0  0  0  0  1  0  0  0  0  0  0
  161.5310  210.8480  148.9390 C   0  0  0  0  0  2  0  0  0  0  0  0
  160.5680  211.8330  147.0300 O   0  0  0  0  0  0  0  0  0  0  0  0
  161.5370  211.7760  147.7660 C   0  0  0  0  0  0  0  0  0  0  0  0
  162.7380  212.6130  147.4730 C   0  0  0  0  0  1  0  0  0  0  0  0
  1 30  1  6  0  0  0
  1 16  1  0  0  0  0
  2  6  1  0  0  0  0
  3  7  1  1  0  0  0
  3  9  1  0  0  0  0
  4  5  1  0  0  0  0
  4 13  1  0  0  0  0
  5  3  1  0  0  0  0
  5 12  1  1  0  0  0
  6  7  1  0  0  0  0
  8  1  1  1  0  0  0
  8  2  1  0  0  0  0
  8  5  1  0  0  0  0
 11  9  1  0  0  0  0
 13 10  1  6  0  0  0
 13 11  1  0  0  0  0
 14  4  2  0  0  0  0
 16 15  2  0  0  0  0
 17 16  1  0  0  0  0
 18 20  1  0  0  0  0
 19 21  1  0  0  0  0
 20 26  2  0  0  0  0
 20 17  1  0  0  0  0
 21 26  1  0  0  0  0
 22 29  2  0  0  0  0
 23 28  2  0  0  0  0
 23 22  1  0  0  0  0
 24 28  1  0  0  0  0
 25 19  1  0  0  0  0
 25 18  2  0  0  0  0
 27 23  1  0  0  0  0
 28 25  1  0  0  0  0
 29 18  1  0  0  0  0
 31 35  1  1  0  0  0
 31 33  1  0  0  0  0
 32 36  1  6  0  0  0
 32 31  1  0  0  0  0
 32 34  1  0  0  0  0
 33 30  1  6  0  0  0
 34 33  1  0  0  0  0
 37 38  2  0  0  0  0
 38 36  1  0  0  0  0
 39 38  1  0  0  0  0
M  END
>  <MODEL>
1

>  <REMARK>
 VINA RESULT:      -6.7      0.000      0.000
  Name = 
  8 active torsions:
  status: ('A' for Active; 'I' for Inactive)
    1  A    between atoms: C_10  and  C_12
    2  A    between atoms: C_10  and  C_28
    3  A    between atoms: C_10  and  C_39
    4  A    between atoms: C_13  and  C_38
    5  A    between atoms: C_19  and  C_25
    6  A    between atoms: C_20  and  C_25
    7  A    between atoms: C_26  and  C_28
    8  A    between atoms: C_38  and  C_39
                            x       y       z     vdW  Elec       q    Type
                         _______ _______ _______ _____ _____    ______ ____

>  <TORSDO>
F 8

$$$$
=
 OpenBabel11072415103D

 39 43  0  0  1  0  0  0  0  0999 V2000
  160.3690  208.8900  153.2840 C   0  0  2  0  0  3  0  0  0  0  0  0
  162.0670  209.3460  154.9950 O   0  0  0  0  0  0  0  0  0  0  0  0
  160.6400  211.5270  156.1280 C   0  0  2  0  0  3  0  0  0  0  0  0
  158.6930  211.1020  154.7580 C   0  0  0  0  0  0  0  0  0  0  0  0
  159.9050  210.4270  155.3520 C   0  0  1  0  0  0  0  0  0  0  0  0
  162.7580  210.4170  155.6030 C   0  0  0  0  0  2  0  0  0  0  0  0
  161.9340  211.0230  156.7440 C   0  0  0  0  0  2  0  0  0  0  0  0
  160.9320  209.8760  154.3320 C   0  0  2  0  0  3  0  0  0  0  0  0
  159.6960  212.2680  157.0760 C   0  0  0  0  0  2  0  0  0  0  0  0
  156.8660  212.6340  154.9960 O   0  0  0  0  0  1  0  0  0  0  0  0
  158.7230  212.9460  156.3090 O   0  0  0  0  0  0  0  0  0  0  0  0
  159.4440  209.3190  156.2980 C   0  0  0  0  0  1  0  0  0  0  0  0
  157.8870  211.9850  155.6910 C   0  0  2  0  0  3  0  0  0  0  0  0
  158.3690  210.9470  153.5910 O   0  0  0  0  0  0  0  0  0  0  0  0
  160.5540  206.7150  154.2190 O   0  0  0  0  0  0  0  0  0  0  0  0
  160.9270  207.4920  153.3560 C   0  0  0  0  0  0  0  0  0  0  0  0
  162.0200  207.0730  152.4230 C   0  0  0  0  0  2  0  0  0  0  0  0
  161.2620  205.0860  150.9460 C   0  0  0  0  0  0  0  0  0  0  0  0
  161.2180  205.5100  148.4670 C   0  0  0  0  0  2  0  0  0  0  0  0
  161.4780  206.5420  151.1350 C   0  0  0  0  0  0  0  0  0  0  0  0
  160.6550  206.8910  148.8280 C   0  0  0  0  0  2  0  0  0  0  0  0
  161.0310  202.8440  151.8390 C   0  0  0  0  0  3  0  0  0  0  0  0
  160.8930  202.3370  150.5440 C   0  0  0  0  0  0  0  0  0  0  0  0
  160.8230  202.7000  148.1860 F   0  0  0  0  0  0  0  0  0  0  0  0
  161.1030  204.5780  149.6410 C   0  0  0  0  0  0  0  0  0  0  0  0
  161.2360  207.3850  150.1260 C   0  0  0  0  0  3  0  0  0  0  0  0
  160.7200  200.9740  150.3560 O   0  0  0  0  0  1  0  0  0  0  0  0
  160.9350  203.2000  149.4420 C   0  0  0  0  0  0  0  0  0  0  0  0
  161.2190  204.2130  152.0410 C   0  0  0  0  0  3  0  0  0  0  0  0
  160.5260  209.4350  151.8710 C   0  0  0  0  0  2  0  0  0  0  0  0
  160.5950  211.7330  150.8630 C   0  0  1  0  0  3  0  0  0  0  0  0
  161.8490  211.6820  150.0120 C   0  0  1  0  0  3  0  0  0  0  0  0
  161.2340  210.7880  151.8640 C   0  0  2  0  0  3  0  0  0  0  0  0
  162.4750  210.7120  150.9970 C   0  0  0  0  0  2  0  0  0  0  0  0
  160.4690  212.9990  151.4330 O   0  0  0  0  0  1  0  0  0  0  0  0
  161.5660  210.9770  148.6930 C   0  0  0  0  0  2  0  0  0  0  0  0
  160.5400  212.0180  146.8470 O   0  0  0  0  0  0  0  0  0  0  0  0
  161.5180  211.9650  147.5720 C   0  0  0  0  0  0  0  0  0  0  0  0
  162.6770  212.8710  147.3160 C   0  0  0  0  0  1  0  0  0  0  0  0
  1 30  1  6  0  0  0
  1 16  1  0  0  0  0
  2  6  1  0  0  0  0
  3  7  1  1  0  0  0
  3  9  1  0  0  0  0
  4  5  1  0  0  0  0
  4 13  1  0  0  0  0
  5  3  1  0  0  0  0
  5 12  1  1  0  0  0
  6  7  1  0  0  0  0
  8  1  1  1  0  0  0
  8  2  1  0  0  0  0
  8  5  1  0  0  0  0
 11  9  1  0  0  0  0
 13 10  1  6  0  0  0
 13 11  1  0  0  0  0
 14  4  2  0  0  0  0
 16 15  2  0  0  0  0
 17 16  1  0  0  0  0
 18 20  1  0  0  0  0
 18 29  1  0  0  0  0
 19 21  1  0  0  0  0
 19 25  1  0  0  0  0
 20 17  1  0  0  0  0
 21 26  1  0  0  0  0
 22 29  2  0  0  0  0
 23 22  1  0  0  0  0
 24 28  1  0  0  0  0
 25 18  2  0  0  0  0
 26 20  2  0  0  0  0
 27 23  1  0  0  0  0
 28 25  1  0  0  0  0
 28 23  2  0  0  0  0
 31 35  1  1  0  0  0
 31 33  1  0  0  0  0
 32 36  1  6  0  0  0
 32 31  1  0  0  0  0
 32 34  1  0  0  0  0
 33 30  1  6  0  0  0
 34 33  1  0  0  0  0
 37 38  2  0  0  0  0
 38 36  1  0  0  0  0
 39 38  1  0  0  0  0
M  END
>  <MODEL>
2

>  <REMARK>
 VINA RESULT:      -6.7      1.287      2.098
  Name = 
  8 active torsions:
  status: ('A' for Active; 'I' for Inactive)
    1  A    between atoms: C_10  and  C_12
    2  A    between atoms: C_10  and  C_28
    3  A    between atoms: C_10  and  C_39
    4  A    between atoms: C_13  and  C_38
    5  A    between atoms: C_19  and  C_25
    6  A    between atoms: C_20  and  C_25
    7  A    between atoms: C_26  and  C_28
    8  A    between atoms: C_38  and  C_39
                            x       y       z     vdW  Elec       q    Type
                         _______ _______ _______ _____ _____    ______ ____

>  <TORSDO>
F 8

$$$$
=
 OpenBabel11072415103D

 39 43  0  0  1  0  0  0  0  0999 V2000
  161.4790  210.2770  151.1710 C   0  0  2  0  0  3  0  0  0  0  0  0
  161.7600  209.5190  153.4880 O   0  0  0  0  0  0  0  0  0  0  0  0
  160.2660  211.6690  154.5930 C   0  0  2  0  0  3  0  0  0  0  0  0
  159.5840  212.4560  152.4110 C   0  0  0  0  0  0  0  0  0  0  0  0
  160.0390  211.2190  153.1450 C   0  0  1  0  0  0  0  0  0  0  0  0
  162.0550  210.0080  154.7780 C   0  0  0  0  0  2  0  0  0  0  0  0
  160.7930  210.5410  155.4640 C   0  0  0  0  0  2  0  0  0  0  0  0
  161.3880  210.6190  152.6750 C   0  0  2  0  0  3  0  0  0  0  0  0
  159.0530  212.4210  155.1410 C   0  0  0  0  0  2  0  0  0  0  0  0
  158.2570  214.4510  152.3630 O   0  0  0  0  0  1  0  0  0  0  0  0
  158.8900  213.6160  154.4060 O   0  0  0  0  0  0  0  0  0  0  0  0
  158.9330  210.1660  153.0770 C   0  0  0  0  0  1  0  0  0  0  0  0
  158.5070  213.2830  153.0850 C   0  0  2  0  0  3  0  0  0  0  0  0
  160.0510  212.7800  151.3300 O   0  0  0  0  0  0  0  0  0  0  0  0
  163.0040  208.4770  150.9000 O   0  0  0  0  0  0  0  0  0  0  0  0
  161.8430  208.8480  150.8600 C   0  0  0  0  0  0  0  0  0  0  0  0
  160.7870  207.8890  150.4060 C   0  0  0  0  0  2  0  0  0  0  0  0
  161.0260  205.3270  150.1140 C   0  0  0  0  0  0  0  0  0  0  0  0
  160.5690  203.9380  152.1600 C   0  0  0  0  0  2  0  0  0  0  0  0
  160.9880  206.5260  150.9870 C   0  0  0  0  0  0  0  0  0  0  0  0
  161.3170  205.0330  152.9320 C   0  0  0  0  0  2  0  0  0  0  0  0
  161.2460  204.3040  147.9270 C   0  0  0  0  0  3  0  0  0  0  0  0
  161.0540  203.0410  148.4930 C   0  0  0  0  0  0  0  0  0  0  0  0
  160.6410  201.6850  150.4140 F   0  0  0  0  0  0  0  0  0  0  0  0
  160.8530  204.0510  150.6890 C   0  0  0  0  0  0  0  0  0  0  0  0
  161.0780  206.3850  152.3140 C   0  0  0  0  0  3  0  0  0  0  0  0
  161.0600  201.9170  147.6810 O   0  0  0  0  0  1  0  0  0  0  0  0
  160.8510  202.9110  149.8730 C   0  0  0  0  0  0  0  0  0  0  0  0
  161.2290  205.4450  148.7320 C   0  0  0  0  0  3  0  0  0  0  0  0
  162.4300  211.2210  150.4460 C   0  0  0  0  0  2  0  0  0  0  0  0
  162.9620  212.2220  148.2080 C   0  0  1  0  0  3  0  0  0  0  0  0
  161.5900  212.5780  147.6710 C   0  0  1  0  0  3  0  0  0  0  0  0
  162.3710  211.0280  148.9330 C   0  0  2  0  0  3  0  0  0  0  0  0
  160.9940  211.4020  148.4220 C   0  0  0  0  0  2  0  0  0  0  0  0
  163.7720  211.7780  147.1630 O   0  0  0  0  0  1  0  0  0  0  0  0
  161.1050  213.8860  148.2790 C   0  0  0  0  0  2  0  0  0  0  0  0
  159.6360  214.4360  146.5230 O   0  0  0  0  0  0  0  0  0  0  0  0
  159.7680  214.2580  147.7220 C   0  0  0  0  0  0  0  0  0  0  0  0
  158.5980  214.4430  148.6300 C   0  0  0  0  0  1  0  0  0  0  0  0
  1 30  1  1  0  0  0
  2  6  1  0  0  0  0
  3  9  1  1  0  0  0
  3  7  1  0  0  0  0
  4 13  1  0  0  0  0
  4  5  1  0  0  0  0
  5 12  1  6  0  0  0
  5  3  1  0  0  0  0
  6  7  1  0  0  0  0
  8  1  1  6  0  0  0
  8  5  1  0  0  0  0
  8  2  1  0  0  0  0
 11  9  1  0  0  0  0
 13 10  1  6  0  0  0
 13 11  1  0  0  0  0
 14  4  2  0  0  0  0
 16 15  2  0  0  0  0
 16  1  1  0  0  0  0
 17 16  1  0  0  0  0
 17 20  1  0  0  0  0
 18 25  1  0  0  0  0
 18 20  1  0  0  0  0
 19 21  1  0  0  0  0
 20 26  2  0  0  0  0
 22 23  2  0  0  0  0
 22 29  1  0  0  0  0
 23 28  1  0  0  0  0
 25 19  1  0  0  0  0
 26 21  1  0  0  0  0
 27 23  1  0  0  0  0
 28 24  1  0  0  0  0
 28 25  2  0  0  0  0
 29 18  2  0  0  0  0
 31 35  1  6  0  0  0
 31 33  1  0  0  0  0
 32 31  1  0  0  0  0
 32 36  1  1  0  0  0
 32 34  1  0  0  0  0
 33 30  1  1  0  0  0
 34 33  1  0  0  0  0
 37 38  2  0  0  0  0
 38 36  1  0  0  0  0
 38 39  1  0  0  0  0
M  END
>  <MODEL>
3

>  <REMARK>
 VINA RESULT:      -6.0      2.079      3.052
  Name = 
  8 active torsions:
  status: ('A' for Active; 'I' for Inactive)
    1  A    between atoms: C_10  and  C_12
    2  A    between atoms: C_10  and  C_28
    3  A    between atoms: C_10  and  C_39
    4  A    between atoms: C_13  and  C_38
    5  A    between atoms: C_19  and  C_25
    6  A    between atoms: C_20  and  C_25
    7  A    between atoms: C_26  and  C_28
    8  A    between atoms: C_38  and  C_39
                            x       y       z     vdW  Elec       q    Type
                         _______ _______ _______ _____ _____    ______ ____

>  <TORSDO>
F 8

$$$$
=
 OpenBabel11072415103D

 39 43  0  0  1  0  0  0  0  0999 V2000
  161.3330  210.2150  150.7390 C   0  0  2  0  0  3  0  0  0  0  0  0
  162.6690  209.8280  152.7610 O   0  0  0  0  0  0  0  0  0  0  0  0
  160.9400  211.3300  154.4430 C   0  0  2  0  0  3  0  0  0  0  0  0
  159.2970  211.6020  152.6890 C   0  0  0  0  0  0  0  0  0  0  0  0
  160.4200  210.7030  153.1430 C   0  0  1  0  0  0  0  0  0  0  0  0
  163.1770  210.5040  153.8910 C   0  0  0  0  0  2  0  0  0  0  0  0
  162.1290  210.5710  155.0060 C   0  0  0  0  0  2  0  0  0  0  0  0
  161.6430  210.6260  152.1960 C   0  0  2  0  0  3  0  0  0  0  0  0
  159.8010  211.6060  155.4250 C   0  0  0  0  0  2  0  0  0  0  0  0
  157.3720  212.9250  153.2260 O   0  0  0  0  0  1  0  0  0  0  0  0
  158.9430  212.5790  154.8640 O   0  0  0  0  0  0  0  0  0  0  0  0
  159.8610  209.3050  153.4090 C   0  0  0  0  0  1  0  0  0  0  0  0
  158.2880  212.0090  153.7450 C   0  0  2  0  0  3  0  0  0  0  0  0
  159.1960  211.9840  151.5340 O   0  0  0  0  0  0  0  0  0  0  0  0
  162.7700  208.4120  150.1670 O   0  0  0  0  0  0  0  0  0  0  0  0
  161.6300  208.7760  150.4030 C   0  0  0  0  0  0  0  0  0  0  0  0
  160.5080  207.7940  150.2630 C   0  0  0  0  0  2  0  0  0  0  0  0
  161.1650  205.5670  149.1150 C   0  0  0  0  0  0  0  0  0  0  0  0
  161.1380  203.5220  150.5810 C   0  0  0  0  0  2  0  0  0  0  0  0
  160.9940  206.3820  150.3430 C   0  0  0  0  0  0  0  0  0  0  0  0
  161.7480  204.4260  151.6590 C   0  0  0  0  0  2  0  0  0  0  0  0
  161.3660  205.3810  146.7070 C   0  0  0  0  0  3  0  0  0  0  0  0
  161.4480  203.9900  146.8160 C   0  0  0  0  0  0  0  0  0  0  0  0
  161.4490  202.0260  148.1730 F   0  0  0  0  0  0  0  0  0  0  0  0
  161.2670  204.1650  149.2280 C   0  0  0  0  0  0  0  0  0  0  0  0
  161.2240  205.8330  151.5410 C   0  0  0  0  0  3  0  0  0  0  0  0
  161.5790  203.2180  145.6710 O   0  0  0  0  0  1  0  0  0  0  0  0
  161.3930  203.3780  148.0740 C   0  0  0  0  0  0  0  0  0  0  0  0
  161.2210  206.1680  147.8510 C   0  0  0  0  0  3  0  0  0  0  0  0
  162.0350  211.1310  149.7450 C   0  0  0  0  0  2  0  0  0  0  0  0
  160.6650  212.1930  147.9290 C   0  0  1  0  0  3  0  0  0  0  0  0
  161.5150  213.3830  147.5290 C   0  0  1  0  0  3  0  0  0  0  0  0
  161.1580  212.3200  149.3590 C   0  0  2  0  0  3  0  0  0  0  0  0
  162.0320  213.4900  148.9510 C   0  0  0  0  0  2  0  0  0  0  0  0
  159.3160  212.5410  147.8700 O   0  0  0  0  0  1  0  0  0  0  0  0
  162.6360  212.9440  146.5980 C   0  0  0  0  0  2  0  0  0  0  0  0
  161.3160  213.9510  144.9270 O   0  0  0  0  0  0  0  0  0  0  0  0
  162.3860  213.4400  145.2090 C   0  0  0  0  0  0  0  0  0  0  0  0
  163.4320  213.2870  144.1550 C   0  0  0  0  0  1  0  0  0  0  0  0
  1 30  1  6  0  0  0
  2  6  1  0  0  0  0
  3  7  1  1  0  0  0
  3  9  1  0  0  0  0
  4  5  1  0  0  0  0
  4 13  1  0  0  0  0
  5 12  1  1  0  0  0
  5  3  1  0  0  0  0
  6  7  1  0  0  0  0
  8  1  1  6  0  0  0
  8  2  1  0  0  0  0
  8  5  1  0  0  0  0
 11  9  1  0  0  0  0
 13 10  1  6  0  0  0
 13 11  1  0  0  0  0
 14  4  2  0  0  0  0
 15 16  2  0  0  0  0
 16  1  1  0  0  0  0
 17 20  1  0  0  0  0
 17 16  1  0  0  0  0
 18 25  1  0  0  0  0
 18 20  1  0  0  0  0
 19 21  1  0  0  0  0
 20 26  2  0  0  0  0
 22 23  2  0  0  0  0
 22 29  1  0  0  0  0
 23 28  1  0  0  0  0
 25 19  1  0  0  0  0
 26 21  1  0  0  0  0
 27 23  1  0  0  0  0
 28 24  1  0  0  0  0
 28 25  2  0  0  0  0
 29 18  2  0  0  0  0
 31 35  1  1  0  0  0
 31 33  1  0  0  0  0
 32 36  1  6  0  0  0
 32 31  1  0  0  0  0
 32 34  1  0  0  0  0
 33 30  1  6  0  0  0
 34 33  1  0  0  0  0
 37 38  2  0  0  0  0
 38 36  1  0  0  0  0
 39 38  1  0  0  0  0
M  END
>  <MODEL>
4

>  <REMARK>
 VINA RESULT:      -5.5      1.852      2.800
  Name = 
  8 active torsions:
  status: ('A' for Active; 'I' for Inactive)
    1  A    between atoms: C_10  and  C_12
    2  A    between atoms: C_10  and  C_28
    3  A    between atoms: C_10  and  C_39
    4  A    between atoms: C_13  and  C_38
    5  A    between atoms: C_19  and  C_25
    6  A    between atoms: C_20  and  C_25
    7  A    between atoms: C_26  and  C_28
    8  A    between atoms: C_38  and  C_39
                            x       y       z     vdW  Elec       q    Type
                         _______ _______ _______ _____ _____    ______ ____

>  <TORSDO>
F 8

$$$$
=
 OpenBabel11072415103D

 39 43  0  0  1  0  0  0  0  0999 V2000
  161.6210  207.5190  152.0900 C   0  0  2  0  0  3  0  0  0  0  0  0
  162.5110  208.0920  149.8760 O   0  0  0  0  0  0  0  0  0  0  0  0
  161.3640  210.6920  149.8570 C   0  0  2  0  0  3  0  0  0  0  0  0
  160.6340  210.5020  152.1540 C   0  0  0  0  0  0  0  0  0  0  0  0
  161.6580  209.9740  151.1800 C   0  0  1  0  0  0  0  0  0  0  0  0
  162.1320  208.6990  148.6600 C   0  0  0  0  0  2  0  0  0  0  0  0
  162.2780  210.2220  148.7380 C   0  0  0  0  0  2  0  0  0  0  0  0
  161.5660  208.4600  150.8650 C   0  0  2  0  0  3  0  0  0  0  0  0
  161.2740  212.2060  150.0510 C   0  0  0  0  0  2  0  0  0  0  0  0
  159.3930  212.3530  153.0350 O   0  0  0  0  0  1  0  0  0  0  0  0
  160.1660  212.4930  150.8790 O   0  0  0  0  0  0  0  0  0  0  0  0
  163.0560  210.3310  151.6850 C   0  0  0  0  0  1  0  0  0  0  0  0
  160.4390  212.0050  152.1800 C   0  0  2  0  0  3  0  0  0  0  0  0
  159.9960  209.7660  152.8900 O   0  0  0  0  0  0  0  0  0  0  0  0
  162.6800  205.4020  151.9080 O   0  0  0  0  0  0  0  0  0  0  0  0
  161.6560  206.0480  151.7650 C   0  0  0  0  0  0  0  0  0  0  0  0
  160.4520  205.3840  151.1720 C   0  0  0  0  0  2  0  0  0  0  0  0
  161.0730  204.0910  149.0160 C   0  0  0  0  0  0  0  0  0  0  0  0
  160.6900  201.6050  149.0740 C   0  0  0  0  0  2  0  0  0  0  0  0
  160.8080  204.1100  150.4760 C   0  0  0  0  0  0  0  0  0  0  0  0
  161.2240  201.6710  150.5110 C   0  0  0  0  0  2  0  0  0  0  0  0
  161.5730  205.2340  146.9380 C   0  0  0  0  0  3  0  0  0  0  0  0
  161.5280  204.0170  146.2510 C   0  0  0  0  0  0  0  0  0  0  0  0
  161.1940  201.6540  146.2670 F   0  0  0  0  0  0  0  0  0  0  0  0
  161.0470  202.8600  148.3280 C   0  0  0  0  0  0  0  0  0  0  0  0
  160.8340  202.9670  151.1700 C   0  0  0  0  0  3  0  0  0  0  0  0
  161.7470  203.9930  144.8830 O   0  0  0  0  0  1  0  0  0  0  0  0
  161.2590  202.8290  146.9420 C   0  0  0  0  0  0  0  0  0  0  0  0
  161.3430  205.2730  148.3150 C   0  0  0  0  0  3  0  0  0  0  0  0
  160.4820  207.8070  153.0600 C   0  0  0  0  0  2  0  0  0  0  0  0
  159.8850  207.9420  155.4940 C   0  0  1  0  0  3  0  0  0  0  0  0
  161.0690  208.6830  156.0830 C   0  0  1  0  0  3  0  0  0  0  0  0
  160.7970  207.3000  154.4650 C   0  0  2  0  0  3  0  0  0  0  0  0
  161.9750  208.0660  155.0340 C   0  0  0  0  0  2  0  0  0  0  0  0
  159.4450  206.9730  156.3950 O   0  0  0  0  0  1  0  0  0  0  0  0
  160.9320  210.1800  155.8390 C   0  0  0  0  0  2  0  0  0  0  0  0
  161.3650  212.0160  157.2470 O   0  0  0  0  0  0  0  0  0  0  0  0
  161.7630  210.9470  156.8170 C   0  0  0  0  0  0  0  0  0  0  0  0
  163.0920  210.4250  157.2490 C   0  0  0  0  0  1  0  0  0  0  0  0
  1 30  1  1  0  0  0
  2  8  1  0  0  0  0
  3  7  1  6  0  0  0
  3  9  1  0  0  0  0
  3  5  1  0  0  0  0
  4 13  1  0  0  0  0
  4 14  2  0  0  0  0
  5 12  1  1  0  0  0
  5  4  1  0  0  0  0
  6  7  1  0  0  0  0
  6  2  1  0  0  0  0
  8  5  1  0  0  0  0
  8  1  1  1  0  0  0
  9 11  1  0  0  0  0
 11 13  1  0  0  0  0
 13 10  1  1  0  0  0
 16 15  2  0  0  0  0
 16  1  1  0  0  0  0
 17 16  1  0  0  0  0
 18 20  1  0  0  0  0
 19 21  1  0  0  0  0
 20 26  2  0  0  0  0
 20 17  1  0  0  0  0
 21 26  1  0  0  0  0
 22 29  1  0  0  0  0
 23 22  2  0  0  0  0
 23 28  1  0  0  0  0
 24 28  1  0  0  0  0
 25 18  1  0  0  0  0
 25 19  1  0  0  0  0
 27 23  1  0  0  0  0
 28 25  2  0  0  0  0
 29 18  2  0  0  0  0
 31 32  1  0  0  0  0
 31 35  1  1  0  0  0
 32 36  1  6  0  0  0
 33 30  1  6  0  0  0
 33 34  1  0  0  0  0
 33 31  1  0  0  0  0
 34 32  1  0  0  0  0
 36 38  1  0  0  0  0
 38 37  2  0  0  0  0
 38 39  1  0  0  0  0
M  END
>  <MODEL>
5

>  <REMARK>
 VINA RESULT:      -5.5      1.944      5.234
  Name = 
  8 active torsions:
  status: ('A' for Active; 'I' for Inactive)
    1  A    between atoms: C_10  and  C_12
    2  A    between atoms: C_10  and  C_28
    3  A    between atoms: C_10  and  C_39
    4  A    between atoms: C_13  and  C_38
    5  A    between atoms: C_19  and  C_25
    6  A    between atoms: C_20  and  C_25
    7  A    between atoms: C_26  and  C_28
    8  A    between atoms: C_38  and  C_39
                            x       y       z     vdW  Elec       q    Type
                         _______ _______ _______ _____ _____    ______ ____

>  <TORSDO>
F 8

$$$$
=
 OpenBabel11072415103D

 39 43  0  0  1  0  0  0  0  0999 V2000
  159.8050  211.0110  153.0180 C   0  0  2  0  0  3  0  0  0  0  0  0
  160.9090  211.1540  155.2050 O   0  0  0  0  0  0  0  0  0  0  0  0
  158.7960  212.6250  156.4080 C   0  0  2  0  0  3  0  0  0  0  0  0
  157.3710  212.3660  154.4720 C   0  0  0  0  0  0  0  0  0  0  0  0
  158.5340  211.7290  155.1910 C   0  0  1  0  0  0  0  0  0  0  0  0
  161.1750  212.0690  156.2470 C   0  0  0  0  0  2  0  0  0  0  0  0
  159.9920  212.1530  157.2170 C   0  0  0  0  0  2  0  0  0  0  0  0
  159.8680  211.6890  154.4050 C   0  0  2  0  0  3  0  0  0  0  0  0
  157.5140  212.8770  157.2030 C   0  0  0  0  0  2  0  0  0  0  0  0
  155.2370  213.4520  154.5660 O   0  0  0  0  0  1  0  0  0  0  0  0
  156.6160  213.6090  156.3940 O   0  0  0  0  0  0  0  0  0  0  0  0
  158.1340  210.3230  155.6370 C   0  0  0  0  0  1  0  0  0  0  0  0
  156.1900  212.7780  155.3290 C   0  0  2  0  0  3  0  0  0  0  0  0
  157.3710  212.5410  153.2640 O   0  0  0  0  0  0  0  0  0  0  0  0
  160.0610  208.7850  153.8040 O   0  0  0  0  0  0  0  0  0  0  0  0
  160.3660  209.6140  152.9630 C   0  0  0  0  0  0  0  0  0  0  0  0
  161.3820  209.2560  151.9230 C   0  0  0  0  0  2  0  0  0  0  0  0
  161.4500  207.1920  150.3600 C   0  0  0  0  0  0  0  0  0  0  0  0
  160.8520  204.9900  151.4180 C   0  0  0  0  0  2  0  0  0  0  0  0
  161.4750  207.7770  151.7230 C   0  0  0  0  0  0  0  0  0  0  0  0
  161.6570  205.4810  152.6280 C   0  0  0  0  0  2  0  0  0  0  0  0
  161.6460  207.4160  147.9540 C   0  0  0  0  0  3  0  0  0  0  0  0
  161.3540  206.0570  147.7990 C   0  0  0  0  0  0  0  0  0  0  0  0
  160.8070  203.9440  148.7650 F   0  0  0  0  0  0  0  0  0  0  0  0
  161.1760  205.8180  150.2060 C   0  0  0  0  0  0  0  0  0  0  0  0
  161.5260  206.9720  152.7910 C   0  0  0  0  0  3  0  0  0  0  0  0
  161.3010  205.5080  146.5280 O   0  0  0  0  0  1  0  0  0  0  0  0
  161.1120  205.2560  148.9230 C   0  0  0  0  0  0  0  0  0  0  0  0
  161.6900  207.9830  149.2290 C   0  0  0  0  0  3  0  0  0  0  0  0
  160.4650  211.8750  151.9500 C   0  0  0  0  0  2  0  0  0  0  0  0
  159.0150  212.9310  150.1950 C   0  0  1  0  0  3  0  0  0  0  0  0
  159.8720  214.0820  149.7090 C   0  0  1  0  0  3  0  0  0  0  0  0
  159.6010  213.0800  151.5870 C   0  0  2  0  0  3  0  0  0  0  0  0
  160.4820  214.2100  151.0920 C   0  0  0  0  0  2  0  0  0  0  0  0
  157.6760  213.3190  150.2100 O   0  0  0  0  0  1  0  0  0  0  0  0
  160.9180  213.5850  148.7220 C   0  0  0  0  0  2  0  0  0  0  0  0
  159.4600  214.3820  147.0530 O   0  0  0  0  0  0  0  0  0  0  0  0
  160.6000  214.0570  147.3390 C   0  0  0  0  0  0  0  0  0  0  0  0
  161.6660  214.1080  146.2960 C   0  0  0  0  0  1  0  0  0  0  0  0
  1 30  1  6  0  0  0
  2  6  1  0  0  0  0
  3  9  1  1  0  0  0
  3  7  1  0  0  0  0
  4  5  1  0  0  0  0
  4 13  1  0  0  0  0
  5 12  1  1  0  0  0
  5  3  1  0  0  0  0
  6  7  1  0  0  0  0
  8  1  1  6  0  0  0
  8  5  1  0  0  0  0
  8  2  1  0  0  0  0
 11  9  1  0  0  0  0
 13 10  1  6  0  0  0
 13 11  1  0  0  0  0
 14  4  2  0  0  0  0
 16  1  1  0  0  0  0
 16 15  2  0  0  0  0
 17 16  1  0  0  0  0
 18 20  1  0  0  0  0
 19 21  1  0  0  0  0
 20 17  1  0  0  0  0
 20 26  2  0  0  0  0
 21 26  1  0  0  0  0
 22 29  1  0  0  0  0
 23 22  2  0  0  0  0
 23 28  1  0  0  0  0
 24 28  1  0  0  0  0
 25 18  1  0  0  0  0
 25 19  1  0  0  0  0
 27 23  1  0  0  0  0
 28 25  2  0  0  0  0
 29 18  2  0  0  0  0
 31 35  1  1  0  0  0
 31 33  1  0  0  0  0
 32 36  1  6  0  0  0
 32 31  1  0  0  0  0
 32 34  1  0  0  0  0
 33 30  1  6  0  0  0
 34 33  1  0  0  0  0
 37 38  2  0  0  0  0
 38 36  1  0  0  0  0
 39 38  1  0  0  0  0
M  END
>  <MODEL>
6

>  <REMARK>
 VINA RESULT:      -5.1      1.617      2.076
  Name = 
  8 active torsions:
  status: ('A' for Active; 'I' for Inactive)
    1  A    between atoms: C_10  and  C_12
    2  A    between atoms: C_10  and  C_28
    3  A    between atoms: C_10  and  C_39
    4  A    between atoms: C_13  and  C_38
    5  A    between atoms: C_19  and  C_25
    6  A    between atoms: C_20  and  C_25
    7  A    between atoms: C_26  and  C_28
    8  A    between atoms: C_38  and  C_39
                            x       y       z     vdW  Elec       q    Type
                         _______ _______ _______ _____ _____    ______ ____

>  <TORSDO>
F 8

$$$$
=
 OpenBabel11072415103D

 39 43  0  0  1  0  0  0  0  0999 V2000
  161.3420  209.2490  151.6290 C   0  0  2  0  0  3  0  0  0  0  0  0
  160.0490  211.2540  152.2020 O   0  0  0  0  0  0  0  0  0  0  0  0
  159.5090  210.4000  154.8590 C   0  0  2  0  0  3  0  0  0  0  0  0
  160.9810  208.4920  154.6570 C   0  0  0  0  0  0  0  0  0  0  0  0
  160.7310  209.8700  154.0970 C   0  0  1  0  0  0  0  0  0  0  0  0
  158.8610  211.6490  152.8550 C   0  0  0  0  0  2  0  0  0  0  0  0
  159.0810  211.7720  154.3660 C   0  0  0  0  0  2  0  0  0  0  0  0
  160.3470  209.9260  152.5980 C   0  0  2  0  0  3  0  0  0  0  0  0
  159.6910  210.2630  156.3710 C   0  0  0  0  0  2  0  0  0  0  0  0
  161.0940  207.0270  156.5500 O   0  0  0  0  0  1  0  0  0  0  0  0
  159.7610  208.8900  156.6970 O   0  0  0  0  0  0  0  0  0  0  0  0
  161.9540  210.7470  154.3690 C   0  0  0  0  0  1  0  0  0  0  0  0
  160.9630  208.3630  156.1670 C   0  0  2  0  0  3  0  0  0  0  0  0
  161.1910  207.5270  153.9390 O   0  0  0  0  0  0  0  0  0  0  0  0
  161.9610  209.5110  149.3510 O   0  0  0  0  0  0  0  0  0  0  0  0
  161.6980  210.0590  150.4090 C   0  0  0  0  0  0  0  0  0  0  0  0
  161.8250  211.5470  150.5100 C   0  0  0  0  0  2  0  0  0  0  0  0
  160.4340  212.8100  148.7270 C   0  0  0  0  0  0  0  0  0  0  0  0
  161.3170  212.7190  146.3730 C   0  0  0  0  0  2  0  0  0  0  0  0
  161.7140  212.2060  149.1720 C   0  0  0  0  0  0  0  0  0  0  0  0
  162.7030  212.8850  147.0080 C   0  0  0  0  0  2  0  0  0  0  0  0
  158.2110  213.6520  149.2010 C   0  0  0  0  0  3  0  0  0  0  0  0
  158.0150  213.9150  147.8420 C   0  0  0  0  0  0  0  0  0  0  0  0
  158.8240  213.8650  145.5970 F   0  0  0  0  0  0  0  0  0  0  0  0
  160.2450  213.0930  147.3590 C   0  0  0  0  0  0  0  0  0  0  0  0
  162.7670  212.1990  148.3470 C   0  0  0  0  0  3  0  0  0  0  0  0
  156.8110  214.4530  147.4140 O   0  0  0  0  0  1  0  0  0  0  0  0
  159.0280  213.6310  146.9170 C   0  0  0  0  0  0  0  0  0  0  0  0
  159.4140  213.0990  149.6430 C   0  0  0  0  0  3  0  0  0  0  0  0
  160.8520  207.8700  151.2070 C   0  0  0  0  0  2  0  0  0  0  0  0
  161.2880  206.1780  149.4050 C   0  0  1  0  0  3  0  0  0  0  0  0
  161.7790  204.9790  150.1910 C   0  0  1  0  0  3  0  0  0  0  0  0
  161.9200  207.1080  150.4260 C   0  0  2  0  0  3  0  0  0  0  0  0
  162.3820  205.9070  151.2280 C   0  0  0  0  0  2  0  0  0  0  0  0
  161.9870  206.2660  148.2010 O   0  0  0  0  0  1  0  0  0  0  0  0
  160.6040  204.2200  150.7900 C   0  0  0  0  0  2  0  0  0  0  0  0
  161.3200  202.0960  151.5120 O   0  0  0  0  0  0  0  0  0  0  0  0
  160.7930  202.7460  150.6250 C   0  0  0  0  0  0  0  0  0  0  0  0
  160.3660  202.0680  149.3660 C   0  0  0  0  0  1  0  0  0  0  0  0
  1 30  1  6  0  0  0
  2  8  1  0  0  0  0
  2  6  1  0  0  0  0
  3  7  1  1  0  0  0
  3  9  1  0  0  0  0
  4 13  1  0  0  0  0
  5 12  1  1  0  0  0
  5  4  1  0  0  0  0
  5  3  1  0  0  0  0
  6  7  1  0  0  0  0
  8  1  1  6  0  0  0
  8  5  1  0  0  0  0
  9 11  1  0  0  0  0
 13 10  1  6  0  0  0
 13 11  1  0  0  0  0
 14  4  2  0  0  0  0
 15 16  2  0  0  0  0
 16 17  1  0  0  0  0
 16  1  1  0  0  0  0
 18 20  1  0  0  0  0
 18 29  1  0  0  0  0
 19 21  1  0  0  0  0
 19 25  1  0  0  0  0
 20 17  1  0  0  0  0
 21 26  1  0  0  0  0
 22 29  2  0  0  0  0
 23 22  1  0  0  0  0
 24 28  1  0  0  0  0
 25 18  2  0  0  0  0
 26 20  2  0  0  0  0
 27 23  1  0  0  0  0
 28 25  1  0  0  0  0
 28 23  2  0  0  0  0
 31 35  1  6  0  0  0
 31 32  1  0  0  0  0
 31 33  1  0  0  0  0
 32 36  1  1  0  0  0
 32 34  1  0  0  0  0
 33 30  1  1  0  0  0
 33 34  1  0  0  0  0
 38 36  1  0  0  0  0
 38 37  2  0  0  0  0
 39 38  1  0  0  0  0
M  END
>  <MODEL>
7

>  <REMARK>
 VINA RESULT:      -4.7      2.654      6.705
  Name = 
  8 active torsions:
  status: ('A' for Active; 'I' for Inactive)
    1  A    between atoms: C_10  and  C_12
    2  A    between atoms: C_10  and  C_28
    3  A    between atoms: C_10  and  C_39
    4  A    between atoms: C_13  and  C_38
    5  A    between atoms: C_19  and  C_25
    6  A    between atoms: C_20  and  C_25
    7  A    between atoms: C_26  and  C_28
    8  A    between atoms: C_38  and  C_39
                            x       y       z     vdW  Elec       q    Type
                         _______ _______ _______ _____ _____    ______ ____

>  <TORSDO>
F 8

$$$$
=
 OpenBabel11072415103D

 39 43  0  0  1  0  0  0  0  0999 V2000
  161.2430  207.9940  152.7460 C   0  0  2  0  0  3  0  0  0  0  0  0
  161.5570  207.6040  155.1480 O   0  0  0  0  0  0  0  0  0  0  0  0
  160.8810  210.2650  155.8800 C   0  0  2  0  0  3  0  0  0  0  0  0
  160.2090  210.8280  153.6260 C   0  0  0  0  0  0  0  0  0  0  0  0
  160.3700  209.6590  154.5680 C   0  0  1  0  0  0  0  0  0  0  0  0
  162.1260  208.1980  156.2950 C   0  0  0  0  0  2  0  0  0  0  0  0
  161.1580  209.2020  156.9290 C   0  0  0  0  0  2  0  0  0  0  0  0
  161.4260  208.6050  154.1530 C   0  0  2  0  0  3  0  0  0  0  0  0
  160.0070  211.4350  156.3340 C   0  0  0  0  0  2  0  0  0  0  0  0
  159.5160  213.0910  153.2530 O   0  0  0  0  0  1  0  0  0  0  0  0
  160.1110  212.4750  155.3830 O   0  0  0  0  0  0  0  0  0  0  0  0
  159.0080  208.9980  154.7760 C   0  0  0  0  0  1  0  0  0  0  0  0
  159.4990  212.0470  154.1800 C   0  0  2  0  0  3  0  0  0  0  0  0
  160.6230  210.7990  152.4780 O   0  0  0  0  0  0  0  0  0  0  0  0
  162.2660  205.8870  153.1370 O   0  0  0  0  0  0  0  0  0  0  0  0
  161.3050  206.4890  152.6880 C   0  0  0  0  0  0  0  0  0  0  0  0
  160.2250  205.7210  151.9910 C   0  0  0  0  0  2  0  0  0  0  0  0
  160.9360  204.2460  149.9850 C   0  0  0  0  0  0  0  0  0  0  0  0
  160.9150  201.7620  150.3820 C   0  0  0  0  0  2  0  0  0  0  0  0
  160.7310  204.4260  151.4430 C   0  0  0  0  0  0  0  0  0  0  0  0
  161.4920  202.0930  151.7640 C   0  0  0  0  0  2  0  0  0  0  0  0
  161.1840  205.1580  147.7520 C   0  0  0  0  0  3  0  0  0  0  0  0
  161.2860  203.8650  147.2300 C   0  0  0  0  0  0  0  0  0  0  0  0
  161.2920  201.5010  147.5670 F   0  0  0  0  0  0  0  0  0  0  0  0
  161.0590  202.9430  149.4620 C   0  0  0  0  0  0  0  0  0  0  0  0
  160.9480  203.4000  152.2750 C   0  0  0  0  0  3  0  0  0  0  0  0
  161.4490  203.6870  145.8650 O   0  0  0  0  0  1  0  0  0  0  0  0
  161.2170  202.7540  148.0810 C   0  0  0  0  0  0  0  0  0  0  0  0
  161.0070  205.3490  149.1240 C   0  0  0  0  0  3  0  0  0  0  0  0
  162.2310  208.5890  151.7510 C   0  0  0  0  0  2  0  0  0  0  0  0
  162.9160  208.7440  149.3420 C   0  0  1  0  0  3  0  0  0  0  0  0
  161.8970  209.7100  148.7710 C   0  0  1  0  0  3  0  0  0  0  0  0
  161.8750  208.2180  150.3130 C   0  0  2  0  0  3  0  0  0  0  0  0
  160.8670  209.2080  149.7640 C   0  0  0  0  0  2  0  0  0  0  0  0
  163.2080  207.7610  148.3960 O   0  0  0  0  0  1  0  0  0  0  0  0
  162.2840  211.1450  149.1010 C   0  0  0  0  0  2  0  0  0  0  0  0
  160.9180  211.8120  147.3030 O   0  0  0  0  0  0  0  0  0  0  0  0
  161.8960  212.0620  147.9850 C   0  0  0  0  0  0  0  0  0  0  0  0
  162.7180  213.2710  147.6830 C   0  0  0  0  0  1  0  0  0  0  0  0
  1 30  1  6  0  0  0
  2  6  1  0  0  0  0
  3  9  1  1  0  0  0
  3  7  1  0  0  0  0
  4 13  1  0  0  0  0
  4  5  1  0  0  0  0
  5 12  1  1  0  0  0
  5  3  1  0  0  0  0
  6  7  1  0  0  0  0
  8  1  1  6  0  0  0
  8  5  1  0  0  0  0
  8  2  1  0  0  0  0
 11  9  1  0  0  0  0
 13 10  1  6  0  0  0
 13 11  1  0  0  0  0
 14  4  2  0  0  0  0
 16  1  1  0  0  0  0
 16 15  2  0  0  0  0
 17 16  1  0  0  0  0
 18 20  1  0  0  0  0
 19 21  1  0  0  0  0
 20 17  1  0  0  0  0
 20 26  2  0  0  0  0
 21 26  1  0  0  0  0
 22 29  1  0  0  0  0
 23 22  2  0  0  0  0
 23 28  1  0  0  0  0
 24 28  1  0  0  0  0
 25 18  1  0  0  0  0
 25 19  1  0  0  0  0
 27 23  1  0  0  0  0
 28 25  2  0  0  0  0
 29 18  2  0  0  0  0
 31 35  1  6  0  0  0
 31 33  1  0  0  0  0
 32 36  1  1  0  0  0
 32 31  1  0  0  0  0
 32 34  1  0  0  0  0
 33 30  1  1  0  0  0
 34 33  1  0  0  0  0
 37 38  2  0  0  0  0
 38 36  1  0  0  0  0
 39 38  1  0  0  0  0
M  END
>  <MODEL>
8

>  <REMARK>
 VINA RESULT:      -4.6      1.683      2.480
  Name = 
  8 active torsions:
  status: ('A' for Active; 'I' for Inactive)
    1  A    between atoms: C_10  and  C_12
    2  A    between atoms: C_10  and  C_28
    3  A    between atoms: C_10  and  C_39
    4  A    between atoms: C_13  and  C_38
    5  A    between atoms: C_19  and  C_25
    6  A    between atoms: C_20  and  C_25
    7  A    between atoms: C_26  and  C_28
    8  A    between atoms: C_38  and  C_39
                            x       y       z     vdW  Elec       q    Type
                         _______ _______ _______ _____ _____    ______ ____

>  <TORSDO>
F 8

$$$$
=
 OpenBabel11072415103D

 39 43  0  0  1  0  0  0  0  0999 V2000
  161.7770  207.5190  149.0440 C   0  0  2  0  0  3  0  0  0  0  0  0
  161.5970  208.6690  151.2040 O   0  0  0  0  0  0  0  0  0  0  0  0
  160.8860  206.3170  152.6330 C   0  0  2  0  0  3  0  0  0  0  0  0
  161.2910  204.9020  150.7140 C   0  0  0  0  0  0  0  0  0  0  0  0
  161.6750  206.2290  151.3200 C   0  0  1  0  0  0  0  0  0  0  0  0
  160.7700  208.7460  152.3450 C   0  0  0  0  0  2  0  0  0  0  0  0
  161.1130  207.6390  153.3470 C   0  0  0  0  0  2  0  0  0  0  0  0
  161.2700  207.4810  150.5030 C   0  0  2  0  0  3  0  0  0  0  0  0
  161.0750  205.0600  153.4830 C   0  0  0  0  0  2  0  0  0  0  0  0
  160.8290  202.5670  150.9950 O   0  0  0  0  0  1  0  0  0  0  0  0
  160.5210  203.9590  152.7940 O   0  0  0  0  0  0  0  0  0  0  0  0
  163.1780  206.2340  151.5960 C   0  0  0  0  0  1  0  0  0  0  0  0
  161.3080  203.7050  151.6450 C   0  0  2  0  0  3  0  0  0  0  0  0
  160.9860  204.7880  149.5380 O   0  0  0  0  0  0  0  0  0  0  0  0
  163.1780  209.0840  147.9360 O   0  0  0  0  0  0  0  0  0  0  0  0
  162.1270  208.8890  148.5230 C   0  0  0  0  0  0  0  0  0  0  0  0
  161.2240  210.0490  148.8060 C   0  0  0  0  0  2  0  0  0  0  0  0
  161.0250  211.9800  147.0910 C   0  0  0  0  0  0  0  0  0  0  0  0
  163.1490  213.2300  146.5890 C   0  0  0  0  0  2  0  0  0  0  0  0
  161.7440  211.3160  148.2070 C   0  0  0  0  0  0  0  0  0  0  0  0
  163.4370  213.1180  148.0920 C   0  0  0  0  0  2  0  0  0  0  0  0
  159.0390  212.2860  145.7350 C   0  0  0  0  0  3  0  0  0  0  0  0
  159.7130  213.2270  144.9510 C   0  0  0  0  0  0  0  0  0  0  0  0
  161.7030  214.4490  144.4550 F   0  0  0  0  0  0  0  0  0  0  0  0
  161.7000  212.9430  146.3140 C   0  0  0  0  0  0  0  0  0  0  0  0
  162.9010  211.8240  148.6460 C   0  0  0  0  0  3  0  0  0  0  0  0
  159.0580  213.8310  143.8900 O   0  0  0  0  0  1  0  0  0  0  0  0
  161.0460  213.5530  145.2330 C   0  0  0  0  0  0  0  0  0  0  0  0
  159.6920  211.6620  146.8000 C   0  0  0  0  0  3  0  0  0  0  0  0
  160.7930  206.8430  148.0980 C   0  0  0  0  0  2  0  0  0  0  0  0
  160.5690  205.6120  145.9220 C   0  0  1  0  0  3  0  0  0  0  0  0
  161.6650  204.5690  146.0190 C   0  0  1  0  0  3  0  0  0  0  0  0
  161.4160  206.5790  146.7300 C   0  0  2  0  0  3  0  0  0  0  0  0
  162.4970  205.5240  146.8540 C   0  0  0  0  0  2  0  0  0  0  0  0
  160.4720  206.0660  144.6070 O   0  0  0  0  0  1  0  0  0  0  0  0
  161.2050  203.3960  146.8720 C   0  0  0  0  0  2  0  0  0  0  0  0
  160.4430  202.3500  144.9050 O   0  0  0  0  0  0  0  0  0  0  0  0
  160.9250  202.2030  146.0140 C   0  0  0  0  0  0  0  0  0  0  0  0
  161.2060  200.8280  146.5210 C   0  0  0  0  0  1  0  0  0  0  0  0
  1 30  1  6  0  0  0
  2  6  1  0  0  0  0
  3  7  1  1  0  0  0
  3  9  1  0  0  0  0
  4  5  1  0  0  0  0
  4 13  1  0  0  0  0
  5 12  1  1  0  0  0
  5  3  1  0  0  0  0
  6  7  1  0  0  0  0
  8  1  1  6  0  0  0
  8  2  1  0  0  0  0
  8  5  1  0  0  0  0
 11  9  1  0  0  0  0
 13 10  1  6  0  0  0
 13 11  1  0  0  0  0
 14  4  2  0  0  0  0
 15 16  2  0  0  0  0
 16 17  1  0  0  0  0
 16  1  1  0  0  0  0
 18 20  1  0  0  0  0
 19 21  1  0  0  0  0
 20 26  2  0  0  0  0
 20 17  1  0  0  0  0
 21 26  1  0  0  0  0
 22 29  2  0  0  0  0
 23 28  2  0  0  0  0
 23 22  1  0  0  0  0
 24 28  1  0  0  0  0
 25 19  1  0  0  0  0
 25 18  2  0  0  0  0
 27 23  1  0  0  0  0
 28 25  1  0  0  0  0
 29 18  1  0  0  0  0
 31 35  1  6  0  0  0
 31 32  1  0  0  0  0
 31 33  1  0  0  0  0
 32 34  1  0  0  0  0
 32 36  1  1  0  0  0
 33 34  1  0  0  0  0
 33 30  1  1  0  0  0
 37 38  2  0  0  0  0
 38 39  1  0  0  0  0
 38 36  1  0  0  0  0
M  END
>  <MODEL>
9

>  <REMARK>
 VINA RESULT:      -4.5      3.803      8.021
  Name = 
  8 active torsions:
  status: ('A' for Active; 'I' for Inactive)
    1  A    between atoms: C_10  and  C_12
    2  A    between atoms: C_10  and  C_28
    3  A    between atoms: C_10  and  C_39
    4  A    between atoms: C_13  and  C_38
    5  A    between atoms: C_19  and  C_25
    6  A    between atoms: C_20  and  C_25
    7  A    between atoms: C_26  and  C_28
    8  A    between atoms: C_38  and  C_39
                            x       y       z     vdW  Elec       q    Type
                         _______ _______ _______ _____ _____    ______ ____

>  <TORSDO>
F 8

$$$$
