=
 OpenBabel11072414183D

 34 37  0  0  1  0  0  0  0  0999 V2000
  161.5390  208.4460  153.7960 C   0  0  0  0  0  3  0  0  0  0  0  0
  160.1810  208.6690  155.7870 C   0  0  0  0  0  3  0  0  0  0  0  0
  160.4590  206.5000  154.7440 C   0  0  0  0  0  3  0  0  0  0  0  0
  161.0000  209.2480  154.8130 C   0  0  0  0  0  0  0  0  0  0  0  0
  159.9060  207.2980  155.7490 C   0  0  0  0  0  0  0  0  0  0  0  0
  159.1140  206.7410  156.6960 F   0  0  0  0  0  0  0  0  0  0  0  0
  161.2780  207.0740  153.7640 C   0  0  0  0  0  0  0  0  0  0  0  0
  159.3520  210.8190  152.4020 O   0  0  0  0  0  1  0  0  0  0  0  0
  158.9910  213.4840  155.0890 C   0  0  0  0  0  0  0  0  0  0  0  0
  160.0810  211.5070  155.2310 C   0  0  2  0  0  3  0  0  0  0  0  0
  159.2730  212.2960  154.3510 N   0  0  0  0  0  0  0  0  0  0  0  0
  159.7470  214.3090  157.2480 O   0  0  0  0  0  0  0  0  0  0  0  0
  158.9500  212.0140  152.9840 C   0  0  0  0  0  0  0  0  0  0  0  0
  158.2850  212.8400  152.3040 O   0  0  0  0  0  0  0  0  0  0  0  0
  161.6160  211.8080  156.8490 N   0  0  0  0  0  0  0  0  0  0  0  0
  162.1710  211.0060  156.0310 N   0  0  0  0  0  0  0  0  0  0  0  0
  158.3090  214.4530  154.6630 O   0  0  0  0  0  0  0  0  0  0  0  0
  160.3160  212.1080  156.3760 C   0  0  1  0  0  3  0  0  0  0  0  0
  159.6590  213.4070  156.3740 C   0  0  0  0  0  0  0  0  0  0  0  0
  161.3030  210.7150  154.8860 C   0  0  1  0  0  3  0  0  0  0  0  0
  161.9050  206.2100  152.7030 C   0  0  0  0  0  2  0  0  0  0  0  0
  161.8300  206.6610  150.3320 C   0  0  2  0  0  3  0  0  0  0  0  0
  160.8640  204.6780  151.1610 C   0  0  0  0  0  2  0  0  0  0  0  0
  161.5330  204.3860  149.8320 C   0  0  2  0  0  3  0  0  0  0  0  0
  161.6390  205.7330  149.1340 C   0  0  1  0  0  3  0  0  0  0  0  0
  161.1060  206.0890  151.4710 N   0  0  0  0  0  0  0  0  0  0  0  0
  160.8620  203.2890  149.0610 C   0  0  0  0  0  0  0  0  0  0  0  0
  161.2760  202.9710  147.7740 O   0  0  0  0  0  0  0  0  0  0  0  0
  159.9370  202.6280  149.5990 O   0  0  0  0  0  1  0  0  0  0  0  0
  162.2660  208.6740  149.1190 O   0  0  0  0  0  1  0  0  0  0  0  0
  161.4430  208.1180  150.1000 C   0  0  0  0  0  2  0  0  0  0  0  0
  160.3740  206.0860  148.3420 C   0  0  0  0  0  2  0  0  0  0  0  0
  162.0730  206.0760  146.6820 O   0  0  0  0  0  1  0  0  0  0  0  0
  160.7250  206.3580  146.8930 C   0  0  0  0  0  2  0  0  0  0  0  0
  1  4  1  0  0  0  0
  3  5  2  0  0  0  0
  4  2  2  0  0  0  0
  5  2  1  0  0  0  0
  5  6  1  0  0  0  0
  7  1  2  0  0  0  0
  7  3  1  0  0  0  0
  8 13  1  0  0  0  0
  9 19  1  0  0  0  0
 10 11  1  6  0  0  0
 10 18  1  0  0  0  0
 11  9  1  0  0  0  0
 13 11  1  0  0  0  0
 14 13  2  0  0  0  0
 16 15  2  0  0  0  0
 17  9  2  0  0  0  0
 18 19  1  6  0  0  0
 18 15  1  0  0  0  0
 19 12  2  0  0  0  0
 20  4  1  1  0  0  0
 20 10  1  0  0  0  0
 20 16  1  0  0  0  0
 21  7  1  0  0  0  0
 22 31  1  6  0  0  0
 22 26  1  0  0  0  0
 23 26  1  0  0  0  0
 24 27  1  6  0  0  0
 24 23  1  0  0  0  0
 25 32  1  1  0  0  0
 25 24  1  0  0  0  0
 25 22  1  0  0  0  0
 26 21  1  0  0  0  0
 27 29  1  0  0  0  0
 28 27  2  0  0  0  0
 30 31  1  0  0  0  0
 33 34  1  0  0  0  0
 34 32  1  0  0  0  0
M  END
>  <MODEL>
1

>  <REMARK>
 VINA RESULT:      -7.7      0.000      0.000
  Name = 
  7 active torsions:
  status: ('A' for Active; 'I' for Inactive)
    1  A    between atoms: C_3  and  C_16
    2  A    between atoms: C_6  and  C_7
    3  A    between atoms: C_7  and  C_18
    4  A    between atoms: C_9  and  C_32
    5  A    between atoms: C_12  and  N_27
    6  A    between atoms: C_12  and  C_34
    7  A    between atoms: C_26  and  C_33
                            x       y       z     vdW  Elec       q    Type
                         _______ _______ _______ _____ _____    ______ ____

>  <TORSDO>
F 7

$$$$
=
 OpenBabel11072414183D

 34 37  0  0  1  0  0  0  0  0999 V2000
  160.8060  209.1190  153.8090 C   0  0  0  0  0  3  0  0  0  0  0  0
  159.6500  208.7800  155.9080 C   0  0  0  0  0  3  0  0  0  0  0  0
  160.6620  206.9010  154.7630 C   0  0  0  0  0  3  0  0  0  0  0  0
  160.0880  209.6400  154.8950 C   0  0  0  0  0  0  0  0  0  0  0  0
  159.9320  207.4120  155.8390 C   0  0  0  0  0  0  0  0  0  0  0  0
  159.5070  206.5840  156.8230 F   0  0  0  0  0  0  0  0  0  0  0  0
  161.1010  207.7540  153.7440 C   0  0  0  0  0  0  0  0  0  0  0  0
  160.9700  211.1300  152.0670 O   0  0  0  0  0  1  0  0  0  0  0  0
  157.8510  213.1850  152.7780 C   0  0  0  0  0  0  0  0  0  0  0  0
  158.7370  211.5240  154.0330 C   0  0  2  0  0  3  0  0  0  0  0  0
  158.9070  212.2260  152.7960 N   0  0  0  0  0  0  0  0  0  0  0  0
  156.1640  213.8200  154.4090 O   0  0  0  0  0  0  0  0  0  0  0  0
  159.9870  212.0900  151.8650 C   0  0  0  0  0  0  0  0  0  0  0  0
  160.0460  212.8310  150.8480 O   0  0  0  0  0  0  0  0  0  0  0  0
  158.0030  211.9260  156.1220 N   0  0  0  0  0  0  0  0  0  0  0  0
  159.1580  211.4140  156.2840 N   0  0  0  0  0  0  0  0  0  0  0  0
  157.6500  214.0190  151.8560 O   0  0  0  0  0  0  0  0  0  0  0  0
  157.7230  211.9790  154.7360 C   0  0  1  0  0  3  0  0  0  0  0  0
  157.0920  213.0700  154.0080 C   0  0  0  0  0  0  0  0  0  0  0  0
  159.7970  211.1070  155.0020 C   0  0  1  0  0  3  0  0  0  0  0  0
  161.9200  207.2120  152.6040 C   0  0  0  0  0  2  0  0  0  0  0  0
  161.8540  207.2240  150.1900 C   0  0  2  0  0  3  0  0  0  0  0  0
  160.9250  205.4030  151.3620 C   0  0  0  0  0  2  0  0  0  0  0  0
  161.6100  204.8900  150.1100 C   0  0  2  0  0  3  0  0  0  0  0  0
  161.6920  206.0910  149.1800 C   0  0  1  0  0  3  0  0  0  0  0  0
  161.1340  206.8510  151.4120 N   0  0  0  0  0  0  0  0  0  0  0  0
  160.9690  203.6570  149.5480 C   0  0  0  0  0  0  0  0  0  0  0  0
  161.3490  203.1630  148.3060 O   0  0  0  0  0  0  0  0  0  0  0  0
  160.1030  203.0450  150.2240 O   0  0  0  0  0  1  0  0  0  0  0  0
  162.2970  209.0230  148.6790 O   0  0  0  0  0  1  0  0  0  0  0  0
  161.4370  208.6060  149.6970 C   0  0  0  0  0  2  0  0  0  0  0  0
  160.4260  206.2660  148.3320 C   0  0  0  0  0  2  0  0  0  0  0  0
  162.1630  206.2960  146.7120 O   0  0  0  0  0  1  0  0  0  0  0  0
  160.7780  206.2460  146.8590 C   0  0  0  0  0  2  0  0  0  0  0  0
  1  4  1  0  0  0  0
  3  5  2  0  0  0  0
  4  2  2  0  0  0  0
  5  2  1  0  0  0  0
  5  6  1  0  0  0  0
  7  1  2  0  0  0  0
  7  3  1  0  0  0  0
  9 11  1  0  0  0  0
  9 19  1  0  0  0  0
 10 11  1  6  0  0  0
 10 18  1  0  0  0  0
 10 20  1  0  0  0  0
 13  8  1  0  0  0  0
 13 11  1  0  0  0  0
 14 13  2  0  0  0  0
 15 16  2  0  0  0  0
 17  9  2  0  0  0  0
 18 19  1  6  0  0  0
 18 15  1  0  0  0  0
 19 12  2  0  0  0  0
 20  4  1  1  0  0  0
 20 16  1  0  0  0  0
 21  7  1  0  0  0  0
 22 31  1  6  0  0  0
 22 26  1  0  0  0  0
 23 26  1  0  0  0  0
 24 27  1  6  0  0  0
 24 23  1  0  0  0  0
 25 32  1  1  0  0  0
 25 24  1  0  0  0  0
 25 22  1  0  0  0  0
 26 21  1  0  0  0  0
 27 29  1  0  0  0  0
 28 27  2  0  0  0  0
 30 31  1  0  0  0  0
 33 34  1  0  0  0  0
 34 32  1  0  0  0  0
M  END
>  <MODEL>
2

>  <REMARK>
 VINA RESULT:      -7.4      1.493      1.782
  Name = 
  7 active torsions:
  status: ('A' for Active; 'I' for Inactive)
    1  A    between atoms: C_3  and  C_16
    2  A    between atoms: C_6  and  C_7
    3  A    between atoms: C_7  and  C_18
    4  A    between atoms: C_9  and  C_32
    5  A    between atoms: C_12  and  N_27
    6  A    between atoms: C_12  and  C_34
    7  A    between atoms: C_26  and  C_33
                            x       y       z     vdW  Elec       q    Type
                         _______ _______ _______ _____ _____    ______ ____

>  <TORSDO>
F 7

$$$$
=
 OpenBabel11072414183D

 34 37  0  0  1  0  0  0  0  0999 V2000
  160.9980  206.9810  151.1480 C   0  0  0  0  0  3  0  0  0  0  0  0
  161.4440  207.5550  148.8390 C   0  0  0  0  0  3  0  0  0  0  0  0
  162.2110  209.0060  150.6220 C   0  0  0  0  0  3  0  0  0  0  0  0
  160.8950  206.6790  149.7820 C   0  0  0  0  0  0  0  0  0  0  0  0
  162.0970  208.7190  149.2590 C   0  0  0  0  0  0  0  0  0  0  0  0
  162.6280  209.5620  148.3430 F   0  0  0  0  0  0  0  0  0  0  0  0
  161.6610  208.1360  151.5700 C   0  0  0  0  0  0  0  0  0  0  0  0
  160.5460  206.8010  146.4860 O   0  0  0  0  0  1  0  0  0  0  0  0
  161.3190  203.0910  146.7820 C   0  0  0  0  0  0  0  0  0  0  0  0
  161.1310  204.6080  148.4500 C   0  0  2  0  0  3  0  0  0  0  0  0
  161.1030  204.4800  147.0240 N   0  0  0  0  0  0  0  0  0  0  0  0
  161.5090  201.1660  148.2560 O   0  0  0  0  0  0  0  0  0  0  0  0
  160.7810  205.4980  146.0680 C   0  0  0  0  0  0  0  0  0  0  0  0
  160.7230  205.2220  144.8410 O   0  0  0  0  0  0  0  0  0  0  0  0
  160.5890  203.4020  150.2700 N   0  0  0  0  0  0  0  0  0  0  0  0
  159.9890  204.5130  150.4360 N   0  0  0  0  0  0  0  0  0  0  0  0
  161.3560  202.5530  145.6440 O   0  0  0  0  0  0  0  0  0  0  0  0
  161.3140  203.4560  149.0570 C   0  0  1  0  0  3  0  0  0  0  0  0
  161.4350  202.4070  148.0560 C   0  0  0  0  0  0  0  0  0  0  0  0
  160.2220  205.4240  149.3120 C   0  0  1  0  0  3  0  0  0  0  0  0
  161.8180  208.4230  153.0390 C   0  0  0  0  0  2  0  0  0  0  0  0
  160.9620  209.5660  154.9870 C   0  0  2  0  0  3  0  0  0  0  0  0
  160.1240  210.1270  152.8570 C   0  0  0  0  0  2  0  0  0  0  0  0
  160.2390  211.3870  153.6930 C   0  0  2  0  0  3  0  0  0  0  0  0
  160.2500  210.9090  155.1360 C   0  0  1  0  0  3  0  0  0  0  0  0
  160.6260  209.0170  153.6700 N   0  0  0  0  0  0  0  0  0  0  0  0
  159.2130  212.4230  153.3450 C   0  0  0  0  0  0  0  0  0  0  0  0
  159.1480  213.6210  154.0460 O   0  0  0  0  0  1  0  0  0  0  0  0
  158.4260  212.2190  152.3850 O   0  0  0  0  0  0  0  0  0  0  0  0
  161.9040  208.1230  156.6430 O   0  0  0  0  0  1  0  0  0  0  0  0
  160.6940  208.5550  156.0980 C   0  0  0  0  0  2  0  0  0  0  0  0
  158.8380  210.7390  155.7110 C   0  0  0  0  0  2  0  0  0  0  0  0
  159.7170  212.4430  157.1140 O   0  0  0  0  0  1  0  0  0  0  0  0
  158.7220  211.4710  157.0330 C   0  0  0  0  0  2  0  0  0  0  0  0
  1  7  1  0  0  0  0
  2  5  2  0  0  0  0
  2  4  1  0  0  0  0
  3  7  2  0  0  0  0
  4  1  2  0  0  0  0
  5  3  1  0  0  0  0
  6  5  1  0  0  0  0
  7 21  1  0  0  0  0
  9 11  1  0  0  0  0
  9 19  1  0  0  0  0
 10 11  1  6  0  0  0
 10 18  1  0  0  0  0
 10 20  1  0  0  0  0
 13  8  1  0  0  0  0
 13 11  1  0  0  0  0
 14 13  2  0  0  0  0
 15 16  2  0  0  0  0
 17  9  2  0  0  0  0
 18 19  1  6  0  0  0
 18 15  1  0  0  0  0
 19 12  2  0  0  0  0
 20  4  1  1  0  0  0
 20 16  1  0  0  0  0
 21 26  1  0  0  0  0
 22 25  1  0  0  0  0
 22 31  1  1  0  0  0
 23 26  1  0  0  0  0
 23 24  1  0  0  0  0
 24 27  1  1  0  0  0
 24 25  1  0  0  0  0
 25 32  1  6  0  0  0
 26 22  1  0  0  0  0
 27 28  1  0  0  0  0
 29 27  2  0  0  0  0
 31 30  1  0  0  0  0
 32 34  1  0  0  0  0
 34 33  1  0  0  0  0
M  END
>  <MODEL>
3

>  <REMARK>
 VINA RESULT:      -6.9      2.602      9.436
  Name = 
  7 active torsions:
  status: ('A' for Active; 'I' for Inactive)
    1  A    between atoms: C_3  and  C_16
    2  A    between atoms: C_6  and  C_7
    3  A    between atoms: C_7  and  C_18
    4  A    between atoms: C_9  and  C_32
    5  A    between atoms: C_12  and  N_27
    6  A    between atoms: C_12  and  C_34
    7  A    between atoms: C_26  and  C_33
                            x       y       z     vdW  Elec       q    Type
                         _______ _______ _______ _____ _____    ______ ____

>  <TORSDO>
F 7

$$$$
=
 OpenBabel11072414183D

 34 37  0  0  1  0  0  0  0  0999 V2000
  161.3230  209.0690  152.5900 C   0  0  0  0  0  3  0  0  0  0  0  0
  161.2760  206.8340  153.5180 C   0  0  0  0  0  3  0  0  0  0  0  0
  160.4170  208.7000  154.8020 C   0  0  0  0  0  3  0  0  0  0  0  0
  161.5890  207.6980  152.4630 C   0  0  0  0  0  0  0  0  0  0  0  0
  160.6960  207.3360  154.6870 C   0  0  0  0  0  0  0  0  0  0  0  0
  160.3930  206.4950  155.7050 F   0  0  0  0  0  0  0  0  0  0  0  0
  160.7300  209.5710  153.7520 C   0  0  0  0  0  0  0  0  0  0  0  0
  161.6100  204.3880  152.6560 O   0  0  0  0  0  1  0  0  0  0  0  0
  160.7970  204.6780  148.9540 C   0  0  0  0  0  0  0  0  0  0  0  0
  161.1800  206.3510  150.4280 C   0  0  2  0  0  3  0  0  0  0  0  0
  161.0630  204.9270  150.3330 N   0  0  0  0  0  0  0  0  0  0  0  0
  160.7160  206.1210  146.9980 O   0  0  0  0  0  0  0  0  0  0  0  0
  161.3090  203.9670  151.3670 C   0  0  0  0  0  0  0  0  0  0  0  0
  161.2390  202.7340  151.1200 O   0  0  0  0  0  0  0  0  0  0  0  0
  161.8770  208.0820  149.1690 N   0  0  0  0  0  0  0  0  0  0  0  0
  162.5120  208.2110  150.2660 N   0  0  0  0  0  0  0  0  0  0  0  0
  160.6360  203.5380  148.4440 O   0  0  0  0  0  0  0  0  0  0  0  0
  161.0350  206.9480  149.2650 C   0  0  1  0  0  3  0  0  0  0  0  0
  160.7950  205.9420  148.2420 C   0  0  0  0  0  0  0  0  0  0  0  0
  162.1870  207.1360  151.2070 C   0  0  1  0  0  3  0  0  0  0  0  0
  160.3950  211.0340  153.8580 C   0  0  0  0  0  2  0  0  0  0  0  0
  158.6530  212.2820  154.9710 C   0  0  2  0  0  3  0  0  0  0  0  0
  158.5160  211.9310  152.6450 C   0  0  0  0  0  2  0  0  0  0  0  0
  158.0160  213.3260  152.9660 C   0  0  2  0  0  3  0  0  0  0  0  0
  157.6310  213.2830  154.4370 C   0  0  1  0  0  3  0  0  0  0  0  0
  158.9510  211.3220  153.9040 N   0  0  0  0  0  0  0  0  0  0  0  0
  156.9610  213.8090  152.0180 C   0  0  0  0  0  0  0  0  0  0  0  0
  155.8160  214.4390  152.4900 O   0  0  0  0  0  1  0  0  0  0  0  0
  157.1310  213.6730  150.7780 O   0  0  0  0  0  0  0  0  0  0  0  0
  159.3870  211.4330  157.0820 O   0  0  0  0  0  1  0  0  0  0  0  0
  158.2640  211.5750  156.2660 C   0  0  0  0  0  2  0  0  0  0  0  0
  156.1940  212.7920  154.6550 C   0  0  0  0  0  2  0  0  0  0  0  0
  155.0250  212.8170  156.7230 O   0  0  0  0  0  1  0  0  0  0  0  0
  155.5070  213.6390  155.7070 C   0  0  0  0  0  2  0  0  0  0  0  0
  1  7  1  0  0  0  0
  2  5  2  0  0  0  0
  4  1  2  0  0  0  0
  4  2  1  0  0  0  0
  5  3  1  0  0  0  0
  5  6  1  0  0  0  0
  7 21  1  0  0  0  0
  7  3  2  0  0  0  0
  9 11  1  0  0  0  0
 10 11  1  6  0  0  0
 10 20  1  0  0  0  0
 11 13  1  0  0  0  0
 12 19  2  0  0  0  0
 13  8  1  0  0  0  0
 14 13  2  0  0  0  0
 15 18  1  0  0  0  0
 15 16  2  0  0  0  0
 16 20  1  0  0  0  0
 17  9  2  0  0  0  0
 18 19  1  6  0  0  0
 18 10  1  0  0  0  0
 19  9  1  0  0  0  0
 20  4  1  1  0  0  0
 21 26  1  0  0  0  0
 22 31  1  1  0  0  0
 23 24  1  0  0  0  0
 23 26  1  0  0  0  0
 24 27  1  6  0  0  0
 24 25  1  0  0  0  0
 25 32  1  6  0  0  0
 25 22  1  0  0  0  0
 26 22  1  0  0  0  0
 27 28  1  0  0  0  0
 29 27  2  0  0  0  0
 31 30  1  0  0  0  0
 32 34  1  0  0  0  0
 34 33  1  0  0  0  0
M  END
>  <MODEL>
4

>  <REMARK>
 VINA RESULT:      -6.6      2.036      8.787
  Name = 
  7 active torsions:
  status: ('A' for Active; 'I' for Inactive)
    1  A    between atoms: C_3  and  C_16
    2  A    between atoms: C_6  and  C_7
    3  A    between atoms: C_7  and  C_18
    4  A    between atoms: C_9  and  C_32
    5  A    between atoms: C_12  and  N_27
    6  A    between atoms: C_12  and  C_34
    7  A    between atoms: C_26  and  C_33
                            x       y       z     vdW  Elec       q    Type
                         _______ _______ _______ _____ _____    ______ ____

>  <TORSDO>
F 7

$$$$
=
 OpenBabel11072414183D

 34 37  0  0  1  0  0  0  0  0999 V2000
  160.4960  209.6500  153.9630 C   0  0  0  0  0  3  0  0  0  0  0  0
  159.7140  208.9860  156.1550 C   0  0  0  0  0  3  0  0  0  0  0  0
  160.8260  207.3780  154.7240 C   0  0  0  0  0  3  0  0  0  0  0  0
  159.8690  209.9720  155.1760 C   0  0  0  0  0  0  0  0  0  0  0  0
  160.1860  207.6890  155.9270 C   0  0  0  0  0  0  0  0  0  0  0  0
  160.0350  206.7380  156.8790 F   0  0  0  0  0  0  0  0  0  0  0  0
  160.9820  208.3590  153.7380 C   0  0  0  0  0  0  0  0  0  0  0  0
  159.6350  211.6270  152.3110 O   0  0  0  0  0  1  0  0  0  0  0  0
  156.5530  213.0820  153.9960 C   0  0  0  0  0  0  0  0  0  0  0  0
  158.0300  211.5930  154.8470 C   0  0  2  0  0  3  0  0  0  0  0  0
  157.7160  212.3280  153.6580 N   0  0  0  0  0  0  0  0  0  0  0  0
  155.3260  213.3870  156.0730 O   0  0  0  0  0  0  0  0  0  0  0  0
  158.4890  212.3980  152.4540 C   0  0  0  0  0  0  0  0  0  0  0  0
  158.1270  213.1480  151.5090 O   0  0  0  0  0  0  0  0  0  0  0  0
  157.8720  211.8340  157.0780 N   0  0  0  0  0  0  0  0  0  0  0  0
  159.0940  211.5360  156.8770 N   0  0  0  0  0  0  0  0  0  0  0  0
  155.9580  213.8760  153.2220 O   0  0  0  0  0  0  0  0  0  0  0  0
  157.2000  211.8510  155.8330 C   0  0  1  0  0  3  0  0  0  0  0  0
  156.2110  212.8190  155.3810 C   0  0  0  0  0  0  0  0  0  0  0  0
  159.3780  211.3620  155.4500 C   0  0  1  0  0  3  0  0  0  0  0  0
  161.7040  208.0350  152.4580 C   0  0  0  0  0  2  0  0  0  0  0  0
  161.8480  206.7110  150.4430 C   0  0  2  0  0  3  0  0  0  0  0  0
  161.0120  205.7270  152.4140 C   0  0  0  0  0  2  0  0  0  0  0  0
  161.8530  204.7090  151.6700 C   0  0  2  0  0  3  0  0  0  0  0  0
  161.8920  205.2000  150.2310 C   0  0  1  0  0  3  0  0  0  0  0  0
  161.0660  206.9780  151.6540 N   0  0  0  0  0  0  0  0  0  0  0  0
  161.3930  203.2970  151.8770 C   0  0  0  0  0  0  0  0  0  0  0  0
  162.1940  202.2270  151.4990 O   0  0  0  0  0  0  0  0  0  0  0  0
  160.2850  203.0800  152.4320 O   0  0  0  0  0  1  0  0  0  0  0  0
  162.4140  208.0950  148.5780 O   0  0  0  0  0  1  0  0  0  0  0  0
  161.3360  207.5250  149.2580 C   0  0  0  0  0  2  0  0  0  0  0  0
  160.6940  204.7090  149.4090 C   0  0  0  0  0  2  0  0  0  0  0  0
  160.6430  202.5110  148.5090 O   0  0  0  0  0  1  0  0  0  0  0  0
  161.1630  203.7870  148.3020 C   0  0  0  0  0  2  0  0  0  0  0  0
  1  4  1  0  0  0  0
  3  5  2  0  0  0  0
  4  2  2  0  0  0  0
  5  2  1  0  0  0  0
  5  6  1  0  0  0  0
  7  1  2  0  0  0  0
  7  3  1  0  0  0  0
  8 13  1  0  0  0  0
  9 19  1  0  0  0  0
 10 11  1  6  0  0  0
 10 20  1  0  0  0  0
 10 18  1  0  0  0  0
 11  9  1  0  0  0  0
 13 11  1  0  0  0  0
 14 13  2  0  0  0  0
 16 15  2  0  0  0  0
 17  9  2  0  0  0  0
 18 19  1  6  0  0  0
 18 15  1  0  0  0  0
 19 12  2  0  0  0  0
 20  4  1  1  0  0  0
 20 16  1  0  0  0  0
 21  7  1  0  0  0  0
 22 31  1  6  0  0  0
 22 26  1  0  0  0  0
 24 27  1  6  0  0  0
 24 23  1  0  0  0  0
 25 32  1  6  0  0  0
 25 22  1  0  0  0  0
 25 24  1  0  0  0  0
 26 23  1  0  0  0  0
 26 21  1  0  0  0  0
 27 29  1  0  0  0  0
 28 27  2  0  0  0  0
 30 31  1  0  0  0  0
 34 33  1  0  0  0  0
 34 32  1  0  0  0  0
M  END
>  <MODEL>
5

>  <REMARK>
 VINA RESULT:      -6.6      1.750      2.321
  Name = 
  7 active torsions:
  status: ('A' for Active; 'I' for Inactive)
    1  A    between atoms: C_3  and  C_16
    2  A    between atoms: C_6  and  C_7
    3  A    between atoms: C_7  and  C_18
    4  A    between atoms: C_9  and  C_32
    5  A    between atoms: C_12  and  N_27
    6  A    between atoms: C_12  and  C_34
    7  A    between atoms: C_26  and  C_33
                            x       y       z     vdW  Elec       q    Type
                         _______ _______ _______ _____ _____    ______ ____

>  <TORSDO>
F 7

$$$$
=
 OpenBabel11072414183D

 34 37  0  0  1  0  0  0  0  0999 V2000
  161.9340  208.2310  150.2680 C   0  0  0  0  0  3  0  0  0  0  0  0
  161.3270  207.5300  152.5030 C   0  0  0  0  0  3  0  0  0  0  0  0
  161.4410  205.9050  150.7100 C   0  0  0  0  0  3  0  0  0  0  0  0
  161.7020  208.5440  151.6150 C   0  0  0  0  0  0  0  0  0  0  0  0
  161.1920  206.2130  152.0500 C   0  0  0  0  0  0  0  0  0  0  0  0
  160.8310  205.2360  152.9140 F   0  0  0  0  0  0  0  0  0  0  0  0
  161.8130  206.9150  149.8150 C   0  0  0  0  0  0  0  0  0  0  0  0
  162.2740  210.5750  149.0570 O   0  0  0  0  0  1  0  0  0  0  0  0
  160.1130  212.9340  151.1110 C   0  0  0  0  0  0  0  0  0  0  0  0
  160.7680  210.8340  151.6400 C   0  0  2  0  0  3  0  0  0  0  0  0
  160.8320  211.8140  150.5980 N   0  0  0  0  0  0  0  0  0  0  0  0
  159.1040  213.4030  153.2730 O   0  0  0  0  0  0  0  0  0  0  0  0
  161.5800  211.7350  149.3790 C   0  0  0  0  0  0  0  0  0  0  0  0
  161.6030  212.7100  148.5820 O   0  0  0  0  0  0  0  0  0  0  0  0
  160.6890  210.7540  153.8880 N   0  0  0  0  0  0  0  0  0  0  0  0
  161.6590  209.9900  153.5770 N   0  0  0  0  0  0  0  0  0  0  0  0
  159.9420  214.0230  150.5020 O   0  0  0  0  0  0  0  0  0  0  0  0
  160.1170  211.2650  152.6990 C   0  0  1  0  0  3  0  0  0  0  0  0
  159.6630  212.6260  152.4550 C   0  0  0  0  0  0  0  0  0  0  0  0
  161.8660  209.9430  152.1270 C   0  0  1  0  0  3  0  0  0  0  0  0
  162.1190  206.5780  148.3800 C   0  0  0  0  0  2  0  0  0  0  0  0
  161.9460  204.8500  146.7020 C   0  0  2  0  0  3  0  0  0  0  0  0
  160.9790  204.5010  148.8220 C   0  0  0  0  0  2  0  0  0  0  0  0
  161.5810  203.1990  148.3320 C   0  0  2  0  0  3  0  0  0  0  0  0
  161.6830  203.3500  146.8220 C   0  0  1  0  0  3  0  0  0  0  0  0
  161.2630  205.5220  147.8110 N   0  0  0  0  0  0  0  0  0  0  0  0
  160.8540  201.9870  148.8300 C   0  0  0  0  0  0  0  0  0  0  0  0
  161.4220  200.7230  148.7200 O   0  0  0  0  0  0  0  0  0  0  0  0
  159.7330  202.1190  149.3840 O   0  0  0  0  0  1  0  0  0  0  0  0
  160.3880  206.1930  145.4840 O   0  0  0  0  0  1  0  0  0  0  0  0
  161.5780  205.4740  145.3590 C   0  0  0  0  0  2  0  0  0  0  0  0
  160.3910  202.9450  146.1010 C   0  0  0  0  0  2  0  0  0  0  0  0
  159.6090  201.3620  144.5110 O   0  0  0  0  0  1  0  0  0  0  0  0
  160.5210  201.5390  145.5500 C   0  0  0  0  0  2  0  0  0  0  0  0
  1  4  1  0  0  0  0
  3  5  2  0  0  0  0
  4  2  2  0  0  0  0
  5  2  1  0  0  0  0
  5  6  1  0  0  0  0
  7  1  2  0  0  0  0
  7  3  1  0  0  0  0
  8 13  1  0  0  0  0
  9 19  1  0  0  0  0
 10 11  1  1  0  0  0
 10 20  1  0  0  0  0
 10 18  1  0  0  0  0
 11  9  1  0  0  0  0
 13 11  1  0  0  0  0
 14 13  2  0  0  0  0
 16 15  2  0  0  0  0
 17  9  2  0  0  0  0
 18 19  1  1  0  0  0
 18 15  1  0  0  0  0
 19 12  2  0  0  0  0
 20  4  1  6  0  0  0
 20 16  1  0  0  0  0
 21  7  1  0  0  0  0
 22 31  1  6  0  0  0
 22 25  1  0  0  0  0
 22 26  1  0  0  0  0
 24 23  1  0  0  0  0
 24 27  1  6  0  0  0
 25 32  1  6  0  0  0
 25 24  1  0  0  0  0
 26 21  1  0  0  0  0
 26 23  1  0  0  0  0
 27 29  1  0  0  0  0
 28 27  2  0  0  0  0
 31 30  1  0  0  0  0
 33 34  1  0  0  0  0
 34 32  1  0  0  0  0
M  END
>  <MODEL>
6

>  <REMARK>
 VINA RESULT:      -6.5      2.497      3.896
  Name = 
  7 active torsions:
  status: ('A' for Active; 'I' for Inactive)
    1  A    between atoms: C_3  and  C_16
    2  A    between atoms: C_6  and  C_7
    3  A    between atoms: C_7  and  C_18
    4  A    between atoms: C_9  and  C_32
    5  A    between atoms: C_12  and  N_27
    6  A    between atoms: C_12  and  C_34
    7  A    between atoms: C_26  and  C_33
                            x       y       z     vdW  Elec       q    Type
                         _______ _______ _______ _____ _____    ______ ____

>  <TORSDO>
F 7

$$$$
=
 OpenBabel11072414183D

 34 37  0  0  1  0  0  0  0  0999 V2000
  160.8270  208.8870  152.8710 C   0  0  0  0  0  3  0  0  0  0  0  0
  161.5080  210.8370  151.6110 C   0  0  0  0  0  3  0  0  0  0  0  0
  161.8270  208.6220  150.6860 C   0  0  0  0  0  3  0  0  0  0  0  0
  160.9380  210.2800  152.7610 C   0  0  0  0  0  0  0  0  0  0  0  0
  161.9570  210.0090  150.5770 C   0  0  0  0  0  0  0  0  0  0  0  0
  162.5050  210.5530  149.4660 F   0  0  0  0  0  0  0  0  0  0  0  0
  161.2610  208.0570  151.8340 C   0  0  0  0  0  0  0  0  0  0  0  0
  159.4510  212.9060  151.3860 O   0  0  0  0  0  0  0  0  0  0  0  0
  157.1050  212.4820  154.3470 C   0  0  0  0  0  0  0  0  0  0  0  0
  158.9470  211.2660  153.8480 C   0  0  2  0  0  3  0  0  0  0  0  0
  158.1260  212.3340  153.3620 N   0  0  0  0  0  0  0  0  0  0  0  0
  156.7360  211.4450  156.5150 O   0  0  0  0  0  0  0  0  0  0  0  0
  158.3690  213.1610  152.2180 C   0  0  0  0  0  0  0  0  0  0  0  0
  157.5940  214.1180  151.9490 O   0  0  0  0  0  1  0  0  0  0  0  0
  159.6260  210.4130  155.8170 N   0  0  0  0  0  0  0  0  0  0  0  0
  160.7040  210.6060  155.1650 N   0  0  0  0  0  0  0  0  0  0  0  0
  156.1760  213.3310  154.3020 O   0  0  0  0  0  0  0  0  0  0  0  0
  158.5330  210.7980  155.0060 C   0  0  1  0  0  3  0  0  0  0  0  0
  157.3470  211.5340  155.4180 C   0  0  0  0  0  0  0  0  0  0  0  0
  160.4400  211.1870  153.8460 C   0  0  1  0  0  3  0  0  0  0  0  0
  161.0860  206.5650  151.9360 C   0  0  0  0  0  2  0  0  0  0  0  0
  160.8020  204.6270  150.5240 C   0  0  2  0  0  3  0  0  0  0  0  0
  161.5800  206.6410  149.5780 C   0  0  0  0  0  2  0  0  0  0  0  0
  160.6450  205.9610  148.5970 C   0  0  2  0  0  3  0  0  0  0  0  0
  160.6270  204.4980  149.0120 C   0  0  1  0  0  3  0  0  0  0  0  0
  161.6210  205.8150  150.7870 N   0  0  0  0  0  0  0  0  0  0  0  0
  160.9870  206.2400  147.1650 C   0  0  0  0  0  0  0  0  0  0  0  0
  162.2980  206.5030  146.7850 O   0  0  0  0  0  1  0  0  0  0  0  0
  160.0810  206.2030  146.2920 O   0  0  0  0  0  0  0  0  0  0  0  0
  160.6310  203.1390  152.3860 O   0  0  0  0  0  1  0  0  0  0  0  0
  161.3640  203.3950  151.2260 C   0  0  0  0  0  2  0  0  0  0  0  0
  161.7680  203.6920  148.3780 C   0  0  0  0  0  2  0  0  0  0  0  0
  161.2060  202.8300  146.2370 O   0  0  0  0  0  1  0  0  0  0  0  0
  161.2070  202.5210  147.5960 C   0  0  0  0  0  2  0  0  0  0  0  0
  2  4  2  0  0  0  0
  3  7  1  0  0  0  0
  4  1  1  0  0  0  0
  5  3  2  0  0  0  0
  5  2  1  0  0  0  0
  6  5  1  0  0  0  0
  7 21  1  0  0  0  0
  7  1  2  0  0  0  0
  8 13  2  0  0  0  0
  9 19  1  0  0  0  0
 10 11  1  1  0  0  0
 10 18  1  0  0  0  0
 11  9  1  0  0  0  0
 13 11  1  0  0  0  0
 14 13  1  0  0  0  0
 16 15  2  0  0  0  0
 17  9  2  0  0  0  0
 18 19  1  1  0  0  0
 18 15  1  0  0  0  0
 19 12  2  0  0  0  0
 20  4  1  6  0  0  0
 20 10  1  0  0  0  0
 20 16  1  0  0  0  0
 22 26  1  0  0  0  0
 22 31  1  6  0  0  0
 23 26  1  0  0  0  0
 24 27  1  6  0  0  0
 24 25  1  0  0  0  0
 24 23  1  0  0  0  0
 25 32  1  6  0  0  0
 25 22  1  0  0  0  0
 26 21  1  0  0  0  0
 28 27  1  0  0  0  0
 29 27  2  0  0  0  0
 31 30  1  0  0  0  0
 33 34  1  0  0  0  0
 34 32  1  0  0  0  0
M  END
>  <MODEL>
7

>  <REMARK>
 VINA RESULT:      -6.4      2.505      3.524
  Name = 
  7 active torsions:
  status: ('A' for Active; 'I' for Inactive)
    1  A    between atoms: C_3  and  C_16
    2  A    between atoms: C_6  and  C_7
    3  A    between atoms: C_7  and  C_18
    4  A    between atoms: C_9  and  C_32
    5  A    between atoms: C_12  and  N_27
    6  A    between atoms: C_12  and  C_34
    7  A    between atoms: C_26  and  C_33
                            x       y       z     vdW  Elec       q    Type
                         _______ _______ _______ _____ _____    ______ ____

>  <TORSDO>
F 7

$$$$
=
 OpenBabel11072414183D

 34 37  0  0  1  0  0  0  0  0999 V2000
  160.8610  208.9260  152.0880 C   0  0  0  0  0  3  0  0  0  0  0  0
  161.0560  207.7940  154.2180 C   0  0  0  0  0  3  0  0  0  0  0  0
  161.3470  206.5580  152.1550 C   0  0  0  0  0  3  0  0  0  0  0  0
  160.8360  208.9680  153.4900 C   0  0  0  0  0  0  0  0  0  0  0  0
  161.3060  206.5900  153.5520 C   0  0  0  0  0  0  0  0  0  0  0  0
  161.5210  205.4570  154.2610 F   0  0  0  0  0  0  0  0  0  0  0  0
  161.1240  207.7280  151.4200 C   0  0  0  0  0  0  0  0  0  0  0  0
  160.8310  211.4750  151.3200 O   0  0  0  0  0  1  0  0  0  0  0  0
  158.0770  212.7670  153.6010 C   0  0  0  0  0  0  0  0  0  0  0  0
  159.2940  210.8730  153.8260 C   0  0  2  0  0  3  0  0  0  0  0  0
  159.0870  211.9920  152.9570 N   0  0  0  0  0  0  0  0  0  0  0  0
  156.9610  212.5700  155.7520 O   0  0  0  0  0  0  0  0  0  0  0  0
  159.8370  212.3270  151.7830 C   0  0  0  0  0  0  0  0  0  0  0  0
  159.5900  213.3890  151.1530 O   0  0  0  0  0  0  0  0  0  0  0  0
  159.2240  210.4000  156.0250 N   0  0  0  0  0  0  0  0  0  0  0  0
  160.3730  209.9970  155.6500 N   0  0  0  0  0  0  0  0  0  0  0  0
  157.6110  213.8510  153.1620 O   0  0  0  0  0  0  0  0  0  0  0  0
  158.5400  210.9240  154.9030 C   0  0  1  0  0  3  0  0  0  0  0  0
  157.7230  212.1270  154.8530 C   0  0  0  0  0  0  0  0  0  0  0  0
  160.5950  210.2530  154.2250 C   0  0  1  0  0  3  0  0  0  0  0  0
  161.2060  207.7030  149.9170 C   0  0  0  0  0  2  0  0  0  0  0  0
  160.5540  205.5090  149.1460 C   0  0  2  0  0  3  0  0  0  0  0  0
  162.3060  206.6430  148.0530 C   0  0  0  0  0  2  0  0  0  0  0  0
  161.4810  205.8970  147.0230 C   0  0  2  0  0  3  0  0  0  0  0  0
  160.7580  204.8100  147.8040 C   0  0  1  0  0  3  0  0  0  0  0  0
  161.6790  206.4240  149.3580 N   0  0  0  0  0  0  0  0  0  0  0  0
  162.2810  205.4450  145.8400 C   0  0  0  0  0  0  0  0  0  0  0  0
  161.7320  205.4620  144.5630 O   0  0  0  0  0  0  0  0  0  0  0  0
  163.4730  205.0770  146.0000 O   0  0  0  0  0  1  0  0  0  0  0  0
  161.5810  204.0540  150.7400 O   0  0  0  0  0  1  0  0  0  0  0  0
  160.3530  204.5850  150.3420 C   0  0  0  0  0  2  0  0  0  0  0  0
  161.5980  203.5350  147.9530 C   0  0  0  0  0  2  0  0  0  0  0  0
  160.3010  201.6180  148.4900 O   0  0  0  0  0  1  0  0  0  0  0  0
  160.8310  202.3410  147.4220 C   0  0  0  0  0  2  0  0  0  0  0  0
  1  4  1  0  0  0  0
  3  5  2  0  0  0  0
  4  2  2  0  0  0  0
  5  2  1  0  0  0  0
  5  6  1  0  0  0  0
  7  1  2  0  0  0  0
  7  3  1  0  0  0  0
  8 13  1  0  0  0  0
  9 19  1  0  0  0  0
 10 11  1  1  0  0  0
 10 20  1  0  0  0  0
 10 18  1  0  0  0  0
 11  9  1  0  0  0  0
 13 11  1  0  0  0  0
 14 13  2  0  0  0  0
 16 15  2  0  0  0  0
 17  9  2  0  0  0  0
 18 19  1  1  0  0  0
 18 15  1  0  0  0  0
 19 12  2  0  0  0  0
 20  4  1  6  0  0  0
 20 16  1  0  0  0  0
 21  7  1  0  0  0  0
 22 26  1  0  0  0  0
 22 31  1  1  0  0  0
 23 26  1  0  0  0  0
 24 27  1  6  0  0  0
 24 25  1  0  0  0  0
 24 23  1  0  0  0  0
 25 32  1  1  0  0  0
 25 22  1  0  0  0  0
 26 21  1  0  0  0  0
 27 29  1  0  0  0  0
 28 27  2  0  0  0  0
 31 30  1  0  0  0  0
 34 32  1  0  0  0  0
 34 33  1  0  0  0  0
M  END
>  <MODEL>
8

>  <REMARK>
 VINA RESULT:      -6.3      1.905      3.016
  Name = 
  7 active torsions:
  status: ('A' for Active; 'I' for Inactive)
    1  A    between atoms: C_3  and  C_16
    2  A    between atoms: C_6  and  C_7
    3  A    between atoms: C_7  and  C_18
    4  A    between atoms: C_9  and  C_32
    5  A    between atoms: C_12  and  N_27
    6  A    between atoms: C_12  and  C_34
    7  A    between atoms: C_26  and  C_33
                            x       y       z     vdW  Elec       q    Type
                         _______ _______ _______ _____ _____    ______ ____

>  <TORSDO>
F 7

$$$$
=
 OpenBabel11072414183D

 34 37  0  0  1  0  0  0  0  0999 V2000
  161.4640  207.5250  151.6950 C   0  0  0  0  0  3  0  0  0  0  0  0
  161.1600  206.0840  153.6160 C   0  0  0  0  0  3  0  0  0  0  0  0
  161.2350  205.1370  151.3870 C   0  0  0  0  0  3  0  0  0  0  0  0
  161.3460  207.3640  153.0830 C   0  0  0  0  0  0  0  0  0  0  0  0
  161.0990  204.9730  152.7680 C   0  0  0  0  0  0  0  0  0  0  0  0
  160.9220  203.7360  153.2890 F   0  0  0  0  0  0  0  0  0  0  0  0
  161.4180  206.4150  150.8470 C   0  0  0  0  0  0  0  0  0  0  0  0
  161.2350  210.1620  151.3060 O   0  0  0  0  0  0  0  0  0  0  0  0
  159.2000  211.3660  154.2830 C   0  0  0  0  0  0  0  0  0  0  0  0
  160.1730  209.3440  153.9910 C   0  0  2  0  0  3  0  0  0  0  0  0
  159.9450  210.5990  153.3390 N   0  0  0  0  0  0  0  0  0  0  0  0
  158.5290  210.9580  156.5840 O   0  0  0  0  0  0  0  0  0  0  0  0
  160.4780  211.0310  152.0810 C   0  0  0  0  0  0  0  0  0  0  0  0
  160.2530  212.1970  151.6620 O   0  0  0  0  0  1  0  0  0  0  0  0
  160.4890  208.5490  156.0730 N   0  0  0  0  0  0  0  0  0  0  0  0
  161.4730  208.0930  155.4060 N   0  0  0  0  0  0  0  0  0  0  0  0
  158.8040  212.5470  154.1010 O   0  0  0  0  0  0  0  0  0  0  0  0
  159.6670  209.3070  155.2050 C   0  0  1  0  0  3  0  0  0  0  0  0
  159.0250  210.5810  155.4900 C   0  0  0  0  0  0  0  0  0  0  0  0
  161.4330  208.5390  154.0110 C   0  0  1  0  0  3  0  0  0  0  0  0
  161.6020  206.5890  149.3630 C   0  0  0  0  0  2  0  0  0  0  0  0
  161.6700  205.2560  147.3510 C   0  0  2  0  0  3  0  0  0  0  0  0
  160.7040  204.3540  149.3010 C   0  0  0  0  0  2  0  0  0  0  0  0
  161.4650  203.2620  148.5750 C   0  0  2  0  0  3  0  0  0  0  0  0
  161.5820  203.7460  147.1380 C   0  0  1  0  0  3  0  0  0  0  0  0
  160.8890  205.5940  148.5440 N   0  0  0  0  0  0  0  0  0  0  0  0
  160.8750  201.8990  148.7700 C   0  0  0  0  0  0  0  0  0  0  0  0
  159.5280  201.7450  149.0750 O   0  0  0  0  0  1  0  0  0  0  0  0
  161.6000  200.8810  148.6230 O   0  0  0  0  0  0  0  0  0  0  0  0
  162.3020  206.1500  145.2260 O   0  0  0  0  0  1  0  0  0  0  0  0
  161.2620  206.1110  146.1560 C   0  0  0  0  0  2  0  0  0  0  0  0
  160.3620  203.3660  146.2880 C   0  0  0  0  0  2  0  0  0  0  0  0
  159.7580  201.3710  145.1490 O   0  0  0  0  0  1  0  0  0  0  0  0
  160.7540  202.3410  145.2430 C   0  0  0  0  0  2  0  0  0  0  0  0
  1  4  1  0  0  0  0
  3  5  2  0  0  0  0
  4  2  2  0  0  0  0
  5  6  1  0  0  0  0
  5  2  1  0  0  0  0
  7  3  1  0  0  0  0
  7  1  2  0  0  0  0
  8 13  2  0  0  0  0
  9 19  1  0  0  0  0
 10 11  1  1  0  0  0
 10 20  1  0  0  0  0
 10 18  1  0  0  0  0
 11  9  1  0  0  0  0
 13 11  1  0  0  0  0
 14 13  1  0  0  0  0
 16 15  2  0  0  0  0
 17  9  2  0  0  0  0
 18 19  1  1  0  0  0
 18 15  1  0  0  0  0
 19 12  2  0  0  0  0
 20  4  1  6  0  0  0
 20 16  1  0  0  0  0
 21  7  1  0  0  0  0
 22 31  1  6  0  0  0
 22 26  1  0  0  0  0
 24 27  1  6  0  0  0
 24 23  1  0  0  0  0
 25 32  1  6  0  0  0
 25 22  1  0  0  0  0
 25 24  1  0  0  0  0
 26 23  1  0  0  0  0
 26 21  1  0  0  0  0
 27 28  1  0  0  0  0
 29 27  2  0  0  0  0
 30 31  1  0  0  0  0
 33 34  1  0  0  0  0
 34 32  1  0  0  0  0
M  END
>  <MODEL>
9

>  <REMARK>
 VINA RESULT:      -6.2      2.128      3.171
  Name = 
  7 active torsions:
  status: ('A' for Active; 'I' for Inactive)
    1  A    between atoms: C_3  and  C_16
    2  A    between atoms: C_6  and  C_7
    3  A    between atoms: C_7  and  C_18
    4  A    between atoms: C_9  and  C_32
    5  A    between atoms: C_12  and  N_27
    6  A    between atoms: C_12  and  C_34
    7  A    between atoms: C_26  and  C_33
                            x       y       z     vdW  Elec       q    Type
                         _______ _______ _______ _____ _____    ______ ____

>  <TORSDO>
F 7

$$$$
