=
 OpenBabel11072414433D

 60 66  0  0  1  0  0  0  0  0999 V2000
  160.1820  209.2360  147.3900 C   0  0  0  0  0  2  0  0  0  0  0  0
  159.3510  212.9020  147.7530 O   0  0  0  0  0  0  0  0  0  0  0  0
  161.1820  210.1180  150.8600 S   0  0  0  0  0  0  0  0  0  0  0  0
  163.2480  208.8960  146.8870 C   0  0  0  0  0  1  0  0  0  0  0  0
  158.7440  212.9240  152.6210 C   0  0  0  0  0  3  0  0  0  0  0  0
  163.0630  206.3010  154.0640 C   0  0  0  0  0  3  0  0  0  0  0  0
  160.6600  206.5740  150.7910 N   0  0  0  0  0  0  0  0  0  0  0  0
  159.8900  211.3160  151.2080 C   0  0  0  0  0  0  0  0  0  0  0  0
  157.2590  213.3640  146.8830 O   0  0  0  0  0  0  0  0  0  0  0  0
  162.0810  207.3920  153.9240 C   0  0  0  0  0  0  0  0  0  0  0  0
  160.5860  211.5990  153.6490 C   0  0  0  0  0  2  0  0  0  0  0  0
  163.3770  205.5240  153.0180 C   0  0  0  0  0  0  0  0  0  0  0  0
  161.5800  206.6380  151.7060 C   0  0  0  0  0  0  0  0  0  0  0  0
  160.5880  210.1070  153.9610 C   0  0  0  0  0  2  0  0  0  0  0  0
  162.0500  211.1450  149.6090 C   0  0  0  0  0  2  0  0  0  0  0  0
  161.1270  208.3410  148.1480 C   0  0  1  0  0  3  0  0  0  0  0  0
  161.9650  210.5520  148.1900 C   0  0  2  0  0  3  0  0  0  0  0  0
  159.0560  211.6800  150.1610 C   0  0  0  0  0  3  0  0  0  0  0  0
  157.4050  213.1430  149.1660 O   0  0  0  0  0  0  0  0  0  0  0  0
  157.9440  213.3260  151.5350 C   0  0  0  0  0  0  0  0  0  0  0  0
  161.7450  209.7280  154.8810 C   0  0  1  0  0  3  0  0  0  0  0  0
  164.3910  204.4530  153.1950 C   0  0  0  0  0  1  0  0  0  0  0  0
  158.1110  212.7010  150.2940 C   0  0  0  0  0  0  0  0  0  0  0  0
  160.0250  212.7430  146.5120 C   0  0  2  0  0  3  0  0  0  0  0  0
  159.7180  211.9220  152.4710 C   0  0  0  0  0  0  0  0  0  0  0  0
  161.3850  207.5070  152.8290 N   0  0  0  0  0  0  0  0  0  0  0  0
  160.5890  210.6120  147.6720 N   0  0  1  0  0  0  0  0  0  0  0  0
  157.9770  213.1330  147.8870 C   0  0  0  0  0  0  0  0  0  0  0  0
  161.7540  205.9820  148.6800 C   0  0  1  0  0  3  0  0  0  0  0  0
  161.1960  206.9180  147.6100 C   0  0  0  0  0  2  0  0  0  0  0  0
  162.8140  205.7780  151.6410 C   0  0  0  0  0  2  0  0  0  0  0  0
  161.8530  208.2780  155.0240 N   0  0  0  0  0  2  0  0  0  0  0  0
  160.7500  205.7730  149.6700 O   0  0  0  0  0  0  0  0  0  0  0  0
  162.4350  209.1040  148.1610 C   0  0  2  0  0  3  0  0  0  0  0  0
  160.5970  211.3190  146.3900 C   0  0  0  0  0  2  0  0  0  0  0  0
  162.9590  210.2350  154.3990 O   0  0  0  0  0  1  0  0  0  0  0  0
  161.7810  204.6080  146.5630 C   0  0  0  0  0  1  0  0  0  0  0  0
  162.1470  204.6460  148.0420 C   0  0  2  0  0  3  0  0  0  0  0  0
  160.4350  202.6380  152.2120 N   0  0  0  0  0  1  0  0  0  0  0  0
  161.1630  202.3120  148.0890 C   0  0  0  0  0  3  0  0  0  0  0  0
  160.6550  202.5420  150.8070 C   0  0  0  0  0  0  0  0  0  0  0  0
  161.2770  203.5970  150.1330 C   0  0  0  0  0  3  0  0  0  0  0  0
  160.5770  201.2670  148.8030 C   0  0  0  0  0  3  0  0  0  0  0  0
  161.5200  203.4890  148.7620 C   0  0  0  0  0  0  0  0  0  0  0  0
  160.3340  201.4010  150.1350 N   0  0  0  0  0  0  0  0  0  0  0  0
  161.1820  213.7370  146.4120 C   0  0  0  0  0  2  0  0  0  0  0  0
  162.1570  213.4120  145.2800 C   0  0  1  0  0  0  0  0  0  0  0  0
  162.1420  214.3540  144.1580 C   0  0  2  0  0  3  0  0  0  0  0  0
  163.4610  212.6970  145.6320 C   0  0  0  0  0  1  0  0  0  0  0  0
  161.3200  212.7340  143.7880 P   0  0  1  0  0  0  0  0  0  0  0  0
  162.1570  211.8090  142.6360 O   0  0  0  0  0  0  0  0  0  0  0  0
  159.8360  212.9390  143.5690 O   0  0  0  0  0  1  0  0  0  0  0  0
  163.4530  214.4500  143.3850 C   0  0  0  0  0  2  0  0  0  0  0  0
  163.1810  214.4530  141.8930 C   0  0  0  0  0  1  0  0  0  0  0  0
  157.0180  214.3720  151.6580 O   0  0  0  0  0  0  0  0  0  0  0  0
  156.0660  214.4520  152.7100 C   0  0  0  0  0  2  0  0  0  0  0  0
  156.3960  213.4250  153.7840 C   0  0  0  0  0  2  0  0  0  0  0  0
  156.8180  214.1270  155.0600 C   0  0  0  0  0  2  0  0  0  0  0  0
  155.7430  213.1990  157.0820 C   0  0  0  0  0  1  0  0  0  0  0  0
  155.6220  214.2320  155.9830 C   0  0  0  0  0  2  0  0  0  0  0  0
  1 27  1  0  0  0  0
  2 28  1  0  0  0  0
  3  8  1  0  0  0  0
  7 13  2  0  0  0  0
  8 25  2  0  0  0  0
  9 28  2  0  0  0  0
 10  6  1  0  0  0  0
 10 32  1  0  0  0  0
 11 14  1  0  0  0  0
 12 22  1  0  0  0  0
 12  6  2  0  0  0  0
 13 26  1  0  0  0  0
 14 21  1  0  0  0  0
 15  3  1  0  0  0  0
 16  1  1  6  0  0  0
 16 34  1  0  0  0  0
 17 15  1  1  0  0  0
 18 23  2  0  0  0  0
 18  8  1  0  0  0  0
 19 23  1  0  0  0  0
 20 55  1  0  0  0  0
 20  5  2  0  0  0  0
 21 36  1  6  0  0  0
 21 32  1  0  0  0  0
 23 20  1  0  0  0  0
 24 46  1  1  0  0  0
 24  2  1  0  0  0  0
 25  5  1  0  0  0  0
 25 11  1  0  0  0  0
 26 10  2  0  0  0  0
 27 35  1  6  0  0  0
 27 17  1  0  0  0  0
 28 19  1  0  0  0  0
 29 38  1  6  0  0  0
 29 33  1  0  0  0  0
 30 16  1  0  0  0  0
 30 29  1  0  0  0  0
 31 13  1  0  0  0  0
 31 12  1  0  0  0  0
 33  7  1  0  0  0  0
 34  4  1  6  0  0  0
 34 17  1  0  0  0  0
 35 24  1  0  0  0  0
 38 37  1  6  0  0  0
 38 44  1  0  0  0  0
 40 44  2  0  0  0  0
 40 43  1  0  0  0  0
 41 39  1  0  0  0  0
 42 41  2  0  0  0  0
 43 45  2  0  0  0  0
 44 42  1  0  0  0  0
 45 41  1  0  0  0  0
 47 49  1  1  0  0  0
 47 46  1  0  0  0  0
 48 53  1  6  0  0  0
 48 47  1  0  0  0  0
 50 51  2  6  0  0  0
 50 48  1  0  0  0  0
 50 47  1  0  0  0  0
 52 50  1  0  0  0  0
 54 53  1  0  0  0  0
 55 56  1  0  0  0  0
 56 57  1  0  0  0  0
 57 58  1  0  0  0  0
 58 60  1  0  0  0  0
 60 59  1  0  0  0  0
M  END
>  <MODEL>
1

>  <REMARK>
 VINA RESULT:      16.2      0.000      0.000
  Name = 
  10 active torsions:
  status: ('A' for Active; 'I' for Inactive)
    1  A    between atoms: C_4  and  C_51
    2  A    between atoms: C_6  and  C_24
    3  A    between atoms: C_9  and  C_34
    4  A    between atoms: C_9  and  C_39
    5  A    between atoms: C_30  and  C_45
    6  A    between atoms: C_30  and  C_48
    7  A    between atoms: C_32  and  O_59
    8  A    between atoms: C_34  and  C_52
    9  A    between atoms: C_40  and  C_51
   10  A    between atoms: C_52  and  O_59
                            x       y       z     vdW  Elec       q    Type
                         _______ _______ _______ _____ _____    ______ ____

>  <TORSDO>
F 10

$$$$
=
 OpenBabel11072414433D

 60 67  0  0  1  0  0  0  0  0999 V2000
  160.5180  209.4950  148.2000 C   0  0  0  0  0  2  0  0  0  0  0  0
  160.1020  212.8560  149.8710 O   0  0  0  0  0  0  0  0  0  0  0  0
  160.9930  208.8400  151.8290 S   0  0  0  0  0  0  0  0  0  0  0  0
  163.5570  208.8080  147.9600 C   0  0  0  0  0  1  0  0  0  0  0  0
  158.6540  211.1990  154.2550 C   0  0  0  0  0  3  0  0  0  0  0  0
  161.7860  203.8380  153.4780 C   0  0  0  0  0  3  0  0  0  0  0  0
  160.0510  205.7300  150.3200 N   0  0  0  0  0  0  0  0  0  0  0  0
  159.8200  210.0420  152.4670 C   0  0  0  0  0  0  0  0  0  0  0  0
  158.2700  213.9810  149.0160 O   0  0  0  0  0  0  0  0  0  0  0  0
  160.9890  205.0640  153.6640 C   0  0  0  0  0  0  0  0  0  0  0  0
  160.1040  209.2760  154.8870 C   0  0  0  0  0  2  0  0  0  0  0  0
  162.1800  203.4560  152.2550 C   0  0  0  0  0  0  0  0  0  0  0  0
  160.7960  205.2840  151.2860 C   0  0  0  0  0  0  0  0  0  0  0  0
  159.8650  207.8000  154.5880 C   0  0  0  0  0  2  0  0  0  0  0  0
  162.1890  210.0770  151.1880 C   0  0  0  0  0  2  0  0  0  0  0  0
  161.1940  208.2270  148.6520 C   0  0  1  0  0  3  0  0  0  0  0  0
  162.2830  210.0730  149.6500 C   0  0  2  0  0  3  0  0  0  0  0  0
  159.2360  210.9120  151.5570 C   0  0  0  0  0  3  0  0  0  0  0  0
  157.9830  212.9140  151.0310 O   0  0  0  0  0  0  0  0  0  0  0  0
  158.1140  212.1120  153.3280 C   0  0  0  0  0  0  0  0  0  0  0  0
  160.7840  206.9050  155.4130 C   0  0  1  0  0  3  0  0  0  0  0  0
  163.0040  202.2290  152.1150 C   0  0  0  0  0  1  0  0  0  0  0  0
  158.4180  211.9670  151.9690 C   0  0  0  0  0  0  0  0  0  0  0  0
  160.9590  213.0440  148.7520 C   0  0  2  0  0  3  0  0  0  0  0  0
  159.5050  210.1620  153.8370 C   0  0  0  0  0  0  0  0  0  0  0  0
  160.5160  205.6990  152.6300 N   0  0  0  0  0  0  0  0  0  0  0  0
  161.0370  210.5710  149.0430 N   0  0  1  0  0  0  0  0  0  0  0  0
  158.7660  213.2700  149.9260 C   0  0  0  0  0  0  0  0  0  0  0  0
  161.4170  205.7660  148.2860 C   0  0  1  0  0  3  0  0  0  0  0  0
  161.1780  207.1140  147.6110 C   0  0  0  0  0  2  0  0  0  0  0  0
  161.9050  204.2970  151.0320 C   0  0  0  0  0  2  0  0  0  0  0  0
  160.6830  205.5100  154.9890 N   0  0  0  0  0  2  0  0  0  0  0  0
  160.2370  205.3950  148.9940 O   0  0  0  0  0  0  0  0  0  0  0  0
  162.5650  208.6780  149.1110 C   0  0  2  0  0  3  0  0  0  0  0  0
  161.3600  211.6860  148.1500 C   0  0  2  0  0  3  0  0  0  0  0  0
  162.1180  207.3210  155.3110 O   0  0  0  0  0  1  0  0  0  0  0  0
  161.4590  205.2260  145.8210 C   0  0  0  0  0  1  0  0  0  0  0  0
  161.7460  204.7100  147.2260 C   0  0  2  0  0  3  0  0  0  0  0  0
  160.3040  201.1410  150.3140 N   0  0  0  0  0  1  0  0  0  0  0  0
  160.2900  202.7870  146.4510 C   0  0  0  0  0  3  0  0  0  0  0  0
  160.2760  201.7180  149.0120 C   0  0  0  0  0  0  0  0  0  0  0  0
  161.0020  202.8850  148.7580 C   0  0  0  0  0  3  0  0  0  0  0  0
  159.6050  201.6060  146.7350 C   0  0  0  0  0  3  0  0  0  0  0  0
  160.9990  203.4320  147.4740 C   0  0  0  0  0  0  0  0  0  0  0  0
  159.6080  201.0990  147.9980 N   0  0  0  0  0  0  0  0  0  0  0  0
  162.2300  213.7750  149.1820 C   0  0  0  0  0  2  0  0  0  0  0  0
  163.3130  213.7830  148.1030 C   0  0  1  0  0  0  0  0  0  0  0  0
  162.8160  213.8110  146.7250 C   0  0  2  0  0  3  0  0  0  0  0  0
  164.6490  214.4510  148.4240 C   0  0  0  0  0  1  0  0  0  0  0  0
  163.4820  212.1610  147.2480 P   0  0  1  0  0  0  0  0  0  0  0  0
  164.9050  211.7270  146.4290 O   0  0  0  0  0  0  0  0  0  0  0  0
  162.3670  211.1380  147.2950 O   0  0  0  0  0  0  0  0  0  0  0  0
  163.7630  214.4480  145.7140 C   0  0  0  0  0  2  0  0  0  0  0  0
  163.5470  213.8430  144.3410 C   0  0  0  0  0  1  0  0  0  0  0  0
  157.3190  213.1900  153.7430 O   0  0  0  0  0  0  0  0  0  0  0  0
  157.4010  213.7660  155.0400 C   0  0  0  0  0  2  0  0  0  0  0  0
  156.1120  213.5010  155.8040 C   0  0  0  0  0  2  0  0  0  0  0  0
  154.9670  214.2660  155.1710 C   0  0  0  0  0  2  0  0  0  0  0  0
  153.5620  214.4530  153.1470 C   0  0  0  0  0  1  0  0  0  0  0  0
  154.7820  213.7890  153.7470 C   0  0  0  0  0  2  0  0  0  0  0  0
  1 16  1  0  0  0  0
  2 28  1  0  0  0  0
  3  8  1  0  0  0  0
  6 10  1  0  0  0  0
  7 13  2  0  0  0  0
  8 25  2  0  0  0  0
  9 28  2  0  0  0  0
 10 32  1  0  0  0  0
 12  6  2  0  0  0  0
 13 26  1  0  0  0  0
 14 11  1  0  0  0  0
 14 21  1  0  0  0  0
 15  3  1  0  0  0  0
 16 30  1  6  0  0  0
 16 34  1  0  0  0  0
 17 15  1  1  0  0  0
 18 23  2  0  0  0  0
 18  8  1  0  0  0  0
 19 23  1  0  0  0  0
 20 55  1  0  0  0  0
 20  5  2  0  0  0  0
 21 36  1  6  0  0  0
 22 12  1  0  0  0  0
 23 20  1  0  0  0  0
 24 46  1  1  0  0  0
 24  2  1  0  0  0  0
 25  5  1  0  0  0  0
 25 11  1  0  0  0  0
 26 10  2  0  0  0  0
 27  1  1  6  0  0  0
 27 17  1  0  0  0  0
 28 19  1  0  0  0  0
 29 38  1  6  0  0  0
 29 33  1  0  0  0  0
 30 29  1  0  0  0  0
 31 13  1  0  0  0  0
 31 12  1  0  0  0  0
 32 21  1  0  0  0  0
 33  7  1  0  0  0  0
 34  4  1  6  0  0  0
 34 17  1  0  0  0  0
 35 52  1  1  0  0  0
 35 24  1  0  0  0  0
 35 27  1  0  0  0  0
 38 37  1  6  0  0  0
 38 44  1  0  0  0  0
 40 43  2  0  0  0  0
 40 44  1  0  0  0  0
 41 39  1  0  0  0  0
 42 41  1  0  0  0  0
 43 45  1  0  0  0  0
 44 42  2  0  0  0  0
 45 41  2  0  0  0  0
 47 49  1  1  0  0  0
 47 46  1  0  0  0  0
 48 53  1  6  0  0  0
 48 50  1  0  0  0  0
 48 47  1  0  0  0  0
 50 51  2  6  0  0  0
 50 52  1  0  0  0  0
 50 47  1  0  0  0  0
 54 53  1  0  0  0  0
 55 56  1  0  0  0  0
 56 57  1  0  0  0  0
 58 57  1  0  0  0  0
 59 60  1  0  0  0  0
 60 58  1  0  0  0  0
M  END
>  <MODEL>
2

>  <REMARK>
 VINA RESULT:      19.0      1.954      2.391
  Name = 
  10 active torsions:
  status: ('A' for Active; 'I' for Inactive)
    1  A    between atoms: C_4  and  C_51
    2  A    between atoms: C_6  and  C_24
    3  A    between atoms: C_9  and  C_34
    4  A    between atoms: C_9  and  C_39
    5  A    between atoms: C_30  and  C_45
    6  A    between atoms: C_30  and  C_48
    7  A    between atoms: C_32  and  O_59
    8  A    between atoms: C_34  and  C_52
    9  A    between atoms: C_40  and  C_51
   10  A    between atoms: C_52  and  O_59
                            x       y       z     vdW  Elec       q    Type
                         _______ _______ _______ _____ _____    ______ ____

>  <TORSDO>
F 10

$$$$
