=
 OpenBabel11072415113D

 39 43  0  0  1  0  0  0  0  0999 V2000
  162.3040  209.4630  151.3890 C   0  0  0  0  0  3  0  0  0  0  0  0
  161.7580  210.3820  149.0500 C   0  0  0  0  0  0  0  0  0  0  0  0
  162.5390  207.8540  148.2660 C   0  0  1  0  0  3  0  0  0  0  0  0
  162.1470  209.1340  148.6920 C   0  0  0  0  0  0  0  0  0  0  0  0
  161.8400  210.5370  150.4830 C   0  0  0  0  0  3  0  0  0  0  0  0
  162.7010  208.1950  150.9650 N   0  0  0  0  0  0  0  0  0  0  0  0
  162.5900  208.1270  149.6410 C   0  0  0  0  0  0  0  0  0  0  0  0
  161.3210  211.3710  148.1170 N   0  0  0  0  0  2  0  0  0  0  0  0
  163.3350  212.5560  147.9200 O   0  0  0  0  0  0  0  0  0  0  0  0
  162.1150  212.4540  147.6230 C   0  0  0  0  0  0  0  0  0  0  0  0
  161.4860  213.4860  146.7530 C   0  0  0  0  0  2  0  0  0  0  0  0
  159.9280  212.2480  145.0990 C   0  0  0  0  0  2  0  0  0  0  0  0
  161.9700  212.9740  144.2850 C   0  0  0  0  0  0  0  0  0  0  0  0
  161.1680  212.9230  145.4500 N   0  0  0  0  0  0  0  0  0  0  0  0
  163.1010  213.5170  144.2240 O   0  0  0  0  0  0  0  0  0  0  0  0
  161.2760  212.3350  143.1950 C   0  0  0  0  0  0  0  0  0  0  0  0
  160.0950  211.9130  143.6330 C   0  0  0  0  0  3  0  0  0  0  0  0
  161.7660  212.2200  141.7920 C   0  0  0  0  0  2  0  0  0  0  0  0
  160.4650  211.8000  138.6250 N   0  0  0  0  0  0  0  0  0  0  0  0
  162.6370  210.8130  139.1570 C   0  0  0  0  0  2  0  0  0  0  0  0
  161.6050  211.3370  138.2030 C   0  0  0  0  0  3  0  0  0  0  0  0
  159.0290  212.3360  140.3770 O   0  0  0  0  0  0  0  0  0  0  0  0
  161.9530  210.1600  140.3550 C   0  0  0  0  0  2  0  0  0  0  0  0
  160.9930  211.1440  141.0340 C   0  0  2  0  0  3  0  0  0  0  0  0
  160.0990  211.7850  140.0120 C   0  0  0  0  0  0  0  0  0  0  0  0
  161.3740  207.0940  147.9690 O   0  0  0  0  0  0  0  0  0  0  0  0
  160.8040  203.1560  149.3450 C   0  0  0  0  0  0  0  0  0  0  0  0
  160.4220  204.2360  150.1390 C   0  0  0  0  0  3  0  0  0  0  0  0
  161.3660  203.3800  148.0860 C   0  0  0  0  0  3  0  0  0  0  0  0
  161.1730  205.7800  148.4090 C   0  0  0  0  0  0  0  0  0  0  0  0
  160.6070  205.5400  149.6750 C   0  0  0  0  0  3  0  0  0  0  0  0
  161.5480  204.6850  147.5950 C   0  0  0  0  0  0  0  0  0  0  0  0
  160.4660  200.7320  150.2030 N   0  0  0  0  0  0  0  0  0  0  0  0
  160.6150  201.8140  149.8200 C   0  0  0  0  0  0  0  0  0  0  0  0
  163.4120  204.8940  146.1500 O   0  0  0  0  0  0  0  0  0  0  0  0
  162.1560  204.8370  146.2420 C   0  0  0  0  0  0  0  0  0  0  0  0
  160.4070  206.0620  144.9320 C   0  0  0  0  0  1  0  0  0  0  0  0
  161.3670  204.8850  144.9610 C   0  0  2  0  0  3  0  0  0  0  0  0
  160.6910  203.6870  144.7250 O   0  0  0  0  0  1  0  0  0  0  0  0
  2  5  1  0  0  0  0
  3 26  1  1  0  0  0
  3  4  1  0  0  0  0
  3  7  1  0  0  0  0
  4  2  2  0  0  0  0
  4  7  1  0  0  0  0
  5  1  2  0  0  0  0
  6  1  1  0  0  0  0
  7  6  2  0  0  0  0
  8  2  1  0  0  0  0
 10  9  2  0  0  0  0
 10  8  1  0  0  0  0
 11 10  1  0  0  0  0
 12 14  1  0  0  0  0
 13 14  1  0  0  0  0
 14 11  1  0  0  0  0
 15 13  2  0  0  0  0
 16 17  2  0  0  0  0
 16 13  1  0  0  0  0
 17 12  1  0  0  0  0
 18 16  1  0  0  0  0
 19 25  1  0  0  0  0
 20 23  1  0  0  0  0
 21 19  2  0  0  0  0
 21 20  1  0  0  0  0
 23 24  1  0  0  0  0
 24 18  1  6  0  0  0
 25 22  2  0  0  0  0
 25 24  1  0  0  0  0
 26 30  1  0  0  0  0
 27 34  1  0  0  0  0
 27 28  1  0  0  0  0
 29 27  2  0  0  0  0
 30 31  1  0  0  0  0
 31 28  2  0  0  0  0
 32 29  1  0  0  0  0
 32 30  2  0  0  0  0
 34 33  3  0  0  0  0
 35 36  2  0  0  0  0
 36 32  1  0  0  0  0
 38 37  1  1  0  0  0
 38 36  1  0  0  0  0
 39 38  1  0  0  0  0
M  END
>  <MODEL>
1

>  <REMARK>
 VINA RESULT:      -9.2      0.000      0.000
  Name = 
  10 active torsions:
  status: ('A' for Active; 'I' for Inactive)
    1  A    between atoms: C_1  and  C_38
    2  A    between atoms: C_4  and  N_13
    3  A    between atoms: C_6  and  O_28
    4  A    between atoms: N_9  and  C_27
    5  A    between atoms: C_15  and  C_26
    6  A    between atoms: C_15  and  C_31
    7  A    between atoms: C_22  and  C_34
    8  A    between atoms: C_27  and  C_33
    9  A    between atoms: O_28  and  C_32
   10  A    between atoms: C_34  and  C_39
                            x       y       z     vdW  Elec       q    Type
                         _______ _______ _______ _____ _____    ______ ____

>  <TORSDO>
F 10

$$$$
=
 OpenBabel11072415113D

 39 43  0  0  1  0  0  0  0  0999 V2000
  161.2650  207.3280  154.1070 C   0  0  0  0  0  3  0  0  0  0  0  0
  160.3890  209.2850  152.6860 C   0  0  0  0  0  0  0  0  0  0  0  0
  161.7360  207.9600  150.6750 C   0  0  1  0  0  3  0  0  0  0  0  0
  161.0590  208.6150  151.7170 C   0  0  0  0  0  0  0  0  0  0  0  0
  160.5020  208.5850  153.9440 C   0  0  0  0  0  3  0  0  0  0  0  0
  161.9450  206.6830  153.0730 N   0  0  0  0  0  0  0  0  0  0  0  0
  161.7870  207.3790  151.9500 C   0  0  0  0  0  0  0  0  0  0  0  0
  159.6720  210.4980  152.4560 N   0  0  0  0  0  2  0  0  0  0  0  0
  160.8410  211.8660  153.9590 O   0  0  0  0  0  0  0  0  0  0  0  0
  159.8940  211.7350  153.1400 C   0  0  0  0  0  0  0  0  0  0  0  0
  158.9820  212.8850  152.8880 C   0  0  0  0  0  2  0  0  0  0  0  0
  157.4530  212.9810  150.8020 C   0  0  0  0  0  2  0  0  0  0  0  0
  159.7160  213.3340  150.4700 C   0  0  0  0  0  0  0  0  0  0  0  0
  158.7480  213.0420  151.4610 N   0  0  0  0  0  0  0  0  0  0  0  0
  160.9430  213.4870  150.6980 O   0  0  0  0  0  0  0  0  0  0  0  0
  159.0710  213.4500  149.1870 C   0  0  0  0  0  0  0  0  0  0  0  0
  157.7670  213.2570  149.3480 C   0  0  0  0  0  3  0  0  0  0  0  0
  159.7390  213.7910  147.8980 C   0  0  0  0  0  2  0  0  0  0  0  0
  160.9320  212.9370  144.7760 N   0  0  0  0  0  0  0  0  0  0  0  0
  162.5260  213.4090  146.5680 C   0  0  0  0  0  2  0  0  0  0  0  0
  162.1350  213.2860  145.1250 C   0  0  0  0  0  3  0  0  0  0  0  0
  158.7510  212.3590  145.3520 O   0  0  0  0  0  0  0  0  0  0  0  0
  161.7660  212.3810  147.4020 C   0  0  0  0  0  2  0  0  0  0  0  0
  160.2530  212.5340  147.2040 C   0  0  2  0  0  3  0  0  0  0  0  0
  159.9250  212.5920  145.7390 C   0  0  0  0  0  0  0  0  0  0  0  0
  160.7850  207.2740  149.8710 O   0  0  0  0  0  0  0  0  0  0  0  0
  161.0270  203.1480  149.0700 C   0  0  0  0  0  0  0  0  0  0  0  0
  160.4710  203.5960  150.2670 C   0  0  0  0  0  3  0  0  0  0  0  0
  161.4930  204.0690  148.1290 C   0  0  0  0  0  3  0  0  0  0  0  0
  160.8540  205.9050  149.5870 C   0  0  0  0  0  0  0  0  0  0  0  0
  160.3870  204.9660  150.5250 C   0  0  0  0  0  3  0  0  0  0  0  0
  161.4050  205.4530  148.3640 C   0  0  0  0  0  0  0  0  0  0  0  0
  161.1870  200.6050  148.5900 N   0  0  0  0  0  0  0  0  0  0  0  0
  161.1150  201.7390  148.8030 C   0  0  0  0  0  0  0  0  0  0  0  0
  162.5940  207.3770  147.6660 O   0  0  0  0  0  0  0  0  0  0  0  0
  161.9270  206.3680  147.3100 C   0  0  0  0  0  0  0  0  0  0  0  0
  160.2820  206.1140  145.4390 C   0  0  0  0  0  1  0  0  0  0  0  0
  161.7490  206.1460  145.8320 C   0  0  2  0  0  3  0  0  0  0  0  0
  162.4030  204.9910  145.4000 O   0  0  0  0  0  1  0  0  0  0  0  0
  2  5  2  0  0  0  0
  3 26  1  6  0  0  0
  3  4  1  0  0  0  0
  3  7  1  0  0  0  0
  4  7  2  0  0  0  0
  4  2  1  0  0  0  0
  5  1  1  0  0  0  0
  6  1  2  0  0  0  0
  7  6  1  0  0  0  0
  8  2  1  0  0  0  0
  8 10  1  0  0  0  0
 10  9  2  0  0  0  0
 11 10  1  0  0  0  0
 12 14  1  0  0  0  0
 13 15  2  0  0  0  0
 13 14  1  0  0  0  0
 14 11  1  0  0  0  0
 16 17  2  0  0  0  0
 16 13  1  0  0  0  0
 17 12  1  0  0  0  0
 18 16  1  0  0  0  0
 19 21  2  0  0  0  0
 19 25  1  0  0  0  0
 20 23  1  0  0  0  0
 21 20  1  0  0  0  0
 22 25  2  0  0  0  0
 24 23  1  0  0  0  0
 24 18  1  1  0  0  0
 25 24  1  0  0  0  0
 27 28  1  0  0  0  0
 28 31  2  0  0  0  0
 29 32  1  0  0  0  0
 29 27  2  0  0  0  0
 30 26  1  0  0  0  0
 30 31  1  0  0  0  0
 32 30  2  0  0  0  0
 33 34  3  0  0  0  0
 34 27  1  0  0  0  0
 36 35  2  0  0  0  0
 36 32  1  0  0  0  0
 38 37  1  1  0  0  0
 38 36  1  0  0  0  0
 39 38  1  0  0  0  0
M  END
>  <MODEL>
2

>  <REMARK>
 VINA RESULT:      -8.0      3.097      4.698
  Name = 
  10 active torsions:
  status: ('A' for Active; 'I' for Inactive)
    1  A    between atoms: C_1  and  C_38
    2  A    between atoms: C_4  and  N_13
    3  A    between atoms: C_6  and  O_28
    4  A    between atoms: N_9  and  C_27
    5  A    between atoms: C_15  and  C_26
    6  A    between atoms: C_15  and  C_31
    7  A    between atoms: C_22  and  C_34
    8  A    between atoms: C_27  and  C_33
    9  A    between atoms: O_28  and  C_32
   10  A    between atoms: C_34  and  C_39
                            x       y       z     vdW  Elec       q    Type
                         _______ _______ _______ _____ _____    ______ ____

>  <TORSDO>
F 10

$$$$
=
 OpenBabel11072415113D

 39 43  0  0  1  0  0  0  0  0999 V2000
  162.2800  209.3840  149.4050 C   0  0  0  0  0  3  0  0  0  0  0  0
  161.1360  208.1430  151.3450 C   0  0  0  0  0  0  0  0  0  0  0  0
  160.5340  206.3270  149.3570 C   0  0  1  0  0  3  0  0  0  0  0  0
  160.8540  207.2670  150.3500 C   0  0  0  0  0  0  0  0  0  0  0  0
  161.8990  209.2550  150.8280 C   0  0  0  0  0  3  0  0  0  0  0  0
  161.9540  208.4530  148.4170 N   0  0  0  0  0  0  0  0  0  0  0  0
  161.2630  207.4600  148.9690 C   0  0  0  0  0  0  0  0  0  0  0  0
  160.7350  207.9520  152.7030 N   0  0  0  0  0  2  0  0  0  0  0  0
  162.1160  206.1250  153.2050 O   0  0  0  0  0  0  0  0  0  0  0  0
  161.2050  206.9150  153.5690 C   0  0  0  0  0  0  0  0  0  0  0  0
  160.6010  206.7600  154.9210 C   0  0  0  0  0  2  0  0  0  0  0  0
  161.9760  208.4050  156.3710 C   0  0  0  0  0  2  0  0  0  0  0  0
  159.7980  209.0060  155.8690 C   0  0  0  0  0  0  0  0  0  0  0  0
  160.7610  207.9850  155.6900 N   0  0  0  0  0  0  0  0  0  0  0  0
  158.6380  208.9830  155.3850 O   0  0  0  0  0  0  0  0  0  0  0  0
  160.3640  210.0680  156.6620 C   0  0  0  0  0  0  0  0  0  0  0  0
  161.6190  209.7520  156.9600 C   0  0  0  0  0  3  0  0  0  0  0  0
  159.6840  211.3410  157.0350 C   0  0  0  0  0  2  0  0  0  0  0  0
  158.6840  213.6090  154.6360 N   0  0  0  0  0  0  0  0  0  0  0  0
  158.6200  214.2650  156.9900 C   0  0  0  0  0  2  0  0  0  0  0  0
  158.1970  214.3890  155.5560 C   0  0  0  0  0  3  0  0  0  0  0  0
  160.0550  211.8330  154.0140 O   0  0  0  0  0  0  0  0  0  0  0  0
  160.0810  213.8280  157.0640 C   0  0  0  0  0  2  0  0  0  0  0  0
  160.2970  212.5230  156.2890 C   0  0  2  0  0  3  0  0  0  0  0  0
  159.6920  212.6270  154.9180 C   0  0  0  0  0  0  0  0  0  0  0  0
  161.4080  205.2120  149.4850 O   0  0  0  0  0  0  0  0  0  0  0  0
  161.0450  201.6370  147.2910 C   0  0  0  0  0  0  0  0  0  0  0  0
  160.6510  201.6810  148.6270 C   0  0  0  0  0  3  0  0  0  0  0  0
  161.5500  202.7850  146.6750 C   0  0  0  0  0  3  0  0  0  0  0  0
  161.2750  204.0330  148.7410 C   0  0  0  0  0  0  0  0  0  0  0  0
  160.7670  202.8710  149.3480 C   0  0  0  0  0  3  0  0  0  0  0  0
  161.6630  203.9960  147.3800 C   0  0  0  0  0  0  0  0  0  0  0  0
  160.8320  199.4280  145.9500 N   0  0  0  0  0  0  0  0  0  0  0  0
  160.9270  200.4140  146.5470 C   0  0  0  0  0  0  0  0  0  0  0  0
  163.3410  205.6200  146.9930 O   0  0  0  0  0  0  0  0  0  0  0  0
  162.2130  205.1730  146.6500 C   0  0  0  0  0  0  0  0  0  0  0  0
  160.0810  206.1820  145.8070 C   0  0  0  0  0  1  0  0  0  0  0  0
  161.5280  205.8460  145.4900 C   0  0  2  0  0  3  0  0  0  0  0  0
  161.6170  205.0840  144.3240 O   0  0  0  0  0  1  0  0  0  0  0  0
  1  5  1  0  0  0  0
  2  8  1  0  0  0  0
  3 26  1  1  0  0  0
  3  4  1  0  0  0  0
  4  2  1  0  0  0  0
  5  2  2  0  0  0  0
  6  7  1  0  0  0  0
  6  1  2  0  0  0  0
  7  3  1  0  0  0  0
  7  4  2  0  0  0  0
  8 10  1  0  0  0  0
  9 10  2  0  0  0  0
 10 11  1  0  0  0  0
 11 14  1  0  0  0  0
 12 17  1  0  0  0  0
 13 16  1  0  0  0  0
 14 13  1  0  0  0  0
 14 12  1  0  0  0  0
 15 13  2  0  0  0  0
 16 17  2  0  0  0  0
 16 18  1  0  0  0  0
 19 25  1  0  0  0  0
 19 21  2  0  0  0  0
 20 23  1  0  0  0  0
 21 20  1  0  0  0  0
 22 25  2  0  0  0  0
 24 18  1  1  0  0  0
 24 23  1  0  0  0  0
 25 24  1  0  0  0  0
 27 28  1  0  0  0  0
 28 31  2  0  0  0  0
 29 27  2  0  0  0  0
 29 32  1  0  0  0  0
 30 31  1  0  0  0  0
 30 26  1  0  0  0  0
 32 30  2  0  0  0  0
 33 34  3  0  0  0  0
 34 27  1  0  0  0  0
 36 35  2  0  0  0  0
 36 32  1  0  0  0  0
 38 37  1  1  0  0  0
 38 36  1  0  0  0  0
 39 38  1  0  0  0  0
M  END
>  <MODEL>
3

>  <REMARK>
 VINA RESULT:      -7.5      4.937      9.441
  Name = 
  10 active torsions:
  status: ('A' for Active; 'I' for Inactive)
    1  A    between atoms: C_1  and  C_38
    2  A    between atoms: C_4  and  N_13
    3  A    between atoms: C_6  and  O_28
    4  A    between atoms: N_9  and  C_27
    5  A    between atoms: C_15  and  C_26
    6  A    between atoms: C_15  and  C_31
    7  A    between atoms: C_22  and  C_34
    8  A    between atoms: C_27  and  C_33
    9  A    between atoms: O_28  and  C_32
   10  A    between atoms: C_34  and  C_39
                            x       y       z     vdW  Elec       q    Type
                         _______ _______ _______ _____ _____    ______ ____

>  <TORSDO>
F 10

$$$$
=
 OpenBabel11072415113D

 39 43  0  0  1  0  0  0  0  0999 V2000
  161.0400  206.1840  154.3190 C   0  0  0  0  0  3  0  0  0  0  0  0
  160.8220  208.0130  152.5250 C   0  0  0  0  0  0  0  0  0  0  0  0
  161.8420  206.0360  150.8940 C   0  0  1  0  0  3  0  0  0  0  0  0
  161.3250  207.0250  151.7460 C   0  0  0  0  0  0  0  0  0  0  0  0
  160.6700  207.5480  153.8830 C   0  0  0  0  0  3  0  0  0  0  0  0
  161.5630  205.2040  153.4730 N   0  0  0  0  0  0  0  0  0  0  0  0
  161.6640  205.7030  152.2440 C   0  0  0  0  0  0  0  0  0  0  0  0
  160.4860  209.3120  152.0340 N   0  0  0  0  0  2  0  0  0  0  0  0
  162.3800  210.4590  152.8060 O   0  0  0  0  0  0  0  0  0  0  0  0
  161.2580  210.5000  152.2370 C   0  0  0  0  0  0  0  0  0  0  0  0
  160.7190  211.8110  151.7780 C   0  0  0  0  0  2  0  0  0  0  0  0
  161.9060  211.1950  149.5620 C   0  0  0  0  0  2  0  0  0  0  0  0
  160.4280  212.9770  149.5110 C   0  0  0  0  0  0  0  0  0  0  0  0
  161.0050  212.0080  150.3660 N   0  0  0  0  0  0  0  0  0  0  0  0
  159.5780  213.8280  149.8720 O   0  0  0  0  0  0  0  0  0  0  0  0
  160.9480  212.8120  148.1770 C   0  0  0  0  0  0  0  0  0  0  0  0
  161.7960  211.7900  148.1750 C   0  0  0  0  0  3  0  0  0  0  0  0
  160.5580  213.6080  146.9790 C   0  0  0  0  0  2  0  0  0  0  0  0
  158.9700  213.6510  143.9170 N   0  0  0  0  0  0  0  0  0  0  0  0
  161.2730  214.4530  144.0710 C   0  0  0  0  0  2  0  0  0  0  0  0
  159.9270  214.3740  143.4150 C   0  0  0  0  0  3  0  0  0  0  0  0
  158.1690  212.2410  145.5880 O   0  0  0  0  0  0  0  0  0  0  0  0
  161.6040  213.1210  144.7400 C   0  0  0  0  0  2  0  0  0  0  0  0
  160.5050  212.7270  145.7350 C   0  0  2  0  0  3  0  0  0  0  0  0
  159.1540  212.8420  145.0880 C   0  0  0  0  0  0  0  0  0  0  0  0
  160.7780  205.4950  150.1200 O   0  0  0  0  0  0  0  0  0  0  0  0
  161.0530  201.7920  148.1360 C   0  0  0  0  0  0  0  0  0  0  0  0
  160.8220  201.8340  149.5090 C   0  0  0  0  0  3  0  0  0  0  0  0
  161.1820  202.9820  147.4130 C   0  0  0  0  0  3  0  0  0  0  0  0
  160.8540  204.2700  149.4470 C   0  0  0  0  0  0  0  0  0  0  0  0
  160.7250  203.0650  150.1620 C   0  0  0  0  0  3  0  0  0  0  0  0
  161.0730  204.2310  148.0490 C   0  0  0  0  0  0  0  0  0  0  0  0
  161.2370  199.5100  146.9190 N   0  0  0  0  0  0  0  0  0  0  0  0
  161.1540  200.5270  147.4630 C   0  0  0  0  0  0  0  0  0  0  0  0
  160.4230  206.4080  147.3850 O   0  0  0  0  0  0  0  0  0  0  0  0
  161.2240  205.4520  147.2070 C   0  0  0  0  0  0  0  0  0  0  0  0
  161.9140  205.0550  144.8330 C   0  0  0  0  0  1  0  0  0  0  0  0
  162.3060  205.6410  146.1780 C   0  0  2  0  0  3  0  0  0  0  0  0
  163.5270  205.1200  146.6090 O   0  0  0  0  0  1  0  0  0  0  0  0
  2  5  2  0  0  0  0
  3 26  1  6  0  0  0
  3  4  1  0  0  0  0
  3  7  1  0  0  0  0
  4  7  2  0  0  0  0
  4  2  1  0  0  0  0
  5  1  1  0  0  0  0
  6  1  2  0  0  0  0
  7  6  1  0  0  0  0
  8 10  1  0  0  0  0
  8  2  1  0  0  0  0
 10  9  2  0  0  0  0
 11 10  1  0  0  0  0
 12 14  1  0  0  0  0
 13 15  2  0  0  0  0
 13 14  1  0  0  0  0
 14 11  1  0  0  0  0
 16 13  1  0  0  0  0
 17 16  2  0  0  0  0
 17 12  1  0  0  0  0
 18 16  1  0  0  0  0
 19 25  1  0  0  0  0
 20 23  1  0  0  0  0
 21 19  2  0  0  0  0
 21 20  1  0  0  0  0
 23 24  1  0  0  0  0
 24 18  1  1  0  0  0
 25 22  2  0  0  0  0
 25 24  1  0  0  0  0
 27 28  1  0  0  0  0
 28 31  2  0  0  0  0
 29 32  1  0  0  0  0
 29 27  2  0  0  0  0
 30 26  1  0  0  0  0
 30 31  1  0  0  0  0
 32 30  2  0  0  0  0
 33 34  3  0  0  0  0
 34 27  1  0  0  0  0
 36 35  2  0  0  0  0
 36 32  1  0  0  0  0
 38 37  1  6  0  0  0
 38 39  1  0  0  0  0
 38 36  1  0  0  0  0
M  END
>  <MODEL>
4

>  <REMARK>
 VINA RESULT:      -7.5      3.012      4.320
  Name = 
  10 active torsions:
  status: ('A' for Active; 'I' for Inactive)
    1  A    between atoms: C_1  and  C_38
    2  A    between atoms: C_4  and  N_13
    3  A    between atoms: C_6  and  O_28
    4  A    between atoms: N_9  and  C_27
    5  A    between atoms: C_15  and  C_26
    6  A    between atoms: C_15  and  C_31
    7  A    between atoms: C_22  and  C_34
    8  A    between atoms: C_27  and  C_33
    9  A    between atoms: O_28  and  C_32
   10  A    between atoms: C_34  and  C_39
                            x       y       z     vdW  Elec       q    Type
                         _______ _______ _______ _____ _____    ______ ____

>  <TORSDO>
F 10

$$$$
=
 OpenBabel11072415113D

 39 43  0  0  1  0  0  0  0  0999 V2000
  159.4750  212.9270  155.4000 C   0  0  0  0  0  3  0  0  0  0  0  0
  160.5770  211.3030  153.7380 C   0  0  0  0  0  0  0  0  0  0  0  0
  158.5340  212.1600  152.0950 C   0  0  1  0  0  3  0  0  0  0  0  0
  159.5640  211.7410  152.9520 C   0  0  0  0  0  0  0  0  0  0  0  0
  160.5200  211.9480  155.0290 C   0  0  0  0  0  3  0  0  0  0  0  0
  158.4460  213.3370  154.5500 N   0  0  0  0  0  0  0  0  0  0  0  0
  158.5720  212.7100  153.3840 C   0  0  0  0  0  0  0  0  0  0  0  0
  161.5540  210.3520  153.3120 N   0  0  0  0  0  2  0  0  0  0  0  0
  160.1760  209.0590  151.9240 O   0  0  0  0  0  0  0  0  0  0  0  0
  161.3030  209.2320  152.4570 C   0  0  0  0  0  0  0  0  0  0  0  0
  162.3910  208.2480  152.2010 C   0  0  0  0  0  2  0  0  0  0  0  0
  161.3190  205.8980  152.0320 C   0  0  0  0  0  2  0  0  0  0  0  0
  161.7770  206.9960  150.0460 C   0  0  0  0  0  0  0  0  0  0  0  0
  161.8780  207.1100  151.4530 N   0  0  0  0  0  0  0  0  0  0  0  0
  162.1410  207.8820  149.2330 O   0  0  0  0  0  0  0  0  0  0  0  0
  161.1770  205.7300  149.7090 C   0  0  0  0  0  0  0  0  0  0  0  0
  160.8970  205.0800  150.8320 C   0  0  0  0  0  3  0  0  0  0  0  0
  160.8600  205.2500  148.3340 C   0  0  0  0  0  2  0  0  0  0  0  0
  160.8890  202.4720  146.2890 N   0  0  0  0  0  0  0  0  0  0  0  0
  161.6670  204.6100  145.3970 C   0  0  0  0  0  2  0  0  0  0  0  0
  161.1230  203.2200  145.2510 C   0  0  0  0  0  3  0  0  0  0  0  0
  160.8510  202.1780  148.5980 O   0  0  0  0  0  0  0  0  0  0  0  0
  162.6000  204.6780  146.6040 C   0  0  0  0  0  2  0  0  0  0  0  0
  161.8780  204.2110  147.8740 C   0  0  2  0  0  3  0  0  0  0  0  0
  161.1890  202.8990  147.6250 C   0  0  0  0  0  0  0  0  0  0  0  0
  159.0670  213.0900  151.1590 O   0  0  0  0  0  0  0  0  0  0  0  0
  157.2080  213.9420  147.4790 C   0  0  0  0  0  0  0  0  0  0  0  0
  156.4360  213.7170  148.6170 C   0  0  0  0  0  3  0  0  0  0  0  0
  158.6020  213.8970  147.5620 C   0  0  0  0  0  3  0  0  0  0  0  0
  158.4600  213.3920  149.9340 C   0  0  0  0  0  0  0  0  0  0  0  0
  157.0570  213.4410  149.8370 C   0  0  0  0  0  3  0  0  0  0  0  0
  159.2470  213.6340  148.7830 C   0  0  0  0  0  0  0  0  0  0  0  0
  156.0600  214.4520  145.2110 N   0  0  0  0  0  0  0  0  0  0  0  0
  156.5710  214.2250  146.2230 C   0  0  0  0  0  0  0  0  0  0  0  0
  161.3540  214.3440  149.5970 O   0  0  0  0  0  0  0  0  0  0  0  0
  160.7370  213.6020  148.7860 C   0  0  0  0  0  0  0  0  0  0  0  0
  162.1430  211.5320  148.6850 C   0  0  0  0  0  1  0  0  0  0  0  0
  161.5660  212.7030  147.9080 C   0  0  2  0  0  3  0  0  0  0  0  0
  162.5760  213.4090  147.2510 O   0  0  0  0  0  1  0  0  0  0  0  0
  2  5  2  0  0  0  0
  3 26  1  6  0  0  0
  3  4  1  0  0  0  0
  3  7  1  0  0  0  0
  4  7  2  0  0  0  0
  4  2  1  0  0  0  0
  5  1  1  0  0  0  0
  6  1  2  0  0  0  0
  7  6  1  0  0  0  0
  8  2  1  0  0  0  0
  9 10  2  0  0  0  0
 10  8  1  0  0  0  0
 11 10  1  0  0  0  0
 13 14  1  0  0  0  0
 14 12  1  0  0  0  0
 14 11  1  0  0  0  0
 15 13  2  0  0  0  0
 16 13  1  0  0  0  0
 16 17  2  0  0  0  0
 17 12  1  0  0  0  0
 18 16  1  0  0  0  0
 19 25  1  0  0  0  0
 20 23  1  0  0  0  0
 21 20  1  0  0  0  0
 21 19  2  0  0  0  0
 23 24  1  0  0  0  0
 24 18  1  6  0  0  0
 25 24  1  0  0  0  0
 25 22  2  0  0  0  0
 27 29  2  0  0  0  0
 27 28  1  0  0  0  0
 28 31  2  0  0  0  0
 29 32  1  0  0  0  0
 30 26  1  0  0  0  0
 31 30  1  0  0  0  0
 32 36  1  0  0  0  0
 32 30  2  0  0  0  0
 33 34  3  0  0  0  0
 34 27  1  0  0  0  0
 36 35  2  0  0  0  0
 38 37  1  1  0  0  0
 38 36  1  0  0  0  0
 39 38  1  0  0  0  0
M  END
>  <MODEL>
5

>  <REMARK>
 VINA RESULT:      -7.5      4.362      9.175
  Name = 
  10 active torsions:
  status: ('A' for Active; 'I' for Inactive)
    1  A    between atoms: C_1  and  C_38
    2  A    between atoms: C_4  and  N_13
    3  A    between atoms: C_6  and  O_28
    4  A    between atoms: N_9  and  C_27
    5  A    between atoms: C_15  and  C_26
    6  A    between atoms: C_15  and  C_31
    7  A    between atoms: C_22  and  C_34
    8  A    between atoms: C_27  and  C_33
    9  A    between atoms: O_28  and  C_32
   10  A    between atoms: C_34  and  C_39
                            x       y       z     vdW  Elec       q    Type
                         _______ _______ _______ _____ _____    ______ ____

>  <TORSDO>
F 10

$$$$
=
 OpenBabel11072415113D

 39 43  0  0  1  0  0  0  0  0999 V2000
  161.3020  209.5040  153.5780 C   0  0  0  0  0  3  0  0  0  0  0  0
  161.1150  210.7600  151.3420 C   0  0  0  0  0  0  0  0  0  0  0  0
  162.1380  208.4010  150.3410 C   0  0  1  0  0  3  0  0  0  0  0  0
  161.6180  209.5910  150.8760 C   0  0  0  0  0  0  0  0  0  0  0  0
  160.9460  210.6940  152.7740 C   0  0  0  0  0  3  0  0  0  0  0  0
  161.8260  208.3250  153.0460 N   0  0  0  0  0  0  0  0  0  0  0  0
  161.9430  208.4600  151.7280 C   0  0  0  0  0  0  0  0  0  0  0  0
  160.7940  211.8710  150.5040 N   0  0  0  0  0  2  0  0  0  0  0  0
  162.3020  211.4240  148.7650 O   0  0  0  0  0  0  0  0  0  0  0  0
  161.4370  212.1900  149.2660 C   0  0  0  0  0  0  0  0  0  0  0  0
  161.0860  213.4550  148.5620 C   0  0  0  0  0  2  0  0  0  0  0  0
  162.4990  213.5590  146.3960 C   0  0  0  0  0  2  0  0  0  0  0  0
  160.3110  212.8280  146.1970 C   0  0  0  0  0  0  0  0  0  0  0  0
  161.2670  213.3020  147.1270 N   0  0  0  0  0  0  0  0  0  0  0  0
  159.1410  212.4800  146.4950 O   0  0  0  0  0  0  0  0  0  0  0  0
  160.8990  212.7880  144.8820 C   0  0  0  0  0  0  0  0  0  0  0  0
  162.1590  213.1970  144.9670 C   0  0  0  0  0  3  0  0  0  0  0  0
  160.2320  212.3080  143.6380 C   0  0  0  0  0  2  0  0  0  0  0  0
  160.4630  211.8240  140.2300 N   0  0  0  0  0  0  0  0  0  0  0  0
  158.5500  213.0520  141.1280 C   0  0  0  0  0  2  0  0  0  0  0  0
  159.2400  212.2380  140.0740 C   0  0  0  0  0  3  0  0  0  0  0  0
  162.3870  211.6580  141.5310 O   0  0  0  0  0  0  0  0  0  0  0  0
  159.5640  213.9430  141.8420 C   0  0  0  0  0  2  0  0  0  0  0  0
  160.7070  213.1030  142.4260 C   0  0  2  0  0  3  0  0  0  0  0  0
  161.2470  212.1660  141.3830 C   0  0  0  0  0  0  0  0  0  0  0  0
  161.0780  207.6700  149.7360 O   0  0  0  0  0  0  0  0  0  0  0  0
  160.8790  203.4650  149.8080 C   0  0  0  0  0  0  0  0  0  0  0  0
  160.7730  204.1910  150.9930 C   0  0  0  0  0  3  0  0  0  0  0  0
  161.0390  204.1350  148.5920 C   0  0  0  0  0  3  0  0  0  0  0  0
  160.9950  206.2730  149.7470 C   0  0  0  0  0  0  0  0  0  0  0  0
  160.8330  205.5860  150.9630 C   0  0  0  0  0  3  0  0  0  0  0  0
  161.0880  205.5390  148.5390 C   0  0  0  0  0  0  0  0  0  0  0  0
  160.7700  200.8750  149.8630 N   0  0  0  0  0  0  0  0  0  0  0  0
  160.8190  202.0310  149.8370 C   0  0  0  0  0  0  0  0  0  0  0  0
  161.6510  207.3740  147.1530 O   0  0  0  0  0  0  0  0  0  0  0  0
  161.2620  206.1760  147.2030 C   0  0  0  0  0  0  0  0  0  0  0  0
  162.3610  205.0570  145.2500 C   0  0  0  0  0  1  0  0  0  0  0  0
  161.0470  205.4660  145.8930 C   0  0  2  0  0  3  0  0  0  0  0  0
  160.2800  206.2300  145.0110 O   0  0  0  0  0  1  0  0  0  0  0  0
  2  5  1  0  0  0  0
  3 26  1  6  0  0  0
  3  4  1  0  0  0  0
  3  7  1  0  0  0  0
  4  2  2  0  0  0  0
  4  7  1  0  0  0  0
  5  1  2  0  0  0  0
  6  1  1  0  0  0  0
  7  6  2  0  0  0  0
  8  2  1  0  0  0  0
  9 10  2  0  0  0  0
 10  8  1  0  0  0  0
 11 10  1  0  0  0  0
 12 14  1  0  0  0  0
 13 15  2  0  0  0  0
 13 14  1  0  0  0  0
 14 11  1  0  0  0  0
 16 17  2  0  0  0  0
 16 13  1  0  0  0  0
 17 12  1  0  0  0  0
 18 16  1  0  0  0  0
 19 25  1  0  0  0  0
 20 23  1  0  0  0  0
 21 19  2  0  0  0  0
 21 20  1  0  0  0  0
 23 24  1  0  0  0  0
 24 18  1  1  0  0  0
 25 22  2  0  0  0  0
 25 24  1  0  0  0  0
 26 30  1  0  0  0  0
 27 34  1  0  0  0  0
 27 28  1  0  0  0  0
 29 27  2  0  0  0  0
 30 31  1  0  0  0  0
 31 28  2  0  0  0  0
 32 29  1  0  0  0  0
 32 30  2  0  0  0  0
 34 33  3  0  0  0  0
 35 36  2  0  0  0  0
 36 32  1  0  0  0  0
 38 37  1  6  0  0  0
 38 36  1  0  0  0  0
 39 38  1  0  0  0  0
M  END
>  <MODEL>
6

>  <REMARK>
 VINA RESULT:      -7.4      1.735      2.442
  Name = 
  10 active torsions:
  status: ('A' for Active; 'I' for Inactive)
    1  A    between atoms: C_1  and  C_38
    2  A    between atoms: C_4  and  N_13
    3  A    between atoms: C_6  and  O_28
    4  A    between atoms: N_9  and  C_27
    5  A    between atoms: C_15  and  C_26
    6  A    between atoms: C_15  and  C_31
    7  A    between atoms: C_22  and  C_34
    8  A    between atoms: C_27  and  C_33
    9  A    between atoms: O_28  and  C_32
   10  A    between atoms: C_34  and  C_39
                            x       y       z     vdW  Elec       q    Type
                         _______ _______ _______ _____ _____    ______ ____

>  <TORSDO>
F 10

$$$$
=
 OpenBabel11072415113D

 39 43  0  0  1  0  0  0  0  0999 V2000
  159.7020  207.7180  156.1370 C   0  0  0  0  0  3  0  0  0  0  0  0
  160.5570  209.5300  154.5250 C   0  0  0  0  0  0  0  0  0  0  0  0
  161.7400  207.3660  153.2870 C   0  0  1  0  0  3  0  0  0  0  0  0
  161.1270  208.4500  153.9370 C   0  0  0  0  0  0  0  0  0  0  0  0
  159.7990  209.1230  155.6850 C   0  0  0  0  0  3  0  0  0  0  0  0
  160.3180  206.6420  155.4960 N   0  0  0  0  0  0  0  0  0  0  0  0
  160.9860  207.0940  154.4380 C   0  0  0  0  0  0  0  0  0  0  0  0
  160.6950  210.8630  154.0310 N   0  0  0  0  0  2  0  0  0  0  0  0
  158.6360  211.0210  152.9200 O   0  0  0  0  0  0  0  0  0  0  0  0
  159.7470  211.5430  153.2030 C   0  0  0  0  0  0  0  0  0  0  0  0
  160.0830  212.8860  152.6550 C   0  0  0  0  0  2  0  0  0  0  0  0
  157.8690  213.3170  151.3860 C   0  0  0  0  0  2  0  0  0  0  0  0
  159.8220  213.3390  150.1430 C   0  0  0  0  0  0  0  0  0  0  0  0
  159.3130  213.1480  151.4490 N   0  0  0  0  0  0  0  0  0  0  0  0
  161.0400  213.2930  149.8400 O   0  0  0  0  0  0  0  0  0  0  0  0
  158.7340  213.6150  149.2380 C   0  0  0  0  0  0  0  0  0  0  0  0
  157.5990  213.6140  149.9270 C   0  0  0  0  0  3  0  0  0  0  0  0
  158.8590  213.9150  147.7840 C   0  0  0  0  0  2  0  0  0  0  0  0
  158.5950  212.9020  144.4970 N   0  0  0  0  0  0  0  0  0  0  0  0
  160.7800  213.5750  145.3600 C   0  0  0  0  0  2  0  0  0  0  0  0
  159.7980  213.3310  144.2530 C   0  0  0  0  0  3  0  0  0  0  0  0
  156.9490  212.2630  146.0140 O   0  0  0  0  0  0  0  0  0  0  0  0
  160.5500  212.5720  146.4880 C   0  0  0  0  0  2  0  0  0  0  0  0
  159.1010  212.6380  146.9840 C   0  0  2  0  0  3  0  0  0  0  0  0
  158.1510  212.5780  145.8220 C   0  0  0  0  0  0  0  0  0  0  0  0
  160.9830  207.0410  152.1280 O   0  0  0  0  0  0  0  0  0  0  0  0
  160.9210  203.1770  150.4570 C   0  0  0  0  0  0  0  0  0  0  0  0
  160.8190  203.3440  151.8370 C   0  0  0  0  0  3  0  0  0  0  0  0
  161.0320  204.2940  149.6260 C   0  0  0  0  0  3  0  0  0  0  0  0
  160.9460  205.7610  151.5600 C   0  0  0  0  0  0  0  0  0  0  0  0
  160.8330  204.6280  152.3850 C   0  0  0  0  0  3  0  0  0  0  0  0
  161.0350  205.5960  150.1570 C   0  0  0  0  0  0  0  0  0  0  0  0
  160.8980  200.7930  149.4370 N   0  0  0  0  0  0  0  0  0  0  0  0
  160.9080  201.8570  149.8910 C   0  0  0  0  0  0  0  0  0  0  0  0
  160.2060  206.9580  148.4080 O   0  0  0  0  0  0  0  0  0  0  0  0
  161.1590  206.7330  149.2020 C   0  0  0  0  0  0  0  0  0  0  0  0
  161.9580  209.0770  149.5760 C   0  0  0  0  0  1  0  0  0  0  0  0
  162.3370  207.6690  149.1490 C   0  0  2  0  0  3  0  0  0  0  0  0
  162.9340  207.6770  147.8870 O   0  0  0  0  0  1  0  0  0  0  0  0
  2  5  2  0  0  0  0
  3 26  1  6  0  0  0
  3  4  1  0  0  0  0
  3  7  1  0  0  0  0
  4  7  2  0  0  0  0
  4  2  1  0  0  0  0
  5  1  1  0  0  0  0
  6  1  2  0  0  0  0
  7  6  1  0  0  0  0
  8  2  1  0  0  0  0
  9 10  2  0  0  0  0
 10  8  1  0  0  0  0
 11 10  1  0  0  0  0
 12 14  1  0  0  0  0
 13 14  1  0  0  0  0
 14 11  1  0  0  0  0
 15 13  2  0  0  0  0
 16 17  2  0  0  0  0
 16 13  1  0  0  0  0
 17 12  1  0  0  0  0
 18 16  1  0  0  0  0
 19 25  1  0  0  0  0
 20 23  1  0  0  0  0
 21 19  2  0  0  0  0
 21 20  1  0  0  0  0
 23 24  1  0  0  0  0
 24 18  1  6  0  0  0
 25 22  2  0  0  0  0
 25 24  1  0  0  0  0
 27 28  1  0  0  0  0
 28 31  2  0  0  0  0
 29 32  1  0  0  0  0
 29 27  2  0  0  0  0
 30 26  1  0  0  0  0
 30 31  1  0  0  0  0
 32 30  2  0  0  0  0
 33 34  3  0  0  0  0
 34 27  1  0  0  0  0
 35 36  2  0  0  0  0
 36 32  1  0  0  0  0
 38 36  1  0  0  0  0
 38 37  1  6  0  0  0
 39 38  1  0  0  0  0
M  END
>  <MODEL>
7

>  <REMARK>
 VINA RESULT:      -7.4      3.437      5.400
  Name = 
  10 active torsions:
  status: ('A' for Active; 'I' for Inactive)
    1  A    between atoms: C_1  and  C_38
    2  A    between atoms: C_4  and  N_13
    3  A    between atoms: C_6  and  O_28
    4  A    between atoms: N_9  and  C_27
    5  A    between atoms: C_15  and  C_26
    6  A    between atoms: C_15  and  C_31
    7  A    between atoms: C_22  and  C_34
    8  A    between atoms: C_27  and  C_33
    9  A    between atoms: O_28  and  C_32
   10  A    between atoms: C_34  and  C_39
                            x       y       z     vdW  Elec       q    Type
                         _______ _______ _______ _____ _____    ______ ____

>  <TORSDO>
F 10

$$$$
=
 OpenBabel11072415113D

 39 43  0  0  1  0  0  0  0  0999 V2000
  159.2500  210.3540  156.6200 C   0  0  0  0  0  3  0  0  0  0  0  0
  160.2670  209.4350  154.4440 C   0  0  0  0  0  0  0  0  0  0  0  0
  158.4480  211.1570  153.2860 C   0  0  1  0  0  3  0  0  0  0  0  0
  159.3650  210.2880  153.9010 C   0  0  0  0  0  0  0  0  0  0  0  0
  160.1980  209.4890  155.8850 C   0  0  0  0  0  3  0  0  0  0  0  0
  158.3330  211.2110  156.0080 N   0  0  0  0  0  0  0  0  0  0  0  0
  158.4630  211.1120  154.6870 C   0  0  0  0  0  0  0  0  0  0  0  0
  161.1550  208.6270  153.6700 N   0  0  0  0  0  2  0  0  0  0  0  0
  160.4680  206.5290  154.4600 O   0  0  0  0  0  0  0  0  0  0  0  0
  161.2560  207.2010  153.7440 C   0  0  0  0  0  0  0  0  0  0  0  0
  162.3190  206.5010  152.9710 C   0  0  0  0  0  2  0  0  0  0  0  0
  160.9550  204.5210  152.0140 C   0  0  0  0  0  2  0  0  0  0  0  0
  161.7590  206.0790  150.5020 C   0  0  0  0  0  0  0  0  0  0  0  0
  161.7320  205.7430  151.8770 N   0  0  0  0  0  0  0  0  0  0  0  0
  162.3220  207.0980  150.0300 O   0  0  0  0  0  0  0  0  0  0  0  0
  161.0260  205.0900  149.7510 C   0  0  0  0  0  0  0  0  0  0  0  0
  160.5470  204.1850  150.5960 C   0  0  0  0  0  3  0  0  0  0  0  0
  160.7870  205.1080  148.2800 C   0  0  0  0  0  2  0  0  0  0  0  0
  161.1120  203.3310  145.3410 N   0  0  0  0  0  0  0  0  0  0  0  0
  161.8040  205.6750  145.3950 C   0  0  0  0  0  2  0  0  0  0  0  0
  161.3590  204.4290  144.6880 C   0  0  0  0  0  3  0  0  0  0  0  0
  160.9570  202.1710  147.3550 O   0  0  0  0  0  0  0  0  0  0  0  0
  162.6580  205.3080  146.6060 C   0  0  0  0  0  2  0  0  0  0  0  0
  161.8940  204.3630  147.5410 C   0  0  2  0  0  3  0  0  0  0  0  0
  161.3060  203.2230  146.7590 C   0  0  0  0  0  0  0  0  0  0  0  0
  159.1440  212.3110  152.8340 O   0  0  0  0  0  0  0  0  0  0  0  0
  160.8690  212.6900  149.0110 C   0  0  0  0  0  0  0  0  0  0  0  0
  161.4890  211.9080  149.9840 C   0  0  0  0  0  3  0  0  0  0  0  0
  159.6660  213.3400  149.3010 C   0  0  0  0  0  3  0  0  0  0  0  0
  159.7000  212.4300  151.5540 C   0  0  0  0  0  0  0  0  0  0  0  0
  160.9090  211.7800  151.2480 C   0  0  0  0  0  3  0  0  0  0  0  0
  159.0600  213.2130  150.5630 C   0  0  0  0  0  0  0  0  0  0  0  0
  161.9430  212.9290  146.6640 N   0  0  0  0  0  0  0  0  0  0  0  0
  161.4630  212.8240  147.7110 C   0  0  0  0  0  0  0  0  0  0  0  0
  157.5720  214.4520  151.9250 O   0  0  0  0  0  0  0  0  0  0  0  0
  157.7790  213.9400  150.7920 C   0  0  0  0  0  0  0  0  0  0  0  0
  155.3220  214.0780  150.3250 C   0  0  0  0  0  1  0  0  0  0  0  0
  156.7220  214.1450  149.7390 C   0  0  2  0  0  3  0  0  0  0  0  0
  156.8620  213.2430  148.6840 O   0  0  0  0  0  1  0  0  0  0  0  0
  2  5  1  0  0  0  0
  3 26  1  1  0  0  0
  3  4  1  0  0  0  0
  3  7  1  0  0  0  0
  4  2  2  0  0  0  0
  4  7  1  0  0  0  0
  5  1  2  0  0  0  0
  6  1  1  0  0  0  0
  7  6  2  0  0  0  0
  8 10  1  0  0  0  0
  8  2  1  0  0  0  0
 10  9  2  0  0  0  0
 11 10  1  0  0  0  0
 13 14  1  0  0  0  0
 14 12  1  0  0  0  0
 14 11  1  0  0  0  0
 15 13  2  0  0  0  0
 16 13  1  0  0  0  0
 16 17  2  0  0  0  0
 17 12  1  0  0  0  0
 18 16  1  0  0  0  0
 19 25  1  0  0  0  0
 20 23  1  0  0  0  0
 21 19  2  0  0  0  0
 21 20  1  0  0  0  0
 23 24  1  0  0  0  0
 24 18  1  6  0  0  0
 25 22  2  0  0  0  0
 25 24  1  0  0  0  0
 27 29  2  0  0  0  0
 27 28  1  0  0  0  0
 28 31  2  0  0  0  0
 29 32  1  0  0  0  0
 30 26  1  0  0  0  0
 31 30  1  0  0  0  0
 32 36  1  0  0  0  0
 32 30  2  0  0  0  0
 33 34  3  0  0  0  0
 34 27  1  0  0  0  0
 36 35  2  0  0  0  0
 38 37  1  1  0  0  0
 38 36  1  0  0  0  0
 39 38  1  0  0  0  0
M  END
>  <MODEL>
8

>  <REMARK>
 VINA RESULT:      -6.6      4.434      9.306
  Name = 
  10 active torsions:
  status: ('A' for Active; 'I' for Inactive)
    1  A    between atoms: C_1  and  C_38
    2  A    between atoms: C_4  and  N_13
    3  A    between atoms: C_6  and  O_28
    4  A    between atoms: N_9  and  C_27
    5  A    between atoms: C_15  and  C_26
    6  A    between atoms: C_15  and  C_31
    7  A    between atoms: C_22  and  C_34
    8  A    between atoms: C_27  and  C_33
    9  A    between atoms: O_28  and  C_32
   10  A    between atoms: C_34  and  C_39
                            x       y       z     vdW  Elec       q    Type
                         _______ _______ _______ _____ _____    ______ ____

>  <TORSDO>
F 10

$$$$
=
 OpenBabel11072415113D

 39 43  0  0  1  0  0  0  0  0999 V2000
  161.2060  205.8650  154.0410 C   0  0  0  0  0  3  0  0  0  0  0  0
  160.8440  207.9810  152.6240 C   0  0  0  0  0  0  0  0  0  0  0  0
  162.0390  206.4440  150.6690 C   0  0  1  0  0  3  0  0  0  0  0  0
  161.4340  207.2050  151.6820 C   0  0  0  0  0  0  0  0  0  0  0  0
  160.7240  207.2530  153.8650 C   0  0  0  0  0  3  0  0  0  0  0  0
  161.8150  205.1130  153.0360 N   0  0  0  0  0  0  0  0  0  0  0  0
  161.8810  205.8450  151.9260 C   0  0  0  0  0  0  0  0  0  0  0  0
  160.4030  209.3180  152.3830 N   0  0  0  0  0  2  0  0  0  0  0  0
  162.2380  210.4470  153.3070 O   0  0  0  0  0  0  0  0  0  0  0  0
  161.0960  210.5050  152.7800 C   0  0  0  0  0  0  0  0  0  0  0  0
  160.4520  211.8320  152.5760 C   0  0  0  0  0  2  0  0  0  0  0  0
  159.6200  211.4660  154.9990 C   0  0  0  0  0  2  0  0  0  0  0  0
  158.8120  213.3200  153.8730 C   0  0  0  0  0  0  0  0  0  0  0  0
  159.6520  212.1900  153.7380 N   0  0  0  0  0  0  0  0  0  0  0  0
  158.6300  214.1830  152.9780 O   0  0  0  0  0  0  0  0  0  0  0  0
  158.2310  213.3320  155.1920 C   0  0  0  0  0  0  0  0  0  0  0  0
  158.6830  212.2800  155.8650 C   0  0  0  0  0  3  0  0  0  0  0  0
  157.3240  214.3800  155.7400 C   0  0  0  0  0  2  0  0  0  0  0  0
  155.5790  211.6170  154.6350 N   0  0  0  0  0  0  0  0  0  0  0  0
  155.9370  211.9140  157.0350 C   0  0  0  0  0  2  0  0  0  0  0  0
  155.6440  211.0840  155.8200 C   0  0  0  0  0  3  0  0  0  0  0  0
  155.7490  213.4790  153.2470 O   0  0  0  0  0  0  0  0  0  0  0  0
  155.3410  213.3090  156.8660 C   0  0  0  0  0  2  0  0  0  0  0  0
  155.8630  213.9690  155.5840 C   0  0  2  0  0  3  0  0  0  0  0  0
  155.7210  213.0290  154.4210 C   0  0  0  0  0  0  0  0  0  0  0  0
  161.0290  205.9770  149.7830 O   0  0  0  0  0  0  0  0  0  0  0  0
  161.1560  202.1730  147.9820 C   0  0  0  0  0  0  0  0  0  0  0  0
  160.7060  202.3110  149.2940 C   0  0  0  0  0  3  0  0  0  0  0  0
  161.5550  203.3000  147.2590 C   0  0  0  0  0  3  0  0  0  0  0  0
  161.0590  204.7190  149.1680 C   0  0  0  0  0  0  0  0  0  0  0  0
  160.6590  203.5760  149.8840 C   0  0  0  0  0  3  0  0  0  0  0  0
  161.5030  204.5840  147.8310 C   0  0  0  0  0  0  0  0  0  0  0  0
  161.2480  199.8270  146.8820 N   0  0  0  0  0  0  0  0  0  0  0  0
  161.2060  200.8730  147.3730 C   0  0  0  0  0  0  0  0  0  0  0  0
  162.7070  206.5970  147.5100 O   0  0  0  0  0  0  0  0  0  0  0  0
  161.9480  205.7330  146.9930 C   0  0  0  0  0  0  0  0  0  0  0  0
  160.0820  205.9320  145.3350 C   0  0  0  0  0  1  0  0  0  0  0  0
  161.5870  205.9130  145.5430 C   0  0  2  0  0  3  0  0  0  0  0  0
  162.1870  204.9450  144.7360 O   0  0  0  0  0  1  0  0  0  0  0  0
  2  5  2  0  0  0  0
  3 26  1  6  0  0  0
  3  4  1  0  0  0  0
  3  7  1  0  0  0  0
  4  7  2  0  0  0  0
  4  2  1  0  0  0  0
  5  1  1  0  0  0  0
  6  1  2  0  0  0  0
  7  6  1  0  0  0  0
  8  2  1  0  0  0  0
  8 10  1  0  0  0  0
 10  9  2  0  0  0  0
 11 10  1  0  0  0  0
 11 14  1  0  0  0  0
 12 17  1  0  0  0  0
 13 16  1  0  0  0  0
 14 13  1  0  0  0  0
 14 12  1  0  0  0  0
 15 13  2  0  0  0  0
 16 18  1  0  0  0  0
 16 17  2  0  0  0  0
 19 21  2  0  0  0  0
 21 20  1  0  0  0  0
 22 25  2  0  0  0  0
 23 20  1  0  0  0  0
 24 18  1  1  0  0  0
 24 23  1  0  0  0  0
 25 19  1  0  0  0  0
 25 24  1  0  0  0  0
 27 28  1  0  0  0  0
 28 31  2  0  0  0  0
 29 32  1  0  0  0  0
 29 27  2  0  0  0  0
 30 26  1  0  0  0  0
 30 31  1  0  0  0  0
 32 30  2  0  0  0  0
 33 34  3  0  0  0  0
 34 27  1  0  0  0  0
 36 35  2  0  0  0  0
 36 32  1  0  0  0  0
 38 37  1  1  0  0  0
 38 36  1  0  0  0  0
 39 38  1  0  0  0  0
M  END
>  <MODEL>
9

>  <REMARK>
 VINA RESULT:      -6.4      5.411      8.991
  Name = 
  10 active torsions:
  status: ('A' for Active; 'I' for Inactive)
    1  A    between atoms: C_1  and  C_38
    2  A    between atoms: C_4  and  N_13
    3  A    between atoms: C_6  and  O_28
    4  A    between atoms: N_9  and  C_27
    5  A    between atoms: C_15  and  C_26
    6  A    between atoms: C_15  and  C_31
    7  A    between atoms: C_22  and  C_34
    8  A    between atoms: C_27  and  C_33
    9  A    between atoms: O_28  and  C_32
   10  A    between atoms: C_34  and  C_39
                            x       y       z     vdW  Elec       q    Type
                         _______ _______ _______ _____ _____    ______ ____

>  <TORSDO>
F 10

$$$$
