=
 OpenBabel11072413253D

 41 44  0  0  1  0  0  0  0  0999 V2000
  161.4190  204.0670  151.9060 C   0  0  0  0  0  3  0  0  0  0  0  0
  161.7590  205.1740  151.1120 C   0  0  0  0  0  0  0  0  0  0  0  0
  160.8660  202.5610  151.7200 C   0  0  0  0  0  2  0  0  0  0  0  0
  161.6530  205.1230  149.5490 C   0  0  1  0  0  3  0  0  0  0  0  0
  160.9140  202.0670  150.4020 N   0  0  0  0  0  2  0  0  0  0  0  0
  160.4570  204.2760  149.3680 N   0  0  0  0  0  2  0  0  0  0  0  0
  160.7870  202.8370  149.1950 C   0  0  0  0  0  0  0  0  0  0  0  0
  161.0990  202.4400  148.1220 O   0  0  0  0  0  0  0  0  0  0  0  0
  161.6780  206.0810  148.3350 N   0  0  0  0  0  0  0  0  0  0  0  0
  162.4200  207.2730  148.7380 C   0  0  0  0  0  2  0  0  0  0  0  0
  161.4550  208.3510  149.1700 C   0  0  0  0  0  2  0  0  0  0  0  0
  162.1310  209.5690  148.5180 C   0  0  0  0  0  2  0  0  0  0  0  0
  162.0430  210.7650  149.3780 C   0  0  0  0  0  2  0  0  0  0  0  0
  162.3420  211.9660  148.4850 C   0  0  0  0  0  2  0  0  0  0  0  0
  161.1270  212.2150  147.6140 C   0  0  0  0  0  2  0  0  0  0  0  0
  160.5300  213.6000  147.9130 C   0  0  0  0  0  2  0  0  0  0  0  0
  159.2850  213.6390  148.7140 N   0  0  0  0  0  2  0  0  0  0  0  0
  159.0940  213.4850  150.1320 C   0  0  0  0  0  0  0  0  0  0  0  0
  157.8330  213.5910  150.6850 O   0  0  0  0  0  0  0  0  0  0  0  0
  160.1270  213.3750  150.9220 O   0  0  0  0  0  1  0  0  0  0  0  0
  160.5880  206.3600  147.3390 C   0  0  0  0  0  2  0  0  0  0  0  0
  160.7980  206.1600  145.7980 C   0  0  0  0  0  2  0  0  0  0  0  0
  162.8720  204.8070  145.6230 N   0  0  0  0  0  2  0  0  0  0  0  0
  161.6100  204.9630  145.3590 C   0  0  0  0  0  0  0  0  0  0  0  0
  160.8290  203.7780  144.9400 C   0  0  0  0  0  1  0  0  0  0  0  0
  162.3950  206.3190  151.9160 C   0  0  0  0  0  2  0  0  0  0  0  0
  161.9840  208.5420  152.6710 O   0  0  0  0  0  0  0  0  0  0  0  0
  160.9120  209.5140  152.7210 C   0  0  0  0  0  2  0  0  0  0  0  0
  161.1510  207.1180  154.2720 C   0  0  0  0  0  2  0  0  0  0  0  0
  159.9260  209.2990  153.9170 C   0  0  1  0  0  3  0  0  0  0  0  0
  161.4690  207.2780  152.7410 C   0  0  2  0  0  3  0  0  0  0  0  0
  160.4220  208.1470  154.7260 C   0  0  0  0  0  2  0  0  0  0  0  0
  162.0150  211.0360  155.9360 N   0  0  0  0  0  2  0  0  0  0  0  0
  159.0910  213.1750  154.0350 O   0  0  0  0  0  0  0  0  0  0  0  0
  157.4250  211.4570  154.4970 O   0  0  0  0  0  0  0  0  0  0  0  0
  161.1060  210.5740  156.9810 C   0  0  0  0  0  2  0  0  0  0  0  0
  159.0580  211.8010  156.2680 C   0  0  0  0  0  2  0  0  0  0  0  0
  161.4730  210.9840  154.8100 N   0  0  0  0  0  2  0  0  0  0  0  0
  159.9780  210.5940  154.8990 C   0  0  2  0  0  0  0  0  0  0  0  0
  159.9520  210.5550  156.3840 C   0  0  1  0  0  3  0  0  0  0  0  0
  158.8430  211.8280  154.5620 S   0  0  0  0  0  0  0  0  0  0  0  0
  2  1  2  0  0  0  0
  2 26  1  0  0  0  0
  3  1  1  0  0  0  0
  4  9  1  1  0  0  0
  4  2  1  0  0  0  0
  5  3  1  0  0  0  0
  6  4  1  0  0  0  0
  7  6  1  0  0  0  0
  7  5  1  0  0  0  0
  8  7  2  0  0  0  0
  9 10  1  0  0  0  0
 10 11  1  0  0  0  0
 12 11  1  0  0  0  0
 12 13  1  0  0  0  0
 14 13  1  0  0  0  0
 15 16  1  0  0  0  0
 15 14  1  0  0  0  0
 16 17  1  0  0  0  0
 17 18  1  0  0  0  0
 18 19  2  0  0  0  0
 18 20  1  0  0  0  0
 21  9  1  0  0  0  0
 22 21  1  0  0  0  0
 24 23  2  0  0  0  0
 24 22  1  0  0  0  0
 25 24  1  0  0  0  0
 27 28  1  0  0  0  0
 27 31  1  0  0  0  0
 29 32  1  0  0  0  0
 30 28  1  6  0  0  0
 30 32  1  0  0  0  0
 30 39  1  0  0  0  0
 31 26  1  1  0  0  0
 31 29  1  0  0  0  0
 33 36  1  0  0  0  0
 34 41  2  0  0  0  0
 35 41  2  0  0  0  0
 38 33  1  0  0  0  0
 39 38  1  6  0  0  0
 39 40  1  0  0  0  0
 40 37  1  1  0  0  0
 40 36  1  0  0  0  0
 41 39  1  0  0  0  0
 41 37  1  0  0  0  0
M  END
>  <MODEL>
1

>  <REMARK>
 VINA RESULT:      -7.1      0.000      0.000
  Name = 
  15 active torsions:
  status: ('A' for Active; 'I' for Inactive)
    1  A    between atoms: C_1  and  C_19
    2  A    between atoms: C_1  and  C_29
    3  A    between atoms: C_3  and  C_17
    4  A    between atoms: C_7  and  N_8
    5  A    between atoms: N_8  and  C_10
    6  A    between atoms: N_8  and  C_26
    7  A    between atoms: C_10  and  C_25
    8  A    between atoms: C_12  and  N_15
    9  A    between atoms: C_12  and  C_28
   10  A    between atoms: C_17  and  C_40
   11  A    between atoms: C_19  and  C_28
   12  A    between atoms: C_20  and  C_32
   13  A    between atoms: C_25  and  C_29
   14  A    between atoms: C_26  and  C_32
   15  A    between atoms: C_27  and  C_33
                            x       y       z     vdW  Elec       q    Type
                         _______ _______ _______ _____ _____    ______ ____

>  <TORSDO>
F 15

$$$$
=
 OpenBabel11072413253D

 41 44  0  0  1  0  0  0  0  0999 V2000
  162.1630  209.6800  149.9160 C   0  0  0  0  0  3  0  0  0  0  0  0
  162.1300  209.1310  151.2070 C   0  0  0  0  0  0  0  0  0  0  0  0
  161.8880  209.2210  148.3920 C   0  0  0  0  0  2  0  0  0  0  0  0
  161.7070  207.6420  151.4530 C   0  0  1  0  0  3  0  0  0  0  0  0
  161.2130  207.9940  148.2510 N   0  0  0  0  0  2  0  0  0  0  0  0
  162.2680  206.9820  150.2570 N   0  0  0  0  0  2  0  0  0  0  0  0
  161.2890  206.8700  149.1440 C   0  0  0  0  0  0  0  0  0  0  0  0
  160.5130  205.9720  149.1450 O   0  0  0  0  0  0  0  0  0  0  0  0
  161.7370  206.5790  152.5750 N   0  0  0  0  0  0  0  0  0  0  0  0
  161.9330  205.2800  151.9370 C   0  0  0  0  0  2  0  0  0  0  0  0
  160.8610  204.3210  152.3970 C   0  0  0  0  0  2  0  0  0  0  0  0
  161.2840  203.0720  151.6050 C   0  0  0  0  0  2  0  0  0  0  0  0
  161.1020  203.2620  150.1530 C   0  0  0  0  0  2  0  0  0  0  0  0
  160.2160  202.1160  149.6730 C   0  0  0  0  0  2  0  0  0  0  0  0
  161.0960  200.9010  149.4610 C   0  0  0  0  0  2  0  0  0  0  0  0
  161.3640  200.6910  147.9610 C   0  0  0  0  0  2  0  0  0  0  0  0
  161.2960  201.8850  147.0890 N   0  0  0  0  0  2  0  0  0  0  0  0
  160.7380  202.0360  145.7710 C   0  0  0  0  0  0  0  0  0  0  0  0
  160.7510  203.2650  145.1410 O   0  0  0  0  0  0  0  0  0  0  0  0
  160.0970  201.0440  145.2150 O   0  0  0  0  0  1  0  0  0  0  0  0
  160.9100  206.5150  153.8270 C   0  0  0  0  0  3  0  0  0  0  0  0
  161.3700  207.1920  155.1650 C   0  0  0  0  0  3  0  0  0  0  0  0
  160.4700  208.1760  157.2590 N   0  0  0  0  0  2  0  0  0  0  0  0
  160.3250  207.3830  156.2390 C   0  0  0  0  0  0  0  0  0  0  0  0
  158.9610  206.9250  155.8960 C   0  0  0  0  0  1  0  0  0  0  0  0
  162.3660  210.1750  152.3110 C   0  0  0  0  0  2  0  0  0  0  0  0
  160.4410  211.4660  152.8660 O   0  0  0  0  0  0  0  0  0  0  0  0
  159.0750  211.2830  153.3080 C   0  0  0  0  0  2  0  0  0  0  0  0
  161.4600  210.8860  154.8430 C   0  0  0  0  0  2  0  0  0  0  0  0
  158.9390  211.0630  154.8520 C   0  0  1  0  0  3  0  0  0  0  0  0
  161.2250  210.4560  153.3490 C   0  0  2  0  0  3  0  0  0  0  0  0
  160.3010  211.1630  155.4560 C   0  0  0  0  0  2  0  0  0  0  0  0
  159.1730  214.3030  155.8030 N   0  0  0  0  0  2  0  0  0  0  0  0
  155.5330  213.0470  154.4190 O   0  0  0  0  0  0  0  0  0  0  0  0
  155.6890  210.9620  155.6700 O   0  0  0  0  0  0  0  0  0  0  0  0
  158.9460  213.7460  157.1330 C   0  0  0  0  0  2  0  0  0  0  0  0
  156.6250  212.9050  156.7980 C   0  0  0  0  0  2  0  0  0  0  0  0
  158.7910  213.5130  154.9120 N   0  0  0  0  0  2  0  0  0  0  0  0
  158.0700  212.2750  155.4970 C   0  0  2  0  0  0  0  0  0  0  0  0
  158.1500  212.7440  156.9050 C   0  0  1  0  0  3  0  0  0  0  0  0
  156.3790  212.1890  155.2540 S   0  0  0  0  0  0  0  0  0  0  0  0
  1  2  2  0  0  0  0
  2  4  1  0  0  0  0
  2 26  1  0  0  0  0
  3  1  1  0  0  0  0
  4  9  1  1  0  0  0
  5  3  1  0  0  0  0
  5  7  1  0  0  0  0
  6  4  1  0  0  0  0
  7  8  2  0  0  0  0
  7  6  1  0  0  0  0
  9 21  1  0  0  0  0
 10 11  1  0  0  0  0
 10  9  1  0  0  0  0
 12 11  1  0  0  0  0
 13 12  1  0  0  0  0
 14 13  1  0  0  0  0
 15 14  1  0  0  0  0
 16 15  1  0  0  0  0
 17 16  1  0  0  0  0
 18 17  1  0  0  0  0
 19 18  2  0  0  0  0
 20 18  1  0  0  0  0
 21 22  2  0  0  0  0
 22 24  1  0  0  0  0
 24 23  2  0  0  0  0
 25 24  1  0  0  0  0
 27 28  1  0  0  0  0
 27 31  1  0  0  0  0
 29 32  1  0  0  0  0
 30 28  1  6  0  0  0
 30 32  1  0  0  0  0
 30 39  1  0  0  0  0
 31 26  1  6  0  0  0
 31 29  1  0  0  0  0
 33 36  1  0  0  0  0
 34 41  2  0  0  0  0
 38 33  1  0  0  0  0
 39 38  1  6  0  0  0
 39 40  1  0  0  0  0
 40 37  1  6  0  0  0
 40 36  1  0  0  0  0
 41 39  1  0  0  0  0
 41 35  2  0  0  0  0
 41 37  1  0  0  0  0
M  END
>  <MODEL>
2

>  <REMARK>
 VINA RESULT:      -6.8      2.588      7.172
  Name = 
  15 active torsions:
  status: ('A' for Active; 'I' for Inactive)
    1  A    between atoms: C_1  and  C_19
    2  A    between atoms: C_1  and  C_29
    3  A    between atoms: C_3  and  C_17
    4  A    between atoms: C_7  and  N_8
    5  A    between atoms: N_8  and  C_10
    6  A    between atoms: N_8  and  C_26
    7  A    between atoms: C_10  and  C_25
    8  A    between atoms: C_12  and  N_15
    9  A    between atoms: C_12  and  C_28
   10  A    between atoms: C_17  and  C_40
   11  A    between atoms: C_19  and  C_28
   12  A    between atoms: C_20  and  C_32
   13  A    between atoms: C_25  and  C_29
   14  A    between atoms: C_26  and  C_32
   15  A    between atoms: C_27  and  C_33
                            x       y       z     vdW  Elec       q    Type
                         _______ _______ _______ _____ _____    ______ ____

>  <TORSDO>
F 15

$$$$
=
 OpenBabel11072413253D

 41 44  0  0  1  0  0  0  0  0999 V2000
  161.2160  204.2670  152.0190 C   0  0  0  0  0  3  0  0  0  0  0  0
  161.6510  205.0760  150.9570 C   0  0  0  0  0  0  0  0  0  0  0  0
  160.6390  202.7760  152.2550 C   0  0  0  0  0  2  0  0  0  0  0  0
  161.6740  204.5480  149.4820 C   0  0  1  0  0  3  0  0  0  0  0  0
  160.7820  201.9020  151.1600 N   0  0  0  0  0  2  0  0  0  0  0  0
  160.4750  203.6880  149.4650 N   0  0  0  0  0  2  0  0  0  0  0  0
  160.7780  202.2650  149.7690 C   0  0  0  0  0  0  0  0  0  0  0  0
  161.1670  201.5570  148.9010 O   0  0  0  0  0  0  0  0  0  0  0  0
  161.8270  205.0870  148.0410 N   0  0  0  0  0  0  0  0  0  0  0  0
  161.2470  206.4270  148.0140 C   0  0  0  0  0  2  0  0  0  0  0  0
  162.3430  207.4590  148.1280 C   0  0  0  0  0  2  0  0  0  0  0  0
  161.5220  208.6380  148.6760 C   0  0  0  0  0  2  0  0  0  0  0  0
  162.3610  209.8330  148.8900 C   0  0  0  0  0  2  0  0  0  0  0  0
  161.6060  211.0100  148.2800 C   0  0  0  0  0  2  0  0  0  0  0  0
  162.3970  212.2710  148.5630 C   0  0  0  0  0  2  0  0  0  0  0  0
  162.9300  212.8730  147.2520 C   0  0  0  0  0  2  0  0  0  0  0  0
  161.9530  213.0830  146.1600 N   0  0  0  0  0  2  0  0  0  0  0  0
  162.1670  213.2220  144.7430 C   0  0  0  0  0  0  0  0  0  0  0  0
  161.0960  213.3800  143.8850 O   0  0  0  0  0  0  0  0  0  0  0  0
  163.3640  213.0670  144.2450 O   0  0  0  0  0  1  0  0  0  0  0  0
  161.6830  204.3450  146.7430 C   0  0  0  0  0  2  0  0  0  0  0  0
  162.3010  204.8800  145.4050 C   0  0  0  0  0  2  0  0  0  0  0  0
  161.5260  205.6710  143.1830 N   0  0  0  0  0  2  0  0  0  0  0  0
  161.3850  205.6400  144.4740 C   0  0  0  0  0  0  0  0  0  0  0  0
  160.0820  206.0460  145.0470 C   0  0  0  0  0  1  0  0  0  0  0  0
  162.2510  206.4120  151.4260 C   0  0  0  0  0  2  0  0  0  0  0  0
  161.9970  208.5290  152.4910 O   0  0  0  0  0  0  0  0  0  0  0  0
  160.9640  209.4920  152.8080 C   0  0  0  0  0  2  0  0  0  0  0  0
  161.3680  206.9260  154.0130 C   0  0  0  0  0  2  0  0  0  0  0  0
  160.1520  209.1390  154.0990 C   0  0  1  0  0  3  0  0  0  0  0  0
  161.4700  207.2680  152.4820 C   0  0  2  0  0  3  0  0  0  0  0  0
  160.7320  207.8950  154.6860 C   0  0  0  0  0  2  0  0  0  0  0  0
  162.5690  210.7830  155.8050 N   0  0  0  0  0  2  0  0  0  0  0  0
  159.1730  212.8910  154.9330 O   0  0  0  0  0  0  0  0  0  0  0  0
  157.7540  211.0000  155.5240 O   0  0  0  0  0  0  0  0  0  0  0  0
  161.9590  210.1260  156.9570 C   0  0  0  0  0  2  0  0  0  0  0  0
  159.7400  211.2590  156.9050 C   0  0  0  0  0  2  0  0  0  0  0  0
  161.7790  210.8240  154.8370 N   0  0  0  0  0  2  0  0  0  0  0  0
  160.3700  210.3050  155.2100 C   0  0  2  0  0  0  0  0  0  0  0  0
  160.6980  210.0850  156.6420 C   0  0  1  0  0  3  0  0  0  0  0  0
  159.1260  211.4750  155.3140 S   0  0  0  0  0  0  0  0  0  0  0  0
  1  3  1  0  0  0  0
  2 26  1  0  0  0  0
  2  1  2  0  0  0  0
  4  9  1  6  0  0  0
  4  2  1  0  0  0  0
  5  3  1  0  0  0  0
  6  4  1  0  0  0  0
  6  7  1  0  0  0  0
  7  5  1  0  0  0  0
  8  7  2  0  0  0  0
 10  9  1  0  0  0  0
 10 11  1  0  0  0  0
 11 12  1  0  0  0  0
 12 13  1  0  0  0  0
 14 15  1  0  0  0  0
 14 13  1  0  0  0  0
 16 15  1  0  0  0  0
 17 16  1  0  0  0  0
 18 17  1  0  0  0  0
 19 18  2  0  0  0  0
 20 18  1  0  0  0  0
 21  9  1  0  0  0  0
 22 21  1  0  0  0  0
 23 24  2  0  0  0  0
 24 25  1  0  0  0  0
 24 22  1  0  0  0  0
 27 28  1  0  0  0  0
 29 32  1  0  0  0  0
 30 28  1  6  0  0  0
 30 32  1  0  0  0  0
 30 39  1  0  0  0  0
 31 26  1  6  0  0  0
 31 27  1  0  0  0  0
 31 29  1  0  0  0  0
 33 36  1  0  0  0  0
 34 41  2  0  0  0  0
 38 33  1  0  0  0  0
 39 38  1  6  0  0  0
 39 41  1  0  0  0  0
 39 40  1  0  0  0  0
 40 37  1  1  0  0  0
 40 36  1  0  0  0  0
 41 35  2  0  0  0  0
 41 37  1  0  0  0  0
M  END
>  <MODEL>
3

>  <REMARK>
 VINA RESULT:      -6.6      1.986      2.321
  Name = 
  15 active torsions:
  status: ('A' for Active; 'I' for Inactive)
    1  A    between atoms: C_1  and  C_19
    2  A    between atoms: C_1  and  C_29
    3  A    between atoms: C_3  and  C_17
    4  A    between atoms: C_7  and  N_8
    5  A    between atoms: N_8  and  C_10
    6  A    between atoms: N_8  and  C_26
    7  A    between atoms: C_10  and  C_25
    8  A    between atoms: C_12  and  N_15
    9  A    between atoms: C_12  and  C_28
   10  A    between atoms: C_17  and  C_40
   11  A    between atoms: C_19  and  C_28
   12  A    between atoms: C_20  and  C_32
   13  A    between atoms: C_25  and  C_29
   14  A    between atoms: C_26  and  C_32
   15  A    between atoms: C_27  and  C_33
                            x       y       z     vdW  Elec       q    Type
                         _______ _______ _______ _____ _____    ______ ____

>  <TORSDO>
F 15

$$$$
=
 OpenBabel11072413253D

 41 44  0  0  1  0  0  0  0  0999 V2000
  161.2790  206.9140  152.8410 C   0  0  0  0  0  3  0  0  0  0  0  0
  161.5510  207.8510  151.8320 C   0  0  0  0  0  0  0  0  0  0  0  0
  160.9930  205.3300  152.9850 C   0  0  0  0  0  2  0  0  0  0  0  0
  161.6680  207.4250  150.3290 C   0  0  1  0  0  3  0  0  0  0  0  0
  161.2940  204.5640  151.8430 N   0  0  0  0  0  2  0  0  0  0  0  0
  160.6510  206.3570  150.2520 N   0  0  0  0  0  2  0  0  0  0  0  0
  161.2170  205.0010  150.4750 C   0  0  0  0  0  0  0  0  0  0  0  0
  161.7290  204.4320  149.5690 O   0  0  0  0  0  0  0  0  0  0  0  0
  161.7120  208.0670  148.9230 N   0  0  0  0  0  0  0  0  0  0  0  0
  162.1790  207.0430  147.9920 C   0  0  0  0  0  2  0  0  0  0  0  0
  161.0810  206.7110  147.0090 C   0  0  0  0  0  2  0  0  0  0  0  0
  161.8070  205.6410  146.1750 C   0  0  0  0  0  2  0  0  0  0  0  0
  161.0970  205.3630  144.9120 C   0  0  0  0  0  2  0  0  0  0  0  0
  160.6960  203.8910  144.9530 C   0  0  0  0  0  2  0  0  0  0  0  0
  161.4690  203.2270  146.0750 C   0  0  0  0  0  2  0  0  0  0  0  0
  160.8690  201.8470  146.3920 C   0  0  0  0  0  2  0  0  0  0  0  0
  161.2620  201.2190  147.6740 N   0  0  0  0  0  2  0  0  0  0  0  0
  160.6360  201.2910  148.9680 C   0  0  0  0  0  0  0  0  0  0  0  0
  161.1570  200.5910  150.0390 O   0  0  0  0  0  1  0  0  0  0  0  0
  159.4950  201.9110  149.1080 O   0  0  0  0  0  0  0  0  0  0  0  0
  162.1290  209.4590  148.5420 C   0  0  0  0  0  2  0  0  0  0  0  0
  161.7970  210.7020  149.4380 C   0  0  0  0  0  2  0  0  0  0  0  0
  161.0040  213.0310  149.1080 N   0  0  0  0  0  2  0  0  0  0  0  0
  161.7940  212.0580  148.7690 C   0  0  0  0  0  0  0  0  0  0  0  0
  162.9910  212.3750  147.9590 C   0  0  0  0  0  1  0  0  0  0  0  0
  161.8910  209.2460  152.3830 C   0  0  0  0  0  2  0  0  0  0  0  0
  160.1520  210.7850  152.9230 O   0  0  0  0  0  0  0  0  0  0  0  0
  158.8920  210.8270  153.6340 C   0  0  0  0  0  2  0  0  0  0  0  0
  161.5150  210.6300  154.7670 C   0  0  0  0  0  2  0  0  0  0  0  0
  159.0510  211.0050  155.1810 C   0  0  1  0  0  3  0  0  0  0  0  0
  160.9820  209.8650  153.5010 C   0  0  2  0  0  3  0  0  0  0  0  0
  160.5060  211.1420  155.4850 C   0  0  0  0  0  2  0  0  0  0  0  0
  159.7870  214.2230  155.9300 N   0  0  0  0  0  2  0  0  0  0  0  0
  156.1370  213.5180  154.2220 O   0  0  0  0  0  0  0  0  0  0  0  0
  155.7730  211.5570  155.6220 O   0  0  0  0  0  0  0  0  0  0  0  0
  159.3270  213.8350  157.2600 C   0  0  0  0  0  2  0  0  0  0  0  0
  156.9360  213.3940  156.7160 C   0  0  0  0  0  2  0  0  0  0  0  0
  159.3570  213.4380  155.0560 N   0  0  0  0  0  2  0  0  0  0  0  0
  158.3630  212.4050  155.6370 C   0  0  2  0  0  0  0  0  0  0  0  0
  158.3860  212.9750  157.0090 C   0  0  1  0  0  3  0  0  0  0  0  0
  156.7190  212.6000  155.2070 S   0  0  0  0  0  0  0  0  0  0  0  0
  1  3  1  0  0  0  0
  2 26  1  0  0  0  0
  2  1  2  0  0  0  0
  4  9  1  6  0  0  0
  4  2  1  0  0  0  0
  5  3  1  0  0  0  0
  6  4  1  0  0  0  0
  6  7  1  0  0  0  0
  7  5  1  0  0  0  0
  8  7  2  0  0  0  0
 10  9  1  0  0  0  0
 11 10  1  0  0  0  0
 12 11  1  0  0  0  0
 13 14  1  0  0  0  0
 13 12  1  0  0  0  0
 14 15  1  0  0  0  0
 15 16  1  0  0  0  0
 16 17  1  0  0  0  0
 17 18  1  0  0  0  0
 18 20  2  0  0  0  0
 18 19  1  0  0  0  0
 21  9  1  0  0  0  0
 21 22  1  0  0  0  0
 24 23  2  0  0  0  0
 24 22  1  0  0  0  0
 25 24  1  0  0  0  0
 27 31  1  0  0  0  0
 27 28  1  0  0  0  0
 29 32  1  0  0  0  0
 30 28  1  6  0  0  0
 30 32  1  0  0  0  0
 30 39  1  0  0  0  0
 31 26  1  6  0  0  0
 31 29  1  0  0  0  0
 33 36  1  0  0  0  0
 34 41  2  0  0  0  0
 38 33  1  0  0  0  0
 39 38  1  6  0  0  0
 39 40  1  0  0  0  0
 40 37  1  6  0  0  0
 40 36  1  0  0  0  0
 41 35  2  0  0  0  0
 41 39  1  0  0  0  0
 41 37  1  0  0  0  0
M  END
>  <MODEL>
4

>  <REMARK>
 VINA RESULT:      -6.4      2.082      6.037
  Name = 
  15 active torsions:
  status: ('A' for Active; 'I' for Inactive)
    1  A    between atoms: C_1  and  C_19
    2  A    between atoms: C_1  and  C_29
    3  A    between atoms: C_3  and  C_17
    4  A    between atoms: C_7  and  N_8
    5  A    between atoms: N_8  and  C_10
    6  A    between atoms: N_8  and  C_26
    7  A    between atoms: C_10  and  C_25
    8  A    between atoms: C_12  and  N_15
    9  A    between atoms: C_12  and  C_28
   10  A    between atoms: C_17  and  C_40
   11  A    between atoms: C_19  and  C_28
   12  A    between atoms: C_20  and  C_32
   13  A    between atoms: C_25  and  C_29
   14  A    between atoms: C_26  and  C_32
   15  A    between atoms: C_27  and  C_33
                            x       y       z     vdW  Elec       q    Type
                         _______ _______ _______ _____ _____    ______ ____

>  <TORSDO>
F 15

$$$$
=
 OpenBabel11072413253D

 41 44  0  0  1  0  0  0  0  0999 V2000
  161.4340  206.4820  152.8050 C   0  0  0  0  0  3  0  0  0  0  0  0
  161.8000  207.0820  151.5900 C   0  0  0  0  0  0  0  0  0  0  0  0
  160.8430  205.0760  153.3370 C   0  0  0  0  0  2  0  0  0  0  0  0
  161.6900  206.3110  150.2300 C   0  0  1  0  0  3  0  0  0  0  0  0
  160.8770  204.0230  152.4020 N   0  0  0  0  0  2  0  0  0  0  0  0
  160.4730  205.5050  150.4530 N   0  0  0  0  0  2  0  0  0  0  0  0
  160.7670  204.1440  150.9740 C   0  0  0  0  0  0  0  0  0  0  0  0
  161.0680  203.2860  150.2130 O   0  0  0  0  0  0  0  0  0  0  0  0
  161.7370  206.5920  148.7100 N   0  0  0  0  0  0  0  0  0  0  0  0
  161.2070  207.9360  148.4990 C   0  0  0  0  0  2  0  0  0  0  0  0
  162.3470  208.9180  148.3690 C   0  0  0  0  0  2  0  0  0  0  0  0
  161.5900  210.2220  148.6720 C   0  0  0  0  0  2  0  0  0  0  0  0
  162.3540  211.4080  148.2400 C   0  0  0  0  0  2  0  0  0  0  0  0
  161.5220  212.6270  148.6260 C   0  0  0  0  0  2  0  0  0  0  0  0
  161.9970  213.8000  147.7920 C   0  0  0  0  0  2  0  0  0  0  0  0
  161.2110  213.8690  146.4710 C   0  0  0  0  0  2  0  0  0  0  0  0
  161.9440  213.5290  145.2310 N   0  0  0  0  0  2  0  0  0  0  0  0
  161.5310  212.7400  144.1010 C   0  0  0  0  0  0  0  0  0  0  0  0
  162.3720  212.5730  143.0180 O   0  0  0  0  0  0  0  0  0  0  0  0
  160.3090  212.2870  144.0320 O   0  0  0  0  0  1  0  0  0  0  0  0
  161.4540  205.6500  147.5750 C   0  0  0  0  0  2  0  0  0  0  0  0
  160.7810  206.1310  146.2420 C   0  0  0  0  0  2  0  0  0  0  0  0
  161.3170  205.7600  143.8470 N   0  0  0  0  0  2  0  0  0  0  0  0
  160.9960  205.2810  145.0110 C   0  0  0  0  0  0  0  0  0  0  0  0
  161.2050  203.8370  145.2570 C   0  0  0  0  0  1  0  0  0  0  0  0
  162.4660  208.4550  151.7740 C   0  0  0  0  0  2  0  0  0  0  0  0
  161.6870  209.5130  153.7630 O   0  0  0  0  0  0  0  0  0  0  0  0
  161.6320  210.8250  154.3710 C   0  0  0  0  0  2  0  0  0  0  0  0
  160.1080  209.8850  152.1360 C   0  0  0  0  0  2  0  0  0  0  0  0
  160.4430  211.7050  153.8560 C   0  0  1  0  0  3  0  0  0  0  0  0
  161.6350  209.6270  152.4020 C   0  0  2  0  0  3  0  0  0  0  0  0
  159.6460  210.8890  152.8940 C   0  0  0  0  0  2  0  0  0  0  0  0
  158.9260  214.2860  155.4360 N   0  0  0  0  0  2  0  0  0  0  0  0
  156.9290  210.7140  155.4060 O   0  0  0  0  0  0  0  0  0  0  0  0
  158.9730  209.4790  155.8880 O   0  0  0  0  0  0  0  0  0  0  0  0
  159.7860  213.8840  156.5440 C   0  0  0  0  0  2  0  0  0  0  0  0
  158.8000  211.6400  156.9920 C   0  0  0  0  0  2  0  0  0  0  0  0
  158.7890  213.3560  154.6100 N   0  0  0  0  0  2  0  0  0  0  0  0
  159.4460  212.0420  155.0950 C   0  0  2  0  0  0  0  0  0  0  0  0
  159.8580  212.5930  156.4120 C   0  0  1  0  0  3  0  0  0  0  0  0
  158.3860  210.7830  155.5600 S   0  0  0  0  0  0  0  0  0  0  0  0
  1  3  1  0  0  0  0
  2 26  1  0  0  0  0
  2  1  2  0  0  0  0
  4  9  1  6  0  0  0
  4  6  1  0  0  0  0
  4  2  1  0  0  0  0
  5  3  1  0  0  0  0
  6  7  1  0  0  0  0
  7  5  1  0  0  0  0
  8  7  2  0  0  0  0
 10  9  1  0  0  0  0
 11 10  1  0  0  0  0
 11 12  1  0  0  0  0
 13 14  1  0  0  0  0
 13 12  1  0  0  0  0
 15 14  1  0  0  0  0
 16 15  1  0  0  0  0
 17 16  1  0  0  0  0
 18 17  1  0  0  0  0
 19 18  2  0  0  0  0
 20 18  1  0  0  0  0
 21  9  1  0  0  0  0
 22 21  1  0  0  0  0
 23 24  2  0  0  0  0
 24 25  1  0  0  0  0
 24 22  1  0  0  0  0
 27 28  1  0  0  0  0
 29 31  1  0  0  0  0
 29 32  1  0  0  0  0
 30 32  1  6  0  0  0
 30 28  1  0  0  0  0
 30 39  1  0  0  0  0
 31 26  1  6  0  0  0
 31 27  1  0  0  0  0
 33 36  1  0  0  0  0
 34 41  2  0  0  0  0
 38 33  1  0  0  0  0
 39 38  1  6  0  0  0
 39 41  1  0  0  0  0
 39 40  1  0  0  0  0
 40 36  1  6  0  0  0
 40 37  1  0  0  0  0
 41 35  2  0  0  0  0
 41 37  1  0  0  0  0
M  END
>  <MODEL>
5

>  <REMARK>
 VINA RESULT:      -6.1      2.508      3.046
  Name = 
  15 active torsions:
  status: ('A' for Active; 'I' for Inactive)
    1  A    between atoms: C_1  and  C_19
    2  A    between atoms: C_1  and  C_29
    3  A    between atoms: C_3  and  C_17
    4  A    between atoms: C_7  and  N_8
    5  A    between atoms: N_8  and  C_10
    6  A    between atoms: N_8  and  C_26
    7  A    between atoms: C_10  and  C_25
    8  A    between atoms: C_12  and  N_15
    9  A    between atoms: C_12  and  C_28
   10  A    between atoms: C_17  and  C_40
   11  A    between atoms: C_19  and  C_28
   12  A    between atoms: C_20  and  C_32
   13  A    between atoms: C_25  and  C_29
   14  A    between atoms: C_26  and  C_32
   15  A    between atoms: C_27  and  C_33
                            x       y       z     vdW  Elec       q    Type
                         _______ _______ _______ _____ _____    ______ ____

>  <TORSDO>
F 15

$$$$
=
 OpenBabel11072413253D

 41 44  0  0  1  0  0  0  0  0999 V2000
  161.4250  204.7780  152.6290 C   0  0  0  0  0  3  0  0  0  0  0  0
  161.7040  205.9520  151.9110 C   0  0  0  0  0  0  0  0  0  0  0  0
  160.8490  203.2940  152.3580 C   0  0  0  0  0  2  0  0  0  0  0  0
  161.4660  206.0400  150.3640 C   0  0  1  0  0  3  0  0  0  0  0  0
  160.7820  202.9190  151.0030 N   0  0  0  0  0  2  0  0  0  0  0  0
  160.2540  205.2110  150.2110 N   0  0  0  0  0  2  0  0  0  0  0  0
  160.5590  203.7940  149.8840 C   0  0  0  0  0  0  0  0  0  0  0  0
  160.7770  203.4940  148.7570 O   0  0  0  0  0  0  0  0  0  0  0  0
  161.3960  207.1020  149.2430 N   0  0  0  0  0  0  0  0  0  0  0  0
  161.1920  206.3910  147.9830 C   0  0  0  0  0  2  0  0  0  0  0  0
  162.3900  206.5910  147.0860 C   0  0  0  0  0  2  0  0  0  0  0  0
  162.4230  205.2140  146.4010 C   0  0  0  0  0  2  0  0  0  0  0  0
  161.9730  205.2950  144.9980 C   0  0  0  0  0  2  0  0  0  0  0  0
  160.8320  204.2930  144.8480 C   0  0  0  0  0  2  0  0  0  0  0  0
  161.2660  202.9900  145.4880 C   0  0  0  0  0  2  0  0  0  0  0  0
  160.1110  201.9750  145.4700 C   0  0  0  0  0  2  0  0  0  0  0  0
  160.4600  200.5600  145.2050 N   0  0  0  0  0  2  0  0  0  0  0  0
  161.1990  199.6250  146.0100 C   0  0  0  0  0  0  0  0  0  0  0  0
  161.3850  198.3250  145.5830 O   0  0  0  0  0  0  0  0  0  0  0  0
  161.5850  199.9600  147.2120 O   0  0  0  0  0  1  0  0  0  0  0  0
  162.1970  208.3640  149.0960 C   0  0  0  0  0  2  0  0  0  0  0  0
  161.5760  209.6810  148.5120 C   0  0  0  0  0  2  0  0  0  0  0  0
  163.1270  211.5800  148.1220 N   0  0  0  0  0  2  0  0  0  0  0  0
  162.2500  210.9840  148.8730 C   0  0  0  0  0  0  0  0  0  0  0  0
  161.5990  211.7670  149.9460 C   0  0  0  0  0  1  0  0  0  0  0  0
  162.4140  207.0210  152.7570 C   0  0  0  0  0  2  0  0  0  0  0  0
  161.4210  208.6200  154.2200 O   0  0  0  0  0  0  0  0  0  0  0  0
  161.5260  210.0220  154.5630 C   0  0  0  0  0  2  0  0  0  0  0  0
  160.4570  208.9030  152.1530 C   0  0  0  0  0  2  0  0  0  0  0  0
  160.7590  210.9670  153.5780 C   0  0  1  0  0  3  0  0  0  0  0  0
  161.7540  208.4350  152.9070 C   0  0  2  0  0  3  0  0  0  0  0  0
  160.0680  210.1170  152.5640 C   0  0  0  0  0  2  0  0  0  0  0  0
  159.7920  211.8370  156.7030 N   0  0  0  0  0  2  0  0  0  0  0  0
  158.7870  214.4070  153.6820 O   0  0  0  0  0  0  0  0  0  0  0  0
  158.1390  212.5640  152.2250 O   0  0  0  0  0  0  0  0  0  0  0  0
  158.6750  210.9410  156.4180 C   0  0  0  0  0  2  0  0  0  0  0  0
  157.6100  212.2420  154.5780 C   0  0  0  0  0  2  0  0  0  0  0  0
  160.3440  212.2210  155.6490 N   0  0  0  0  0  2  0  0  0  0  0  0
  159.5850  211.7490  154.3860 C   0  0  2  0  0  0  0  0  0  0  0  0
  158.4800  211.1060  155.1430 C   0  0  1  0  0  3  0  0  0  0  0  0
  158.7490  212.9510  153.5020 S   0  0  0  0  0  0  0  0  0  0  0  0
  2  1  2  0  0  0  0
  2 26  1  0  0  0  0
  3  1  1  0  0  0  0
  4  9  1  1  0  0  0
  4  2  1  0  0  0  0
  5  3  1  0  0  0  0
  6  4  1  0  0  0  0
  7  6  1  0  0  0  0
  7  5  1  0  0  0  0
  8  7  2  0  0  0  0
 10  9  1  0  0  0  0
 11 10  1  0  0  0  0
 12 11  1  0  0  0  0
 13 12  1  0  0  0  0
 14 13  1  0  0  0  0
 14 15  1  0  0  0  0
 16 15  1  0  0  0  0
 17 16  1  0  0  0  0
 17 18  1  0  0  0  0
 18 20  1  0  0  0  0
 19 18  2  0  0  0  0
 21  9  1  0  0  0  0
 22 24  1  0  0  0  0
 22 21  1  0  0  0  0
 23 24  2  0  0  0  0
 24 25  1  0  0  0  0
 27 28  1  0  0  0  0
 29 32  1  0  0  0  0
 29 31  1  0  0  0  0
 30 32  1  6  0  0  0
 30 39  1  0  0  0  0
 30 28  1  0  0  0  0
 31 26  1  1  0  0  0
 31 27  1  0  0  0  0
 35 41  2  0  0  0  0
 36 33  1  0  0  0  0
 38 33  1  0  0  0  0
 39 40  1  0  0  0  0
 39 38  1  1  0  0  0
 40 37  1  1  0  0  0
 40 36  1  0  0  0  0
 41 34  2  0  0  0  0
 41 39  1  0  0  0  0
 41 37  1  0  0  0  0
M  END
>  <MODEL>
6

>  <REMARK>
 VINA RESULT:      -6.0      1.965      6.160
  Name = 
  15 active torsions:
  status: ('A' for Active; 'I' for Inactive)
    1  A    between atoms: C_1  and  C_19
    2  A    between atoms: C_1  and  C_29
    3  A    between atoms: C_3  and  C_17
    4  A    between atoms: C_7  and  N_8
    5  A    between atoms: N_8  and  C_10
    6  A    between atoms: N_8  and  C_26
    7  A    between atoms: C_10  and  C_25
    8  A    between atoms: C_12  and  N_15
    9  A    between atoms: C_12  and  C_28
   10  A    between atoms: C_17  and  C_40
   11  A    between atoms: C_19  and  C_28
   12  A    between atoms: C_20  and  C_32
   13  A    between atoms: C_25  and  C_29
   14  A    between atoms: C_26  and  C_32
   15  A    between atoms: C_27  and  C_33
                            x       y       z     vdW  Elec       q    Type
                         _______ _______ _______ _____ _____    ______ ____

>  <TORSDO>
F 15

$$$$
=
 OpenBabel11072413253D

 41 44  0  0  1  0  0  0  0  0999 V2000
  161.1030  206.1660  152.9230 C   0  0  0  0  0  3  0  0  0  0  0  0
  161.4800  207.2090  152.0630 C   0  0  0  0  0  0  0  0  0  0  0  0
  160.7900  204.5830  152.8510 C   0  0  0  0  0  2  0  0  0  0  0  0
  161.7390  206.9590  150.5380 C   0  0  1  0  0  3  0  0  0  0  0  0
  161.1950  203.9490  151.6610 N   0  0  0  0  0  2  0  0  0  0  0  0
  160.7250  205.9280  150.2380 N   0  0  0  0  0  2  0  0  0  0  0  0
  161.2550  204.5440  150.3530 C   0  0  0  0  0  0  0  0  0  0  0  0
  161.8490  204.0740  149.4400 O   0  0  0  0  0  0  0  0  0  0  0  0
  161.9260  207.7590  149.2280 N   0  0  0  0  0  0  0  0  0  0  0  0
  161.8820  209.1770  149.5750 C   0  0  0  0  0  2  0  0  0  0  0  0
  162.2820  210.0070  148.3790 C   0  0  0  0  0  2  0  0  0  0  0  0
  161.9570  211.4070  148.9250 C   0  0  0  0  0  2  0  0  0  0  0  0
  162.7400  212.4530  148.2380 C   0  0  0  0  0  2  0  0  0  0  0  0
  161.9770  212.8020  146.9630 C   0  0  0  0  0  2  0  0  0  0  0  0
  161.2640  214.1190  147.1900 C   0  0  0  0  0  2  0  0  0  0  0  0
  159.7600  213.9690  146.9050 C   0  0  0  0  0  2  0  0  0  0  0  0
  158.8730  213.7400  148.0680 N   0  0  0  0  0  2  0  0  0  0  0  0
  157.6100  213.0540  148.1440 C   0  0  0  0  0  0  0  0  0  0  0  0
  156.9540  212.9250  149.3530 O   0  0  0  0  0  1  0  0  0  0  0  0
  157.1390  212.4340  147.0960 O   0  0  0  0  0  0  0  0  0  0  0  0
  161.3800  207.4590  147.8610 C   0  0  0  0  0  2  0  0  0  0  0  0
  162.0190  206.3710  146.9300 C   0  0  0  0  0  2  0  0  0  0  0  0
  160.2070  206.1670  145.2460 N   0  0  0  0  0  2  0  0  0  0  0  0
  161.0880  205.6060  146.0180 C   0  0  0  0  0  0  0  0  0  0  0  0
  161.4690  204.2030  145.7440 C   0  0  0  0  0  1  0  0  0  0  0  0
  161.7760  208.5230  152.8040 C   0  0  0  0  0  2  0  0  0  0  0  0
  160.6500  210.5420  153.3860 O   0  0  0  0  0  0  0  0  0  0  0  0
  159.3080  211.0760  153.4730 C   0  0  0  0  0  2  0  0  0  0  0  0
  160.5220  209.1470  155.2070 C   0  0  0  0  0  2  0  0  0  0  0  0
  158.5660  210.6930  154.7980 C   0  0  1  0  0  3  0  0  0  0  0  0
  160.6350  209.1990  153.6400 C   0  0  2  0  0  3  0  0  0  0  0  0
  159.5090  209.9070  155.6460 C   0  0  0  0  0  2  0  0  0  0  0  0
  159.8510  213.7120  155.6330 N   0  0  0  0  0  2  0  0  0  0  0  0
  155.7840  213.4860  155.2410 O   0  0  0  0  0  0  0  0  0  0  0  0
  155.7100  211.3570  156.4250 O   0  0  0  0  0  0  0  0  0  0  0  0
  159.8300  213.1510  156.9810 C   0  0  0  0  0  2  0  0  0  0  0  0
  157.3630  212.9350  157.2600 C   0  0  0  0  0  2  0  0  0  0  0  0
  159.0690  213.0950  154.8760 N   0  0  0  0  0  2  0  0  0  0  0  0
  158.2260  212.0440  155.6360 C   0  0  2  0  0  0  0  0  0  0  0  0
  158.7740  212.3940  156.9720 C   0  0  1  0  0  3  0  0  0  0  0  0
  156.5640  212.3950  155.8370 S   0  0  0  0  0  0  0  0  0  0  0  0
  2 26  1  0  0  0  0
  2  1  2  0  0  0  0
  3  1  1  0  0  0  0
  4  9  1  6  0  0  0
  4  2  1  0  0  0  0
  5  3  1  0  0  0  0
  6  7  1  0  0  0  0
  6  4  1  0  0  0  0
  7  5  1  0  0  0  0
  8  7  2  0  0  0  0
  9 10  1  0  0  0  0
 11 12  1  0  0  0  0
 11 10  1  0  0  0  0
 13 12  1  0  0  0  0
 14 15  1  0  0  0  0
 14 13  1  0  0  0  0
 16 15  1  0  0  0  0
 16 17  1  0  0  0  0
 17 18  1  0  0  0  0
 18 19  1  0  0  0  0
 20 18  2  0  0  0  0
 21  9  1  0  0  0  0
 22 21  1  0  0  0  0
 23 24  2  0  0  0  0
 24 22  1  0  0  0  0
 25 24  1  0  0  0  0
 27 28  1  0  0  0  0
 27 31  1  0  0  0  0
 29 32  1  0  0  0  0
 30 28  1  6  0  0  0
 30 39  1  0  0  0  0
 30 32  1  0  0  0  0
 31 26  1  1  0  0  0
 31 29  1  0  0  0  0
 33 36  1  0  0  0  0
 34 41  2  0  0  0  0
 38 33  1  0  0  0  0
 39 38  1  6  0  0  0
 39 41  1  0  0  0  0
 39 40  1  0  0  0  0
 40 36  1  6  0  0  0
 40 37  1  0  0  0  0
 41 35  2  0  0  0  0
 41 37  1  0  0  0  0
M  END
>  <MODEL>
7

>  <REMARK>
 VINA RESULT:      -5.9      1.864      2.364
  Name = 
  15 active torsions:
  status: ('A' for Active; 'I' for Inactive)
    1  A    between atoms: C_1  and  C_19
    2  A    between atoms: C_1  and  C_29
    3  A    between atoms: C_3  and  C_17
    4  A    between atoms: C_7  and  N_8
    5  A    between atoms: N_8  and  C_10
    6  A    between atoms: N_8  and  C_26
    7  A    between atoms: C_10  and  C_25
    8  A    between atoms: C_12  and  N_15
    9  A    between atoms: C_12  and  C_28
   10  A    between atoms: C_17  and  C_40
   11  A    between atoms: C_19  and  C_28
   12  A    between atoms: C_20  and  C_32
   13  A    between atoms: C_25  and  C_29
   14  A    between atoms: C_26  and  C_32
   15  A    between atoms: C_27  and  C_33
                            x       y       z     vdW  Elec       q    Type
                         _______ _______ _______ _____ _____    ______ ____

>  <TORSDO>
F 15

$$$$
=
 OpenBabel11072413253D

 41 44  0  0  1  0  0  0  0  0999 V2000
  161.1430  203.7920  151.8580 C   0  0  0  0  0  3  0  0  0  0  0  0
  161.6310  204.6960  150.9010 C   0  0  0  0  0  0  0  0  0  0  0  0
  160.5080  202.3080  151.9170 C   0  0  0  0  0  2  0  0  0  0  0  0
  161.6680  204.3320  149.3770 C   0  0  1  0  0  3  0  0  0  0  0  0
  160.6440  201.5540  150.7360 N   0  0  0  0  0  2  0  0  0  0  0  0
  160.4390  203.5250  149.2420 N   0  0  0  0  0  2  0  0  0  0  0  0
  160.6840  202.0670  149.3940 C   0  0  0  0  0  0  0  0  0  0  0  0
  161.0670  201.4450  148.4600 O   0  0  0  0  0  0  0  0  0  0  0  0
  161.8730  205.0200  148.0070 N   0  0  0  0  0  0  0  0  0  0  0  0
  160.7960  205.9930  147.8440 C   0  0  0  0  0  2  0  0  0  0  0  0
  161.3760  207.3370  147.4730 C   0  0  0  0  0  2  0  0  0  0  0  0
  161.2520  208.0460  148.8320 C   0  0  0  0  0  2  0  0  0  0  0  0
  162.4560  208.8420  149.1420 C   0  0  0  0  0  2  0  0  0  0  0  0
  161.9680  210.2330  149.5350 C   0  0  0  0  0  2  0  0  0  0  0  0
  161.8990  211.0780  148.2790 C   0  0  0  0  0  2  0  0  0  0  0  0
  161.5050  212.5230  148.6280 C   0  0  0  0  0  2  0  0  0  0  0  0
  160.3130  213.0810  147.9490 N   0  0  0  0  0  2  0  0  0  0  0  0
  159.0440  213.4840  148.4950 C   0  0  0  0  0  0  0  0  0  0  0  0
  158.0670  214.0160  147.6780 O   0  0  0  0  0  0  0  0  0  0  0  0
  158.8560  213.4730  149.7870 O   0  0  0  0  0  1  0  0  0  0  0  0
  162.3330  204.4110  146.7130 C   0  0  0  0  0  2  0  0  0  0  0  0
  161.3930  203.5140  145.8350 C   0  0  0  0  0  2  0  0  0  0  0  0
  161.0480  205.2340  144.0780 N   0  0  0  0  0  2  0  0  0  0  0  0
  160.6180  204.1950  144.7300 C   0  0  0  0  0  0  0  0  0  0  0  0
  159.5090  203.4100  144.1460 C   0  0  0  0  0  1  0  0  0  0  0  0
  162.2670  205.9480  151.5250 C   0  0  0  0  0  2  0  0  0  0  0  0
  161.9210  208.1190  152.4470 O   0  0  0  0  0  0  0  0  0  0  0  0
  160.8640  209.0920  152.6220 C   0  0  0  0  0  2  0  0  0  0  0  0
  161.1680  206.5980  153.9970 C   0  0  0  0  0  2  0  0  0  0  0  0
  159.9470  208.8060  153.8580 C   0  0  1  0  0  3  0  0  0  0  0  0
  161.3990  206.8560  152.4630 C   0  0  2  0  0  3  0  0  0  0  0  0
  160.4770  207.5990  154.5580 C   0  0  0  0  0  2  0  0  0  0  0  0
  158.1470  210.5720  156.1160 N   0  0  0  0  0  2  0  0  0  0  0  0
  162.1380  210.1140  156.8940 O   0  0  0  0  0  0  0  0  0  0  0  0
  162.7210  210.5490  154.5680 O   0  0  0  0  0  0  0  0  0  0  0  0
  158.3760  211.6680  155.1790 C   0  0  0  0  0  2  0  0  0  0  0  0
  160.8500  211.8540  155.4150 C   0  0  0  0  0  2  0  0  0  0  0  0
  158.9800  209.6540  155.9500 N   0  0  0  0  0  2  0  0  0  0  0  0
  160.0690  210.0320  154.9170 C   0  0  2  0  0  0  0  0  0  0  0  0
  159.5600  211.4120  154.7060 C   0  0  1  0  0  3  0  0  0  0  0  0
  161.6370  210.3300  155.5320 S   0  0  0  0  0  0  0  0  0  0  0  0
  1  3  1  0  0  0  0
  2 26  1  0  0  0  0
  2  1  2  0  0  0  0
  4  9  1  6  0  0  0
  4  2  1  0  0  0  0
  5  3  1  0  0  0  0
  6  4  1  0  0  0  0
  6  7  1  0  0  0  0
  7  5  1  0  0  0  0
  8  7  2  0  0  0  0
 10  9  1  0  0  0  0
 11 10  1  0  0  0  0
 11 12  1  0  0  0  0
 12 13  1  0  0  0  0
 13 14  1  0  0  0  0
 15 16  1  0  0  0  0
 15 14  1  0  0  0  0
 17 18  1  0  0  0  0
 17 16  1  0  0  0  0
 18 20  1  0  0  0  0
 19 18  2  0  0  0  0
 21  9  1  0  0  0  0
 22 21  1  0  0  0  0
 23 24  2  0  0  0  0
 24 22  1  0  0  0  0
 25 24  1  0  0  0  0
 27 31  1  0  0  0  0
 27 28  1  0  0  0  0
 29 32  1  0  0  0  0
 30 28  1  6  0  0  0
 30 32  1  0  0  0  0
 30 39  1  0  0  0  0
 31 26  1  1  0  0  0
 31 29  1  0  0  0  0
 35 41  2  0  0  0  0
 36 33  1  0  0  0  0
 37 41  1  0  0  0  0
 38 33  1  0  0  0  0
 39 41  1  0  0  0  0
 39 38  1  1  0  0  0
 40 39  1  0  0  0  0
 40 36  1  1  0  0  0
 40 37  1  0  0  0  0
 41 34  2  0  0  0  0
M  END
>  <MODEL>
8

>  <REMARK>
 VINA RESULT:      -5.8      1.741      2.127
  Name = 
  15 active torsions:
  status: ('A' for Active; 'I' for Inactive)
    1  A    between atoms: C_1  and  C_19
    2  A    between atoms: C_1  and  C_29
    3  A    between atoms: C_3  and  C_17
    4  A    between atoms: C_7  and  N_8
    5  A    between atoms: N_8  and  C_10
    6  A    between atoms: N_8  and  C_26
    7  A    between atoms: C_10  and  C_25
    8  A    between atoms: C_12  and  N_15
    9  A    between atoms: C_12  and  C_28
   10  A    between atoms: C_17  and  C_40
   11  A    between atoms: C_19  and  C_28
   12  A    between atoms: C_20  and  C_32
   13  A    between atoms: C_25  and  C_29
   14  A    between atoms: C_26  and  C_32
   15  A    between atoms: C_27  and  C_33
                            x       y       z     vdW  Elec       q    Type
                         _______ _______ _______ _____ _____    ______ ____

>  <TORSDO>
F 15

$$$$
=
 OpenBabel11072413253D

 41 44  0  0  1  0  0  0  0  0999 V2000
  161.5180  203.4700  151.6550 C   0  0  0  0  0  3  0  0  0  0  0  0
  161.6340  204.5060  150.7140 C   0  0  0  0  0  0  0  0  0  0  0  0
  161.0400  201.9280  151.7140 C   0  0  0  0  0  2  0  0  0  0  0  0
  161.2470  204.2920  149.2110 C   0  0  1  0  0  3  0  0  0  0  0  0
  160.8770  201.3060  150.4620 N   0  0  0  0  0  2  0  0  0  0  0  0
  160.0950  203.3760  149.3370 N   0  0  0  0  0  2  0  0  0  0  0  0
  160.4810  201.9440  149.2350 C   0  0  0  0  0  0  0  0  0  0  0  0
  160.6160  201.4560  148.1630 O   0  0  0  0  0  0  0  0  0  0  0  0
  160.9870  205.1220  147.9320 N   0  0  0  0  0  0  0  0  0  0  0  0
  162.0510  204.8040  146.9840 C   0  0  0  0  0  2  0  0  0  0  0  0
  161.5630  203.7680  146.0000 C   0  0  0  0  0  2  0  0  0  0  0  0
  160.9470  204.6980  144.9420 C   0  0  0  0  0  2  0  0  0  0  0  0
  161.9840  205.4550  144.2140 C   0  0  0  0  0  2  0  0  0  0  0  0
  161.3790  205.8350  142.8660 C   0  0  0  0  0  2  0  0  0  0  0  0
  162.5080  206.2730  141.9540 C   0  0  0  0  0  2  0  0  0  0  0  0
  161.9680  206.5860  140.5480 C   0  0  0  0  0  3  0  0  0  0  0  0
  162.1620  207.9640  140.0430 N   0  0  0  0  0  0  0  0  0  0  0  0
  161.5840  208.6180  138.8990 C   0  0  0  0  0  0  0  0  0  0  0  0
  161.8790  209.9390  138.6230 O   0  0  0  0  0  1  0  0  0  0  0  0
  160.6710  208.0090  138.1910 O   0  0  0  0  0  0  0  0  0  0  0  0
  160.4830  206.5330  147.8180 C   0  0  0  0  0  2  0  0  0  0  0  0
  160.7750  207.6130  148.9170 C   0  0  0  0  0  2  0  0  0  0  0  0
  163.1550  207.9090  148.2760 N   0  0  0  0  0  2  0  0  0  0  0  0
  162.0670  208.3890  148.7990 C   0  0  0  0  0  0  0  0  0  0  0  0
  161.9500  209.8560  148.9540 C   0  0  0  0  0  1  0  0  0  0  0  0
  162.3320  205.7540  151.2770 C   0  0  0  0  0  2  0  0  0  0  0  0
  162.0790  207.9330  152.2110 O   0  0  0  0  0  0  0  0  0  0  0  0
  161.0450  208.9100  152.4760 C   0  0  0  0  0  2  0  0  0  0  0  0
  161.4660  206.4250  153.8340 C   0  0  0  0  0  2  0  0  0  0  0  0
  160.2440  208.6350  153.7920 C   0  0  1  0  0  3  0  0  0  0  0  0
  161.5560  206.6720  152.2840 C   0  0  2  0  0  3  0  0  0  0  0  0
  160.8320  207.4320  154.4500 C   0  0  0  0  0  2  0  0  0  0  0  0
  162.6670  210.5110  155.2300 N   0  0  0  0  0  2  0  0  0  0  0  0
  159.0850  212.3580  154.5210 O   0  0  0  0  0  0  0  0  0  0  0  0
  157.8400  210.4160  155.3070 O   0  0  0  0  0  0  0  0  0  0  0  0
  162.1870  209.8770  156.4540 C   0  0  0  0  0  2  0  0  0  0  0  0
  159.9010  210.8680  156.5190 C   0  0  0  0  0  2  0  0  0  0  0  0
  161.8070  210.4530  154.3240 N   0  0  0  0  0  2  0  0  0  0  0  0
  160.4660  209.8680  154.8270 C   0  0  2  0  0  0  0  0  0  0  0  0
  160.9120  209.7430  156.2390 C   0  0  1  0  0  3  0  0  0  0  0  0
  159.1590  210.9630  154.9700 S   0  0  0  0  0  0  0  0  0  0  0  0
  1  3  1  0  0  0  0
  2 26  1  0  0  0  0
  2  1  2  0  0  0  0
  4  9  1  1  0  0  0
  4  6  1  0  0  0  0
  4  2  1  0  0  0  0
  5  3  1  0  0  0  0
  7  6  1  0  0  0  0
  7  5  1  0  0  0  0
  8  7  2  0  0  0  0
 10  9  1  0  0  0  0
 11 10  1  0  0  0  0
 12 11  1  0  0  0  0
 13 12  1  0  0  0  0
 14 13  1  0  0  0  0
 15 14  1  0  0  0  0
 16 15  1  0  0  0  0
 17 16  2  0  0  0  0
 18 17  1  0  0  0  0
 19 18  1  0  0  0  0
 20 18  2  0  0  0  0
 21  9  1  0  0  0  0
 21 22  1  0  0  0  0
 23 24  2  0  0  0  0
 24 22  1  0  0  0  0
 24 25  1  0  0  0  0
 27 31  1  0  0  0  0
 27 28  1  0  0  0  0
 29 32  1  0  0  0  0
 30 28  1  6  0  0  0
 30 32  1  0  0  0  0
 30 39  1  0  0  0  0
 31 26  1  6  0  0  0
 31 29  1  0  0  0  0
 33 36  1  0  0  0  0
 34 41  2  0  0  0  0
 38 33  1  0  0  0  0
 39 38  1  6  0  0  0
 39 41  1  0  0  0  0
 39 40  1  0  0  0  0
 40 36  1  6  0  0  0
 40 37  1  0  0  0  0
 41 35  2  0  0  0  0
 41 37  1  0  0  0  0
M  END
>  <MODEL>
9

>  <REMARK>
 VINA RESULT:      -5.3      3.334      5.288
  Name = 
  15 active torsions:
  status: ('A' for Active; 'I' for Inactive)
    1  A    between atoms: C_1  and  C_19
    2  A    between atoms: C_1  and  C_29
    3  A    between atoms: C_3  and  C_17
    4  A    between atoms: C_7  and  N_8
    5  A    between atoms: N_8  and  C_10
    6  A    between atoms: N_8  and  C_26
    7  A    between atoms: C_10  and  C_25
    8  A    between atoms: C_12  and  N_15
    9  A    between atoms: C_12  and  C_28
   10  A    between atoms: C_17  and  C_40
   11  A    between atoms: C_19  and  C_28
   12  A    between atoms: C_20  and  C_32
   13  A    between atoms: C_25  and  C_29
   14  A    between atoms: C_26  and  C_32
   15  A    between atoms: C_27  and  C_33
                            x       y       z     vdW  Elec       q    Type
                         _______ _______ _______ _____ _____    ______ ____

>  <TORSDO>
F 15

$$$$
