=
 OpenBabel11072414063D

 57 62  0  0  1  0  0  0  0  0999 V2000
  162.0160  205.5110  145.5020 C   0  0  2  0  0  3  0  0  0  0  0  0
  163.3060  204.7210  145.6530 C   0  0  0  0  0  1  0  0  0  0  0  0
  160.1450  206.1350  148.5750 N   0  0  0  0  0  2  0  0  0  0  0  0
  161.4590  204.3610  147.6420 N   0  0  0  0  0  0  0  0  0  0  0  0
  160.7210  204.8150  148.8200 C   0  0  1  0  0  3  0  0  0  0  0  0
  160.9450  205.1740  146.5530 C   0  0  1  0  0  3  0  0  0  0  0  0
  161.0230  202.9950  147.3900 C   0  0  0  0  0  1  0  0  0  0  0  0
  160.3990  206.4320  147.1770 C   0  0  0  0  0  2  0  0  0  0  0  0
  161.5550  204.7970  150.1160 C   0  0  2  0  0  3  0  0  0  0  0  0
  159.9870  202.3360  150.7600 O   0  0  0  0  0  0  0  0  0  0  0  0
  160.7370  204.7940  152.2150 C   0  0  0  0  0  2  0  0  0  0  0  0
  161.2370  203.3830  151.2030 P   0  0  2  0  0  0  0  0  0  0  0  0
  162.4910  202.6910  151.6860 O   0  0  0  0  0  1  0  0  0  0  0  0
  161.0770  205.8360  151.1400 C   0  0  1  0  0  3  0  0  0  0  0  0
  162.1270  206.7970  151.6470 C   0  0  0  0  0  0  0  0  0  0  0  0
  162.2340  207.2280  153.0120 N   0  0  0  0  0  2  0  0  0  0  0  0
  163.0380  207.1440  150.8470 O   0  0  0  0  0  0  0  0  0  0  0  0
  161.1830  207.2040  153.9740 C   0  0  0  0  0  3  0  0  0  0  0  0
  160.9820  208.2420  154.7720 C   0  0  0  0  0  3  0  0  0  0  0  0
  159.8590  208.2460  155.7550 C   0  0  1  0  0  3  0  0  0  0  0  0
  159.9150  207.0120  156.6430 C   0  0  0  0  0  1  0  0  0  0  0  0
  159.9510  209.4940  156.6140 C   0  0  0  0  0  2  0  0  0  0  0  0
  160.2930  211.6870  155.5750 N   0  0  0  0  0  0  0  0  0  0  0  0
  159.5110  210.6610  155.8660 N   0  0  0  0  0  0  0  0  0  0  0  0
  158.3620  212.1150  154.7720 C   0  0  0  0  0  0  0  0  0  0  0  0
  158.2750  210.8810  155.3830 C   0  0  0  0  0  3  0  0  0  0  0  0
  159.6110  212.5990  154.9020 N   0  0  0  0  0  0  0  0  0  0  0  0
  156.8570  213.6030  153.1060 N   0  0  0  0  0  0  0  0  0  0  0  0
  157.2780  212.8100  154.0890 C   0  0  0  0  0  0  0  0  0  0  0  0
  155.9580  213.1210  153.9980 O   0  0  0  0  0  0  0  0  0  0  0  0
  161.5030  205.4280  144.1010 C   0  0  0  0  0  0  0  0  0  0  0  0
  160.5900  204.5970  143.8380 O   0  0  0  0  0  0  0  0  0  0  0  0
  161.9970  206.2740  143.1070 O   0  0  0  0  0  0  0  0  0  0  0  0
  161.6450  206.0990  141.7410 C   0  0  0  0  0  2  0  0  0  0  0  0
  162.4070  207.0780  140.8700 C   0  0  0  0  0  2  0  0  0  0  0  0
  161.5930  207.4620  139.6560 C   0  0  0  0  0  2  0  0  0  0  0  0
  161.0870  208.7500  139.8300 O   0  0  0  0  0  0  0  0  0  0  0  0
  162.0460  209.8130  137.9700 O   0  0  0  0  0  0  0  0  0  0  0  0
  161.3050  212.2450  139.1700 O   0  0  0  0  0  0  0  0  0  0  0  0
  160.1250  212.6820  141.0760 O   0  0  0  0  0  1  0  0  0  0  0  0
  160.8820  209.2390  138.5310 C   0  0  2  0  0  3  0  0  0  0  0  0
  163.2180  210.6030  140.3750 O   0  0  0  0  0  1  0  0  0  0  0  0
  159.6310  210.1240  138.3930 C   0  0  2  0  0  3  0  0  0  0  0  0
  163.6680  211.8580  138.1380 O   0  0  0  0  0  0  0  0  0  0  0  0
  159.3100  210.9680  139.6290 C   0  0  0  0  0  2  0  0  0  0  0  0
  162.5760  211.1450  138.9040 P   0  0  1  0  0  0  0  0  0  0  0  0
  160.5350  211.6840  140.1950 C   0  0  1  0  0  3  0  0  0  0  0  0
  158.4320  209.2650  138.0350 C   0  0  0  0  0  2  0  0  0  0  0  0
  157.1700  209.7330  138.7550 C   0  0  0  0  0  2  0  0  0  0  0  0
  155.7250  208.2350  137.6490 O   0  0  0  0  0  0  0  0  0  0  0  0
  155.9160  209.3920  138.0000 C   0  0  0  0  0  0  0  0  0  0  0  0
  153.6650  211.7850  140.0860 C   0  0  0  0  0  2  0  0  0  0  0  0
  154.8560  210.4450  137.7670 C   0  0  2  0  0  3  0  0  0  0  0  0
  153.5700  210.2870  139.7950 C   0  0  0  0  0  2  0  0  0  0  0  0
  155.2940  211.8260  138.2080 C   0  0  0  0  0  3  0  0  0  0  0  0
  154.7750  212.4180  139.2920 C   0  0  0  0  0  3  0  0  0  0  0  0
  153.5590  210.0630  138.3470 N   0  0  0  0  0  2  0  0  0  0  0  0
  1  2  1  6  0  0  0
  4  5  1  0  0  0  0
  5  3  1  6  0  0  0
  6  1  1  6  0  0  0
  6  8  1  0  0  0  0
  6  4  1  0  0  0  0
  7  4  1  0  0  0  0
  8  3  1  0  0  0  0
  9  5  1  6  0  0  0
  9 14  1  0  0  0  0
  9 12  1  0  0  0  0
 12 10  2  6  0  0  0
 12 13  1  0  0  0  0
 12 11  1  0  0  0  0
 14 15  1  1  0  0  0
 14 11  1  0  0  0  0
 15 16  1  0  0  0  0
 16 18  1  0  0  0  0
 17 15  2  0  0  0  0
 18 19  2  0  0  0  0
 19 20  1  0  0  0  0
 20 22  1  0  0  0  0
 20 21  1  1  0  0  0
 23 24  1  0  0  0  0
 24 22  1  0  0  0  0
 25 27  1  0  0  0  0
 25 26  2  0  0  0  0
 26 24  1  0  0  0  0
 27 23  2  0  0  0  0
 28 30  1  0  0  0  0
 28 29  2  0  0  0  0
 29 25  1  0  0  0  0
 30 29  1  0  0  0  0
 31  1  1  0  0  0  0
 32 31  2  0  0  0  0
 33 31  1  0  0  0  0
 34 33  1  0  0  0  0
 35 34  1  0  0  0  0
 36 37  1  0  0  0  0
 36 35  1  0  0  0  0
 38 41  1  0  0  0  0
 38 46  1  0  0  0  0
 39 47  1  0  0  0  0
 41 37  1  1  0  0  0
 43 48  1  1  0  0  0
 43 41  1  0  0  0  0
 43 45  1  0  0  0  0
 45 47  1  0  0  0  0
 46 44  2  6  0  0  0
 46 39  1  0  0  0  0
 46 42  1  0  0  0  0
 47 40  1  1  0  0  0
 48 49  1  0  0  0  0
 50 51  2  0  0  0  0
 51 49  1  0  0  0  0
 53 51  1  1  0  0  0
 53 55  1  0  0  0  0
 53 57  1  0  0  0  0
 54 52  1  0  0  0  0
 55 56  2  0  0  0  0
 56 52  1  0  0  0  0
 57 54  1  0  0  0  0
M  END
>  <MODEL>
1

>  <REMARK>
 VINA RESULT:      -6.0      0.000      0.000
  Name = 
  19 active torsions:
  status: ('A' for Active; 'I' for Inactive)
    1  A    between atoms: C_1  and  N_43
    2  A    between atoms: C_3  and  O_54
    3  A    between atoms: C_3  and  C_55
    4  A    between atoms: C_8  and  C_13
    5  A    between atoms: C_8  and  O_15
    6  A    between atoms: C_11  and  C_16
    7  A    between atoms: C_12  and  O_54
    8  A    between atoms: C_13  and  C_18
    9  A    between atoms: C_14  and  C_44
   10  A    between atoms: O_15  and  C_25
   11  A    between atoms: C_23  and  C_26
   12  A    between atoms: C_25  and  C_55
   13  A    between atoms: C_26  and  C_56
   14  A    between atoms: N_27  and  C_56
   15  A    between atoms: C_28  and  C_51
   16  A    between atoms: C_30  and  C_44
   17  A    between atoms: C_30  and  C_48
   18  A    between atoms: C_31  and  C_48
   19  A    between atoms: C_35  and  C_38
                            x       y       z     vdW  Elec       q    Type
                         _______ _______ _______ _____ _____    ______ ____

>  <TORSDO>
F 19

$$$$
=
 OpenBabel11072414063D

 57 62  0  0  1  0  0  0  0  0999 V2000
  162.0580  205.5350  145.4140 C   0  0  2  0  0  3  0  0  0  0  0  0
  163.2830  204.6430  145.5380 C   0  0  0  0  0  1  0  0  0  0  0  0
  160.0960  206.5320  148.3270 N   0  0  0  0  0  2  0  0  0  0  0  0
  161.5510  204.7290  147.7160 N   0  0  0  0  0  0  0  0  0  0  0  0
  160.7630  205.3200  148.7970 C   0  0  1  0  0  3  0  0  0  0  0  0
  160.9970  205.3030  146.5020 C   0  0  1  0  0  3  0  0  0  0  0  0
  161.2200  203.3110  147.7010 C   0  0  0  0  0  1  0  0  0  0  0  0
  160.3500  206.6040  146.8990 C   0  0  0  0  0  2  0  0  0  0  0  0
  161.5740  205.5870  150.0790 C   0  0  2  0  0  3  0  0  0  0  0  0
  160.0350  203.2810  151.1980 O   0  0  0  0  0  0  0  0  0  0  0  0
  160.7200  206.0010  152.1230 C   0  0  0  0  0  2  0  0  0  0  0  0
  161.2590  204.4220  151.4310 P   0  0  2  0  0  0  0  0  0  0  0  0
  162.5160  203.8690  152.0640 O   0  0  0  0  0  1  0  0  0  0  0  0
  161.0620  206.8050  150.8600 C   0  0  1  0  0  3  0  0  0  0  0  0
  162.0870  207.8710  151.1720 C   0  0  0  0  0  0  0  0  0  0  0  0
  161.8170  209.0470  151.9490 N   0  0  0  0  0  2  0  0  0  0  0  0
  163.2820  207.6500  150.8330 O   0  0  0  0  0  0  0  0  0  0  0  0
  160.5310  209.6230  152.1620 C   0  0  0  0  0  3  0  0  0  0  0  0
  160.4170  210.8120  152.7340 C   0  0  0  0  0  3  0  0  0  0  0  0
  159.0780  211.4440  152.9260 C   0  0  1  0  0  3  0  0  0  0  0  0
  158.4750  211.0340  154.2610 C   0  0  0  0  0  1  0  0  0  0  0  0
  159.2260  212.9540  152.8770 C   0  0  0  0  0  2  0  0  0  0  0  0
  160.1000  214.1630  150.9330 N   0  0  0  0  0  0  0  0  0  0  0  0
  159.1610  213.4270  151.5040 N   0  0  0  0  0  0  0  0  0  0  0  0
  158.5590  213.8700  149.4860 C   0  0  0  0  0  0  0  0  0  0  0  0
  158.1590  213.2140  150.6320 C   0  0  0  0  0  3  0  0  0  0  0  0
  159.7550  214.4520  149.6890 N   0  0  0  0  0  0  0  0  0  0  0  0
  156.6530  214.0530  147.5910 N   0  0  0  0  0  0  0  0  0  0  0  0
  157.8120  213.9400  148.2360 C   0  0  0  0  0  0  0  0  0  0  0  0
  157.7980  213.9350  146.8770 O   0  0  0  0  0  0  0  0  0  0  0  0
  161.4950  205.4750  144.0310 C   0  0  0  0  0  0  0  0  0  0  0  0
  160.5760  204.6450  143.7850 O   0  0  0  0  0  0  0  0  0  0  0  0
  161.9500  206.3400  143.0340 O   0  0  0  0  0  0  0  0  0  0  0  0
  161.7130  206.0780  141.6580 C   0  0  0  0  0  2  0  0  0  0  0  0
  162.4120  207.1100  140.7960 C   0  0  0  0  0  2  0  0  0  0  0  0
  161.5300  207.5300  139.6410 C   0  0  0  0  0  2  0  0  0  0  0  0
  161.0830  208.8340  139.8550 O   0  0  0  0  0  0  0  0  0  0  0  0
  162.0100  209.9100  137.9880 O   0  0  0  0  0  0  0  0  0  0  0  0
  161.3660  212.3350  139.2560 O   0  0  0  0  0  0  0  0  0  0  0  0
  160.2560  212.7630  141.2060 O   0  0  0  0  0  1  0  0  0  0  0  0
  160.8500  209.3530  138.5730 C   0  0  2  0  0  3  0  0  0  0  0  0
  163.2740  210.6240  140.3690 O   0  0  0  0  0  1  0  0  0  0  0  0
  159.6170  210.2700  138.4910 C   0  0  2  0  0  3  0  0  0  0  0  0
  163.6860  211.9120  138.1440 O   0  0  0  0  0  0  0  0  0  0  0  0
  159.3560  211.0980  139.7520 C   0  0  0  0  0  2  0  0  0  0  0  0
  162.6010  211.2110  138.9290 P   0  0  1  0  0  0  0  0  0  0  0  0
  160.6150  211.7720  140.2930 C   0  0  1  0  0  3  0  0  0  0  0  0
  158.3870  209.4480  138.1540 C   0  0  0  0  0  2  0  0  0  0  0  0
  157.1230  210.0540  138.7590 C   0  0  0  0  0  2  0  0  0  0  0  0
  155.7970  208.3380  137.8350 O   0  0  0  0  0  0  0  0  0  0  0  0
  155.8690  209.5260  138.1200 C   0  0  0  0  0  0  0  0  0  0  0  0
  153.0970  211.2100  140.2700 C   0  0  0  0  0  2  0  0  0  0  0  0
  154.6740  210.4320  137.9240 C   0  0  2  0  0  3  0  0  0  0  0  0
  153.2720  209.7770  139.7680 C   0  0  0  0  0  2  0  0  0  0  0  0
  154.8440  211.7800  138.5940 C   0  0  0  0  0  3  0  0  0  0  0  0
  154.1490  212.1160  139.6890 C   0  0  0  0  0  3  0  0  0  0  0  0
  153.4140  209.7760  138.3100 N   0  0  0  0  0  2  0  0  0  0  0  0
  1  2  1  6  0  0  0
  4  5  1  0  0  0  0
  5  3  1  6  0  0  0
  6  1  1  6  0  0  0
  6  8  1  0  0  0  0
  6  4  1  0  0  0  0
  7  4  1  0  0  0  0
  8  3  1  0  0  0  0
  9  5  1  6  0  0  0
  9 14  1  0  0  0  0
  9 12  1  0  0  0  0
 12 10  2  6  0  0  0
 12 13  1  0  0  0  0
 12 11  1  0  0  0  0
 14 15  1  1  0  0  0
 14 11  1  0  0  0  0
 15 16  1  0  0  0  0
 16 18  1  0  0  0  0
 17 15  2  0  0  0  0
 18 19  2  0  0  0  0
 19 20  1  0  0  0  0
 20 21  1  1  0  0  0
 22 20  1  0  0  0  0
 23 24  1  0  0  0  0
 24 22  1  0  0  0  0
 25 27  1  0  0  0  0
 25 26  2  0  0  0  0
 26 24  1  0  0  0  0
 27 23  2  0  0  0  0
 28 29  2  0  0  0  0
 29 25  1  0  0  0  0
 30 28  1  0  0  0  0
 30 29  1  0  0  0  0
 31  1  1  0  0  0  0
 32 31  2  0  0  0  0
 33 31  1  0  0  0  0
 34 33  1  0  0  0  0
 35 34  1  0  0  0  0
 36 37  1  0  0  0  0
 36 35  1  0  0  0  0
 38 41  1  0  0  0  0
 38 46  1  0  0  0  0
 39 47  1  0  0  0  0
 41 37  1  1  0  0  0
 43 48  1  1  0  0  0
 43 41  1  0  0  0  0
 43 45  1  0  0  0  0
 45 47  1  0  0  0  0
 46 44  2  6  0  0  0
 46 39  1  0  0  0  0
 46 42  1  0  0  0  0
 47 40  1  1  0  0  0
 48 49  1  0  0  0  0
 50 51  2  0  0  0  0
 51 49  1  0  0  0  0
 53 51  1  1  0  0  0
 53 57  1  0  0  0  0
 53 55  1  0  0  0  0
 54 52  1  0  0  0  0
 55 56  2  0  0  0  0
 56 52  1  0  0  0  0
 57 54  1  0  0  0  0
M  END
>  <MODEL>
2

>  <REMARK>
 VINA RESULT:      -5.7      2.027      2.555
  Name = 
  19 active torsions:
  status: ('A' for Active; 'I' for Inactive)
    1  A    between atoms: C_1  and  N_43
    2  A    between atoms: C_3  and  O_54
    3  A    between atoms: C_3  and  C_55
    4  A    between atoms: C_8  and  C_13
    5  A    between atoms: C_8  and  O_15
    6  A    between atoms: C_11  and  C_16
    7  A    between atoms: C_12  and  O_54
    8  A    between atoms: C_13  and  C_18
    9  A    between atoms: C_14  and  C_44
   10  A    between atoms: O_15  and  C_25
   11  A    between atoms: C_23  and  C_26
   12  A    between atoms: C_25  and  C_55
   13  A    between atoms: C_26  and  C_56
   14  A    between atoms: N_27  and  C_56
   15  A    between atoms: C_28  and  C_51
   16  A    between atoms: C_30  and  C_44
   17  A    between atoms: C_30  and  C_48
   18  A    between atoms: C_31  and  C_48
   19  A    between atoms: C_35  and  C_38
                            x       y       z     vdW  Elec       q    Type
                         _______ _______ _______ _____ _____    ______ ____

>  <TORSDO>
F 19

$$$$
=
 OpenBabel11072414063D

 57 62  0  0  1  0  0  0  0  0999 V2000
  162.1220  205.4240  145.4980 C   0  0  2  0  0  3  0  0  0  0  0  0
  163.2790  204.4380  145.4630 C   0  0  0  0  0  1  0  0  0  0  0  0
  160.0810  206.6830  148.2500 N   0  0  0  0  0  2  0  0  0  0  0  0
  161.9030  205.1520  147.9650 N   0  0  0  0  0  0  0  0  0  0  0  0
  161.0330  205.8140  148.9370 C   0  0  1  0  0  3  0  0  0  0  0  0
  161.1860  205.2530  146.7050 C   0  0  1  0  0  3  0  0  0  0  0  0
  161.9190  203.7420  148.3270 C   0  0  0  0  0  1  0  0  0  0  0  0
  160.2610  206.4360  146.8310 C   0  0  0  0  0  2  0  0  0  0  0  0
  161.8020  206.5770  150.0330 C   0  0  2  0  0  3  0  0  0  0  0  0
  161.0430  204.2720  151.7790 O   0  0  0  0  0  0  0  0  0  0  0  0
  160.9740  207.2140  152.0290 C   0  0  0  0  0  2  0  0  0  0  0  0
  161.9030  205.7190  151.6250 P   0  0  2  0  0  0  0  0  0  0  0  0
  163.2970  205.6820  152.2110 O   0  0  0  0  0  1  0  0  0  0  0  0
  161.0050  207.7630  150.5950 C   0  0  1  0  0  3  0  0  0  0  0  0
  161.7000  209.1040  150.5570 C   0  0  0  0  0  0  0  0  0  0  0  0
  162.0700  209.8550  151.7240 N   0  0  0  0  0  2  0  0  0  0  0  0
  162.0880  209.5310  149.4360 O   0  0  0  0  0  0  0  0  0  0  0  0
  161.4880  209.7170  153.0170 C   0  0  0  0  0  3  0  0  0  0  0  0
  162.0080  210.3520  154.0560 C   0  0  0  0  0  3  0  0  0  0  0  0
  161.3840  210.2480  155.4090 C   0  0  1  0  0  3  0  0  0  0  0  0
  162.3910  209.7400  156.4300 C   0  0  0  0  0  1  0  0  0  0  0  0
  160.8770  211.6140  155.8320 C   0  0  0  0  0  2  0  0  0  0  0  0
  158.9040  212.3760  154.5930 N   0  0  0  0  0  0  0  0  0  0  0  0
  159.4440  211.7180  155.6050 N   0  0  0  0  0  0  0  0  0  0  0  0
  157.3020  211.5750  155.7540 C   0  0  0  0  0  0  0  0  0  0  0  0
  158.4740  211.1930  156.3750 C   0  0  0  0  0  3  0  0  0  0  0  0
  157.5850  212.3060  154.6600 N   0  0  0  0  0  0  0  0  0  0  0  0
  154.7430  210.7580  155.9500 N   0  0  0  0  0  0  0  0  0  0  0  0
  155.9530  211.2530  156.2010 C   0  0  0  0  0  0  0  0  0  0  0  0
  155.0140  211.2460  157.1840 O   0  0  0  0  0  0  0  0  0  0  0  0
  161.3930  205.4330  144.1930 C   0  0  0  0  0  0  0  0  0  0  0  0
  160.4390  204.6260  144.0250 O   0  0  0  0  0  0  0  0  0  0  0  0
  161.7370  206.3400  143.1880 O   0  0  0  0  0  0  0  0  0  0  0  0
  161.9240  205.9210  141.8430 C   0  0  0  0  0  2  0  0  0  0  0  0
  162.5120  207.0480  141.0160 C   0  0  0  0  0  2  0  0  0  0  0  0
  161.4970  207.5690  140.0230 C   0  0  0  0  0  2  0  0  0  0  0  0
  161.3400  208.9430  140.2060 O   0  0  0  0  0  0  0  0  0  0  0  0
  162.1080  209.9910  138.2510 O   0  0  0  0  0  0  0  0  0  0  0  0
  161.5640  212.4350  139.5300 O   0  0  0  0  0  0  0  0  0  0  0  0
  160.6160  212.8920  141.5570 O   0  0  0  0  0  1  0  0  0  0  0  0
  161.0020  209.4410  138.9390 C   0  0  2  0  0  3  0  0  0  0  0  0
  163.5620  210.7450  140.5090 O   0  0  0  0  0  1  0  0  0  0  0  0
  159.7630  210.3550  138.9440 C   0  0  2  0  0  3  0  0  0  0  0  0
  163.7860  211.9980  138.2370 O   0  0  0  0  0  0  0  0  0  0  0  0
  159.6040  211.2020  140.2090 C   0  0  0  0  0  2  0  0  0  0  0  0
  162.7710  211.3070  139.1200 P   0  0  1  0  0  0  0  0  0  0  0  0
  160.9010  211.8880  140.6340 C   0  0  1  0  0  3  0  0  0  0  0  0
  158.5130  209.5250  138.7220 C   0  0  0  0  0  2  0  0  0  0  0  0
  157.6280  210.1230  137.6310 C   0  0  0  0  0  2  0  0  0  0  0  0
  157.2580  212.4460  137.4800 O   0  0  0  0  0  0  0  0  0  0  0  0
  156.9730  211.4070  138.0590 C   0  0  0  0  0  0  0  0  0  0  0  0
  153.0890  211.4120  138.2960 C   0  0  0  0  0  2  0  0  0  0  0  0
  155.9000  211.3970  139.1250 C   0  0  2  0  0  3  0  0  0  0  0  0
  154.0960  212.5230  137.9980 C   0  0  0  0  0  2  0  0  0  0  0  0
  155.0630  210.1350  139.1030 C   0  0  0  0  0  3  0  0  0  0  0  0
  153.7900  210.1400  138.6860 C   0  0  0  0  0  3  0  0  0  0  0  0
  155.0720  212.6120  139.0870 N   0  0  0  0  0  2  0  0  0  0  0  0
  1  2  1  6  0  0  0
  4  7  1  0  0  0  0
  4  5  1  0  0  0  0
  5  3  1  6  0  0  0
  6  1  1  6  0  0  0
  6  8  1  0  0  0  0
  6  4  1  0  0  0  0
  8  3  1  0  0  0  0
  9  5  1  6  0  0  0
  9 14  1  0  0  0  0
  9 12  1  0  0  0  0
 12 10  2  1  0  0  0
 12 11  1  0  0  0  0
 12 13  1  0  0  0  0
 14 15  1  1  0  0  0
 14 11  1  0  0  0  0
 15 16  1  0  0  0  0
 16 18  1  0  0  0  0
 17 15  2  0  0  0  0
 18 19  2  0  0  0  0
 19 20  1  0  0  0  0
 20 22  1  0  0  0  0
 20 21  1  1  0  0  0
 23 27  2  0  0  0  0
 23 24  1  0  0  0  0
 24 22  1  0  0  0  0
 24 26  1  0  0  0  0
 25 29  1  0  0  0  0
 25 26  2  0  0  0  0
 27 25  1  0  0  0  0
 28 29  2  0  0  0  0
 28 30  1  0  0  0  0
 29 30  1  0  0  0  0
 31  1  1  0  0  0  0
 32 31  2  0  0  0  0
 33 31  1  0  0  0  0
 34 33  1  0  0  0  0
 35 34  1  0  0  0  0
 36 37  1  0  0  0  0
 36 35  1  0  0  0  0
 38 41  1  0  0  0  0
 38 46  1  0  0  0  0
 39 47  1  0  0  0  0
 41 43  1  0  0  0  0
 41 37  1  1  0  0  0
 43 48  1  1  0  0  0
 43 45  1  0  0  0  0
 45 47  1  0  0  0  0
 46 44  2  6  0  0  0
 46 39  1  0  0  0  0
 46 42  1  0  0  0  0
 47 40  1  1  0  0  0
 49 51  1  0  0  0  0
 49 48  1  0  0  0  0
 50 51  2  0  0  0  0
 52 56  1  0  0  0  0
 53 51  1  6  0  0  0
 54 52  1  0  0  0  0
 54 57  1  0  0  0  0
 55 53  1  0  0  0  0
 56 55  2  0  0  0  0
 57 53  1  0  0  0  0
M  END
>  <MODEL>
3

>  <REMARK>
 VINA RESULT:      -4.8      1.755      1.991
  Name = 
  19 active torsions:
  status: ('A' for Active; 'I' for Inactive)
    1  A    between atoms: C_1  and  N_43
    2  A    between atoms: C_3  and  O_54
    3  A    between atoms: C_3  and  C_55
    4  A    between atoms: C_8  and  C_13
    5  A    between atoms: C_8  and  O_15
    6  A    between atoms: C_11  and  C_16
    7  A    between atoms: C_12  and  O_54
    8  A    between atoms: C_13  and  C_18
    9  A    between atoms: C_14  and  C_44
   10  A    between atoms: O_15  and  C_25
   11  A    between atoms: C_23  and  C_26
   12  A    between atoms: C_25  and  C_55
   13  A    between atoms: C_26  and  C_56
   14  A    between atoms: N_27  and  C_56
   15  A    between atoms: C_28  and  C_51
   16  A    between atoms: C_30  and  C_44
   17  A    between atoms: C_30  and  C_48
   18  A    between atoms: C_31  and  C_48
   19  A    between atoms: C_35  and  C_38
                            x       y       z     vdW  Elec       q    Type
                         _______ _______ _______ _____ _____    ______ ____

>  <TORSDO>
F 19

$$$$
=
 OpenBabel11072414063D

 57 62  0  0  1  0  0  0  0  0999 V2000
  158.3700  212.4770  153.0460 C   0  0  2  0  0  3  0  0  0  0  0  0
  157.9120  211.1960  152.3670 C   0  0  0  0  0  1  0  0  0  0  0  0
  157.3340  214.4530  150.1560 N   0  0  0  0  0  2  0  0  0  0  0  0
  159.3560  213.4680  150.9840 N   0  0  0  0  0  0  0  0  0  0  0  0
  158.7450  214.2000  149.8750 C   0  0  1  0  0  3  0  0  0  0  0  0
  158.4600  213.6900  152.1060 C   0  0  1  0  0  3  0  0  0  0  0  0
  160.5980  214.1620  151.2930 C   0  0  0  0  0  1  0  0  0  0  0  0
  157.1090  214.0100  151.5210 C   0  0  0  0  0  2  0  0  0  0  0  0
  158.9310  213.5160  148.5070 C   0  0  2  0  0  3  0  0  0  0  0  0
  161.8150  214.2160  148.8640 O   0  0  0  0  0  1  0  0  0  0  0  0
  159.8480  214.4530  146.6740 C   0  0  0  0  0  2  0  0  0  0  0  0
  160.6470  213.4300  147.9300 P   0  0  2  0  0  0  0  0  0  0  0  0
  161.0570  212.0600  147.4390 O   0  0  0  0  0  0  0  0  0  0  0  0
  158.4650  214.3960  147.3390 C   0  0  1  0  0  3  0  0  0  0  0  0
  157.4540  213.7740  146.4040 C   0  0  0  0  0  0  0  0  0  0  0  0
  157.7960  213.0080  145.2380 N   0  0  0  0  0  2  0  0  0  0  0  0
  156.2390  213.8260  146.7370 O   0  0  0  0  0  0  0  0  0  0  0  0
  159.0350  213.0760  144.5370 C   0  0  0  0  0  3  0  0  0  0  0  0
  159.0510  213.1790  143.2160 C   0  0  0  0  0  3  0  0  0  0  0  0
  160.3410  213.2910  142.4730 C   0  0  1  0  0  3  0  0  0  0  0  0
  161.2300  212.0890  142.7500 C   0  0  0  0  0  1  0  0  0  0  0  0
  160.0540  213.3800  140.9850 C   0  0  0  0  0  2  0  0  0  0  0  0
  161.8810  212.4520  139.6410 N   0  0  0  0  0  0  0  0  0  0  0  0
  160.7290  212.3070  140.2720 N   0  0  0  0  0  0  0  0  0  0  0  0
  161.2640  210.4260  139.3720 C   0  0  0  0  0  0  0  0  0  0  0  0
  160.2910  211.0420  140.1320 C   0  0  0  0  0  3  0  0  0  0  0  0
  162.2360  211.3100  139.0760 N   0  0  0  0  0  0  0  0  0  0  0  0
  161.2720  207.7360  139.2360 N   0  0  0  0  0  0  0  0  0  0  0  0
  161.2590  209.0340  138.9400 C   0  0  0  0  0  0  0  0  0  0  0  0
  161.2420  208.1180  137.9370 O   0  0  0  0  0  0  0  0  0  0  0  0
  159.6260  212.2470  153.8220 C   0  0  0  0  0  0  0  0  0  0  0  0
  159.9260  213.0540  154.7440 O   0  0  0  0  0  0  0  0  0  0  0  0
  160.4390  211.1430  153.5570 O   0  0  0  0  0  0  0  0  0  0  0  0
  160.5970  210.0940  154.5020 C   0  0  0  0  0  2  0  0  0  0  0  0
  161.3150  208.9180  153.8710 C   0  0  0  0  0  2  0  0  0  0  0  0
  161.4450  209.1090  152.3760 C   0  0  0  0  0  2  0  0  0  0  0  0
  160.9560  207.9780  151.7240 O   0  0  0  0  0  0  0  0  0  0  0  0
  163.0490  207.7660  150.6850 O   0  0  0  0  0  0  0  0  0  0  0  0
  161.6740  206.6970  148.4770 O   0  0  0  0  0  0  0  0  0  0  0  0
  159.4640  206.2060  148.1770 O   0  0  0  0  0  1  0  0  0  0  0  0
  162.0790  207.1630  151.5170 C   0  0  2  0  0  3  0  0  0  0  0  0
  161.2870  209.3620  149.2250 O   0  0  0  0  0  1  0  0  0  0  0  0
  161.7310  205.7190  151.1130 C   0  0  2  0  0  3  0  0  0  0  0  0
  163.5340  208.5070  148.2230 O   0  0  0  0  0  0  0  0  0  0  0  0
  160.4730  205.5870  150.2500 C   0  0  0  0  0  2  0  0  0  0  0  0
  162.4020  208.0880  149.1340 P   0  0  1  0  0  0  0  0  0  0  0  0
  160.4280  206.5960  149.1050 C   0  0  1  0  0  3  0  0  0  0  0  0
  161.5930  204.8580  152.3550 C   0  0  0  0  0  2  0  0  0  0  0  0
  160.5960  203.7210  152.1420 C   0  0  0  0  0  2  0  0  0  0  0  0
  162.2980  202.1720  151.6340 O   0  0  0  0  0  0  0  0  0  0  0  0
  161.1800  202.5830  151.3530 C   0  0  0  0  0  0  0  0  0  0  0  0
  161.4440  201.6700  147.5800 C   0  0  0  0  0  2  0  0  0  0  0  0
  160.3560  201.8870  150.2930 C   0  0  2  0  0  3  0  0  0  0  0  0
  161.1260  202.9840  148.2940 C   0  0  0  0  0  2  0  0  0  0  0  0
  161.0050  200.6150  149.7880 C   0  0  0  0  0  3  0  0  0  0  0  0
  161.5350  200.5330  148.5600 C   0  0  0  0  0  3  0  0  0  0  0  0
  159.9870  202.7950  149.1960 N   0  0  0  0  0  2  0  0  0  0  0  0
  1  2  1  6  0  0  0
  1 31  1  0  0  0  0
  3  8  1  0  0  0  0
  4  7  1  0  0  0  0
  4  6  1  0  0  0  0
  5  3  1  1  0  0  0
  5  4  1  0  0  0  0
  6  1  1  1  0  0  0
  8  6  1  0  0  0  0
  9  5  1  1  0  0  0
 11 14  1  0  0  0  0
 11 12  1  0  0  0  0
 12 13  2  6  0  0  0
 12  9  1  0  0  0  0
 12 10  1  0  0  0  0
 14 15  1  6  0  0  0
 14  9  1  0  0  0  0
 15 17  2  0  0  0  0
 16 15  1  0  0  0  0
 18 16  1  0  0  0  0
 19 18  2  0  0  0  0
 20 21  1  6  0  0  0
 20 19  1  0  0  0  0
 22 20  1  0  0  0  0
 23 24  1  0  0  0  0
 24 22  1  0  0  0  0
 25 26  2  0  0  0  0
 26 24  1  0  0  0  0
 27 25  1  0  0  0  0
 27 23  2  0  0  0  0
 29 28  2  0  0  0  0
 29 25  1  0  0  0  0
 30 29  1  0  0  0  0
 30 28  1  0  0  0  0
 31 32  2  0  0  0  0
 33 31  1  0  0  0  0
 33 34  1  0  0  0  0
 35 34  1  0  0  0  0
 36 35  1  0  0  0  0
 37 36  1  0  0  0  0
 38 41  1  0  0  0  0
 39 47  1  0  0  0  0
 39 46  1  0  0  0  0
 41 37  1  6  0  0  0
 43 41  1  0  0  0  0
 43 48  1  1  0  0  0
 45 43  1  0  0  0  0
 46 44  2  6  0  0  0
 46 42  1  0  0  0  0
 46 38  1  0  0  0  0
 47 40  1  6  0  0  0
 47 45  1  0  0  0  0
 49 48  1  0  0  0  0
 51 50  2  0  0  0  0
 51 49  1  0  0  0  0
 52 54  1  0  0  0  0
 52 56  1  0  0  0  0
 53 51  1  1  0  0  0
 54 57  1  0  0  0  0
 55 53  1  0  0  0  0
 56 55  2  0  0  0  0
 57 53  1  0  0  0  0
M  END
>  <MODEL>
4

>  <REMARK>
 VINA RESULT:      -3.6      4.391     13.064
  Name = 
  19 active torsions:
  status: ('A' for Active; 'I' for Inactive)
    1  A    between atoms: C_1  and  N_43
    2  A    between atoms: C_3  and  O_54
    3  A    between atoms: C_3  and  C_55
    4  A    between atoms: C_8  and  C_13
    5  A    between atoms: C_8  and  O_15
    6  A    between atoms: C_11  and  C_16
    7  A    between atoms: C_12  and  O_54
    8  A    between atoms: C_13  and  C_18
    9  A    between atoms: C_14  and  C_44
   10  A    between atoms: O_15  and  C_25
   11  A    between atoms: C_23  and  C_26
   12  A    between atoms: C_25  and  C_55
   13  A    between atoms: C_26  and  C_56
   14  A    between atoms: N_27  and  C_56
   15  A    between atoms: C_28  and  C_51
   16  A    between atoms: C_30  and  C_44
   17  A    between atoms: C_30  and  C_48
   18  A    between atoms: C_31  and  C_48
   19  A    between atoms: C_35  and  C_38
                            x       y       z     vdW  Elec       q    Type
                         _______ _______ _______ _____ _____    ______ ____

>  <TORSDO>
F 19

$$$$
