=
 OpenBabel11072415253D

 25 29  0  0  1  0  0  0  0  0999 V2000
  161.3680  203.6950  152.4980 C   0  0  0  0  0  2  0  0  0  0  0  0
  160.9550  204.7640  149.5380 C   0  0  0  0  0  0  0  0  0  0  0  0
  161.1140  206.7540  147.8940 C   0  0  0  0  0  0  0  0  0  0  0  0
  161.4160  207.0770  146.4570 C   0  0  0  0  0  2  0  0  0  0  0  0
  161.0270  203.3980  149.3190 C   0  0  1  0  0  3  0  0  0  0  0  0
  160.9630  205.9430  145.5130 C   0  0  0  0  0  2  0  0  0  0  0  0
  161.4800  204.5510  145.9340 C   0  0  2  0  0  3  0  0  0  0  0  0
  161.2210  203.1180  148.0090 N   0  0  0  0  0  0  0  0  0  0  0  0
  161.7970  202.4950  151.6570 C   0  0  0  0  0  2  0  0  0  0  0  0
  160.7530  205.4560  150.8480 C   0  0  0  0  0  2  0  0  0  0  0  0
  159.6350  201.9670  150.6640 O   0  0  0  0  0  0  0  0  0  0  0  0
  161.2530  204.3210  147.4000 C   0  0  0  0  0  0  0  0  0  0  0  0
  160.9570  202.3610  150.3930 C   0  0  1  0  0  0  0  0  0  0  0  0
  160.9330  207.6780  148.7300 O   0  0  0  0  0  0  0  0  0  0  0  0
  161.8090  205.0200  151.8660 C   0  0  1  0  0  3  0  0  0  0  0  0
  161.1040  205.3460  148.3000 C   0  0  0  0  0  0  0  0  0  0  0  0
  160.4670  201.0140  150.0380 C   0  0  0  0  0  2  0  0  0  0  0  0
  161.5480  207.2820  152.3600 N   0  0  0  0  0  2  0  0  0  0  0  0
  161.9740  206.0510  152.8980 N   0  0  1  0  0  0  0  0  0  0  0  0
  161.0540  205.7590  153.9930 C   0  0  0  0  0  2  0  0  0  0  0  0
  160.5540  207.0810  154.5070 C   0  0  0  0  0  2  0  0  0  0  0  0
  161.0170  208.0610  153.4670 C   0  0  0  0  0  2  0  0  0  0  0  0
  163.9040  204.6610  146.5080 O   0  0  0  0  0  1  0  0  0  0  0  0
  163.2510  203.9450  144.4310 O   0  0  0  0  0  0  0  0  0  0  0  0
  162.9220  204.3700  145.5720 C   0  0  0  0  0  0  0  0  0  0  0  0
  2 10  1  0  0  0  0
  3 16  1  0  0  0  0
  3 14  2  0  0  0  0
  4  3  1  0  0  0  0
  5  8  1  1  0  0  0
  5  2  1  0  0  0  0
  5 13  1  0  0  0  0
  6  7  1  0  0  0  0
  6  4  1  0  0  0  0
  7 25  1  1  0  0  0
  7 12  1  0  0  0  0
  9  1  1  0  0  0  0
 12  8  2  0  0  0  0
 12 16  1  0  0  0  0
 13 17  1  6  0  0  0
 13 11  1  0  0  0  0
 13  9  1  0  0  0  0
 15 10  1  6  0  0  0
 15  1  1  0  0  0  0
 15 19  1  0  0  0  0
 16  2  2  0  0  0  0
 17 11  1  0  0  0  0
 18 19  1  0  0  0  0
 18 22  1  0  0  0  0
 19 20  1  1  0  0  0
 20 21  1  0  0  0  0
 22 21  1  0  0  0  0
 24 25  2  0  0  0  0
 25 23  1  0  0  0  0
M  END
>  <MODEL>
1

>  <REMARK>
 VINA RESULT:      -6.9      0.000      0.000
  Name = 
  2 active torsions:
  status: ('A' for Active; 'I' for Inactive)
    1  A    between atoms: N_7  and  C_23
    2  A    between atoms: C_12  and  C_16
                            x       y       z     vdW  Elec       q    Type
                         _______ _______ _______ _____ _____    ______ ____

>  <TORSDO>
F 2

$$$$
=
 OpenBabel11072415253D

 25 29  0  0  1  0  0  0  0  0999 V2000
  161.4470  206.5810  153.7760 C   0  0  0  0  0  2  0  0  0  0  0  0
  160.6210  209.6460  153.6950 C   0  0  0  0  0  0  0  0  0  0  0  0
  160.0930  211.7260  152.2530 C   0  0  0  0  0  0  0  0  0  0  0  0
  159.2210  212.9510  152.2230 C   0  0  0  0  0  2  0  0  0  0  0  0
  160.1980  209.2900  154.9660 C   0  0  1  0  0  3  0  0  0  0  0  0
  158.9560  213.4950  153.6440 C   0  0  0  0  0  2  0  0  0  0  0  0
  158.4430  212.4200  154.6260 C   0  0  2  0  0  3  0  0  0  0  0  0
  159.3650  210.2210  155.4870 N   0  0  0  0  0  0  0  0  0  0  0  0
  160.4560  206.6820  154.9330 C   0  0  0  0  0  2  0  0  0  0  0  0
  161.5400  208.8730  152.8030 C   0  0  0  0  0  2  0  0  0  0  0  0
  161.7580  208.1370  156.3910 O   0  0  0  0  0  0  0  0  0  0  0  0
  159.2810  211.1770  154.5390 C   0  0  0  0  0  0  0  0  0  0  0  0
  160.5650  208.0180  155.6580 C   0  0  1  0  0  0  0  0  0  0  0  0
  160.8150  211.4340  151.2640 O   0  0  0  0  0  0  0  0  0  0  0  0
  161.0210  207.4490  152.5860 C   0  0  1  0  0  3  0  0  0  0  0  0
  160.0250  210.8560  153.4320 C   0  0  0  0  0  0  0  0  0  0  0  0
  160.5670  207.9960  157.1340 C   0  0  0  0  0  2  0  0  0  0  0  0
  160.8790  205.6950  151.0600 N   0  0  0  0  0  2  0  0  0  0  0  0
  161.5560  206.9010  151.3340 N   0  0  1  0  0  0  0  0  0  0  0  0
  161.2060  207.8070  150.2450 C   0  0  0  0  0  2  0  0  0  0  0  0
  160.9060  206.9520  149.0450 C   0  0  0  0  0  2  0  0  0  0  0  0
  160.8310  205.5630  149.6120 C   0  0  0  0  0  2  0  0  0  0  0  0
  156.1610  213.1020  153.8880 O   0  0  0  0  0  0  0  0  0  0  0  0
  156.5280  210.9730  154.6510 O   0  0  0  0  0  1  0  0  0  0  0  0
  156.9950  212.1160  154.3970 C   0  0  0  0  0  0  0  0  0  0  0  0
  1  9  1  0  0  0  0
  3 16  1  0  0  0  0
  4  3  1  0  0  0  0
  4  6  1  0  0  0  0
  5  2  1  6  0  0  0
  5  8  1  0  0  0  0
  5 13  1  0  0  0  0
  6  7  1  0  0  0  0
  7 25  1  6  0  0  0
 10  2  1  0  0  0  0
 11 17  1  0  0  0  0
 12  7  1  0  0  0  0
 12  8  2  0  0  0  0
 13  9  1  6  0  0  0
 13 11  1  0  0  0  0
 13 17  1  0  0  0  0
 14  3  2  0  0  0  0
 15 10  1  1  0  0  0
 15  1  1  0  0  0  0
 16  2  2  0  0  0  0
 16 12  1  0  0  0  0
 18 19  1  0  0  0  0
 19 20  1  6  0  0  0
 19 15  1  0  0  0  0
 21 22  1  0  0  0  0
 21 20  1  0  0  0  0
 22 18  1  0  0  0  0
 23 25  2  0  0  0  0
 25 24  1  0  0  0  0
M  END
>  <MODEL>
2

>  <REMARK>
 VINA RESULT:      -6.7      4.213      8.301
  Name = 
  2 active torsions:
  status: ('A' for Active; 'I' for Inactive)
    1  A    between atoms: N_7  and  C_23
    2  A    between atoms: C_12  and  C_16
                            x       y       z     vdW  Elec       q    Type
                         _______ _______ _______ _____ _____    ______ ____

>  <TORSDO>
F 2

$$$$
=
 OpenBabel11072415253D

 25 29  0  0  1  0  0  0  0  0999 V2000
  160.7940  204.0430  149.0340 C   0  0  0  0  0  2  0  0  0  0  0  0
  161.7030  206.7520  150.4190 C   0  0  0  0  0  0  0  0  0  0  0  0
  162.1740  209.2820  150.1640 C   0  0  0  0  0  0  0  0  0  0  0  0
  162.0820  210.5810  150.9160 C   0  0  0  0  0  2  0  0  0  0  0  0
  161.3170  206.0070  151.5210 C   0  0  1  0  0  3  0  0  0  0  0  0
  162.3210  210.3810  152.4270 C   0  0  0  0  0  2  0  0  0  0  0  0
  161.4460  209.2700  153.0450 C   0  0  2  0  0  3  0  0  0  0  0  0
  161.1710  206.7870  152.6170 N   0  0  0  0  0  0  0  0  0  0  0  0
  160.1570  203.9310  150.4180 C   0  0  0  0  0  2  0  0  0  0  0  0
  161.9570  206.2460  149.0350 C   0  0  0  0  0  2  0  0  0  0  0  0
  162.1990  203.7770  151.7370 O   0  0  0  0  0  0  0  0  0  0  0  0
  161.4860  208.0300  152.2000 C   0  0  0  0  0  0  0  0  0  0  0  0
  161.0410  204.5380  151.4990 C   0  0  1  0  0  0  0  0  0  0  0  0
  162.5040  209.2700  148.9500 O   0  0  0  0  0  0  0  0  0  0  0  0
  160.7440  205.4800  148.5010 C   0  0  1  0  0  3  0  0  0  0  0  0
  161.8050  208.0480  150.8660 C   0  0  0  0  0  0  0  0  0  0  0  0
  161.2150  203.7720  152.7490 C   0  0  0  0  0  2  0  0  0  0  0  0
  161.7830  206.3380  146.6000 N   0  0  0  0  0  2  0  0  0  0  0  0
  160.7510  205.4810  147.0330 N   0  0  1  0  0  0  0  0  0  0  0  0
  161.1250  204.1480  146.5710 C   0  0  0  0  0  2  0  0  0  0  0  0
  161.9700  204.3330  145.3410 C   0  0  0  0  0  2  0  0  0  0  0  0
  162.2660  205.8060  145.3360 C   0  0  0  0  0  2  0  0  0  0  0  0
  159.4140  209.4910  154.4740 O   0  0  0  0  0  1  0  0  0  0  0  0
  159.4220  210.3610  152.3540 O   0  0  0  0  0  0  0  0  0  0  0  0
  160.0390  209.7370  153.2600 C   0  0  0  0  0  0  0  0  0  0  0  0
  1  9  1  0  0  0  0
  2 16  2  0  0  0  0
  3 16  1  0  0  0  0
  3  4  1  0  0  0  0
  4  6  1  0  0  0  0
  5  2  1  6  0  0  0
  5  8  1  0  0  0  0
  6  7  1  0  0  0  0
  7 25  1  6  0  0  0
 10  2  1  0  0  0  0
 11 17  1  0  0  0  0
 12  8  2  0  0  0  0
 12  7  1  0  0  0  0
 13  9  1  6  0  0  0
 13  5  1  0  0  0  0
 13 11  1  0  0  0  0
 13 17  1  0  0  0  0
 14  3  2  0  0  0  0
 15  1  1  1  0  0  0
 15 10  1  0  0  0  0
 16 12  1  0  0  0  0
 18 19  1  0  0  0  0
 19 20  1  1  0  0  0
 19 15  1  0  0  0  0
 21 20  1  0  0  0  0
 22 21  1  0  0  0  0
 22 18  1  0  0  0  0
 24 25  2  0  0  0  0
 25 23  1  0  0  0  0
M  END
>  <MODEL>
3

>  <REMARK>
 VINA RESULT:      -6.4      2.528      6.264
  Name = 
  2 active torsions:
  status: ('A' for Active; 'I' for Inactive)
    1  A    between atoms: N_7  and  C_23
    2  A    between atoms: C_12  and  C_16
                            x       y       z     vdW  Elec       q    Type
                         _______ _______ _______ _____ _____    ______ ____

>  <TORSDO>
F 2

$$$$
=
 OpenBabel11072415253D

 25 29  0  0  1  0  0  0  0  0999 V2000
  161.4880  207.6350  152.5670 C   0  0  0  0  0  2  0  0  0  0  0  0
  161.2540  210.6070  151.4750 C   0  0  0  0  0  0  0  0  0  0  0  0
  161.2170  212.1820  149.4250 C   0  0  0  0  0  0  0  0  0  0  0  0
  160.5930  213.4560  148.9260 C   0  0  0  0  0  2  0  0  0  0  0  0
  160.6880  210.7410  152.7340 C   0  0  1  0  0  3  0  0  0  0  0  0
  160.3390  214.4530  150.0760 C   0  0  0  0  0  2  0  0  0  0  0  0
  159.5710  213.8370  151.2640 C   0  0  2  0  0  3  0  0  0  0  0  0
  160.0100  211.9060  152.8480 N   0  0  0  0  0  0  0  0  0  0  0  0
  160.4580  208.2490  153.5130 C   0  0  0  0  0  2  0  0  0  0  0  0
  162.0700  209.4590  150.9730 C   0  0  0  0  0  2  0  0  0  0  0  0
  161.9090  209.8670  154.6150 O   0  0  0  0  0  0  0  0  0  0  0  0
  160.1680  212.5160  151.6550 C   0  0  0  0  0  0  0  0  0  0  0  0
  160.7650  209.7110  153.8130 C   0  0  1  0  0  0  0  0  0  0  0  0
  161.9370  211.4840  148.6640 O   0  0  0  0  0  0  0  0  0  0  0  0
  161.3110  208.1390  151.1300 C   0  0  1  0  0  3  0  0  0  0  0  0
  160.9110  211.7500  150.7920 C   0  0  0  0  0  0  0  0  0  0  0  0
  160.6650  210.1550  155.2180 C   0  0  0  0  0  2  0  0  0  0  0  0
  160.9520  206.0340  150.1980 N   0  0  0  0  0  2  0  0  0  0  0  0
  161.8170  207.1470  150.1740 N   0  0  1  0  0  0  0  0  0  0  0  0
  161.7080  207.7030  148.8290 C   0  0  0  0  0  2  0  0  0  0  0  0
  161.3350  206.5680  147.9150 C   0  0  0  0  0  2  0  0  0  0  0  0
  160.9730  205.4600  148.8620 C   0  0  0  0  0  2  0  0  0  0  0  0
  157.1920  214.4430  151.6990 O   0  0  0  0  0  1  0  0  0  0  0  0
  157.7070  212.9450  150.0430 O   0  0  0  0  0  0  0  0  0  0  0  0
  158.1110  213.7070  150.9640 C   0  0  0  0  0  0  0  0  0  0  0  0
  1  9  1  0  0  0  0
  3 16  1  0  0  0  0
  4  3  1  0  0  0  0
  4  6  1  0  0  0  0
  5  2  1  6  0  0  0
  5  8  1  0  0  0  0
  5 13  1  0  0  0  0
  6  7  1  0  0  0  0
  7 25  1  6  0  0  0
  7 12  1  0  0  0  0
 10  2  1  0  0  0  0
 11 17  1  0  0  0  0
 12  8  2  0  0  0  0
 13  9  1  6  0  0  0
 13 11  1  0  0  0  0
 13 17  1  0  0  0  0
 14  3  2  0  0  0  0
 15 10  1  1  0  0  0
 15  1  1  0  0  0  0
 16  2  2  0  0  0  0
 16 12  1  0  0  0  0
 19 20  1  6  0  0  0
 19 18  1  0  0  0  0
 19 15  1  0  0  0  0
 21 20  1  0  0  0  0
 21 22  1  0  0  0  0
 22 18  1  0  0  0  0
 24 25  2  0  0  0  0
 25 23  1  0  0  0  0
M  END
>  <MODEL>
4

>  <REMARK>
 VINA RESULT:      -5.7      4.516      7.890
  Name = 
  2 active torsions:
  status: ('A' for Active; 'I' for Inactive)
    1  A    between atoms: N_7  and  C_23
    2  A    between atoms: C_12  and  C_16
                            x       y       z     vdW  Elec       q    Type
                         _______ _______ _______ _____ _____    ______ ____

>  <TORSDO>
F 2

$$$$
=
 OpenBabel11072415253D

 25 29  0  0  1  0  0  0  0  0999 V2000
  161.6110  205.1820  152.5470 C   0  0  0  0  0  2  0  0  0  0  0  0
  161.0420  205.4610  149.4360 C   0  0  0  0  0  0  0  0  0  0  0  0
  161.0360  206.9850  147.3460 C   0  0  0  0  0  0  0  0  0  0  0  0
  161.2730  206.9530  145.8620 C   0  0  0  0  0  2  0  0  0  0  0  0
  161.1840  204.0880  149.5580 C   0  0  1  0  0  3  0  0  0  0  0  0
  160.8540  205.6000  145.2490 C   0  0  0  0  0  2  0  0  0  0  0  0
  161.4620  204.3820  145.9770 C   0  0  2  0  0  3  0  0  0  0  0  0
  161.3510  203.5000  148.3510 N   0  0  0  0  0  0  0  0  0  0  0  0
  162.0780  203.8320  152.0090 C   0  0  0  0  0  2  0  0  0  0  0  0
  160.8440  206.4470  150.5430 C   0  0  0  0  0  2  0  0  0  0  0  0
  159.9190  202.9740  151.2770 O   0  0  0  0  0  0  0  0  0  0  0  0
  161.2950  204.5140  147.4630 C   0  0  0  0  0  0  0  0  0  0  0  0
  161.2070  203.3490  150.8570 C   0  0  1  0  0  0  0  0  0  0  0  0
  160.8310  208.0780  147.9360 O   0  0  0  0  0  0  0  0  0  0  0  0
  161.9560  206.3270  151.5870 C   0  0  1  0  0  3  0  0  0  0  0  0
  161.1180  205.7220  148.0880 C   0  0  0  0  0  0  0  0  0  0  0  0
  160.7820  201.9350  150.8680 C   0  0  0  0  0  2  0  0  0  0  0  0
  162.2770  208.6260  151.3880 N   0  0  0  0  0  2  0  0  0  0  0  0
  162.0960  207.5890  152.3250 N   0  0  1  0  0  0  0  0  0  0  0  0
  160.8310  207.8760  152.9940 C   0  0  0  0  0  2  0  0  0  0  0  0
  160.6360  209.3660  152.9370 C   0  0  0  0  0  2  0  0  0  0  0  0
  161.6910  209.8230  151.9720 C   0  0  0  0  0  2  0  0  0  0  0  0
  163.8950  204.6400  146.4570 O   0  0  0  0  0  1  0  0  0  0  0  0
  163.2120  203.5960  144.5340 O   0  0  0  0  0  0  0  0  0  0  0  0
  162.8980  204.1830  145.6050 C   0  0  0  0  0  0  0  0  0  0  0  0
  2  5  1  0  0  0  0
  2 10  1  0  0  0  0
  3 14  2  0  0  0  0
  3 16  1  0  0  0  0
  4  3  1  0  0  0  0
  5  8  1  1  0  0  0
  5 13  1  0  0  0  0
  6  4  1  0  0  0  0
  6  7  1  0  0  0  0
  7 25  1  1  0  0  0
  7 12  1  0  0  0  0
  9  1  1  0  0  0  0
 12 16  1  0  0  0  0
 12  8  2  0  0  0  0
 13 17  1  6  0  0  0
 13 11  1  0  0  0  0
 13  9  1  0  0  0  0
 15 10  1  6  0  0  0
 15 19  1  0  0  0  0
 15  1  1  0  0  0  0
 16  2  2  0  0  0  0
 17 11  1  0  0  0  0
 18 22  1  0  0  0  0
 18 19  1  0  0  0  0
 19 20  1  6  0  0  0
 21 20  1  0  0  0  0
 22 21  1  0  0  0  0
 24 25  2  0  0  0  0
 25 23  1  0  0  0  0
M  END
>  <MODEL>
5

>  <REMARK>
 VINA RESULT:      -5.4      0.953      1.266
  Name = 
  2 active torsions:
  status: ('A' for Active; 'I' for Inactive)
    1  A    between atoms: N_7  and  C_23
    2  A    between atoms: C_12  and  C_16
                            x       y       z     vdW  Elec       q    Type
                         _______ _______ _______ _____ _____    ______ ____

>  <TORSDO>
F 2

$$$$
=
 OpenBabel11072415253D

 25 29  0  0  1  0  0  0  0  0999 V2000
  161.4790  205.9640  150.2690 C   0  0  0  0  0  2  0  0  0  0  0  0
  161.2230  208.7900  151.6930 C   0  0  0  0  0  0  0  0  0  0  0  0
  160.8220  211.3320  151.4410 C   0  0  0  0  0  0  0  0  0  0  0  0
  160.1980  212.5040  152.1460 C   0  0  0  0  0  2  0  0  0  0  0  0
  160.9850  207.9340  152.7570 C   0  0  1  0  0  3  0  0  0  0  0  0
  160.3030  212.3670  153.6800 C   0  0  0  0  0  2  0  0  0  0  0  0
  159.7950  211.0100  154.2110 C   0  0  2  0  0  3  0  0  0  0  0  0
  160.4460  208.5930  153.8080 N   0  0  0  0  0  0  0  0  0  0  0  0
  160.7550  205.6100  151.5660 C   0  0  0  0  0  2  0  0  0  0  0  0
  161.8040  208.4320  150.3620 C   0  0  0  0  0  2  0  0  0  0  0  0
  162.5470  206.1400  153.1290 O   0  0  0  0  0  0  0  0  0  0  0  0
  160.3630  209.8770  153.4050 C   0  0  0  0  0  0  0  0  0  0  0  0
  161.2360  206.4610  152.7340 C   0  0  1  0  0  0  0  0  0  0  0  0
  161.2830  211.4610  150.2770 O   0  0  0  0  0  0  0  0  0  0  0  0
  161.0040  207.3070  149.7010 C   0  0  1  0  0  3  0  0  0  0  0  0
  160.8180  210.0320  152.1200 C   0  0  0  0  0  0  0  0  0  0  0  0
  161.5080  205.7750  154.0130 C   0  0  0  0  0  2  0  0  0  0  0  0
  162.5030  206.9140  147.9610 N   0  0  0  0  0  2  0  0  0  0  0  0
  161.1900  207.3420  148.2450 N   0  0  1  0  0  0  0  0  0  0  0  0
  160.3110  206.3450  147.6430 C   0  0  0  0  0  2  0  0  0  0  0  0
  161.0560  205.7500  146.4800 C   0  0  0  0  0  2  0  0  0  0  0  0
  162.4570  206.2590  146.6630 C   0  0  0  0  0  2  0  0  0  0  0  0
  157.6490  210.5910  155.4110 O   0  0  0  0  0  1  0  0  0  0  0  0
  157.6230  211.2590  153.2190 O   0  0  0  0  0  0  0  0  0  0  0  0
  158.2990  210.9590  154.2410 C   0  0  0  0  0  0  0  0  0  0  0  0
  1  9  1  0  0  0  0
  2 16  2  0  0  0  0
  3 16  1  0  0  0  0
  3  4  1  0  0  0  0
  4  6  1  0  0  0  0
  5  2  1  6  0  0  0
  5  8  1  0  0  0  0
  6  7  1  0  0  0  0
  7 25  1  6  0  0  0
 10  2  1  0  0  0  0
 11 17  1  0  0  0  0
 12  8  2  0  0  0  0
 12  7  1  0  0  0  0
 13  9  1  6  0  0  0
 13  5  1  0  0  0  0
 13 11  1  0  0  0  0
 13 17  1  0  0  0  0
 14  3  2  0  0  0  0
 15  1  1  1  0  0  0
 15 10  1  0  0  0  0
 16 12  1  0  0  0  0
 18 19  1  0  0  0  0
 19 20  1  6  0  0  0
 19 15  1  0  0  0  0
 21 22  1  0  0  0  0
 21 20  1  0  0  0  0
 22 18  1  0  0  0  0
 24 25  2  0  0  0  0
 25 23  1  0  0  0  0
M  END
>  <MODEL>
6

>  <REMARK>
 VINA RESULT:      -5.2      3.491      7.354
  Name = 
  2 active torsions:
  status: ('A' for Active; 'I' for Inactive)
    1  A    between atoms: N_7  and  C_23
    2  A    between atoms: C_12  and  C_16
                            x       y       z     vdW  Elec       q    Type
                         _______ _______ _______ _____ _____    ______ ____

>  <TORSDO>
F 2

$$$$
=
 OpenBabel11072415253D

 25 29  0  0  1  0  0  0  0  0999 V2000
  162.1500  206.5330  150.1540 C   0  0  0  0  0  2  0  0  0  0  0  0
  161.1190  207.8610  152.8480 C   0  0  0  0  0  0  0  0  0  0  0  0
  160.3870  207.5260  155.3050 C   0  0  0  0  0  0  0  0  0  0  0  0
  160.4240  208.1980  156.6500 C   0  0  0  0  0  2  0  0  0  0  0  0
  161.6740  208.9570  152.2070 C   0  0  0  0  0  0  0  0  0  0  0  0
  160.3460  209.7340  156.5200 C   0  0  0  0  0  2  0  0  0  0  0  0
  161.3770  210.3190  155.5310 C   0  0  2  0  0  3  0  0  0  0  0  0
  161.8460  209.9920  153.0610 N   0  0  0  0  0  0  0  0  0  0  0  0
  162.9200  207.8520  150.1830 C   0  0  0  0  0  2  0  0  0  0  0  0
  160.7870  206.5360  152.2390 C   0  0  0  0  0  2  0  0  0  0  0  0
  161.0320  209.3700  149.9240 O   0  0  0  0  0  0  0  0  0  0  0  0
  161.3770  209.5460  154.2440 C   0  0  0  0  0  0  0  0  0  0  0  0
  162.0850  208.9820  150.7700 C   0  0  1  0  0  0  0  0  0  0  0  0
  159.9480  206.3510  155.1920 O   0  0  0  0  0  0  0  0  0  0  0  0
  162.0120  205.9250  151.5550 C   0  0  1  0  0  3  0  0  0  0  0  0
  160.9350  208.2500  154.1540 C   0  0  2  0  0  3  0  0  0  0  0  0
  162.1020  210.2810  150.0670 C   0  0  0  0  0  2  0  0  0  0  0  0
  160.9340  204.0600  152.4410 N   0  0  0  0  0  2  0  0  0  0  0  0
  161.8700  204.4670  151.4690 N   0  0  1  0  0  0  0  0  0  0  0  0
  161.2700  204.1360  150.1800 C   0  0  0  0  0  2  0  0  0  0  0  0
  160.3490  202.9710  150.4120 C   0  0  0  0  0  2  0  0  0  0  0  0
  160.2650  202.8820  151.9090 C   0  0  0  0  0  2  0  0  0  0  0  0
  163.0270  209.6100  157.2600 O   0  0  0  0  0  1  0  0  0  0  0  0
  163.6480  211.0890  155.6240 O   0  0  0  0  0  0  0  0  0  0  0  0
  162.7460  210.3710  156.1340 C   0  0  0  0  0  0  0  0  0  0  0  0
  1  9  1  0  0  0  0
  3  4  1  0  0  0  0
  5  2  2  0  0  0  0
  5  8  1  0  0  0  0
  6  4  1  0  0  0  0
  7 25  1  1  0  0  0
  7  6  1  0  0  0  0
  8 12  2  0  0  0  0
  9 13  1  0  0  0  0
 10  2  1  0  0  0  0
 11 17  1  0  0  0  0
 11 13  1  0  0  0  0
 12  7  1  0  0  0  0
 13 17  1  6  0  0  0
 13  5  1  0  0  0  0
 14  3  2  0  0  0  0
 15  1  1  6  0  0  0
 15 10  1  0  0  0  0
 16  2  1  6  0  0  0
 16 12  1  0  0  0  0
 16  3  1  0  0  0  0
 19 20  1  6  0  0  0
 19 15  1  0  0  0  0
 19 18  1  0  0  0  0
 20 21  1  0  0  0  0
 21 22  1  0  0  0  0
 22 18  1  0  0  0  0
 24 25  2  0  0  0  0
 25 23  1  0  0  0  0
M  END
>  <MODEL>
7

>  <REMARK>
 VINA RESULT:      -5.2      3.504      7.799
  Name = 
  2 active torsions:
  status: ('A' for Active; 'I' for Inactive)
    1  A    between atoms: N_7  and  C_23
    2  A    between atoms: C_12  and  C_16
                            x       y       z     vdW  Elec       q    Type
                         _______ _______ _______ _____ _____    ______ ____

>  <TORSDO>
F 2

$$$$
=
 OpenBabel11072415253D

 25 29  0  0  1  0  0  0  0  0999 V2000
  160.3530  213.2660  150.5140 C   0  0  0  0  0  2  0  0  0  0  0  0
  161.3880  210.3560  151.2510 C   0  0  0  0  0  0  0  0  0  0  0  0
  161.2640  208.3410  152.8670 C   0  0  0  0  0  0  0  0  0  0  0  0
  161.3530  206.8400  152.8900 C   0  0  0  0  0  2  0  0  0  0  0  0
  161.7220  210.4250  149.9080 C   0  0  0  0  0  0  0  0  0  0  0  0
  162.3370  206.3120  151.8250 C   0  0  0  0  0  2  0  0  0  0  0  0
  162.0710  206.8730  150.4120 C   0  0  2  0  0  3  0  0  0  0  0  0
  162.0160  209.2010  149.4110 N   0  0  0  0  0  0  0  0  0  0  0  0
  160.5120  212.6200  149.1400 C   0  0  0  0  0  2  0  0  0  0  0  0
  161.0000  211.4940  152.1410 C   0  0  0  0  0  2  0  0  0  0  0  0
  162.9350  212.3600  149.1470 O   0  0  0  0  0  0  0  0  0  0  0  0
  161.8830  208.3620  150.4580 C   0  0  0  0  0  0  0  0  0  0  0  0
  161.7080  211.6760  149.0920 C   0  0  1  0  0  0  0  0  0  0  0  0
  160.9470  208.9770  153.9060 O   0  0  0  0  0  0  0  0  0  0  0  0
  159.8200  212.2720  151.5520 C   0  0  1  0  0  3  0  0  0  0  0  0
  161.4920  209.0280  151.5920 C   0  0  2  0  0  3  0  0  0  0  0  0
  162.5960  211.7590  147.9150 C   0  0  0  0  0  2  0  0  0  0  0  0
  157.8850  213.4560  152.0800 N   0  0  0  0  0  2  0  0  0  0  0  0
  159.0990  212.9800  152.6160 N   0  0  1  0  0  0  0  0  0  0  0  0
  158.7250  212.0140  153.6440 C   0  0  0  0  0  2  0  0  0  0  0  0
  157.3710  212.4220  154.1560 C   0  0  0  0  0  2  0  0  0  0  0  0
  156.9210  213.4610  153.1690 C   0  0  0  0  0  2  0  0  0  0  0  0
  160.3740  205.0470  150.3380 O   0  0  0  0  0  1  0  0  0  0  0  0
  160.3850  206.6660  148.7160 O   0  0  0  0  0  0  0  0  0  0  0  0
  160.9020  206.1960  149.7660 C   0  0  0  0  0  0  0  0  0  0  0  0
  2 16  1  0  0  0  0
  2 10  1  0  0  0  0
  3  4  1  0  0  0  0
  3 14  2  0  0  0  0
  5  2  2  0  0  0  0
  6  4  1  0  0  0  0
  7 25  1  1  0  0  0
  7 12  1  0  0  0  0
  7  6  1  0  0  0  0
  8  5  1  0  0  0  0
  8 12  2  0  0  0  0
  9  1  1  0  0  0  0
 13 17  1  6  0  0  0
 13  9  1  0  0  0  0
 13 11  1  0  0  0  0
 13  5  1  0  0  0  0
 15  1  1  6  0  0  0
 15 10  1  0  0  0  0
 15 19  1  0  0  0  0
 16 12  1  1  0  0  0
 16  3  1  0  0  0  0
 17 11  1  0  0  0  0
 18 19  1  0  0  0  0
 18 22  1  0  0  0  0
 19 20  1  1  0  0  0
 20 21  1  0  0  0  0
 22 21  1  0  0  0  0
 24 25  2  0  0  0  0
 25 23  1  0  0  0  0
M  END
>  <MODEL>
8

>  <REMARK>
 VINA RESULT:      -5.1      4.388      7.211
  Name = 
  2 active torsions:
  status: ('A' for Active; 'I' for Inactive)
    1  A    between atoms: N_7  and  C_23
    2  A    between atoms: C_12  and  C_16
                            x       y       z     vdW  Elec       q    Type
                         _______ _______ _______ _____ _____    ______ ____

>  <TORSDO>
F 2

$$$$
=
 OpenBabel11072415253D

 25 29  0  0  1  0  0  0  0  0999 V2000
  161.6910  209.3150  150.0500 C   0  0  0  0  0  2  0  0  0  0  0  0
  160.8420  209.1130  153.1020 C   0  0  0  0  0  0  0  0  0  0  0  0
  160.6930  207.6570  155.2340 C   0  0  0  0  0  0  0  0  0  0  0  0
  160.7870  207.7440  156.7320 C   0  0  0  0  0  2  0  0  0  0  0  0
  160.9470  210.4860  152.9460 C   0  0  0  0  0  0  0  0  0  0  0  0
  160.2660  209.0990  157.2560 C   0  0  0  0  0  2  0  0  0  0  0  0
  160.8960  210.3160  156.5460 C   0  0  2  0  0  3  0  0  0  0  0  0
  160.9790  211.1170  154.1420 N   0  0  0  0  0  0  0  0  0  0  0  0
  162.0580  210.6980  150.5810 C   0  0  0  0  0  2  0  0  0  0  0  0
  160.7840  208.0860  152.0170 C   0  0  0  0  0  2  0  0  0  0  0  0
  159.8110  211.4960  151.0790 O   0  0  0  0  0  0  0  0  0  0  0  0
  160.8750  210.1310  155.0560 C   0  0  0  0  0  0  0  0  0  0  0  0
  161.0660  211.1840  151.6300 C   0  0  1  0  0  0  0  0  0  0  0  0
  160.5820  206.5390  154.6670 O   0  0  0  0  0  0  0  0  0  0  0  0
  161.9840  208.2150  151.0770 C   0  0  1  0  0  3  0  0  0  0  0  0
  160.8000  208.8970  154.4600 C   0  0  2  0  0  3  0  0  0  0  0  0
  160.5950  212.5800  151.5300 C   0  0  0  0  0  2  0  0  0  0  0  0
  161.5300  205.9300  151.0870 N   0  0  0  0  0  2  0  0  0  0  0  0
  162.2370  206.9370  150.4000 N   0  0  1  0  0  0  0  0  0  0  0  0
  161.6460  206.9950  149.0670 C   0  0  0  0  0  2  0  0  0  0  0  0
  161.0980  205.6260  148.7720 C   0  0  0  0  0  2  0  0  0  0  0  0
  161.1650  204.9270  150.0990 C   0  0  0  0  0  2  0  0  0  0  0  0
  163.1470  209.5160  157.2600 O   0  0  0  0  0  1  0  0  0  0  0  0
  162.6800  211.7590  157.2510 O   0  0  0  0  0  0  0  0  0  0  0  0
  162.2840  210.5800  157.0420 C   0  0  0  0  0  0  0  0  0  0  0  0
  1  9  1  0  0  0  0
  3  4  1  0  0  0  0
  4  6  1  0  0  0  0
  5  2  2  0  0  0  0
  5  8  1  0  0  0  0
  7 25  1  1  0  0  0
  7  6  1  0  0  0  0
  8 12  2  0  0  0  0
 10  2  1  0  0  0  0
 11 17  1  0  0  0  0
 11 13  1  0  0  0  0
 12  7  1  0  0  0  0
 13  9  1  6  0  0  0
 13  5  1  0  0  0  0
 14  3  2  0  0  0  0
 15  1  1  6  0  0  0
 15 10  1  0  0  0  0
 16  2  1  6  0  0  0
 16 12  1  0  0  0  0
 16  3  1  0  0  0  0
 17 13  1  0  0  0  0
 19 20  1  6  0  0  0
 19 15  1  0  0  0  0
 19 18  1  0  0  0  0
 21 20  1  0  0  0  0
 21 22  1  0  0  0  0
 22 18  1  0  0  0  0
 25 24  2  0  0  0  0
 25 23  1  0  0  0  0
M  END
>  <MODEL>
9

>  <REMARK>
 VINA RESULT:      -4.9      4.017      8.702
  Name = 
  2 active torsions:
  status: ('A' for Active; 'I' for Inactive)
    1  A    between atoms: N_7  and  C_23
    2  A    between atoms: C_12  and  C_16
                            x       y       z     vdW  Elec       q    Type
                         _______ _______ _______ _____ _____    ______ ____

>  <TORSDO>
F 2

$$$$
