=
 OpenBabel11072413363D

 43 51  0  0  1  0  0  0  0  0999 V2000
  162.7350  210.2500  153.4820 C   0  0  0  0  0  2  0  0  0  0  0  0
  159.9770  207.5910  149.5710 C   0  0  0  0  0  1  0  0  0  0  0  0
  162.6590  209.0420  151.2270 N   0  0  1  0  0  0  0  0  0  0  0  0
  161.7360  210.1040  150.7630 C   0  0  1  0  0  3  0  0  0  0  0  0
  161.4830  210.0090  149.2510 C   0  0  2  0  0  3  0  0  0  0  0  0
  161.3170  210.6450  153.7520 C   0  0  0  0  0  0  0  0  0  0  0  0
  160.3990  210.1460  151.5030 C   0  0  0  0  0  2  0  0  0  0  0  0
  161.5080  207.6600  149.4380 C   0  0  1  0  0  0  0  0  0  0  0  0
  158.9180  210.5000  156.5950 N   0  0  0  0  0  1  0  0  0  0  0  0
  158.6360  211.2840  154.3960 N   0  0  0  0  0  0  0  0  0  0  0  0
  161.9820  207.7920  153.2150 C   0  0  0  0  0  2  0  0  0  0  0  0
  158.0980  212.3780  152.0450 S   0  0  0  0  0  0  0  0  0  0  0  0
  161.4880  207.0520  151.9920 C   0  0  0  0  0  2  0  0  0  0  0  0
  160.4700  211.1750  152.6210 C   0  0  1  0  0  3  0  0  0  0  0  0
  159.0830  211.5640  153.0650 C   0  0  0  0  0  0  0  0  0  0  0  0
  161.8960  208.7840  148.6630 O   0  0  0  0  0  0  0  0  0  0  0  0
  162.8370  208.9380  152.6840 C   0  0  2  0  0  3  0  0  0  0  0  0
  160.8160  210.4370  154.9730 C   0  0  0  0  0  3  0  0  0  0  0  0
  162.2050  207.7100  150.8240 C   0  0  2  0  0  3  0  0  0  0  0  0
  159.4170  210.7580  155.2890 C   0  0  0  0  0  0  0  0  0  0  0  0
  162.1640  211.1430  148.5510 C   0  0  0  0  0  0  0  0  0  0  0  0
  161.0300  214.0680  145.9040 N   0  0  0  0  0  0  0  0  0  0  0  0
  162.5420  212.9600  147.3110 C   0  0  0  0  0  0  0  0  0  0  0  0
  159.9470  213.1040  146.1910 C   0  0  2  0  0  0  0  0  0  0  0  0
  161.6080  211.9380  147.6540 C   0  0  0  0  0  0  0  0  0  0  0  0
  160.2080  211.9170  147.1320 C   0  0  2  0  0  3  0  0  0  0  0  0
  162.2010  214.0070  146.4120 N   0  0  0  0  0  0  0  0  0  0  0  0
  163.5600  211.6040  148.8420 C   0  0  0  0  0  2  0  0  0  0  0  0
  163.6800  212.8230  147.9660 C   0  0  0  0  0  3  0  0  0  0  0  0
  160.2030  211.7250  145.6160 C   0  0  0  0  0  2  0  0  0  0  0  0
  155.8880  214.4520  145.7930 C   0  0  0  0  0  3  0  0  0  0  0  0
  156.3600  214.0180  147.0350 C   0  0  0  0  0  3  0  0  0  0  0  0
  158.0590  214.0130  144.8140 C   0  0  0  0  0  3  0  0  0  0  0  0
  158.5410  213.5900  146.0600 C   0  0  0  0  0  0  0  0  0  0  0  0
  157.6830  213.5850  147.1680 C   0  0  0  0  0  3  0  0  0  0  0  0
  156.7370  214.4480  144.6820 C   0  0  0  0  0  3  0  0  0  0  0  0
  162.2040  203.9990  147.1590 C   0  0  0  0  0  3  0  0  0  0  0  0
  161.9820  206.5660  147.1820 C   0  0  0  0  0  2  0  0  0  0  0  0
  162.4040  205.2990  146.4990 C   0  0  0  0  0  0  0  0  0  0  0  0
  161.1510  205.1540  149.0810 C   0  0  0  0  0  2  0  0  0  0  0  0
  161.9900  206.3890  148.7110 C   0  0  2  0  0  3  0  0  0  0  0  0
  161.6520  203.9270  148.3720 C   0  0  0  0  0  3  0  0  0  0  0  0
  162.8420  205.3410  145.2860 N   0  0  0  0  0  2  0  0  0  0  0  0
  1  6  1  0  0  0  0
  3 17  1  0  0  0  0
  4  3  1  0  0  0  0
  4  7  1  0  0  0  0
  5  4  1  0  0  0  0
  6 18  2  0  0  0  0
  7 14  1  0  0  0  0
  8  2  1  0  0  0  0
  8 19  1  0  0  0  0
 10 20  2  0  0  0  0
 12 15  2  0  0  0  0
 13 11  1  0  0  0  0
 14 15  1  0  0  0  0
 14  6  1  0  0  0  0
 15 10  1  0  0  0  0
 16  5  1  0  0  0  0
 16  8  1  0  0  0  0
 17 11  1  0  0  0  0
 17  1  1  0  0  0  0
 18 20  1  0  0  0  0
 19  3  1  0  0  0  0
 19 13  1  0  0  0  0
 20  9  1  0  0  0  0
 21 28  1  0  0  0  0
 21  5  1  0  0  0  0
 22 24  1  0  0  0  0
 22 27  2  0  0  0  0
 23 25  1  0  0  0  0
 23 29  2  0  0  0  0
 24 26  1  0  0  0  0
 25 21  2  0  0  0  0
 26 25  1  0  0  0  0
 27 23  1  0  0  0  0
 29 28  1  0  0  0  0
 30 24  1  0  0  0  0
 30 26  1  0  0  0  0
 31 32  1  0  0  0  0
 32 35  2  0  0  0  0
 33 34  2  0  0  0  0
 34 24  1  0  0  0  0
 34 35  1  0  0  0  0
 36 33  1  0  0  0  0
 36 31  2  0  0  0  0
 37 42  2  0  0  0  0
 38 41  1  0  0  0  0
 39 37  1  0  0  0  0
 39 38  1  0  0  0  0
 41 40  1  0  0  0  0
 41  8  1  0  0  0  0
 42 40  1  0  0  0  0
 43 39  2  0  0  0  0
M  END
>  <MODEL>
1

>  <REMARK>
 VINA RESULT:      -1.9      0.000      0.000
  Name = 
  3 active torsions:
  status: ('A' for Active; 'I' for Inactive)
    1  A    between atoms: C_2  and  C_11
    2  A    between atoms: C_7  and  C_24
    3  A    between atoms: C_15  and  C_36
                            x       y       z     vdW  Elec       q    Type
                         _______ _______ _______ _____ _____    ______ ____

>  <TORSDO>
F 3

$$$$
=
 OpenBabel11072413363D

 43 51  0  0  1  0  0  0  0  0999 V2000
  158.3530  211.0890  153.8350 C   0  0  0  0  0  2  0  0  0  0  0  0
  162.9000  211.5000  150.8140 C   0  0  0  0  0  1  0  0  0  0  0  0
  159.6970  210.5290  151.7300 N   0  0  1  0  0  0  0  0  0  0  0  0
  160.6820  209.8660  152.6160 C   0  0  1  0  0  3  0  0  0  0  0  0
  161.7260  209.0800  151.8070 C   0  0  2  0  0  3  0  0  0  0  0  0
  159.3750  211.5270  154.8360 C   0  0  0  0  0  0  0  0  0  0  0  0
  161.3930  210.8080  153.5870 C   0  0  0  0  0  2  0  0  0  0  0  0
  161.6910  210.7870  150.1830 C   0  0  1  0  0  0  0  0  0  0  0  0
  159.8280  214.3170  157.2600 N   0  0  0  0  0  1  0  0  0  0  0  0
  161.2390  212.5140  156.7240 N   0  0  0  0  0  0  0  0  0  0  0  0
  159.2200  212.8820  152.1890 C   0  0  0  0  0  2  0  0  0  0  0  0
  162.9350  210.5010  156.4330 S   0  0  0  0  0  0  0  0  0  0  0  0
  160.3320  212.8080  151.1650 C   0  0  0  0  0  2  0  0  0  0  0  0
  160.6830  210.7800  154.9320 C   0  0  1  0  0  3  0  0  0  0  0  0
  161.5840  211.3200  156.0120 C   0  0  0  0  0  0  0  0  0  0  0  0
  161.7490  209.3900  150.4210 O   0  0  0  0  0  0  0  0  0  0  0  0
  158.7540  211.4450  152.3920 C   0  0  2  0  0  3  0  0  0  0  0  0
  159.1330  212.6230  155.5600 C   0  0  0  0  0  3  0  0  0  0  0  0
  160.3470  211.3570  150.7120 C   0  0  2  0  0  3  0  0  0  0  0  0
  160.1170  213.1350  156.5260 C   0  0  0  0  0  0  0  0  0  0  0  0
  161.4980  207.6120  151.9780 C   0  0  0  0  0  0  0  0  0  0  0  0
  160.9000  204.4200  149.4660 N   0  0  0  0  0  0  0  0  0  0  0  0
  161.2050  205.4400  151.5540 C   0  0  0  0  0  0  0  0  0  0  0  0
  160.9560  205.7110  148.7490 C   0  0  2  0  0  0  0  0  0  0  0  0
  161.2440  206.7550  151.0040 C   0  0  0  0  0  0  0  0  0  0  0  0
  161.1340  207.0180  149.5380 C   0  0  2  0  0  3  0  0  0  0  0  0
  161.0160  204.2950  150.7330 N   0  0  0  0  0  0  0  0  0  0  0  0
  161.6200  206.8790  153.2800 C   0  0  0  0  0  2  0  0  0  0  0  0
  161.4180  205.4470  152.8580 C   0  0  0  0  0  3  0  0  0  0  0  0
  159.7580  206.6010  149.0190 C   0  0  0  0  0  2  0  0  0  0  0  0
  162.2630  205.5960  144.6590 C   0  0  0  0  0  3  0  0  0  0  0  0
  161.0160  206.1420  144.9770 C   0  0  0  0  0  3  0  0  0  0  0  0
  162.6580  205.1310  147.0010 C   0  0  0  0  0  3  0  0  0  0  0  0
  161.4150  205.6900  147.3280 C   0  0  0  0  0  0  0  0  0  0  0  0
  160.5920  206.1870  146.3090 C   0  0  0  0  0  3  0  0  0  0  0  0
  163.0830  205.0880  145.6710 C   0  0  0  0  0  3  0  0  0  0  0  0
  161.5800  212.0850  146.0140 C   0  0  0  0  0  3  0  0  0  0  0  0
  162.8380  212.0120  148.2610 C   0  0  0  0  0  2  0  0  0  0  0  0
  162.8230  212.2560  146.7810 C   0  0  0  0  0  0  0  0  0  0  0  0
  160.3860  211.5090  148.1070 C   0  0  0  0  0  2  0  0  0  0  0  0
  161.7340  211.0160  148.6590 C   0  0  2  0  0  3  0  0  0  0  0  0
  160.4510  211.7070  146.6180 C   0  0  0  0  0  3  0  0  0  0  0  0
  163.8760  212.7220  146.1990 N   0  0  0  0  0  2  0  0  0  0  0  0
  1  6  1  0  0  0  0
  3 17  1  0  0  0  0
  3  4  1  0  0  0  0
  4  7  1  0  0  0  0
  5 21  1  0  0  0  0
  5  4  1  0  0  0  0
  6 14  1  0  0  0  0
  6 18  2  0  0  0  0
  7 14  1  0  0  0  0
  8 16  1  0  0  0  0
  8 19  1  0  0  0  0
  8  2  1  0  0  0  0
 11 17  1  0  0  0  0
 13 11  1  0  0  0  0
 14 15  1  0  0  0  0
 15 12  2  0  0  0  0
 15 10  1  0  0  0  0
 16  5  1  0  0  0  0
 17  1  1  0  0  0  0
 18 20  1  0  0  0  0
 19 13  1  0  0  0  0
 19  3  1  0  0  0  0
 20 10  2  0  0  0  0
 20  9  1  0  0  0  0
 21 28  1  0  0  0  0
 22 27  2  0  0  0  0
 23 29  2  0  0  0  0
 24 30  1  0  0  0  0
 24 22  1  0  0  0  0
 24 26  1  0  0  0  0
 25 23  1  0  0  0  0
 25 21  2  0  0  0  0
 26 25  1  0  0  0  0
 27 23  1  0  0  0  0
 29 28  1  0  0  0  0
 30 26  1  0  0  0  0
 31 32  2  0  0  0  0
 31 36  1  0  0  0  0
 32 35  1  0  0  0  0
 33 34  1  0  0  0  0
 34 24  1  0  0  0  0
 35 34  2  0  0  0  0
 36 33  2  0  0  0  0
 37 42  2  0  0  0  0
 37 39  1  0  0  0  0
 38 41  1  0  0  0  0
 39 38  1  0  0  0  0
 40 41  1  0  0  0  0
 41  8  1  0  0  0  0
 42 40  1  0  0  0  0
 43 39  2  0  0  0  0
M  END
>  <MODEL>
2

>  <REMARK>
 VINA RESULT:      -1.1      2.457      6.551
  Name = 
  3 active torsions:
  status: ('A' for Active; 'I' for Inactive)
    1  A    between atoms: C_2  and  C_11
    2  A    between atoms: C_7  and  C_24
    3  A    between atoms: C_15  and  C_36
                            x       y       z     vdW  Elec       q    Type
                         _______ _______ _______ _____ _____    ______ ____

>  <TORSDO>
F 3

$$$$
