=
 OpenBabel11072414133D

 28 32  0  0  1  0  0  0  0  0999 V2000
  160.8490  207.5870  153.1960 C   0  0  0  0  0  0  0  0  0  0  0  0
  162.1050  210.3360  155.3040 O   0  0  0  0  0  0  0  0  0  0  0  0
  161.7660  208.9010  156.9290 N   0  0  0  0  0  2  0  0  0  0  0  0
  161.8370  209.9890  149.7940 C   0  0  0  0  0  0  0  0  0  0  0  0
  160.3060  211.2420  152.3710 C   0  0  0  0  0  1  0  0  0  0  0  0
  161.3460  208.1180  150.8580 C   0  0  0  0  0  0  0  0  0  0  0  0
  161.1640  207.1120  151.9640 C   0  0  0  0  0  0  0  0  0  0  0  0
  161.8930  208.9140  148.8600 N   0  0  0  0  0  0  0  0  0  0  0  0
  161.0840  209.0700  153.4810 C   0  0  0  0  0  0  0  0  0  0  0  0
  161.3520  210.0970  152.3910 C   0  0  1  0  0  3  0  0  0  0  0  0
  160.4640  206.7670  154.2590 O   0  0  0  0  0  0  0  0  0  0  0  0
  161.0640  208.4280  155.8130 C   0  0  0  0  0  0  0  0  0  0  0  0
  162.5590  211.0080  149.6840 O   0  0  0  0  0  0  0  0  0  0  0  0
  162.3180  210.1400  156.6530 O   0  0  0  0  0  0  0  0  0  0  0  0
  160.6430  207.1890  155.6220 C   0  0  0  0  0  3  0  0  0  0  0  0
  161.6260  207.8300  149.4800 N   0  0  0  0  0  0  0  0  0  0  0  0
  161.3120  209.3430  154.7700 C   0  0  0  0  0  0  0  0  0  0  0  0
  161.4330  209.4190  151.0620 C   0  0  0  0  0  0  0  0  0  0  0  0
  161.8740  205.7260  151.8810 C   0  0  2  0  0  3  0  0  0  0  0  0
  163.4140  205.7150  151.9430 C   0  0  0  0  0  1  0  0  0  0  0  0
  161.0430  203.3510  151.5840 C   0  0  0  0  0  3  0  0  0  0  0  0
  160.5730  202.3780  149.4020 C   0  0  0  0  0  0  0  0  0  0  0  0
  160.0960  201.2980  148.7160 F   0  0  0  0  0  0  0  0  0  0  0  0
  161.2850  204.6020  151.0070 C   0  0  0  0  0  0  0  0  0  0  0  0
  161.0590  203.7210  147.4280 F   0  0  0  0  0  0  0  0  0  0  0  0
  161.2780  204.7040  149.6030 C   0  0  0  0  0  3  0  0  0  0  0  0
  161.0020  203.5830  148.7800 C   0  0  0  0  0  0  0  0  0  0  0  0
  160.6610  202.2620  150.7960 C   0  0  0  0  0  3  0  0  0  0  0  0
  1  9  1  0  0  0  0
  1 11  1  0  0  0  0
  2 14  1  0  0  0  0
  4 18  1  0  0  0  0
  6 18  2  0  0  0  0
  6  7  1  0  0  0  0
  7  1  2  0  0  0  0
  8 16  2  0  0  0  0
  8  4  1  0  0  0  0
  9 17  2  0  0  0  0
 10  5  1  6  0  0  0
 10  9  1  0  0  0  0
 11 15  1  0  0  0  0
 12  3  1  0  0  0  0
 13  4  2  0  0  0  0
 14  3  1  0  0  0  0
 15 12  2  0  0  0  0
 16  6  1  0  0  0  0
 17  2  1  0  0  0  0
 17 12  1  0  0  0  0
 18 10  1  0  0  0  0
 19 20  1  6  0  0  0
 19  7  1  0  0  0  0
 22 28  1  0  0  0  0
 23 22  1  0  0  0  0
 24 21  1  0  0  0  0
 24 19  1  0  0  0  0
 25 27  1  0  0  0  0
 26 24  2  0  0  0  0
 27 22  2  0  0  0  0
 27 26  1  0  0  0  0
 28 21  2  0  0  0  0
M  END
>  <MODEL>
1

>  <REMARK>
 VINA RESULT:      -9.4      0.000      0.000
  Name = 
  2 active torsions:
  status: ('A' for Active; 'I' for Inactive)
    1  A    between atoms: C_4  and  C_12
    2  A    between atoms: C_4  and  C_15
                            x       y       z     vdW  Elec       q    Type
                         _______ _______ _______ _____ _____    ______ ____

>  <TORSDO>
F 2

$$$$
=
 OpenBabel11072414133D

 28 32  0  0  1  0  0  0  0  0999 V2000
  160.6670  205.7810  148.8690 C   0  0  2  0  0  3  0  0  0  0  0  0
  162.3110  203.6310  146.3690 O   0  0  0  0  0  0  0  0  0  0  0  0
  162.1670  205.4240  145.1110 N   0  0  0  0  0  2  0  0  0  0  0  0
  161.2230  202.6120  151.6910 C   0  0  0  0  0  0  0  0  0  0  0  0
  160.1300  202.0380  148.6850 C   0  0  0  0  0  1  0  0  0  0  0  0
  160.8320  204.6890  151.0540 C   0  0  0  0  0  0  0  0  0  0  0  0
  160.7820  205.9370  150.2130 C   0  0  0  0  0  0  0  0  0  0  0  0
  161.1050  203.4230  152.8570 N   0  0  0  0  0  0  0  0  0  0  0  0
  160.9910  204.4130  148.2700 C   0  0  0  0  0  0  0  0  0  0  0  0
  161.1290  203.1490  149.1040 C   0  0  0  0  0  0  0  0  0  0  0  0
  160.4160  206.8390  147.9930 O   0  0  0  0  0  0  0  0  0  0  0  0
  161.2930  205.6100  146.1900 C   0  0  0  0  0  0  0  0  0  0  0  0
  161.9550  201.5930  151.6560 O   0  0  0  0  0  0  0  0  0  0  0  0
  162.7140  204.1530  145.1560 O   0  0  0  0  0  0  0  0  0  0  0  0
  160.8080  206.7650  146.6120 C   0  0  0  0  0  3  0  0  0  0  0  0
  160.8970  204.6270  152.4870 N   0  0  0  0  0  0  0  0  0  0  0  0
  161.4150  204.4660  147.0030 C   0  0  0  0  0  0  0  0  0  0  0  0
  160.9920  203.4780  150.5540 C   0  0  0  0  0  0  0  0  0  0  0  0
  161.4250  207.2570  150.7380 C   0  0  2  0  0  3  0  0  0  0  0  0
  162.9360  207.4490  150.5030 C   0  0  0  0  0  1  0  0  0  0  0  0
  160.6000  209.2670  152.0390 C   0  0  0  0  0  3  0  0  0  0  0  0
  160.3490  209.2620  154.4620 C   0  0  0  0  0  0  0  0  0  0  0  0
  159.9320  209.9510  155.5640 F   0  0  0  0  0  0  0  0  0  0  0  0
  160.9160  207.9050  152.0400 C   0  0  0  0  0  0  0  0  0  0  0  0
  161.0570  207.2720  155.6750 F   0  0  0  0  0  0  0  0  0  0  0  0
  161.0590  207.2510  153.2780 C   0  0  0  0  0  3  0  0  0  0  0  0
  160.8560  207.9340  154.5040 C   0  0  0  0  0  0  0  0  0  0  0  0
  160.2880  209.9290  153.2310 C   0  0  0  0  0  3  0  0  0  0  0  0
  1 11  1  6  0  0  0
  1  7  1  0  0  0  0
  2 17  1  0  0  0  0
  3 14  1  0  0  0  0
  3 12  1  0  0  0  0
  4  8  1  0  0  0  0
  5 10  1  0  0  0  0
  6 16  1  0  0  0  0
  7 19  1  0  0  0  0
  7  6  2  0  0  0  0
  9  1  1  0  0  0  0
  9 10  1  0  0  0  0
 10 18  2  0  0  0  0
 12 15  2  0  0  0  0
 12 17  1  0  0  0  0
 13  4  2  0  0  0  0
 14  2  1  0  0  0  0
 15 11  1  0  0  0  0
 16  8  2  0  0  0  0
 17  9  2  0  0  0  0
 18  6  1  0  0  0  0
 18  4  1  0  0  0  0
 19 20  1  1  0  0  0
 19 24  1  0  0  0  0
 21 24  2  0  0  0  0
 21 28  1  0  0  0  0
 22 27  1  0  0  0  0
 22 23  1  0  0  0  0
 24 26  1  0  0  0  0
 26 27  2  0  0  0  0
 27 25  1  0  0  0  0
 28 22  2  0  0  0  0
M  END
>  <MODEL>
2

>  <REMARK>
 VINA RESULT:      -8.9      4.241      7.832
  Name = 
  2 active torsions:
  status: ('A' for Active; 'I' for Inactive)
    1  A    between atoms: C_4  and  C_12
    2  A    between atoms: C_4  and  C_15
                            x       y       z     vdW  Elec       q    Type
                         _______ _______ _______ _____ _____    ______ ____

>  <TORSDO>
F 2

$$$$
=
 OpenBabel11072414133D

 28 32  0  0  1  0  0  0  0  0999 V2000
  161.0960  205.7210  148.9300 C   0  0  0  0  0  0  0  0  0  0  0  0
  162.3590  203.7810  146.0620 O   0  0  0  0  0  0  0  0  0  0  0  0
  162.6120  205.7670  145.1610 N   0  0  0  0  0  2  0  0  0  0  0  0
  160.9260  202.0410  151.1080 C   0  0  0  0  0  0  0  0  0  0  0  0
  159.8350  202.2600  148.0560 C   0  0  0  0  0  1  0  0  0  0  0  0
  160.9740  204.2350  150.8720 C   0  0  0  0  0  0  0  0  0  0  0  0
  161.1980  205.6010  150.2780 C   0  0  0  0  0  0  0  0  0  0  0  0
  160.9350  202.6320  152.4060 N   0  0  0  0  0  0  0  0  0  0  0  0
  161.1620  204.4490  148.0840 C   0  0  0  0  0  0  0  0  0  0  0  0
  161.0210  203.0520  148.6670 C   0  0  1  0  0  3  0  0  0  0  0  0
  161.0870  206.9500  148.2670 O   0  0  0  0  0  0  0  0  0  0  0  0
  161.7590  205.9230  146.2610 C   0  0  0  0  0  0  0  0  0  0  0  0
  161.4420  200.9210  150.8800 O   0  0  0  0  0  0  0  0  0  0  0  0
  162.8950  204.4260  144.9650 O   0  0  0  0  0  0  0  0  0  0  0  0
  161.4990  207.0540  146.8940 C   0  0  0  0  0  3  0  0  0  0  0  0
  160.9810  203.9000  152.2680 N   0  0  0  0  0  0  0  0  0  0  0  0
  161.6270  204.6480  146.8460 C   0  0  0  0  0  0  0  0  0  0  0  0
  160.9060  203.1300  150.1540 C   0  0  0  0  0  0  0  0  0  0  0  0
  162.0730  206.6460  151.0350 C   0  0  2  0  0  3  0  0  0  0  0  0
  163.0460  206.1110  152.1040 C   0  0  0  0  0  1  0  0  0  0  0  0
  161.9930  209.1480  150.6500 C   0  0  0  0  0  3  0  0  0  0  0  0
  160.8260  210.6790  152.1430 C   0  0  0  0  0  0  0  0  0  0  0  0
  160.4350  211.9660  152.3740 F   0  0  0  0  0  0  0  0  0  0  0  0
  161.5110  208.0430  151.3590 C   0  0  0  0  0  0  0  0  0  0  0  0
  159.8180  209.7550  154.1590 F   0  0  0  0  0  0  0  0  0  0  0  0
  160.7730  208.2720  152.5360 C   0  0  0  0  0  3  0  0  0  0  0  0
  160.4880  209.5850  152.9880 C   0  0  0  0  0  0  0  0  0  0  0  0
  161.6290  210.4470  151.0180 C   0  0  0  0  0  3  0  0  0  0  0  0
  1  7  2  0  0  0  0
  2 17  1  0  0  0  0
  3 12  1  0  0  0  0
  4  8  1  0  0  0  0
  6 16  1  0  0  0  0
  7  6  1  0  0  0  0
  7 19  1  0  0  0  0
  9 10  1  0  0  0  0
  9  1  1  0  0  0  0
 10  5  1  6  0  0  0
 10 18  1  0  0  0  0
 11  1  1  0  0  0  0
 12 17  1  0  0  0  0
 12 15  2  0  0  0  0
 13  4  2  0  0  0  0
 14  3  1  0  0  0  0
 14  2  1  0  0  0  0
 15 11  1  0  0  0  0
 16  8  2  0  0  0  0
 17  9  2  0  0  0  0
 18  6  2  0  0  0  0
 18  4  1  0  0  0  0
 19 24  1  0  0  0  0
 19 20  1  1  0  0  0
 21 28  2  0  0  0  0
 21 24  1  0  0  0  0
 22 23  1  0  0  0  0
 22 27  2  0  0  0  0
 24 26  2  0  0  0  0
 26 27  1  0  0  0  0
 27 25  1  0  0  0  0
 28 22  1  0  0  0  0
M  END
>  <MODEL>
3

>  <REMARK>
 VINA RESULT:      -8.1      4.301      7.942
  Name = 
  2 active torsions:
  status: ('A' for Active; 'I' for Inactive)
    1  A    between atoms: C_4  and  C_12
    2  A    between atoms: C_4  and  C_15
                            x       y       z     vdW  Elec       q    Type
                         _______ _______ _______ _____ _____    ______ ____

>  <TORSDO>
F 2

$$$$
=
 OpenBabel11072414133D

 28 32  0  0  1  0  0  0  0  0999 V2000
  162.0320  208.3620  150.2530 C   0  0  2  0  0  3  0  0  0  0  0  0
  160.8770  211.8150  150.8170 O   0  0  0  0  0  0  0  0  0  0  0  0
  161.2480  212.0170  148.6640 N   0  0  0  0  0  2  0  0  0  0  0  0
  160.9700  207.5380  154.3160 C   0  0  0  0  0  0  0  0  0  0  0  0
  162.5960  210.2290  153.4980 C   0  0  0  0  0  1  0  0  0  0  0  0
  161.4690  207.0280  152.2270 C   0  0  0  0  0  0  0  0  0  0  0  0
  161.6720  207.1470  150.7400 C   0  0  0  0  0  0  0  0  0  0  0  0
  160.8710  206.1240  154.1640 N   0  0  0  0  0  0  0  0  0  0  0  0
  161.8240  209.5870  151.1430 C   0  0  0  0  0  0  0  0  0  0  0  0
  161.5360  209.4960  152.6340 C   0  0  0  0  0  0  0  0  0  0  0  0
  162.4390  208.5700  148.9330 O   0  0  0  0  0  0  0  0  0  0  0  0
  161.9090  210.8560  149.0850 C   0  0  0  0  0  0  0  0  0  0  0  0
  160.2570  208.1740  155.1300 O   0  0  0  0  0  0  0  0  0  0  0  0
  160.7030  212.6760  149.7520 O   0  0  0  0  0  0  0  0  0  0  0  0
  162.3080  209.8600  148.3130 C   0  0  0  0  0  3  0  0  0  0  0  0
  161.1420  205.8320  152.9520 N   0  0  0  0  0  0  0  0  0  0  0  0
  161.6400  210.7230  150.4620 C   0  0  0  0  0  0  0  0  0  0  0  0
  161.4050  208.0650  153.0400 C   0  0  0  0  0  0  0  0  0  0  0  0
  160.9430  206.1650  149.7730 C   0  0  2  0  0  3  0  0  0  0  0  0
  160.5440  204.7850  150.3350 C   0  0  0  0  0  1  0  0  0  0  0  0
  160.3110  206.4590  147.3380 C   0  0  0  0  0  3  0  0  0  0  0  0
  161.7480  205.7480  145.5040 C   0  0  0  0  0  0  0  0  0  0  0  0
  161.9360  205.7170  144.1530 F   0  0  0  0  0  0  0  0  0  0  0  0
  161.2990  206.1400  148.2750 C   0  0  0  0  0  0  0  0  0  0  0  0
  163.8140  204.5840  146.0630 F   0  0  0  0  0  0  0  0  0  0  0  0
  162.4750  205.5140  147.8200 C   0  0  0  0  0  3  0  0  0  0  0  0
  162.6840  205.2380  146.4460 C   0  0  0  0  0  0  0  0  0  0  0  0
  160.5440  206.2970  145.9690 C   0  0  0  0  0  3  0  0  0  0  0  0
  1 11  1  6  0  0  0
  1  7  1  0  0  0  0
  1  9  1  0  0  0  0
  3 12  1  0  0  0  0
  3 14  1  0  0  0  0
  4 13  2  0  0  0  0
  6 16  1  0  0  0  0
  6 18  1  0  0  0  0
  7  6  2  0  0  0  0
  8  4  1  0  0  0  0
  9 10  1  0  0  0  0
 10 18  2  0  0  0  0
 10  5  1  0  0  0  0
 12 17  1  0  0  0  0
 14  2  1  0  0  0  0
 15 11  1  0  0  0  0
 15 12  2  0  0  0  0
 16  8  2  0  0  0  0
 17  2  1  0  0  0  0
 17  9  2  0  0  0  0
 18  4  1  0  0  0  0
 19 20  1  1  0  0  0
 19  7  1  0  0  0  0
 21 24  1  0  0  0  0
 22 28  1  0  0  0  0
 22 27  2  0  0  0  0
 23 22  1  0  0  0  0
 24 19  1  0  0  0  0
 25 27  1  0  0  0  0
 26 24  2  0  0  0  0
 27 26  1  0  0  0  0
 28 21  2  0  0  0  0
M  END
>  <MODEL>
4

>  <REMARK>
 VINA RESULT:      -7.4      2.425      4.935
  Name = 
  2 active torsions:
  status: ('A' for Active; 'I' for Inactive)
    1  A    between atoms: C_4  and  C_12
    2  A    between atoms: C_4  and  C_15
                            x       y       z     vdW  Elec       q    Type
                         _______ _______ _______ _____ _____    ______ ____

>  <TORSDO>
F 2

$$$$
=
 OpenBabel11072414133D

 28 32  0  0  1  0  0  0  0  0999 V2000
  161.9970  209.5890  152.3630 C   0  0  0  0  0  0  0  0  0  0  0  0
  160.0180  207.4320  154.6020 O   0  0  0  0  0  0  0  0  0  0  0  0
  160.3370  209.0660  156.0340 N   0  0  0  0  0  2  0  0  0  0  0  0
  161.1550  206.7960  149.2310 C   0  0  0  0  0  0  0  0  0  0  0  0
  162.0660  205.8080  152.1890 C   0  0  0  0  0  1  0  0  0  0  0  0
  161.7750  208.7380  150.0780 C   0  0  0  0  0  0  0  0  0  0  0  0
  161.9480  209.8850  151.0400 C   0  0  0  0  0  0  0  0  0  0  0  0
  161.4110  207.6940  148.1540 N   0  0  0  0  0  0  0  0  0  0  0  0
  161.4880  208.2210  152.8180 C   0  0  0  0  0  0  0  0  0  0  0  0
  161.2250  207.0690  151.8600 C   0  0  1  0  0  3  0  0  0  0  0  0
  162.3450  210.5190  153.3450 O   0  0  0  0  0  0  0  0  0  0  0  0
  161.2630  209.2430  154.9980 C   0  0  0  0  0  0  0  0  0  0  0  0
  160.3030  205.8790  149.1480 O   0  0  0  0  0  0  0  0  0  0  0  0
  159.6400  207.8830  155.8510 O   0  0  0  0  0  0  0  0  0  0  0  0
  161.9000  210.3630  154.7030 C   0  0  0  0  0  3  0  0  0  0  0  0
  161.7520  208.8220  148.6450 N   0  0  0  0  0  0  0  0  0  0  0  0
  161.0300  208.2050  154.0740 C   0  0  0  0  0  0  0  0  0  0  0  0
  161.4510  207.5150  150.4520 C   0  0  0  0  0  0  0  0  0  0  0  0
  161.4900  211.3180  150.6330 C   0  0  2  0  0  3  0  0  0  0  0  0
  160.2210  211.8740  151.3100 C   0  0  0  0  0  1  0  0  0  0  0  0
  162.9810  211.9000  148.6700 C   0  0  0  0  0  3  0  0  0  0  0  0
  162.1720  213.0790  146.6980 C   0  0  0  0  0  0  0  0  0  0  0  0
  162.4680  213.5470  145.4510 F   0  0  0  0  0  0  0  0  0  0  0  0
  161.6850  211.8170  149.1880 C   0  0  0  0  0  0  0  0  0  0  0  0
  159.8570  213.8410  146.6980 F   0  0  0  0  0  0  0  0  0  0  0  0
  160.6460  212.4740  148.5020 C   0  0  0  0  0  3  0  0  0  0  0  0
  160.8850  213.1780  147.2950 C   0  0  0  0  0  0  0  0  0  0  0  0
  163.2170  212.4940  147.4260 C   0  0  0  0  0  3  0  0  0  0  0  0
  1  9  1  0  0  0  0
  1 11  1  0  0  0  0
  2 14  1  0  0  0  0
  4 18  1  0  0  0  0
  6 18  2  0  0  0  0
  6  7  1  0  0  0  0
  7  1  2  0  0  0  0
  8 16  2  0  0  0  0
  8  4  1  0  0  0  0
  9 17  2  0  0  0  0
 10  5  1  1  0  0  0
 10  9  1  0  0  0  0
 11 15  1  0  0  0  0
 12  3  1  0  0  0  0
 13  4  2  0  0  0  0
 14  3  1  0  0  0  0
 15 12  2  0  0  0  0
 16  6  1  0  0  0  0
 17  2  1  0  0  0  0
 17 12  1  0  0  0  0
 18 10  1  0  0  0  0
 19  7  1  0  0  0  0
 19 20  1  6  0  0  0
 21 24  1  0  0  0  0
 22 27  2  0  0  0  0
 22 28  1  0  0  0  0
 23 22  1  0  0  0  0
 24 19  1  0  0  0  0
 25 27  1  0  0  0  0
 26 24  2  0  0  0  0
 27 26  1  0  0  0  0
 28 21  2  0  0  0  0
M  END
>  <MODEL>
5

>  <REMARK>
 VINA RESULT:      -6.7      3.656      6.181
  Name = 
  2 active torsions:
  status: ('A' for Active; 'I' for Inactive)
    1  A    between atoms: C_4  and  C_12
    2  A    between atoms: C_4  and  C_15
                            x       y       z     vdW  Elec       q    Type
                         _______ _______ _______ _____ _____    ______ ____

>  <TORSDO>
F 2

$$$$
=
 OpenBabel11072414133D

 28 32  0  0  1  0  0  0  0  0999 V2000
  161.5810  210.2770  151.2150 C   0  0  2  0  0  3  0  0  0  0  0  0
  158.5900  211.0740  153.2140 O   0  0  0  0  0  0  0  0  0  0  0  0
  158.5280  212.8570  151.9370 N   0  0  0  0  0  2  0  0  0  0  0  0
  161.6950  206.5010  153.2260 C   0  0  0  0  0  0  0  0  0  0  0  0
  161.1900  209.2730  154.8440 C   0  0  0  0  0  1  0  0  0  0  0  0
  162.1830  207.9400  151.6250 C   0  0  0  0  0  0  0  0  0  0  0  0
  162.1120  209.1350  150.7100 C   0  0  0  0  0  0  0  0  0  0  0  0
  162.4860  205.8310  152.2470 N   0  0  0  0  0  0  0  0  0  0  0  0
  160.7480  210.1850  152.4930 C   0  0  0  0  0  0  0  0  0  0  0  0
  160.7370  208.9590  153.3940 C   0  0  0  0  0  0  0  0  0  0  0  0
  161.6290  211.5050  150.5500 O   0  0  0  0  0  0  0  0  0  0  0  0
  159.8080  212.3040  151.8050 C   0  0  0  0  0  0  0  0  0  0  0  0
  160.8310  205.9030  153.9110 O   0  0  0  0  0  0  0  0  0  0  0  0
  157.8070  212.1650  152.8950 O   0  0  0  0  0  0  0  0  0  0  0  0
  160.6580  212.5300  150.8170 C   0  0  0  0  0  3  0  0  0  0  0  0
  162.7520  206.6590  151.3130 N   0  0  0  0  0  0  0  0  0  0  0  0
  159.8250  211.1460  152.6070 C   0  0  0  0  0  0  0  0  0  0  0  0
  161.5700  207.8770  152.7920 C   0  0  0  0  0  0  0  0  0  0  0  0
  162.0590  208.9310  149.1650 C   0  0  2  0  0  3  0  0  0  0  0  0
  161.5810  210.1210  148.3100 C   0  0  0  0  0  1  0  0  0  0  0  0
  160.7120  206.7860  149.2160 C   0  0  0  0  0  3  0  0  0  0  0  0
  161.2120  204.8770  147.7890 C   0  0  0  0  0  0  0  0  0  0  0  0
  160.8320  203.6300  147.3820 F   0  0  0  0  0  0  0  0  0  0  0  0
  161.6850  207.5580  148.5740 C   0  0  0  0  0  0  0  0  0  0  0  0
  163.1790  205.0100  146.3580 F   0  0  0  0  0  0  0  0  0  0  0  0
  162.5010  206.9390  147.6080 C   0  0  0  0  0  3  0  0  0  0  0  0
  162.3310  205.5760  147.2590 C   0  0  0  0  0  0  0  0  0  0  0  0
  160.4560  205.4740  148.8080 C   0  0  0  0  0  3  0  0  0  0  0  0
  1 11  1  6  0  0  0
  1  9  1  0  0  0  0
  3 14  1  0  0  0  0
  4 13  2  0  0  0  0
  6 18  1  0  0  0  0
  7  1  1  0  0  0  0
  7  6  2  0  0  0  0
  8  4  1  0  0  0  0
  9 17  2  0  0  0  0
  9 10  1  0  0  0  0
 10  5  1  0  0  0  0
 11 15  1  0  0  0  0
 12  3  1  0  0  0  0
 12 17  1  0  0  0  0
 14  2  1  0  0  0  0
 15 12  2  0  0  0  0
 16  6  1  0  0  0  0
 16  8  2  0  0  0  0
 17  2  1  0  0  0  0
 18  4  1  0  0  0  0
 18 10  2  0  0  0  0
 19 20  1  6  0  0  0
 19  7  1  0  0  0  0
 22 28  2  0  0  0  0
 23 22  1  0  0  0  0
 24 19  1  0  0  0  0
 24 21  2  0  0  0  0
 25 27  1  0  0  0  0
 26 24  1  0  0  0  0
 27 26  2  0  0  0  0
 27 22  1  0  0  0  0
 28 21  1  0  0  0  0
M  END
>  <MODEL>
6

>  <REMARK>
 VINA RESULT:      -6.5      2.482      4.313
  Name = 
  2 active torsions:
  status: ('A' for Active; 'I' for Inactive)
    1  A    between atoms: C_4  and  C_12
    2  A    between atoms: C_4  and  C_15
                            x       y       z     vdW  Elec       q    Type
                         _______ _______ _______ _____ _____    ______ ____

>  <TORSDO>
F 2

$$$$
=
 OpenBabel11072414133D

 28 32  0  0  1  0  0  0  0  0999 V2000
  162.0910  207.8980  150.2670 C   0  0  2  0  0  3  0  0  0  0  0  0
  161.2090  211.4740  150.1410 O   0  0  0  0  0  0  0  0  0  0  0  0
  161.6660  211.2470  148.0060 N   0  0  0  0  0  2  0  0  0  0  0  0
  160.8320  207.9200  154.3570 C   0  0  0  0  0  0  0  0  0  0  0  0
  162.7020  210.2830  153.1430 C   0  0  0  0  0  1  0  0  0  0  0  0
  161.3550  206.9980  152.4210 C   0  0  0  0  0  0  0  0  0  0  0  0
  161.6160  206.8250  150.9480 C   0  0  0  0  0  0  0  0  0  0  0  0
  160.6210  206.5140  154.4590 N   0  0  0  0  0  0  0  0  0  0  0  0
  161.9570  209.2790  150.9090 C   0  0  0  0  0  0  0  0  0  0  0  0
  161.6140  209.4870  152.3760 C   0  0  0  0  0  0  0  0  0  0  0  0
  162.5570  207.8280  148.9520 O   0  0  0  0  0  0  0  0  0  0  0  0
  162.2140  210.1370  148.6620 C   0  0  0  0  0  0  0  0  0  0  0  0
  160.1480  208.7470  155.0070 O   0  0  0  0  0  0  0  0  0  0  0  0
  161.1420  212.1340  148.9310 O   0  0  0  0  0  0  0  0  0  0  0  0
  162.5530  208.9880  148.1030 C   0  0  0  0  0  3  0  0  0  0  0  0
  160.9060  205.9840  153.3340 N   0  0  0  0  0  0  0  0  0  0  0  0
  161.8900  210.2810  150.0260 C   0  0  0  0  0  0  0  0  0  0  0  0
  161.3510  208.1690  153.0290 C   0  0  0  0  0  0  0  0  0  0  0  0
  160.8390  205.7390  150.1420 C   0  0  2  0  0  3  0  0  0  0  0  0
  160.4560  204.4450  150.8860 C   0  0  0  0  0  1  0  0  0  0  0  0
  162.3300  204.9110  148.2680 C   0  0  0  0  0  3  0  0  0  0  0  0
  161.9250  205.4400  145.9250 C   0  0  0  0  0  0  0  0  0  0  0  0
  162.3080  205.2380  144.6310 F   0  0  0  0  0  0  0  0  0  0  0  0
  161.1310  205.5250  148.6450 C   0  0  0  0  0  0  0  0  0  0  0  0
  160.0810  206.9430  145.4000 F   0  0  0  0  0  0  0  0  0  0  0  0
  160.3860  206.1990  147.6580 C   0  0  0  0  0  3  0  0  0  0  0  0
  160.8080  206.2340  146.3060 C   0  0  0  0  0  0  0  0  0  0  0  0
  162.7060  204.8400  146.9240 C   0  0  0  0  0  3  0  0  0  0  0  0
  1 11  1  6  0  0  0
  1  9  1  0  0  0  0
  1  7  1  0  0  0  0
  3 12  1  0  0  0  0
  3 14  1  0  0  0  0
  4  8  1  0  0  0  0
  4 13  2  0  0  0  0
  6 18  1  0  0  0  0
  6 16  1  0  0  0  0
  7  6  2  0  0  0  0
  9 10  1  0  0  0  0
 10 18  2  0  0  0  0
 10  5  1  0  0  0  0
 12 17  1  0  0  0  0
 14  2  1  0  0  0  0
 15 12  2  0  0  0  0
 15 11  1  0  0  0  0
 16  8  2  0  0  0  0
 17  2  1  0  0  0  0
 17  9  2  0  0  0  0
 18  4  1  0  0  0  0
 19 20  1  1  0  0  0
 19  7  1  0  0  0  0
 21 24  1  0  0  0  0
 22 27  2  0  0  0  0
 22 28  1  0  0  0  0
 23 22  1  0  0  0  0
 24 19  1  0  0  0  0
 25 27  1  0  0  0  0
 26 24  2  0  0  0  0
 27 26  1  0  0  0  0
 28 21  2  0  0  0  0
M  END
>  <MODEL>
7

>  <REMARK>
 VINA RESULT:      -6.5      2.295      4.901
  Name = 
  2 active torsions:
  status: ('A' for Active; 'I' for Inactive)
    1  A    between atoms: C_4  and  C_12
    2  A    between atoms: C_4  and  C_15
                            x       y       z     vdW  Elec       q    Type
                         _______ _______ _______ _____ _____    ______ ____

>  <TORSDO>
F 2

$$$$
=
 OpenBabel11072414133D

 28 32  0  0  1  0  0  0  0  0999 V2000
  162.0800  208.2890  150.0830 C   0  0  2  0  0  3  0  0  0  0  0  0
  160.7160  211.4710  151.3430 O   0  0  0  0  0  0  0  0  0  0  0  0
  161.1150  212.1550  149.2960 N   0  0  0  0  0  2  0  0  0  0  0  0
  160.9920  206.5470  153.8390 C   0  0  0  0  0  0  0  0  0  0  0  0
  162.4740  209.4340  153.6700 C   0  0  0  0  0  1  0  0  0  0  0  0
  161.5600  206.5300  151.7050 C   0  0  0  0  0  0  0  0  0  0  0  0
  161.7830  206.9800  150.2850 C   0  0  0  0  0  0  0  0  0  0  0  0
  160.9790  205.1970  153.3820 N   0  0  0  0  0  0  0  0  0  0  0  0
  161.7850  209.2790  151.2100 C   0  0  0  0  0  0  0  0  0  0  0  0
  161.4750  208.8520  152.6360 C   0  0  0  0  0  0  0  0  0  0  0  0
  162.4990  208.7990  148.8530 O   0  0  0  0  0  0  0  0  0  0  0  0
  161.8340  210.9670  149.4780 C   0  0  0  0  0  0  0  0  0  0  0  0
  160.2290  206.9530  154.7470 O   0  0  0  0  0  0  0  0  0  0  0  0
  160.5120  212.5320  150.4840 O   0  0  0  0  0  0  0  0  0  0  0  0
  162.3040  210.1850  148.5210 C   0  0  0  0  0  3  0  0  0  0  0  0
  161.2890  205.1900  152.1440 N   0  0  0  0  0  0  0  0  0  0  0  0
  161.5480  210.5240  150.7840 C   0  0  0  0  0  0  0  0  0  0  0  0
  161.4200  207.3620  152.7200 C   0  0  0  0  0  0  0  0  0  0  0  0
  161.1300  206.1940  149.1080 C   0  0  2  0  0  3  0  0  0  0  0  0
  159.7640  206.6910  148.5960 C   0  0  0  0  0  1  0  0  0  0  0  0
  161.6200  204.1110  147.7510 C   0  0  0  0  0  3  0  0  0  0  0  0
  161.2800  201.8590  148.6160 C   0  0  0  0  0  0  0  0  0  0  0  0
  161.4190  200.5210  148.3900 F   0  0  0  0  0  0  0  0  0  0  0  0
  161.3110  204.6680  148.9960 C   0  0  0  0  0  0  0  0  0  0  0  0
  160.2960  201.6290  150.8340 F   0  0  0  0  0  0  0  0  0  0  0  0
  160.8730  203.8100  150.0230 C   0  0  0  0  0  3  0  0  0  0  0  0
  160.7750  202.4100  149.8270 C   0  0  0  0  0  0  0  0  0  0  0  0
  161.6360  202.7240  147.5720 C   0  0  0  0  0  3  0  0  0  0  0  0
  1 11  1  6  0  0  0
  1  7  1  0  0  0  0
  1  9  1  0  0  0  0
  3 12  1  0  0  0  0
  3 14  1  0  0  0  0
  4 13  2  0  0  0  0
  6 16  1  0  0  0  0
  6 18  1  0  0  0  0
  7  6  2  0  0  0  0
  8  4  1  0  0  0  0
  9 10  1  0  0  0  0
 10 18  2  0  0  0  0
 10  5  1  0  0  0  0
 12 17  1  0  0  0  0
 14  2  1  0  0  0  0
 15 11  1  0  0  0  0
 15 12  2  0  0  0  0
 16  8  2  0  0  0  0
 17  9  2  0  0  0  0
 17  2  1  0  0  0  0
 18  4  1  0  0  0  0
 19 20  1  1  0  0  0
 19  7  1  0  0  0  0
 21 24  1  0  0  0  0
 22 27  2  0  0  0  0
 23 22  1  0  0  0  0
 24 19  1  0  0  0  0
 24 26  2  0  0  0  0
 27 26  1  0  0  0  0
 27 25  1  0  0  0  0
 28 21  2  0  0  0  0
 28 22  1  0  0  0  0
M  END
>  <MODEL>
8

>  <REMARK>
 VINA RESULT:      -6.5      2.253      4.458
  Name = 
  2 active torsions:
  status: ('A' for Active; 'I' for Inactive)
    1  A    between atoms: C_4  and  C_12
    2  A    between atoms: C_4  and  C_15
                            x       y       z     vdW  Elec       q    Type
                         _______ _______ _______ _____ _____    ______ ____

>  <TORSDO>
F 2

$$$$
=
 OpenBabel11072414133D

 28 32  0  0  1  0  0  0  0  0999 V2000
  162.2820  207.9730  151.0150 C   0  0  2  0  0  3  0  0  0  0  0  0
  159.9370  209.0030  153.6640 O   0  0  0  0  0  0  0  0  0  0  0  0
  160.6540  211.0150  153.1590 N   0  0  0  0  0  2  0  0  0  0  0  0
  160.7480  204.0020  151.4550 C   0  0  0  0  0  0  0  0  0  0  0  0
  161.4990  205.8280  154.0350 C   0  0  0  0  0  1  0  0  0  0  0  0
  161.8100  205.6430  150.4300 C   0  0  0  0  0  0  0  0  0  0  0  0
  162.2630  207.0260  150.0420 C   0  0  0  0  0  0  0  0  0  0  0  0
  161.1670  203.5340  150.1750 N   0  0  0  0  0  0  0  0  0  0  0  0
  161.4930  207.7080  152.2980 C   0  0  0  0  0  0  0  0  0  0  0  0
  160.9520  206.3380  152.6760 C   0  0  0  0  0  0  0  0  0  0  0  0
  162.8580  209.2340  150.8470 O   0  0  0  0  0  0  0  0  0  0  0  0
  161.5660  210.1060  152.6090 C   0  0  0  0  0  0  0  0  0  0  0  0
  159.7110  203.5740  152.0160 O   0  0  0  0  0  0  0  0  0  0  0  0
  159.7060  210.3420  153.9100 O   0  0  0  0  0  0  0  0  0  0  0  0
  162.4290  210.3550  151.6380 C   0  0  0  0  0  3  0  0  0  0  0  0
  161.7650  204.4890  149.5760 N   0  0  0  0  0  0  0  0  0  0  0  0
  161.0800  208.8190  152.9160 C   0  0  0  0  0  0  0  0  0  0  0  0
  161.2320  205.3600  151.5820 C   0  0  0  0  0  0  0  0  0  0  0  0
  162.1250  207.5060  148.5650 C   0  0  2  0  0  3  0  0  0  0  0  0
  161.5810  208.9300  148.3320 C   0  0  0  0  0  1  0  0  0  0  0  0
  162.7460  205.7870  146.8110 C   0  0  0  0  0  3  0  0  0  0  0  0
  161.1620  204.9530  145.1590 C   0  0  0  0  0  0  0  0  0  0  0  0
  160.9410  204.0770  144.1360 F   0  0  0  0  0  0  0  0  0  0  0  0
  161.7370  206.5090  147.4570 C   0  0  0  0  0  0  0  0  0  0  0  0
  158.9300  205.9300  145.1280 F   0  0  0  0  0  0  0  0  0  0  0  0
  160.4560  206.5370  146.8740 C   0  0  0  0  0  3  0  0  0  0  0  0
  160.1700  205.8280  145.6800 C   0  0  0  0  0  0  0  0  0  0  0  0
  162.4560  204.9940  145.6970 C   0  0  0  0  0  3  0  0  0  0  0  0
  1  7  1  6  0  0  0
  1  9  1  0  0  0  0
  2 14  1  0  0  0  0
  3 14  1  0  0  0  0
  4 18  1  0  0  0  0
  4 13  2  0  0  0  0
  6 18  1  0  0  0  0
  7  6  2  0  0  0  0
  8  4  1  0  0  0  0
  9 10  1  0  0  0  0
  9 17  2  0  0  0  0
 10  5  1  0  0  0  0
 11  1  1  0  0  0  0
 11 15  1  0  0  0  0
 12 17  1  0  0  0  0
 12  3  1  0  0  0  0
 15 12  2  0  0  0  0
 16  8  2  0  0  0  0
 16  6  1  0  0  0  0
 17  2  1  0  0  0  0
 18 10  2  0  0  0  0
 19 20  1  1  0  0  0
 19  7  1  0  0  0  0
 21 24  1  0  0  0  0
 22 27  2  0  0  0  0
 22 28  1  0  0  0  0
 23 22  1  0  0  0  0
 24 19  1  0  0  0  0
 25 27  1  0  0  0  0
 26 24  2  0  0  0  0
 27 26  1  0  0  0  0
 28 21  2  0  0  0  0
M  END
>  <MODEL>
9

>  <REMARK>
 VINA RESULT:      -6.4      2.729      4.521
  Name = 
  2 active torsions:
  status: ('A' for Active; 'I' for Inactive)
    1  A    between atoms: C_4  and  C_12
    2  A    between atoms: C_4  and  C_15
                            x       y       z     vdW  Elec       q    Type
                         _______ _______ _______ _____ _____    ______ ____

>  <TORSDO>
F 2

$$$$
