=
 OpenBabel11072413503D

 29 34  0  0  1  0  0  0  0  0999 V2000
  161.1300  203.5390  149.1050 C   0  0  0  0  0  0  0  0  0  0  0  0
  161.3960  205.7620  150.8170 C   0  0  0  0  0  0  0  0  0  0  0  0
  161.0780  202.7760  145.6170 C   0  0  0  0  0  3  0  0  0  0  0  0
  161.5150  205.9180  149.4070 C   0  0  0  0  0  3  0  0  0  0  0  0
  160.7330  201.2580  147.8530 C   0  0  0  0  0  3  0  0  0  0  0  0
  161.0660  204.0380  152.5690 C   0  0  0  0  0  3  0  0  0  0  0  0
  161.2060  203.4450  146.9240 C   0  0  0  0  0  0  0  0  0  0  0  0
  160.8290  202.5530  152.5200 C   0  0  0  0  0  2  0  0  0  0  0  0
  161.3720  204.7950  148.5810 C   0  0  0  0  0  0  0  0  0  0  0  0
  161.1690  204.4450  151.3140 C   0  0  0  0  0  0  0  0  0  0  0  0
  161.0310  203.3600  150.4760 C   0  0  0  0  0  0  0  0  0  0  0  0
  161.0310  202.6890  148.0300 C   0  0  0  0  0  0  0  0  0  0  0  0
  161.4230  204.7440  147.2290 N   0  0  0  0  0  0  0  0  0  0  0  0
  160.8340  202.2470  151.0910 N   0  0  0  0  0  0  0  0  0  0  0  0
  160.7280  201.0110  146.0250 S   0  0  0  0  0  0  0  0  0  0  0  0
  160.2590  206.8200  154.0010 C   0  0  0  0  0  2  0  0  0  0  0  0
  161.6690  209.0220  154.1700 C   0  0  2  0  0  3  0  0  0  0  0  0
  160.6550  209.6510  153.2590 C   0  0  0  0  0  2  0  0  0  0  0  0
  161.5650  207.4830  154.4350 C   0  0  2  0  0  3  0  0  0  0  0  0
  160.6150  208.0160  151.3340 C   0  0  0  0  0  2  0  0  0  0  0  0
  161.6100  206.9510  151.7410 C   0  0  1  0  0  0  0  0  0  0  0  0
  160.5220  208.9960  152.1620 C   0  0  0  0  0  2  0  0  0  0  0  0
  161.5430  206.4790  153.2500 C   0  0  2  0  0  3  0  0  0  0  0  0
  161.6990  209.7670  155.4870 C   0  0  0  0  0  1  0  0  0  0  0  0
  162.9000  207.4540  151.5390 O   0  0  0  0  0  1  0  0  0  0  0  0
  161.6420  206.0670  146.1300 S   0  0  0  0  0  0  0  0  0  0  0  0
  161.9610  207.3170  146.8990 O   0  0  0  0  0  0  0  0  0  0  0  0
  162.7800  205.7690  145.1950 O   0  0  0  0  0  0  0  0  0  0  0  0
  160.1940  206.3020  145.2170 N   0  0  0  0  0  1  0  0  0  0  0  0
  1 11  1  0  0  0  0
  2 10  1  0  0  0  0
  2 21  1  0  0  0  0
  3 15  1  0  0  0  0
  3  7  2  0  0  0  0
  4  2  2  0  0  0  0
  5 12  2  0  0  0  0
  7 13  1  0  0  0  0
  7 12  1  0  0  0  0
  8  6  1  0  0  0  0
  9  1  2  0  0  0  0
  9  4  1  0  0  0  0
 10  6  2  0  0  0  0
 11 14  2  0  0  0  0
 11 10  1  0  0  0  0
 12  1  1  0  0  0  0
 13  9  1  0  0  0  0
 14  8  1  0  0  0  0
 15  5  1  0  0  0  0
 17 19  1  0  0  0  0
 17 24  1  1  0  0  0
 18 17  1  0  0  0  0
 19 16  1  6  0  0  0
 20 21  1  0  0  0  0
 20 22  1  0  0  0  0
 21 25  1  6  0  0  0
 21 23  1  0  0  0  0
 22 18  1  0  0  0  0
 23 16  1  6  0  0  0
 23 19  1  0  0  0  0
 26 27  2  0  0  0  0
 26 13  1  0  0  0  0
 28 26  2  0  0  0  0
 29 26  1  0  0  0  0
M  END
>  <MODEL>
1

>  <REMARK>
 VINA RESULT:      -9.0      0.000      0.000
  Name = 
  2 active torsions:
  status: ('A' for Active; 'I' for Inactive)
    1  A    between atoms: C_2  and  C_14
    2  A    between atoms: S_5  and  N_23
                            x       y       z     vdW  Elec       q    Type
                         _______ _______ _______ _____ _____    ______ ____

>  <TORSDO>
F 2

$$$$
=
 OpenBabel11072413503D

 29 34  0  0  1  0  0  0  0  0999 V2000
  161.6920  206.9560  148.9330 C   0  0  0  0  0  0  0  0  0  0  0  0
  161.5390  208.2900  151.4100 C   0  0  0  0  0  0  0  0  0  0  0  0
  161.5160  203.6460  147.6050 C   0  0  0  0  0  3  0  0  0  0  0  0
  161.3280  206.8840  151.3340 C   0  0  0  0  0  3  0  0  0  0  0  0
  162.0050  206.0750  146.4730 C   0  0  0  0  0  3  0  0  0  0  0  0
  161.9830  210.2780  149.9960 C   0  0  0  0  0  3  0  0  0  0  0  0
  161.4730  204.8300  148.4810 C   0  0  0  0  0  0  0  0  0  0  0  0
  162.2150  210.4600  148.5210 C   0  0  0  0  0  3  0  0  0  0  0  0
  161.4170  206.2480  150.0880 C   0  0  2  0  0  3  0  0  0  0  0  0
  161.7980  208.9820  150.1910 C   0  0  0  0  0  0  0  0  0  0  0  0
  161.8810  208.3290  148.9820 C   0  0  0  0  0  0  0  0  0  0  0  0
  161.7210  206.0320  147.9160 C   0  0  0  0  0  0  0  0  0  0  0  0
  161.2770  204.9290  149.8150 N   0  0  0  0  0  0  0  0  0  0  0  0
  162.1170  209.1050  147.9830 N   0  0  0  0  0  0  0  0  0  0  0  0
  161.8910  204.3170  145.9270 S   0  0  0  0  0  0  0  0  0  0  0  0
  160.1560  207.6170  154.6020 C   0  0  0  0  0  2  0  0  0  0  0  0
  160.8290  209.8670  155.7640 C   0  0  2  0  0  3  0  0  0  0  0  0
  159.6650  210.4940  155.0530 C   0  0  0  0  0  2  0  0  0  0  0  0
  161.2010  208.3900  155.4060 C   0  0  2  0  0  3  0  0  0  0  0  0
  160.1110  209.8270  152.6580 C   0  0  0  0  0  2  0  0  0  0  0  0
  161.3870  209.0170  152.7380 C   0  0  1  0  0  0  0  0  0  0  0  0
  159.7300  210.3240  153.7820 C   0  0  0  0  0  2  0  0  0  0  0  0
  161.4780  207.9830  153.9320 C   0  0  2  0  0  3  0  0  0  0  0  0
  160.6390  209.9980  157.2600 C   0  0  0  0  0  1  0  0  0  0  0  0
  162.4600  209.9010  152.8950 O   0  0  0  0  0  1  0  0  0  0  0  0
  160.9880  203.6430  150.9410 S   0  0  0  0  0  0  0  0  0  0  0  0
  162.2700  203.2830  151.6380 O   0  0  0  0  0  0  0  0  0  0  0  0
  159.9840  204.0810  151.9680 O   0  0  0  0  0  0  0  0  0  0  0  0
  160.3820  202.2630  150.0950 N   0  0  0  0  0  1  0  0  0  0  0  0
  1 11  2  0  0  0  0
  1  9  1  0  0  0  0
  2 21  1  0  0  0  0
  3  7  2  0  0  0  0
  4  2  2  0  0  0  0
  5 12  2  0  0  0  0
  6 10  2  0  0  0  0
  7 13  1  0  0  0  0
  8  6  1  0  0  0  0
  9  4  1  1  0  0  0
 10  2  1  0  0  0  0
 11 10  1  0  0  0  0
 12  7  1  0  0  0  0
 12  1  1  0  0  0  0
 13  9  1  0  0  0  0
 13 26  1  0  0  0  0
 14  8  2  0  0  0  0
 14 11  1  0  0  0  0
 15  5  1  0  0  0  0
 15  3  1  0  0  0  0
 17 24  1  1  0  0  0
 18 17  1  0  0  0  0
 19 16  1  6  0  0  0
 19 17  1  0  0  0  0
 20 21  1  0  0  0  0
 20 22  1  0  0  0  0
 21 25  1  1  0  0  0
 21 23  1  0  0  0  0
 22 18  1  0  0  0  0
 23 16  1  6  0  0  0
 23 19  1  0  0  0  0
 26 27  2  0  0  0  0
 26 28  2  0  0  0  0
 29 26  1  0  0  0  0
M  END
>  <MODEL>
2

>  <REMARK>
 VINA RESULT:      -8.8      2.653      4.303
  Name = 
  2 active torsions:
  status: ('A' for Active; 'I' for Inactive)
    1  A    between atoms: C_2  and  C_14
    2  A    between atoms: S_5  and  N_23
                            x       y       z     vdW  Elec       q    Type
                         _______ _______ _______ _____ _____    ______ ____

>  <TORSDO>
F 2

$$$$
=
 OpenBabel11072413503D

 29 34  0  0  1  0  0  0  0  0999 V2000
  161.4010  206.0960  149.0060 C   0  0  0  0  0  0  0  0  0  0  0  0
  161.4790  207.5360  151.4280 C   0  0  0  0  0  0  0  0  0  0  0  0
  161.1410  202.7290  147.8450 C   0  0  0  0  0  3  0  0  0  0  0  0
  161.2830  206.1260  151.4330 C   0  0  0  0  0  3  0  0  0  0  0  0
  161.4770  205.1110  146.5670 C   0  0  0  0  0  3  0  0  0  0  0  0
  161.7470  209.4650  149.8920 C   0  0  0  0  0  3  0  0  0  0  0  0
  161.1690  203.9500  148.6700 C   0  0  0  0  0  0  0  0  0  0  0  0
  161.8260  209.5840  148.3950 C   0  0  0  0  0  3  0  0  0  0  0  0
  161.2550  205.4360  150.2120 C   0  0  2  0  0  3  0  0  0  0  0  0
  161.6030  208.1770  150.1600 C   0  0  0  0  0  0  0  0  0  0  0  0
  161.5730  207.4710  148.9780 C   0  0  0  0  0  0  0  0  0  0  0  0
  161.3400  205.1290  148.0320 C   0  0  0  0  0  0  0  0  0  0  0  0
  161.1080  204.1060  150.0120 N   0  0  0  0  0  0  0  0  0  0  0  0
  161.6950  208.2050  147.9280 N   0  0  0  0  0  0  0  0  0  0  0  0
  161.3340  203.3300  146.1110 S   0  0  0  0  0  0  0  0  0  0  0  0
  160.3480  207.0240  154.7460 C   0  0  0  0  0  2  0  0  0  0  0  0
  161.1600  209.3030  155.7550 C   0  0  2  0  0  3  0  0  0  0  0  0
  159.9550  209.9280  155.1140 C   0  0  0  0  0  2  0  0  0  0  0  0
  161.4710  207.8030  155.4290 C   0  0  2  0  0  3  0  0  0  0  0  0
  160.1900  209.1560  152.7210 C   0  0  0  0  0  2  0  0  0  0  0  0
  161.4510  208.3180  152.7320 C   0  0  1  0  0  0  0  0  0  0  0  0
  159.9120  209.7060  153.8500 C   0  0  0  0  0  2  0  0  0  0  0  0
  161.6180  207.3310  153.9560 C   0  0  2  0  0  3  0  0  0  0  0  0
  161.0960  209.4980  157.2550 C   0  0  0  0  0  1  0  0  0  0  0  0
  162.5520  209.1820  152.7640 O   0  0  0  0  0  1  0  0  0  0  0  0
  160.9540  202.8670  151.2140 S   0  0  0  0  0  0  0  0  0  0  0  0
  160.0680  201.7680  150.6980 O   0  0  0  0  0  0  0  0  0  0  0  0
  162.3060  202.2920  151.5290 O   0  0  0  0  0  0  0  0  0  0  0  0
  160.2660  203.5390  152.6500 N   0  0  0  0  0  1  0  0  0  0  0  0
  1  9  1  0  0  0  0
  2  4  2  0  0  0  0
  2 21  1  0  0  0  0
  3  7  2  0  0  0  0
  5 12  2  0  0  0  0
  6 10  2  0  0  0  0
  7 13  1  0  0  0  0
  8  6  1  0  0  0  0
  9  4  1  1  0  0  0
 10  2  1  0  0  0  0
 11  1  2  0  0  0  0
 11 10  1  0  0  0  0
 12  7  1  0  0  0  0
 12  1  1  0  0  0  0
 13  9  1  0  0  0  0
 13 26  1  0  0  0  0
 14  8  2  0  0  0  0
 14 11  1  0  0  0  0
 15  5  1  0  0  0  0
 15  3  1  0  0  0  0
 17 24  1  1  0  0  0
 18 17  1  0  0  0  0
 19 16  1  6  0  0  0
 19 17  1  0  0  0  0
 20 21  1  0  0  0  0
 20 22  1  0  0  0  0
 21 25  1  1  0  0  0
 21 23  1  0  0  0  0
 22 18  1  0  0  0  0
 23 16  1  6  0  0  0
 23 19  1  0  0  0  0
 26 28  2  0  0  0  0
 26 29  1  0  0  0  0
 27 26  2  0  0  0  0
M  END
>  <MODEL>
3

>  <REMARK>
 VINA RESULT:      -8.5      2.477      4.056
  Name = 
  2 active torsions:
  status: ('A' for Active; 'I' for Inactive)
    1  A    between atoms: C_2  and  C_14
    2  A    between atoms: S_5  and  N_23
                            x       y       z     vdW  Elec       q    Type
                         _______ _______ _______ _____ _____    ______ ____

>  <TORSDO>
F 2

$$$$
=
 OpenBabel11072413503D

 29 34  0  0  1  0  0  0  0  0999 V2000
  161.0990  206.2530  152.1600 C   0  0  0  0  0  0  0  0  0  0  0  0
  161.6100  205.7780  149.4300 C   0  0  0  0  0  0  0  0  0  0  0  0
  161.0890  208.9500  154.5010 C   0  0  0  0  0  3  0  0  0  0  0  0
  161.6610  207.1000  149.9540 C   0  0  0  0  0  3  0  0  0  0  0  0
  160.6530  206.2720  154.7540 C   0  0  0  0  0  3  0  0  0  0  0  0
  161.1140  203.4360  150.0820 C   0  0  0  0  0  3  0  0  0  0  0  0
  161.1430  208.1300  153.2780 C   0  0  0  0  0  0  0  0  0  0  0  0
  160.7500  202.7880  151.3900 C   0  0  0  0  0  2  0  0  0  0  0  0
  161.4080  207.3040  151.3170 C   0  0  0  0  0  0  0  0  0  0  0  0
  161.2670  204.7270  150.3310 C   0  0  0  0  0  0  0  0  0  0  0  0
  161.0250  204.9600  151.6670 C   0  0  0  0  0  0  0  0  0  0  0  0
  160.9300  206.8020  153.4090 C   0  0  0  0  0  0  0  0  0  0  0  0
  161.4340  208.4710  152.0020 N   0  0  0  0  0  0  0  0  0  0  0  0
  160.7250  203.9020  152.3350 N   0  0  0  0  0  0  0  0  0  0  0  0
  160.6870  207.7560  155.8490 S   0  0  0  0  0  0  0  0  0  0  0  0
  159.6760  205.9610  146.4680 C   0  0  0  0  0  2  0  0  0  0  0  0
  161.5660  205.3270  144.7670 C   0  0  2  0  0  3  0  0  0  0  0  0
  161.3550  203.9000  145.1820 C   0  0  0  0  0  2  0  0  0  0  0  0
  160.8050  206.4430  145.5580 C   0  0  2  0  0  3  0  0  0  0  0  0
  161.5630  204.0620  147.6940 C   0  0  0  0  0  2  0  0  0  0  0  0
  161.8180  205.5330  147.9430 C   0  0  1  0  0  0  0  0  0  0  0  0
  161.4830  203.7430  146.4500 C   0  0  0  0  0  2  0  0  0  0  0  0
  160.9360  206.5430  147.1030 C   0  0  2  0  0  3  0  0  0  0  0  0
  161.2900  205.4710  143.2850 C   0  0  0  0  0  1  0  0  0  0  0  0
  163.1520  205.8080  147.6220 O   0  0  0  0  0  1  0  0  0  0  0  0
  161.8300  210.0450  151.3940 S   0  0  0  0  0  0  0  0  0  0  0  0
  163.1550  210.4850  151.9510 O   0  0  0  0  0  0  0  0  0  0  0  0
  161.9260  210.0030  149.8950 O   0  0  0  0  0  0  0  0  0  0  0  0
  160.6040  211.1690  151.8600 N   0  0  0  0  0  1  0  0  0  0  0  0
  1 12  1  0  0  0  0
  2  4  2  0  0  0  0
  2 10  1  0  0  0  0
  3 15  1  0  0  0  0
  4  9  1  0  0  0  0
  5 15  1  0  0  0  0
  6 10  2  0  0  0  0
  6  8  1  0  0  0  0
  7 12  1  0  0  0  0
  7  3  2  0  0  0  0
  8 14  1  0  0  0  0
  9 13  1  0  0  0  0
  9  1  2  0  0  0  0
 10 11  1  0  0  0  0
 11  1  1  0  0  0  0
 11 14  2  0  0  0  0
 12  5  2  0  0  0  0
 13  7  1  0  0  0  0
 17 24  1  6  0  0  0
 17 18  1  0  0  0  0
 17 19  1  0  0  0  0
 18 22  1  0  0  0  0
 19 16  1  1  0  0  0
 19 23  1  0  0  0  0
 20 21  1  0  0  0  0
 21 25  1  6  0  0  0
 21  2  1  0  0  0  0
 22 20  1  0  0  0  0
 23 16  1  1  0  0  0
 23 21  1  0  0  0  0
 26 29  1  0  0  0  0
 26 27  2  0  0  0  0
 26 13  1  0  0  0  0
 28 26  2  0  0  0  0
M  END
>  <MODEL>
4

>  <REMARK>
 VINA RESULT:      -8.4      3.369      6.918
  Name = 
  2 active torsions:
  status: ('A' for Active; 'I' for Inactive)
    1  A    between atoms: C_2  and  C_14
    2  A    between atoms: S_5  and  N_23
                            x       y       z     vdW  Elec       q    Type
                         _______ _______ _______ _____ _____    ______ ____

>  <TORSDO>
F 2

$$$$
=
 OpenBabel11072413503D

 29 34  0  0  1  0  0  0  0  0999 V2000
  161.6590  207.1190  149.3580 C   0  0  0  0  0  0  0  0  0  0  0  0
  161.3730  208.2520  151.9220 C   0  0  0  0  0  0  0  0  0  0  0  0
  161.6150  203.9200  147.7720 C   0  0  0  0  0  3  0  0  0  0  0  0
  161.1980  206.8530  151.7280 C   0  0  0  0  0  3  0  0  0  0  0  0
  162.0950  206.4390  146.8530 C   0  0  0  0  0  3  0  0  0  0  0  0
  161.8290  210.3540  150.6850 C   0  0  0  0  0  3  0  0  0  0  0  0
  161.5090  205.0310  148.7340 C   0  0  0  0  0  0  0  0  0  0  0  0
  162.1180  210.6540  149.2400 C   0  0  0  0  0  3  0  0  0  0  0  0
  161.3530  206.3180  150.4410 C   0  0  2  0  0  3  0  0  0  0  0  0
  161.6660  209.0430  150.7710 C   0  0  0  0  0  0  0  0  0  0  0  0
  161.8140  208.4870  149.5200 C   0  0  0  0  0  0  0  0  0  0  0  0
  161.7520  206.2780  148.2750 C   0  0  0  0  0  0  0  0  0  0  0  0
  161.2550  205.0220  150.0620 N   0  0  0  0  0  0  0  0  0  0  0  0
  162.0730  209.3430  148.5960 N   0  0  0  0  0  0  0  0  0  0  0  0
  162.0440  204.7270  146.1690 S   0  0  0  0  0  0  0  0  0  0  0  0
  159.7080  211.0780  153.2620 C   0  0  0  0  0  2  0  0  0  0  0  0
  160.2030  210.6160  155.7940 C   0  0  2  0  0  3  0  0  0  0  0  0
  161.5790  211.1610  155.5460 C   0  0  0  0  0  2  0  0  0  0  0  0
  159.2600  210.4100  154.5610 C   0  0  2  0  0  3  0  0  0  0  0  0
  162.3300  209.7740  153.5730 C   0  0  0  0  0  2  0  0  0  0  0  0
  161.1480  208.8710  153.2930 C   0  0  1  0  0  0  0  0  0  0  0  0
  162.1800  210.5370  154.5980 C   0  0  0  0  0  2  0  0  0  0  0  0
  159.7230  209.5540  153.3500 C   0  0  2  0  0  3  0  0  0  0  0  0
  159.5030  211.4600  156.8380 C   0  0  0  0  0  1  0  0  0  0  0  0
  161.1380  207.8510  154.2520 O   0  0  0  0  0  1  0  0  0  0  0  0
  160.9500  203.6460  151.0720 S   0  0  0  0  0  0  0  0  0  0  0  0
  162.2400  203.1580  151.6670 O   0  0  0  0  0  0  0  0  0  0  0  0
  160.0160  204.0290  152.1860 O   0  0  0  0  0  0  0  0  0  0  0  0
  160.2340  202.3870  150.1290 N   0  0  0  0  0  1  0  0  0  0  0  0
  1 11  2  0  0  0  0
  1  9  1  0  0  0  0
  2 21  1  0  0  0  0
  3  7  2  0  0  0  0
  4  2  2  0  0  0  0
  5 12  2  0  0  0  0
  6 10  2  0  0  0  0
  7 13  1  0  0  0  0
  8  6  1  0  0  0  0
  9  4  1  1  0  0  0
 10  2  1  0  0  0  0
 11 10  1  0  0  0  0
 12  7  1  0  0  0  0
 12  1  1  0  0  0  0
 13  9  1  0  0  0  0
 13 26  1  0  0  0  0
 14  8  2  0  0  0  0
 14 11  1  0  0  0  0
 15  5  1  0  0  0  0
 15  3  1  0  0  0  0
 17 24  1  1  0  0  0
 18 17  1  0  0  0  0
 19 16  1  6  0  0  0
 19 17  1  0  0  0  0
 20 22  1  0  0  0  0
 21 23  1  0  0  0  0
 21 20  1  0  0  0  0
 21 25  1  1  0  0  0
 22 18  1  0  0  0  0
 23 16  1  6  0  0  0
 23 19  1  0  0  0  0
 26 27  2  0  0  0  0
 26 28  2  0  0  0  0
 29 26  1  0  0  0  0
M  END
>  <MODEL>
5

>  <REMARK>
 VINA RESULT:      -8.3      2.799      4.628
  Name = 
  2 active torsions:
  status: ('A' for Active; 'I' for Inactive)
    1  A    between atoms: C_2  and  C_14
    2  A    between atoms: S_5  and  N_23
                            x       y       z     vdW  Elec       q    Type
                         _______ _______ _______ _____ _____    ______ ____

>  <TORSDO>
F 2

$$$$
=
 OpenBabel11072413503D

 29 34  0  0  1  0  0  0  0  0999 V2000
  160.9480  206.6040  153.1950 C   0  0  0  0  0  0  0  0  0  0  0  0
  160.9910  206.2470  150.4000 C   0  0  0  0  0  0  0  0  0  0  0  0
  160.9210  209.2380  155.6060 C   0  0  0  0  0  3  0  0  0  0  0  0
  160.9090  207.5530  150.9590 C   0  0  0  0  0  3  0  0  0  0  0  0
  161.0220  206.5240  155.8240 C   0  0  0  0  0  3  0  0  0  0  0  0
  161.0520  203.8510  151.0360 C   0  0  0  0  0  3  0  0  0  0  0  0
  160.8790  208.4500  154.3620 C   0  0  0  0  0  0  0  0  0  0  0  0
  161.0710  203.1380  152.3610 C   0  0  0  0  0  2  0  0  0  0  0  0
  160.8960  207.6990  152.3530 C   0  0  0  0  0  0  0  0  0  0  0  0
  161.0210  205.1460  151.3050 C   0  0  0  0  0  0  0  0  0  0  0  0
  161.0080  205.3220  152.6710 C   0  0  0  0  0  0  0  0  0  0  0  0
  160.9330  207.1040  154.4750 C   0  0  0  0  0  0  0  0  0  0  0  0
  160.8500  208.8470  153.0690 N   0  0  0  0  0  0  0  0  0  0  0  0
  161.0350  204.2220  153.3400 N   0  0  0  0  0  0  0  0  0  0  0  0
  161.0070  207.9820  156.9550 S   0  0  0  0  0  0  0  0  0  0  0  0
  162.2180  203.9120  148.0350 C   0  0  0  0  0  2  0  0  0  0  0  0
  161.1560  204.9820  145.8920 C   0  0  2  0  0  3  0  0  0  0  0  0
  162.2690  205.9880  145.9350 C   0  0  0  0  0  2  0  0  0  0  0  0
  161.0200  203.9830  147.0890 C   0  0  2  0  0  3  0  0  0  0  0  0
  162.0960  206.8410  148.3060 C   0  0  0  0  0  2  0  0  0  0  0  0
  160.9430  206.0540  148.8910 C   0  0  1  0  0  0  0  0  0  0  0  0
  162.3210  206.6000  147.0620 C   0  0  0  0  0  2  0  0  0  0  0  0
  160.9110  204.5110  148.5470 C   0  0  2  0  0  3  0  0  0  0  0  0
  161.2150  204.2140  144.5890 C   0  0  0  0  0  1  0  0  0  0  0  0
  159.7480  206.5960  148.4040 O   0  0  0  0  0  1  0  0  0  0  0  0
  160.8360  210.4710  152.4630 S   0  0  0  0  0  0  0  0  0  0  0  0
  159.4280  210.8740  152.1270 O   0  0  0  0  0  0  0  0  0  0  0  0
  161.3730  211.4090  153.5060 O   0  0  0  0  0  0  0  0  0  0  0  0
  161.8180  210.5650  151.0440 N   0  0  0  0  0  1  0  0  0  0  0  0
  1 12  1  0  0  0  0
  2  4  2  0  0  0  0
  2 10  1  0  0  0  0
  3 15  1  0  0  0  0
  4  9  1  0  0  0  0
  5 15  1  0  0  0  0
  6 10  2  0  0  0  0
  6  8  1  0  0  0  0
  7 12  1  0  0  0  0
  7  3  2  0  0  0  0
  8 14  1  0  0  0  0
  9 13  1  0  0  0  0
  9  1  2  0  0  0  0
 10 11  1  0  0  0  0
 11  1  1  0  0  0  0
 11 14  2  0  0  0  0
 12  5  2  0  0  0  0
 13  7  1  0  0  0  0
 17 24  1  6  0  0  0
 17 18  1  0  0  0  0
 17 19  1  0  0  0  0
 18 22  1  0  0  0  0
 19 16  1  1  0  0  0
 19 23  1  0  0  0  0
 20 21  1  0  0  0  0
 21 25  1  6  0  0  0
 21  2  1  0  0  0  0
 22 20  1  0  0  0  0
 23 16  1  1  0  0  0
 23 21  1  0  0  0  0
 26 13  1  0  0  0  0
 26 28  2  0  0  0  0
 27 26  2  0  0  0  0
 29 26  1  0  0  0  0
M  END
>  <MODEL>
6

>  <REMARK>
 VINA RESULT:      -7.8      3.612      7.088
  Name = 
  2 active torsions:
  status: ('A' for Active; 'I' for Inactive)
    1  A    between atoms: C_2  and  C_14
    2  A    between atoms: S_5  and  N_23
                            x       y       z     vdW  Elec       q    Type
                         _______ _______ _______ _____ _____    ______ ____

>  <TORSDO>
F 2

$$$$
=
 OpenBabel11072413503D

 29 34  0  0  1  0  0  0  0  0999 V2000
  160.9240  209.9630  152.9440 C   0  0  0  0  0  0  0  0  0  0  0  0
  161.4060  207.8170  151.1820 C   0  0  0  0  0  0  0  0  0  0  0  0
  159.9110  210.5420  156.3190 C   0  0  0  0  0  3  0  0  0  0  0  0
  161.0680  207.5710  152.5420 C   0  0  0  0  0  3  0  0  0  0  0  0
  160.4660  212.2090  154.2370 C   0  0  0  0  0  3  0  0  0  0  0  0
  161.8540  209.6600  149.5830 C   0  0  0  0  0  3  0  0  0  0  0  0
  160.3430  209.9310  155.0500 C   0  0  0  0  0  0  0  0  0  0  0  0
  161.8110  211.1590  149.7030 C   0  0  0  0  0  3  0  0  0  0  0  0
  160.8280  208.6590  153.3930 C   0  0  2  0  0  3  0  0  0  0  0  0
  161.5150  209.1780  150.7680 C   0  0  0  0  0  0  0  0  0  0  0  0
  161.2720  210.2250  151.6280 C   0  0  0  0  0  0  0  0  0  0  0  0
  160.6140  210.7610  154.0180 C   0  0  0  0  0  0  0  0  0  0  0  0
  160.4710  208.6310  154.6980 N   0  0  0  0  0  0  0  0  0  0  0  0
  161.4190  211.3860  151.0920 N   0  0  0  0  0  0  0  0  0  0  0  0
  159.9370  212.3590  155.9970 S   0  0  0  0  0  0  0  0  0  0  0  0
  160.0500  206.3750  148.2430 C   0  0  0  0  0  2  0  0  0  0  0  0
  161.8750  204.5310  147.8760 C   0  0  2  0  0  3  0  0  0  0  0  0
  161.1850  203.7420  148.9500 C   0  0  0  0  0  2  0  0  0  0  0  0
  161.3870  205.9950  147.6090 C   0  0  2  0  0  3  0  0  0  0  0  0
  161.0810  205.4230  150.8320 C   0  0  0  0  0  2  0  0  0  0  0  0
  161.7340  206.6590  150.2510 C   0  0  1  0  0  0  0  0  0  0  0  0
  161.0820  204.4060  150.0440 C   0  0  0  0  0  2  0  0  0  0  0  0
  161.3260  207.0280  148.7680 C   0  0  2  0  0  3  0  0  0  0  0  0
  161.8640  203.7450  146.5820 C   0  0  0  0  0  1  0  0  0  0  0  0
  163.1190  206.4630  150.2450 O   0  0  0  0  0  1  0  0  0  0  0  0
  160.1680  207.2360  155.6810 S   0  0  0  0  0  0  0  0  0  0  0  0
  158.6880  206.9980  155.7810 O   0  0  0  0  0  0  0  0  0  0  0  0
  160.8130  206.0270  155.0620 O   0  0  0  0  0  0  0  0  0  0  0  0
  160.8210  207.4910  157.2610 N   0  0  0  0  0  1  0  0  0  0  0  0
  1  9  1  0  0  0  0
  1 12  1  0  0  0  0
  2  4  2  0  0  0  0
  5 15  1  0  0  0  0
  6  8  1  0  0  0  0
  6 10  2  0  0  0  0
  7  3  2  0  0  0  0
  8 14  2  0  0  0  0
  9  4  1  6  0  0  0
  9 13  1  0  0  0  0
 10  2  1  0  0  0  0
 10 11  1  0  0  0  0
 11  1  2  0  0  0  0
 12  5  2  0  0  0  0
 12  7  1  0  0  0  0
 13  7  1  0  0  0  0
 13 26  1  0  0  0  0
 14 11  1  0  0  0  0
 15  3  1  0  0  0  0
 17 24  1  6  0  0  0
 17 18  1  0  0  0  0
 18 22  1  0  0  0  0
 19 17  1  0  0  0  0
 19 16  1  1  0  0  0
 19 23  1  0  0  0  0
 21 25  1  1  0  0  0
 21 20  1  0  0  0  0
 21  2  1  0  0  0  0
 22 20  1  0  0  0  0
 23 16  1  1  0  0  0
 23 21  1  0  0  0  0
 26 27  2  0  0  0  0
 26 29  1  0  0  0  0
 28 26  2  0  0  0  0
M  END
>  <MODEL>
7

>  <REMARK>
 VINA RESULT:      -7.7      4.260      8.389
  Name = 
  2 active torsions:
  status: ('A' for Active; 'I' for Inactive)
    1  A    between atoms: C_2  and  C_14
    2  A    between atoms: S_5  and  N_23
                            x       y       z     vdW  Elec       q    Type
                         _______ _______ _______ _____ _____    ______ ____

>  <TORSDO>
F 2

$$$$
=
 OpenBabel11072413503D

 29 34  0  0  1  0  0  0  0  0999 V2000
  160.9650  209.2680  152.6370 C   0  0  0  0  0  0  0  0  0  0  0  0
  161.3570  206.5970  151.8300 C   0  0  0  0  0  0  0  0  0  0  0  0
  159.9420  211.1240  155.5120 C   0  0  0  0  0  3  0  0  0  0  0  0
  160.9900  206.8990  153.1710 C   0  0  0  0  0  3  0  0  0  0  0  0
  160.6080  211.8540  152.9730 C   0  0  0  0  0  3  0  0  0  0  0  0
  161.9200  207.6770  149.6690 C   0  0  0  0  0  3  0  0  0  0  0  0
  160.3580  210.0600  154.5810 C   0  0  0  0  0  0  0  0  0  0  0  0
  161.9520  209.1110  149.2130 C   0  0  0  0  0  3  0  0  0  0  0  0
  160.7960  208.2370  153.5410 C   0  0  2  0  0  3  0  0  0  0  0  0
  161.5420  207.6940  150.9370 C   0  0  0  0  0  0  0  0  0  0  0  0
  161.3420  208.9980  151.3310 C   0  0  0  0  0  0  0  0  0  0  0  0
  160.6830  210.4260  153.3210 C   0  0  0  0  0  0  0  0  0  0  0  0
  160.4220  208.7200  154.7500 N   0  0  0  0  0  0  0  0  0  0  0  0
  161.5560  209.8630  150.4020 N   0  0  0  0  0  0  0  0  0  0  0  0
  160.0660  212.6810  154.5300 S   0  0  0  0  0  0  0  0  0  0  0  0
  159.9290  204.1920  149.6560 C   0  0  0  0  0  2  0  0  0  0  0  0
  161.6830  202.2820  150.0350 C   0  0  2  0  0  3  0  0  0  0  0  0
  160.9720  201.9890  151.3240 C   0  0  0  0  0  2  0  0  0  0  0  0
  161.2470  203.5490  149.2250 C   0  0  2  0  0  3  0  0  0  0  0  0
  160.9430  204.2650  152.4190 C   0  0  0  0  0  2  0  0  0  0  0  0
  161.6360  205.1600  151.4150 C   0  0  1  0  0  0  0  0  0  0  0  0
  160.9010  203.0240  152.0800 C   0  0  0  0  0  2  0  0  0  0  0  0
  161.2320  204.9480  149.9000 C   0  0  2  0  0  3  0  0  0  0  0  0
  161.6350  201.0620  149.1400 C   0  0  0  0  0  1  0  0  0  0  0  0
  163.0140  204.9260  151.4950 O   0  0  0  0  0  1  0  0  0  0  0  0
  160.0360  207.8140  156.1760 S   0  0  0  0  0  0  0  0  0  0  0  0
  159.5780  208.7480  157.2600 O   0  0  0  0  0  0  0  0  0  0  0  0
  158.9320  206.8390  155.8770 O   0  0  0  0  0  0  0  0  0  0  0  0
  161.4360  206.9520  156.7080 N   0  0  0  0  0  1  0  0  0  0  0  0
  1 12  1  0  0  0  0
  1  9  1  0  0  0  0
  2  4  2  0  0  0  0
  5 12  2  0  0  0  0
  5 15  1  0  0  0  0
  6 10  2  0  0  0  0
  7 13  1  0  0  0  0
  7  3  2  0  0  0  0
  8  6  1  0  0  0  0
  8 14  2  0  0  0  0
  9  4  1  6  0  0  0
  9 13  1  0  0  0  0
 10 11  1  0  0  0  0
 10  2  1  0  0  0  0
 11  1  2  0  0  0  0
 12  7  1  0  0  0  0
 13 26  1  0  0  0  0
 14 11  1  0  0  0  0
 15  3  1  0  0  0  0
 17 24  1  6  0  0  0
 17 18  1  0  0  0  0
 18 22  1  0  0  0  0
 19 16  1  1  0  0  0
 19 23  1  0  0  0  0
 19 17  1  0  0  0  0
 21 25  1  1  0  0  0
 21  2  1  0  0  0  0
 21 20  1  0  0  0  0
 22 20  1  0  0  0  0
 23 16  1  1  0  0  0
 23 21  1  0  0  0  0
 26 29  1  0  0  0  0
 26 27  2  0  0  0  0
 28 26  2  0  0  0  0
M  END
>  <MODEL>
8

>  <REMARK>
 VINA RESULT:      -6.9      4.169      8.158
  Name = 
  2 active torsions:
  status: ('A' for Active; 'I' for Inactive)
    1  A    between atoms: C_2  and  C_14
    2  A    between atoms: S_5  and  N_23
                            x       y       z     vdW  Elec       q    Type
                         _______ _______ _______ _____ _____    ______ ____

>  <TORSDO>
F 2

$$$$
=
 OpenBabel11072413503D

 29 34  0  0  1  0  0  0  0  0999 V2000
  161.0600  206.0710  152.3840 C   0  0  0  0  0  0  0  0  0  0  0  0
  160.6760  208.8050  152.9450 C   0  0  0  0  0  0  0  0  0  0  0  0
  161.5740  203.9080  149.5890 C   0  0  0  0  0  3  0  0  0  0  0  0
  160.9290  208.3710  151.6140 C   0  0  0  0  0  3  0  0  0  0  0  0
  161.2730  203.4510  152.2580 C   0  0  0  0  0  3  0  0  0  0  0  0
  160.4880  207.9660  155.2710 C   0  0  0  0  0  3  0  0  0  0  0  0
  161.4120  205.0780  150.4700 C   0  0  0  0  0  0  0  0  0  0  0  0
  160.5570  206.5900  155.8770 C   0  0  0  0  0  2  0  0  0  0  0  0
  161.1090  207.0030  151.3650 C   0  0  0  0  0  0  0  0  0  0  0  0
  160.6560  207.8120  153.9680 C   0  0  0  0  0  0  0  0  0  0  0  0
  160.8360  206.4750  153.6910 C   0  0  0  0  0  0  0  0  0  0  0  0
  161.2590  204.8470  151.7920 C   0  0  0  0  0  0  0  0  0  0  0  0
  161.3300  206.3960  150.1750 N   0  0  0  0  0  0  0  0  0  0  0  0
  160.7910  205.7160  154.7300 N   0  0  0  0  0  0  0  0  0  0  0  0
  161.5350  202.4560  150.7270 S   0  0  0  0  0  0  0  0  0  0  0  0
  158.0660  211.0720  153.7200 C   0  0  0  0  0  2  0  0  0  0  0  0
  159.5420  213.2090  154.0710 C   0  0  2  0  0  3  0  0  0  0  0  0
  159.6060  213.3170  152.5760 C   0  0  0  0  0  2  0  0  0  0  0  0
  158.8740  211.9350  154.6890 C   0  0  2  0  0  3  0  0  0  0  0  0
  160.4030  211.0090  151.9310 C   0  0  0  0  0  2  0  0  0  0  0  0
  160.5400  210.2890  153.2550 C   0  0  1  0  0  0  0  0  0  0  0  0
  160.0590  212.2440  152.0350 C   0  0  0  0  0  2  0  0  0  0  0  0
  159.3670  210.5160  154.2930 C   0  0  2  0  0  3  0  0  0  0  0  0
  158.8960  214.4530  154.6430 C   0  0  0  0  0  1  0  0  0  0  0  0
  161.7130  210.7300  153.8770 O   0  0  0  0  0  1  0  0  0  0  0  0
  161.4110  207.1370  148.6100 S   0  0  0  0  0  0  0  0  0  0  0  0
  161.3030  208.6290  148.7500 O   0  0  0  0  0  0  0  0  0  0  0  0
  162.7240  206.8050  147.9570 O   0  0  0  0  0  0  0  0  0  0  0  0
  160.1160  206.5520  147.6280 N   0  0  0  0  0  1  0  0  0  0  0  0
  1 11  1  0  0  0  0
  2 21  1  0  0  0  0
  2 10  1  0  0  0  0
  3  7  2  0  0  0  0
  3 15  1  0  0  0  0
  4  2  2  0  0  0  0
  6  8  1  0  0  0  0
  7 12  1  0  0  0  0
  9  4  1  0  0  0  0
  9  1  2  0  0  0  0
 10  6  2  0  0  0  0
 11 10  1  0  0  0  0
 11 14  2  0  0  0  0
 12  5  2  0  0  0  0
 12  1  1  0  0  0  0
 13  7  1  0  0  0  0
 13  9  1  0  0  0  0
 14  8  1  0  0  0  0
 15  5  1  0  0  0  0
 17 24  1  6  0  0  0
 17 19  1  0  0  0  0
 18 17  1  0  0  0  0
 19 16  1  6  0  0  0
 20 22  1  0  0  0  0
 20 21  1  0  0  0  0
 21 25  1  1  0  0  0
 21 23  1  0  0  0  0
 22 18  1  0  0  0  0
 23 16  1  6  0  0  0
 23 19  1  0  0  0  0
 26 27  2  0  0  0  0
 26 13  1  0  0  0  0
 28 26  2  0  0  0  0
 29 26  1  0  0  0  0
M  END
>  <MODEL>
9

>  <REMARK>
 VINA RESULT:      -6.5      2.655      4.161
  Name = 
  2 active torsions:
  status: ('A' for Active; 'I' for Inactive)
    1  A    between atoms: C_2  and  C_14
    2  A    between atoms: S_5  and  N_23
                            x       y       z     vdW  Elec       q    Type
                         _______ _______ _______ _____ _____    ______ ____

>  <TORSDO>
F 2

$$$$
