=
 OpenBabel11072415213D

 63 70  0  0  1  0  0  0  0  0999 V2000
  161.8990  211.8250  146.6510 C   0  0  0  0  0  2  0  0  0  0  0  0
  160.9550  212.7700  145.9010 C   0  0  1  0  0  3  0  0  0  0  0  0
  159.8270  211.0110  147.6020 O   0  0  0  0  0  0  0  0  0  0  0  0
  159.7480  211.9930  145.3280 C   0  0  1  0  0  3  0  0  0  0  0  0
  159.0700  211.1330  146.4160 C   0  0  0  0  0  2  0  0  0  0  0  0
  161.1240  210.6190  147.2260 C   0  0  2  0  0  3  0  0  0  0  0  0
  160.5150  213.7730  146.7740 O   0  0  0  0  0  1  0  0  0  0  0  0
  160.0160  207.1760  150.1890 O   0  0  0  0  0  1  0  0  0  0  0  0
  161.9460  211.1530  150.4290 C   0  0  0  0  0  2  0  0  0  0  0  0
  163.5240  207.9490  150.0900 O   0  0  0  0  0  1  0  0  0  0  0  0
  160.8730  209.2310  149.3670 C   0  0  2  0  0  3  0  0  0  0  0  0
  161.1580  207.7370  149.6030 C   0  0  1  0  0  0  0  0  0  0  0  0
  161.8380  209.8970  148.3700 C   0  0  2  0  0  3  0  0  0  0  0  0
  161.9550  208.9380  151.5560 C   0  0  1  0  0  3  0  0  0  0  0  0
  162.2650  207.7450  150.6640 C   0  0  2  0  0  3  0  0  0  0  0  0
  161.1300  209.9060  150.7130 C   0  0  1  0  0  3  0  0  0  0  0  0
  162.6980  210.8750  149.1490 C   0  0  0  0  0  2  0  0  0  0  0  0
  161.7980  207.6310  147.2290 C   0  0  0  0  0  2  0  0  0  0  0  0
  161.4440  206.9480  148.3210 C   0  0  0  0  0  0  0  0  0  0  0  0
  161.5020  204.4740  149.0980 C   0  0  2  0  0  3  0  0  0  0  0  0
  161.4660  203.1500  148.3680 C   0  0  0  0  0  2  0  0  0  0  0  0
  160.6040  204.4490  150.1640 O   0  0  0  0  0  1  0  0  0  0  0  0
  161.3030  204.9210  146.6820 C   0  0  1  0  0  3  0  0  0  0  0  0
  161.6930  203.4420  146.8890 C   0  0  1  0  0  0  0  0  0  0  0  0
  163.0400  203.2230  146.5910 O   0  0  0  0  0  1  0  0  0  0  0  0
  161.0650  205.5010  148.0780 C   0  0  2  0  0  3  0  0  0  0  0  0
  160.2360  202.9890  144.9010 O   0  0  0  0  0  0  0  0  0  0  0  0
  160.6370  201.3240  146.4220 O   0  0  0  0  0  1  0  0  0  0  0  0
  160.8440  202.5180  146.0590 C   0  0  0  0  0  0  0  0  0  0  0  0
  162.2880  205.7200  145.8210 C   0  0  0  0  0  2  0  0  0  0  0  0
  161.4330  205.8300  143.2850 C   0  0  0  0  0  3  0  0  0  0  0  0
  161.8210  205.7820  144.4290 C   0  0  0  0  0  0  0  0  0  0  0  0
  161.8220  207.4950  153.4490 O   0  0  0  0  0  1  0  0  0  0  0  0
  161.1480  208.5030  152.7670 C   0  0  0  0  0  2  0  0  0  0  0  0
  158.7440  212.8500  144.5260 C   0  0  2  0  0  3  0  0  0  0  0  0
  158.2230  213.5160  142.3070 C   0  0  0  0  0  2  0  0  0  0  0  0
  159.4600  212.0750  140.6160 C   0  0  0  0  0  0  0  0  0  0  0  0
  158.6340  213.3190  140.8450 C   0  0  1  0  0  3  0  0  0  0  0  0
  164.4010  214.0030  143.3800 C   0  0  0  0  0  3  0  0  0  0  0  0
  160.7940  212.1730  140.4370 C   0  0  0  0  0  0  0  0  0  0  0  0
  158.8000  210.7410  140.7460 C   0  0  0  0  0  2  0  0  0  0  0  0
  159.3210  213.2200  143.2200 N   0  0  0  0  0  0  0  0  0  0  0  0
  162.2270  214.4380  144.5000 C   0  0  0  0  0  3  0  0  0  0  0  0
  158.8800  209.9770  139.4690 C   0  0  0  0  0  3  0  0  0  0  0  0
  162.2800  213.3900  142.2520 C   0  0  1  0  0  3  0  0  0  0  0  0
  160.1000  214.4520  143.3170 C   0  0  0  0  0  2  0  0  0  0  0  0
  161.6170  213.7670  140.5930 S   0  0  0  0  0  0  0  0  0  0  0  0
  161.6720  211.0140  140.1520 C   0  0  0  0  0  3  0  0  0  0  0  0
  162.3510  208.9710  139.3370 F   0  0  0  0  0  0  0  0  0  0  0  0
  163.6620  214.0270  144.6920 C   0  0  0  0  0  2  0  0  0  0  0  0
  163.7580  213.6940  142.2480 C   0  0  0  0  0  3  0  0  0  0  0  0
  161.5650  214.1390  143.3720 C   0  0  0  0  0  0  0  0  0  0  0  0
  159.9700  208.7340  137.7100 C   0  0  0  0  0  1  0  0  0  0  0  0
  161.3530  209.8680  139.5340 C   0  0  0  0  0  0  0  0  0  0  0  0
  160.0330  209.5800  138.9330 C   0  0  0  0  0  0  0  0  0  0  0  0
  156.4890  213.1960  137.6960 C   0  0  0  0  0  3  0  0  0  0  0  0
  157.5840  213.0800  138.5530 C   0  0  0  0  0  3  0  0  0  0  0  0
  157.4610  213.4150  139.9130 C   0  0  0  0  0  0  0  0  0  0  0  0
  155.2650  213.6510  138.1910 C   0  0  0  0  0  3  0  0  0  0  0  0
  155.1380  213.9920  139.5420 C   0  0  0  0  0  3  0  0  0  0  0  0
  156.2350  213.8760  140.4010 C   0  0  0  0  0  3  0  0  0  0  0  0
  157.1990  213.7360  145.8580 C   0  0  0  0  0  1  0  0  0  0  0  0
  158.4420  214.0010  145.2720 O   0  0  0  0  0  0  0  0  0  0  0  0
  2  1  1  0  0  0  0
  2  7  1  1  0  0  0
  4 35  1  1  0  0  0
  4  2  1  0  0  0  0
  4  5  1  0  0  0  0
  5  3  1  0  0  0  0
  6  1  1  1  0  0  0
  6  3  1  0  0  0  0
  6 13  1  0  0  0  0
  9 16  1  0  0  0  0
 10 15  1  0  0  0  0
 11 12  1  0  0  0  0
 11 16  1  0  0  0  0
 12  8  1  0  0  0  0
 12 15  1  0  0  0  0
 13 17  1  0  0  0  0
 13 11  1  0  0  0  0
 14 34  1  0  0  0  0
 15 14  1  0  0  0  0
 16 14  1  0  0  0  0
 17  9  1  0  0  0  0
 18 19  2  0  0  0  0
 19 12  1  0  0  0  0
 20 22  1  0  0  0  0
 21 20  1  0  0  0  0
 23 24  1  0  0  0  0
 23 26  1  0  0  0  0
 24 21  1  0  0  0  0
 25 24  1  0  0  0  0
 26 19  1  0  0  0  0
 26 20  1  0  0  0  0
 27 29  2  0  0  0  0
 29 28  1  0  0  0  0
 29 24  1  0  0  0  0
 30 23  1  0  0  0  0
 31 32  3  0  0  0  0
 32 30  1  0  0  0  0
 34 33  1  0  0  0  0
 35 63  1  0  0  0  0
 36 42  1  0  0  0  0
 37 41  1  0  0  0  0
 37 38  1  0  0  0  0
 38 36  1  0  0  0  0
 39 50  1  0  0  0  0
 40 47  1  0  0  0  0
 40 37  2  0  0  0  0
 42 46  1  0  0  0  0
 42 35  1  0  0  0  0
 43 50  1  0  0  0  0
 44 41  1  0  0  0  0
 45 52  1  0  0  0  0
 46 52  1  0  0  0  0
 47 45  1  0  0  0  0
 48 40  1  0  0  0  0
 49 54  1  0  0  0  0
 51 45  1  0  0  0  0
 51 39  2  0  0  0  0
 52 43  2  0  0  0  0
 53 55  1  0  0  0  0
 54 48  2  0  0  0  0
 55 44  2  0  0  0  0
 55 54  1  0  0  0  0
 56 59  2  0  0  0  0
 56 57  1  0  0  0  0
 57 58  2  0  0  0  0
 58 61  1  0  0  0  0
 58 38  1  0  0  0  0
 59 60  1  0  0  0  0
 60 61  2  0  0  0  0
 63 62  1  0  0  0  0
M  END
>  <MODEL>
1

>  <REMARK>
 VINA RESULT:       4.3      0.000      0.000
  Name = 
  11 active torsions:
  status: ('A' for Active; 'I' for Inactive)
    1  A    between atoms: C_10  and  C_19
    2  A    between atoms: C_15  and  C_62
    3  A    between atoms: C_17  and  C_44
    4  A    between atoms: O_21  and  C_34
    5  A    between atoms: C_22  and  C_61
    6  A    between atoms: N_29  and  C_34
    7  A    between atoms: C_30  and  C_34
    8  A    between atoms: C_33  and  C_35
    9  A    between atoms: C_40  and  C_52
   10  A    between atoms: C_58  and  C_61
   11  A    between atoms: C_62  and  C_63
                            x       y       z     vdW  Elec       q    Type
                         _______ _______ _______ _____ _____    ______ ____

>  <TORSDO>
F 11

$$$$
=
 OpenBabel11072415213D

 63 70  0  0  1  0  0  0  0  0999 V2000
  160.3900  209.6370  145.7610 C   0  0  0  0  0  2  0  0  0  0  0  0
  159.8060  210.7490  144.8830 C   0  0  1  0  0  3  0  0  0  0  0  0
  160.9280  211.4940  147.2170 O   0  0  0  0  0  0  0  0  0  0  0  0
  158.9580  211.7230  145.7310 C   0  0  1  0  0  3  0  0  0  0  0  0
  159.7420  212.2190  146.9650 C   0  0  0  0  0  2  0  0  0  0  0  0
  160.5870  210.1300  147.2110 C   0  0  2  0  0  3  0  0  0  0  0  0
  160.8510  211.4370  144.2540 O   0  0  0  0  0  1  0  0  0  0  0  0
  160.2790  206.5580  150.2130 O   0  0  0  0  0  1  0  0  0  0  0  0
  162.4240  210.4250  149.9970 C   0  0  0  0  0  2  0  0  0  0  0  0
  163.6110  207.1830  149.0190 O   0  0  0  0  0  1  0  0  0  0  0  0
  160.9520  208.6210  149.2520 C   0  0  2  0  0  3  0  0  0  0  0  0
  161.2050  207.1050  149.3150 C   0  0  1  0  0  0  0  0  0  0  0  0
  161.5840  209.3060  148.0290 C   0  0  2  0  0  3  0  0  0  0  0  0
  162.6580  208.1440  150.9570 C   0  0  1  0  0  3  0  0  0  0  0  0
  162.5920  206.9970  149.9600 C   0  0  2  0  0  3  0  0  0  0  0  0
  161.6680  209.1990  150.4720 C   0  0  1  0  0  3  0  0  0  0  0  0
  162.7070  210.1950  148.5300 C   0  0  0  0  0  2  0  0  0  0  0  0
  160.1420  206.8990  147.1050 C   0  0  0  0  0  2  0  0  0  0  0  0
  161.0160  206.3860  147.9750 C   0  0  0  0  0  0  0  0  0  0  0  0
  161.2000  204.4320  146.2800 C   0  0  2  0  0  3  0  0  0  0  0  0
  161.2830  202.9280  146.4250 C   0  0  0  0  0  2  0  0  0  0  0  0
  162.1700  204.8720  145.3820 O   0  0  0  0  0  1  0  0  0  0  0  0
  161.1920  203.8790  148.6820 C   0  0  1  0  0  3  0  0  0  0  0  0
  160.9300  202.5930  147.8700 C   0  0  1  0  0  0  0  0  0  0  0  0
  159.5850  202.2190  147.9270 O   0  0  0  0  0  1  0  0  0  0  0  0
  161.4850  204.9800  147.6590 C   0  0  2  0  0  3  0  0  0  0  0  0
  161.9800  200.3460  147.5210 O   0  0  0  0  0  0  0  0  0  0  0  0
  162.2930  201.4540  149.5010 O   0  0  0  0  0  1  0  0  0  0  0  0
  161.7840  201.4490  148.3430 C   0  0  0  0  0  0  0  0  0  0  0  0
  160.0910  204.2260  149.6920 C   0  0  0  0  0  2  0  0  0  0  0  0
  160.8830  203.6450  152.1830 C   0  0  0  0  0  3  0  0  0  0  0  0
  160.5280  203.9080  151.0580 C   0  0  0  0  0  0  0  0  0  0  0  0
  161.2270  208.4620  152.8370 O   0  0  0  0  0  1  0  0  0  0  0  0
  162.2580  207.6690  152.3430 C   0  0  0  0  0  2  0  0  0  0  0  0
  158.2980  212.8710  144.9360 C   0  0  2  0  0  3  0  0  0  0  0  0
  158.3520  213.7800  142.7430 C   0  0  0  0  0  2  0  0  0  0  0  0
  159.8530  212.3980  141.2270 C   0  0  0  0  0  0  0  0  0  0  0  0
  159.0780  213.6820  141.3990 C   0  0  1  0  0  3  0  0  0  0  0  0
  164.1290  213.6260  145.2240 C   0  0  0  0  0  3  0  0  0  0  0  0
  161.1950  212.3940  141.3640 C   0  0  0  0  0  0  0  0  0  0  0  0
  159.0970  211.1200  141.0580 C   0  0  0  0  0  2  0  0  0  0  0  0
  159.1860  213.3070  143.8410 N   0  0  0  0  0  0  0  0  0  0  0  0
  161.7860  214.1440  145.8670 C   0  0  0  0  0  3  0  0  0  0  0  0
  159.4220  210.4720  139.7560 C   0  0  0  0  0  3  0  0  0  0  0  0
  162.2930  213.3050  143.5880 C   0  0  1  0  0  3  0  0  0  0  0  0
  159.9970  214.4520  144.2450 C   0  0  0  0  0  2  0  0  0  0  0  0
  162.0600  213.8900  141.8730 S   0  0  0  0  0  0  0  0  0  0  0  0
  162.0390  211.1950  141.1590 C   0  0  0  0  0  3  0  0  0  0  0  0
  162.7570  209.1830  140.3000 F   0  0  0  0  0  0  0  0  0  0  0  0
  163.1070  213.5940  146.3310 C   0  0  0  0  0  2  0  0  0  0  0  0
  163.7480  213.4790  143.9500 C   0  0  0  0  0  3  0  0  0  0  0  0
  161.3870  214.0090  144.5930 C   0  0  0  0  0  0  0  0  0  0  0  0
  160.8100  209.3040  138.1620 C   0  0  0  0  0  1  0  0  0  0  0  0
  161.8010  210.1420  140.3640 C   0  0  0  0  0  0  0  0  0  0  0  0
  160.6410  210.0270  139.4540 C   0  0  0  0  0  0  0  0  0  0  0  0
  155.9350  214.3070  139.3320 C   0  0  0  0  0  3  0  0  0  0  0  0
  156.7720  214.0640  140.4230 C   0  0  0  0  0  3  0  0  0  0  0  0
  158.1630  213.9660  140.2420 C   0  0  0  0  0  0  0  0  0  0  0  0
  156.4820  214.4510  138.0560 C   0  0  0  0  0  3  0  0  0  0  0  0
  157.8650  214.3490  137.8690 C   0  0  0  0  0  3  0  0  0  0  0  0
  158.7030  214.1050  138.9600 C   0  0  0  0  0  3  0  0  0  0  0  0
  156.6780  213.8470  146.1060 C   0  0  0  0  0  1  0  0  0  0  0  0
  158.0440  213.9370  145.8150 O   0  0  0  0  0  0  0  0  0  0  0  0
  2  7  1  1  0  0  0
  2  4  1  0  0  0  0
  2  1  1  0  0  0  0
  4 35  1  6  0  0  0
  4  5  1  0  0  0  0
  5  3  1  0  0  0  0
  6  1  1  6  0  0  0
  6  3  1  0  0  0  0
  6 13  1  0  0  0  0
  9 16  1  0  0  0  0
 10 15  1  0  0  0  0
 11 12  1  0  0  0  0
 11 16  1  0  0  0  0
 12 15  1  0  0  0  0
 12  8  1  0  0  0  0
 13 17  1  0  0  0  0
 13 11  1  0  0  0  0
 14 34  1  0  0  0  0
 15 14  1  0  0  0  0
 16 14  1  0  0  0  0
 17  9  1  0  0  0  0
 18 19  2  0  0  0  0
 19 12  1  0  0  0  0
 20 21  1  0  0  0  0
 20 26  1  0  0  0  0
 21 24  1  0  0  0  0
 22 20  1  0  0  0  0
 23 30  1  0  0  0  0
 24 25  1  0  0  0  0
 24 29  1  0  0  0  0
 24 23  1  0  0  0  0
 26 19  1  0  0  0  0
 26 23  1  0  0  0  0
 27 29  2  0  0  0  0
 29 28  1  0  0  0  0
 30 32  1  0  0  0  0
 32 31  3  0  0  0  0
 34 33  1  0  0  0  0
 35 63  1  0  0  0  0
 36 42  1  0  0  0  0
 37 40  2  0  0  0  0
 37 38  1  0  0  0  0
 38 36  1  0  0  0  0
 39 50  1  0  0  0  0
 40 47  1  0  0  0  0
 41 37  1  0  0  0  0
 42 46  1  0  0  0  0
 42 35  1  0  0  0  0
 43 50  1  0  0  0  0
 44 41  1  0  0  0  0
 45 51  1  0  0  0  0
 45 52  1  0  0  0  0
 46 52  1  0  0  0  0
 47 45  1  0  0  0  0
 48 40  1  0  0  0  0
 49 54  1  0  0  0  0
 51 39  2  0  0  0  0
 52 43  2  0  0  0  0
 53 55  1  0  0  0  0
 54 48  2  0  0  0  0
 55 44  2  0  0  0  0
 55 54  1  0  0  0  0
 56 57  1  0  0  0  0
 58 57  2  0  0  0  0
 58 38  1  0  0  0  0
 59 56  2  0  0  0  0
 60 59  1  0  0  0  0
 60 61  2  0  0  0  0
 61 58  1  0  0  0  0
 63 62  1  0  0  0  0
M  END
>  <MODEL>
2

>  <REMARK>
 VINA RESULT:       6.6      1.363      2.387
  Name = 
  11 active torsions:
  status: ('A' for Active; 'I' for Inactive)
    1  A    between atoms: C_10  and  C_19
    2  A    between atoms: C_15  and  C_62
    3  A    between atoms: C_17  and  C_44
    4  A    between atoms: O_21  and  C_34
    5  A    between atoms: C_22  and  C_61
    6  A    between atoms: N_29  and  C_34
    7  A    between atoms: C_30  and  C_34
    8  A    between atoms: C_33  and  C_35
    9  A    between atoms: C_40  and  C_52
   10  A    between atoms: C_58  and  C_61
   11  A    between atoms: C_62  and  C_63
                            x       y       z     vdW  Elec       q    Type
                         _______ _______ _______ _____ _____    ______ ____

>  <TORSDO>
F 11

$$$$
