=
 OpenBabel11072413363D

 43 47  0  0  1  0  0  0  0  0999 V2000
  160.6420  211.5220  157.1950 N   0  0  0  0  0  2  0  0  0  0  0  0
  159.4290  211.0170  156.5100 C   0  0  2  0  0  3  0  0  0  0  0  0
  159.6070  209.6930  155.7390 C   0  0  0  0  0  2  0  0  0  0  0  0
  161.8470  210.7410  156.8960 C   0  0  0  0  0  2  0  0  0  0  0  0
  158.7730  212.0150  155.7490 O   0  0  0  0  0  0  0  0  0  0  0  0
  159.4130  212.3500  153.4270 C   0  0  2  0  0  3  0  0  0  0  0  0
  162.0070  210.5420  155.3910 C   0  0  0  0  0  2  0  0  0  0  0  0
  160.5630  210.0840  153.3560 C   0  0  2  0  0  3  0  0  0  0  0  0
  160.8450  209.7220  154.8250 C   0  0  2  0  0  3  0  0  0  0  0  0
  159.2590  210.8570  153.1450 C   0  0  0  0  0  2  0  0  0  0  0  0
  159.7070  212.6370  154.8980 C   0  0  0  0  0  2  0  0  0  0  0  0
  162.2270  210.0650  151.0520 C   0  0  0  0  0  1  0  0  0  0  0  0
  160.5230  208.8050  152.5240 C   0  0  1  0  0  3  0  0  0  0  0  0
  161.4170  208.7950  151.2740 C   0  0  2  0  0  3  0  0  0  0  0  0
  161.8790  208.1300  152.5550 C   0  0  2  0  0  3  0  0  0  0  0  0
  161.6750  206.6330  152.4670 C   0  0  0  0  0  2  0  0  0  0  0  0
  161.8870  206.1620  151.0360 C   0  0  0  0  0  2  0  0  0  0  0  0
  160.7510  201.5140  146.3720 C   0  0  0  0  0  3  0  0  0  0  0  0
  160.5750  206.4390  146.2940 O   0  0  0  0  0  0  0  0  0  0  0  0
  162.6130  206.5460  147.9020 O   0  0  0  0  0  1  0  0  0  0  0  0
  161.4580  203.7550  146.0040 O   0  0  0  0  0  0  0  0  0  0  0  0
  161.0220  201.6690  147.8340 C   0  0  0  0  0  2  0  0  0  0  0  0
  160.4290  204.0360  150.5980 C   0  0  0  0  0  2  0  0  0  0  0  0
  161.0030  202.5170  145.5330 C   0  0  0  0  0  3  0  0  0  0  0  0
  160.6340  205.5410  150.4160 C   0  0  2  0  0  3  0  0  0  0  0  0
  161.6710  204.0410  147.3930 C   0  0  2  0  0  3  0  0  0  0  0  0
  160.8400  203.1130  148.2960 C   0  0  2  0  0  3  0  0  0  0  0  0
  161.3110  205.8090  147.6810 P   0  0  2  0  0  0  0  0  0  0  0  0
  161.3450  203.1900  149.7270 C   0  0  0  0  0  2  0  0  0  0  0  0
  160.1770  206.1180  149.0770 C   0  0  0  0  0  2  0  0  0  0  0  0
  158.1640  213.1030  152.9900 C   0  0  0  0  0  2  0  0  0  0  0  0
  158.1340  213.2450  151.5420 N   0  0  0  0  0  2  0  0  0  0  0  0
  159.4700  213.6310  151.1150 C   0  0  0  0  0  2  0  0  0  0  0  0
  159.3970  214.4530  149.8310 C   0  0  0  0  0  2  0  0  0  0  0  0
  159.1680  213.5980  148.5790 C   0  0  1  0  0  3  0  0  0  0  0  0
  157.5160  212.6020  147.2630 C   0  0  0  0  0  1  0  0  0  0  0  0
  157.8140  213.7680  148.0770 N   0  0  0  0  0  2  0  0  0  0  0  0
  160.1740  213.9130  147.4810 C   0  0  0  0  0  2  0  0  0  0  0  0
  160.8630  212.6430  147.0120 C   0  0  0  0  0  2  0  0  0  0  0  0
  160.3730  212.5650  144.6840 O   0  0  0  0  0  0  0  0  0  0  0  0
  162.9870  213.3200  143.8460 C   0  0  0  0  0  1  0  0  0  0  0  0
  161.2380  212.7730  145.5780 C   0  0  0  0  0  0  0  0  0  0  0  0
  162.5690  213.1600  145.2290 N   0  0  0  0  0  2  0  0  0  0  0  0
  2  3  1  6  0  0  0
  2  1  1  0  0  0  0
  4  1  1  0  0  0  0
  5  2  1  0  0  0  0
  6 31  1  1  0  0  0
  6 11  1  0  0  0  0
  7  4  1  0  0  0  0
  8 10  1  1  0  0  0
  8  9  1  0  0  0  0
  9  7  1  1  0  0  0
  9  3  1  0  0  0  0
 10  6  1  0  0  0  0
 11  5  1  0  0  0  0
 13 15  1  0  0  0  0
 13  8  1  1  0  0  0
 14 12  1  1  0  0  0
 14 13  1  0  0  0  0
 14 15  1  0  0  0  0
 15 16  1  6  0  0  0
 17 16  1  0  0  0  0
 18 22  1  0  0  0  0
 24 21  1  0  0  0  0
 24 18  2  0  0  0  0
 25 23  1  0  0  0  0
 25 17  1  6  0  0  0
 26 21  1  6  0  0  0
 26 28  1  0  0  0  0
 26 27  1  0  0  0  0
 27 22  1  6  0  0  0
 27 29  1  0  0  0  0
 28 19  2  6  0  0  0
 28 20  1  0  0  0  0
 28 30  1  0  0  0  0
 29 23  1  0  0  0  0
 30 25  1  0  0  0  0
 32 31  1  0  0  0  0
 33 32  1  0  0  0  0
 34 33  1  0  0  0  0
 35 38  1  6  0  0  0
 35 34  1  0  0  0  0
 36 37  1  0  0  0  0
 37 35  1  0  0  0  0
 39 38  1  0  0  0  0
 40 42  2  0  0  0  0
 41 43  1  0  0  0  0
 42 39  1  0  0  0  0
 43 42  1  0  0  0  0
M  END
>  <MODEL>
1

>  <REMARK>
 VINA RESULT:      -8.5      0.000      0.000
  Name = 
  13 active torsions:
  status: ('A' for Active; 'I' for Inactive)
    1  A    between atoms: C_1  and  C_23
    2  A    between atoms: C_1  and  C_42
    3  A    between atoms: N_4  and  C_5
    4  A    between atoms: N_4  and  C_12
    5  A    between atoms: C_5  and  C_25
    6  A    between atoms: C_8  and  C_12
    7  A    between atoms: C_8  and  C_23
    8  A    between atoms: C_20  and  C_32
    9  A    between atoms: C_21  and  C_29
   10  A    between atoms: C_21  and  C_35
   11  A    between atoms: C_23  and  N_31
   12  A    between atoms: C_27  and  C_42
   13  A    between atoms: C_34  and  C_35
                            x       y       z     vdW  Elec       q    Type
                         _______ _______ _______ _____ _____    ______ ____

>  <TORSDO>
F 13

$$$$
=
 OpenBabel11072413363D

 43 47  0  0  1  0  0  0  0  0999 V2000
  157.3320  212.4110  156.6230 N   0  0  0  0  0  2  0  0  0  0  0  0
  156.9230  211.7520  155.3620 C   0  0  2  0  0  3  0  0  0  0  0  0
  157.7520  210.5140  154.9620 C   0  0  0  0  0  2  0  0  0  0  0  0
  158.5580  211.8520  157.2020 C   0  0  0  0  0  2  0  0  0  0  0  0
  156.7480  212.6670  154.2950 O   0  0  0  0  0  0  0  0  0  0  0  0
  158.6480  213.2160  152.8800 C   0  0  2  0  0  3  0  0  0  0  0  0
  159.6610  211.7570  156.1510 C   0  0  0  0  0  2  0  0  0  0  0  0
  159.9210  211.1730  153.6950 C   0  0  2  0  0  3  0  0  0  0  0  0
  159.2640  210.7880  155.0330 C   0  0  2  0  0  3  0  0  0  0  0  0
  158.9420  211.7340  152.6600 C   0  0  0  0  0  2  0  0  0  0  0  0
  157.8980  213.4730  154.1850 C   0  0  0  0  0  2  0  0  0  0  0  0
  162.6090  210.7710  154.5270 C   0  0  0  0  0  1  0  0  0  0  0  0
  160.6160  209.9470  153.1090 C   0  0  1  0  0  3  0  0  0  0  0  0
  162.0720  209.7320  153.5520 C   0  0  2  0  0  3  0  0  0  0  0  0
  160.9450  208.9650  154.2150 C   0  0  2  0  0  3  0  0  0  0  0  0
  160.8680  207.5620  153.6530 C   0  0  0  0  0  2  0  0  0  0  0  0
  160.6880  207.6150  152.1440 C   0  0  0  0  0  2  0  0  0  0  0  0
  161.6040  203.7590  146.7630 C   0  0  0  0  0  3  0  0  0  0  0  0
  162.0090  202.8980  151.6000 O   0  0  0  0  0  0  0  0  0  0  0  0
  159.9800  204.4550  152.0550 O   0  0  0  0  0  1  0  0  0  0  0  0
  161.0020  203.0340  148.9470 O   0  0  0  0  0  0  0  0  0  0  0  0
  161.3410  205.1770  147.1620 C   0  0  0  0  0  2  0  0  0  0  0  0
  162.0450  207.5320  149.9110 C   0  0  0  0  0  2  0  0  0  0  0  0
  161.3980  202.7700  147.6300 C   0  0  0  0  0  3  0  0  0  0  0  0
  161.9100  207.1100  151.3740 C   0  0  2  0  0  3  0  0  0  0  0  0
  160.8040  204.3580  149.4610 C   0  0  2  0  0  3  0  0  0  0  0  0
  161.5910  205.4040  148.6520 C   0  0  2  0  0  3  0  0  0  0  0  0
  161.2450  204.3630  151.2340 P   0  0  2  0  0  0  0  0  0  0  0  0
  161.0900  206.8000  148.9790 C   0  0  0  0  0  2  0  0  0  0  0  0
  162.3940  205.7000  151.7080 C   0  0  0  0  0  2  0  0  0  0  0  0
  157.8570  213.7780  151.7060 C   0  0  0  0  0  2  0  0  0  0  0  0
  158.4890  213.4170  150.4460 N   0  0  0  0  0  2  0  0  0  0  0  0
  159.8410  213.9550  150.4670 C   0  0  0  0  0  2  0  0  0  0  0  0
  160.7800  213.0540  149.6700 C   0  0  0  0  0  2  0  0  0  0  0  0
  161.6180  213.8180  148.6370 C   0  0  1  0  0  3  0  0  0  0  0  0
  162.3170  211.5950  148.4790 C   0  0  0  0  0  1  0  0  0  0  0  0
  162.6100  212.9460  148.0300 N   0  0  0  0  0  2  0  0  0  0  0  0
  160.7520  214.4530  147.5590 C   0  0  0  0  0  2  0  0  0  0  0  0
  160.8510  213.6640  146.2660 C   0  0  0  0  0  2  0  0  0  0  0  0
  159.2170  213.2450  144.5860 O   0  0  0  0  0  0  0  0  0  0  0  0
  157.1800  212.4410  146.4030 C   0  0  0  0  0  1  0  0  0  0  0  0
  159.4910  213.2590  145.8160 C   0  0  0  0  0  0  0  0  0  0  0  0
  158.5170  212.8640  146.7850 N   0  0  0  0  0  2  0  0  0  0  0  0
  1  4  1  0  0  0  0
  2  3  1  6  0  0  0
  2  1  1  0  0  0  0
  5  2  1  0  0  0  0
  6 31  1  6  0  0  0
  6 11  1  0  0  0  0
  7  4  1  0  0  0  0
  8 10  1  6  0  0  0
  8  9  1  0  0  0  0
  9  3  1  6  0  0  0
  9  7  1  0  0  0  0
 10  6  1  0  0  0  0
 11  5  1  0  0  0  0
 13 14  1  0  0  0  0
 13  8  1  1  0  0  0
 13 15  1  0  0  0  0
 14 15  1  0  0  0  0
 14 12  1  1  0  0  0
 15 16  1  6  0  0  0
 17 16  1  0  0  0  0
 18 22  1  0  0  0  0
 18 24  2  0  0  0  0
 23 25  1  0  0  0  0
 24 21  1  0  0  0  0
 25 30  1  0  0  0  0
 25 17  1  6  0  0  0
 26 21  1  6  0  0  0
 26 28  1  0  0  0  0
 27 22  1  6  0  0  0
 27 29  1  0  0  0  0
 27 26  1  0  0  0  0
 28 19  2  1  0  0  0
 28 30  1  0  0  0  0
 28 20  1  0  0  0  0
 29 23  1  0  0  0  0
 32 33  1  0  0  0  0
 32 31  1  0  0  0  0
 34 33  1  0  0  0  0
 35 38  1  6  0  0  0
 35 34  1  0  0  0  0
 37 36  1  0  0  0  0
 37 35  1  0  0  0  0
 39 38  1  0  0  0  0
 40 42  2  0  0  0  0
 41 43  1  0  0  0  0
 42 39  1  0  0  0  0
 42 43  1  0  0  0  0
M  END
>  <MODEL>
2

>  <REMARK>
 VINA RESULT:      -6.8      2.034      3.063
  Name = 
  13 active torsions:
  status: ('A' for Active; 'I' for Inactive)
    1  A    between atoms: C_1  and  C_23
    2  A    between atoms: C_1  and  C_42
    3  A    between atoms: N_4  and  C_5
    4  A    between atoms: N_4  and  C_12
    5  A    between atoms: C_5  and  C_25
    6  A    between atoms: C_8  and  C_12
    7  A    between atoms: C_8  and  C_23
    8  A    between atoms: C_20  and  C_32
    9  A    between atoms: C_21  and  C_29
   10  A    between atoms: C_21  and  C_35
   11  A    between atoms: C_23  and  N_31
   12  A    between atoms: C_27  and  C_42
   13  A    between atoms: C_34  and  C_35
                            x       y       z     vdW  Elec       q    Type
                         _______ _______ _______ _____ _____    ______ ____

>  <TORSDO>
F 13

$$$$
