=
 OpenBabel11072410283D

 32 37  0  0  1  0  0  0  0  0999 V2000
  162.1190  209.8660  150.9060 N   0  0  0  0  0  0  0  0  0  0  0  0
  161.7770  208.6190  150.9690 C   0  0  0  0  0  0  0  0  0  0  0  0
  162.7160  206.4590  151.3250 C   0  0  0  0  0  3  0  0  0  0  0  0
  160.5650  209.5720  152.6080 C   0  0  1  0  0  3  0  0  0  0  0  0
  160.7990  208.4010  151.9820 C   0  0  2  0  0  3  0  0  0  0  0  0
  160.5880  209.3710  153.9440 N   0  0  0  0  0  0  0  0  0  0  0  0
  160.9890  207.4140  152.9060 C   0  0  2  0  0  3  0  0  0  0  0  0
  162.6660  207.5560  150.6110 N   0  0  0  0  0  0  0  0  0  0  0  0
  160.8380  208.0500  154.1320 C   0  0  1  0  0  3  0  0  0  0  0  0
  161.8910  206.2410  152.6010 C   0  0  1  0  0  3  0  0  0  0  0  0
  161.2150  207.4530  155.4470 C   0  0  0  0  0  1  0  0  0  0  0  0
  161.3080  210.6400  151.8590 C   0  0  0  0  0  2  0  0  0  0  0  0
  161.0590  204.9750  152.4850 C   0  0  0  0  0  2  0  0  0  0  0  0
  161.5600  204.1150  151.3380 C   0  0  0  0  0  2  0  0  0  0  0  0
  160.4710  203.9500  150.2890 C   0  0  0  0  0  2  0  0  0  0  0  0
  160.5090  201.9850  148.7170 C   0  0  0  0  0  0  0  0  0  0  0  0
  160.9500  201.4230  147.6810 O   0  0  0  0  0  0  0  0  0  0  0  0
  160.9940  203.2820  149.1010 N   0  0  0  0  0  0  0  0  0  0  0  0
  159.5630  201.3300  149.4980 O   0  0  0  0  0  1  0  0  0  0  0  0
  161.9620  203.9400  148.3230 N   0  0  0  0  0  2  0  0  0  0  0  0
  161.2600  204.7220  147.3150 C   0  0  0  0  0  2  0  0  0  0  0  0
  160.5220  205.9380  144.8010 O   0  0  0  0  0  0  0  0  0  0  0  0
  160.7950  204.5820  144.9120 N   0  0  1  0  0  0  0  0  0  0  0  0
  161.8060  205.6170  145.1110 C   0  0  2  0  0  3  0  0  0  0  0  0
  161.8360  204.4210  145.9410 C   0  0  1  0  0  3  0  0  0  0  0  0
  160.7290  210.4090  154.9630 C   0  0  0  0  0  2  0  0  0  0  0  0
  157.1670  212.7870  155.2450 C   0  0  0  0  0  3  0  0  0  0  0  0
  158.3020  210.6630  155.5220 C   0  0  0  0  0  3  0  0  0  0  0  0
  157.1410  211.4390  155.6210 C   0  0  0  0  0  3  0  0  0  0  0  0
  159.4890  211.2340  155.0440 C   0  0  0  0  0  0  0  0  0  0  0  0
  159.5140  212.5840  154.6700 C   0  0  0  0  0  3  0  0  0  0  0  0
  158.3520  213.3590  154.7690 C   0  0  0  0  0  3  0  0  0  0  0  0
  1  2  2  0  0  0  0
  1 12  1  0  0  0  0
  3 10  1  0  0  0  0
  4 12  1  1  0  0  0
  4  6  1  0  0  0  0
  5  2  1  1  0  0  0
  5  4  1  0  0  0  0
  5  7  1  0  0  0  0
  6  9  1  0  0  0  0
  6 26  1  0  0  0  0
  7  9  1  0  0  0  0
  8  2  1  0  0  0  0
  8  3  2  0  0  0  0
  9 11  1  0  0  0  0
 10  7  1  0  0  0  0
 13 10  1  0  0  0  0
 14 13  1  0  0  0  0
 15 14  1  0  0  0  0
 16 18  1  0  0  0  0
 16 19  1  0  0  0  0
 17 16  2  0  0  0  0
 18 15  1  0  0  0  0
 20 18  1  0  0  0  0
 21 20  1  0  0  0  0
 22 23  1  0  0  0  0
 22 24  1  0  0  0  0
 23 24  1  0  0  0  0
 23 25  1  0  0  0  0
 24 25  1  0  0  0  0
 25 21  1  0  0  0  0
 26 30  1  0  0  0  0
 27 29  1  0  0  0  0
 28 29  2  0  0  0  0
 30 28  1  0  0  0  0
 31 32  1  0  0  0  0
 31 30  2  0  0  0  0
 32 27  2  0  0  0  0
M  END
>  <MODEL>
1

>  <REMARK>
 VINA RESULT:      -8.3      0.000      0.000
  Name = 
  9 active torsions:
  status: ('A' for Active; 'I' for Inactive)
    1  A    between atoms: C_1  and  N_11
    2  A    between atoms: C_1  and  C_31
    3  A    between atoms: C_10  and  C_23
    4  A    between atoms: N_11  and  N_28
    5  A    between atoms: C_13  and  C_27
    6  A    between atoms: C_13  and  N_28
    7  A    between atoms: N_17  and  C_23
    8  A    between atoms: C_21  and  C_26
    9  A    between atoms: C_21  and  C_27
                            x       y       z     vdW  Elec       q    Type
                         _______ _______ _______ _____ _____    ______ ____

>  <TORSDO>
F 9

$$$$
=
 OpenBabel11072410283D

 32 37  0  0  1  0  0  0  0  0999 V2000
  161.3180  203.6090  150.4330 N   0  0  0  0  0  0  0  0  0  0  0  0
  160.8520  204.4340  151.3150 C   0  0  0  0  0  0  0  0  0  0  0  0
  161.4510  205.4770  153.3720 C   0  0  0  0  0  3  0  0  0  0  0  0
  160.8670  205.6520  149.4220 C   0  0  1  0  0  3  0  0  0  0  0  0
  160.5310  205.6930  150.7270 C   0  0  2  0  0  3  0  0  0  0  0  0
  161.5540  206.7730  149.1070 N   0  0  0  0  0  0  0  0  0  0  0  0
  161.0060  206.8430  151.2900 C   0  0  2  0  0  3  0  0  0  0  0  0
  161.2220  204.3780  152.6960 N   0  0  0  0  0  0  0  0  0  0  0  0
  161.6330  207.5090  150.2450 C   0  0  1  0  0  3  0  0  0  0  0  0
  161.3960  206.8800  152.7500 C   0  0  1  0  0  3  0  0  0  0  0  0
  162.5360  208.6870  150.4120 C   0  0  0  0  0  1  0  0  0  0  0  0
  161.2770  204.2430  149.1060 C   0  0  0  0  0  2  0  0  0  0  0  0
  160.4240  207.7620  153.5140 C   0  0  0  0  0  2  0  0  0  0  0  0
  160.4680  207.4380  154.9980 C   0  0  0  0  0  2  0  0  0  0  0  0
  159.9740  208.6240  155.8110 C   0  0  0  0  0  2  0  0  0  0  0  0
  162.1270  209.8480  156.2580 C   0  0  0  0  0  0  0  0  0  0  0  0
  162.8780  210.8410  156.0710 O   0  0  0  0  0  0  0  0  0  0  0  0
  160.8410  209.7820  155.6180 N   0  0  0  0  0  0  0  0  0  0  0  0
  162.5440  208.8270  157.1040 O   0  0  0  0  0  1  0  0  0  0  0  0
  160.4100  210.8190  154.7750 N   0  0  0  0  0  2  0  0  0  0  0  0
  159.0680  211.1980  155.1940 C   0  0  0  0  0  2  0  0  0  0  0  0
  156.8530  213.0440  155.0180 O   0  0  0  0  0  0  0  0  0  0  0  0
  156.8370  211.8100  154.3840 N   0  0  1  0  0  0  0  0  0  0  0  0
  157.7560  212.8840  154.0130 C   0  0  2  0  0  3  0  0  0  0  0  0
  158.2170  211.5030  153.9730 C   0  0  1  0  0  3  0  0  0  0  0  0
  162.3850  206.9610  147.9210 C   0  0  0  0  0  2  0  0  0  0  0  0
  160.8940  204.6650  144.6150 C   0  0  0  0  0  3  0  0  0  0  0  0
  160.6160  206.4590  146.2210 C   0  0  0  0  0  3  0  0  0  0  0  0
  160.1320  205.7160  145.1380 C   0  0  0  0  0  3  0  0  0  0  0  0
  161.8630  206.1510  146.7830 C   0  0  0  0  0  0  0  0  0  0  0  0
  162.6260  205.1010  146.2550 C   0  0  0  0  0  3  0  0  0  0  0  0
  162.1400  204.3570  145.1730 C   0  0  0  0  0  3  0  0  0  0  0  0
  1  2  2  0  0  0  0
  2  8  1  0  0  0  0
  4 12  1  1  0  0  0
  4  5  1  0  0  0  0
  5  7  1  0  0  0  0
  5  2  1  1  0  0  0
  6  4  1  0  0  0  0
  6  9  1  0  0  0  0
  7 10  1  0  0  0  0
  8  3  2  0  0  0  0
  9 11  1  0  0  0  0
  9  7  1  0  0  0  0
 10  3  1  0  0  0  0
 10 13  1  0  0  0  0
 12  1  1  0  0  0  0
 13 14  1  0  0  0  0
 14 15  1  0  0  0  0
 16 19  1  0  0  0  0
 17 16  2  0  0  0  0
 18 15  1  0  0  0  0
 18 16  1  0  0  0  0
 20 21  1  0  0  0  0
 20 18  1  0  0  0  0
 23 22  1  0  0  0  0
 24 23  1  0  0  0  0
 24 22  1  0  0  0  0
 25 24  1  0  0  0  0
 25 23  1  0  0  0  0
 25 21  1  0  0  0  0
 26  6  1  0  0  0  0
 27 29  2  0  0  0  0
 27 32  1  0  0  0  0
 28 30  2  0  0  0  0
 29 28  1  0  0  0  0
 30 26  1  0  0  0  0
 31 30  1  0  0  0  0
 32 31  2  0  0  0  0
M  END
>  <MODEL>
2

>  <REMARK>
 VINA RESULT:      -7.4      4.074      8.958
  Name = 
  9 active torsions:
  status: ('A' for Active; 'I' for Inactive)
    1  A    between atoms: C_1  and  N_11
    2  A    between atoms: C_1  and  C_31
    3  A    between atoms: C_10  and  C_23
    4  A    between atoms: N_11  and  N_28
    5  A    between atoms: C_13  and  C_27
    6  A    between atoms: C_13  and  N_28
    7  A    between atoms: N_17  and  C_23
    8  A    between atoms: C_21  and  C_26
    9  A    between atoms: C_21  and  C_27
                            x       y       z     vdW  Elec       q    Type
                         _______ _______ _______ _____ _____    ______ ____

>  <TORSDO>
F 9

$$$$
=
 OpenBabel11072410283D

 32 37  0  0  1  0  0  0  0  0999 V2000
  161.2440  203.1260  151.3120 N   0  0  0  0  0  0  0  0  0  0  0  0
  160.8770  204.3370  151.5860 C   0  0  0  0  0  0  0  0  0  0  0  0
  161.6540  206.3010  152.6890 C   0  0  0  0  0  3  0  0  0  0  0  0
  160.8450  204.2830  149.3360 C   0  0  1  0  0  3  0  0  0  0  0  0
  160.5910  205.0730  150.3990 C   0  0  2  0  0  3  0  0  0  0  0  0
  161.5720  204.9770  148.4330 N   0  0  0  0  0  0  0  0  0  0  0  0
  161.1600  206.2990  150.2090 C   0  0  2  0  0  3  0  0  0  0  0  0
  161.3260  205.0340  152.7530 N   0  0  0  0  0  0  0  0  0  0  0  0
  161.7600  206.2150  148.9580 C   0  0  1  0  0  3  0  0  0  0  0  0
  161.6380  207.1150  151.3870 C   0  0  1  0  0  3  0  0  0  0  0  0
  162.7340  207.2090  148.4170 C   0  0  0  0  0  1  0  0  0  0  0  0
  161.1570  202.9100  149.8590 C   0  0  0  0  0  2  0  0  0  0  0  0
  160.7640  208.3470  151.5420 C   0  0  0  0  0  2  0  0  0  0  0  0
  160.8800  208.9060  152.9500 C   0  0  0  0  0  2  0  0  0  0  0  0
  161.5450  210.2730  152.9210 C   0  0  0  0  0  2  0  0  0  0  0  0
  161.3690  211.0960  155.2930 C   0  0  0  0  0  0  0  0  0  0  0  0
  160.8680  211.8750  156.1450 O   0  0  0  0  0  1  0  0  0  0  0  0
  160.9520  211.1580  153.9190 N   0  0  0  0  0  0  0  0  0  0  0  0
  162.3150  210.1610  155.6980 O   0  0  0  0  0  0  0  0  0  0  0  0
  159.9840  212.0910  153.5100 N   0  0  0  0  0  2  0  0  0  0  0  0
  158.6940  211.4170  153.5160 C   0  0  0  0  0  2  0  0  0  0  0  0
  157.0740  211.3890  155.9070 O   0  0  0  0  0  0  0  0  0  0  0  0
  156.5480  211.7130  154.6650 N   0  0  1  0  0  0  0  0  0  0  0  0
  157.5390  212.5390  155.3510 C   0  0  2  0  0  3  0  0  0  0  0  0
  157.6030  212.4020  153.9020 C   0  0  1  0  0  3  0  0  0  0  0  0
  162.3390  204.4040  147.3300 C   0  0  0  0  0  2  0  0  0  0  0  0
  159.6740  202.8380  144.3520 C   0  0  0  0  0  3  0  0  0  0  0  0
  161.1250  202.4910  146.2630 C   0  0  0  0  0  3  0  0  0  0  0  0
  160.2500  201.9810  145.2960 C   0  0  0  0  0  3  0  0  0  0  0  0
  161.4250  203.8600  146.2840 C   0  0  0  0  0  0  0  0  0  0  0  0
  160.8440  204.7180  145.3400 C   0  0  0  0  0  3  0  0  0  0  0  0
  159.9710  204.2060  144.3730 C   0  0  0  0  0  3  0  0  0  0  0  0
  1  2  2  0  0  0  0
  2  8  1  0  0  0  0
  3  8  2  0  0  0  0
  4 12  1  1  0  0  0
  4  5  1  0  0  0  0
  5  2  1  1  0  0  0
  6  9  1  0  0  0  0
  6  4  1  0  0  0  0
  7  5  1  0  0  0  0
  7 10  1  0  0  0  0
  9  7  1  0  0  0  0
 10 13  1  0  0  0  0
 10  3  1  0  0  0  0
 11  9  1  0  0  0  0
 12  1  1  0  0  0  0
 13 14  1  0  0  0  0
 15 14  1  0  0  0  0
 15 18  1  0  0  0  0
 16 19  2  0  0  0  0
 16 17  1  0  0  0  0
 18 16  1  0  0  0  0
 20 21  1  0  0  0  0
 20 18  1  0  0  0  0
 21 25  1  0  0  0  0
 23 24  1  0  0  0  0
 23 22  1  0  0  0  0
 24 22  1  0  0  0  0
 25 23  1  0  0  0  0
 25 24  1  0  0  0  0
 26  6  1  0  0  0  0
 27 32  2  0  0  0  0
 27 29  1  0  0  0  0
 28 30  1  0  0  0  0
 29 28  2  0  0  0  0
 30 26  1  0  0  0  0
 31 30  2  0  0  0  0
 32 31  1  0  0  0  0
M  END
>  <MODEL>
3

>  <REMARK>
 VINA RESULT:      -7.3      4.135      9.593
  Name = 
  9 active torsions:
  status: ('A' for Active; 'I' for Inactive)
    1  A    between atoms: C_1  and  N_11
    2  A    between atoms: C_1  and  C_31
    3  A    between atoms: C_10  and  C_23
    4  A    between atoms: N_11  and  N_28
    5  A    between atoms: C_13  and  C_27
    6  A    between atoms: C_13  and  N_28
    7  A    between atoms: N_17  and  C_23
    8  A    between atoms: C_21  and  C_26
    9  A    between atoms: C_21  and  C_27
                            x       y       z     vdW  Elec       q    Type
                         _______ _______ _______ _____ _____    ______ ____

>  <TORSDO>
F 9

$$$$
=
 OpenBabel11072410283D

 32 37  0  0  1  0  0  0  0  0999 V2000
  161.4220  203.7100  150.8830 N   0  0  0  0  0  0  0  0  0  0  0  0
  160.9130  204.6610  151.5980 C   0  0  0  0  0  0  0  0  0  0  0  0
  161.4330  206.0640  153.4530 C   0  0  0  0  0  3  0  0  0  0  0  0
  160.9430  205.5310  149.5230 C   0  0  1  0  0  3  0  0  0  0  0  0
  160.5740  205.7880  150.7940 C   0  0  2  0  0  3  0  0  0  0  0  0
  161.6070  206.6000  149.0310 N   0  0  0  0  0  0  0  0  0  0  0  0
  161.0040  207.0330  151.1570 C   0  0  2  0  0  3  0  0  0  0  0  0
  161.2510  204.8580  152.9750 N   0  0  0  0  0  0  0  0  0  0  0  0
  161.6390  207.5250  150.0230 C   0  0  1  0  0  3  0  0  0  0  0  0
  161.3570  207.3340  152.5950 C   0  0  1  0  0  3  0  0  0  0  0  0
  162.5070  208.7410  150.0010 C   0  0  0  0  0  1  0  0  0  0  0  0
  161.3960  204.1010  149.4650 C   0  0  0  0  0  2  0  0  0  0  0  0
  160.3440  208.3060  153.1740 C   0  0  0  0  0  2  0  0  0  0  0  0
  160.5850  209.7060  152.6380 C   0  0  0  0  0  2  0  0  0  0  0  0
  160.9290  210.6550  153.7750 C   0  0  0  0  0  2  0  0  0  0  0  0
  159.8110  212.4730  155.1090 C   0  0  0  0  0  0  0  0  0  0  0  0
  158.9480  213.3840  155.2050 O   0  0  0  0  0  0  0  0  0  0  0  0
  159.9160  211.6990  153.9020 N   0  0  0  0  0  0  0  0  0  0  0  0
  160.6460  212.2090  156.1880 O   0  0  0  0  0  1  0  0  0  0  0  0
  159.0620  211.9530  152.8160 N   0  0  0  0  0  2  0  0  0  0  0  0
  159.7250  212.9180  151.9520 C   0  0  0  0  0  2  0  0  0  0  0  0
  157.7640  213.4730  149.9040 O   0  0  0  0  0  0  0  0  0  0  0  0
  158.6180  214.4520  150.3920 N   0  0  1  0  0  0  0  0  0  0  0  0
  157.5820  213.8200  151.2060 C   0  0  2  0  0  3  0  0  0  0  0  0
  158.8610  214.1610  151.8150 C   0  0  1  0  0  3  0  0  0  0  0  0
  162.4620  206.6040  147.8460 C   0  0  0  0  0  2  0  0  0  0  0  0
  160.6310  204.4460  144.6180 C   0  0  0  0  0  3  0  0  0  0  0  0
  160.6480  206.3320  146.1410 C   0  0  0  0  0  3  0  0  0  0  0  0
  160.0540  205.6330  145.0840 C   0  0  0  0  0  3  0  0  0  0  0  0
  161.8190  205.8430  146.7350 C   0  0  0  0  0  0  0  0  0  0  0  0
  162.3980  204.6560  146.2660 C   0  0  0  0  0  3  0  0  0  0  0  0
  161.8030  203.9570  145.2090 C   0  0  0  0  0  3  0  0  0  0  0  0
  1  2  2  0  0  0  0
  2  8  1  0  0  0  0
  4 12  1  1  0  0  0
  4  5  1  0  0  0  0
  5  7  1  0  0  0  0
  5  2  1  1  0  0  0
  6  4  1  0  0  0  0
  6  9  1  0  0  0  0
  7 10  1  0  0  0  0
  8  3  2  0  0  0  0
  9  7  1  0  0  0  0
 10 13  1  0  0  0  0
 10  3  1  0  0  0  0
 11  9  1  0  0  0  0
 12  1  1  0  0  0  0
 14 13  1  0  0  0  0
 14 15  1  0  0  0  0
 15 18  1  0  0  0  0
 16 17  2  0  0  0  0
 16 19  1  0  0  0  0
 18 16  1  0  0  0  0
 20 18  1  0  0  0  0
 21 20  1  0  0  0  0
 22 23  1  0  0  0  0
 22 24  1  0  0  0  0
 23 24  1  0  0  0  0
 23 25  1  0  0  0  0
 24 25  1  0  0  0  0
 25 21  1  0  0  0  0
 26  6  1  0  0  0  0
 27 29  2  0  0  0  0
 27 32  1  0  0  0  0
 28 30  2  0  0  0  0
 29 28  1  0  0  0  0
 30 26  1  0  0  0  0
 31 30  1  0  0  0  0
 32 31  2  0  0  0  0
M  END
>  <MODEL>
4

>  <REMARK>
 VINA RESULT:      -6.9      4.188      9.009
  Name = 
  9 active torsions:
  status: ('A' for Active; 'I' for Inactive)
    1  A    between atoms: C_1  and  N_11
    2  A    between atoms: C_1  and  C_31
    3  A    between atoms: C_10  and  C_23
    4  A    between atoms: N_11  and  N_28
    5  A    between atoms: C_13  and  C_27
    6  A    between atoms: C_13  and  N_28
    7  A    between atoms: N_17  and  C_23
    8  A    between atoms: C_21  and  C_26
    9  A    between atoms: C_21  and  C_27
                            x       y       z     vdW  Elec       q    Type
                         _______ _______ _______ _____ _____    ______ ____

>  <TORSDO>
F 9

$$$$
=
 OpenBabel11072410283D

 32 37  0  0  1  0  0  0  0  0999 V2000
  160.5870  208.4380  156.7220 N   0  0  0  0  0  0  0  0  0  0  0  0
  161.1890  208.2520  155.5910 C   0  0  0  0  0  0  0  0  0  0  0  0
  160.8010  207.3690  153.4120 C   0  0  0  0  0  3  0  0  0  0  0  0
  161.2860  210.4830  155.8690 C   0  0  1  0  0  3  0  0  0  0  0  0
  161.6620  209.4810  155.0480 C   0  0  2  0  0  3  0  0  0  0  0  0
  160.7510  211.4820  155.1320 N   0  0  0  0  0  0  0  0  0  0  0  0
  161.3680  209.8090  153.7560 C   0  0  2  0  0  3  0  0  0  0  0  0
  160.8550  207.1770  154.7070 N   0  0  0  0  0  0  0  0  0  0  0  0
  160.8080  211.0780  153.8370 C   0  0  1  0  0  3  0  0  0  0  0  0
  161.0300  208.7340  152.7490 C   0  0  1  0  0  3  0  0  0  0  0  0
  160.0810  211.7550  152.7220 C   0  0  0  0  0  1  0  0  0  0  0  0
  160.6770  209.8590  157.0910 C   0  0  0  0  0  2  0  0  0  0  0  0
  162.1360  208.6410  151.7130 C   0  0  0  0  0  2  0  0  0  0  0  0
  161.5510  208.4000  150.3320 C   0  0  0  0  0  2  0  0  0  0  0  0
  162.2480  207.2270  149.6610 C   0  0  0  0  0  2  0  0  0  0  0  0
  161.2310  205.0150  150.2930 C   0  0  0  0  0  0  0  0  0  0  0  0
  160.4030  204.0910  150.0770 O   0  0  0  0  0  0  0  0  0  0  0  0
  161.3070  206.1420  149.4050 N   0  0  0  0  0  0  0  0  0  0  0  0
  162.0850  204.9230  151.3870 O   0  0  0  0  0  1  0  0  0  0  0  0
  160.4570  206.2290  148.2890 N   0  0  0  0  0  2  0  0  0  0  0  0
  161.2810  206.5470  147.1320 C   0  0  0  0  0  2  0  0  0  0  0  0
  163.3750  204.7030  146.3850 O   0  0  0  0  0  0  0  0  0  0  0  0
  162.4990  205.2400  145.4530 N   0  0  1  0  0  0  0  0  0  0  0  0
  162.0750  204.3250  146.5100 C   0  0  2  0  0  3  0  0  0  0  0  0
  161.1970  205.4180  146.1180 C   0  0  1  0  0  3  0  0  0  0  0  0
  159.9200  212.5690  155.6400 C   0  0  0  0  0  2  0  0  0  0  0  0
  155.8030  211.8660  154.6470 C   0  0  0  0  0  3  0  0  0  0  0  0
  157.7610  213.2950  154.6000 C   0  0  0  0  0  3  0  0  0  0  0  0
  156.4200  213.0640  154.2690 C   0  0  0  0  0  3  0  0  0  0  0  0
  158.4850  212.3280  155.3110 C   0  0  0  0  0  0  0  0  0  0  0  0
  157.8660  211.1280  155.6860 C   0  0  0  0  0  3  0  0  0  0  0  0
  156.5250  210.8980  155.3550 C   0  0  0  0  0  3  0  0  0  0  0  0
  1 12  1  0  0  0  0
  2  1  2  0  0  0  0
  3  8  2  0  0  0  0
  4 12  1  1  0  0  0
  5  2  1  1  0  0  0
  5  4  1  0  0  0  0
  6 26  1  0  0  0  0
  6  4  1  0  0  0  0
  7  9  1  0  0  0  0
  7  5  1  0  0  0  0
  8  2  1  0  0  0  0
  9  6  1  0  0  0  0
 10  3  1  0  0  0  0
 10  7  1  0  0  0  0
 11  9  1  0  0  0  0
 13 10  1  0  0  0  0
 14 13  1  0  0  0  0
 15 14  1  0  0  0  0
 16 19  1  0  0  0  0
 17 16  2  0  0  0  0
 18 15  1  0  0  0  0
 18 16  1  0  0  0  0
 20 18  1  0  0  0  0
 21 20  1  0  0  0  0
 22 24  1  0  0  0  0
 23 25  1  0  0  0  0
 23 22  1  0  0  0  0
 23 24  1  0  0  0  0
 25 24  1  0  0  0  0
 25 21  1  0  0  0  0
 27 32  1  0  0  0  0
 28 30  2  0  0  0  0
 29 28  1  0  0  0  0
 29 27  2  0  0  0  0
 30 26  1  0  0  0  0
 30 31  1  0  0  0  0
 32 31  2  0  0  0  0
M  END
>  <MODEL>
5

>  <REMARK>
 VINA RESULT:      -6.8      1.979      3.418
  Name = 
  9 active torsions:
  status: ('A' for Active; 'I' for Inactive)
    1  A    between atoms: C_1  and  N_11
    2  A    between atoms: C_1  and  C_31
    3  A    between atoms: C_10  and  C_23
    4  A    between atoms: N_11  and  N_28
    5  A    between atoms: C_13  and  C_27
    6  A    between atoms: C_13  and  N_28
    7  A    between atoms: N_17  and  C_23
    8  A    between atoms: C_21  and  C_26
    9  A    between atoms: C_21  and  C_27
                            x       y       z     vdW  Elec       q    Type
                         _______ _______ _______ _____ _____    ______ ____

>  <TORSDO>
F 9

$$$$
=
 OpenBabel11072410283D

 32 37  0  0  1  0  0  0  0  0999 V2000
  162.2980  210.2710  150.9020 N   0  0  0  0  0  0  0  0  0  0  0  0
  161.8190  209.1660  150.4280 C   0  0  0  0  0  0  0  0  0  0  0  0
  162.5200  207.0070  149.7020 C   0  0  0  0  0  3  0  0  0  0  0  0
  160.7810  209.3710  152.4150 C   0  0  1  0  0  3  0  0  0  0  0  0
  160.8580  208.5960  151.3130 C   0  0  2  0  0  3  0  0  0  0  0  0
  160.8280  208.5850  153.5130 N   0  0  0  0  0  0  0  0  0  0  0  0
  160.9680  207.2850  151.6790 C   0  0  2  0  0  3  0  0  0  0  0  0
  162.5690  208.3090  149.5610 N   0  0  0  0  0  0  0  0  0  0  0  0
  160.9330  207.3070  153.0680 C   0  0  1  0  0  3  0  0  0  0  0  0
  161.7200  206.3060  150.8080 C   0  0  1  0  0  3  0  0  0  0  0  0
  161.2850  206.1480  153.9410 C   0  0  0  0  0  1  0  0  0  0  0  0
  161.6140  210.5950  152.1640 C   0  0  0  0  0  2  0  0  0  0  0  0
  160.7460  205.3070  150.2080 C   0  0  0  0  0  2  0  0  0  0  0  0
  160.7560  205.4020  148.6920 C   0  0  0  0  0  2  0  0  0  0  0  0
  161.8360  204.5010  148.1130 C   0  0  0  0  0  2  0  0  0  0  0  0
  161.7230  204.9130  145.6340 C   0  0  0  0  0  0  0  0  0  0  0  0
  161.4300  204.5230  144.4730 O   0  0  0  0  0  0  0  0  0  0  0  0
  161.4790  204.0640  146.7670 N   0  0  0  0  0  0  0  0  0  0  0  0
  162.2650  206.1820  145.8100 O   0  0  0  0  0  1  0  0  0  0  0  0
  160.9160  202.7880  146.5940 N   0  0  0  0  0  2  0  0  0  0  0  0
  161.5000  201.9100  147.5980 C   0  0  0  0  0  2  0  0  0  0  0  0
  160.8550  201.7270  150.4080 O   0  0  0  0  0  0  0  0  0  0  0  0
  160.8390  200.6180  149.5740 N   0  0  1  0  0  0  0  0  0  0  0  0
  159.9040  201.7320  149.4360 C   0  0  2  0  0  3  0  0  0  0  0  0
  160.4080  201.0710  148.2410 C   0  0  1  0  0  3  0  0  0  0  0  0
  161.1210  209.0320  154.8720 C   0  0  0  0  0  2  0  0  0  0  0  0
  158.6740  212.3880  155.9540 C   0  0  0  0  0  3  0  0  0  0  0  0
  158.8950  210.0310  155.4330 C   0  0  0  0  0  3  0  0  0  0  0  0
  158.0980  211.1240  155.7930 C   0  0  0  0  0  3  0  0  0  0  0  0
  160.2710  210.2030  155.2320 C   0  0  0  0  0  0  0  0  0  0  0  0
  160.8490  211.4700  155.3970 C   0  0  0  0  0  3  0  0  0  0  0  0
  160.0500  212.5620  155.7560 C   0  0  0  0  0  3  0  0  0  0  0  0
  1 12  1  0  0  0  0
  2  1  2  0  0  0  0
  3 10  1  0  0  0  0
  4 12  1  1  0  0  0
  4  6  1  0  0  0  0
  5  2  1  1  0  0  0
  5  7  1  0  0  0  0
  5  4  1  0  0  0  0
  6 26  1  0  0  0  0
  7  9  1  0  0  0  0
  8  3  2  0  0  0  0
  8  2  1  0  0  0  0
  9  6  1  0  0  0  0
  9 11  1  0  0  0  0
 10  7  1  0  0  0  0
 13 10  1  0  0  0  0
 14 13  1  0  0  0  0
 15 14  1  0  0  0  0
 16 19  1  0  0  0  0
 16 18  1  0  0  0  0
 17 16  2  0  0  0  0
 18 15  1  0  0  0  0
 20 18  1  0  0  0  0
 20 21  1  0  0  0  0
 21 25  1  0  0  0  0
 23 22  1  0  0  0  0
 24 23  1  0  0  0  0
 24 22  1  0  0  0  0
 25 24  1  0  0  0  0
 25 23  1  0  0  0  0
 26 30  1  0  0  0  0
 28 29  2  0  0  0  0
 29 27  1  0  0  0  0
 30 31  2  0  0  0  0
 30 28  1  0  0  0  0
 31 32  1  0  0  0  0
 32 27  2  0  0  0  0
M  END
>  <MODEL>
6

>  <REMARK>
 VINA RESULT:      -6.7      1.375      3.073
  Name = 
  9 active torsions:
  status: ('A' for Active; 'I' for Inactive)
    1  A    between atoms: C_1  and  N_11
    2  A    between atoms: C_1  and  C_31
    3  A    between atoms: C_10  and  C_23
    4  A    between atoms: N_11  and  N_28
    5  A    between atoms: C_13  and  C_27
    6  A    between atoms: C_13  and  N_28
    7  A    between atoms: N_17  and  C_23
    8  A    between atoms: C_21  and  C_26
    9  A    between atoms: C_21  and  C_27
                            x       y       z     vdW  Elec       q    Type
                         _______ _______ _______ _____ _____    ______ ____

>  <TORSDO>
F 9

$$$$
=
 OpenBabel11072410283D

 32 37  0  0  1  0  0  0  0  0999 V2000
  161.4610  203.8180  151.1660 N   0  0  0  0  0  0  0  0  0  0  0  0
  160.9610  204.8130  151.8260 C   0  0  0  0  0  0  0  0  0  0  0  0
  161.4790  206.2890  153.6240 C   0  0  0  0  0  3  0  0  0  0  0  0
  161.0510  205.5840  149.7130 C   0  0  1  0  0  3  0  0  0  0  0  0
  160.6640  205.9080  150.9640 C   0  0  2  0  0  3  0  0  0  0  0  0
  161.7490  206.6130  149.1860 N   0  0  0  0  0  0  0  0  0  0  0  0
  161.1160  207.1580  151.2770 C   0  0  2  0  0  3  0  0  0  0  0  0
  161.2770  205.0660  153.1990 N   0  0  0  0  0  0  0  0  0  0  0  0
  161.7840  207.5830  150.1350 C   0  0  1  0  0  3  0  0  0  0  0  0
  161.4490  207.5190  152.7060 C   0  0  1  0  0  3  0  0  0  0  0  0
  162.6800  208.7760  150.0730 C   0  0  0  0  0  1  0  0  0  0  0  0
  161.4720  204.1430  149.7310 C   0  0  0  0  0  2  0  0  0  0  0  0
  160.4480  208.5390  153.2200 C   0  0  0  0  0  2  0  0  0  0  0  0
  160.4140  209.7540  152.3090 C   0  0  0  0  0  2  0  0  0  0  0  0
  160.9530  210.9750  153.0370 C   0  0  0  0  0  2  0  0  0  0  0  0
  159.6980  212.8420  151.9100 C   0  0  0  0  0  0  0  0  0  0  0  0
  158.8220  213.7450  151.9420 O   0  0  0  0  0  1  0  0  0  0  0  0
  159.9540  212.0390  153.0740 N   0  0  0  0  0  0  0  0  0  0  0  0
  160.4300  212.6440  150.7450 O   0  0  0  0  0  0  0  0  0  0  0  0
  159.2280  212.2480  154.2580 N   0  0  0  0  0  2  0  0  0  0  0  0
  157.9950  211.4800  154.1600 C   0  0  0  0  0  2  0  0  0  0  0  0
  157.1680  211.7120  156.9180 O   0  0  0  0  0  0  0  0  0  0  0  0
  156.2530  211.6180  155.8790 N   0  0  1  0  0  0  0  0  0  0  0  0
  157.1450  212.7620  156.0550 C   0  0  2  0  0  3  0  0  0  0  0  0
  156.8370  212.2960  154.7100 C   0  0  1  0  0  3  0  0  0  0  0  0
  162.6260  206.5430  148.0200 C   0  0  0  0  0  2  0  0  0  0  0  0
  160.6370  204.6660  144.7100 C   0  0  0  0  0  3  0  0  0  0  0  0
  160.7750  206.4600  146.3350 C   0  0  0  0  0  3  0  0  0  0  0  0
  160.1300  205.8530  145.2510 C   0  0  0  0  0  3  0  0  0  0  0  0
  161.9280  205.8800  146.8800 C   0  0  0  0  0  0  0  0  0  0  0  0
  162.4370  204.6930  146.3350 C   0  0  0  0  0  3  0  0  0  0  0  0
  161.7900  204.0860  145.2520 C   0  0  0  0  0  3  0  0  0  0  0  0
  1  2  2  0  0  0  0
  2  8  1  0  0  0  0
  4 12  1  1  0  0  0
  4  5  1  0  0  0  0
  5  7  1  0  0  0  0
  5  2  1  1  0  0  0
  6  4  1  0  0  0  0
  6  9  1  0  0  0  0
  7 10  1  0  0  0  0
  8  3  2  0  0  0  0
  9  7  1  0  0  0  0
 10 13  1  0  0  0  0
 10  3  1  0  0  0  0
 11  9  1  0  0  0  0
 12  1  1  0  0  0  0
 14 15  1  0  0  0  0
 14 13  1  0  0  0  0
 15 18  1  0  0  0  0
 16 17  1  0  0  0  0
 16 18  1  0  0  0  0
 18 20  1  0  0  0  0
 19 16  2  0  0  0  0
 21 20  1  0  0  0  0
 21 25  1  0  0  0  0
 23 24  1  0  0  0  0
 23 22  1  0  0  0  0
 24 22  1  0  0  0  0
 25 23  1  0  0  0  0
 25 24  1  0  0  0  0
 26  6  1  0  0  0  0
 27 29  2  0  0  0  0
 27 32  1  0  0  0  0
 28 30  2  0  0  0  0
 29 28  1  0  0  0  0
 30 26  1  0  0  0  0
 31 30  1  0  0  0  0
 32 31  2  0  0  0  0
M  END
>  <MODEL>
7

>  <REMARK>
 VINA RESULT:      -6.6      3.875      9.297
  Name = 
  9 active torsions:
  status: ('A' for Active; 'I' for Inactive)
    1  A    between atoms: C_1  and  N_11
    2  A    between atoms: C_1  and  C_31
    3  A    between atoms: C_10  and  C_23
    4  A    between atoms: N_11  and  N_28
    5  A    between atoms: C_13  and  C_27
    6  A    between atoms: C_13  and  N_28
    7  A    between atoms: N_17  and  C_23
    8  A    between atoms: C_21  and  C_26
    9  A    between atoms: C_21  and  C_27
                            x       y       z     vdW  Elec       q    Type
                         _______ _______ _______ _____ _____    ______ ____

>  <TORSDO>
F 9

$$$$
=
 OpenBabel11072410283D

 32 37  0  0  1  0  0  0  0  0999 V2000
  160.7850  208.4610  156.5140 N   0  0  0  0  0  0  0  0  0  0  0  0
  161.2730  208.2200  155.3390 C   0  0  0  0  0  0  0  0  0  0  0  0
  160.6690  207.2500  153.2480 C   0  0  0  0  0  3  0  0  0  0  0  0
  161.4130  210.4600  155.5090 C   0  0  1  0  0  3  0  0  0  0  0  0
  161.7010  209.4200  154.7000 C   0  0  2  0  0  3  0  0  0  0  0  0
  160.8170  211.4320  154.7840 N   0  0  0  0  0  0  0  0  0  0  0  0
  161.2850  209.6960  153.4290 C   0  0  2  0  0  3  0  0  0  0  0  0
  160.8470  207.1120  154.5380 N   0  0  0  0  0  0  0  0  0  0  0  0
  160.7450  210.9740  153.5090 C   0  0  1  0  0  3  0  0  0  0  0  0
  160.8430  208.5830  152.5070 C   0  0  1  0  0  3  0  0  0  0  0  0
  159.9190  211.6110  152.4410 C   0  0  0  0  0  1  0  0  0  0  0  0
  160.9210  209.8960  156.8100 C   0  0  0  0  0  2  0  0  0  0  0  0
  161.8430  208.4340  151.3740 C   0  0  0  0  0  2  0  0  0  0  0  0
  161.9100  206.9880  150.9130 C   0  0  0  0  0  2  0  0  0  0  0  0
  160.9660  206.7630  149.7430 C   0  0  0  0  0  2  0  0  0  0  0  0
  161.2870  205.4820  147.6010 C   0  0  0  0  0  0  0  0  0  0  0  0
  161.5950  204.4210  146.9980 O   0  0  0  0  0  1  0  0  0  0  0  0
  161.3010  205.5300  149.0370 N   0  0  0  0  0  0  0  0  0  0  0  0
  160.9130  206.6010  146.8640 O   0  0  0  0  0  0  0  0  0  0  0  0
  161.6620  204.3960  149.7840 N   0  0  0  0  0  2  0  0  0  0  0  0
  160.4520  203.6250  150.0260 C   0  0  0  0  0  2  0  0  0  0  0  0
  160.1590  201.5380  148.0500 O   0  0  0  0  0  0  0  0  0  0  0  0
  159.8730  201.3290  149.3910 N   0  0  1  0  0  0  0  0  0  0  0  0
  161.2200  201.6010  148.8980 C   0  0  2  0  0  3  0  0  0  0  0  0
  160.8040  202.1540  150.1790 C   0  0  1  0  0  3  0  0  0  0  0  0
  160.0470  212.5500  155.3230 C   0  0  0  0  0  2  0  0  0  0  0  0
  155.8440  211.9850  154.6570 C   0  0  0  0  0  3  0  0  0  0  0  0
  157.9420  211.2230  155.6020 C   0  0  0  0  0  3  0  0  0  0  0  0
  156.5700  211.0410  155.3920 C   0  0  0  0  0  3  0  0  0  0  0  0
  158.5900  212.3490  155.0760 C   0  0  0  0  0  0  0  0  0  0  0  0
  157.8610  213.2950  154.3430 C   0  0  0  0  0  3  0  0  0  0  0  0
  156.4890  213.1110  154.1310 C   0  0  0  0  0  3  0  0  0  0  0  0
  1 12  1  0  0  0  0
  2  1  2  0  0  0  0
  3  8  2  0  0  0  0
  4 12  1  1  0  0  0
  5  2  1  1  0  0  0
  5  4  1  0  0  0  0
  6 26  1  0  0  0  0
  6  4  1  0  0  0  0
  7  9  1  0  0  0  0
  7  5  1  0  0  0  0
  8  2  1  0  0  0  0
  9  6  1  0  0  0  0
 10  3  1  0  0  0  0
 10  7  1  0  0  0  0
 11  9  1  0  0  0  0
 13 10  1  0  0  0  0
 14 13  1  0  0  0  0
 15 14  1  0  0  0  0
 16 18  1  0  0  0  0
 17 16  1  0  0  0  0
 18 15  1  0  0  0  0
 18 20  1  0  0  0  0
 19 16  2  0  0  0  0
 20 21  1  0  0  0  0
 21 25  1  0  0  0  0
 22 24  1  0  0  0  0
 22 23  1  0  0  0  0
 23 25  1  0  0  0  0
 24 23  1  0  0  0  0
 24 25  1  0  0  0  0
 27 29  1  0  0  0  0
 29 28  2  0  0  0  0
 30 26  1  0  0  0  0
 30 28  1  0  0  0  0
 31 30  2  0  0  0  0
 32 31  1  0  0  0  0
 32 27  2  0  0  0  0
M  END
>  <MODEL>
8

>  <REMARK>
 VINA RESULT:      -6.5      1.789      3.638
  Name = 
  9 active torsions:
  status: ('A' for Active; 'I' for Inactive)
    1  A    between atoms: C_1  and  N_11
    2  A    between atoms: C_1  and  C_31
    3  A    between atoms: C_10  and  C_23
    4  A    between atoms: N_11  and  N_28
    5  A    between atoms: C_13  and  C_27
    6  A    between atoms: C_13  and  N_28
    7  A    between atoms: N_17  and  C_23
    8  A    between atoms: C_21  and  C_26
    9  A    between atoms: C_21  and  C_27
                            x       y       z     vdW  Elec       q    Type
                         _______ _______ _______ _____ _____    ______ ____

>  <TORSDO>
F 9

$$$$
=
 OpenBabel11072410283D

 32 37  0  0  1  0  0  0  0  0999 V2000
  160.8360  210.4490  152.5520 N   0  0  0  0  0  0  0  0  0  0  0  0
  161.3900  209.2800  152.5910 C   0  0  0  0  0  0  0  0  0  0  0  0
  160.8310  206.9720  152.7850 C   0  0  0  0  0  3  0  0  0  0  0  0
  162.0270  210.0900  150.5900 C   0  0  1  0  0  3  0  0  0  0  0  0
  162.1590  209.0330  151.4160 C   0  0  2  0  0  3  0  0  0  0  0  0
  161.7640  209.6450  149.3410 N   0  0  0  0  0  0  0  0  0  0  0  0
  161.9730  207.8750  150.7170 C   0  0  2  0  0  3  0  0  0  0  0  0
  160.8170  208.1770  153.3000 N   0  0  0  0  0  0  0  0  0  0  0  0
  161.7400  208.2900  149.4110 C   0  0  1  0  0  3  0  0  0  0  0  0
  161.3970  206.6530  151.3940 C   0  0  1  0  0  3  0  0  0  0  0  0
  161.2180  207.4090  148.3240 C   0  0  0  0  0  1  0  0  0  0  0  0
  161.2650  211.1500  151.3320 C   0  0  0  0  0  2  0  0  0  0  0  0
  162.4630  205.5750  151.4900 C   0  0  0  0  0  2  0  0  0  0  0  0
  161.8510  204.2030  151.2600 C   0  0  0  0  0  2  0  0  0  0  0  0
  160.8600  204.2540  150.1080 C   0  0  0  0  0  2  0  0  0  0  0  0
  160.8230  201.9470  149.1050 C   0  0  0  0  0  0  0  0  0  0  0  0
  161.1400  201.1520  148.1830 O   0  0  0  0  0  0  0  0  0  0  0  0
  161.2420  203.3210  149.0530 N   0  0  0  0  0  0  0  0  0  0  0  0
  160.0810  201.4790  150.1840 O   0  0  0  0  0  1  0  0  0  0  0  0
  162.0060  203.7930  147.9730 N   0  0  0  0  0  2  0  0  0  0  0  0
  161.0810  204.2210  146.9340 C   0  0  0  0  0  2  0  0  0  0  0  0
  160.7250  205.9800  144.6700 O   0  0  0  0  0  0  0  0  0  0  0  0
  160.8430  204.6050  144.5240 N   0  0  1  0  0  0  0  0  0  0  0  0
  161.9320  205.4520  145.0050 C   0  0  2  0  0  3  0  0  0  0  0  0
  161.7550  204.1240  145.5750 C   0  0  1  0  0  3  0  0  0  0  0  0
  161.2170  210.4430  148.2470 C   0  0  0  0  0  2  0  0  0  0  0  0
  163.0690  214.3150  148.1820 C   0  0  0  0  0  3  0  0  0  0  0  0
  161.1050  212.9310  148.5060 C   0  0  0  0  0  3  0  0  0  0  0  0
  161.7100  214.1930  148.4920 C   0  0  0  0  0  3  0  0  0  0  0  0
  161.8600  211.7880  148.2080 C   0  0  0  0  0  0  0  0  0  0  0  0
  163.2220  211.9110  147.9010 C   0  0  0  0  0  3  0  0  0  0  0  0
  163.8250  213.1740  147.8860 C   0  0  0  0  0  3  0  0  0  0  0  0
  1  2  2  0  0  0  0
  2  8  1  0  0  0  0
  3  8  2  0  0  0  0
  4 12  1  1  0  0  0
  4  5  1  0  0  0  0
  5  2  1  1  0  0  0
  6  9  1  0  0  0  0
  6  4  1  0  0  0  0
  7 10  1  0  0  0  0
  7  5  1  0  0  0  0
  9  7  1  0  0  0  0
 10 13  1  0  0  0  0
 10  3  1  0  0  0  0
 11  9  1  0  0  0  0
 12  1  1  0  0  0  0
 14 13  1  0  0  0  0
 15 14  1  0  0  0  0
 16 19  1  0  0  0  0
 17 16  2  0  0  0  0
 18 16  1  0  0  0  0
 18 15  1  0  0  0  0
 20 18  1  0  0  0  0
 21 20  1  0  0  0  0
 22 24  1  0  0  0  0
 23 22  1  0  0  0  0
 23 24  1  0  0  0  0
 23 25  1  0  0  0  0
 24 25  1  0  0  0  0
 25 21  1  0  0  0  0
 26  6  1  0  0  0  0
 27 29  1  0  0  0  0
 29 28  2  0  0  0  0
 30 26  1  0  0  0  0
 30 28  1  0  0  0  0
 31 30  2  0  0  0  0
 32 31  1  0  0  0  0
 32 27  2  0  0  0  0
M  END
>  <MODEL>
9

>  <REMARK>
 VINA RESULT:      -6.4      2.388      4.363
  Name = 
  9 active torsions:
  status: ('A' for Active; 'I' for Inactive)
    1  A    between atoms: C_1  and  N_11
    2  A    between atoms: C_1  and  C_31
    3  A    between atoms: C_10  and  C_23
    4  A    between atoms: N_11  and  N_28
    5  A    between atoms: C_13  and  C_27
    6  A    between atoms: C_13  and  N_28
    7  A    between atoms: N_17  and  C_23
    8  A    between atoms: C_21  and  C_26
    9  A    between atoms: C_21  and  C_27
                            x       y       z     vdW  Elec       q    Type
                         _______ _______ _______ _____ _____    ______ ____

>  <TORSDO>
F 9

$$$$
