=
 OpenBabel11072414113D

 28 31  0  0  1  0  0  0  0  0999 V2000
  157.9410  211.6110  153.9240 C   0  0  0  0  0  3  0  0  0  0  0  0
  160.8080  207.8620  152.4880 C   0  0  0  0  0  3  0  0  0  0  0  0
  156.9920  212.4160  154.3910 C   0  0  0  0  0  0  0  0  0  0  0  0
  158.5310  211.7160  152.5570 C   0  0  1  0  0  3  0  0  0  0  0  0
  158.2030  213.0560  151.9370 C   0  0  0  0  0  0  0  0  0  0  0  0
  157.2250  213.7940  152.3780 N   0  0  0  0  0  0  0  0  0  0  0  0
  160.0990  212.6760  150.3850 C   0  0  0  0  0  2  0  0  0  0  0  0
  156.6560  212.3790  155.8320 C   0  0  0  0  0  0  0  0  0  0  0  0
  159.0600  212.1510  156.5520 C   0  0  0  0  0  0  0  0  0  0  0  0
  159.0310  213.5340  150.8800 N   0  0  0  0  0  2  0  0  0  0  0  0
  160.4980  210.1890  153.1150 C   0  0  0  0  0  0  0  0  0  0  0  0
  161.0040  210.9450  155.5010 C   0  0  0  0  0  2  0  0  0  0  0  0
  159.6690  211.0200  156.1720 C   0  0  0  0  0  3  0  0  0  0  0  0
  155.4790  212.6340  156.1990 O   0  0  0  0  0  0  0  0  0  0  0  0
  157.6540  212.0810  156.8300 N   0  0  0  0  0  2  0  0  0  0  0  0
  156.3170  213.3710  153.4500 C   0  0  0  0  0  2  0  0  0  0  0  0
  160.9210  212.1300  151.5550 C   0  0  0  0  0  2  0  0  0  0  0  0
  160.4220  209.1620  152.1640 C   0  0  0  0  0  3  0  0  0  0  0  0
  160.0660  211.5790  152.7170 C   0  0  1  0  0  3  0  0  0  0  0  0
  161.2690  207.5730  153.7710 C   0  0  0  0  0  3  0  0  0  0  0  0
  161.3480  208.5780  154.7470 C   0  0  0  0  0  0  0  0  0  0  0  0
  160.9650  209.8940  154.4240 C   0  0  0  0  0  0  0  0  0  0  0  0
  159.6910  213.4870  156.4440 C   0  0  0  0  0  0  0  0  0  0  0  0
  160.5910  213.8170  157.2610 O   0  0  0  0  0  1  0  0  0  0  0  0
  159.3350  214.3820  155.4420 O   0  0  0  0  0  0  0  0  0  0  0  0
  161.8040  208.2890  156.0410 O   0  0  0  0  0  0  0  0  0  0  0  0
  159.6980  207.3320  156.4770 N   0  0  0  0  0  1  0  0  0  0  0  0
  161.0120  207.6280  157.0210 C   0  0  0  0  0  2  0  0  0  0  0  0
  1  3  2  0  0  0  0
  2 20  1  0  0  0  0
  3  8  1  0  0  0  0
  4 19  1  0  0  0  0
  4  1  1  1  0  0  0
  5  6  2  0  0  0  0
  5  4  1  0  0  0  0
  6 16  1  0  0  0  0
  7 10  1  0  0  0  0
  7 17  1  0  0  0  0
  8 14  2  0  0  0  0
  8 15  1  0  0  0  0
  9 15  1  0  0  0  0
 10  5  1  0  0  0  0
 11 22  2  0  0  0  0
 12 13  1  0  0  0  0
 13  9  2  0  0  0  0
 16  3  1  0  0  0  0
 18  2  2  0  0  0  0
 18 11  1  0  0  0  0
 19 17  1  6  0  0  0
 19 11  1  0  0  0  0
 20 21  2  0  0  0  0
 21 26  1  0  0  0  0
 22 21  1  0  0  0  0
 22 12  1  0  0  0  0
 23  9  1  0  0  0  0
 23 24  1  0  0  0  0
 25 23  2  0  0  0  0
 26 28  1  0  0  0  0
 27 28  1  0  0  0  0
M  END
>  <MODEL>
1

>  <REMARK>
 VINA RESULT:      -5.0      0.000      0.000
  Name = 
  3 active torsions:
  status: ('A' for Active; 'I' for Inactive)
    1  A    between atoms: CA_10  and  C_13
    2  A    between atoms: O_17  and  C_25
    3  A    between atoms: O_17  and  C_27
                            x       y       z     vdW  Elec       q    Type
                         _______ _______ _______ _____ _____    ______ ____

>  <TORSDO>
F 3

$$$$
=
 OpenBabel11072414113D

 28 31  0  0  1  0  0  0  0  0999 V2000
  161.0010  211.5070  154.4540 C   0  0  0  0  0  3  0  0  0  0  0  0
  162.2930  211.4350  149.6940 C   0  0  0  0  0  3  0  0  0  0  0  0
  160.8210  211.7520  155.7490 C   0  0  0  0  0  0  0  0  0  0  0  0
  161.4170  210.1840  153.9020 C   0  0  1  0  0  3  0  0  0  0  0  0
  161.2300  209.0930  154.9330 C   0  0  0  0  0  0  0  0  0  0  0  0
  161.1200  209.3620  156.2030 N   0  0  0  0  0  0  0  0  0  0  0  0
  161.2740  207.4690  153.0600 C   0  0  0  0  0  2  0  0  0  0  0  0
  160.1760  213.0180  156.1610 C   0  0  0  0  0  0  0  0  0  0  0  0
  158.4860  212.9550  154.2940 C   0  0  0  0  0  0  0  0  0  0  0  0
  161.1170  207.7460  154.4820 N   0  0  0  0  0  2  0  0  0  0  0  0
  160.8010  210.8090  151.5060 C   0  0  0  0  0  0  0  0  0  0  0  0
  158.6630  212.1450  151.9160 C   0  0  0  0  0  2  0  0  0  0  0  0
  158.9910  213.0550  153.0570 C   0  0  0  0  0  3  0  0  0  0  0  0
  160.4930  213.5440  157.2600 O   0  0  0  0  0  0  0  0  0  0  0  0
  159.1700  213.6520  155.3450 N   0  0  0  0  0  2  0  0  0  0  0  0
  161.2400  210.7170  156.7520 C   0  0  0  0  0  2  0  0  0  0  0  0
  160.4050  208.4240  152.2380 C   0  0  0  0  0  2  0  0  0  0  0  0
  161.9840  210.6180  150.7800 C   0  0  0  0  0  3  0  0  0  0  0  0
  160.5130  209.9020  152.6770 C   0  0  1  0  0  3  0  0  0  0  0  0
  161.4220  212.4580  149.3230 C   0  0  0  0  0  3  0  0  0  0  0  0
  160.2340  212.6800  150.0370 C   0  0  0  0  0  0  0  0  0  0  0  0
  159.9150  211.8550  151.1310 C   0  0  0  0  0  0  0  0  0  0  0  0
  157.4410  211.9710  154.6640 C   0  0  0  0  0  0  0  0  0  0  0  0
  156.2260  212.2790  154.5420 O   0  0  0  0  0  0  0  0  0  0  0  0
  157.7670  210.7000  155.1210 O   0  0  0  0  0  1  0  0  0  0  0  0
  159.3600  213.7140  149.6710 O   0  0  0  0  0  0  0  0  0  0  0  0
  157.2110  213.3730  148.7760 N   0  0  0  0  0  1  0  0  0  0  0  0
  158.5920  213.7040  148.4740 C   0  0  0  0  0  2  0  0  0  0  0  0
  1  3  2  0  0  0  0
  2 18  1  0  0  0  0
  3  8  1  0  0  0  0
  3 16  1  0  0  0  0
  4  1  1  1  0  0  0
  4  5  1  0  0  0  0
  5  6  2  0  0  0  0
  6 16  1  0  0  0  0
  7 10  1  0  0  0  0
  8 14  2  0  0  0  0
  9 23  1  0  0  0  0
  9 15  1  0  0  0  0
 10  5  1  0  0  0  0
 11 19  1  0  0  0  0
 12 13  1  0  0  0  0
 13  9  2  0  0  0  0
 15  8  1  0  0  0  0
 17  7  1  0  0  0  0
 18 11  2  0  0  0  0
 19 17  1  6  0  0  0
 19  4  1  0  0  0  0
 20  2  2  0  0  0  0
 20 21  1  0  0  0  0
 21 22  2  0  0  0  0
 22 11  1  0  0  0  0
 22 12  1  0  0  0  0
 23 25  1  0  0  0  0
 24 23  2  0  0  0  0
 26 21  1  0  0  0  0
 28 27  1  0  0  0  0
 28 26  1  0  0  0  0
M  END
>  <MODEL>
2

>  <REMARK>
 VINA RESULT:      -4.0      1.975      5.467
  Name = 
  3 active torsions:
  status: ('A' for Active; 'I' for Inactive)
    1  A    between atoms: CA_10  and  C_13
    2  A    between atoms: O_17  and  C_25
    3  A    between atoms: O_17  and  C_27
                            x       y       z     vdW  Elec       q    Type
                         _______ _______ _______ _____ _____    ______ ____

>  <TORSDO>
F 3

$$$$
=
 OpenBabel11072414113D

 28 31  0  0  1  0  0  0  0  0999 V2000
  159.5700  209.9480  152.9220 C   0  0  0  0  0  3  0  0  0  0  0  0
  160.4540  206.4390  149.5690 C   0  0  0  0  0  3  0  0  0  0  0  0
  159.0800  210.7670  153.8480 C   0  0  0  0  0  0  0  0  0  0  0  0
  160.1620  210.4030  151.6290 C   0  0  1  0  0  3  0  0  0  0  0  0
  160.4830  211.8810  151.6810 C   0  0  0  0  0  0  0  0  0  0  0  0
  159.9370  212.6700  152.5620 N   0  0  0  0  0  0  0  0  0  0  0  0
  162.0230  211.4980  149.7760 C   0  0  0  0  0  2  0  0  0  0  0  0
  158.7440  210.2290  155.1840 C   0  0  0  0  0  0  0  0  0  0  0  0
  160.7770  208.7420  155.2750 C   0  0  0  0  0  0  0  0  0  0  0  0
  161.4510  212.3950  150.7710 N   0  0  0  0  0  2  0  0  0  0  0  0
  161.2200  208.1350  151.1310 C   0  0  0  0  0  0  0  0  0  0  0  0
  161.9800  207.4600  153.4730 C   0  0  0  0  0  2  0  0  0  0  0  0
  160.8150  207.7640  154.3600 C   0  0  0  0  0  3  0  0  0  0  0  0
  157.8050  210.7480  155.8420 O   0  0  0  0  0  0  0  0  0  0  0  0
  159.4870  209.1370  155.7650 N   0  0  0  0  0  2  0  0  0  0  0  0
  158.9220  212.2240  153.5220 C   0  0  0  0  0  2  0  0  0  0  0  0
  162.4940  210.2040  150.4430 C   0  0  0  0  0  2  0  0  0  0  0  0
  160.7010  207.7750  149.8800 C   0  0  0  0  0  3  0  0  0  0  0  0
  161.4670  209.5950  151.4220 C   0  0  1  0  0  3  0  0  0  0  0  0
  160.7180  205.4460  150.5100 C   0  0  0  0  0  3  0  0  0  0  0  0
  161.2290  205.7760  151.7740 C   0  0  0  0  0  0  0  0  0  0  0  0
  161.4850  207.1230  152.0920 C   0  0  0  0  0  0  0  0  0  0  0  0
  161.9450  209.5950  155.5980 C   0  0  0  0  0  0  0  0  0  0  0  0
  162.5890  209.3890  156.6610 O   0  0  0  0  0  1  0  0  0  0  0  0
  162.3680  210.6040  154.7430 O   0  0  0  0  0  0  0  0  0  0  0  0
  161.4870  204.7790  152.7260 O   0  0  0  0  0  0  0  0  0  0  0  0
  161.6470  202.6100  151.8270 N   0  0  0  0  0  1  0  0  0  0  0  0
  160.8850  203.4910  152.6950 C   0  0  0  0  0  2  0  0  0  0  0  0
  1  3  2  0  0  0  0
  2 18  2  0  0  0  0
  2 20  1  0  0  0  0
  3  8  1  0  0  0  0
  4  5  1  0  0  0  0
  4  1  1  1  0  0  0
  5  6  2  0  0  0  0
  6 16  1  0  0  0  0
  7 17  1  0  0  0  0
  7 10  1  0  0  0  0
  8 15  1  0  0  0  0
  8 14  2  0  0  0  0
  9 23  1  0  0  0  0
  9 15  1  0  0  0  0
 10  5  1  0  0  0  0
 11 19  1  0  0  0  0
 11 22  2  0  0  0  0
 12 13  1  0  0  0  0
 13  9  2  0  0  0  0
 16  3  1  0  0  0  0
 18 11  1  0  0  0  0
 19 17  1  6  0  0  0
 19  4  1  0  0  0  0
 20 21  2  0  0  0  0
 21 22  1  0  0  0  0
 21 26  1  0  0  0  0
 22 12  1  0  0  0  0
 23 24  1  0  0  0  0
 25 23  2  0  0  0  0
 27 28  1  0  0  0  0
 28 26  1  0  0  0  0
M  END
>  <MODEL>
3

>  <REMARK>
 VINA RESULT:      -3.7      2.574      3.772
  Name = 
  3 active torsions:
  status: ('A' for Active; 'I' for Inactive)
    1  A    between atoms: CA_10  and  C_13
    2  A    between atoms: O_17  and  C_25
    3  A    between atoms: O_17  and  C_27
                            x       y       z     vdW  Elec       q    Type
                         _______ _______ _______ _____ _____    ______ ____

>  <TORSDO>
F 3

$$$$
=
 OpenBabel11072414113D

 28 31  0  0  1  0  0  0  0  0999 V2000
  159.8980  209.5170  154.0740 C   0  0  0  0  0  3  0  0  0  0  0  0
  156.5900  213.1620  153.7580 C   0  0  0  0  0  3  0  0  0  0  0  0
  160.5800  208.3750  154.0610 C   0  0  0  0  0  0  0  0  0  0  0  0
  159.7820  210.4080  155.2650 C   0  0  1  0  0  3  0  0  0  0  0  0
  160.8280  210.0570  156.2990 C   0  0  0  0  0  0  0  0  0  0  0  0
  161.4330  208.9030  156.2960 N   0  0  0  0  0  0  0  0  0  0  0  0
  160.4770  212.3150  157.2610 C   0  0  0  0  0  2  0  0  0  0  0  0
  160.8310  207.6990  152.7700 C   0  0  0  0  0  0  0  0  0  0  0  0
  161.2930  209.8520  151.5460 C   0  0  0  0  0  0  0  0  0  0  0  0
  161.1890  211.0450  157.2600 N   0  0  0  0  0  2  0  0  0  0  0  0
  158.8820  212.3730  153.9060 C   0  0  0  0  0  0  0  0  0  0  0  0
  160.2940  212.1510  151.7900 C   0  0  0  0  0  2  0  0  0  0  0  0
  160.2550  210.6940  151.4520 C   0  0  0  0  0  3  0  0  0  0  0  0
  160.9200  206.4430  152.7360 O   0  0  0  0  0  0  0  0  0  0  0  0
  161.0040  208.4470  151.5480 N   0  0  0  0  0  2  0  0  0  0  0  0
  161.1100  207.8270  155.3540 C   0  0  0  0  0  2  0  0  0  0  0  0
  160.4210  212.8880  155.8420 C   0  0  0  0  0  2  0  0  0  0  0  0
  157.6590  212.6860  154.5140 C   0  0  0  0  0  3  0  0  0  0  0  0
  160.0090  211.8580  154.7670 C   0  0  1  0  0  3  0  0  0  0  0  0
  156.7290  213.3240  152.3810 C   0  0  0  0  0  3  0  0  0  0  0  0
  157.9390  213.0100  151.7430 C   0  0  0  0  0  0  0  0  0  0  0  0
  159.0240  212.5340  152.5020 C   0  0  0  0  0  0  0  0  0  0  0  0
  162.6620  210.2910  151.9070 C   0  0  0  0  0  0  0  0  0  0  0  0
  163.4550  210.6610  151.0010 O   0  0  0  0  0  0  0  0  0  0  0  0
  163.0880  210.3330  153.2280 O   0  0  0  0  0  1  0  0  0  0  0  0
  158.0800  213.1640  150.3560 O   0  0  0  0  0  0  0  0  0  0  0  0
  157.1340  213.2110  148.2020 N   0  0  0  0  0  1  0  0  0  0  0  0
  157.1010  213.7890  149.5340 C   0  0  0  0  0  2  0  0  0  0  0  0
  2 18  1  0  0  0  0
  3  1  2  0  0  0  0
  3 16  1  0  0  0  0
  4  1  1  6  0  0  0
  4  5  1  0  0  0  0
  5 10  1  0  0  0  0
  6  5  2  0  0  0  0
  8  3  1  0  0  0  0
  9 15  1  0  0  0  0
  9 23  1  0  0  0  0
 10  7  1  0  0  0  0
 11 18  2  0  0  0  0
 11 19  1  0  0  0  0
 12 22  1  0  0  0  0
 13  9  2  0  0  0  0
 13 12  1  0  0  0  0
 14  8  2  0  0  0  0
 15  8  1  0  0  0  0
 16  6  1  0  0  0  0
 17  7  1  0  0  0  0
 19  4  1  0  0  0  0
 19 17  1  1  0  0  0
 20  2  2  0  0  0  0
 21 20  1  0  0  0  0
 21 22  2  0  0  0  0
 22 11  1  0  0  0  0
 23 25  1  0  0  0  0
 24 23  2  0  0  0  0
 26 21  1  0  0  0  0
 27 28  1  0  0  0  0
 28 26  1  0  0  0  0
M  END
>  <MODEL>
4

>  <REMARK>
 VINA RESULT:      -2.3      2.624      6.512
  Name = 
  3 active torsions:
  status: ('A' for Active; 'I' for Inactive)
    1  A    between atoms: CA_10  and  C_13
    2  A    between atoms: O_17  and  C_25
    3  A    between atoms: O_17  and  C_27
                            x       y       z     vdW  Elec       q    Type
                         _______ _______ _______ _____ _____    ______ ____

>  <TORSDO>
F 3

$$$$
