=
 OpenBabel11072411113D

 30 31  0  0  1  0  0  0  0  0999 V2000
  160.8770  207.0770  149.4730 C   0  0  1  0  0  3  0  0  0  0  0  0
  161.6220  204.8640  148.6780 C   0  0  2  0  0  3  0  0  0  0  0  0
  160.9270  206.1660  150.6600 C   0  0  0  0  0  0  0  0  0  0  0  0
  161.8540  209.0800  148.5710 O   0  0  0  0  0  1  0  0  0  0  0  0
  160.1780  208.7650  152.0070 F   0  0  0  0  0  0  0  0  0  0  0  0
  160.8850  204.4210  150.2770 S   0  0  0  0  0  0  0  0  0  0  0  0
  162.0490  208.0720  149.5160 C   0  0  1  0  0  3  0  0  0  0  0  0
  161.2320  206.6560  151.8750 C   0  0  0  0  0  0  0  0  0  0  0  0
  162.2920  208.7050  150.9030 C   0  0  0  0  0  2  0  0  0  0  0  0
  160.9950  206.1840  148.2470 C   0  0  0  0  0  2  0  0  0  0  0  0
  161.4120  208.1410  152.0290 C   0  0  1  0  0  3  0  0  0  0  0  0
  161.5020  205.7570  153.0450 C   0  0  0  0  0  2  0  0  0  0  0  0
  161.6310  206.5600  154.3310 C   0  0  0  0  0  2  0  0  0  0  0  0
  160.2660  207.0770  154.7780 C   0  0  0  0  0  2  0  0  0  0  0  0
  160.3360  208.0820  155.9290 C   0  0  1  0  0  0  0  0  0  0  0  0
  159.1380  208.7750  155.9370 F   0  0  0  0  0  0  0  0  0  0  0  0
  160.4710  207.3520  157.2600 C   0  0  0  0  0  1  0  0  0  0  0  0
  161.4920  209.0780  155.7120 C   0  0  2  0  0  3  0  0  0  0  0  0
  162.4540  208.9730  156.7020 F   0  0  0  0  0  0  0  0  0  0  0  0
  160.8280  211.1690  156.6030 O   0  0  0  0  0  0  0  0  0  0  0  0
  161.0270  210.5010  155.5990 C   0  0  0  0  0  0  0  0  0  0  0  0
  160.8510  211.1100  154.2480 C   0  0  0  0  0  2  0  0  0  0  0  0
  159.8880  212.2800  154.3200 C   0  0  0  0  0  1  0  0  0  0  0  0
  161.3390  203.7930  147.6380 C   0  0  0  0  0  2  0  0  0  0  0  0
  163.1050  204.5900  146.2940 O   0  0  0  0  0  0  0  0  0  0  0  0
  161.9700  204.1430  146.3280 C   0  0  0  0  0  0  0  0  0  0  0  0
  161.1930  203.9920  145.0620 C   0  0  0  0  0  2  0  0  0  0  0  0
  160.0430  206.2030  145.1320 O   0  0  0  0  0  1  0  0  0  0  0  0
  160.8960  205.3280  144.4740 C   0  0  0  0  0  0  0  0  0  0  0  0
  161.4420  205.6750  143.3950 O   0  0  0  0  0  0  0  0  0  0  0  0
  1 10  1  6  0  0  0
  1  7  1  0  0  0  0
  1  3  1  0  0  0  0
  2 24  1  6  0  0  0
  2  6  1  0  0  0  0
  3  8  2  0  0  0  0
  6  3  1  0  0  0  0
  7  4  1  6  0  0  0
  7  9  1  0  0  0  0
  8 11  1  0  0  0  0
  8 12  1  0  0  0  0
  9 11  1  0  0  0  0
 10  2  1  0  0  0  0
 11  5  1  6  0  0  0
 12 13  1  0  0  0  0
 13 14  1  0  0  0  0
 14 15  1  0  0  0  0
 15 16  1  0  0  0  0
 15 17  1  1  0  0  0
 18 15  1  0  0  0  0
 18 19  1  1  0  0  0
 21 18  1  0  0  0  0
 21 20  2  0  0  0  0
 22 23  1  0  0  0  0
 22 21  1  0  0  0  0
 25 26  2  0  0  0  0
 26 24  1  0  0  0  0
 27 26  1  0  0  0  0
 29 27  1  0  0  0  0
 29 28  1  0  0  0  0
 30 29  2  0  0  0  0
M  END
>  <MODEL>
1

>  <REMARK>
 VINA RESULT:      -7.9      0.000      0.000
  Name = 
  11 active torsions:
  status: ('A' for Active; 'I' for Inactive)
    1  A    between atoms: C_1  and  C_6
    2  A    between atoms: C_4  and  C_19
    3  A    between atoms: C_5  and  C_6
    4  A    between atoms: C_5  and  C_8
    5  A    between atoms: C_8  and  C_18
    6  A    between atoms: C_9  and  C_20
    7  A    between atoms: C_9  and  C_30
    8  A    between atoms: C_18  and  C_30
    9  A    between atoms: C_19  and  C_24
   10  A    between atoms: C_22  and  C_23
   11  A    between atoms: C_23  and  C_24
                            x       y       z     vdW  Elec       q    Type
                         _______ _______ _______ _____ _____    ______ ____

>  <TORSDO>
F 11

$$$$
=
 OpenBabel11072411113D

 30 31  0  0  1  0  0  0  0  0999 V2000
  160.7240  207.5550  152.9420 C   0  0  1  0  0  3  0  0  0  0  0  0
  161.6260  209.7570  153.5940 C   0  0  2  0  0  3  0  0  0  0  0  0
  161.0380  208.3040  151.6840 C   0  0  0  0  0  0  0  0  0  0  0  0
  161.3230  205.5860  154.1830 O   0  0  0  0  0  1  0  0  0  0  0  0
  160.1540  205.6550  150.5300 F   0  0  0  0  0  0  0  0  0  0  0  0
  161.1620  210.0770  151.8680 S   0  0  0  0  0  0  0  0  0  0  0  0
  161.7590  206.4430  153.1730 C   0  0  1  0  0  3  0  0  0  0  0  0
  161.4340  207.6380  150.5840 C   0  0  0  0  0  0  0  0  0  0  0  0
  162.1000  205.6220  151.9110 C   0  0  0  0  0  2  0  0  0  0  0  0
  160.7910  208.5750  154.0700 C   0  0  0  0  0  2  0  0  0  0  0  0
  161.4480  206.1350  150.6170 C   0  0  1  0  0  3  0  0  0  0  0  0
  161.9610  208.3530  149.3750 C   0  0  0  0  0  2  0  0  0  0  0  0
  162.6160  207.3770  148.4090 C   0  0  0  0  0  2  0  0  0  0  0  0
  161.8540  207.3380  147.0880 C   0  0  0  0  0  2  0  0  0  0  0  0
  161.1760  205.9950  146.8090 C   0  0  1  0  0  0  0  0  0  0  0  0
  160.1130  205.8850  147.6890 F   0  0  0  0  0  0  0  0  0  0  0  0
  160.6210  205.9690  145.3890 C   0  0  0  0  0  1  0  0  0  0  0  0
  162.1540  204.8300  147.0530 C   0  0  2  0  0  3  0  0  0  0  0  0
  163.1020  204.7350  146.0490 F   0  0  0  0  0  0  0  0  0  0  0  0
  161.2210  202.8020  146.2640 O   0  0  0  0  0  0  0  0  0  0  0  0
  161.4620  203.5100  147.2300 C   0  0  0  0  0  0  0  0  0  0  0  0
  161.1090  203.0450  148.6040 C   0  0  0  0  0  2  0  0  0  0  0  0
  160.9090  201.5410  148.6150 C   0  0  0  0  0  1  0  0  0  0  0  0
  161.3460  210.9710  154.4630 C   0  0  0  0  0  2  0  0  0  0  0  0
  163.1980  210.7260  155.9020 O   0  0  0  0  0  0  0  0  0  0  0  0
  161.9850  210.8240  155.8070 C   0  0  0  0  0  0  0  0  0  0  0  0
  161.1350  210.7460  157.0320 C   0  0  0  0  0  2  0  0  0  0  0  0
  158.7710  211.5400  157.0340 O   0  0  0  0  0  0  0  0  0  0  0  0
  160.1260  211.8430  157.0330 C   0  0  0  0  0  0  0  0  0  0  0  0
  160.5020  213.0430  157.0630 O   0  0  0  0  0  1  0  0  0  0  0  0
  1  7  1  0  0  0  0
  1 10  1  1  0  0  0
  2 10  1  0  0  0  0
  2 24  1  1  0  0  0
  3  6  1  0  0  0  0
  3  1  1  0  0  0  0
  6  2  1  0  0  0  0
  7  4  1  1  0  0  0
  8 11  1  0  0  0  0
  8  3  2  0  0  0  0
  9  7  1  0  0  0  0
 11  5  1  1  0  0  0
 11  9  1  0  0  0  0
 12  8  1  0  0  0  0
 13 12  1  0  0  0  0
 14 13  1  0  0  0  0
 15 17  1  6  0  0  0
 15 18  1  0  0  0  0
 15 14  1  0  0  0  0
 15 16  1  0  0  0  0
 18 19  1  6  0  0  0
 18 21  1  0  0  0  0
 20 21  2  0  0  0  0
 21 22  1  0  0  0  0
 22 23  1  0  0  0  0
 24 26  1  0  0  0  0
 26 25  2  0  0  0  0
 26 27  1  0  0  0  0
 27 29  1  0  0  0  0
 29 28  2  0  0  0  0
 29 30  1  0  0  0  0
M  END
>  <MODEL>
2

>  <REMARK>
 VINA RESULT:      -7.5      3.020      9.295
  Name = 
  11 active torsions:
  status: ('A' for Active; 'I' for Inactive)
    1  A    between atoms: C_1  and  C_6
    2  A    between atoms: C_4  and  C_19
    3  A    between atoms: C_5  and  C_6
    4  A    between atoms: C_5  and  C_8
    5  A    between atoms: C_8  and  C_18
    6  A    between atoms: C_9  and  C_20
    7  A    between atoms: C_9  and  C_30
    8  A    between atoms: C_18  and  C_30
    9  A    between atoms: C_19  and  C_24
   10  A    between atoms: C_22  and  C_23
   11  A    between atoms: C_23  and  C_24
                            x       y       z     vdW  Elec       q    Type
                         _______ _______ _______ _____ _____    ______ ____

>  <TORSDO>
F 11

$$$$
=
 OpenBabel11072411113D

 30 31  0  0  1  0  0  0  0  0999 V2000
  162.0090  206.8500  150.7240 C   0  0  1  0  0  3  0  0  0  0  0  0
  161.0790  206.9760  153.0050 C   0  0  2  0  0  3  0  0  0  0  0  0
  161.4220  205.5110  151.0450 C   0  0  0  0  0  0  0  0  0  0  0  0
  161.7870  208.7120  149.2210 O   0  0  0  0  0  1  0  0  0  0  0  0
  162.2780  205.0520  148.1840 F   0  0  0  0  0  0  0  0  0  0  0  0
  161.2030  205.1780  152.7880 S   0  0  0  0  0  0  0  0  0  0  0  0
  161.1150  207.5960  149.7200 C   0  0  1  0  0  3  0  0  0  0  0  0
  160.8860  204.7560  150.0690 C   0  0  0  0  0  0  0  0  0  0  0  0
  160.6170  206.7260  148.5460 C   0  0  0  0  0  2  0  0  0  0  0  0
  162.0690  207.6140  152.0390 C   0  0  0  0  0  2  0  0  0  0  0  0
  160.9890  205.2390  148.6480 C   0  0  1  0  0  3  0  0  0  0  0  0
  160.1010  203.5140  150.3700 C   0  0  0  0  0  2  0  0  0  0  0  0
  160.8190  202.2780  149.8500 C   0  0  0  0  0  2  0  0  0  0  0  0
  160.1370  201.7540  148.5890 C   0  0  0  0  0  2  0  0  0  0  0  0
  161.0740  201.6420  147.3850 C   0  0  1  0  0  0  0  0  0  0  0  0
  162.1790  202.4320  147.6540 F   0  0  0  0  0  0  0  0  0  0  0  0
  161.5500  200.2030  147.2180 C   0  0  0  0  0  1  0  0  0  0  0  0
  160.3850  202.1600  146.1080 C   0  0  2  0  0  3  0  0  0  0  0  0
  160.1640  201.1440  145.1940 F   0  0  0  0  0  0  0  0  0  0  0  0
  162.3390  203.4010  145.6080 O   0  0  0  0  0  0  0  0  0  0  0  0
  161.1330  203.2840  145.4510 C   0  0  0  0  0  0  0  0  0  0  0  0
  160.3980  204.2360  144.5670 C   0  0  0  0  0  2  0  0  0  0  0  0
  160.6550  205.6650  145.0040 C   0  0  0  0  0  1  0  0  0  0  0  0
  161.4190  207.3730  154.4310 C   0  0  0  0  0  2  0  0  0  0  0  0
  159.7990  208.4960  155.7240 O   0  0  0  0  0  0  0  0  0  0  0  0
  160.6450  208.5820  154.8480 C   0  0  0  0  0  0  0  0  0  0  0  0
  160.8720  209.8870  154.1590 C   0  0  0  0  0  2  0  0  0  0  0  0
  162.7760  210.7390  155.5250 O   0  0  0  0  0  1  0  0  0  0  0  0
  161.4610  210.8770  155.1050 C   0  0  0  0  0  0  0  0  0  0  0  0
  160.7740  211.8550  155.4980 O   0  0  0  0  0  0  0  0  0  0  0  0
  1  3  1  0  0  0  0
  1 10  1  1  0  0  0
  2 24  1  1  0  0  0
  3  6  1  0  0  0  0
  6  2  1  0  0  0  0
  7  4  1  6  0  0  0
  7  1  1  0  0  0  0
  8 12  1  0  0  0  0
  8  3  2  0  0  0  0
  9 11  1  0  0  0  0
  9  7  1  0  0  0  0
 10  2  1  0  0  0  0
 11  5  1  1  0  0  0
 11  8  1  0  0  0  0
 13 12  1  0  0  0  0
 14 13  1  0  0  0  0
 15 17  1  6  0  0  0
 15 16  1  0  0  0  0
 15 14  1  0  0  0  0
 18 19  1  6  0  0  0
 18 15  1  0  0  0  0
 21 20  2  0  0  0  0
 21 18  1  0  0  0  0
 22 23  1  0  0  0  0
 22 21  1  0  0  0  0
 24 26  1  0  0  0  0
 26 25  2  0  0  0  0
 27 26  1  0  0  0  0
 27 29  1  0  0  0  0
 29 30  2  0  0  0  0
 29 28  1  0  0  0  0
M  END
>  <MODEL>
3

>  <REMARK>
 VINA RESULT:      -7.1      3.081      9.007
  Name = 
  11 active torsions:
  status: ('A' for Active; 'I' for Inactive)
    1  A    between atoms: C_1  and  C_6
    2  A    between atoms: C_4  and  C_19
    3  A    between atoms: C_5  and  C_6
    4  A    between atoms: C_5  and  C_8
    5  A    between atoms: C_8  and  C_18
    6  A    between atoms: C_9  and  C_20
    7  A    between atoms: C_9  and  C_30
    8  A    between atoms: C_18  and  C_30
    9  A    between atoms: C_19  and  C_24
   10  A    between atoms: C_22  and  C_23
   11  A    between atoms: C_23  and  C_24
                            x       y       z     vdW  Elec       q    Type
                         _______ _______ _______ _____ _____    ______ ____

>  <TORSDO>
F 11

$$$$
=
 OpenBabel11072411113D

 30 31  0  0  1  0  0  0  0  0999 V2000
  160.7160  207.5280  152.9340 C   0  0  1  0  0  3  0  0  0  0  0  0
  161.6560  209.6870  153.6690 C   0  0  2  0  0  3  0  0  0  0  0  0
  161.0840  208.3000  151.7050 C   0  0  0  0  0  0  0  0  0  0  0  0
  161.2290  205.5110  154.1360 O   0  0  0  0  0  1  0  0  0  0  0  0
  160.1640  205.7070  150.4560 F   0  0  0  0  0  0  0  0  0  0  0  0
  161.2490  210.0640  151.9400 S   0  0  0  0  0  0  0  0  0  0  0  0
  161.7160  206.3820  153.1620 C   0  0  1  0  0  3  0  0  0  0  0  0
  161.4930  207.6540  150.5980 C   0  0  0  0  0  0  0  0  0  0  0  0
  162.0700  205.5860  151.8870 C   0  0  0  0  0  2  0  0  0  0  0  0
  160.7790  208.5150  154.0900 C   0  0  0  0  0  2  0  0  0  0  0  0
  161.4670  206.1500  150.5910 C   0  0  1  0  0  3  0  0  0  0  0  0
  162.0720  208.3860  149.4240 C   0  0  0  0  0  2  0  0  0  0  0  0
  162.5850  207.4110  148.3750 C   0  0  0  0  0  2  0  0  0  0  0  0
  161.6790  207.4190  147.1470 C   0  0  0  0  0  2  0  0  0  0  0  0
  161.0830  206.0500  146.8140 C   0  0  1  0  0  0  0  0  0  0  0  0
  160.0050  205.8590  147.6610 F   0  0  0  0  0  0  0  0  0  0  0  0
  160.5670  206.0340  145.3790 C   0  0  0  0  0  1  0  0  0  0  0  0
  162.1160  204.9330  147.0540 C   0  0  2  0  0  3  0  0  0  0  0  0
  163.0380  204.8550  146.0240 F   0  0  0  0  0  0  0  0  0  0  0  0
  161.2890  202.8320  146.3430 O   0  0  0  0  0  0  0  0  0  0  0  0
  161.4870  203.5900  147.2810 C   0  0  0  0  0  0  0  0  0  0  0  0
  161.1430  203.1660  148.6700 C   0  0  0  0  0  2  0  0  0  0  0  0
  160.5380  201.7750  148.6600 C   0  0  0  0  0  1  0  0  0  0  0  0
  161.3840  210.8840  154.5620 C   0  0  0  0  0  2  0  0  0  0  0  0
  159.6330  210.4110  156.0680 O   0  0  0  0  0  0  0  0  0  0  0  0
  159.9550  210.9090  155.0010 C   0  0  0  0  0  0  0  0  0  0  0  0
  158.9120  211.4990  154.1110 C   0  0  0  0  0  2  0  0  0  0  0  0
  159.4150  213.6030  155.3500 O   0  0  0  0  0  1  0  0  0  0  0  0
  158.9300  212.9860  154.2060 C   0  0  0  0  0  0  0  0  0  0  0  0
  158.5340  213.6830  153.2360 O   0  0  0  0  0  0  0  0  0  0  0  0
  1  7  1  0  0  0  0
  1 10  1  1  0  0  0
  2 10  1  0  0  0  0
  2 24  1  1  0  0  0
  3  6  1  0  0  0  0
  3  1  1  0  0  0  0
  6  2  1  0  0  0  0
  7  4  1  1  0  0  0
  8  3  2  0  0  0  0
  9  7  1  0  0  0  0
 11  5  1  1  0  0  0
 11  8  1  0  0  0  0
 11  9  1  0  0  0  0
 12  8  1  0  0  0  0
 13 12  1  0  0  0  0
 14 13  1  0  0  0  0
 15 17  1  6  0  0  0
 15 18  1  0  0  0  0
 15 14  1  0  0  0  0
 15 16  1  0  0  0  0
 18 19  1  6  0  0  0
 18 21  1  0  0  0  0
 20 21  2  0  0  0  0
 21 22  1  0  0  0  0
 23 22  1  0  0  0  0
 24 26  1  0  0  0  0
 26 25  2  0  0  0  0
 27 29  1  0  0  0  0
 27 26  1  0  0  0  0
 29 28  1  0  0  0  0
 30 29  2  0  0  0  0
M  END
>  <MODEL>
4

>  <REMARK>
 VINA RESULT:      -7.1      3.007      8.955
  Name = 
  11 active torsions:
  status: ('A' for Active; 'I' for Inactive)
    1  A    between atoms: C_1  and  C_6
    2  A    between atoms: C_4  and  C_19
    3  A    between atoms: C_5  and  C_6
    4  A    between atoms: C_5  and  C_8
    5  A    between atoms: C_8  and  C_18
    6  A    between atoms: C_9  and  C_20
    7  A    between atoms: C_9  and  C_30
    8  A    between atoms: C_18  and  C_30
    9  A    between atoms: C_19  and  C_24
   10  A    between atoms: C_22  and  C_23
   11  A    between atoms: C_23  and  C_24
                            x       y       z     vdW  Elec       q    Type
                         _______ _______ _______ _____ _____    ______ ____

>  <TORSDO>
F 11

$$$$
=
 OpenBabel11072411113D

 30 31  0  0  1  0  0  0  0  0999 V2000
  160.7900  205.8890  150.3230 C   0  0  1  0  0  3  0  0  0  0  0  0
  161.4440  203.5520  150.7650 C   0  0  2  0  0  3  0  0  0  0  0  0
  160.8940  205.7240  151.8070 C   0  0  0  0  0  0  0  0  0  0  0  0
  161.7490  207.0840  148.4700 O   0  0  0  0  0  1  0  0  0  0  0  0
  160.2760  208.6770  151.6340 F   0  0  0  0  0  0  0  0  0  0  0  0
  160.7960  204.0380  152.3910 S   0  0  0  0  0  0  0  0  0  0  0  0
  161.9810  206.7050  149.7930 C   0  0  1  0  0  3  0  0  0  0  0  0
  161.2800  206.7590  152.5760 C   0  0  0  0  0  0  0  0  0  0  0  0
  162.3190  207.9530  150.6360 C   0  0  0  0  0  2  0  0  0  0  0  0
  160.8170  204.4850  149.7370 C   0  0  0  0  0  2  0  0  0  0  0  0
  161.4970  208.0970  151.9260 C   0  0  1  0  0  3  0  0  0  0  0  0
  161.6030  206.5850  154.0300 C   0  0  0  0  0  2  0  0  0  0  0  0
  160.7140  207.4670  154.8940 C   0  0  0  0  0  2  0  0  0  0  0  0
  161.5050  208.0410  156.0660 C   0  0  0  0  0  2  0  0  0  0  0  0
  161.3560  209.5540  156.2270 C   0  0  1  0  0  0  0  0  0  0  0  0
  160.2840  209.7700  157.0760 F   0  0  0  0  0  0  0  0  0  0  0  0
  162.6030  210.1410  156.8790 C   0  0  0  0  0  1  0  0  0  0  0  0
  161.0630  210.2200  154.8690 C   0  0  2  0  0  3  0  0  0  0  0  0
  162.2220  210.6580  154.2500 F   0  0  0  0  0  0  0  0  0  0  0  0
  160.3930  212.4010  155.5030 O   0  0  0  0  0  0  0  0  0  0  0  0
  160.0780  211.3490  154.9680 C   0  0  0  0  0  0  0  0  0  0  0  0
  158.7210  211.1930  154.3660 C   0  0  0  0  0  2  0  0  0  0  0  0
  158.7890  211.3760  152.8620 C   0  0  0  0  0  1  0  0  0  0  0  0
  161.0790  202.1120  150.4480 C   0  0  0  0  0  2  0  0  0  0  0  0
  159.2700  201.6140  149.0210 O   0  0  0  0  0  0  0  0  0  0  0  0
  160.4210  202.0110  149.1090 C   0  0  0  0  0  0  0  0  0  0  0  0
  161.1870  202.3500  147.8730 C   0  0  0  0  0  2  0  0  0  0  0  0
  161.4730  199.9860  147.1310 O   0  0  0  0  0  1  0  0  0  0  0  0
  161.0300  201.2730  146.8550 C   0  0  0  0  0  0  0  0  0  0  0  0
  160.4700  201.5220  145.7570 O   0  0  0  0  0  0  0  0  0  0  0  0
  1 10  1  6  0  0  0
  1  3  1  0  0  0  0
  2 24  1  6  0  0  0
  2  6  1  0  0  0  0
  3  6  1  0  0  0  0
  3  8  2  0  0  0  0
  7  4  1  6  0  0  0
  7  1  1  0  0  0  0
  7  9  1  0  0  0  0
  8 12  1  0  0  0  0
  9 11  1  0  0  0  0
 10  2  1  0  0  0  0
 11  5  1  6  0  0  0
 11  8  1  0  0  0  0
 12 13  1  0  0  0  0
 13 14  1  0  0  0  0
 14 15  1  0  0  0  0
 15 17  1  1  0  0  0
 15 16  1  0  0  0  0
 18 19  1  1  0  0  0
 18 21  1  0  0  0  0
 18 15  1  0  0  0  0
 21 20  2  0  0  0  0
 22 21  1  0  0  0  0
 23 22  1  0  0  0  0
 25 26  2  0  0  0  0
 26 24  1  0  0  0  0
 27 26  1  0  0  0  0
 29 28  1  0  0  0  0
 29 27  1  0  0  0  0
 30 29  2  0  0  0  0
M  END
>  <MODEL>
5

>  <REMARK>
 VINA RESULT:      -7.1      2.227      2.807
  Name = 
  11 active torsions:
  status: ('A' for Active; 'I' for Inactive)
    1  A    between atoms: C_1  and  C_6
    2  A    between atoms: C_4  and  C_19
    3  A    between atoms: C_5  and  C_6
    4  A    between atoms: C_5  and  C_8
    5  A    between atoms: C_8  and  C_18
    6  A    between atoms: C_9  and  C_20
    7  A    between atoms: C_9  and  C_30
    8  A    between atoms: C_18  and  C_30
    9  A    between atoms: C_19  and  C_24
   10  A    between atoms: C_22  and  C_23
   11  A    between atoms: C_23  and  C_24
                            x       y       z     vdW  Elec       q    Type
                         _______ _______ _______ _____ _____    ______ ____

>  <TORSDO>
F 11

$$$$
=
 OpenBabel11072411113D

 30 31  0  0  1  0  0  0  0  0999 V2000
  160.7060  206.6730  149.8760 C   0  0  1  0  0  3  0  0  0  0  0  0
  161.2730  204.2740  149.7880 C   0  0  2  0  0  3  0  0  0  0  0  0
  160.8580  206.1940  151.2860 C   0  0  0  0  0  0  0  0  0  0  0  0
  161.6450  208.1990  148.2740 O   0  0  0  0  0  1  0  0  0  0  0  0
  160.3630  209.1370  151.7660 F   0  0  0  0  0  0  0  0  0  0  0  0
  160.7090  204.4270  151.5070 S   0  0  0  0  0  0  0  0  0  0  0  0
  161.9100  207.5410  149.4750 C   0  0  1  0  0  3  0  0  0  0  0  0
  161.3180  207.0290  152.2370 C   0  0  0  0  0  0  0  0  0  0  0  0
  162.3330  208.5700  150.5450 C   0  0  0  0  0  2  0  0  0  0  0  0
  160.6490  205.4250  149.0080 C   0  0  0  0  0  2  0  0  0  0  0  0
  161.5680  208.4670  151.8730 C   0  0  1  0  0  3  0  0  0  0  0  0
  161.6880  206.5410  153.6060 C   0  0  0  0  0  2  0  0  0  0  0  0
  160.7570  207.1210  154.6600 C   0  0  0  0  0  2  0  0  0  0  0  0
  161.5590  207.7450  155.7980 C   0  0  0  0  0  2  0  0  0  0  0  0
  161.1270  209.1710  156.1450 C   0  0  1  0  0  0  0  0  0  0  0  0
  159.8260  209.0990  156.6150 F   0  0  0  0  0  0  0  0  0  0  0  0
  162.0030  209.7320  157.2600 C   0  0  0  0  0  1  0  0  0  0  0  0
  161.1610  210.0700  154.8940 C   0  0  2  0  0  3  0  0  0  0  0  0
  162.4330  210.5560  154.6450 F   0  0  0  0  0  0  0  0  0  0  0  0
  160.4610  212.2280  155.5720 O   0  0  0  0  0  0  0  0  0  0  0  0
  160.1830  211.2070  154.9610 C   0  0  0  0  0  0  0  0  0  0  0  0
  158.8820  211.0990  154.2380 C   0  0  0  0  0  2  0  0  0  0  0  0
  157.7280  211.1630  155.2200 C   0  0  0  0  0  1  0  0  0  0  0  0
  160.8350  202.9470  149.1920 C   0  0  0  0  0  2  0  0  0  0  0  0
  160.8370  201.9140  147.0730 O   0  0  0  0  0  0  0  0  0  0  0  0
  161.2060  202.8630  147.7460 C   0  0  0  0  0  0  0  0  0  0  0  0
  162.0710  203.9160  147.1360 C   0  0  0  0  0  2  0  0  0  0  0  0
  161.1100  205.7170  145.7040 O   0  0  0  0  0  1  0  0  0  0  0  0
  161.4840  204.3880  145.8500 C   0  0  0  0  0  0  0  0  0  0  0  0
  161.3540  203.5890  144.8870 O   0  0  0  0  0  0  0  0  0  0  0  0
  1 10  1  6  0  0  0
  1  3  1  0  0  0  0
  2 24  1  6  0  0  0
  2  6  1  0  0  0  0
  3  6  1  0  0  0  0
  3  8  2  0  0  0  0
  7  4  1  6  0  0  0
  7  1  1  0  0  0  0
  7  9  1  0  0  0  0
  8 12  1  0  0  0  0
  9 11  1  0  0  0  0
 10  2  1  0  0  0  0
 11  5  1  6  0  0  0
 11  8  1  0  0  0  0
 12 13  1  0  0  0  0
 13 14  1  0  0  0  0
 14 15  1  0  0  0  0
 15 16  1  0  0  0  0
 15 17  1  1  0  0  0
 18 19  1  1  0  0  0
 18 21  1  0  0  0  0
 18 15  1  0  0  0  0
 21 20  2  0  0  0  0
 22 21  1  0  0  0  0
 22 23  1  0  0  0  0
 25 26  2  0  0  0  0
 26 24  1  0  0  0  0
 27 26  1  0  0  0  0
 28 29  1  0  0  0  0
 29 27  1  0  0  0  0
 30 29  2  0  0  0  0
M  END
>  <MODEL>
6

>  <REMARK>
 VINA RESULT:      -6.9      1.417      1.669
  Name = 
  11 active torsions:
  status: ('A' for Active; 'I' for Inactive)
    1  A    between atoms: C_1  and  C_6
    2  A    between atoms: C_4  and  C_19
    3  A    between atoms: C_5  and  C_6
    4  A    between atoms: C_5  and  C_8
    5  A    between atoms: C_8  and  C_18
    6  A    between atoms: C_9  and  C_20
    7  A    between atoms: C_9  and  C_30
    8  A    between atoms: C_18  and  C_30
    9  A    between atoms: C_19  and  C_24
   10  A    between atoms: C_22  and  C_23
   11  A    between atoms: C_23  and  C_24
                            x       y       z     vdW  Elec       q    Type
                         _______ _______ _______ _____ _____    ______ ____

>  <TORSDO>
F 11

$$$$
=
 OpenBabel11072411113D

 30 31  0  0  1  0  0  0  0  0999 V2000
  161.6960  205.0740  149.6680 C   0  0  1  0  0  3  0  0  0  0  0  0
  160.5410  206.2020  147.8030 C   0  0  2  0  0  3  0  0  0  0  0  0
  161.8070  206.5500  149.8960 C   0  0  0  0  0  0  0  0  0  0  0  0
  160.7810  203.0660  150.6220 O   0  0  0  0  0  1  0  0  0  0  0  0
  163.1340  205.5150  152.4060 F   0  0  0  0  0  0  0  0  0  0  0  0
  161.5590  207.5610  148.4440 S   0  0  0  0  0  0  0  0  0  0  0  0
  160.6870  204.4580  150.6510 C   0  0  1  0  0  3  0  0  0  0  0  0
  161.8400  207.0390  151.1490 C   0  0  0  0  0  0  0  0  0  0  0  0
  160.8340  204.9540  152.1060 C   0  0  0  0  0  2  0  0  0  0  0  0
  161.2050  204.9010  148.2380 C   0  0  0  0  0  2  0  0  0  0  0  0
  161.8720  206.0700  152.3000 C   0  0  1  0  0  3  0  0  0  0  0  0
  161.7350  208.5090  151.4270 C   0  0  0  0  0  2  0  0  0  0  0  0
  160.8140  208.7750  152.6080 C   0  0  0  0  0  2  0  0  0  0  0  0
  160.3700  210.2350  152.6230 C   0  0  0  0  0  2  0  0  0  0  0  0
  160.4030  210.8740  154.0120 C   0  0  1  0  0  0  0  0  0  0  0  0
  161.7350  211.0180  154.3620 F   0  0  0  0  0  0  0  0  0  0  0  0
  159.7710  212.2610  153.9710 C   0  0  0  0  0  1  0  0  0  0  0  0
  159.7080  209.9670  155.0460 C   0  0  2  0  0  3  0  0  0  0  0  0
  158.5190  210.5180  155.4950 F   0  0  0  0  0  0  0  0  0  0  0  0
  160.7750  210.4370  157.1060 O   0  0  0  0  0  0  0  0  0  0  0  0
  160.5870  209.6250  156.2130 C   0  0  0  0  0  0  0  0  0  0  0  0
  161.1970  208.2650  156.2980 C   0  0  0  0  0  2  0  0  0  0  0  0
  160.2210  207.2190  155.7930 C   0  0  0  0  0  1  0  0  0  0  0  0
  160.4580  206.2580  146.2870 C   0  0  0  0  0  2  0  0  0  0  0  0
  162.7020  205.5700  146.0700 O   0  0  0  0  0  0  0  0  0  0  0  0
  161.5570  205.4590  145.6630 C   0  0  0  0  0  0  0  0  0  0  0  0
  161.2620  204.5610  144.5070 C   0  0  0  0  0  2  0  0  0  0  0  0
  161.2060  202.5650  146.0000 O   0  0  0  0  0  1  0  0  0  0  0  0
  160.6210  203.3010  144.9790 C   0  0  0  0  0  0  0  0  0  0  0  0
  159.5340  202.9210  144.4730 O   0  0  0  0  0  0  0  0  0  0  0  0
  1 10  1  6  0  0  0
  1  3  1  0  0  0  0
  1  7  1  0  0  0  0
  2 24  1  6  0  0  0
  2 10  1  0  0  0  0
  2  6  1  0  0  0  0
  3  8  2  0  0  0  0
  6  3  1  0  0  0  0
  7  4  1  1  0  0  0
  7  9  1  0  0  0  0
  8 12  1  0  0  0  0
  8 11  1  0  0  0  0
  9 11  1  0  0  0  0
 11  5  1  6  0  0  0
 12 13  1  0  0  0  0
 13 14  1  0  0  0  0
 14 15  1  0  0  0  0
 15 17  1  6  0  0  0
 15 16  1  0  0  0  0
 15 18  1  0  0  0  0
 18 19  1  1  0  0  0
 18 21  1  0  0  0  0
 21 22  1  0  0  0  0
 21 20  2  0  0  0  0
 23 22  1  0  0  0  0
 26 25  2  0  0  0  0
 26 24  1  0  0  0  0
 27 29  1  0  0  0  0
 27 26  1  0  0  0  0
 29 28  1  0  0  0  0
 30 29  2  0  0  0  0
M  END
>  <MODEL>
7

>  <REMARK>
 VINA RESULT:      -6.7      2.026      3.324
  Name = 
  11 active torsions:
  status: ('A' for Active; 'I' for Inactive)
    1  A    between atoms: C_1  and  C_6
    2  A    between atoms: C_4  and  C_19
    3  A    between atoms: C_5  and  C_6
    4  A    between atoms: C_5  and  C_8
    5  A    between atoms: C_8  and  C_18
    6  A    between atoms: C_9  and  C_20
    7  A    between atoms: C_9  and  C_30
    8  A    between atoms: C_18  and  C_30
    9  A    between atoms: C_19  and  C_24
   10  A    between atoms: C_22  and  C_23
   11  A    between atoms: C_23  and  C_24
                            x       y       z     vdW  Elec       q    Type
                         _______ _______ _______ _____ _____    ______ ____

>  <TORSDO>
F 11

$$$$
=
 OpenBabel11072411113D

 30 31  0  0  1  0  0  0  0  0999 V2000
  161.0380  205.5930  148.6350 C   0  0  1  0  0  3  0  0  0  0  0  0
  161.3620  203.6810  150.1590 C   0  0  2  0  0  3  0  0  0  0  0  0
  161.2640  206.1450  150.0070 C   0  0  0  0  0  0  0  0  0  0  0  0
  161.9770  205.5500  146.4220 O   0  0  0  0  0  1  0  0  0  0  0  0
  161.0970  208.7080  148.4150 F   0  0  0  0  0  0  0  0  0  0  0  0
  160.9660  204.9980  151.3450 S   0  0  0  0  0  0  0  0  0  0  0  0
  162.2800  205.8180  147.7570 C   0  0  1  0  0  3  0  0  0  0  0  0
  161.8820  207.3300  150.1640 C   0  0  0  0  0  0  0  0  0  0  0  0
  162.8910  207.2300  147.8750 C   0  0  0  0  0  2  0  0  0  0  0  0
  160.7870  204.1020  148.8130 C   0  0  0  0  0  2  0  0  0  0  0  0
  162.2370  208.1250  148.9380 C   0  0  1  0  0  3  0  0  0  0  0  0
  162.3200  207.8200  151.5130 C   0  0  0  0  0  2  0  0  0  0  0  0
  161.8890  209.2620  151.7340 C   0  0  0  0  0  2  0  0  0  0  0  0
  160.5120  209.3150  152.3890 C   0  0  0  0  0  2  0  0  0  0  0  0
  160.3440  210.4720  153.3750 C   0  0  1  0  0  0  0  0  0  0  0  0
  161.5830  211.0750  153.5090 F   0  0  0  0  0  0  0  0  0  0  0  0
  159.3720  211.5060  152.8160 C   0  0  0  0  0  1  0  0  0  0  0  0
  159.8850  209.9530  154.7510 C   0  0  2  0  0  3  0  0  0  0  0  0
  158.9940  210.8220  155.3570 F   0  0  0  0  0  0  0  0  0  0  0  0
  161.5250  210.5550  156.3490 O   0  0  0  0  0  0  0  0  0  0  0  0
  161.0280  209.6620  155.6800 C   0  0  0  0  0  0  0  0  0  0  0  0
  161.5250  208.2620  155.8140 C   0  0  0  0  0  2  0  0  0  0  0  0
  160.4540  207.2790  155.3800 C   0  0  0  0  0  1  0  0  0  0  0  0
  160.7490  202.3610  150.5940 C   0  0  0  0  0  2  0  0  0  0  0  0
  159.3190  201.3340  149.0250 O   0  0  0  0  0  0  0  0  0  0  0  0
  160.4670  201.4890  149.4120 C   0  0  0  0  0  0  0  0  0  0  0  0
  161.5840  200.7670  148.7350 C   0  0  0  0  0  2  0  0  0  0  0  0
  160.8170  201.7040  146.5550 O   0  0  0  0  0  0  0  0  0  0  0  0
  161.3000  200.6230  147.2790 C   0  0  0  0  0  0  0  0  0  0  0  0
  161.5270  199.5290  146.6990 O   0  0  0  0  0  1  0  0  0  0  0  0
  1 10  1  1  0  0  0
  1  3  1  0  0  0  0
  2 24  1  1  0  0  0
  2  6  1  0  0  0  0
  3  8  2  0  0  0  0
  3  6  1  0  0  0  0
  7  4  1  6  0  0  0
  7  9  1  0  0  0  0
  7  1  1  0  0  0  0
  8 12  1  0  0  0  0
  9 11  1  0  0  0  0
 10  2  1  0  0  0  0
 11  5  1  6  0  0  0
 11  8  1  0  0  0  0
 12 13  1  0  0  0  0
 13 14  1  0  0  0  0
 14 15  1  0  0  0  0
 15 17  1  6  0  0  0
 15 16  1  0  0  0  0
 15 18  1  0  0  0  0
 18 19  1  1  0  0  0
 18 21  1  0  0  0  0
 21 22  1  0  0  0  0
 21 20  2  0  0  0  0
 23 22  1  0  0  0  0
 25 26  2  0  0  0  0
 26 24  1  0  0  0  0
 27 26  1  0  0  0  0
 28 29  2  0  0  0  0
 29 27  1  0  0  0  0
 30 29  1  0  0  0  0
M  END
>  <MODEL>
8

>  <REMARK>
 VINA RESULT:      -6.7      2.408      3.771
  Name = 
  11 active torsions:
  status: ('A' for Active; 'I' for Inactive)
    1  A    between atoms: C_1  and  C_6
    2  A    between atoms: C_4  and  C_19
    3  A    between atoms: C_5  and  C_6
    4  A    between atoms: C_5  and  C_8
    5  A    between atoms: C_8  and  C_18
    6  A    between atoms: C_9  and  C_20
    7  A    between atoms: C_9  and  C_30
    8  A    between atoms: C_18  and  C_30
    9  A    between atoms: C_19  and  C_24
   10  A    between atoms: C_22  and  C_23
   11  A    between atoms: C_23  and  C_24
                            x       y       z     vdW  Elec       q    Type
                         _______ _______ _______ _____ _____    ______ ____

>  <TORSDO>
F 11

$$$$
=
 OpenBabel11072411113D

 30 31  0  0  1  0  0  0  0  0999 V2000
  162.2030  207.4380  150.3960 C   0  0  1  0  0  3  0  0  0  0  0  0
  161.2620  207.9050  152.6280 C   0  0  2  0  0  3  0  0  0  0  0  0
  161.6050  206.1650  150.9080 C   0  0  0  0  0  0  0  0  0  0  0  0
  162.0010  209.0600  148.6340 O   0  0  0  0  0  1  0  0  0  0  0  0
  162.4720  205.2830  148.1510 F   0  0  0  0  0  0  0  0  0  0  0  0
  161.3750  206.0930  152.6790 S   0  0  0  0  0  0  0  0  0  0  0  0
  161.3200  208.0340  149.2880 C   0  0  1  0  0  3  0  0  0  0  0  0
  161.0690  205.2780  150.0500 C   0  0  0  0  0  0  0  0  0  0  0  0
  160.8210  207.0030  148.2520 C   0  0  0  0  0  2  0  0  0  0  0  0
  162.2620  208.3870  151.5850 C   0  0  0  0  0  2  0  0  0  0  0  0
  161.1820  205.5450  148.5740 C   0  0  1  0  0  3  0  0  0  0  0  0
  160.2740  204.0980  150.5260 C   0  0  0  0  0  2  0  0  0  0  0  0
  160.9270  202.7930  150.0980 C   0  0  0  0  0  2  0  0  0  0  0  0
  160.2200  202.2160  148.8750 C   0  0  0  0  0  2  0  0  0  0  0  0
  161.1690  201.8420  147.7350 C   0  0  1  0  0  0  0  0  0  0  0  0
  162.3040  202.6230  147.8780 F   0  0  0  0  0  0  0  0  0  0  0  0
  161.5820  200.3790  147.8500 C   0  0  0  0  0  1  0  0  0  0  0  0
  160.5230  202.1400  146.3680 C   0  0  2  0  0  3  0  0  0  0  0  0
  160.4860  201.0150  145.5610 F   0  0  0  0  0  0  0  0  0  0  0  0
  162.4040  203.3800  145.6410 O   0  0  0  0  0  0  0  0  0  0  0  0
  161.1870  203.2710  145.6390 C   0  0  0  0  0  0  0  0  0  0  0  0
  160.3510  204.2400  144.8700 C   0  0  0  0  0  2  0  0  0  0  0  0
  161.1530  205.4860  144.5480 C   0  0  0  0  0  1  0  0  0  0  0  0
  161.5970  208.5050  153.9820 C   0  0  0  0  0  2  0  0  0  0  0  0
  159.5040  208.6390  155.0580 O   0  0  0  0  0  0  0  0  0  0  0  0
  160.4270  209.2490  154.5420 C   0  0  0  0  0  0  0  0  0  0  0  0
  160.3620  210.7350  154.4240 C   0  0  0  0  0  2  0  0  0  0  0  0
  158.5190  211.3480  152.8620 O   0  0  0  0  0  1  0  0  0  0  0  0
  159.8730  211.1280  153.0730 C   0  0  0  0  0  0  0  0  0  0  0  0
  160.6900  211.2880  152.1300 O   0  0  0  0  0  0  0  0  0  0  0  0
  1  3  1  0  0  0  0
  1 10  1  1  0  0  0
  2  6  1  0  0  0  0
  2 24  1  1  0  0  0
  3  6  1  0  0  0  0
  7  4  1  6  0  0  0
  7  1  1  0  0  0  0
  8 12  1  0  0  0  0
  8  3  2  0  0  0  0
  9 11  1  0  0  0  0
  9  7  1  0  0  0  0
 10  2  1  0  0  0  0
 11  5  1  1  0  0  0
 11  8  1  0  0  0  0
 13 12  1  0  0  0  0
 14 13  1  0  0  0  0
 15 17  1  1  0  0  0
 15 16  1  0  0  0  0
 15 14  1  0  0  0  0
 18 19  1  6  0  0  0
 18 15  1  0  0  0  0
 21 20  2  0  0  0  0
 21 18  1  0  0  0  0
 22 21  1  0  0  0  0
 23 22  1  0  0  0  0
 24 26  1  0  0  0  0
 26 25  2  0  0  0  0
 27 26  1  0  0  0  0
 28 29  1  0  0  0  0
 29 27  1  0  0  0  0
 30 29  2  0  0  0  0
M  END
>  <MODEL>
9

>  <REMARK>
 VINA RESULT:      -6.5      3.198      8.619
  Name = 
  11 active torsions:
  status: ('A' for Active; 'I' for Inactive)
    1  A    between atoms: C_1  and  C_6
    2  A    between atoms: C_4  and  C_19
    3  A    between atoms: C_5  and  C_6
    4  A    between atoms: C_5  and  C_8
    5  A    between atoms: C_8  and  C_18
    6  A    between atoms: C_9  and  C_20
    7  A    between atoms: C_9  and  C_30
    8  A    between atoms: C_18  and  C_30
    9  A    between atoms: C_19  and  C_24
   10  A    between atoms: C_22  and  C_23
   11  A    between atoms: C_23  and  C_24
                            x       y       z     vdW  Elec       q    Type
                         _______ _______ _______ _____ _____    ______ ____

>  <TORSDO>
F 11

$$$$
