=
 OpenBabel11072409543D

 48 55  0  0  1  0  0  0  0  0999 V2000
  158.9900  211.8970  154.8940 C   0  0  2  0  0  3  0  0  0  0  0  0
  159.6580  211.6580  156.2300 C   0  0  0  0  0  2  0  0  0  0  0  0
  160.3050  209.9420  154.6720 N   0  0  0  0  0  0  0  0  0  0  0  0
  159.7860  211.0710  153.9180 C   0  0  0  0  0  2  0  0  0  0  0  0
  160.5170  210.4190  156.0370 C   0  0  0  0  0  2  0  0  0  0  0  0
  161.5410  209.4500  154.0570 C   0  0  0  0  0  2  0  0  0  0  0  0
  160.9940  206.9230  155.3800 N   0  0  0  0  0  1  0  0  0  0  0  0
  161.3470  207.0040  151.2190 C   0  0  0  0  0  0  0  0  0  0  0  0
  160.8920  204.5700  151.1200 C   0  0  0  0  0  0  0  0  0  0  0  0
  160.7260  205.9440  149.0280 C   0  0  2  0  0  3  0  0  0  0  0  0
  160.7860  203.4520  151.6980 O   0  0  0  0  0  0  0  0  0  0  0  0
  161.5680  207.0150  149.7280 C   0  0  0  0  0  2  0  0  0  0  0  0
  161.8220  204.3290  147.5660 C   0  0  2  0  0  3  0  0  0  0  0  0
  161.3840  203.6180  148.8300 C   0  0  0  0  0  2  0  0  0  0  0  0
  161.4120  208.1550  153.2920 C   0  0  0  0  0  0  0  0  0  0  0  0
  161.5170  208.1460  151.9370 N   0  0  0  0  0  0  0  0  0  0  0  0
  161.0640  205.8070  151.8920 C   0  0  0  0  0  0  0  0  0  0  0  0
  160.8770  204.6610  149.6940 N   0  0  0  0  0  0  0  0  0  0  0  0
  160.9560  205.8120  153.2470 N   0  0  0  0  0  0  0  0  0  0  0  0
  161.2000  205.7240  147.6020 C   0  0  0  0  0  2  0  0  0  0  0  0
  161.1220  206.9540  153.9630 C   0  0  0  0  0  0  0  0  0  0  0  0
  161.3770  203.5740  146.3630 C   0  0  0  0  0  3  0  0  0  0  0  0
  160.7150  202.4280  146.5010 C   0  0  0  0  0  3  0  0  0  0  0  0
  160.3380  200.4070  145.3580 O   0  0  0  0  0  1  0  0  0  0  0  0
  159.7290  202.3050  144.2210 O   0  0  0  0  0  0  0  0  0  0  0  0
  160.2590  201.6620  145.3390 C   0  0  0  0  0  0  0  0  0  0  0  0
  159.0350  213.3660  154.5090 C   0  0  0  0  0  2  0  0  0  0  0  0
  154.8230  213.9290  154.9820 C   0  0  0  0  0  2  0  0  0  0  0  0
  154.4860  213.5050  152.6580 O   0  0  0  0  0  1  0  0  0  0  0  0
  156.7710  213.5500  153.4090 C   0  0  2  0  0  3  0  0  0  0  0  0
  155.8910  214.3830  155.9720 C   0  0  0  0  0  2  0  0  0  0  0  0
  155.3520  214.1180  153.5620 C   0  0  2  0  0  3  0  0  0  0  0  0
  157.6440  213.9880  154.6020 C   0  0  1  0  0  3  0  0  0  0  0  0
  157.0440  213.5900  155.8140 O   0  0  0  0  0  0  0  0  0  0  0  0
  157.3690  214.0670  152.1080 C   0  0  0  0  0  2  0  0  0  0  0  0
  156.9660  213.2490  151.0450 O   0  0  0  0  0  0  0  0  0  0  0  0
  161.7370  212.7340  148.1180 C   0  0  0  0  0  0  0  0  0  0  0  0
  159.2610  214.1750  147.6910 C   0  0  1  0  0  3  0  0  0  0  0  0
  161.1830  212.8300  146.7260 C   0  0  0  0  0  2  0  0  0  0  0  0
  160.8400  212.9870  149.2910 C   0  0  0  0  0  2  0  0  0  0  0  0
  162.8700  212.3260  148.2910 O   0  0  0  0  0  0  0  0  0  0  0  0
  159.9910  214.2450  149.0420 C   0  0  2  0  0  3  0  0  0  0  0  0
  158.9910  214.4530  150.1710 C   0  0  0  0  0  2  0  0  0  0  0  0
  160.3000  214.0790  146.5710 C   0  0  0  0  0  2  0  0  0  0  0  0
  157.3230  213.0720  148.5780 C   0  0  2  0  0  3  0  0  0  0  0  0
  156.7870  214.4530  148.9600 C   0  0  0  0  0  2  0  0  0  0  0  0
  157.6860  213.6940  149.9310 C   0  0  1  0  0  0  0  0  0  0  0  0
  158.3970  213.0510  147.6330 O   0  0  0  0  0  0  0  0  0  0  0  0
  1 27  1  6  0  0  0
  1  2  1  0  0  0  0
  3  5  1  0  0  0  0
  4  3  1  0  0  0  0
  4  1  1  0  0  0  0
  5  2  1  0  0  0  0
  6  3  1  0  0  0  0
  8 17  2  0  0  0  0
  8 16  1  0  0  0  0
  9 11  2  0  0  0  0
  9 17  1  0  0  0  0
 10 20  1  6  0  0  0
 10 18  1  0  0  0  0
 10 12  1  0  0  0  0
 12  8  1  0  0  0  0
 13 22  1  6  0  0  0
 13 20  1  0  0  0  0
 13 14  1  0  0  0  0
 14 18  1  0  0  0  0
 15 21  1  0  0  0  0
 15  6  1  0  0  0  0
 16 15  2  0  0  0  0
 17 19  1  0  0  0  0
 18  9  1  0  0  0  0
 19 21  2  0  0  0  0
 21  7  1  0  0  0  0
 22 23  2  0  0  0  0
 25 26  2  0  0  0  0
 26 24  1  0  0  0  0
 26 23  1  0  0  0  0
 28 31  1  0  0  0  0
 30 35  1  6  0  0  0
 30 32  1  0  0  0  0
 30 33  1  0  0  0  0
 32 29  1  6  0  0  0
 32 28  1  0  0  0  0
 33 27  1  6  0  0  0
 33 34  1  0  0  0  0
 34 31  1  0  0  0  0
 36 35  1  0  0  0  0
 37 41  2  0  0  0  0
 37 40  1  0  0  0  0
 38 44  1  6  0  0  0
 38 42  1  0  0  0  0
 39 37  1  0  0  0  0
 42 40  1  1  0  0  0
 42 43  1  0  0  0  0
 44 39  1  0  0  0  0
 45 46  1  6  0  0  0
 45 47  1  0  0  0  0
 46 47  1  0  0  0  0
 47 43  1  0  0  0  0
 47 36  1  1  0  0  0
 48 38  1  0  0  0  0
 48 45  1  0  0  0  0
M  END
>  <MODEL>
1

>  <REMARK>
 VINA RESULT:      -8.7      0.000      0.000
  Name = 
  9 active torsions:
  status: ('A' for Active; 'I' for Inactive)
    1  A    between atoms: C_3  and  C_44
    2  A    between atoms: C_13  and  C_18
    3  A    between atoms: C_14  and  C_26
    4  A    between atoms: C_14  and  N_29
    5  A    between atoms: C_16  and  C_22
    6  A    between atoms: C_16  and  O_36
    7  A    between atoms: C_27  and  C_41
    8  A    between atoms: O_36  and  C_38
    9  A    between atoms: C_43  and  C_44
                            x       y       z     vdW  Elec       q    Type
                         _______ _______ _______ _____ _____    ______ ____

>  <TORSDO>
F 9

$$$$
=
 OpenBabel11072409543D

 48 55  0  0  1  0  0  0  0  0999 V2000
  160.1330  211.2620  152.9400 C   0  0  2  0  0  3  0  0  0  0  0  0
  158.6630  210.9670  153.1370 C   0  0  0  0  0  2  0  0  0  0  0  0
  159.0050  213.3420  152.9580 N   0  0  0  0  0  0  0  0  0  0  0  0
  160.1700  212.6700  152.4070 C   0  0  0  0  0  2  0  0  0  0  0  0
  157.9720  212.3200  153.1080 C   0  0  0  0  0  2  0  0  0  0  0  0
  158.5850  214.4310  152.0720 C   0  0  0  0  0  2  0  0  0  0  0  0
  156.1640  213.8140  150.5920 N   0  0  0  0  0  1  0  0  0  0  0  0
  159.8150  213.9100  148.5660 C   0  0  0  0  0  0  0  0  0  0  0  0
  158.6630  213.3780  146.4380 C   0  0  0  0  0  0  0  0  0  0  0  0
  161.0080  214.2650  146.3850 C   0  0  2  0  0  3  0  0  0  0  0  0
  157.6370  212.9810  145.8180 O   0  0  0  0  0  0  0  0  0  0  0  0
  161.1420  213.8510  147.8540 C   0  0  0  0  0  2  0  0  0  0  0  0
  161.8180  212.7630  144.6420 C   0  0  2  0  0  3  0  0  0  0  0  0
  160.3030  212.7660  144.6130 C   0  0  0  0  0  2  0  0  0  0  0  0
  158.6060  214.1110  150.5970 C   0  0  0  0  0  0  0  0  0  0  0  0
  159.7760  214.1370  149.9060 N   0  0  0  0  0  0  0  0  0  0  0  0
  158.6220  213.6360  147.8820 C   0  0  0  0  0  0  0  0  0  0  0  0
  159.9040  213.5600  145.7540 N   0  0  0  0  0  0  0  0  0  0  0  0
  157.4490  213.6110  148.5690 N   0  0  0  0  0  0  0  0  0  0  0  0
  162.2470  213.8770  145.5950 C   0  0  0  0  0  2  0  0  0  0  0  0
  157.4110  213.8410  149.9070 C   0  0  0  0  0  0  0  0  0  0  0  0
  162.3650  212.9850  143.2760 C   0  0  0  0  0  3  0  0  0  0  0  0
  162.0270  212.1690  142.2800 C   0  0  0  0  0  3  0  0  0  0  0  0
  162.7060  213.5280  140.4850 O   0  0  0  0  0  1  0  0  0  0  0  0
  162.8700  211.2690  140.1210 O   0  0  0  0  0  0  0  0  0  0  0  0
  162.5440  212.3610  140.9230 C   0  0  0  0  0  0  0  0  0  0  0  0
  160.7610  210.3000  151.9460 C   0  0  0  0  0  2  0  0  0  0  0  0
  161.5140  206.5630  153.8830 C   0  0  0  0  0  2  0  0  0  0  0  0
  162.7700  205.8170  151.9960 O   0  0  0  0  0  1  0  0  0  0  0  0
  161.7190  207.9710  151.7870 C   0  0  2  0  0  3  0  0  0  0  0  0
  160.4280  207.5600  154.2780 C   0  0  0  0  0  2  0  0  0  0  0  0
  161.6400  206.5470  152.3600 C   0  0  2  0  0  3  0  0  0  0  0  0
  160.6460  208.8620  152.4440 C   0  0  1  0  0  3  0  0  0  0  0  0
  160.7950  208.8480  153.8450 O   0  0  0  0  0  0  0  0  0  0  0  0
  161.4940  207.9070  150.2820 C   0  0  0  0  0  2  0  0  0  0  0  0
  160.6840  206.8080  149.9720 O   0  0  0  0  0  0  0  0  0  0  0  0
  160.9660  202.2920  146.6400 C   0  0  0  0  0  0  0  0  0  0  0  0
  161.8200  205.0460  146.3700 C   0  0  1  0  0  3  0  0  0  0  0  0
  160.8400  202.9630  145.3030 C   0  0  0  0  0  2  0  0  0  0  0  0
  161.1120  203.1240  147.8770 C   0  0  0  0  0  2  0  0  0  0  0  0
  160.8190  201.0860  146.7270 O   0  0  0  0  0  0  0  0  0  0  0  0
  162.1410  204.2410  147.6400 C   0  0  2  0  0  3  0  0  0  0  0  0
  162.2180  205.1680  148.8450 C   0  0  0  0  0  2  0  0  0  0  0  0
  161.8620  204.1040  145.1640 C   0  0  0  0  0  2  0  0  0  0  0  0
  160.4030  206.6230  147.4960 C   0  0  2  0  0  3  0  0  0  0  0  0
  161.6650  207.4110  147.8500 C   0  0  0  0  0  2  0  0  0  0  0  0
  161.1860  206.2940  148.7720 C   0  0  1  0  0  0  0  0  0  0  0  0
  160.5380  205.6490  146.4560 O   0  0  0  0  0  0  0  0  0  0  0  0
  1 27  1  6  0  0  0
  1  2  1  0  0  0  0
  3  5  1  0  0  0  0
  4  1  1  0  0  0  0
  4  3  1  0  0  0  0
  5  2  1  0  0  0  0
  6  3  1  0  0  0  0
  8 16  1  0  0  0  0
  9 17  1  0  0  0  0
 10 20  1  6  0  0  0
 10 12  1  0  0  0  0
 11  9  2  0  0  0  0
 12  8  1  0  0  0  0
 13 22  1  6  0  0  0
 13 20  1  0  0  0  0
 14 13  1  0  0  0  0
 14 18  1  0  0  0  0
 15  6  1  0  0  0  0
 16 15  2  0  0  0  0
 17  8  2  0  0  0  0
 17 19  1  0  0  0  0
 18 10  1  0  0  0  0
 18  9  1  0  0  0  0
 19 21  2  0  0  0  0
 21  7  1  0  0  0  0
 21 15  1  0  0  0  0
 23 22  2  0  0  0  0
 24 26  1  0  0  0  0
 25 26  2  0  0  0  0
 26 23  1  0  0  0  0
 28 31  1  0  0  0  0
 30 35  1  6  0  0  0
 30 32  1  0  0  0  0
 30 33  1  0  0  0  0
 32 29  1  1  0  0  0
 32 28  1  0  0  0  0
 33 27  1  6  0  0  0
 33 34  1  0  0  0  0
 34 31  1  0  0  0  0
 36 35  1  0  0  0  0
 37 41  2  0  0  0  0
 37 40  1  0  0  0  0
 38 44  1  6  0  0  0
 38 48  1  0  0  0  0
 38 42  1  0  0  0  0
 39 37  1  0  0  0  0
 42 40  1  1  0  0  0
 42 43  1  0  0  0  0
 44 39  1  0  0  0  0
 45 46  1  6  0  0  0
 45 47  1  0  0  0  0
 46 47  1  0  0  0  0
 47 43  1  0  0  0  0
 47 36  1  1  0  0  0
 48 45  1  0  0  0  0
M  END
>  <MODEL>
2

>  <REMARK>
 VINA RESULT:      -8.0      3.458      8.828
  Name = 
  9 active torsions:
  status: ('A' for Active; 'I' for Inactive)
    1  A    between atoms: C_3  and  C_44
    2  A    between atoms: C_13  and  C_18
    3  A    between atoms: C_14  and  C_26
    4  A    between atoms: C_14  and  N_29
    5  A    between atoms: C_16  and  C_22
    6  A    between atoms: C_16  and  O_36
    7  A    between atoms: C_27  and  C_41
    8  A    between atoms: O_36  and  C_38
    9  A    between atoms: C_43  and  C_44
                            x       y       z     vdW  Elec       q    Type
                         _______ _______ _______ _____ _____    ______ ____

>  <TORSDO>
F 9

$$$$
=
 OpenBabel11072409543D

 48 55  0  0  1  0  0  0  0  0999 V2000
  160.9750  210.3190  155.1480 C   0  0  2  0  0  3  0  0  0  0  0  0
  160.3720  210.1640  156.5260 C   0  0  0  0  0  2  0  0  0  0  0  0
  160.0370  212.4110  155.7330 N   0  0  0  0  0  0  0  0  0  0  0  0
  160.3350  211.5640  154.5910 C   0  0  0  0  0  2  0  0  0  0  0  0
  159.7520  211.5140  156.8510 C   0  0  0  0  0  2  0  0  0  0  0  0
  158.9070  213.2920  155.4260 C   0  0  0  0  0  2  0  0  0  0  0  0
  156.1760  213.8160  154.5900 N   0  0  0  0  0  1  0  0  0  0  0  0
  159.1290  213.3060  151.6810 C   0  0  0  0  0  0  0  0  0  0  0  0
  157.4540  213.6860  149.8950 C   0  0  0  0  0  0  0  0  0  0  0  0
  159.8970  213.8120  149.3440 C   0  0  2  0  0  3  0  0  0  0  0  0
  156.2500  213.7810  149.5260 O   0  0  0  0  0  0  0  0  0  0  0  0
  160.1740  213.0280  150.6310 C   0  0  0  0  0  2  0  0  0  0  0  0
  159.7510  212.6140  147.2240 C   0  0  2  0  0  3  0  0  0  0  0  0
  158.3620  213.0790  147.6150 C   0  0  0  0  0  2  0  0  0  0  0  0
  158.5110  213.3540  153.9700 C   0  0  0  0  0  0  0  0  0  0  0  0
  159.4480  213.1970  152.9980 N   0  0  0  0  0  0  0  0  0  0  0  0
  157.8030  213.5800  151.3170 C   0  0  0  0  0  0  0  0  0  0  0  0
  158.5120  213.6490  148.9360 N   0  0  0  0  0  0  0  0  0  0  0  0
  156.8640  213.7400  152.2860 N   0  0  0  0  0  0  0  0  0  0  0  0
  160.7300  213.2770  148.1920 C   0  0  0  0  0  2  0  0  0  0  0  0
  157.1840  213.6340  153.6020 C   0  0  0  0  0  0  0  0  0  0  0  0
  160.0490  212.9900  145.8160 C   0  0  0  0  0  3  0  0  0  0  0  0
  159.6560  212.2030  144.8170 C   0  0  0  0  0  3  0  0  0  0  0  0
  159.0780  213.2000  142.7670 O   0  0  0  0  0  0  0  0  0  0  0  0
  161.1260  212.1660  142.8110 O   0  0  0  0  0  1  0  0  0  0  0  0
  159.9300  212.5450  143.4190 C   0  0  0  0  0  0  0  0  0  0  0  0
  160.6600  209.1200  154.2700 C   0  0  0  0  0  2  0  0  0  0  0  0
  162.2030  209.7130  150.3270 C   0  0  0  0  0  2  0  0  0  0  0  0
  161.1550  207.6990  149.5940 O   0  0  0  0  0  1  0  0  0  0  0  0
  160.9570  208.2060  151.9370 C   0  0  2  0  0  3  0  0  0  0  0  0
  162.7110  210.4060  151.5870 C   0  0  0  0  0  2  0  0  0  0  0  0
  161.8260  208.2730  150.6710 C   0  0  2  0  0  3  0  0  0  0  0  0
  161.5540  209.1110  153.0330 C   0  0  1  0  0  3  0  0  0  0  0  0
  161.6880  210.4300  152.5540 O   0  0  0  0  0  0  0  0  0  0  0  0
  160.9060  206.7640  152.4210 C   0  0  0  0  0  2  0  0  0  0  0  0
  161.9130  206.0200  151.7940 O   0  0  0  0  0  0  0  0  0  0  0  0
  161.2120  202.3790  147.5710 C   0  0  0  0  0  0  0  0  0  0  0  0
  160.4560  202.3850  150.3660 C   0  0  1  0  0  3  0  0  0  0  0  0
  161.2710  201.0930  148.3420 C   0  0  0  0  0  2  0  0  0  0  0  0
  161.1880  203.6830  148.3060 C   0  0  0  0  0  2  0  0  0  0  0  0
  161.3150  202.3620  146.3580 O   0  0  0  0  0  0  0  0  0  0  0  0
  160.1910  203.6100  149.4750 C   0  0  2  0  0  3  0  0  0  0  0  0
  160.2370  204.8850  150.3050 C   0  0  0  0  0  2  0  0  0  0  0  0
  160.2910  201.1160  149.5250 C   0  0  0  0  0  2  0  0  0  0  0  0
  162.0110  203.5220  151.7970 C   0  0  2  0  0  3  0  0  0  0  0  0
  160.8100  204.0280  152.5990 C   0  0  0  0  0  2  0  0  0  0  0  0
  161.3070  204.8230  151.3950 C   0  0  1  0  0  0  0  0  0  0  0  0
  161.7640  202.4240  150.9150 O   0  0  0  0  0  0  0  0  0  0  0  0
  1 27  1  6  0  0  0
  1  2  1  0  0  0  0
  2  5  1  0  0  0  0
  3  5  1  0  0  0  0
  4  1  1  0  0  0  0
  4  3  1  0  0  0  0
  6  3  1  0  0  0  0
  8 16  1  0  0  0  0
  9 17  1  0  0  0  0
 10 20  1  6  0  0  0
 10 12  1  0  0  0  0
 11  9  2  0  0  0  0
 12  8  1  0  0  0  0
 13 22  1  6  0  0  0
 13 14  1  0  0  0  0
 13 20  1  0  0  0  0
 14 18  1  0  0  0  0
 15  6  1  0  0  0  0
 16 15  2  0  0  0  0
 17  8  2  0  0  0  0
 17 19  1  0  0  0  0
 18 10  1  0  0  0  0
 18  9  1  0  0  0  0
 19 21  2  0  0  0  0
 21 15  1  0  0  0  0
 21  7  1  0  0  0  0
 23 22  2  0  0  0  0
 24 26  2  0  0  0  0
 25 26  1  0  0  0  0
 26 23  1  0  0  0  0
 28 32  1  0  0  0  0
 28 31  1  0  0  0  0
 30 35  1  1  0  0  0
 30 33  1  0  0  0  0
 31 34  1  0  0  0  0
 32 29  1  6  0  0  0
 32 30  1  0  0  0  0
 33 27  1  1  0  0  0
 34 33  1  0  0  0  0
 36 35  1  0  0  0  0
 37 40  1  0  0  0  0
 37 39  1  0  0  0  0
 38 44  1  6  0  0  0
 38 48  1  0  0  0  0
 39 44  1  0  0  0  0
 41 37  2  0  0  0  0
 42 40  1  6  0  0  0
 42 43  1  0  0  0  0
 42 38  1  0  0  0  0
 43 47  1  0  0  0  0
 45 46  1  1  0  0  0
 47 36  1  1  0  0  0
 47 45  1  0  0  0  0
 47 46  1  0  0  0  0
 48 45  1  0  0  0  0
M  END
>  <MODEL>
3

>  <REMARK>
 VINA RESULT:      -7.6      2.815      8.872
  Name = 
  9 active torsions:
  status: ('A' for Active; 'I' for Inactive)
    1  A    between atoms: C_3  and  C_44
    2  A    between atoms: C_13  and  C_18
    3  A    between atoms: C_14  and  C_26
    4  A    between atoms: C_14  and  N_29
    5  A    between atoms: C_16  and  C_22
    6  A    between atoms: C_16  and  O_36
    7  A    between atoms: C_27  and  C_41
    8  A    between atoms: O_36  and  C_38
    9  A    between atoms: C_43  and  C_44
                            x       y       z     vdW  Elec       q    Type
                         _______ _______ _______ _____ _____    ______ ____

>  <TORSDO>
F 9

$$$$
=
 OpenBabel11072409543D

 48 55  0  0  1  0  0  0  0  0999 V2000
  160.0790  212.3170  152.0380 C   0  0  2  0  0  3  0  0  0  0  0  0
  159.3740  213.5830  152.4700 C   0  0  0  0  0  2  0  0  0  0  0  0
  159.8740  213.6840  150.1190 N   0  0  0  0  0  0  0  0  0  0  0  0
  159.9370  212.2940  150.5390 C   0  0  0  0  0  2  0  0  0  0  0  0
  159.2320  214.4170  151.2070 C   0  0  0  0  0  2  0  0  0  0  0  0
  159.1330  213.7970  148.8590 C   0  0  0  0  0  2  0  0  0  0  0  0
  161.9610  214.4530  148.8110 N   0  0  0  0  0  1  0  0  0  0  0  0
  160.1450  213.0340  145.3280 C   0  0  0  0  0  0  0  0  0  0  0  0
  162.3100  213.1650  144.1300 C   0  0  0  0  0  0  0  0  0  0  0  0
  160.4280  211.8360  143.1390 C   0  0  2  0  0  3  0  0  0  0  0  0
  163.5030  213.5720  144.0680 O   0  0  0  0  0  0  0  0  0  0  0  0
  159.4700  212.6140  144.0480 C   0  0  0  0  0  2  0  0  0  0  0  0
  160.7630  212.5790  140.8400 C   0  0  2  0  0  3  0  0  0  0  0  0
  162.0180  212.8810  141.6340 C   0  0  0  0  0  2  0  0  0  0  0  0
  159.9640  213.6740  147.6050 C   0  0  0  0  0  0  0  0  0  0  0  0
  159.4050  213.2110  146.4550 N   0  0  0  0  0  0  0  0  0  0  0  0
  161.5120  213.3430  145.3490 C   0  0  0  0  0  0  0  0  0  0  0  0
  161.6900  212.5440  143.0020 N   0  0  0  0  0  0  0  0  0  0  0  0
  162.0750  213.8040  146.4970 N   0  0  0  0  0  0  0  0  0  0  0  0
  159.8680  211.7190  141.7320 C   0  0  0  0  0  2  0  0  0  0  0  0
  161.3370  213.9760  147.6250 C   0  0  0  0  0  0  0  0  0  0  0  0
  161.1040  211.8700  139.5770 C   0  0  0  0  0  3  0  0  0  0  0  0
  161.6770  210.6700  139.6190 C   0  0  0  0  0  3  0  0  0  0  0  0
  162.7850  210.4810  137.5530 O   0  0  0  0  0  0  0  0  0  0  0  0
  161.5270  208.6620  138.1600 O   0  0  0  0  0  1  0  0  0  0  0  0
  162.0220  209.9430  138.3950 C   0  0  0  0  0  0  0  0  0  0  0  0
  159.4300  211.0880  152.6520 C   0  0  0  0  0  2  0  0  0  0  0  0
  161.2400  211.5950  156.4920 C   0  0  0  0  0  2  0  0  0  0  0  0
  162.6850  209.7420  156.0770 O   0  0  0  0  0  1  0  0  0  0  0  0
  161.0410  210.2070  154.3830 C   0  0  2  0  0  3  0  0  0  0  0  0
  159.9020  212.1880  156.0620 C   0  0  0  0  0  2  0  0  0  0  0  0
  161.3840  210.2020  155.8810 C   0  0  2  0  0  3  0  0  0  0  0  0
  159.7430  211.0030  154.1430 C   0  0  1  0  0  3  0  0  0  0  0  0
  159.8730  212.3090  154.6600 O   0  0  0  0  0  0  0  0  0  0  0  0
  160.8640  208.7690  153.9160 C   0  0  0  0  0  2  0  0  0  0  0  0
  161.9480  208.3970  153.1120 O   0  0  0  0  0  0  0  0  0  0  0  0
  161.8100  206.2010  147.9400 C   0  0  0  0  0  0  0  0  0  0  0  0
  160.9430  205.2720  150.5420 C   0  0  1  0  0  3  0  0  0  0  0  0
  161.9740  204.7490  148.2850 C   0  0  0  0  0  2  0  0  0  0  0  0
  161.6180  207.2050  149.0350 C   0  0  0  0  0  2  0  0  0  0  0  0
  161.9640  206.5710  146.7910 O   0  0  0  0  0  0  0  0  0  0  0  0
  160.5880  206.6850  150.0510 C   0  0  2  0  0  3  0  0  0  0  0  0
  160.4650  207.6380  151.2310 C   0  0  0  0  0  2  0  0  0  0  0  0
  160.9480  204.3170  149.3460 C   0  0  0  0  0  2  0  0  0  0  0  0
  162.3100  206.0410  152.3600 C   0  0  2  0  0  3  0  0  0  0  0  0
  161.0310  206.1650  153.1890 C   0  0  0  0  0  2  0  0  0  0  0  0
  161.4890  207.3350  152.3250 C   0  0  1  0  0  0  0  0  0  0  0  0
  162.2170  205.2530  151.1690 O   0  0  0  0  0  0  0  0  0  0  0  0
  1  2  1  0  0  0  0
  1 27  1  1  0  0  0
  3  4  1  0  0  0  0
  3  5  1  0  0  0  0
  4  1  1  0  0  0  0
  5  2  1  0  0  0  0
  6  3  1  0  0  0  0
  8 17  2  0  0  0  0
  8 16  1  0  0  0  0
  9 17  1  0  0  0  0
 10 20  1  6  0  0  0
 10 12  1  0  0  0  0
 11  9  2  0  0  0  0
 12  8  1  0  0  0  0
 13 22  1  6  0  0  0
 13 14  1  0  0  0  0
 13 20  1  0  0  0  0
 14 18  1  0  0  0  0
 15 21  1  0  0  0  0
 15  6  1  0  0  0  0
 16 15  2  0  0  0  0
 17 19  1  0  0  0  0
 18 10  1  0  0  0  0
 18  9  1  0  0  0  0
 19 21  2  0  0  0  0
 21  7  1  0  0  0  0
 22 23  2  0  0  0  0
 24 26  2  0  0  0  0
 25 26  1  0  0  0  0
 26 23  1  0  0  0  0
 30 35  1  1  0  0  0
 30 32  1  0  0  0  0
 31 28  1  0  0  0  0
 32 29  1  6  0  0  0
 32 28  1  0  0  0  0
 33 27  1  6  0  0  0
 33 30  1  0  0  0  0
 33 34  1  0  0  0  0
 34 31  1  0  0  0  0
 36 35  1  0  0  0  0
 37 39  1  0  0  0  0
 37 40  1  0  0  0  0
 38 44  1  6  0  0  0
 38 48  1  0  0  0  0
 39 44  1  0  0  0  0
 41 37  2  0  0  0  0
 42 40  1  6  0  0  0
 42 38  1  0  0  0  0
 42 43  1  0  0  0  0
 43 47  1  0  0  0  0
 45 46  1  1  0  0  0
 47 45  1  0  0  0  0
 47 36  1  1  0  0  0
 47 46  1  0  0  0  0
 48 45  1  0  0  0  0
M  END
>  <MODEL>
4

>  <REMARK>
 VINA RESULT:      -6.9      4.547      8.458
  Name = 
  9 active torsions:
  status: ('A' for Active; 'I' for Inactive)
    1  A    between atoms: C_3  and  C_44
    2  A    between atoms: C_13  and  C_18
    3  A    between atoms: C_14  and  C_26
    4  A    between atoms: C_14  and  N_29
    5  A    between atoms: C_16  and  C_22
    6  A    between atoms: C_16  and  O_36
    7  A    between atoms: C_27  and  C_41
    8  A    between atoms: O_36  and  C_38
    9  A    between atoms: C_43  and  C_44
                            x       y       z     vdW  Elec       q    Type
                         _______ _______ _______ _____ _____    ______ ____

>  <TORSDO>
F 9

$$$$
=
 OpenBabel11072409543D

 48 55  0  0  1  0  0  0  0  0999 V2000
  159.6940  210.5750  154.0690 C   0  0  2  0  0  3  0  0  0  0  0  0
  159.7270  209.6560  155.2700 C   0  0  0  0  0  2  0  0  0  0  0  0
  160.5260  208.4900  153.3230 N   0  0  0  0  0  0  0  0  0  0  0  0
  160.6000  209.9180  153.0620 C   0  0  0  0  0  2  0  0  0  0  0  0
  160.2970  208.3430  154.7580 C   0  0  0  0  0  2  0  0  0  0  0  0
  161.7620  207.8330  152.8870 C   0  0  0  0  0  2  0  0  0  0  0  0
  162.4940  209.3160  150.5000 N   0  0  0  0  0  1  0  0  0  0  0  0
  161.3610  205.3120  150.1360 C   0  0  0  0  0  0  0  0  0  0  0  0
  161.7360  205.4160  147.6900 C   0  0  0  0  0  0  0  0  0  0  0  0
  161.5330  203.1830  148.8160 C   0  0  2  0  0  3  0  0  0  0  0  0
  161.9250  206.0890  146.6390 O   0  0  0  0  0  0  0  0  0  0  0  0
  160.8620  203.8980  149.9930 C   0  0  0  0  0  2  0  0  0  0  0  0
  160.1440  202.1480  147.0980 C   0  0  2  0  0  3  0  0  0  0  0  0
  160.7990  203.3830  146.5120 C   0  0  0  0  0  2  0  0  0  0  0  0
  161.7150  207.2130  151.5110 C   0  0  0  0  0  0  0  0  0  0  0  0
  161.3550  205.9120  151.3580 N   0  0  0  0  0  0  0  0  0  0  0  0
  161.7410  206.0560  149.0100 C   0  0  0  0  0  0  0  0  0  0  0  0
  161.4830  204.0110  147.6220 N   0  0  0  0  0  0  0  0  0  0  0  0
  162.1040  207.3570  149.1600 N   0  0  0  0  0  0  0  0  0  0  0  0
  160.7920  201.9060  148.4610 C   0  0  0  0  0  2  0  0  0  0  0  0
  162.1010  207.9540  150.3810 C   0  0  0  0  0  0  0  0  0  0  0  0
  160.3370  200.9800  146.1970 C   0  0  0  0  0  3  0  0  0  0  0  0
  161.2140  200.0300  146.5130 C   0  0  0  0  0  3  0  0  0  0  0  0
  160.5320  198.5370  144.8290 O   0  0  0  0  0  0  0  0  0  0  0  0
  162.6060  198.1280  145.7200 O   0  0  0  0  0  1  0  0  0  0  0  0
  161.4250  198.8650  145.6500 C   0  0  0  0  0  0  0  0  0  0  0  0
  160.2060  211.9610  154.4210 C   0  0  0  0  0  2  0  0  0  0  0  0
  156.4090  213.3910  155.7680 C   0  0  0  0  0  2  0  0  0  0  0  0
  155.6300  213.5000  153.5150 O   0  0  0  0  0  1  0  0  0  0  0  0
  157.9320  212.8710  153.8120 C   0  0  2  0  0  3  0  0  0  0  0  0
  157.6940  213.3900  156.5900 C   0  0  0  0  0  2  0  0  0  0  0  0
  156.7510  213.7150  154.3140 C   0  0  2  0  0  3  0  0  0  0  0  0
  159.0570  212.8620  154.8670 C   0  0  1  0  0  3  0  0  0  0  0  0
  158.5620  212.3950  156.1010 O   0  0  0  0  0  0  0  0  0  0  0  0
  158.4430  213.4680  152.5090 C   0  0  0  0  0  2  0  0  0  0  0  0
  157.7500  212.9080  151.4290 O   0  0  0  0  0  0  0  0  0  0  0  0
  161.8750  212.8640  147.6120 C   0  0  0  0  0  0  0  0  0  0  0  0
  159.4150  214.3650  147.8960 C   0  0  1  0  0  3  0  0  0  0  0  0
  161.0770  213.1900  146.3830 C   0  0  0  0  0  2  0  0  0  0  0  0
  161.2200  212.9240  148.9580 C   0  0  0  0  0  2  0  0  0  0  0  0
  163.0060  212.4280  147.5000 O   0  0  0  0  0  0  0  0  0  0  0  0
  160.3840  214.2080  149.0790 C   0  0  2  0  0  3  0  0  0  0  0  0
  159.6180  214.2320  150.3950 C   0  0  0  0  0  2  0  0  0  0  0  0
  160.2250  214.4510  146.6000 C   0  0  0  0  0  2  0  0  0  0  0  0
  157.6370  213.1380  148.9430 C   0  0  2  0  0  3  0  0  0  0  0  0
  157.2290  214.4400  149.6370 C   0  0  0  0  0  2  0  0  0  0  0  0
  158.2660  213.5280  150.2860 C   0  0  1  0  0  0  0  0  0  0  0  0
  158.5160  213.2690  147.8220 O   0  0  0  0  0  0  0  0  0  0  0  0
  1 27  1  1  0  0  0
  1  2  1  0  0  0  0
  3  5  1  0  0  0  0
  4  3  1  0  0  0  0
  4  1  1  0  0  0  0
  5  2  1  0  0  0  0
  6  3  1  0  0  0  0
  8 16  1  0  0  0  0
  9 17  1  0  0  0  0
 10 20  1  6  0  0  0
 10 12  1  0  0  0  0
 11  9  2  0  0  0  0
 12  8  1  0  0  0  0
 13 22  1  6  0  0  0
 13 20  1  0  0  0  0
 14 13  1  0  0  0  0
 14 18  1  0  0  0  0
 15  6  1  0  0  0  0
 16 15  2  0  0  0  0
 17 19  1  0  0  0  0
 17  8  2  0  0  0  0
 18  9  1  0  0  0  0
 18 10  1  0  0  0  0
 19 21  2  0  0  0  0
 21  7  1  0  0  0  0
 21 15  1  0  0  0  0
 22 23  2  0  0  0  0
 24 26  2  0  0  0  0
 26 25  1  0  0  0  0
 26 23  1  0  0  0  0
 28 31  1  0  0  0  0
 30 35  1  6  0  0  0
 30 32  1  0  0  0  0
 30 33  1  0  0  0  0
 32 29  1  6  0  0  0
 32 28  1  0  0  0  0
 33 27  1  6  0  0  0
 33 34  1  0  0  0  0
 34 31  1  0  0  0  0
 36 35  1  0  0  0  0
 37 40  1  0  0  0  0
 38 44  1  6  0  0  0
 38 42  1  0  0  0  0
 39 44  1  0  0  0  0
 39 37  1  0  0  0  0
 41 37  2  0  0  0  0
 42 40  1  6  0  0  0
 42 43  1  0  0  0  0
 45 46  1  6  0  0  0
 45 47  1  0  0  0  0
 46 47  1  0  0  0  0
 47 43  1  0  0  0  0
 47 36  1  1  0  0  0
 48 38  1  0  0  0  0
 48 45  1  0  0  0  0
M  END
>  <MODEL>
5

>  <REMARK>
 VINA RESULT:      -6.6      1.589      2.501
  Name = 
  9 active torsions:
  status: ('A' for Active; 'I' for Inactive)
    1  A    between atoms: C_3  and  C_44
    2  A    between atoms: C_13  and  C_18
    3  A    between atoms: C_14  and  C_26
    4  A    between atoms: C_14  and  N_29
    5  A    between atoms: C_16  and  C_22
    6  A    between atoms: C_16  and  O_36
    7  A    between atoms: C_27  and  C_41
    8  A    between atoms: O_36  and  C_38
    9  A    between atoms: C_43  and  C_44
                            x       y       z     vdW  Elec       q    Type
                         _______ _______ _______ _____ _____    ______ ____

>  <TORSDO>
F 9

$$$$
=
 OpenBabel11072409543D

 48 55  0  0  1  0  0  0  0  0999 V2000
  161.4600  209.1940  152.6990 C   0  0  2  0  0  3  0  0  0  0  0  0
  162.2080  208.9200  151.4140 C   0  0  0  0  0  2  0  0  0  0  0  0
  161.6390  206.8440  152.4890 N   0  0  0  0  0  0  0  0  0  0  0  0
  160.7880  207.8880  153.0340 C   0  0  0  0  0  2  0  0  0  0  0  0
  162.2720  207.4060  151.2980 C   0  0  0  0  0  2  0  0  0  0  0  0
  160.8430  205.6520  152.1850 C   0  0  0  0  0  2  0  0  0  0  0  0
  161.1440  202.8110  151.6630 N   0  0  0  0  0  1  0  0  0  0  0  0
  161.0570  205.4700  148.4440 C   0  0  0  0  0  0  0  0  0  0  0  0
  161.2830  203.5790  146.8590 C   0  0  0  0  0  0  0  0  0  0  0  0
  160.5430  205.8210  146.0100 C   0  0  2  0  0  3  0  0  0  0  0  0
  161.5460  202.3650  146.6340 O   0  0  0  0  0  0  0  0  0  0  0  0
  161.1210  206.4360  147.2890 C   0  0  0  0  0  2  0  0  0  0  0  0
  161.8960  205.7930  143.9810 C   0  0  2  0  0  3  0  0  0  0  0  0
  161.7950  204.3780  144.5150 C   0  0  0  0  0  2  0  0  0  0  0  0
  161.0030  205.1050  150.7870 C   0  0  0  0  0  0  0  0  0  0  0  0
  160.9750  205.9420  149.7170 N   0  0  0  0  0  0  0  0  0  0  0  0
  161.1820  204.0900  148.2310 C   0  0  0  0  0  0  0  0  0  0  0  0
  161.1060  204.5000  145.7810 N   0  0  0  0  0  0  0  0  0  0  0  0
  161.2080  203.2500  149.2990 N   0  0  0  0  0  0  0  0  0  0  0  0
  160.9200  206.6450  144.7910 C   0  0  0  0  0  2  0  0  0  0  0  0
  161.1210  203.7210  150.5700 C   0  0  0  0  0  0  0  0  0  0  0  0
  161.5620  205.8270  142.5310 C   0  0  0  0  0  3  0  0  0  0  0  0
  162.2470  206.6160  141.7060 C   0  0  0  0  0  3  0  0  0  0  0  0
  162.3600  205.7510  139.5220 O   0  0  0  0  0  0  0  0  0  0  0  0
  161.2020  207.7190  139.7380 O   0  0  0  0  0  1  0  0  0  0  0  0
  161.9470  206.6700  140.2730 C   0  0  0  0  0  0  0  0  0  0  0  0
  160.4280  210.2920  152.5140 C   0  0  0  0  0  2  0  0  0  0  0  0
  159.5540  212.3680  156.1480 C   0  0  0  0  0  2  0  0  0  0  0  0
  158.0510  213.8110  154.9850 O   0  0  0  0  0  1  0  0  0  0  0  0
  159.2590  212.2270  153.6360 C   0  0  2  0  0  3  0  0  0  0  0  0
  160.7570  211.4590  155.9190 C   0  0  0  0  0  2  0  0  0  0  0  0
  159.2710  213.1490  154.8660 C   0  0  2  0  0  3  0  0  0  0  0  0
  160.4680  211.2700  153.6850 C   0  0  1  0  0  3  0  0  0  0  0  0
  160.4610  210.5420  154.8920 O   0  0  0  0  0  0  0  0  0  0  0  0
  159.3220  213.0840  152.3800 C   0  0  0  0  0  2  0  0  0  0  0  0
  158.0870  213.0500  151.7230 O   0  0  0  0  0  0  0  0  0  0  0  0
  161.3960  212.9440  147.1820 C   0  0  0  0  0  0  0  0  0  0  0  0
  158.9090  214.2800  147.8260 C   0  0  1  0  0  3  0  0  0  0  0  0
  160.3530  213.0910  146.1130 C   0  0  0  0  0  2  0  0  0  0  0  0
  161.0070  213.0840  148.6210 C   0  0  0  0  0  2  0  0  0  0  0  0
  162.5210  212.5840  146.8840 O   0  0  0  0  0  0  0  0  0  0  0  0
  160.0960  214.3090  148.8030 C   0  0  2  0  0  3  0  0  0  0  0  0
  159.5960  214.4020  150.2370 C   0  0  0  0  0  2  0  0  0  0  0  0
  159.4460  214.3010  146.3930 C   0  0  0  0  0  2  0  0  0  0  0  0
  157.4820  213.0320  149.2980 C   0  0  2  0  0  3  0  0  0  0  0  0
  157.0970  214.3600  149.9520 C   0  0  0  0  0  2  0  0  0  0  0  0
  158.3170  213.5930  150.4540 C   0  0  1  0  0  0  0  0  0  0  0  0
  158.1160  213.1190  148.0190 O   0  0  0  0  0  0  0  0  0  0  0  0
  1 27  1  6  0  0  0
  1  4  1  0  0  0  0
  2  1  1  0  0  0  0
  3  4  1  0  0  0  0
  5  2  1  0  0  0  0
  5  3  1  0  0  0  0
  6  3  1  0  0  0  0
  8 16  1  0  0  0  0
  9 17  1  0  0  0  0
 10 20  1  6  0  0  0
 10 12  1  0  0  0  0
 11  9  2  0  0  0  0
 12  8  1  0  0  0  0
 13 22  1  6  0  0  0
 13 14  1  0  0  0  0
 13 20  1  0  0  0  0
 14 18  1  0  0  0  0
 15  6  1  0  0  0  0
 16 15  2  0  0  0  0
 17  8  2  0  0  0  0
 17 19  1  0  0  0  0
 18 10  1  0  0  0  0
 18  9  1  0  0  0  0
 19 21  2  0  0  0  0
 21 15  1  0  0  0  0
 21  7  1  0  0  0  0
 23 22  2  0  0  0  0
 24 26  2  0  0  0  0
 25 26  1  0  0  0  0
 26 23  1  0  0  0  0
 30 35  1  6  0  0  0
 30 33  1  0  0  0  0
 30 32  1  0  0  0  0
 31 28  1  0  0  0  0
 32 29  1  1  0  0  0
 32 28  1  0  0  0  0
 33 27  1  6  0  0  0
 33 34  1  0  0  0  0
 34 31  1  0  0  0  0
 36 35  1  0  0  0  0
 37 40  1  0  0  0  0
 38 44  1  6  0  0  0
 38 48  1  0  0  0  0
 38 42  1  0  0  0  0
 39 44  1  0  0  0  0
 39 37  1  0  0  0  0
 41 37  2  0  0  0  0
 42 40  1  1  0  0  0
 42 43  1  0  0  0  0
 43 47  1  0  0  0  0
 45 46  1  6  0  0  0
 45 47  1  0  0  0  0
 46 47  1  0  0  0  0
 47 36  1  1  0  0  0
 48 45  1  0  0  0  0
M  END
>  <MODEL>
6

>  <REMARK>
 VINA RESULT:      -6.6      2.540      4.059
  Name = 
  9 active torsions:
  status: ('A' for Active; 'I' for Inactive)
    1  A    between atoms: C_3  and  C_44
    2  A    between atoms: C_13  and  C_18
    3  A    between atoms: C_14  and  C_26
    4  A    between atoms: C_14  and  N_29
    5  A    between atoms: C_16  and  C_22
    6  A    between atoms: C_16  and  O_36
    7  A    between atoms: C_27  and  C_41
    8  A    between atoms: O_36  and  C_38
    9  A    between atoms: C_43  and  C_44
                            x       y       z     vdW  Elec       q    Type
                         _______ _______ _______ _____ _____    ______ ____

>  <TORSDO>
F 9

$$$$
=
 OpenBabel11072409543D

 48 55  0  0  1  0  0  0  0  0999 V2000
  161.7060  210.9850  151.0640 C   0  0  2  0  0  3  0  0  0  0  0  0
  160.5290  211.3990  151.9180 C   0  0  0  0  0  2  0  0  0  0  0  0
  160.6740  212.8180  149.9810 N   0  0  0  0  0  0  0  0  0  0  0  0
  161.4390  211.6110  149.7190 C   0  0  0  0  0  2  0  0  0  0  0  0
  159.8750  212.5520  151.1740 C   0  0  0  0  0  2  0  0  0  0  0  0
  159.8440  213.1510  148.8190 C   0  0  0  0  0  2  0  0  0  0  0  0
  162.4560  214.4080  148.6370 N   0  0  0  0  0  1  0  0  0  0  0  0
  160.7230  212.8130  145.1870 C   0  0  0  0  0  0  0  0  0  0  0  0
  162.7130  213.4740  143.8670 C   0  0  0  0  0  0  0  0  0  0  0  0
  161.0870  211.8210  142.9090 C   0  0  2  0  0  3  0  0  0  0  0  0
  163.7840  214.1330  143.7570 O   0  0  0  0  0  0  0  0  0  0  0  0
  160.0580  212.3240  143.9270 C   0  0  0  0  0  2  0  0  0  0  0  0
  161.0790  212.7400  140.6500 C   0  0  2  0  0  3  0  0  0  0  0  0
  162.2980  213.2640  141.3810 C   0  0  0  0  0  2  0  0  0  0  0  0
  160.5850  213.2770  147.5090 C   0  0  0  0  0  0  0  0  0  0  0  0
  160.0510  212.7650  146.3690 N   0  0  0  0  0  0  0  0  0  0  0  0
  161.9910  213.4100  145.1430 C   0  0  0  0  0  0  0  0  0  0  0  0
  162.1550  212.7930  142.7410 N   0  0  0  0  0  0  0  0  0  0  0  0
  162.5290  213.9210  146.2820 N   0  0  0  0  0  0  0  0  0  0  0  0
  160.4590  211.6600  141.5350 C   0  0  0  0  0  2  0  0  0  0  0  0
  161.8590  213.8690  147.4630 C   0  0  0  0  0  0  0  0  0  0  0  0
  161.4660  212.1890  139.3220 C   0  0  0  0  0  3  0  0  0  0  0  0
  161.7620  210.8970  139.1950 C   0  0  0  0  0  3  0  0  0  0  0  0
  162.9910  210.9160  137.1900 O   0  0  0  0  0  0  0  0  0  0  0  0
  161.5870  209.1230  137.4620 O   0  0  0  0  0  1  0  0  0  0  0  0
  162.1430  210.3220  137.9030 C   0  0  0  0  0  0  0  0  0  0  0  0
  161.7940  209.4740  150.9390 C   0  0  0  0  0  2  0  0  0  0  0  0
  161.2130  207.4220  154.6450 C   0  0  0  0  0  2  0  0  0  0  0  0
  161.3200  205.3200  153.5190 O   0  0  0  0  0  1  0  0  0  0  0  0
  161.4200  207.2770  152.1240 C   0  0  2  0  0  3  0  0  0  0  0  0
  160.9140  208.8970  154.3970 C   0  0  0  0  0  2  0  0  0  0  0  0
  160.8480  206.6250  153.3930 C   0  0  2  0  0  3  0  0  0  0  0  0
  161.1610  208.7970  152.1520 C   0  0  1  0  0  3  0  0  0  0  0  0
  161.7020  209.3600  153.3260 O   0  0  0  0  0  0  0  0  0  0  0  0
  160.7490  206.6560  150.9070 C   0  0  0  0  0  2  0  0  0  0  0  0
  160.8590  207.5230  149.8140 O   0  0  0  0  0  0  0  0  0  0  0  0
  160.9010  202.6440  147.0240 C   0  0  0  0  0  0  0  0  0  0  0  0
  162.3220  205.1480  146.7170 C   0  0  1  0  0  3  0  0  0  0  0  0
  161.1830  203.1540  145.6410 C   0  0  0  0  0  2  0  0  0  0  0  0
  160.9570  203.5870  148.1870 C   0  0  0  0  0  2  0  0  0  0  0  0
  160.5020  201.5040  147.1790 O   0  0  0  0  0  0  0  0  0  0  0  0
  162.2140  204.4660  148.0900 C   0  0  2  0  0  3  0  0  0  0  0  0
  162.2300  205.5090  149.1990 C   0  0  0  0  0  2  0  0  0  0  0  0
  162.4180  204.0700  145.6340 C   0  0  0  0  0  2  0  0  0  0  0  0
  161.0510  207.0790  147.3620 C   0  0  2  0  0  3  0  0  0  0  0  0
  162.3480  207.6710  147.9190 C   0  0  0  0  0  2  0  0  0  0  0  0
  161.4800  206.7810  148.8030 C   0  0  1  0  0  0  0  0  0  0  0  0
  161.1960  205.9740  146.4650 O   0  0  0  0  0  0  0  0  0  0  0  0
  1 27  1  6  0  0  0
  1  2  1  0  0  0  0
  3  5  1  0  0  0  0
  4  3  1  0  0  0  0
  4  1  1  0  0  0  0
  5  2  1  0  0  0  0
  6  3  1  0  0  0  0
  8 16  1  0  0  0  0
  9 17  1  0  0  0  0
 10 20  1  6  0  0  0
 10 12  1  0  0  0  0
 11  9  2  0  0  0  0
 12  8  1  0  0  0  0
 13 22  1  6  0  0  0
 13 14  1  0  0  0  0
 13 20  1  0  0  0  0
 14 18  1  0  0  0  0
 15  6  1  0  0  0  0
 16 15  2  0  0  0  0
 17  8  2  0  0  0  0
 17 19  1  0  0  0  0
 18 10  1  0  0  0  0
 18  9  1  0  0  0  0
 19 21  2  0  0  0  0
 21 15  1  0  0  0  0
 21  7  1  0  0  0  0
 23 22  2  0  0  0  0
 24 26  2  0  0  0  0
 25 26  1  0  0  0  0
 26 23  1  0  0  0  0
 30 35  1  6  0  0  0
 30 33  1  0  0  0  0
 30 32  1  0  0  0  0
 31 28  1  0  0  0  0
 32 29  1  1  0  0  0
 32 28  1  0  0  0  0
 33 27  1  6  0  0  0
 33 34  1  0  0  0  0
 34 31  1  0  0  0  0
 36 35  1  0  0  0  0
 37 41  2  0  0  0  0
 37 40  1  0  0  0  0
 38 44  1  6  0  0  0
 38 42  1  0  0  0  0
 39 37  1  0  0  0  0
 42 40  1  6  0  0  0
 42 43  1  0  0  0  0
 44 39  1  0  0  0  0
 45 46  1  6  0  0  0
 45 47  1  0  0  0  0
 46 47  1  0  0  0  0
 47 43  1  0  0  0  0
 47 36  1  1  0  0  0
 48 38  1  0  0  0  0
 48 45  1  0  0  0  0
M  END
>  <MODEL>
7

>  <REMARK>
 VINA RESULT:      -6.3      4.627      9.183
  Name = 
  9 active torsions:
  status: ('A' for Active; 'I' for Inactive)
    1  A    between atoms: C_3  and  C_44
    2  A    between atoms: C_13  and  C_18
    3  A    between atoms: C_14  and  C_26
    4  A    between atoms: C_14  and  N_29
    5  A    between atoms: C_16  and  C_22
    6  A    between atoms: C_16  and  O_36
    7  A    between atoms: C_27  and  C_41
    8  A    between atoms: O_36  and  C_38
    9  A    between atoms: C_43  and  C_44
                            x       y       z     vdW  Elec       q    Type
                         _______ _______ _______ _____ _____    ______ ____

>  <TORSDO>
F 9

$$$$
=
 OpenBabel11072409543D

 48 55  0  0  1  0  0  0  0  0999 V2000
  160.1370  211.8670  152.8330 C   0  0  2  0  0  3  0  0  0  0  0  0
  159.3870  212.5990  153.9240 C   0  0  0  0  0  2  0  0  0  0  0  0
  159.3710  213.9030  151.9030 N   0  0  0  0  0  0  0  0  0  0  0  0
  159.6900  212.5290  151.5550 C   0  0  0  0  0  2  0  0  0  0  0  0
  158.8840  213.8800  153.2800 C   0  0  0  0  0  2  0  0  0  0  0  0
  158.3760  214.4410  150.9700 C   0  0  0  0  0  2  0  0  0  0  0  0
  156.2130  213.3900  149.3440 N   0  0  0  0  0  1  0  0  0  0  0  0
  159.9690  213.9560  147.6080 C   0  0  0  0  0  0  0  0  0  0  0  0
  159.0990  213.1550  145.4320 C   0  0  0  0  0  0  0  0  0  0  0  0
  161.2800  214.3910  145.5110 C   0  0  2  0  0  3  0  0  0  0  0  0
  158.2020  212.5770  144.7580 O   0  0  0  0  0  0  0  0  0  0  0  0
  161.3460  214.0700  147.0080 C   0  0  0  0  0  2  0  0  0  0  0  0
  162.4540  212.9540  143.9280 C   0  0  2  0  0  3  0  0  0  0  0  0
  160.9640  212.7210  143.7800 C   0  0  0  0  0  2  0  0  0  0  0  0
  158.5720  214.0600  149.5230 C   0  0  0  0  0  0  0  0  0  0  0  0
  159.7810  214.2360  148.9260 N   0  0  0  0  0  0  0  0  0  0  0  0
  158.8950  213.4690  146.8510 C   0  0  0  0  0  0  0  0  0  0  0  0
  160.3530  213.4960  144.8380 N   0  0  0  0  0  0  0  0  0  0  0  0
  157.6840  213.2950  147.4430 N   0  0  0  0  0  0  0  0  0  0  0  0
  162.6270  214.1640  144.8450 C   0  0  0  0  0  2  0  0  0  0  0  0
  157.4960  213.5780  148.7590 C   0  0  0  0  0  0  0  0  0  0  0  0
  163.0780  213.1950  142.5980 C   0  0  0  0  0  3  0  0  0  0  0  0
  162.4230  212.8730  141.4850 C   0  0  0  0  0  3  0  0  0  0  0  0
  162.6540  212.3710  139.1990 O   0  0  0  0  0  0  0  0  0  0  0  0
  163.9340  214.1190  139.9530 O   0  0  0  0  0  1  0  0  0  0  0  0
  163.0070  213.1000  140.1610 C   0  0  0  0  0  0  0  0  0  0  0  0
  159.7860  210.3890  152.8170 C   0  0  0  0  0  2  0  0  0  0  0  0
  160.2890  209.8850  157.0330 C   0  0  0  0  0  2  0  0  0  0  0  0
  162.4260  208.8860  156.6770 O   0  0  0  0  0  1  0  0  0  0  0  0
  161.1740  209.4450  154.7010 C   0  0  2  0  0  3  0  0  0  0  0  0
  158.9630  210.1550  156.3290 C   0  0  0  0  0  2  0  0  0  0  0  0
  161.1350  208.9610  156.1590 C   0  0  2  0  0  3  0  0  0  0  0  0
  159.7550  209.8290  154.2370 C   0  0  1  0  0  3  0  0  0  0  0  0
  159.2080  210.8000  155.1010 O   0  0  0  0  0  0  0  0  0  0  0  0
  161.7230  208.3260  153.8270 C   0  0  0  0  0  2  0  0  0  0  0  0
  160.6700  207.5330  153.3570 O   0  0  0  0  0  0  0  0  0  0  0  0
  160.6390  202.7760  150.3650 C   0  0  0  0  0  0  0  0  0  0  0  0
  161.7520  205.4140  149.9350 C   0  0  1  0  0  3  0  0  0  0  0  0
  160.6190  203.3550  148.9810 C   0  0  0  0  0  2  0  0  0  0  0  0
  160.8210  203.6800  151.5450 C   0  0  0  0  0  2  0  0  0  0  0  0
  160.3770  201.5980  150.5320 O   0  0  0  0  0  0  0  0  0  0  0  0
  161.9560  204.6800  151.2710 C   0  0  2  0  0  3  0  0  0  0  0  0
  162.0800  205.6830  152.4090 C   0  0  0  0  0  2  0  0  0  0  0  0
  161.7450  204.3860  148.8010 C   0  0  0  0  0  2  0  0  0  0  0  0
  160.4520  207.1910  150.8910 C   0  0  2  0  0  3  0  0  0  0  0  0
  161.7700  207.8870  151.2370 C   0  0  0  0  0  2  0  0  0  0  0  0
  161.1600  206.8880  152.2170 C   0  0  1  0  0  0  0  0  0  0  0  0
  160.5300  206.1350  149.9290 O   0  0  0  0  0  0  0  0  0  0  0  0
  1 27  1  6  0  0  0
  1  2  1  0  0  0  0
  3  5  1  0  0  0  0
  4  3  1  0  0  0  0
  4  1  1  0  0  0  0
  5  2  1  0  0  0  0
  6  3  1  0  0  0  0
  8 16  1  0  0  0  0
  9 17  1  0  0  0  0
 10 20  1  6  0  0  0
 10 12  1  0  0  0  0
 11  9  2  0  0  0  0
 12  8  1  0  0  0  0
 13 22  1  6  0  0  0
 13 20  1  0  0  0  0
 14 13  1  0  0  0  0
 14 18  1  0  0  0  0
 15  6  1  0  0  0  0
 16 15  2  0  0  0  0
 17 19  1  0  0  0  0
 17  8  2  0  0  0  0
 18  9  1  0  0  0  0
 18 10  1  0  0  0  0
 19 21  2  0  0  0  0
 21  7  1  0  0  0  0
 21 15  1  0  0  0  0
 23 22  2  0  0  0  0
 24 26  2  0  0  0  0
 25 26  1  0  0  0  0
 26 23  1  0  0  0  0
 30 35  1  6  0  0  0
 30 32  1  0  0  0  0
 31 28  1  0  0  0  0
 32 29  1  1  0  0  0
 32 28  1  0  0  0  0
 33 27  1  6  0  0  0
 33 30  1  0  0  0  0
 33 34  1  0  0  0  0
 34 31  1  0  0  0  0
 36 35  1  0  0  0  0
 37 41  2  0  0  0  0
 37 40  1  0  0  0  0
 38 44  1  6  0  0  0
 38 42  1  0  0  0  0
 39 37  1  0  0  0  0
 42 40  1  1  0  0  0
 42 43  1  0  0  0  0
 44 39  1  0  0  0  0
 45 46  1  6  0  0  0
 45 47  1  0  0  0  0
 46 47  1  0  0  0  0
 47 43  1  0  0  0  0
 47 36  1  1  0  0  0
 48 38  1  0  0  0  0
 48 45  1  0  0  0  0
M  END
>  <MODEL>
8

>  <REMARK>
 VINA RESULT:      -6.0      3.832      8.752
  Name = 
  9 active torsions:
  status: ('A' for Active; 'I' for Inactive)
    1  A    between atoms: C_3  and  C_44
    2  A    between atoms: C_13  and  C_18
    3  A    between atoms: C_14  and  C_26
    4  A    between atoms: C_14  and  N_29
    5  A    between atoms: C_16  and  C_22
    6  A    between atoms: C_16  and  O_36
    7  A    between atoms: C_27  and  C_41
    8  A    between atoms: O_36  and  C_38
    9  A    between atoms: C_43  and  C_44
                            x       y       z     vdW  Elec       q    Type
                         _______ _______ _______ _____ _____    ______ ____

>  <TORSDO>
F 9

$$$$
