=
 OpenBabel11072412413D

 31 36  0  0  1  0  0  0  0  0999 V2000
  159.7370  212.7690  137.3600 C   0  0  0  0  0  2  0  0  0  0  0  0
  162.6100  213.5200  141.5810 C   0  0  0  0  0  2  0  0  0  0  0  0
  163.1960  212.0280  139.5950 C   0  0  0  0  0  0  0  0  0  0  0  0
  160.8930  212.9220  143.1270 O   0  0  0  0  0  0  0  0  0  0  0  0
  157.6020  211.6570  140.4400 O   0  0  0  0  0  1  0  0  0  0  0  0
  162.3120  209.6570  139.7270 C   0  0  0  0  0  0  0  0  0  0  0  0
  160.3800  213.5300  139.6410 C   0  0  0  0  0  0  0  0  0  0  0  0
  161.2490  207.2880  138.7630 N   0  0  0  0  0  0  0  0  0  0  0  0
  157.6740  214.4530  139.8710 O   0  0  0  0  0  1  0  0  0  0  0  0
  157.3460  211.0680  138.1240 C   0  0  1  0  0  3  0  0  0  0  0  0
  157.2240  212.1530  139.1920 C   0  0  2  0  0  0  0  0  0  0  0  0
  162.0880  207.2570  139.8310 C   0  0  0  0  0  3  0  0  0  0  0  0
  158.6890  209.1710  137.4500 C   0  0  0  0  0  3  0  0  0  0  0  0
  161.4330  209.6730  138.6240 C   0  0  0  0  0  0  0  0  0  0  0  0
  159.3660  213.3800  138.6240 N   0  0  0  0  0  0  0  0  0  0  0  0
  162.8800  213.4180  140.0730 C   0  0  1  0  0  3  0  0  0  0  0  0
  159.9230  208.4350  137.0370 C   0  0  0  0  0  2  0  0  0  0  0  0
  161.1880  213.1880  141.9340 C   0  0  0  0  0  0  0  0  0  0  0  0
  157.9290  213.4980  138.8810 C   0  0  2  0  0  3  0  0  0  0  0  0
  156.3960  211.4310  137.0110 C   0  0  0  0  0  2  0  0  0  0  0  0
  160.1340  213.1770  140.9080 C   0  0  0  0  0  3  0  0  0  0  0  0
  158.6750  210.4790  137.7240 C   0  0  0  0  0  0  0  0  0  0  0  0
  162.6220  208.4410  140.3390 C   0  0  0  0  0  3  0  0  0  0  0  0
  162.7780  210.8720  140.3320 N   0  0  0  0  0  2  0  0  0  0  0  0
  161.7450  214.0460  139.2510 C   0  0  0  0  0  2  0  0  0  0  0  0
  155.7280  212.4110  139.1640 C   0  0  0  0  0  2  0  0  0  0  0  0
  160.9040  208.4560  138.1580 C   0  0  0  0  0  0  0  0  0  0  0  0
  161.0580  210.9330  138.0490 N   0  0  0  0  0  0  0  0  0  0  0  0
  163.7950  211.8850  138.4960 O   0  0  0  0  0  0  0  0  0  0  0  0
  159.8960  211.3140  137.6050 C   0  0  0  0  0  0  0  0  0  0  0  0
  155.2800  212.1910  137.7170 C   0  0  0  0  0  2  0  0  0  0  0  0
  1 30  1  0  0  0  0
  1 15  1  0  0  0  0
  2 18  1  0  0  0  0
  3 16  1  0  0  0  0
  3 24  1  0  0  0  0
  6 24  1  0  0  0  0
  6 23  1  0  0  0  0
  7 21  2  0  0  0  0
  8 12  1  0  0  0  0
 10 20  1  6  0  0  0
 10 11  1  0  0  0  0
 11  5  1  1  0  0  0
 12 23  2  0  0  0  0
 13 22  2  0  0  0  0
 14  6  2  0  0  0  0
 15 19  1  0  0  0  0
 15  7  1  0  0  0  0
 16 25  1  6  0  0  0
 16  2  1  0  0  0  0
 17 13  1  0  0  0  0
 17 27  1  0  0  0  0
 18  4  2  0  0  0  0
 19 11  1  0  0  0  0
 19  9  1  1  0  0  0
 20 31  1  0  0  0  0
 21 18  1  0  0  0  0
 22 10  1  0  0  0  0
 25  7  1  0  0  0  0
 26 11  1  0  0  0  0
 27 14  1  0  0  0  0
 27  8  2  0  0  0  0
 28 14  1  0  0  0  0
 29  3  2  0  0  0  0
 30 22  1  0  0  0  0
 30 28  2  0  0  0  0
 31 26  1  0  0  0  0
M  END
>  <MODEL>
1

>  <REMARK>
 VINA RESULT:      -4.3      0.000      0.000
  Name = 
  0 active torsions:
  status: ('A' for Active; 'I' for Inactive)
                            x       y       z     vdW  Elec       q    Type
                         _______ _______ _______ _____ _____    ______ ____

>  <TORSDO>
F 0

$$$$
=
 OpenBabel11072412413D

 31 36  0  0  1  0  0  0  0  0999 V2000
  159.5520  213.0080  155.5080 C   0  0  0  0  0  2  0  0  0  0  0  0
  160.9610  208.2400  156.8920 C   0  0  0  0  0  2  0  0  0  0  0  0
  162.2760  209.8350  155.3950 C   0  0  0  0  0  0  0  0  0  0  0  0
  158.9560  207.1890  156.1360 O   0  0  0  0  0  0  0  0  0  0  0  0
  156.7680  210.5600  154.2670 O   0  0  0  0  0  1  0  0  0  0  0  0
  161.6910  209.7360  152.9330 C   0  0  0  0  0  0  0  0  0  0  0  0
  159.4060  210.7200  156.4750 C   0  0  0  0  0  0  0  0  0  0  0  0
  161.2520  210.7360  150.3870 N   0  0  0  0  0  0  0  0  0  0  0  0
  156.6580  211.3430  157.0100 O   0  0  0  0  0  1  0  0  0  0  0  0
  157.2690  212.7900  153.5240 C   0  0  1  0  0  3  0  0  0  0  0  0
  156.7110  211.9040  154.6360 C   0  0  2  0  0  0  0  0  0  0  0  0
  161.7430  209.4770  150.5340 C   0  0  0  0  0  3  0  0  0  0  0  0
  158.9730  212.8820  151.8070 C   0  0  0  0  0  3  0  0  0  0  0  0
  161.1750  211.0380  152.7620 C   0  0  0  0  0  0  0  0  0  0  0  0
  158.7570  211.9610  156.1270 N   0  0  0  0  0  0  0  0  0  0  0  0
  161.6670  209.5960  156.7490 C   0  0  1  0  0  3  0  0  0  0  0  0
  160.3540  212.8620  151.2360 C   0  0  0  0  0  2  0  0  0  0  0  0
  159.5500  208.2700  156.3770 C   0  0  0  0  0  0  0  0  0  0  0  0
  157.3050  212.1290  156.0490 C   0  0  2  0  0  3  0  0  0  0  0  0
  156.6460  214.1530  153.6850 C   0  0  0  0  0  2  0  0  0  0  0  0
  158.8490  209.5450  156.1590 C   0  0  0  0  0  3  0  0  0  0  0  0
  158.7190  212.7460  153.1120 C   0  0  0  0  0  0  0  0  0  0  0  0
  161.9560  208.9520  151.8080 C   0  0  0  0  0  3  0  0  0  0  0  0
  161.8080  209.1400  154.2330 N   0  0  0  0  0  2  0  0  0  0  0  0
  160.7520  210.7580  157.1620 C   0  0  0  0  0  2  0  0  0  0  0  0
  155.2670  212.3740  154.6730 C   0  0  0  0  0  2  0  0  0  0  0  0
  160.9580  211.5190  151.4580 C   0  0  0  0  0  0  0  0  0  0  0  0
  160.8310  211.8090  153.9220 N   0  0  0  0  0  0  0  0  0  0  0  0
  163.1820  210.7030  155.2820 O   0  0  0  0  0  0  0  0  0  0  0  0
  159.8100  212.5950  154.1070 C   0  0  0  0  0  0  0  0  0  0  0  0
  155.2890  213.8620  154.3130 C   0  0  0  0  0  2  0  0  0  0  0  0
  1 15  1  0  0  0  0
  3 16  1  0  0  0  0
  4 18  2  0  0  0  0
  6 24  1  0  0  0  0
  7 25  1  0  0  0  0
  8 12  2  0  0  0  0
  8 27  1  0  0  0  0
 10 20  1  1  0  0  0
 10 11  1  0  0  0  0
 11  5  1  6  0  0  0
 11 26  1  0  0  0  0
 11 19  1  0  0  0  0
 12 23  1  0  0  0  0
 13 22  2  0  0  0  0
 14  6  1  0  0  0  0
 14 28  1  0  0  0  0
 15  7  1  0  0  0  0
 16  2  1  6  0  0  0
 16 25  1  0  0  0  0
 17 27  1  0  0  0  0
 17 13  1  0  0  0  0
 18  2  1  0  0  0  0
 19 15  1  0  0  0  0
 19  9  1  1  0  0  0
 20 31  1  0  0  0  0
 21 18  1  0  0  0  0
 21  7  2  0  0  0  0
 22 10  1  0  0  0  0
 22 30  1  0  0  0  0
 23  6  2  0  0  0  0
 24  3  1  0  0  0  0
 27 14  2  0  0  0  0
 28 30  2  0  0  0  0
 29  3  2  0  0  0  0
 30  1  1  0  0  0  0
 31 26  1  0  0  0  0
M  END
>  <MODEL>
2

>  <REMARK>
 VINA RESULT:      -2.8     13.169     15.551
  Name = 
  0 active torsions:
  status: ('A' for Active; 'I' for Inactive)
                            x       y       z     vdW  Elec       q    Type
                         _______ _______ _______ _____ _____    ______ ____

>  <TORSDO>
F 0

$$$$
=
 OpenBabel11072412413D

 31 36  0  0  1  0  0  0  0  0999 V2000
  160.0600  213.5380  153.8610 C   0  0  0  0  0  2  0  0  0  0  0  0
  156.8480  211.1370  157.1080 C   0  0  0  0  0  2  0  0  0  0  0  0
  159.3520  210.7110  156.8630 C   0  0  0  0  0  0  0  0  0  0  0  0
  155.2970  210.4600  155.4260 O   0  0  0  0  0  0  0  0  0  0  0  0
  157.2790  211.8320  151.7060 O   0  0  0  0  0  1  0  0  0  0  0  0
  159.9910  209.0210  155.0870 C   0  0  0  0  0  0  0  0  0  0  0  0
  157.9330  212.8260  154.9390 C   0  0  0  0  0  0  0  0  0  0  0  0
  161.5340  207.9280  153.0630 N   0  0  0  0  0  0  0  0  0  0  0  0
  156.6250  214.3470  152.8900 O   0  0  0  0  0  1  0  0  0  0  0  0
  159.4690  212.5750  151.0470 C   0  0  1  0  0  3  0  0  0  0  0  0
  158.0550  212.9680  151.4720 C   0  0  2  0  0  0  0  0  0  0  0  0
  160.8440  207.1040  153.8950 C   0  0  0  0  0  3  0  0  0  0  0  0
  161.2050  210.9310  151.4230 C   0  0  0  0  0  3  0  0  0  0  0  0
  160.7080  209.8620  154.2110 C   0  0  0  0  0  0  0  0  0  0  0  0
  158.6080  213.5350  153.8780 N   0  0  0  0  0  0  0  0  0  0  0  0
  158.2720  211.7040  157.1920 C   0  0  1  0  0  3  0  0  0  0  0  0
  162.2000  210.1330  152.2030 C   0  0  0  0  0  2  0  0  0  0  0  0
  156.3010  211.1620  155.7100 C   0  0  0  0  0  0  0  0  0  0  0  0
  157.9520  213.9760  152.6450 C   0  0  2  0  0  3  0  0  0  0  0  0
  160.0300  213.7240  150.2500 C   0  0  0  0  0  2  0  0  0  0  0  0
  156.9140  212.0010  154.6700 C   0  0  0  0  0  3  0  0  0  0  0  0
  160.4170  211.8590  151.9750 C   0  0  0  0  0  0  0  0  0  0  0  0
  160.0510  207.6370  154.9100 C   0  0  0  0  0  3  0  0  0  0  0  0
  159.0830  209.5530  156.0620 N   0  0  0  0  0  2  0  0  0  0  0  0
  158.4210  212.9860  156.3600 C   0  0  0  0  0  2  0  0  0  0  0  0
  157.5720  213.6810  150.2220 C   0  0  0  0  0  2  0  0  0  0  0  0
  161.4810  209.2800  153.1890 C   0  0  0  0  0  0  0  0  0  0  0  0
  160.5820  211.2840  154.3490 N   0  0  0  0  0  0  0  0  0  0  0  0
  160.5260  210.9360  157.2600 O   0  0  0  0  0  0  0  0  0  0  0  0
  160.4980  212.1910  153.4200 C   0  0  0  0  0  0  0  0  0  0  0  0
  158.8010  214.3590  149.6110 C   0  0  0  0  0  2  0  0  0  0  0  0
  1 15  1  0  0  0  0
  2 16  1  0  0  0  0
  3 16  1  0  0  0  0
  3 29  2  0  0  0  0
  4 18  2  0  0  0  0
  6 24  1  0  0  0  0
  7 25  1  0  0  0  0
  8 27  2  0  0  0  0
  8 12  1  0  0  0  0
 10 20  1  1  0  0  0
 10 11  1  0  0  0  0
 10 22  1  0  0  0  0
 11  5  1  1  0  0  0
 11 19  1  0  0  0  0
 12 23  2  0  0  0  0
 13 22  2  0  0  0  0
 13 17  1  0  0  0  0
 14 28  1  0  0  0  0
 14  6  2  0  0  0  0
 15  7  1  0  0  0  0
 16 25  1  6  0  0  0
 17 27  1  0  0  0  0
 18  2  1  0  0  0  0
 19  9  1  1  0  0  0
 19 15  1  0  0  0  0
 21  7  2  0  0  0  0
 21 18  1  0  0  0  0
 22 30  1  0  0  0  0
 23  6  1  0  0  0  0
 24  3  1  0  0  0  0
 26 11  1  0  0  0  0
 27 14  1  0  0  0  0
 30  1  1  0  0  0  0
 30 28  2  0  0  0  0
 31 26  1  0  0  0  0
 31 20  1  0  0  0  0
M  END
>  <MODEL>
3

>  <REMARK>
 VINA RESULT:      -1.3     12.655     15.021
  Name = 
  0 active torsions:
  status: ('A' for Active; 'I' for Inactive)
                            x       y       z     vdW  Elec       q    Type
                         _______ _______ _______ _____ _____    ______ ____

>  <TORSDO>
F 0

$$$$
