=
 OpenBabel11072412203D

 68 75  0  0  1  0  0  0  0  0999 V2000
  158.3340  211.0670  154.4630 C   0  0  0  0  0  2  0  0  0  0  0  0
  160.1500  212.4400  151.0950 C   0  0  0  0  0  0  0  0  0  0  0  0
  160.1880  212.2260  153.4150 O   0  0  0  0  0  0  0  0  0  0  0  0
  161.1550  209.6800  153.2770 O   0  0  0  0  0  0  0  0  0  0  0  0
  159.8390  211.4100  154.5380 C   0  0  1  0  0  0  0  0  0  0  0  0
  160.4040  211.6950  152.1470 C   0  0  0  0  0  0  0  0  0  0  0  0
  160.1440  212.1760  155.8300 C   0  0  0  0  0  2  0  0  0  0  0  0
  159.3420  213.4820  155.9560 C   0  0  0  0  0  2  0  0  0  0  0  0
  160.6360  210.1300  154.4920 C   0  0  0  0  0  0  0  0  0  0  0  0
  160.8270  209.4510  155.5380 O   0  0  0  0  0  0  0  0  0  0  0  0
  160.8020  210.2490  152.0170 C   0  0  1  0  0  3  0  0  0  0  0  0
  157.4020  212.1150  155.1030 C   0  0  0  0  0  2  0  0  0  0  0  0
  159.8670  213.2120  150.0650 C   0  0  0  0  0  3  0  0  0  0  0  0
  158.0570  213.4900  155.1140 C   0  0  1  0  0  3  0  0  0  0  0  0
  157.7800  214.4530  147.1470 S   0  0  0  0  0  0  0  0  0  0  0  0
  157.1230  212.4430  148.6880 O   0  0  0  0  0  0  0  0  0  0  0  0
  159.4740  212.7110  148.6910 C   0  0  2  0  0  3  0  0  0  0  0  0
  158.6690  213.4110  145.9900 C   0  0  2  0  0  3  0  0  0  0  0  0
  160.5870  213.1490  147.7010 C   0  0  2  0  0  3  0  0  0  0  0  0
  158.0630  213.1090  148.3000 C   0  0  0  0  0  0  0  0  0  0  0  0
  160.1090  213.6260  146.3770 C   0  0  1  0  0  0  0  0  0  0  0  0
  160.6520  212.3410  146.5210 O   0  0  0  0  0  0  0  0  0  0  0  0
  159.6200  214.1140  145.0300 C   0  0  1  0  0  3  0  0  0  0  0  0
  159.9660  213.2400  143.9930 O   0  0  0  0  0  0  0  0  0  0  0  0
  159.3450  213.6790  142.8090 C   0  0  0  0  0  2  0  0  0  0  0  0
  159.2000  212.6500  141.8530 O   0  0  0  0  0  0  0  0  0  0  0  0
  160.4580  211.2920  140.3740 C   0  0  2  0  0  3  0  0  0  0  0  0
  160.2610  213.6650  139.6130 N   0  0  0  0  0  1  0  0  0  0  0  0
  162.5820  212.8710  140.2860 C   0  0  0  0  0  1  0  0  0  0  0  0
  161.0690  212.6770  140.3100 C   0  0  2  0  0  0  0  0  0  0  0  0
  160.4960  212.1710  141.6220 C   0  0  1  0  0  3  0  0  0  0  0  0
  161.5020  210.1890  140.5020 C   0  0  0  0  0  2  0  0  0  0  0  0
  161.4020  209.2750  139.3300 C   0  0  0  0  0  0  0  0  0  0  0  0
  161.0160  209.7660  138.0910 O   0  0  0  0  0  0  0  0  0  0  0  0
  161.6560  208.0510  139.4740 O   0  0  0  0  0  1  0  0  0  0  0  0
  162.7190  211.2130  150.6710 C   0  0  0  0  0  1  0  0  0  0  0  0
  161.8790  209.9810  150.9580 C   0  0  2  0  0  3  0  0  0  0  0  0
  161.5140  210.0690  148.4290 C   0  0  0  0  0  1  0  0  0  0  0  0
  161.4940  209.2130  149.6810 C   0  0  1  0  0  3  0  0  0  0  0  0
  162.2450  207.5450  149.4350 P   0  0  1  0  0  0  0  0  0  0  0  0
  162.5340  207.8900  153.0750 C   0  0  0  0  0  1  0  0  0  0  0  0
  162.8890  207.0000  150.9070 O   0  0  0  0  0  0  0  0  0  0  0  0
  161.8960  207.2050  151.8700 C   0  0  1  0  0  3  0  0  0  0  0  0
  161.0360  206.2940  148.8660 C   0  0  1  0  0  3  0  0  0  0  0  0
  161.2940  205.9230  152.2750 N   0  0  0  0  0  0  0  0  0  0  0  0
  163.3800  207.6160  148.4430 O   0  0  0  0  0  0  0  0  0  0  0  0
  160.7840  205.1280  151.1490 C   0  0  1  0  0  3  0  0  0  0  0  0
  160.0940  205.9040  150.0080 C   0  0  0  0  0  2  0  0  0  0  0  0
  162.6930  203.5930  151.6220 O   0  0  0  0  0  1  0  0  0  0  0  0
  161.6890  203.9960  150.7550 C   0  0  0  0  0  0  0  0  0  0  0  0
  161.5580  203.4110  149.6460 O   0  0  0  0  0  0  0  0  0  0  0  0
  159.8930  206.2740  153.3010 S   0  0  0  0  0  0  0  0  0  0  0  0
  160.8820  206.1150  154.8150 C   0  0  0  0  0  2  0  0  0  0  0  0
  160.2140  206.8950  155.9320 C   0  0  0  0  0  1  0  0  0  0  0  0
  160.2900  206.8050  147.6270 C   0  0  0  0  0  2  0  0  0  0  0  0
  161.1740  206.8780  146.3860 C   0  0  0  0  0  2  0  0  0  0  0  0
  162.1160  205.6850  146.3330 C   0  0  0  0  0  2  0  0  0  0  0  0
  161.4760  204.5780  145.5730 C   0  0  0  0  0  0  0  0  0  0  0  0
  160.4830  204.8240  144.8250 O   0  0  0  0  0  0  0  0  0  0  0  0
  162.0160  203.2560  145.6730 N   0  0  0  0  0  0  0  0  0  0  0  0
  159.3340  201.4920  144.8070 C   0  0  0  0  0  1  0  0  0  0  0  0
  161.1330  200.7390  146.1230 O   0  0  0  0  0  0  0  0  0  0  0  0
  161.2820  202.2150  145.9080 C   0  0  0  0  0  0  0  0  0  0  0  0
  160.0690  201.6000  146.1250 C   0  0  1  0  0  3  0  0  0  0  0  0
  157.1710  214.4530  155.6070 O   0  0  0  0  0  0  0  0  0  0  0  0
  155.8920  213.9800  155.3050 C   0  0  1  0  0  3  0  0  0  0  0  0
  154.9560  214.4530  156.3180 N   0  0  0  0  0  1  0  0  0  0  0  0
  155.4930  214.4530  154.0560 O   0  0  0  0  0  1  0  0  0  0  0  0
  1 12  1  0  0  0  0
  2  6  2  0  0  0  0
  3  5  1  0  0  0  0
  4  9  1  0  0  0  0
  5  1  1  6  0  0  0
  5  7  1  0  0  0  0
  6  3  1  0  0  0  0
  7  8  1  0  0  0  0
  9  5  1  0  0  0  0
  9 10  2  0  0  0  0
 11 37  1  6  0  0  0
 11  6  1  0  0  0  0
 11  4  1  0  0  0  0
 12 14  1  0  0  0  0
 13  2  2  0  0  0  0
 14 65  1  1  0  0  0
 14  8  1  0  0  0  0
 15 20  1  0  0  0  0
 17 13  1  1  0  0  0
 18 21  1  0  0  0  0
 18 15  1  1  0  0  0
 19 22  1  6  0  0  0
 19 17  1  0  0  0  0
 20 16  2  0  0  0  0
 20 17  1  0  0  0  0
 21 22  1  6  0  0  0
 21 19  1  0  0  0  0
 23 24  1  6  0  0  0
 23 18  1  0  0  0  0
 23 21  1  0  0  0  0
 25 24  1  0  0  0  0
 26 25  1  0  0  0  0
 27 32  1  1  0  0  0
 27 31  1  0  0  0  0
 28 30  1  0  0  0  0
 30 29  1  6  0  0  0
 30 27  1  0  0  0  0
 30 31  1  0  0  0  0
 31 26  1  6  0  0  0
 33 35  1  0  0  0  0
 33 32  1  0  0  0  0
 34 33  2  0  0  0  0
 37 36  1  6  0  0  0
 39 38  1  6  0  0  0
 39 37  1  0  0  0  0
 40 46  2  6  0  0  0
 40 39  1  0  0  0  0
 40 42  1  0  0  0  0
 42 43  1  0  0  0  0
 43 45  1  0  0  0  0
 43 41  1  1  0  0  0
 44 55  1  6  0  0  0
 44 40  1  0  0  0  0
 44 48  1  0  0  0  0
 45 52  1  0  0  0  0
 47 50  1  6  0  0  0
 47 45  1  0  0  0  0
 48 47  1  0  0  0  0
 50 49  1  0  0  0  0
 51 50  2  0  0  0  0
 52 53  1  0  0  0  0
 53 54  1  0  0  0  0
 56 55  1  0  0  0  0
 57 56  1  0  0  0  0
 58 60  1  0  0  0  0
 58 57  1  0  0  0  0
 59 58  2  0  0  0  0
 60 63  2  0  0  0  0
 62 64  1  0  0  0  0
 63 62  1  0  0  0  0
 63 64  1  0  0  0  0
 64 61  1  6  0  0  0
 66 68  1  6  0  0  0
 66 65  1  0  0  0  0
 66 67  1  0  0  0  0
M  END
>  <MODEL>
1

>  <REMARK>
 VINA RESULT:      -2.3      0.000      0.000
  Name = 
  20 active torsions:
  status: ('A' for Active; 'I' for Inactive)
    1  A    between atoms: N_1  and  C_10
    2  A    between atoms: O_2  and  C_44
    3  A    between atoms: O_2  and  C_68
    4  A    between atoms: P_4  and  C_65
    5  A    between atoms: C_5  and  C_15
    6  A    between atoms: C_7  and  C_28
    7  A    between atoms: C_7  and  C_38
    8  A    between atoms: C_9  and  C_64
    9  A    between atoms: C_10  and  C_20
   10  A    between atoms: O_11  and  C_44
   11  A    between atoms: O_11  and  C_62
   12  A    between atoms: C_14  and  O_42
   13  A    between atoms: C_15  and  C_27
   14  A    between atoms: C_16  and  S_32
   15  A    between atoms: C_20  and  C_28
   16  A    between atoms: S_32  and  N_43
   17  A    between atoms: O_42  and  C_66
   18  A    between atoms: C_47  and  C_59
   19  A    between atoms: C_47  and  C_65
   20  A    between atoms: C_49  and  C_52
                            x       y       z     vdW  Elec       q    Type
                         _______ _______ _______ _____ _____    ______ ____

>  <TORSDO>
F 20

$$$$
=
 OpenBabel11072412203D

 68 75  0  0  1  0  0  0  0  0999 V2000
  158.9090  210.0910  154.2050 C   0  0  0  0  0  2  0  0  0  0  0  0
  160.6410  211.7740  150.9360 C   0  0  0  0  0  0  0  0  0  0  0  0
  160.8010  211.2200  153.1930 O   0  0  0  0  0  0  0  0  0  0  0  0
  161.4990  208.6450  152.6290 O   0  0  0  0  0  0  0  0  0  0  0  0
  160.4420  210.2840  154.2150 C   0  0  1  0  0  0  0  0  0  0  0  0
  160.8840  210.8630  151.8510 C   0  0  0  0  0  0  0  0  0  0  0  0
  160.9010  210.8210  155.5740 C   0  0  0  0  0  2  0  0  0  0  0  0
  160.2420  212.1620  155.9410 C   0  0  0  0  0  2  0  0  0  0  0  0
  161.1040  208.9570  153.9310 C   0  0  0  0  0  0  0  0  0  0  0  0
  161.2900  208.1180  154.8540 O   0  0  0  0  0  0  0  0  0  0  0  0
  161.1280  209.4220  151.4910 C   0  0  1  0  0  3  0  0  0  0  0  0
  158.1270  211.1130  155.0540 C   0  0  0  0  0  2  0  0  0  0  0  0
  160.3740  212.7100  150.0480 C   0  0  0  0  0  3  0  0  0  0  0  0
  158.9150  212.4080  155.2080 C   0  0  1  0  0  3  0  0  0  0  0  0
  158.0760  214.4510  147.5780 S   0  0  0  0  0  0  0  0  0  0  0  0
  157.5000  212.2190  148.8150 O   0  0  0  0  0  0  0  0  0  0  0  0
  159.8490  212.4530  148.6500 C   0  0  2  0  0  3  0  0  0  0  0  0
  158.8320  213.6080  146.1890 C   0  0  2  0  0  3  0  0  0  0  0  0
  160.8830  213.0370  147.6510 C   0  0  2  0  0  3  0  0  0  0  0  0
  158.4210  212.9290  148.4600 C   0  0  0  0  0  0  0  0  0  0  0  0
  160.3050  213.7360  146.4740 C   0  0  1  0  0  0  0  0  0  0  0  0
  160.8230  212.4390  146.3520 O   0  0  0  0  0  0  0  0  0  0  0  0
  159.7150  214.4510  145.2770 C   0  0  1  0  0  3  0  0  0  0  0  0
  159.9440  213.7590  144.0820 O   0  0  0  0  0  0  0  0  0  0  0  0
  159.1930  214.3670  143.0590 C   0  0  0  0  0  2  0  0  0  0  0  0
  159.8490  214.3410  141.8090 O   0  0  0  0  0  0  0  0  0  0  0  0
  159.8920  212.8410  139.9760 C   0  0  2  0  0  3  0  0  0  0  0  0
  162.1200  213.8600  140.4730 N   0  0  0  0  0  1  0  0  0  0  0  0
  161.8940  211.3590  140.8780 C   0  0  0  0  0  1  0  0  0  0  0  0
  161.2380  212.7190  140.6620 C   0  0  2  0  0  0  0  0  0  0  0  0
  159.9940  212.9850  141.4930 C   0  0  1  0  0  3  0  0  0  0  0  0
  159.2760  211.4880  139.6370 C   0  0  0  0  0  2  0  0  0  0  0  0
  157.9340  211.6960  139.0260 C   0  0  0  0  0  0  0  0  0  0  0  0
  157.7260  211.4170  137.6820 O   0  0  0  0  0  0  0  0  0  0  0  0
  156.9920  212.1400  139.7330 O   0  0  0  0  0  1  0  0  0  0  0  0
  163.0720  210.3790  150.1780 C   0  0  0  0  0  1  0  0  0  0  0  0
  162.1060  209.2160  150.3270 C   0  0  2  0  0  3  0  0  0  0  0  0
  161.4780  209.8020  147.9190 C   0  0  0  0  0  1  0  0  0  0  0  0
  161.5620  208.7190  148.9760 C   0  0  1  0  0  3  0  0  0  0  0  0
  162.2270  207.1220  148.3300 P   0  0  1  0  0  0  0  0  0  0  0  0
  163.0870  206.8290  151.8840 C   0  0  0  0  0  1  0  0  0  0  0  0
  163.0790  206.3310  149.5660 O   0  0  0  0  0  0  0  0  0  0  0  0
  162.2530  206.3620  150.6950 C   0  0  1  0  0  3  0  0  0  0  0  0
  160.9150  205.9840  147.7520 C   0  0  1  0  0  3  0  0  0  0  0  0
  161.6920  205.0270  150.9620 N   0  0  0  0  0  0  0  0  0  0  0  0
  163.1940  207.3690  147.2000 O   0  0  0  0  0  0  0  0  0  0  0  0
  160.9940  204.4370  149.8100 C   0  0  1  0  0  3  0  0  0  0  0  0
  160.1530  205.3970  148.9440 C   0  0  0  0  0  2  0  0  0  0  0  0
  162.2250  203.6400  147.7920 O   0  0  0  0  0  0  0  0  0  0  0  0
  161.8000  203.3950  149.0890 C   0  0  0  0  0  0  0  0  0  0  0  0
  162.0900  202.2980  149.6380 O   0  0  0  0  0  1  0  0  0  0  0  0
  160.4760  205.1880  152.2410 S   0  0  0  0  0  0  0  0  0  0  0  0
  160.7160  203.4690  152.7740 C   0  0  0  0  0  2  0  0  0  0  0  0
  159.9120  202.5500  151.8730 C   0  0  0  0  0  1  0  0  0  0  0  0
  159.9970  206.7000  146.7530 C   0  0  0  0  0  2  0  0  0  0  0  0
  160.3570  206.4110  145.2990 C   0  0  0  0  0  2  0  0  0  0  0  0
  161.7640  205.8440  145.2020 C   0  0  0  0  0  2  0  0  0  0  0  0
  161.7050  204.4500  144.6880 C   0  0  0  0  0  0  0  0  0  0  0  0
  162.7810  203.8190  144.4630 O   0  0  0  0  0  0  0  0  0  0  0  0
  160.4300  203.8300  144.4880 N   0  0  0  0  0  0  0  0  0  0  0  0
  160.6730  201.3360  146.6740 C   0  0  0  0  0  1  0  0  0  0  0  0
  159.3030  201.3860  144.7620 O   0  0  0  0  0  0  0  0  0  0  0  0
  160.2150  202.5760  144.7290 C   0  0  0  0  0  0  0  0  0  0  0  0
  160.6110  201.3300  145.1630 C   0  0  1  0  0  3  0  0  0  0  0  0
  158.1610  213.3640  155.8950 O   0  0  0  0  0  0  0  0  0  0  0  0
  157.6030  214.1840  154.9120 C   0  0  1  0  0  3  0  0  0  0  0  0
  158.0310  213.7150  153.6000 N   0  0  0  0  0  1  0  0  0  0  0  0
  156.2110  214.1330  154.9860 O   0  0  0  0  0  1  0  0  0  0  0  0
  1 12  1  0  0  0  0
  2  6  2  0  0  0  0
  3  5  1  0  0  0  0
  4  9  1  0  0  0  0
  5  1  1  1  0  0  0
  5  7  1  0  0  0  0
  6  3  1  0  0  0  0
  7  8  1  0  0  0  0
  9  5  1  0  0  0  0
  9 10  2  0  0  0  0
 11 37  1  6  0  0  0
 11  6  1  0  0  0  0
 11  4  1  0  0  0  0
 12 14  1  0  0  0  0
 13  2  2  0  0  0  0
 14 65  1  1  0  0  0
 14  8  1  0  0  0  0
 15 20  1  0  0  0  0
 17 13  1  1  0  0  0
 18 21  1  0  0  0  0
 18 15  1  1  0  0  0
 19 22  1  6  0  0  0
 19 17  1  0  0  0  0
 20 17  1  0  0  0  0
 20 16  2  0  0  0  0
 21 22  1  6  0  0  0
 21 19  1  0  0  0  0
 23 24  1  6  0  0  0
 23 18  1  0  0  0  0
 23 21  1  0  0  0  0
 25 24  1  0  0  0  0
 26 25  1  0  0  0  0
 27 32  1  1  0  0  0
 27 30  1  0  0  0  0
 27 31  1  0  0  0  0
 28 30  1  0  0  0  0
 30 29  1  1  0  0  0
 30 31  1  0  0  0  0
 31 26  1  6  0  0  0
 33 32  1  0  0  0  0
 33 35  1  0  0  0  0
 34 33  2  0  0  0  0
 37 36  1  6  0  0  0
 39 38  1  6  0  0  0
 39 37  1  0  0  0  0
 40 46  2  6  0  0  0
 40 39  1  0  0  0  0
 40 42  1  0  0  0  0
 42 43  1  0  0  0  0
 43 45  1  0  0  0  0
 43 41  1  1  0  0  0
 44 55  1  6  0  0  0
 44 40  1  0  0  0  0
 44 48  1  0  0  0  0
 45 52  1  0  0  0  0
 47 50  1  6  0  0  0
 47 45  1  0  0  0  0
 48 47  1  0  0  0  0
 49 50  2  0  0  0  0
 50 51  1  0  0  0  0
 52 53  1  0  0  0  0
 54 53  1  0  0  0  0
 56 55  1  0  0  0  0
 57 56  1  0  0  0  0
 58 57  1  0  0  0  0
 59 58  2  0  0  0  0
 60 58  1  0  0  0  0
 60 63  2  0  0  0  0
 62 64  1  0  0  0  0
 63 62  1  0  0  0  0
 63 64  1  0  0  0  0
 64 61  1  1  0  0  0
 66 67  1  6  0  0  0
 66 68  1  0  0  0  0
 66 65  1  0  0  0  0
M  END
>  <MODEL>
2

>  <REMARK>
 VINA RESULT:      -0.2      1.630      1.962
  Name = 
  20 active torsions:
  status: ('A' for Active; 'I' for Inactive)
    1  A    between atoms: N_1  and  C_10
    2  A    between atoms: O_2  and  C_44
    3  A    between atoms: O_2  and  C_68
    4  A    between atoms: P_4  and  C_65
    5  A    between atoms: C_5  and  C_15
    6  A    between atoms: C_7  and  C_28
    7  A    between atoms: C_7  and  C_38
    8  A    between atoms: C_9  and  C_64
    9  A    between atoms: C_10  and  C_20
   10  A    between atoms: O_11  and  C_44
   11  A    between atoms: O_11  and  C_62
   12  A    between atoms: C_14  and  O_42
   13  A    between atoms: C_15  and  C_27
   14  A    between atoms: C_16  and  S_32
   15  A    between atoms: C_20  and  C_28
   16  A    between atoms: S_32  and  N_43
   17  A    between atoms: O_42  and  C_66
   18  A    between atoms: C_47  and  C_59
   19  A    between atoms: C_47  and  C_65
   20  A    between atoms: C_49  and  C_52
                            x       y       z     vdW  Elec       q    Type
                         _______ _______ _______ _____ _____    ______ ____

>  <TORSDO>
F 20

$$$$
=
 OpenBabel11072412203D

 68 75  0  0  1  0  0  0  0  0999 V2000
  158.1370  211.1640  153.7990 C   0  0  0  0  0  2  0  0  0  0  0  0
  160.0550  212.6860  150.5550 C   0  0  0  0  0  0  0  0  0  0  0  0
  159.9560  212.4720  152.8730 O   0  0  0  0  0  0  0  0  0  0  0  0
  161.1330  210.0130  152.8090 O   0  0  0  0  0  0  0  0  0  0  0  0
  159.6000  211.6280  153.9740 C   0  0  1  0  0  0  0  0  0  0  0  0
  160.2980  211.9620  151.6240 C   0  0  0  0  0  0  0  0  0  0  0  0
  159.7550  212.4130  155.2800 C   0  0  0  0  0  2  0  0  0  0  0  0
  158.8440  213.6500  155.3480 C   0  0  0  0  0  2  0  0  0  0  0  0
  160.5000  210.4170  153.9860 C   0  0  0  0  0  0  0  0  0  0  0  0
  160.6750  209.7530  155.0440 O   0  0  0  0  0  0  0  0  0  0  0  0
  160.8210  210.5540  151.5260 C   0  0  1  0  0  3  0  0  0  0  0  0
  157.0830  212.1310  154.3720 C   0  0  0  0  0  2  0  0  0  0  0  0
  159.7800  213.4340  149.5060 C   0  0  0  0  0  3  0  0  0  0  0  0
  157.6210  213.5550  154.4230 C   0  0  1  0  0  3  0  0  0  0  0  0
  157.7130  214.4510  146.4890 S   0  0  0  0  0  0  0  0  0  0  0  0
  157.2230  212.3600  147.9820 O   0  0  0  0  0  0  0  0  0  0  0  0
  159.5210  212.9060  148.1100 C   0  0  2  0  0  3  0  0  0  0  0  0
  158.7800  213.5360  145.3750 C   0  0  2  0  0  3  0  0  0  0  0  0
  160.6240  213.4850  147.1830 C   0  0  2  0  0  3  0  0  0  0  0  0
  158.0950  213.1370  147.6480 C   0  0  0  0  0  0  0  0  0  0  0  0
  160.1610  213.9170  145.8380 C   0  0  1  0  0  0  0  0  0  0  0  0
  160.8460  212.7040  146.0040 O   0  0  0  0  0  0  0  0  0  0  0  0
  159.6880  214.3580  144.4700 C   0  0  1  0  0  3  0  0  0  0  0  0
  160.1890  213.5430  143.4480 O   0  0  0  0  0  0  0  0  0  0  0  0
  159.1730  213.3410  142.4960 C   0  0  0  0  0  2  0  0  0  0  0  0
  159.5930  213.6270  141.1780 O   0  0  0  0  0  0  0  0  0  0  0  0
  158.2290  213.8130  139.2500 C   0  0  2  0  0  3  0  0  0  0  0  0
  160.6200  213.3050  138.7260 N   0  0  0  0  0  1  0  0  0  0  0  0
  158.9240  211.4860  138.1940 C   0  0  0  0  0  1  0  0  0  0  0  0
  159.2830  212.7720  138.9310 C   0  0  2  0  0  0  0  0  0  0  0  0
  158.7450  212.8850  140.3470 C   0  0  1  0  0  3  0  0  0  0  0  0
  156.8260  213.3810  138.8400 C   0  0  0  0  0  2  0  0  0  0  0  0
  155.8580  213.7730  139.9020 C   0  0  0  0  0  0  0  0  0  0  0  0
  154.5220  213.4130  139.7980 O   0  0  0  0  0  0  0  0  0  0  0  0
  156.2580  214.4450  140.8880 O   0  0  0  0  0  1  0  0  0  0  0  0
  162.6910  211.6880  150.2480 C   0  0  0  0  0  1  0  0  0  0  0  0
  161.9840  210.3760  150.5430 C   0  0  2  0  0  3  0  0  0  0  0  0
  162.0510  210.2630  147.9890 C   0  0  0  0  0  1  0  0  0  0  0  0
  161.7690  209.5210  149.2810 C   0  0  1  0  0  3  0  0  0  0  0  0
  162.4440  207.8030  149.2960 P   0  0  1  0  0  0  0  0  0  0  0  0
  162.8010  208.7040  152.8330 C   0  0  0  0  0  1  0  0  0  0  0  0
  163.0850  207.4680  150.8310 O   0  0  0  0  0  0  0  0  0  0  0  0
  162.1160  207.8670  151.7570 C   0  0  1  0  0  3  0  0  0  0  0  0
  161.1730  206.5330  148.9420 C   0  0  1  0  0  3  0  0  0  0  0  0
  161.4650  206.6940  152.3640 N   0  0  0  0  0  0  0  0  0  0  0  0
  163.5650  207.6650  148.2970 O   0  0  0  0  0  0  0  0  0  0  0  0
  160.9050  205.7540  151.3830 C   0  0  1  0  0  3  0  0  0  0  0  0
  160.2320  206.3710  150.1390 C   0  0  0  0  0  2  0  0  0  0  0  0
  162.9950  204.4510  151.7780 O   0  0  0  0  0  1  0  0  0  0  0  0
  161.7540  204.5350  151.1650 C   0  0  0  0  0  0  0  0  0  0  0  0
  161.3630  203.5900  150.4290 O   0  0  0  0  0  0  0  0  0  0  0  0
  160.0960  207.2650  153.3330 S   0  0  0  0  0  0  0  0  0  0  0  0
  160.7390  206.4650  154.8300 C   0  0  0  0  0  2  0  0  0  0  0  0
  160.3420  207.2840  156.0440 C   0  0  0  0  0  1  0  0  0  0  0  0
  160.4320  206.8760  147.6430 C   0  0  0  0  0  2  0  0  0  0  0  0
  161.1520  206.3750  146.3950 C   0  0  0  0  0  2  0  0  0  0  0  0
  160.6970  204.9660  146.0490 C   0  0  0  0  0  2  0  0  0  0  0  0
  161.6530  203.9790  146.6190 C   0  0  0  0  0  0  0  0  0  0  0  0
  162.7860  203.8180  146.0740 O   0  0  0  0  0  0  0  0  0  0  0  0
  161.2900  203.2520  147.7980 N   0  0  0  0  0  0  0  0  0  0  0  0
  161.6280  200.1450  146.6630 C   0  0  0  0  0  1  0  0  0  0  0  0
  160.2610  200.8370  148.4490 O   0  0  0  0  0  0  0  0  0  0  0  0
  160.8010  202.0540  147.7600 C   0  0  0  0  0  0  0  0  0  0  0  0
  160.4000  200.9190  147.0900 C   0  0  1  0  0  3  0  0  0  0  0  0
  156.6290  214.4420  154.8520 O   0  0  0  0  0  0  0  0  0  0  0  0
  155.4140  213.8130  154.5770 C   0  0  1  0  0  3  0  0  0  0  0  0
  154.4240  214.2330  155.5610 N   0  0  0  0  0  1  0  0  0  0  0  0
  154.9720  214.1670  153.3030 O   0  0  0  0  0  1  0  0  0  0  0  0
  1 12  1  0  0  0  0
  2  6  2  0  0  0  0
  3  5  1  0  0  0  0
  4  9  1  0  0  0  0
  5  1  1  6  0  0  0
  5  9  1  0  0  0  0
  5  7  1  0  0  0  0
  6  3  1  0  0  0  0
  7  8  1  0  0  0  0
  9 10  2  0  0  0  0
 11 37  1  6  0  0  0
 11  6  1  0  0  0  0
 11  4  1  0  0  0  0
 12 14  1  0  0  0  0
 13  2  2  0  0  0  0
 14 65  1  1  0  0  0
 14  8  1  0  0  0  0
 15 20  1  0  0  0  0
 17 13  1  1  0  0  0
 18 21  1  0  0  0  0
 18 15  1  1  0  0  0
 19 22  1  6  0  0  0
 19 17  1  0  0  0  0
 20 16  2  0  0  0  0
 20 17  1  0  0  0  0
 21 22  1  6  0  0  0
 21 19  1  0  0  0  0
 23 24  1  6  0  0  0
 23 18  1  0  0  0  0
 23 21  1  0  0  0  0
 25 24  1  0  0  0  0
 26 25  1  0  0  0  0
 27 32  1  6  0  0  0
 27 31  1  0  0  0  0
 28 30  1  0  0  0  0
 30 29  1  6  0  0  0
 30 27  1  0  0  0  0
 30 31  1  0  0  0  0
 31 26  1  1  0  0  0
 32 33  1  0  0  0  0
 33 35  1  0  0  0  0
 34 33  2  0  0  0  0
 37 36  1  6  0  0  0
 39 38  1  6  0  0  0
 39 40  1  0  0  0  0
 39 37  1  0  0  0  0
 40 46  2  6  0  0  0
 40 42  1  0  0  0  0
 42 43  1  0  0  0  0
 43 45  1  0  0  0  0
 43 41  1  1  0  0  0
 44 55  1  6  0  0  0
 44 40  1  0  0  0  0
 44 48  1  0  0  0  0
 45 52  1  0  0  0  0
 47 50  1  6  0  0  0
 47 45  1  0  0  0  0
 48 47  1  0  0  0  0
 50 49  1  0  0  0  0
 51 50  2  0  0  0  0
 52 53  1  0  0  0  0
 53 54  1  0  0  0  0
 56 55  1  0  0  0  0
 57 56  1  0  0  0  0
 57 58  1  0  0  0  0
 58 60  1  0  0  0  0
 59 58  2  0  0  0  0
 63 60  2  0  0  0  0
 63 62  1  0  0  0  0
 64 61  1  1  0  0  0
 64 63  1  0  0  0  0
 64 62  1  0  0  0  0
 66 68  1  6  0  0  0
 66 65  1  0  0  0  0
 66 67  1  0  0  0  0
M  END
>  <MODEL>
3

>  <REMARK>
 VINA RESULT:      -0.1      1.611      2.180
  Name = 
  20 active torsions:
  status: ('A' for Active; 'I' for Inactive)
    1  A    between atoms: N_1  and  C_10
    2  A    between atoms: O_2  and  C_44
    3  A    between atoms: O_2  and  C_68
    4  A    between atoms: P_4  and  C_65
    5  A    between atoms: C_5  and  C_15
    6  A    between atoms: C_7  and  C_28
    7  A    between atoms: C_7  and  C_38
    8  A    between atoms: C_9  and  C_64
    9  A    between atoms: C_10  and  C_20
   10  A    between atoms: O_11  and  C_44
   11  A    between atoms: O_11  and  C_62
   12  A    between atoms: C_14  and  O_42
   13  A    between atoms: C_15  and  C_27
   14  A    between atoms: C_16  and  S_32
   15  A    between atoms: C_20  and  C_28
   16  A    between atoms: S_32  and  N_43
   17  A    between atoms: O_42  and  C_66
   18  A    between atoms: C_47  and  C_59
   19  A    between atoms: C_47  and  C_65
   20  A    between atoms: C_49  and  C_52
                            x       y       z     vdW  Elec       q    Type
                         _______ _______ _______ _____ _____    ______ ____

>  <TORSDO>
F 20

$$$$
=
 OpenBabel11072412203D

 68 75  0  0  1  0  0  0  0  0999 V2000
  158.7930  209.6090  155.3330 C   0  0  0  0  0  2  0  0  0  0  0  0
  160.8500  211.1730  152.1960 C   0  0  0  0  0  0  0  0  0  0  0  0
  160.8730  210.4430  154.4080 O   0  0  0  0  0  0  0  0  0  0  0  0
  161.1000  207.8300  153.6620 O   0  0  0  0  0  0  0  0  0  0  0  0
  160.3350  209.5180  155.3590 C   0  0  1  0  0  0  0  0  0  0  0  0
  160.9100  210.1720  153.0440 C   0  0  0  0  0  0  0  0  0  0  0  0
  160.8640  209.8670  156.7540 C   0  0  0  0  0  2  0  0  0  0  0  0
  160.4540  211.2760  157.2150 C   0  0  0  0  0  2  0  0  0  0  0  0
  160.7490  208.1170  154.9820 C   0  0  0  0  0  0  0  0  0  0  0  0
  160.7660  207.1950  155.8430 O   0  0  0  0  0  0  0  0  0  0  0  0
  160.8930  208.7390  152.5820 C   0  0  1  0  0  3  0  0  0  0  0  0
  158.1970  210.6950  156.2510 C   0  0  0  0  0  2  0  0  0  0  0  0
  160.7700  212.2020  151.3760 C   0  0  0  0  0  3  0  0  0  0  0  0
  159.2040  211.8100  156.4990 C   0  0  1  0  0  3  0  0  0  0  0  0
  158.7420  214.4460  149.0820 S   0  0  0  0  0  0  0  0  0  0  0  0
  157.8670  212.2070  150.1140 O   0  0  0  0  0  0  0  0  0  0  0  0
  160.2280  212.1430  149.9630 C   0  0  2  0  0  3  0  0  0  0  0  0
  159.3930  213.6400  147.6190 C   0  0  2  0  0  3  0  0  0  0  0  0
  161.3390  212.6740  149.0170 C   0  0  2  0  0  3  0  0  0  0  0  0
  158.8760  212.8180  149.8220 C   0  0  0  0  0  0  0  0  0  0  0  0
  160.8680  213.5460  147.9100 C   0  0  1  0  0  0  0  0  0  0  0  0
  161.2120  212.2080  147.6690 O   0  0  0  0  0  0  0  0  0  0  0  0
  160.3870  214.4370  146.7840 C   0  0  1  0  0  3  0  0  0  0  0  0
  160.5340  213.8320  145.5310 O   0  0  0  0  0  0  0  0  0  0  0  0
  161.6000  214.4520  144.8550 C   0  0  0  0  0  2  0  0  0  0  0  0
  162.1500  213.6400  143.8380 O   0  0  0  0  0  0  0  0  0  0  0  0
  162.2110  213.3190  141.4920 C   0  0  2  0  0  3  0  0  0  0  0  0
  160.4110  212.0050  142.6240 N   0  0  0  0  0  1  0  0  0  0  0  0
  159.6560  213.8720  141.0700 C   0  0  0  0  0  1  0  0  0  0  0  0
  160.7550  213.2190  141.9010 C   0  0  2  0  0  0  0  0  0  0  0  0
  161.6770  214.1780  142.6360 C   0  0  1  0  0  3  0  0  0  0  0  0
  162.4220  214.1920  140.2600 C   0  0  0  0  0  2  0  0  0  0  0  0
  162.5260  213.3260  139.0530 C   0  0  0  0  0  0  0  0  0  0  0  0
  162.4540  211.9450  139.1740 O   0  0  0  0  0  1  0  0  0  0  0  0
  162.6960  213.8540  137.9230 O   0  0  0  0  0  0  0  0  0  0  0  0
  162.9210  209.4920  151.2630 C   0  0  0  0  0  1  0  0  0  0  0  0
  161.8350  208.4400  151.4080 C   0  0  2  0  0  3  0  0  0  0  0  0
  160.6910  209.1820  149.2450 C   0  0  0  0  0  1  0  0  0  0  0  0
  161.2300  208.0200  150.0560 C   0  0  1  0  0  3  0  0  0  0  0  0
  162.1800  206.8040  149.0440 P   0  0  1  0  0  0  0  0  0  0  0  0
  162.4580  205.2830  152.3700 C   0  0  0  0  0  1  0  0  0  0  0  0
  162.9010  205.6620  150.0720 O   0  0  0  0  0  0  0  0  0  0  0  0
  161.8990  205.2380  150.9510 C   0  0  1  0  0  3  0  0  0  0  0  0
  161.1310  205.8880  147.8560 C   0  0  1  0  0  3  0  0  0  0  0  0
  161.4640  203.8700  150.6200 N   0  0  0  0  0  0  0  0  0  0  0  0
  163.2880  207.4940  148.2870 O   0  0  0  0  0  0  0  0  0  0  0  0
  161.0470  203.7050  149.2210 C   0  0  1  0  0  3  0  0  0  0  0  0
  160.2550  204.8700  148.5910 C   0  0  0  0  0  2  0  0  0  0  0  0
  162.0720  201.6590  148.2270 O   0  0  0  0  0  1  0  0  0  0  0  0
  162.0810  203.0400  148.3600 C   0  0  0  0  0  0  0  0  0  0  0  0
  162.9640  203.7120  147.7610 O   0  0  0  0  0  0  0  0  0  0  0  0
  160.0400  203.4930  151.6040 S   0  0  0  0  0  0  0  0  0  0  0  0
  160.4400  201.7220  151.6180 C   0  0  0  0  0  2  0  0  0  0  0  0
  159.5770  201.0070  150.5960 C   0  0  0  0  0  1  0  0  0  0  0  0
  160.3160  206.8710  147.0050 C   0  0  0  0  0  2  0  0  0  0  0  0
  159.8840  206.2840  145.6650 C   0  0  0  0  0  2  0  0  0  0  0  0
  161.1000  205.9370  144.8210 C   0  0  0  0  0  2  0  0  0  0  0  0
  161.2780  204.4610  144.7880 C   0  0  0  0  0  0  0  0  0  0  0  0
  162.3180  203.9440  145.2960 O   0  0  0  0  0  0  0  0  0  0  0  0
  160.2530  203.6430  144.2120 N   0  0  0  0  0  0  0  0  0  0  0  0
  159.6760  201.5930  146.7650 C   0  0  0  0  0  1  0  0  0  0  0  0
  159.2650  201.1410  144.4930 O   0  0  0  0  0  0  0  0  0  0  0  0
  160.0290  202.4270  144.5950 C   0  0  0  0  0  0  0  0  0  0  0  0
  160.2720  201.3350  145.3990 C   0  0  1  0  0  3  0  0  0  0  0  0
  158.6270  212.8370  157.2520 O   0  0  0  0  0  0  0  0  0  0  0  0
  158.5990  213.9520  156.4120 C   0  0  1  0  0  3  0  0  0  0  0  0
  159.9430  214.2030  155.9050 N   0  0  0  0  0  1  0  0  0  0  0  0
  157.7410  213.7170  155.3380 O   0  0  0  0  0  1  0  0  0  0  0  0
  1 12  1  0  0  0  0
  2  6  2  0  0  0  0
  3  5  1  0  0  0  0
  4  9  1  0  0  0  0
  5  1  1  6  0  0  0
  5  7  1  0  0  0  0
  6  3  1  0  0  0  0
  7  8  1  0  0  0  0
  9  5  1  0  0  0  0
  9 10  2  0  0  0  0
 11 37  1  6  0  0  0
 11  6  1  0  0  0  0
 11  4  1  0  0  0  0
 12 14  1  0  0  0  0
 13  2  2  0  0  0  0
 14  8  1  0  0  0  0
 14 65  1  1  0  0  0
 15 20  1  0  0  0  0
 17 13  1  1  0  0  0
 18 21  1  0  0  0  0
 18 15  1  1  0  0  0
 19 22  1  6  0  0  0
 19 17  1  0  0  0  0
 20 17  1  0  0  0  0
 20 16  2  0  0  0  0
 21 22  1  6  0  0  0
 21 19  1  0  0  0  0
 23 24  1  6  0  0  0
 23 18  1  0  0  0  0
 23 21  1  0  0  0  0
 25 24  1  0  0  0  0
 26 25  1  0  0  0  0
 27 32  1  6  0  0  0
 27 30  1  0  0  0  0
 27 31  1  0  0  0  0
 30 29  1  6  0  0  0
 30 28  1  0  0  0  0
 30 31  1  0  0  0  0
 31 26  1  1  0  0  0
 33 34  1  0  0  0  0
 33 32  1  0  0  0  0
 35 33  2  0  0  0  0
 37 36  1  6  0  0  0
 39 38  1  6  0  0  0
 39 37  1  0  0  0  0
 40 46  2  6  0  0  0
 40 39  1  0  0  0  0
 40 42  1  0  0  0  0
 42 43  1  0  0  0  0
 43 41  1  1  0  0  0
 44 55  1  1  0  0  0
 44 48  1  0  0  0  0
 44 40  1  0  0  0  0
 45 43  1  0  0  0  0
 45 52  1  0  0  0  0
 47 50  1  6  0  0  0
 47 45  1  0  0  0  0
 48 47  1  0  0  0  0
 49 50  1  0  0  0  0
 51 50  2  0  0  0  0
 52 53  1  0  0  0  0
 54 53  1  0  0  0  0
 56 55  1  0  0  0  0
 57 56  1  0  0  0  0
 58 57  1  0  0  0  0
 58 59  2  0  0  0  0
 60 63  2  0  0  0  0
 60 58  1  0  0  0  0
 62 63  1  0  0  0  0
 62 64  1  0  0  0  0
 63 64  1  0  0  0  0
 64 61  1  1  0  0  0
 66 68  1  6  0  0  0
 66 65  1  0  0  0  0
 67 66  1  0  0  0  0
M  END
>  <MODEL>
4

>  <REMARK>
 VINA RESULT:       0.1      2.008      2.682
  Name = 
  20 active torsions:
  status: ('A' for Active; 'I' for Inactive)
    1  A    between atoms: N_1  and  C_10
    2  A    between atoms: O_2  and  C_44
    3  A    between atoms: O_2  and  C_68
    4  A    between atoms: P_4  and  C_65
    5  A    between atoms: C_5  and  C_15
    6  A    between atoms: C_7  and  C_28
    7  A    between atoms: C_7  and  C_38
    8  A    between atoms: C_9  and  C_64
    9  A    between atoms: C_10  and  C_20
   10  A    between atoms: O_11  and  C_44
   11  A    between atoms: O_11  and  C_62
   12  A    between atoms: C_14  and  O_42
   13  A    between atoms: C_15  and  C_27
   14  A    between atoms: C_16  and  S_32
   15  A    between atoms: C_20  and  C_28
   16  A    between atoms: S_32  and  N_43
   17  A    between atoms: O_42  and  C_66
   18  A    between atoms: C_47  and  C_59
   19  A    between atoms: C_47  and  C_65
   20  A    between atoms: C_49  and  C_52
                            x       y       z     vdW  Elec       q    Type
                         _______ _______ _______ _____ _____    ______ ____

>  <TORSDO>
F 20

$$$$
