=
 OpenBabel11072410563D

 42 46  0  0  1  0  0  0  0  0999 V2000
  160.4930  207.7250  155.2490 C   0  0  0  0  0  2  0  0  0  0  0  0
  160.0490  209.0810  154.6800 C   0  0  2  0  0  3  0  0  0  0  0  0
  161.5280  208.8410  152.6460 C   0  0  0  0  0  2  0  0  0  0  0  0
  161.4000  206.9310  154.2960 C   0  0  0  0  0  2  0  0  0  0  0  0
  161.1660  209.7120  153.8560 C   0  0  0  0  0  2  0  0  0  0  0  0
  161.1880  207.3510  152.8370 C   0  0  2  0  0  3  0  0  0  0  0  0
  162.6330  205.2920  152.5500 C   0  0  0  0  0  2  0  0  0  0  0  0
  160.5490  206.2800  145.0990 O   0  0  0  0  0  1  0  0  0  0  0  0
  161.5510  203.6540  145.0630 C   0  0  0  0  0  2  0  0  0  0  0  0
  162.1420  203.7520  147.5370 C   0  0  0  0  0  2  0  0  0  0  0  0
  160.2930  202.6940  150.5790 O   0  0  0  0  0  1  0  0  0  0  0  0
  161.3470  203.2480  149.8530 C   0  0  2  0  0  3  0  0  0  0  0  0
  162.8270  204.4790  145.1930 C   0  0  0  0  0  2  0  0  0  0  0  0
  159.7430  205.2850  151.5120 C   0  0  0  0  0  1  0  0  0  0  0  0
  160.7690  206.5830  149.5490 C   0  0  1  0  0  3  0  0  0  0  0  0
  161.9600  206.5980  148.5630 C   0  0  0  0  0  2  0  0  0  0  0  0
  159.4200  206.2870  148.8910 C   0  0  0  0  0  1  0  0  0  0  0  0
  161.7730  204.5270  146.2770 C   0  0  0  0  0  0  0  0  0  0  0  0
  161.6430  206.9630  147.1120 C   0  0  0  0  0  2  0  0  0  0  0  0
  161.9480  206.4500  151.8370 C   0  0  1  0  0  0  0  0  0  0  0  0
  160.9400  205.8260  146.3610 C   0  0  1  0  0  3  0  0  0  0  0  0
  161.9390  204.4900  150.5530 C   0  0  1  0  0  3  0  0  0  0  0  0
  160.9210  203.5180  148.4190 C   0  0  0  0  0  2  0  0  0  0  0  0
  161.0530  205.7190  150.8240 C   0  0  1  0  0  0  0  0  0  0  0  0
  162.9390  207.2040  151.1950 O   0  0  0  0  0  1  0  0  0  0  0  0
  162.6110  204.1380  151.7370 O   0  0  0  0  0  0  0  0  0  0  0  0
  159.6280  210.0240  155.7930 C   0  0  0  0  0  2  0  0  0  0  0  0
  160.1760  211.4220  155.5530 C   0  0  0  0  0  2  0  0  0  0  0  0
  159.1280  212.3420  155.4380 O   0  0  0  0  0  0  0  0  0  0  0  0
  159.3300  212.9640  154.2050 C   0  0  0  0  0  2  0  0  0  0  0  0
  158.4120  212.3460  153.1650 C   0  0  0  0  0  2  0  0  0  0  0  0
  157.7860  214.3560  148.7170 C   0  0  0  0  0  1  0  0  0  0  0  0
  158.4290  213.7460  149.8660 N   0  0  0  0  0  0  0  0  0  0  0  0
  159.7290  213.4270  149.9810 C   0  0  0  0  0  0  0  0  0  0  0  0
  157.7960  213.4090  150.9750 N   0  0  0  0  0  0  0  0  0  0  0  0
  159.9770  212.8570  151.2180 C   0  0  0  0  0  3  0  0  0  0  0  0
  158.7210  212.8840  151.8080 C   0  0  0  0  0  0  0  0  0  0  0  0
  160.6940  213.6440  148.9490 N   0  0  0  0  0  2  0  0  0  0  0  0
  160.9300  212.6680  147.8960 C   0  0  0  0  0  2  0  0  0  0  0  0
  163.2780  212.4110  148.1860 O   0  0  0  0  0  0  0  0  0  0  0  0
  162.1430  211.8680  148.2180 C   0  0  0  0  0  0  0  0  0  0  0  0
  162.0260  210.5270  148.5520 O   0  0  0  0  0  1  0  0  0  0  0  0
  2  1  1  0  0  0  0
  2 27  1  1  0  0  0
  3  5  1  0  0  0  0
  4  1  1  0  0  0  0
  5  2  1  0  0  0  0
  6  3  1  1  0  0  0
  6  4  1  0  0  0  0
  9 13  1  0  0  0  0
  9 18  1  0  0  0  0
 10 23  1  0  0  0  0
 12 22  1  0  0  0  0
 12 11  1  1  0  0  0
 13 18  1  0  0  0  0
 15 17  1  6  0  0  0
 15 24  1  0  0  0  0
 16 15  1  0  0  0  0
 18 21  1  0  0  0  0
 18 10  1  0  0  0  0
 19 16  1  0  0  0  0
 20 25  1  6  0  0  0
 20  7  1  0  0  0  0
 20  6  1  0  0  0  0
 21  8  1  6  0  0  0
 21 19  1  0  0  0  0
 22 24  1  0  0  0  0
 22 26  1  1  0  0  0
 23 12  1  0  0  0  0
 24 14  1  1  0  0  0
 24 20  1  0  0  0  0
 26  7  1  0  0  0  0
 28 27  1  0  0  0  0
 29 28  1  0  0  0  0
 30 29  1  0  0  0  0
 31 30  1  0  0  0  0
 32 33  1  0  0  0  0
 33 34  1  0  0  0  0
 33 35  1  0  0  0  0
 34 36  2  0  0  0  0
 35 37  2  0  0  0  0
 36 37  1  0  0  0  0
 37 31  1  0  0  0  0
 38 34  1  0  0  0  0
 39 41  1  0  0  0  0
 39 38  1  0  0  0  0
 40 41  2  0  0  0  0
 41 42  1  0  0  0  0
M  END
>  <MODEL>
1

>  <REMARK>
 VINA RESULT:      -5.6      0.000      0.000
  Name = 
  10 active torsions:
  status: ('A' for Active; 'I' for Inactive)
    1  A    between atoms: C_1  and  N_11
    2  A    between atoms: C_1  and  C_15
    3  A    between atoms: C_4  and  C_18
    4  A    between atoms: C_4  and  C_30
    5  A    between atoms: N_11  and  C_27
    6  A    between atoms: C_16  and  C_17
    7  A    between atoms: C_16  and  C_35
    8  A    between atoms: C_17  and  O_21
    9  A    between atoms: O_21  and  C_30
   10  A    between atoms: C_32  and  C_37
                            x       y       z     vdW  Elec       q    Type
                         _______ _______ _______ _____ _____    ______ ____

>  <TORSDO>
F 10

$$$$
=
 OpenBabel11072410563D

 42 46  0  0  1  0  0  0  0  0999 V2000
  162.3620  206.1810  152.3700 C   0  0  0  0  0  2  0  0  0  0  0  0
  162.4860  207.1830  151.2120 C   0  0  2  0  0  3  0  0  0  0  0  0
  160.7100  208.6970  152.1800 C   0  0  0  0  0  2  0  0  0  0  0  0
  161.4240  206.6570  153.4890 C   0  0  0  0  0  2  0  0  0  0  0  0
  161.1550  207.8820  150.9590 C   0  0  0  0  0  2  0  0  0  0  0  0
  161.2980  208.1840  153.5070 C   0  0  2  0  0  3  0  0  0  0  0  0
  161.1820  208.2980  156.0350 C   0  0  0  0  0  2  0  0  0  0  0  0
  156.0830  213.9690  154.3930 O   0  0  0  0  0  1  0  0  0  0  0  0
  156.6070  214.4480  157.1130 C   0  0  0  0  0  2  0  0  0  0  0  0
  158.1800  212.4510  157.2530 C   0  0  0  0  0  2  0  0  0  0  0  0
  161.8650  212.1590  156.8950 O   0  0  0  0  0  1  0  0  0  0  0  0
  160.5600  211.7050  157.0890 C   0  0  2  0  0  3  0  0  0  0  0  0
  155.7430  213.1920  157.1720 C   0  0  0  0  0  2  0  0  0  0  0  0
  161.8210  210.8320  154.4210 C   0  0  0  0  0  1  0  0  0  0  0  0
  159.2810  210.8690  154.0540 C   0  0  1  0  0  3  0  0  0  0  0  0
  157.9240  210.7190  154.7780 C   0  0  0  0  0  2  0  0  0  0  0  0
  159.5630  212.2860  153.5470 C   0  0  0  0  0  1  0  0  0  0  0  0
  157.0820  213.1650  156.4700 C   0  0  0  0  0  0  0  0  0  0  0  0
  156.8170  211.6930  154.3700 C   0  0  0  0  0  2  0  0  0  0  0  0
  160.5100  208.7080  154.7300 C   0  0  1  0  0  0  0  0  0  0  0  0
  157.0420  213.1040  154.9260 C   0  0  1  0  0  3  0  0  0  0  0  0
  160.3090  210.3540  156.3850 C   0  0  1  0  0  3  0  0  0  0  0  0
  159.5590  212.7790  156.6940 C   0  0  0  0  0  2  0  0  0  0  0  0
  160.4670  210.2390  154.8580 C   0  0  1  0  0  0  0  0  0  0  0  0
  159.2220  208.1570  154.7210 O   0  0  0  0  0  1  0  0  0  0  0  0
  161.0280  209.3150  157.0010 O   0  0  0  0  0  0  0  0  0  0  0  0
  162.9600  206.4920  149.9460 C   0  0  0  0  0  2  0  0  0  0  0  0
  162.0160  206.7790  148.7880 C   0  0  0  0  0  2  0  0  0  0  0  0
  161.9510  205.6760  147.9300 O   0  0  0  0  0  0  0  0  0  0  0  0
  162.2880  206.1780  146.6720 C   0  0  0  0  0  2  0  0  0  0  0  0
  161.3000  205.6690  145.6380 C   0  0  0  0  0  2  0  0  0  0  0  0
  159.8030  201.0740  144.7150 C   0  0  0  0  0  1  0  0  0  0  0  0
  160.4160  202.2060  145.3850 N   0  0  0  0  0  0  0  0  0  0  0  0
  161.0430  202.1920  146.5730 C   0  0  0  0  0  0  0  0  0  0  0  0
  160.4280  203.4330  144.8990 N   0  0  0  0  0  0  0  0  0  0  0  0
  161.4950  203.4600  146.8940 C   0  0  0  0  0  3  0  0  0  0  0  0
  161.0900  204.2010  145.7920 C   0  0  0  0  0  0  0  0  0  0  0  0
  161.1920  201.0190  147.3760 N   0  0  0  0  0  2  0  0  0  0  0  0
  161.3750  201.0900  148.8180 C   0  0  0  0  0  2  0  0  0  0  0  0
  159.0570  201.2820  149.3240 O   0  0  0  0  0  0  0  0  0  0  0  0
  160.2090  201.7770  149.4370 C   0  0  0  0  0  0  0  0  0  0  0  0
  160.3880  202.9600  150.1380 O   0  0  0  0  0  1  0  0  0  0  0  0
  1  4  1  0  0  0  0
  2 27  1  6  0  0  0
  2  1  1  0  0  0  0
  4  6  1  0  0  0  0
  5  2  1  0  0  0  0
  5  3  1  0  0  0  0
  6  3  1  6  0  0  0
  6 20  1  0  0  0  0
  7 26  1  0  0  0  0
  9 13  1  0  0  0  0
 12 11  1  6  0  0  0
 15 17  1  1  0  0  0
 15 16  1  0  0  0  0
 15 24  1  0  0  0  0
 18  9  1  0  0  0  0
 18 13  1  0  0  0  0
 18 10  1  0  0  0  0
 19 16  1  0  0  0  0
 19 21  1  0  0  0  0
 20 25  1  6  0  0  0
 20 24  1  0  0  0  0
 20  7  1  0  0  0  0
 21  8  1  1  0  0  0
 21 18  1  0  0  0  0
 22 26  1  1  0  0  0
 22 12  1  0  0  0  0
 23 12  1  0  0  0  0
 23 10  1  0  0  0  0
 24 14  1  6  0  0  0
 24 22  1  0  0  0  0
 28 27  1  0  0  0  0
 29 28  1  0  0  0  0
 30 29  1  0  0  0  0
 31 37  1  0  0  0  0
 31 30  1  0  0  0  0
 32 33  1  0  0  0  0
 33 34  1  0  0  0  0
 34 36  2  0  0  0  0
 34 38  1  0  0  0  0
 35 33  1  0  0  0  0
 35 37  2  0  0  0  0
 37 36  1  0  0  0  0
 38 39  1  0  0  0  0
 39 41  1  0  0  0  0
 40 41  2  0  0  0  0
 41 42  1  0  0  0  0
M  END
>  <MODEL>
2

>  <REMARK>
 VINA RESULT:      -5.1      4.022      9.984
  Name = 
  10 active torsions:
  status: ('A' for Active; 'I' for Inactive)
    1  A    between atoms: C_1  and  N_11
    2  A    between atoms: C_1  and  C_15
    3  A    between atoms: C_4  and  C_18
    4  A    between atoms: C_4  and  C_30
    5  A    between atoms: N_11  and  C_27
    6  A    between atoms: C_16  and  C_17
    7  A    between atoms: C_16  and  C_35
    8  A    between atoms: C_17  and  O_21
    9  A    between atoms: O_21  and  C_30
   10  A    between atoms: C_32  and  C_37
                            x       y       z     vdW  Elec       q    Type
                         _______ _______ _______ _____ _____    ______ ____

>  <TORSDO>
F 10

$$$$
=
 OpenBabel11072410563D

 42 46  0  0  1  0  0  0  0  0999 V2000
  160.6540  207.9700  155.2870 C   0  0  0  0  0  2  0  0  0  0  0  0
  159.9940  209.1980  154.6440 C   0  0  2  0  0  3  0  0  0  0  0  0
  161.2950  208.9190  152.4970 C   0  0  0  0  0  2  0  0  0  0  0  0
  161.5610  207.1900  154.3220 C   0  0  0  0  0  2  0  0  0  0  0  0
  160.9420  209.8640  153.6520 C   0  0  0  0  0  2  0  0  0  0  0  0
  161.1630  207.4280  152.8610 C   0  0  2  0  0  3  0  0  0  0  0  0
  162.6270  205.3780  152.6030 C   0  0  0  0  0  2  0  0  0  0  0  0
  160.5470  206.2480  145.1360 O   0  0  0  0  0  1  0  0  0  0  0  0
  161.5720  203.6310  145.1360 C   0  0  0  0  0  2  0  0  0  0  0  0
  162.1580  203.7670  147.6100 C   0  0  0  0  0  2  0  0  0  0  0  0
  160.3140  202.7330  150.6630 O   0  0  0  0  0  1  0  0  0  0  0  0
  161.3640  203.2870  149.9320 C   0  0  2  0  0  3  0  0  0  0  0  0
  162.8410  204.4690  145.2580 C   0  0  0  0  0  2  0  0  0  0  0  0
  159.7390  205.3310  151.5600 C   0  0  0  0  0  1  0  0  0  0  0  0
  160.7570  206.6120  149.5820 C   0  0  1  0  0  3  0  0  0  0  0  0
  161.9480  206.6250  148.5980 C   0  0  0  0  0  2  0  0  0  0  0  0
  159.4110  206.2950  148.9260 C   0  0  0  0  0  1  0  0  0  0  0  0
  161.7850  204.5220  146.3390 C   0  0  0  0  0  0  0  0  0  0  0  0
  161.6310  206.9670  147.1410 C   0  0  0  0  0  2  0  0  0  0  0  0
  161.9330  206.5210  151.8730 C   0  0  1  0  0  0  0  0  0  0  0  0
  160.9390  205.8150  146.4050 C   0  0  1  0  0  3  0  0  0  0  0  0
  161.9440  204.5440  150.6160 C   0  0  1  0  0  3  0  0  0  0  0  0
  160.9390  203.5340  148.4930 C   0  0  0  0  0  2  0  0  0  0  0  0
  161.0460  205.7680  150.8690 C   0  0  1  0  0  0  0  0  0  0  0  0
  162.9180  207.2750  151.2230 O   0  0  0  0  0  1  0  0  0  0  0  0
  162.6160  204.2140  151.8060 O   0  0  0  0  0  0  0  0  0  0  0  0
  159.5640  210.1990  155.7030 C   0  0  0  0  0  2  0  0  0  0  0  0
  160.7730  210.8120  156.3910 C   0  0  0  0  0  2  0  0  0  0  0  0
  160.7160  212.2080  156.3200 O   0  0  0  0  0  0  0  0  0  0  0  0
  159.3540  212.5100  156.2750 C   0  0  0  0  0  2  0  0  0  0  0  0
  159.1630  213.9400  155.8000 C   0  0  0  0  0  2  0  0  0  0  0  0
  154.9530  214.1200  153.2600 C   0  0  0  0  0  1  0  0  0  0  0  0
  156.3730  214.0500  153.5560 N   0  0  0  0  0  0  0  0  0  0  0  0
  157.3730  213.9590  152.6650 C   0  0  0  0  0  0  0  0  0  0  0  0
  156.8730  214.0580  154.7770 N   0  0  0  0  0  0  0  0  0  0  0  0
  158.5940  213.9070  153.3160 C   0  0  0  0  0  3  0  0  0  0  0  0
  158.2160  213.9880  154.6490 C   0  0  0  0  0  0  0  0  0  0  0  0
  157.1740  213.9080  151.2500 N   0  0  0  0  0  2  0  0  0  0  0  0
  158.2820  213.7550  150.3200 C   0  0  0  0  0  2  0  0  0  0  0  0
  156.5150  213.4400  148.7580 O   0  0  0  0  0  1  0  0  0  0  0  0
  157.7570  213.4540  148.9610 C   0  0  0  0  0  0  0  0  0  0  0  0
  158.6320  213.1870  147.9180 O   0  0  0  0  0  0  0  0  0  0  0  0
  2  1  1  0  0  0  0
  2 27  1  1  0  0  0
  3  5  1  0  0  0  0
  4  1  1  0  0  0  0
  5  2  1  0  0  0  0
  6  3  1  6  0  0  0
  6  4  1  0  0  0  0
  9 13  1  0  0  0  0
  9 18  1  0  0  0  0
 10 23  1  0  0  0  0
 12 22  1  0  0  0  0
 12 11  1  1  0  0  0
 13 18  1  0  0  0  0
 15 17  1  6  0  0  0
 15 24  1  0  0  0  0
 16 15  1  0  0  0  0
 18 21  1  0  0  0  0
 18 10  1  0  0  0  0
 19 16  1  0  0  0  0
 20 25  1  6  0  0  0
 20  7  1  0  0  0  0
 20  6  1  0  0  0  0
 21  8  1  6  0  0  0
 21 19  1  0  0  0  0
 22 24  1  0  0  0  0
 22 26  1  1  0  0  0
 23 12  1  0  0  0  0
 24 14  1  1  0  0  0
 24 20  1  0  0  0  0
 26  7  1  0  0  0  0
 27 28  1  0  0  0  0
 29 28  1  0  0  0  0
 30 29  1  0  0  0  0
 31 30  1  0  0  0  0
 32 33  1  0  0  0  0
 33 35  1  0  0  0  0
 34 36  2  0  0  0  0
 34 33  1  0  0  0  0
 36 37  1  0  0  0  0
 37 35  2  0  0  0  0
 37 31  1  0  0  0  0
 38 34  1  0  0  0  0
 39 38  1  0  0  0  0
 40 41  1  0  0  0  0
 41 39  1  0  0  0  0
 42 41  2  0  0  0  0
M  END
>  <MODEL>
3

>  <REMARK>
 VINA RESULT:      -4.6      1.700      2.353
  Name = 
  10 active torsions:
  status: ('A' for Active; 'I' for Inactive)
    1  A    between atoms: C_1  and  N_11
    2  A    between atoms: C_1  and  C_15
    3  A    between atoms: C_4  and  C_18
    4  A    between atoms: C_4  and  C_30
    5  A    between atoms: N_11  and  C_27
    6  A    between atoms: C_16  and  C_17
    7  A    between atoms: C_16  and  C_35
    8  A    between atoms: C_17  and  O_21
    9  A    between atoms: O_21  and  C_30
   10  A    between atoms: C_32  and  C_37
                            x       y       z     vdW  Elec       q    Type
                         _______ _______ _______ _____ _____    ______ ____

>  <TORSDO>
F 10

$$$$
=
 OpenBabel11072410563D

 42 46  0  0  1  0  0  0  0  0999 V2000
  160.4220  209.9190  152.7640 C   0  0  0  0  0  2  0  0  0  0  0  0
  160.5730  209.6420  154.2670 C   0  0  2  0  0  3  0  0  0  0  0  0
  161.1470  207.2130  153.8780 C   0  0  0  0  0  2  0  0  0  0  0  0
  160.8170  208.7260  151.8810 C   0  0  0  0  0  2  0  0  0  0  0  0
  160.2090  208.1970  154.5880 C   0  0  0  0  0  2  0  0  0  0  0  0
  161.7920  207.7900  152.6040 C   0  0  2  0  0  3  0  0  0  0  0  0
  162.8930  205.5120  152.4990 C   0  0  0  0  0  2  0  0  0  0  0  0
  160.5720  206.0100  145.0690 O   0  0  0  0  0  1  0  0  0  0  0  0
  161.1630  203.2710  145.2940 C   0  0  0  0  0  2  0  0  0  0  0  0
  161.8990  203.5400  147.7170 C   0  0  0  0  0  2  0  0  0  0  0  0
  160.0830  203.1140  150.9280 O   0  0  0  0  0  1  0  0  0  0  0  0
  161.1670  203.4170  150.1040 C   0  0  2  0  0  3  0  0  0  0  0  0
  162.5540  203.8970  145.2810 C   0  0  0  0  0  2  0  0  0  0  0  0
  159.9820  205.8430  151.5790 C   0  0  0  0  0  1  0  0  0  0  0  0
  161.0810  206.7490  149.4440 C   0  0  1  0  0  3  0  0  0  0  0  0
  162.2040  206.4730  148.4180 C   0  0  0  0  0  2  0  0  0  0  0  0
  159.6680  206.5970  148.8760 C   0  0  0  0  0  1  0  0  0  0  0  0
  161.5820  204.2240  146.3910 C   0  0  0  0  0  0  0  0  0  0  0  0
  161.8660  206.7250  146.9470 C   0  0  0  0  0  2  0  0  0  0  0  0
  162.3520  206.6800  151.6850 C   0  0  1  0  0  0  0  0  0  0  0  0
  160.9590  205.6380  146.3590 C   0  0  1  0  0  3  0  0  0  0  0  0
  161.9760  204.6190  150.6350 C   0  0  1  0  0  3  0  0  0  0  0  0
  160.7080  203.5940  148.6660 C   0  0  0  0  0  2  0  0  0  0  0  0
  161.3020  205.9920  150.7970 C   0  0  1  0  0  0  0  0  0  0  0  0
  163.4080  207.1970  150.9240 O   0  0  0  0  0  1  0  0  0  0  0  0
  162.6520  204.2950  151.8240 O   0  0  0  0  0  0  0  0  0  0  0  0
  159.7100  210.5890  155.0820 C   0  0  0  0  0  2  0  0  0  0  0  0
  158.4660  210.9910  154.3060 C   0  0  0  0  0  2  0  0  0  0  0  0
  158.0230  212.2520  154.7180 O   0  0  0  0  0  0  0  0  0  0  0  0
  158.9820  213.1450  154.2350 C   0  0  0  0  0  2  0  0  0  0  0  0
  158.3110  214.1890  153.3600 C   0  0  0  0  0  2  0  0  0  0  0  0
  160.8610  212.9670  149.3330 C   0  0  0  0  0  1  0  0  0  0  0  0
  159.7830  213.4470  150.1790 N   0  0  0  0  0  0  0  0  0  0  0  0
  158.6030  213.9400  149.7700 C   0  0  0  0  0  0  0  0  0  0  0  0
  159.8330  213.4670  151.4970 N   0  0  0  0  0  0  0  0  0  0  0  0
  157.8300  214.3020  150.8590 C   0  0  0  0  0  3  0  0  0  0  0  0
  158.6540  213.9680  151.9250 C   0  0  0  0  0  0  0  0  0  0  0  0
  158.2320  214.0730  148.3960 N   0  0  0  0  0  2  0  0  0  0  0  0
  157.6530  212.9710  147.6420 C   0  0  0  0  0  2  0  0  0  0  0  0
  159.2600  212.3090  146.0160 O   0  0  0  0  0  1  0  0  0  0  0  0
  158.2100  212.9600  146.2630 C   0  0  0  0  0  0  0  0  0  0  0  0
  157.5780  213.6640  145.2490 O   0  0  0  0  0  0  0  0  0  0  0  0
  1  2  1  0  0  0  0
  2  5  1  0  0  0  0
  2 27  1  1  0  0  0
  3  5  1  0  0  0  0
  4  1  1  0  0  0  0
  6  4  1  6  0  0  0
  6  3  1  0  0  0  0
  9 18  1  0  0  0  0
 10 23  1  0  0  0  0
 12 22  1  0  0  0  0
 12 11  1  1  0  0  0
 13  9  1  0  0  0  0
 13 18  1  0  0  0  0
 15 17  1  6  0  0  0
 15 24  1  0  0  0  0
 16 15  1  0  0  0  0
 18 10  1  0  0  0  0
 19 16  1  0  0  0  0
 20 25  1  6  0  0  0
 20  7  1  0  0  0  0
 20  6  1  0  0  0  0
 21  8  1  6  0  0  0
 21 18  1  0  0  0  0
 21 19  1  0  0  0  0
 22 24  1  0  0  0  0
 22 26  1  1  0  0  0
 23 12  1  0  0  0  0
 24 14  1  1  0  0  0
 24 20  1  0  0  0  0
 26  7  1  0  0  0  0
 28 29  1  0  0  0  0
 28 27  1  0  0  0  0
 30 29  1  0  0  0  0
 31 30  1  0  0  0  0
 32 33  1  0  0  0  0
 33 35  1  0  0  0  0
 34 33  1  0  0  0  0
 34 36  2  0  0  0  0
 35 37  2  0  0  0  0
 36 37  1  0  0  0  0
 37 31  1  0  0  0  0
 38 34  1  0  0  0  0
 39 38  1  0  0  0  0
 40 41  1  0  0  0  0
 41 39  1  0  0  0  0
 42 41  2  0  0  0  0
M  END
>  <MODEL>
4

>  <REMARK>
 VINA RESULT:      -3.9      1.573      2.019
  Name = 
  10 active torsions:
  status: ('A' for Active; 'I' for Inactive)
    1  A    between atoms: C_1  and  N_11
    2  A    between atoms: C_1  and  C_15
    3  A    between atoms: C_4  and  C_18
    4  A    between atoms: C_4  and  C_30
    5  A    between atoms: N_11  and  C_27
    6  A    between atoms: C_16  and  C_17
    7  A    between atoms: C_16  and  C_35
    8  A    between atoms: C_17  and  O_21
    9  A    between atoms: O_21  and  C_30
   10  A    between atoms: C_32  and  C_37
                            x       y       z     vdW  Elec       q    Type
                         _______ _______ _______ _____ _____    ______ ____

>  <TORSDO>
F 10

$$$$
=
 OpenBabel11072410563D

 42 46  0  0  1  0  0  0  0  0999 V2000
  161.5480  204.9990  151.9650 C   0  0  0  0  0  2  0  0  0  0  0  0
  161.8320  205.9380  150.7830 C   0  0  2  0  0  3  0  0  0  0  0  0
  160.6660  207.8810  151.8990 C   0  0  0  0  0  2  0  0  0  0  0  0
  160.9010  205.7070  153.1650 C   0  0  0  0  0  2  0  0  0  0  0  0
  160.7350  206.9890  150.6530 C   0  0  0  0  0  2  0  0  0  0  0  0
  161.2170  207.2070  153.1690 C   0  0  2  0  0  3  0  0  0  0  0  0
  161.5140  207.4340  155.6740 C   0  0  0  0  0  2  0  0  0  0  0  0
  157.3710  213.9230  154.4170 O   0  0  0  0  0  1  0  0  0  0  0  0
  158.3870  214.3910  156.9960 C   0  0  0  0  0  2  0  0  0  0  0  0
  159.5630  212.1320  157.0380 C   0  0  0  0  0  2  0  0  0  0  0  0
  163.0290  211.1170  156.1730 O   0  0  0  0  0  1  0  0  0  0  0  0
  161.7080  210.9320  156.5820 C   0  0  2  0  0  3  0  0  0  0  0  0
  157.3250  213.3290  157.2610 C   0  0  0  0  0  2  0  0  0  0  0  0
  162.3580  209.7340  153.8230 C   0  0  0  0  0  1  0  0  0  0  0  0
  159.8440  210.2510  153.8240 C   0  0  1  0  0  3  0  0  0  0  0  0
  158.6110  210.3940  154.7450 C   0  0  0  0  0  2  0  0  0  0  0  0
  160.3040  211.5660  153.1910 C   0  0  0  0  0  1  0  0  0  0  0  0
  158.5110  213.0170  156.3770 C   0  0  0  0  0  0  0  0  0  0  0  0
  157.6560  211.5490  154.4370 C   0  0  0  0  0  2  0  0  0  0  0  0
  160.7370  207.9180  154.4560 C   0  0  1  0  0  0  0  0  0  0  0  0
  158.2230  212.9090  154.8620 C   0  0  1  0  0  3  0  0  0  0  0  0
  161.1040  209.6320  156.0110 C   0  0  1  0  0  3  0  0  0  0  0  0
  160.8760  212.1660  156.2660 C   0  0  0  0  0  2  0  0  0  0  0  0
  161.0010  209.4320  154.4890 C   0  0  1  0  0  0  0  0  0  0  0  0
  159.3830  207.6280  154.6680 O   0  0  0  0  0  1  0  0  0  0  0  0
  161.7030  208.4960  156.5840 O   0  0  0  0  0  0  0  0  0  0  0  0
  161.9590  205.1560  149.4880 C   0  0  0  0  0  2  0  0  0  0  0  0
  161.6440  206.0380  148.2900 C   0  0  0  0  0  2  0  0  0  0  0  0
  162.6490  206.9950  148.1150 O   0  0  0  0  0  0  0  0  0  0  0  0
  161.9720  208.1780  147.8110 C   0  0  0  0  0  2  0  0  0  0  0  0
  162.2240  209.2050  148.9010 C   0  0  0  0  0  2  0  0  0  0  0  0
  162.9360  214.0050  148.0900 C   0  0  0  0  0  1  0  0  0  0  0  0
  162.3420  212.6810  148.0440 N   0  0  0  0  0  0  0  0  0  0  0  0
  161.2170  212.3300  147.4010 C   0  0  0  0  0  0  0  0  0  0  0  0
  162.8460  211.6250  148.6540 N   0  0  0  0  0  0  0  0  0  0  0  0
  160.9570  210.9830  147.5850 C   0  0  0  0  0  3  0  0  0  0  0  0
  162.0290  210.5860  148.3740 C   0  0  0  0  0  0  0  0  0  0  0  0
  160.4120  213.2450  146.6520 N   0  0  0  0  0  2  0  0  0  0  0  0
  159.0060  213.4640  146.9570 C   0  0  0  0  0  2  0  0  0  0  0  0
  158.4560  213.5990  144.6460 O   0  0  0  0  0  0  0  0  0  0  0  0
  158.1770  213.1130  145.7730 C   0  0  0  0  0  0  0  0  0  0  0  0
  157.0960  212.2540  145.9080 O   0  0  0  0  0  1  0  0  0  0  0  0
  1  4  1  0  0  0  0
  2 27  1  6  0  0  0
  2  1  1  0  0  0  0
  4  6  1  0  0  0  0
  5  2  1  0  0  0  0
  5  3  1  0  0  0  0
  6  3  1  6  0  0  0
  6 20  1  0  0  0  0
  7 26  1  0  0  0  0
  9 13  1  0  0  0  0
 12 11  1  6  0  0  0
 15 17  1  1  0  0  0
 15 24  1  0  0  0  0
 15 16  1  0  0  0  0
 18  9  1  0  0  0  0
 18 10  1  0  0  0  0
 18 13  1  0  0  0  0
 19 16  1  0  0  0  0
 19 21  1  0  0  0  0
 20 24  1  0  0  0  0
 20 25  1  1  0  0  0
 20  7  1  0  0  0  0
 21  8  1  1  0  0  0
 21 18  1  0  0  0  0
 22 12  1  0  0  0  0
 22 26  1  6  0  0  0
 23 12  1  0  0  0  0
 23 10  1  0  0  0  0
 24 14  1  6  0  0  0
 24 22  1  0  0  0  0
 28 27  1  0  0  0  0
 29 28  1  0  0  0  0
 30 29  1  0  0  0  0
 30 31  1  0  0  0  0
 33 32  1  0  0  0  0
 33 35  1  0  0  0  0
 34 36  2  0  0  0  0
 34 33  1  0  0  0  0
 36 37  1  0  0  0  0
 37 35  2  0  0  0  0
 37 31  1  0  0  0  0
 38 39  1  0  0  0  0
 38 34  1  0  0  0  0
 40 41  2  0  0  0  0
 41 42  1  0  0  0  0
 41 39  1  0  0  0  0
M  END
>  <MODEL>
5

>  <REMARK>
 VINA RESULT:      -3.6      2.607      7.910
  Name = 
  10 active torsions:
  status: ('A' for Active; 'I' for Inactive)
    1  A    between atoms: C_1  and  N_11
    2  A    between atoms: C_1  and  C_15
    3  A    between atoms: C_4  and  C_18
    4  A    between atoms: C_4  and  C_30
    5  A    between atoms: N_11  and  C_27
    6  A    between atoms: C_16  and  C_17
    7  A    between atoms: C_16  and  C_35
    8  A    between atoms: C_17  and  O_21
    9  A    between atoms: O_21  and  C_30
   10  A    between atoms: C_32  and  C_37
                            x       y       z     vdW  Elec       q    Type
                         _______ _______ _______ _____ _____    ______ ____

>  <TORSDO>
F 10

$$$$
=
 OpenBabel11072410563D

 42 46  0  0  1  0  0  0  0  0999 V2000
  161.5360  204.9420  151.9480 C   0  0  0  0  0  2  0  0  0  0  0  0
  161.7680  205.8680  150.7450 C   0  0  2  0  0  3  0  0  0  0  0  0
  160.5390  207.7860  151.8380 C   0  0  0  0  0  2  0  0  0  0  0  0
  160.8770  205.6480  153.1430 C   0  0  0  0  0  2  0  0  0  0  0  0
  160.6290  206.8720  150.6090 C   0  0  0  0  0  2  0  0  0  0  0  0
  161.1320  207.1600  153.1130 C   0  0  2  0  0  3  0  0  0  0  0  0
  161.3500  207.3410  155.6300 C   0  0  0  0  0  2  0  0  0  0  0  0
  157.5620  214.0330  154.3200 O   0  0  0  0  0  1  0  0  0  0  0  0
  158.5060  214.4210  156.9380 C   0  0  0  0  0  2  0  0  0  0  0  0
  159.5730  212.1090  156.9900 C   0  0  0  0  0  2  0  0  0  0  0  0
  163.0160  210.9420  156.2340 O   0  0  0  0  0  1  0  0  0  0  0  0
  161.6750  210.8150  156.5930 C   0  0  2  0  0  3  0  0  0  0  0  0
  157.3860  213.4070  157.1510 C   0  0  0  0  0  2  0  0  0  0  0  0
  162.3660  209.6220  153.8420 C   0  0  0  0  0  1  0  0  0  0  0  0
  159.8800  210.2560  153.7620 C   0  0  1  0  0  3  0  0  0  0  0  0
  158.6230  210.4460  154.6410 C   0  0  0  0  0  2  0  0  0  0  0  0
  160.4230  211.5560  153.1640 C   0  0  0  0  0  1  0  0  0  0  0  0
  158.5870  213.0500  156.3050 C   0  0  0  0  0  0  0  0  0  0  0  0
  157.7350  211.6490  154.3160 C   0  0  0  0  0  2  0  0  0  0  0  0
  160.6410  207.8760  154.3920 C   0  0  1  0  0  0  0  0  0  0  0  0
  158.3490  212.9750  154.7790 C   0  0  1  0  0  3  0  0  0  0  0  0
  161.0310  209.5510  155.9830 C   0  0  1  0  0  3  0  0  0  0  0  0
  160.9130  212.0900  156.2650 C   0  0  0  0  0  2  0  0  0  0  0  0
  160.9740  209.3750  154.4550 C   0  0  1  0  0  0  0  0  0  0  0  0
  159.2680  207.6480  154.5530 O   0  0  0  0  0  1  0  0  0  0  0  0
  161.5550  208.3820  156.5610 O   0  0  0  0  0  0  0  0  0  0  0  0
  161.9100  205.0660  149.4630 C   0  0  0  0  0  2  0  0  0  0  0  0
  161.4270  205.8700  148.2660 C   0  0  0  0  0  2  0  0  0  0  0  0
  162.3710  206.8430  147.9210 O   0  0  0  0  0  0  0  0  0  0  0  0
  161.7300  208.0630  148.1470 C   0  0  0  0  0  2  0  0  0  0  0  0
  162.6300  208.9670  148.9710 C   0  0  0  0  0  2  0  0  0  0  0  0
  162.3380  213.5580  147.2240 C   0  0  0  0  0  1  0  0  0  0  0  0
  162.1120  212.3940  148.0610 N   0  0  0  0  0  0  0  0  0  0  0  0
  161.3320  212.3310  149.1530 C   0  0  0  0  0  0  0  0  0  0  0  0
  162.6690  211.2150  147.8530 N   0  0  0  0  0  0  0  0  0  0  0  0
  161.3650  211.0580  149.6960 C   0  0  0  0  0  3  0  0  0  0  0  0
  162.2160  210.3920  148.8240 C   0  0  0  0  0  0  0  0  0  0  0  0
  160.5960  213.4430  149.6660 N   0  0  0  0  0  2  0  0  0  0  0  0
  159.5070  213.2750  150.6170 C   0  0  0  0  0  2  0  0  0  0  0  0
  157.1780  213.7600  150.6940 O   0  0  0  0  0  1  0  0  0  0  0  0
  158.2320  213.7380  150.0060 C   0  0  0  0  0  0  0  0  0  0  0  0
  158.2010  214.1460  148.6800 O   0  0  0  0  0  0  0  0  0  0  0  0
  1  4  1  0  0  0  0
  2 27  1  6  0  0  0
  2  1  1  0  0  0  0
  5  2  1  0  0  0  0
  5  3  1  0  0  0  0
  6  3  1  6  0  0  0
  6  4  1  0  0  0  0
  6 20  1  0  0  0  0
  7 26  1  0  0  0  0
  9 13  1  0  0  0  0
 12 11  1  6  0  0  0
 15 17  1  1  0  0  0
 15 24  1  0  0  0  0
 15 16  1  0  0  0  0
 18  9  1  0  0  0  0
 18 10  1  0  0  0  0
 18 13  1  0  0  0  0
 19 16  1  0  0  0  0
 19 21  1  0  0  0  0
 20 24  1  0  0  0  0
 20 25  1  1  0  0  0
 20  7  1  0  0  0  0
 21  8  1  1  0  0  0
 21 18  1  0  0  0  0
 22 26  1  1  0  0  0
 22 12  1  0  0  0  0
 23 12  1  0  0  0  0
 23 10  1  0  0  0  0
 24 14  1  6  0  0  0
 24 22  1  0  0  0  0
 28 27  1  0  0  0  0
 29 30  1  0  0  0  0
 29 28  1  0  0  0  0
 30 31  1  0  0  0  0
 32 33  1  0  0  0  0
 33 34  1  0  0  0  0
 34 38  1  0  0  0  0
 34 36  2  0  0  0  0
 35 33  1  0  0  0  0
 35 37  2  0  0  0  0
 37 31  1  0  0  0  0
 37 36  1  0  0  0  0
 38 39  1  0  0  0  0
 41 39  1  0  0  0  0
 41 40  1  0  0  0  0
 42 41  2  0  0  0  0
M  END
>  <MODEL>
6

>  <REMARK>
 VINA RESULT:      -3.2      2.392      7.865
  Name = 
  10 active torsions:
  status: ('A' for Active; 'I' for Inactive)
    1  A    between atoms: C_1  and  N_11
    2  A    between atoms: C_1  and  C_15
    3  A    between atoms: C_4  and  C_18
    4  A    between atoms: C_4  and  C_30
    5  A    between atoms: N_11  and  C_27
    6  A    between atoms: C_16  and  C_17
    7  A    between atoms: C_16  and  C_35
    8  A    between atoms: C_17  and  O_21
    9  A    between atoms: O_21  and  C_30
   10  A    between atoms: C_32  and  C_37
                            x       y       z     vdW  Elec       q    Type
                         _______ _______ _______ _____ _____    ______ ____

>  <TORSDO>
F 10

$$$$
=
 OpenBabel11072410563D

 42 46  0  0  1  0  0  0  0  0999 V2000
  161.7720  211.0950  150.7650 C   0  0  0  0  0  2  0  0  0  0  0  0
  161.3560  211.4890  149.3400 C   0  0  2  0  0  3  0  0  0  0  0  0
  162.3460  209.3880  148.3470 C   0  0  0  0  0  2  0  0  0  0  0  0
  162.3760  209.6860  150.8560 C   0  0  0  0  0  2  0  0  0  0  0  0
  162.3330  210.9210  148.3160 C   0  0  0  0  0  2  0  0  0  0  0  0
  161.9060  208.7970  149.6990 C   0  0  2  0  0  3  0  0  0  0  0  0
  162.7510  207.0210  151.2950 C   0  0  0  0  0  2  0  0  0  0  0  0
  160.5520  202.3550  145.4430 O   0  0  0  0  0  1  0  0  0  0  0  0
  160.8370  200.5200  147.5530 C   0  0  0  0  0  2  0  0  0  0  0  0
  161.5810  202.3500  149.1600 C   0  0  0  0  0  2  0  0  0  0  0  0
  159.7060  204.4240  151.6040 O   0  0  0  0  0  1  0  0  0  0  0  0
  160.8220  203.9840  150.8940 C   0  0  2  0  0  3  0  0  0  0  0  0
  162.2890  200.8540  147.2230 C   0  0  0  0  0  2  0  0  0  0  0  0
  159.9000  206.8290  150.1680 C   0  0  0  0  0  1  0  0  0  0  0  0
  161.1080  205.9000  148.1020 C   0  0  1  0  0  3  0  0  0  0  0  0
  162.2010  204.9040  147.6510 C   0  0  0  0  0  2  0  0  0  0  0  0
  159.6910  205.5000  147.6850 C   0  0  0  0  0  1  0  0  0  0  0  0
  161.3500  201.9340  147.7110 C   0  0  0  0  0  0  0  0  0  0  0  0
  161.9030  204.0810  146.3960 C   0  0  0  0  0  2  0  0  0  0  0  0
  162.3470  207.3230  149.8570 C   0  0  1  0  0  0  0  0  0  0  0  0
  160.8870  202.9630  146.6550 C   0  0  1  0  0  3  0  0  0  0  0  0
  161.7550  205.1500  150.5050 C   0  0  1  0  0  3  0  0  0  0  0  0
  160.3960  203.1390  149.7030 C   0  0  0  0  0  2  0  0  0  0  0  0
  161.2340  206.2910  149.6130 C   0  0  1  0  0  0  0  0  0  0  0  0
  163.4590  207.0820  149.0400 O   0  0  0  0  0  1  0  0  0  0  0  0
  162.3830  205.7020  151.6360 O   0  0  0  0  0  0  0  0  0  0  0  0
  161.2730  212.9990  149.1970 C   0  0  0  0  0  2  0  0  0  0  0  0
  159.9440  213.5190  149.7230 C   0  0  0  0  0  2  0  0  0  0  0  0
  160.1170  214.1040  150.9830 O   0  0  0  0  0  0  0  0  0  0  0  0
  158.8690  214.0020  151.6000 C   0  0  0  0  0  2  0  0  0  0  0  0
  158.5310  212.5400  151.8300 C   0  0  0  0  0  2  0  0  0  0  0  0
  160.0810  212.6140  156.4990 C   0  0  0  0  0  1  0  0  0  0  0  0
  159.7620  212.1280  155.1690 N   0  0  0  0  0  0  0  0  0  0  0  0
  159.9590  210.8840  154.7020 C   0  0  0  0  0  0  0  0  0  0  0  0
  159.2300  212.8730  154.2180 N   0  0  0  0  0  0  0  0  0  0  0  0
  159.5390  210.7910  153.3870 C   0  0  0  0  0  3  0  0  0  0  0  0
  159.0750  212.0760  153.1390 C   0  0  0  0  0  0  0  0  0  0  0  0
  160.5380  209.8290  155.4750 N   0  0  0  0  0  2  0  0  0  0  0  0
  161.2470  208.7190  154.8560 C   0  0  0  0  0  2  0  0  0  0  0  0
  159.5320  207.4210  155.8740 O   0  0  0  0  0  1  0  0  0  0  0  0
  160.4630  207.4660  155.0280 C   0  0  0  0  0  0  0  0  0  0  0  0
  160.7560  206.3490  154.2600 O   0  0  0  0  0  0  0  0  0  0  0  0
  1  4  1  0  0  0  0
  2 27  1  1  0  0  0
  2  1  1  0  0  0  0
  5  3  1  0  0  0  0
  5  2  1  0  0  0  0
  6  3  1  6  0  0  0
  6 20  1  0  0  0  0
  6  4  1  0  0  0  0
  7 26  1  0  0  0  0
  9 18  1  0  0  0  0
 10 23  1  0  0  0  0
 12 11  1  6  0  0  0
 13  9  1  0  0  0  0
 13 18  1  0  0  0  0
 15 17  1  1  0  0  0
 15 24  1  0  0  0  0
 16 15  1  0  0  0  0
 18 10  1  0  0  0  0
 19 21  1  0  0  0  0
 19 16  1  0  0  0  0
 20 25  1  6  0  0  0
 20  7  1  0  0  0  0
 21  8  1  6  0  0  0
 21 18  1  0  0  0  0
 22 12  1  0  0  0  0
 22 26  1  1  0  0  0
 23 12  1  0  0  0  0
 24 20  1  0  0  0  0
 24 14  1  1  0  0  0
 24 22  1  0  0  0  0
 27 28  1  0  0  0  0
 28 29  1  0  0  0  0
 29 30  1  0  0  0  0
 30 31  1  0  0  0  0
 31 37  1  0  0  0  0
 33 32  1  0  0  0  0
 34 33  1  0  0  0  0
 34 38  1  0  0  0  0
 35 33  1  0  0  0  0
 36 34  2  0  0  0  0
 37 36  1  0  0  0  0
 37 35  2  0  0  0  0
 39 41  1  0  0  0  0
 39 38  1  0  0  0  0
 41 40  1  0  0  0  0
 42 41  2  0  0  0  0
M  END
>  <MODEL>
7

>  <REMARK>
 VINA RESULT:      -2.7      2.402      4.623
  Name = 
  10 active torsions:
  status: ('A' for Active; 'I' for Inactive)
    1  A    between atoms: C_1  and  N_11
    2  A    between atoms: C_1  and  C_15
    3  A    between atoms: C_4  and  C_18
    4  A    between atoms: C_4  and  C_30
    5  A    between atoms: N_11  and  C_27
    6  A    between atoms: C_16  and  C_17
    7  A    between atoms: C_16  and  C_35
    8  A    between atoms: C_17  and  O_21
    9  A    between atoms: O_21  and  C_30
   10  A    between atoms: C_32  and  C_37
                            x       y       z     vdW  Elec       q    Type
                         _______ _______ _______ _____ _____    ______ ____

>  <TORSDO>
F 10

$$$$
=
 OpenBabel11072410563D

 42 46  0  0  1  0  0  0  0  0999 V2000
  161.1870  210.5760  152.0170 C   0  0  0  0  0  2  0  0  0  0  0  0
  160.8220  210.2620  153.4750 C   0  0  2  0  0  3  0  0  0  0  0  0
  160.8580  207.7690  153.0680 C   0  0  0  0  0  2  0  0  0  0  0  0
  161.5090  209.3250  151.1860 C   0  0  0  0  0  2  0  0  0  0  0  0
  160.0310  208.9620  153.5660 C   0  0  0  0  0  2  0  0  0  0  0  0
  161.9660  208.1620  152.0750 C   0  0  2  0  0  3  0  0  0  0  0  0
  163.0030  205.8540  152.1790 C   0  0  0  0  0  2  0  0  0  0  0  0
  160.5070  205.6590  144.7920 O   0  0  0  0  0  1  0  0  0  0  0  0
  161.0310  202.9420  145.2840 C   0  0  0  0  0  2  0  0  0  0  0  0
  161.8350  203.4340  147.6490 C   0  0  0  0  0  2  0  0  0  0  0  0
  160.0910  203.3910  150.9270 O   0  0  0  0  0  1  0  0  0  0  0  0
  161.1610  203.5770  150.0520 C   0  0  2  0  0  3  0  0  0  0  0  0
  162.4370  203.5220  145.1750 C   0  0  0  0  0  2  0  0  0  0  0  0
  160.0790  206.1750  151.2970 C   0  0  0  0  0  1  0  0  0  0  0  0
  161.1480  206.8250  149.0550 C   0  0  1  0  0  3  0  0  0  0  0  0
  162.2360  206.4140  148.0380 C   0  0  0  0  0  2  0  0  0  0  0  0
  159.7170  206.6580  148.5380 C   0  0  0  0  0  1  0  0  0  0  0  0
  161.5020  203.9880  146.2670 C   0  0  0  0  0  0  0  0  0  0  0  0
  161.8670  206.5240  146.5570 C   0  0  0  0  0  2  0  0  0  0  0  0
  162.4730  206.9480  151.2620 C   0  0  1  0  0  0  0  0  0  0  0  0
  160.9170  205.4100  146.1040 C   0  0  1  0  0  3  0  0  0  0  0  0
  162.0160  204.8030  150.4380 C   0  0  1  0  0  3  0  0  0  0  0  0
  160.6700  203.6200  148.6140 C   0  0  0  0  0  2  0  0  0  0  0  0
  161.3820  206.2050  150.4740 C   0  0  1  0  0  0  0  0  0  0  0  0
  163.5220  207.3540  150.4280 O   0  0  0  0  0  1  0  0  0  0  0  0
  162.7130  204.5830  151.6390 O   0  0  0  0  0  0  0  0  0  0  0  0
  160.0250  211.3990  154.0910 C   0  0  0  0  0  2  0  0  0  0  0  0
  159.8330  212.5290  153.0920 C   0  0  0  0  0  2  0  0  0  0  0  0
  158.5200  212.5330  152.6080 O   0  0  0  0  0  0  0  0  0  0  0  0
  158.4940  213.5450  151.6470 C   0  0  0  0  0  2  0  0  0  0  0  0
  159.7730  213.5070  150.8310 C   0  0  0  0  0  2  0  0  0  0  0  0
  157.2800  214.4530  146.6960 C   0  0  0  0  0  1  0  0  0  0  0  0
  158.3850  214.1860  147.5980 N   0  0  0  0  0  0  0  0  0  0  0  0
  159.6820  214.0750  147.2670 C   0  0  0  0  0  0  0  0  0  0  0  0
  158.2490  214.0030  148.8990 N   0  0  0  0  0  0  0  0  0  0  0  0
  160.4450  213.8110  148.3910 C   0  0  0  0  0  3  0  0  0  0  0  0
  159.4870  213.7910  149.3950 C   0  0  0  0  0  0  0  0  0  0  0  0
  160.1720  214.2020  145.9300 N   0  0  0  0  0  2  0  0  0  0  0  0
  159.5290  213.5390  144.8060 C   0  0  0  0  0  2  0  0  0  0  0  0
  160.0610  211.5770  143.5690 O   0  0  0  0  0  0  0  0  0  0  0  0
  160.4880  212.6030  144.1600 C   0  0  0  0  0  0  0  0  0  0  0  0
  161.8510  212.8580  144.2080 O   0  0  0  0  0  1  0  0  0  0  0  0
  1  2  1  0  0  0  0
  2  5  1  0  0  0  0
  2 27  1  6  0  0  0
  3  5  1  0  0  0  0
  4  1  1  0  0  0  0
  6  4  1  6  0  0  0
  6  3  1  0  0  0  0
  9 18  1  0  0  0  0
 10 23  1  0  0  0  0
 12 22  1  0  0  0  0
 12 11  1  1  0  0  0
 13  9  1  0  0  0  0
 13 18  1  0  0  0  0
 15 17  1  6  0  0  0
 15 24  1  0  0  0  0
 16 15  1  0  0  0  0
 18 10  1  0  0  0  0
 19 16  1  0  0  0  0
 20 25  1  6  0  0  0
 20  6  1  0  0  0  0
 20  7  1  0  0  0  0
 21  8  1  6  0  0  0
 21 18  1  0  0  0  0
 21 19  1  0  0  0  0
 22 24  1  0  0  0  0
 22 26  1  1  0  0  0
 23 12  1  0  0  0  0
 24 20  1  0  0  0  0
 24 14  1  1  0  0  0
 26  7  1  0  0  0  0
 28 27  1  0  0  0  0
 29 28  1  0  0  0  0
 30 29  1  0  0  0  0
 31 30  1  0  0  0  0
 32 33  1  0  0  0  0
 33 35  1  0  0  0  0
 34 33  1  0  0  0  0
 34 36  2  0  0  0  0
 35 37  2  0  0  0  0
 36 37  1  0  0  0  0
 37 31  1  0  0  0  0
 38 34  1  0  0  0  0
 39 38  1  0  0  0  0
 40 41  2  0  0  0  0
 41 42  1  0  0  0  0
 41 39  1  0  0  0  0
M  END
>  <MODEL>
8

>  <REMARK>
 VINA RESULT:      -2.7      1.780      2.328
  Name = 
  10 active torsions:
  status: ('A' for Active; 'I' for Inactive)
    1  A    between atoms: C_1  and  N_11
    2  A    between atoms: C_1  and  C_15
    3  A    between atoms: C_4  and  C_18
    4  A    between atoms: C_4  and  C_30
    5  A    between atoms: N_11  and  C_27
    6  A    between atoms: C_16  and  C_17
    7  A    between atoms: C_16  and  C_35
    8  A    between atoms: C_17  and  O_21
    9  A    between atoms: O_21  and  C_30
   10  A    between atoms: C_32  and  C_37
                            x       y       z     vdW  Elec       q    Type
                         _______ _______ _______ _____ _____    ______ ____

>  <TORSDO>
F 10

$$$$
=
 OpenBabel11072410563D

 42 46  0  0  1  0  0  0  0  0999 V2000
  162.3550  204.3820  146.6850 C   0  0  0  0  0  2  0  0  0  0  0  0
  162.1700  205.6610  145.8570 C   0  0  2  0  0  3  0  0  0  0  0  0
  160.4610  206.5940  147.4670 C   0  0  0  0  0  2  0  0  0  0  0  0
  161.5930  204.4040  148.0190 C   0  0  0  0  0  2  0  0  0  0  0  0
  160.7540  206.2050  146.0120 C   0  0  0  0  0  2  0  0  0  0  0  0
  161.3260  205.8380  148.4910 C   0  0  2  0  0  3  0  0  0  0  0  0
  160.5810  204.5050  150.5110 C   0  0  0  0  0  2  0  0  0  0  0  0
  160.8850  211.5570  153.8330 O   0  0  0  0  0  1  0  0  0  0  0  0
  160.7770  209.8760  156.0830 C   0  0  0  0  0  2  0  0  0  0  0  0
  160.6350  207.7910  154.6280 C   0  0  0  0  0  2  0  0  0  0  0  0
  163.2340  205.4550  153.3700 O   0  0  0  0  0  1  0  0  0  0  0  0
  161.9470  205.9700  153.5270 C   0  0  2  0  0  3  0  0  0  0  0  0
  159.3500  209.7880  155.5520 C   0  0  0  0  0  2  0  0  0  0  0  0
  163.0920  206.2660  150.6860 C   0  0  0  0  0  1  0  0  0  0  0  0
  161.3750  208.1510  150.9850 C   0  0  1  0  0  3  0  0  0  0  0  0
  160.0860  208.5420  151.7430 C   0  0  0  0  0  2  0  0  0  0  0  0
  162.6100  208.9550  151.4010 C   0  0  0  0  0  1  0  0  0  0  0  0
  160.5090  209.3090  154.7070 C   0  0  0  0  0  0  0  0  0  0  0  0
  160.0070  209.9760  152.2680 C   0  0  0  0  0  2  0  0  0  0  0  0
  160.7260  205.8990  149.9140 C   0  0  1  0  0  0  0  0  0  0  0  0
  160.8890  210.1990  153.5020 C   0  0  1  0  0  3  0  0  0  0  0  0
  161.1270  205.8790  152.2230 C   0  0  1  0  0  3  0  0  0  0  0  0
  162.0030  207.3770  154.1000 C   0  0  0  0  0  2  0  0  0  0  0  0
  161.6120  206.6030  150.9540 C   0  0  1  0  0  0  0  0  0  0  0  0
  159.4490  206.4740  149.8540 O   0  0  0  0  0  1  0  0  0  0  0  0
  160.8230  204.5440  151.9010 O   0  0  0  0  0  0  0  0  0  0  0  0
  162.4710  205.4060  144.3900 C   0  0  0  0  0  2  0  0  0  0  0  0
  161.2760  205.7680  143.5220 C   0  0  0  0  0  2  0  0  0  0  0  0
  161.5830  205.5790  142.1700 O   0  0  0  0  0  0  0  0  0  0  0  0
  161.9780  206.8370  141.7120 C   0  0  0  0  0  2  0  0  0  0  0  0
  162.1240  206.8070  140.2010 C   0  0  0  0  0  2  0  0  0  0  0  0
  159.5570  209.8000  137.2580 C   0  0  0  0  0  1  0  0  0  0  0  0
  160.4660  209.3480  138.2960 N   0  0  0  0  0  0  0  0  0  0  0  0
  161.2080  210.1220  139.1040 C   0  0  0  0  0  0  0  0  0  0  0  0
  160.6890  208.0780  138.5800 N   0  0  0  0  0  0  0  0  0  0  0  0
  161.9570  209.3400  139.9650 C   0  0  0  0  0  3  0  0  0  0  0  0
  161.5770  208.0560  139.5970 C   0  0  0  0  0  0  0  0  0  0  0  0
  161.2150  211.5510  139.0470 N   0  0  0  0  0  2  0  0  0  0  0  0
  161.3270  212.3700  140.2450 C   0  0  0  0  0  2  0  0  0  0  0  0
  160.3370  211.4680  142.2130 O   0  0  0  0  0  1  0  0  0  0  0  0
  160.1680  212.1070  141.1410 C   0  0  0  0  0  0  0  0  0  0  0  0
  158.9040  212.5640  140.7990 O   0  0  0  0  0  0  0  0  0  0  0  0
  1  4  1  0  0  0  0
  2 27  1  6  0  0  0
  2  5  1  0  0  0  0
  2  1  1  0  0  0  0
  4  6  1  0  0  0  0
  5  3  1  0  0  0  0
  6  3  1  6  0  0  0
  6 20  1  0  0  0  0
  7 26  1  0  0  0  0
 10 18  1  0  0  0  0
 12 11  1  6  0  0  0
 12 23  1  0  0  0  0
 13  9  1  0  0  0  0
 15 17  1  1  0  0  0
 15 16  1  0  0  0  0
 16 19  1  0  0  0  0
 18 13  1  0  0  0  0
 18  9  1  0  0  0  0
 19 21  1  0  0  0  0
 20 25  1  6  0  0  0
 20  7  1  0  0  0  0
 20 24  1  0  0  0  0
 21  8  1  1  0  0  0
 21 18  1  0  0  0  0
 22 26  1  6  0  0  0
 22 12  1  0  0  0  0
 23 10  1  0  0  0  0
 24 14  1  6  0  0  0
 24 15  1  0  0  0  0
 24 22  1  0  0  0  0
 28 27  1  0  0  0  0
 29 28  1  0  0  0  0
 30 29  1  0  0  0  0
 31 30  1  0  0  0  0
 32 33  1  0  0  0  0
 33 35  1  0  0  0  0
 33 34  1  0  0  0  0
 34 36  2  0  0  0  0
 35 37  2  0  0  0  0
 37 36  1  0  0  0  0
 37 31  1  0  0  0  0
 38 34  1  0  0  0  0
 38 39  1  0  0  0  0
 39 41  1  0  0  0  0
 41 40  1  0  0  0  0
 42 41  2  0  0  0  0
M  END
>  <MODEL>
9

>  <REMARK>
 VINA RESULT:      -2.6      4.809      9.133
  Name = 
  10 active torsions:
  status: ('A' for Active; 'I' for Inactive)
    1  A    between atoms: C_1  and  N_11
    2  A    between atoms: C_1  and  C_15
    3  A    between atoms: C_4  and  C_18
    4  A    between atoms: C_4  and  C_30
    5  A    between atoms: N_11  and  C_27
    6  A    between atoms: C_16  and  C_17
    7  A    between atoms: C_16  and  C_35
    8  A    between atoms: C_17  and  O_21
    9  A    between atoms: O_21  and  C_30
   10  A    between atoms: C_32  and  C_37
                            x       y       z     vdW  Elec       q    Type
                         _______ _______ _______ _____ _____    ______ ____

>  <TORSDO>
F 10

$$$$
