=
 OpenBabel11072414033D

 62 68  0  0  1  0  0  0  0  0999 V2000
  161.9490  208.7810  148.2520 C   0  0  0  0  0  0  0  0  0  0  0  0
  161.6290  210.2520  148.2210 C   0  0  0  0  0  2  0  0  0  0  0  0
  162.3310  208.9530  150.6700 C   0  0  0  0  0  3  0  0  0  0  0  0
  162.2450  208.1810  149.4130 C   0  0  0  0  0  3  0  0  0  0  0  0
  162.3130  210.2900  150.6520 C   0  0  0  0  0  0  0  0  0  0  0  0
  162.3410  211.0330  149.3330 C   0  0  2  0  0  3  0  0  0  0  0  0
  160.5830  207.7760  146.4390 C   0  0  0  0  0  1  0  0  0  0  0  0
  161.8350  208.0610  147.0580 O   0  0  0  0  0  0  0  0  0  0  0  0
  162.3580  211.0210  151.9600 C   0  0  0  0  0  2  0  0  0  0  0  0
  160.6840  206.6860  154.0260 N   0  0  0  0  0  0  0  0  0  0  0  0
  161.1570  210.0700  155.4130 C   0  0  0  0  0  0  0  0  0  0  0  0
  160.9530  208.7460  155.2310 C   0  0  0  0  0  0  0  0  0  0  0  0
  161.6030  208.8070  152.9670 C   0  0  0  0  0  3  0  0  0  0  0  0
  161.8950  210.1910  153.1160 C   0  0  0  0  0  0  0  0  0  0  0  0
  160.7980  205.8700  152.8410 C   0  0  0  0  0  0  0  0  0  0  0  0
  160.9670  206.3980  151.7150 O   0  0  0  0  0  0  0  0  0  0  0  0
  160.6150  210.4570  156.7650 C   0  0  0  0  0  2  0  0  0  0  0  0
  159.8900  206.9870  156.3730 N   0  0  0  0  0  0  0  0  0  0  0  0
  161.1140  208.0690  154.0560 C   0  0  0  0  0  0  0  0  0  0  0  0
  161.6390  210.8400  154.3520 C   0  0  0  0  0  3  0  0  0  0  0  0
  160.2800  206.0310  155.3030 C   0  0  0  0  0  2  0  0  0  0  0  0
  160.2750  208.2200  156.3250 C   0  0  0  0  0  0  0  0  0  0  0  0
  160.0400  209.2270  157.2540 O   0  0  0  0  0  0  0  0  0  0  0  0
  159.2550  203.9310  152.9420 C   0  0  0  0  0  1  0  0  0  0  0  0
  160.7010  204.3730  152.9470 C   0  0  1  0  0  3  0  0  0  0  0  0
  161.4820  203.6010  151.8760 C   0  0  0  0  0  2  0  0  0  0  0  0
  161.6640  201.3220  150.9200 C   0  0  0  0  0  2  0  0  0  0  0  0
  160.1350  201.4650  149.0370 O   0  0  0  0  0  1  0  0  0  0  0  0
  161.1250  202.1270  149.7640 C   0  0  1  0  0  0  0  0  0  0  0  0
  160.7030  202.4820  151.1720 C   0  0  2  0  0  3  0  0  0  0  0  0
  162.1140  203.0020  149.0050 C   0  0  0  0  0  2  0  0  0  0  0  0
  161.4020  203.9530  148.0600 C   0  0  1  0  0  3  0  0  0  0  0  0
  161.3700  205.3360  148.6780 C   0  0  0  0  0  2  0  0  0  0  0  0
  160.0590  205.7960  148.7720 O   0  0  0  0  0  1  0  0  0  0  0  0
  162.1230  203.9500  146.7110 C   0  0  2  0  0  3  0  0  0  0  0  0
  162.6200  205.2140  146.3820 O   0  0  0  0  0  1  0  0  0  0  0  0
  161.2810  203.3560  145.5750 C   0  0  0  0  0  2  0  0  0  0  0  0
  160.4690  204.7990  143.8150 N   0  0  0  0  0  2  0  0  0  0  0  0
  160.2880  204.3190  144.9890 C   0  0  0  0  0  3  0  0  0  0  0  0
  161.7310  212.4200  149.4300 C   0  0  0  0  0  2  0  0  0  0  0  0
  159.3940  213.2490  148.7890 N   0  0  0  0  0  0  0  0  0  0  0  0
  160.8080  212.1850  147.2490 O   0  0  0  0  0  0  0  0  0  0  0  0
  160.6350  212.6090  148.4250 C   0  0  0  0  0  0  0  0  0  0  0  0
  157.0330  213.6810  148.1650 C   0  0  0  0  0  3  0  0  0  0  0  0
  156.4270  214.0450  145.8490 C   0  0  0  0  0  0  0  0  0  0  0  0
  156.0600  213.9460  147.1980 C   0  0  0  0  0  3  0  0  0  0  0  0
  158.3760  213.5070  147.7940 C   0  0  0  0  0  0  0  0  0  0  0  0
  157.7590  213.8870  145.4750 C   0  0  0  0  0  3  0  0  0  0  0  0
  158.7310  213.6250  146.4390 C   0  0  0  0  0  3  0  0  0  0  0  0
  154.6230  214.4500  144.0340 N   0  0  0  0  0  0  0  0  0  0  0  0
  155.4240  214.2700  144.8450 C   0  0  0  0  0  0  0  0  0  0  0  0
  159.2320  213.7300  150.1290 C   0  0  0  0  0  3  0  0  0  0  0  0
  158.7400  212.9370  151.0750 C   0  0  0  0  0  3  0  0  0  0  0  0
  158.4400  213.3970  152.4270 C   0  0  0  0  0  0  0  0  0  0  0  0
  157.1210  213.2760  152.9690 N   0  0  0  0  0  2  0  0  0  0  0  0
  159.3900  213.7950  153.1530 O   0  0  0  0  0  0  0  0  0  0  0  0
  155.8150  212.5580  156.8770 N   0  0  0  0  0  2  0  0  0  0  0  0
  155.1900  213.7260  156.2380 C   0  0  0  0  0  2  0  0  0  0  0  0
  156.7730  211.6580  154.8000 C   0  0  0  0  0  2  0  0  0  0  0  0
  156.8650  213.1380  154.4000 C   0  0  0  0  0  3  0  0  0  0  0  0
  155.5980  213.9160  154.7730 C   0  0  0  0  0  2  0  0  0  0  0  0
  155.8070  211.4170  155.9730 C   0  0  0  0  0  2  0  0  0  0  0  0
  1  4  2  0  0  0  0
  2  1  1  0  0  0  0
  2  6  1  0  0  0  0
  4  3  1  0  0  0  0
  5  3  2  0  0  0  0
  5  9  1  0  0  0  0
  6 40  1  1  0  0  0
  6  5  1  0  0  0  0
  7  8  1  0  0  0  0
  8  1  1  0  0  0  0
  9 14  1  0  0  0  0
 10 19  1  0  0  0  0
 10 21  1  0  0  0  0
 11 17  1  0  0  0  0
 12 11  1  0  0  0  0
 12 22  1  0  0  0  0
 13 14  2  0  0  0  0
 13 19  1  0  0  0  0
 14 20  1  0  0  0  0
 15 25  1  0  0  0  0
 15 10  1  0  0  0  0
 16 15  2  0  0  0  0
 17 23  1  0  0  0  0
 19 12  2  0  0  0  0
 20 11  2  0  0  0  0
 21 18  1  0  0  0  0
 22 18  2  0  0  0  0
 22 23  1  0  0  0  0
 25 24  1  6  0  0  0
 26 25  1  0  0  0  0
 27 30  1  0  0  0  0
 29 28  1  6  0  0  0
 29 27  1  0  0  0  0
 29 30  1  0  0  0  0
 30 26  1  1  0  0  0
 31 29  1  0  0  0  0
 32 33  1  1  0  0  0
 32 31  1  0  0  0  0
 33 34  1  0  0  0  0
 35 36  1  6  0  0  0
 35 32  1  0  0  0  0
 37 35  1  0  0  0  0
 38 39  2  0  0  0  0
 39 37  1  0  0  0  0
 41 52  1  0  0  0  0
 42 43  2  0  0  0  0
 43 41  1  0  0  0  0
 43 40  1  0  0  0  0
 45 46  1  0  0  0  0
 46 44  2  0  0  0  0
 47 44  1  0  0  0  0
 47 41  1  0  0  0  0
 48 45  2  0  0  0  0
 48 49  1  0  0  0  0
 49 47  2  0  0  0  0
 50 51  3  0  0  0  0
 51 45  1  0  0  0  0
 52 53  2  0  0  0  0
 53 54  1  0  0  0  0
 54 55  1  0  0  0  0
 54 56  2  0  0  0  0
 55 60  1  0  0  0  0
 58 57  1  0  0  0  0
 59 62  1  0  0  0  0
 60 61  1  0  0  0  0
 60 59  1  0  0  0  0
 61 58  1  0  0  0  0
 62 57  1  0  0  0  0
M  END
>  <MODEL>
1

>  <REMARK>
 VINA RESULT:      -1.2      0.000      0.000
  Name = 
  19 active torsions:
  status: ('A' for Active; 'I' for Inactive)
    1  A    between atoms: C_2  and  C_16
    2  A    between atoms: C_2  and  C_57
    3  A    between atoms: N_4  and  C_7
    4  A    between atoms: N_4  and  C_49
    5  A    between atoms: C_8  and  O_51
    6  A    between atoms: C_9  and  C_34
    7  A    between atoms: C_11  and  C_17
    8  A    between atoms: C_14  and  C_23
    9  A    between atoms: C_15  and  C_23
   10  A    between atoms: C_15  and  C_34
   11  A    between atoms: C_16  and  C_29
   12  A    between atoms: C_23  and  C_30
   13  A    between atoms: C_27  and  C_56
   14  A    between atoms: N_28  and  C_32
   15  A    between atoms: C_30  and  C_50
   16  A    between atoms: C_37  and  C_41
   17  A    between atoms: C_40  and  C_56
   18  A    between atoms: C_48  and  C_52
   19  A    between atoms: C_52  and  C_59
                            x       y       z     vdW  Elec       q    Type
                         _______ _______ _______ _____ _____    ______ ____

>  <TORSDO>
F 19

$$$$
=
 OpenBabel11072414033D

 62 68  0  0  1  0  0  0  0  0999 V2000
  160.8100  206.8910  154.7490 C   0  0  0  0  0  0  0  0  0  0  0  0
  160.8820  208.2870  154.1900 C   0  0  0  0  0  2  0  0  0  0  0  0
  161.2710  206.0090  152.5050 C   0  0  0  0  0  3  0  0  0  0  0  0
  161.0260  205.8350  153.9520 C   0  0  0  0  0  3  0  0  0  0  0  0
  161.0880  207.1970  151.9210 C   0  0  0  0  0  0  0  0  0  0  0  0
  160.4960  208.3480  152.7070 C   0  0  2  0  0  3  0  0  0  0  0  0
  160.8690  207.7860  157.0640 C   0  0  0  0  0  1  0  0  0  0  0  0
  160.6060  206.7460  156.1250 O   0  0  0  0  0  0  0  0  0  0  0  0
  161.3950  207.3270  150.4590 C   0  0  0  0  0  2  0  0  0  0  0  0
  161.1400  204.4860  146.2490 N   0  0  0  0  0  0  0  0  0  0  0  0
  161.2760  203.6050  149.8280 C   0  0  0  0  0  0  0  0  0  0  0  0
  161.2920  203.5980  148.4760 C   0  0  0  0  0  0  0  0  0  0  0  0
  161.3480  205.9490  148.3180 C   0  0  0  0  0  3  0  0  0  0  0  0
  161.3960  206.0170  149.7380 C   0  0  0  0  0  0  0  0  0  0  0  0
  161.1180  205.5740  145.3020 C   0  0  0  0  0  0  0  0  0  0  0  0
  160.9030  206.7510  145.6840 O   0  0  0  0  0  0  0  0  0  0  0  0
  161.0140  202.2010  150.3110 C   0  0  0  0  0  2  0  0  0  0  0  0
  160.8980  202.0530  146.7490 N   0  0  0  0  0  0  0  0  0  0  0  0
  161.2900  204.7040  147.6730 C   0  0  0  0  0  0  0  0  0  0  0  0
  161.3270  204.8240  150.5060 C   0  0  0  0  0  3  0  0  0  0  0  0
  161.1930  203.0900  145.7260 C   0  0  0  0  0  2  0  0  0  0  0  0
  161.0140  202.3190  148.0080 C   0  0  0  0  0  0  0  0  0  0  0  0
  160.8230  201.4620  149.0860 O   0  0  0  0  0  0  0  0  0  0  0  0
  160.1900  204.5070  143.2640 C   0  0  0  0  0  1  0  0  0  0  0  0
  161.3390  205.3030  143.8400 C   0  0  1  0  0  3  0  0  0  0  0  0
  161.5820  206.5530  142.9840 C   0  0  0  0  0  2  0  0  0  0  0  0
  163.0670  206.6120  141.0000 C   0  0  0  0  0  2  0  0  0  0  0  0
  161.5260  207.3330  139.2660 O   0  0  0  0  0  1  0  0  0  0  0  0
  161.9260  207.5090  140.5910 C   0  0  1  0  0  0  0  0  0  0  0  0
  161.6440  206.3120  141.4700 C   0  0  2  0  0  3  0  0  0  0  0  0
  161.9080  208.9200  141.1680 C   0  0  0  0  0  2  0  0  0  0  0  0
  161.0950  209.8630  140.3020 C   0  0  1  0  0  3  0  0  0  0  0  0
  160.5700  210.9960  141.1600 C   0  0  0  0  0  2  0  0  0  0  0  0
  161.4870  211.3150  142.1580 O   0  0  0  0  0  1  0  0  0  0  0  0
  161.9720  210.3750  139.1590 C   0  0  2  0  0  3  0  0  0  0  0  0
  162.3420  211.7110  139.3420 O   0  0  0  0  0  1  0  0  0  0  0  0
  161.3610  210.1390  137.7720 C   0  0  0  0  0  2  0  0  0  0  0  0
  159.0130  210.4890  137.3240 N   0  0  0  0  0  2  0  0  0  0  0  0
  159.9190  209.7220  137.8080 C   0  0  0  0  0  3  0  0  0  0  0  0
  160.8930  209.7040  152.1490 C   0  0  0  0  0  2  0  0  0  0  0  0
  162.2960  210.6910  154.0510 N   0  0  0  0  0  0  0  0  0  0  0  0
  163.2350  210.0980  151.9840 O   0  0  0  0  0  0  0  0  0  0  0  0
  162.2040  210.1640  152.7100 C   0  0  0  0  0  0  0  0  0  0  0  0
  163.7540  211.1300  156.0090 C   0  0  0  0  0  3  0  0  0  0  0  0
  166.0820  211.7140  155.6930 C   0  0  0  0  0  0  0  0  0  0  0  0
  164.9990  211.4630  156.5460 C   0  0  0  0  0  3  0  0  0  0  0  0
  163.5770  211.0510  154.6170 C   0  0  0  0  0  0  0  0  0  0  0  0
  165.9190  211.6250  154.3130 C   0  0  0  0  0  3  0  0  0  0  0  0
  164.6770  211.2910  153.7750 C   0  0  0  0  0  3  0  0  0  0  0  0
  168.3760  212.4150  156.6720 N   0  0  0  0  0  0  0  0  0  0  0  0
  167.3530  212.1040  156.2380 C   0  0  0  0  0  0  0  0  0  0  0  0
  161.1110  210.7430  154.8550 C   0  0  0  0  0  3  0  0  0  0  0  0
  160.5180  211.9050  155.1090 C   0  0  0  0  0  3  0  0  0  0  0  0
  159.3820  212.0430  156.0130 C   0  0  0  0  0  0  0  0  0  0  0  0
  158.0420  212.0690  155.5110 N   0  0  0  0  0  2  0  0  0  0  0  0
  159.5940  212.0210  157.2550 O   0  0  0  0  0  0  0  0  0  0  0  0
  154.3910  210.9240  157.2010 N   0  0  0  0  0  2  0  0  0  0  0  0
  154.6490  212.3710  157.2480 C   0  0  0  0  0  2  0  0  0  0  0  0
  156.1990  210.4300  155.6110 C   0  0  0  0  0  2  0  0  0  0  0  0
  156.8960  211.6150  156.2960 C   0  0  0  0  0  3  0  0  0  0  0  0
  155.9390  212.7890  156.5330 C   0  0  0  0  0  2  0  0  0  0  0  0
  154.6840  210.3960  155.8770 C   0  0  0  0  0  2  0  0  0  0  0  0
  1  8  1  0  0  0  0
  2  1  1  0  0  0  0
  3  4  1  0  0  0  0
  4  1  2  0  0  0  0
  5  3  2  0  0  0  0
  5  6  1  0  0  0  0
  6 40  1  6  0  0  0
  6  2  1  0  0  0  0
  8  7  1  0  0  0  0
  9  5  1  0  0  0  0
 10 19  1  0  0  0  0
 11 17  1  0  0  0  0
 11 20  1  0  0  0  0
 12 11  2  0  0  0  0
 13 14  1  0  0  0  0
 14  9  1  0  0  0  0
 14 20  2  0  0  0  0
 15 16  2  0  0  0  0
 15 10  1  0  0  0  0
 18 22  2  0  0  0  0
 19 13  2  0  0  0  0
 19 12  1  0  0  0  0
 21 10  1  0  0  0  0
 21 18  1  0  0  0  0
 22 12  1  0  0  0  0
 22 23  1  0  0  0  0
 23 17  1  0  0  0  0
 25 24  1  6  0  0  0
 25 15  1  0  0  0  0
 26 25  1  0  0  0  0
 27 30  1  0  0  0  0
 29 28  1  6  0  0  0
 29 27  1  0  0  0  0
 29 31  1  0  0  0  0
 29 30  1  0  0  0  0
 30 26  1  1  0  0  0
 32 33  1  1  0  0  0
 32 31  1  0  0  0  0
 33 34  1  0  0  0  0
 35 36  1  1  0  0  0
 35 32  1  0  0  0  0
 37 39  1  0  0  0  0
 37 35  1  0  0  0  0
 38 39  2  0  0  0  0
 40 43  1  0  0  0  0
 41 47  1  0  0  0  0
 41 52  1  0  0  0  0
 42 43  2  0  0  0  0
 43 41  1  0  0  0  0
 44 46  1  0  0  0  0
 45 51  1  0  0  0  0
 45 46  2  0  0  0  0
 47 44  2  0  0  0  0
 48 45  1  0  0  0  0
 49 48  2  0  0  0  0
 49 47  1  0  0  0  0
 51 50  3  0  0  0  0
 52 53  2  0  0  0  0
 53 54  1  0  0  0  0
 54 56  2  0  0  0  0
 55 54  1  0  0  0  0
 55 60  1  0  0  0  0
 57 58  1  0  0  0  0
 59 62  1  0  0  0  0
 59 60  1  0  0  0  0
 60 61  1  0  0  0  0
 61 58  1  0  0  0  0
 62 57  1  0  0  0  0
M  END
>  <MODEL>
2

>  <REMARK>
 VINA RESULT:      -0.5      4.022      8.655
  Name = 
  19 active torsions:
  status: ('A' for Active; 'I' for Inactive)
    1  A    between atoms: C_2  and  C_16
    2  A    between atoms: C_2  and  C_57
    3  A    between atoms: N_4  and  C_7
    4  A    between atoms: N_4  and  C_49
    5  A    between atoms: C_8  and  O_51
    6  A    between atoms: C_9  and  C_34
    7  A    between atoms: C_11  and  C_17
    8  A    between atoms: C_14  and  C_23
    9  A    between atoms: C_15  and  C_23
   10  A    between atoms: C_15  and  C_34
   11  A    between atoms: C_16  and  C_29
   12  A    between atoms: C_23  and  C_30
   13  A    between atoms: C_27  and  C_56
   14  A    between atoms: N_28  and  C_32
   15  A    between atoms: C_30  and  C_50
   16  A    between atoms: C_37  and  C_41
   17  A    between atoms: C_40  and  C_56
   18  A    between atoms: C_48  and  C_52
   19  A    between atoms: C_52  and  C_59
                            x       y       z     vdW  Elec       q    Type
                         _______ _______ _______ _____ _____    ______ ____

>  <TORSDO>
F 19

$$$$
