=
 OpenBabel11072414233D

 26 27  0  0  1  0  0  0  0  0999 V2000
  162.0130  205.5420  152.5390 S   0  0  0  0  0  0  0  0  0  0  0  0
  161.7320  209.3030  151.0400 C   0  0  0  0  0  0  0  0  0  0  0  0
  161.5620  207.0910  152.2610 C   0  0  0  0  0  0  0  0  0  0  0  0
  161.9810  207.2500  149.7400 C   0  0  0  0  0  0  0  0  0  0  0  0
  162.6640  207.9830  148.6300 C   0  0  0  0  0  2  0  0  0  0  0  0
  160.6770  209.0820  153.2440 C   0  0  0  0  0  3  0  0  0  0  0  0
  162.1030  209.4020  148.5430 C   0  0  0  0  0  2  0  0  0  0  0  0
  161.0740  209.8650  152.0640 C   0  0  0  0  0  3  0  0  0  0  0  0
  161.2020  206.2200  149.5510 N   0  0  0  0  0  0  0  0  0  0  0  0
  162.1660  207.8550  151.1010 C   0  0  1  0  0  3  0  0  0  0  0  0
  162.0430  210.0650  149.8520 N   0  0  0  0  0  0  0  0  0  0  0  0
  160.9050  207.8060  153.3130 N   0  0  0  0  0  0  0  0  0  0  0  0
  160.8330  205.6110  148.3040 C   0  0  0  0  0  0  0  0  0  0  0  0
  160.0300  206.2170  147.5470 O   0  0  0  0  0  0  0  0  0  0  0  0
  161.4370  204.3270  147.8260 C   0  0  0  0  0  2  0  0  0  0  0  0
  161.6470  204.3500  146.3190 C   0  0  0  0  0  3  0  0  0  0  0  0
  161.3100  202.9890  145.7470 C   0  0  0  0  0  1  0  0  0  0  0  0
  163.0880  204.6880  145.9820 C   0  0  0  0  0  1  0  0  0  0  0  0
  161.9900  211.5260  149.8520 C   0  0  0  0  0  2  0  0  0  0  0  0
  163.3290  212.3670  148.0750 O   0  0  0  0  0  0  0  0  0  0  0  0
  161.0710  212.7510  146.2840 C   0  0  0  0  0  0  0  0  0  0  0  0
  161.0340  212.2270  147.6150 N   0  0  0  0  0  2  0  0  0  0  0  0
  162.1710  212.0640  148.4710 C   0  0  0  0  0  0  0  0  0  0  0  0
  162.1630  213.0620  145.7370 O   0  0  0  0  0  0  0  0  0  0  0  0
  159.8020  212.9070  145.5240 C   0  0  0  0  0  2  0  0  0  0  0  0
  159.7340  211.9420  144.5190 O   0  0  0  0  0  1  0  0  0  0  0  0
  2 10  1  0  0  0  0
  2  8  2  0  0  0  0
  3  1  2  0  0  0  0
  3 12  1  0  0  0  0
  5  4  1  0  0  0  0
  6 12  2  0  0  0  0
  7  5  1  0  0  0  0
  7 11  1  0  0  0  0
  8  6  1  0  0  0  0
  9  4  2  0  0  0  0
 10  4  1  6  0  0  0
 10  3  1  0  0  0  0
 11 19  1  0  0  0  0
 11  2  1  0  0  0  0
 13  9  1  0  0  0  0
 14 13  2  0  0  0  0
 15 13  1  0  0  0  0
 16 15  1  0  0  0  0
 17 16  1  0  0  0  0
 18 16  1  0  0  0  0
 20 23  2  0  0  0  0
 21 22  1  0  0  0  0
 22 23  1  0  0  0  0
 23 19  1  0  0  0  0
 24 21  2  0  0  0  0
 25 21  1  0  0  0  0
 26 25  1  0  0  0  0
M  END
>  <MODEL>
1

>  <REMARK>
 VINA RESULT:      -7.3      0.000      0.000
  Name = 
  6 active torsions:
  status: ('A' for Active; 'I' for Inactive)
    1  A    between atoms: C_4  and  C_14
    2  A    between atoms: C_4  and  C_16
    3  A    between atoms: C_5  and  N_19
    4  A    between atoms: C_5  and  C_23
    5  A    between atoms: C_7  and  C_8
    6  A    between atoms: C_14  and  N_17
                            x       y       z     vdW  Elec       q    Type
                         _______ _______ _______ _____ _____    ______ ____

>  <TORSDO>
F 6

$$$$
=
 OpenBabel11072414233D

 26 27  0  0  1  0  0  0  0  0999 V2000
  160.2760  206.2730  147.0450 S   0  0  0  0  0  0  0  0  0  0  0  0
  161.6900  206.3890  150.8470 C   0  0  0  0  0  0  0  0  0  0  0  0
  161.1970  206.5520  148.3690 C   0  0  0  0  0  0  0  0  0  0  0  0
  160.6750  204.4580  149.7470 C   0  0  0  0  0  0  0  0  0  0  0  0
  160.1980  203.9080  151.0540 C   0  0  0  0  0  2  0  0  0  0  0  0
  162.7660  208.0410  149.3870 C   0  0  0  0  0  3  0  0  0  0  0  0
  161.1940  204.2830  152.1520 C   0  0  0  0  0  2  0  0  0  0  0  0
  162.5700  207.3880  150.6900 C   0  0  0  0  0  3  0  0  0  0  0  0
  161.0480  203.7110  148.7440 N   0  0  0  0  0  0  0  0  0  0  0  0
  160.8020  205.9540  149.7030 C   0  0  1  0  0  3  0  0  0  0  0  0
  161.5670  205.7030  152.1140 N   0  0  0  0  0  0  0  0  0  0  0  0
  162.1300  207.6380  148.3300 N   0  0  0  0  0  0  0  0  0  0  0  0
  161.1010  202.2770  148.6850 C   0  0  0  0  0  0  0  0  0  0  0  0
  161.0040  201.6220  149.7560 O   0  0  0  0  0  0  0  0  0  0  0  0
  161.1750  201.5280  147.3910 C   0  0  0  0  0  2  0  0  0  0  0  0
  160.5940  202.3520  146.2510 C   0  0  0  0  0  3  0  0  0  0  0  0
  160.0630  201.4190  145.1820 C   0  0  0  0  0  1  0  0  0  0  0  0
  161.6540  203.2520  145.6430 C   0  0  0  0  0  1  0  0  0  0  0  0
  162.1050  206.2790  153.3440 C   0  0  0  0  0  2  0  0  0  0  0  0
  160.1930  206.8710  154.6290 O   0  0  0  0  0  0  0  0  0  0  0  0
  160.5010  209.7220  154.1510 C   0  0  0  0  0  0  0  0  0  0  0  0
  161.3490  208.6730  153.6730 N   0  0  0  0  0  2  0  0  0  0  0  0
  161.1550  207.2750  153.9230 C   0  0  0  0  0  0  0  0  0  0  0  0
  159.5190  209.4750  154.9020 O   0  0  0  0  0  0  0  0  0  0  0  0
  160.7970  211.1300  153.7760 C   0  0  0  0  0  2  0  0  0  0  0  0
  160.4020  211.3590  152.4580 O   0  0  0  0  0  1  0  0  0  0  0  0
  1  3  2  0  0  0  0
  2 11  1  0  0  0  0
  4  5  1  0  0  0  0
  5  7  1  0  0  0  0
  6  8  1  0  0  0  0
  8  2  2  0  0  0  0
  9  4  2  0  0  0  0
 10  3  1  6  0  0  0
 10  4  1  0  0  0  0
 10  2  1  0  0  0  0
 11  7  1  0  0  0  0
 11 19  1  0  0  0  0
 12  3  1  0  0  0  0
 12  6  2  0  0  0  0
 13  9  1  0  0  0  0
 13 14  2  0  0  0  0
 15 13  1  0  0  0  0
 16 15  1  0  0  0  0
 17 16  1  0  0  0  0
 18 16  1  0  0  0  0
 19 23  1  0  0  0  0
 21 24  2  0  0  0  0
 22 23  1  0  0  0  0
 22 21  1  0  0  0  0
 23 20  2  0  0  0  0
 25 21  1  0  0  0  0
 26 25  1  0  0  0  0
M  END
>  <MODEL>
2

>  <REMARK>
 VINA RESULT:      -6.6      3.836      5.646
  Name = 
  6 active torsions:
  status: ('A' for Active; 'I' for Inactive)
    1  A    between atoms: C_4  and  C_14
    2  A    between atoms: C_4  and  C_16
    3  A    between atoms: C_5  and  N_19
    4  A    between atoms: C_5  and  C_23
    5  A    between atoms: C_7  and  C_8
    6  A    between atoms: C_14  and  N_17
                            x       y       z     vdW  Elec       q    Type
                         _______ _______ _______ _____ _____    ______ ____

>  <TORSDO>
F 6

$$$$
=
 OpenBabel11072414233D

 26 27  0  0  1  0  0  0  0  0999 V2000
  161.8250  203.6010  151.7430 S   0  0  0  0  0  0  0  0  0  0  0  0
  161.7720  207.6270  152.2510 C   0  0  0  0  0  0  0  0  0  0  0  0
  161.4700  205.1130  152.2610 C   0  0  0  0  0  0  0  0  0  0  0  0
  161.8870  206.4470  150.1160 C   0  0  0  0  0  0  0  0  0  0  0  0
  162.6090  207.5880  149.4730 C   0  0  0  0  0  2  0  0  0  0  0  0
  160.7160  206.4260  154.1110 C   0  0  0  0  0  3  0  0  0  0  0  0
  162.1370  208.9010  150.1000 C   0  0  0  0  0  2  0  0  0  0  0  0
  161.1550  207.6590  153.4410 C   0  0  0  0  0  3  0  0  0  0  0  0
  161.0450  205.6790  149.4810 N   0  0  0  0  0  0  0  0  0  0  0  0
  162.1150  206.3100  151.5930 C   0  0  1  0  0  3  0  0  0  0  0  0
  162.1240  208.8520  151.5680 N   0  0  0  0  0  0  0  0  0  0  0  0
  160.8640  205.2650  153.5500 N   0  0  0  0  0  0  0  0  0  0  0  0
  160.6320  205.7680  148.1080 C   0  0  0  0  0  0  0  0  0  0  0  0
  159.9340  206.7510  147.7470 O   0  0  0  0  0  0  0  0  0  0  0  0
  161.0790  204.7870  147.0690 C   0  0  0  0  0  2  0  0  0  0  0  0
  162.0160  205.4430  146.0660 C   0  0  0  0  0  3  0  0  0  0  0  0
  161.4010  205.3690  144.6850 C   0  0  0  0  0  1  0  0  0  0  0  0
  163.3620  204.7410  146.0480 C   0  0  0  0  0  1  0  0  0  0  0  0
  162.1630  210.1310  152.2730 C   0  0  0  0  0  2  0  0  0  0  0  0
  160.7620  211.5500  150.9770 O   0  0  0  0  0  0  0  0  0  0  0  0
  158.6350  211.6010  152.9570 C   0  0  0  0  0  0  0  0  0  0  0  0
  159.8740  210.8890  153.0440 N   0  0  0  0  0  2  0  0  0  0  0  0
  160.9040  210.9000  152.0470 C   0  0  0  0  0  0  0  0  0  0  0  0
  158.3350  212.2640  151.9290 O   0  0  0  0  0  0  0  0  0  0  0  0
  157.6740  211.5350  154.0910 C   0  0  0  0  0  2  0  0  0  0  0  0
  157.0050  212.7530  154.2120 O   0  0  0  0  0  1  0  0  0  0  0  0
  1  3  2  0  0  0  0
  2  8  2  0  0  0  0
  3 12  1  0  0  0  0
  5  7  1  0  0  0  0
  5  4  1  0  0  0  0
  7 11  1  0  0  0  0
  8  6  1  0  0  0  0
  9  4  2  0  0  0  0
 10  4  1  6  0  0  0
 10  2  1  0  0  0  0
 10  3  1  0  0  0  0
 11  2  1  0  0  0  0
 11 19  1  0  0  0  0
 12  6  2  0  0  0  0
 13  9  1  0  0  0  0
 14 13  2  0  0  0  0
 15 13  1  0  0  0  0
 16 15  1  0  0  0  0
 17 16  1  0  0  0  0
 18 16  1  0  0  0  0
 20 23  2  0  0  0  0
 21 22  1  0  0  0  0
 21 25  1  0  0  0  0
 23 19  1  0  0  0  0
 23 22  1  0  0  0  0
 24 21  2  0  0  0  0
 25 26  1  0  0  0  0
M  END
>  <MODEL>
3

>  <REMARK>
 VINA RESULT:      -6.1      3.025      3.991
  Name = 
  6 active torsions:
  status: ('A' for Active; 'I' for Inactive)
    1  A    between atoms: C_4  and  C_14
    2  A    between atoms: C_4  and  C_16
    3  A    between atoms: C_5  and  N_19
    4  A    between atoms: C_5  and  C_23
    5  A    between atoms: C_7  and  C_8
    6  A    between atoms: C_14  and  N_17
                            x       y       z     vdW  Elec       q    Type
                         _______ _______ _______ _____ _____    ______ ____

>  <TORSDO>
F 6

$$$$
=
 OpenBabel11072414233D

 26 27  0  0  1  0  0  0  0  0999 V2000
  162.0560  203.9780  151.9840 S   0  0  0  0  0  0  0  0  0  0  0  0
  161.5500  207.9520  152.6320 C   0  0  0  0  0  0  0  0  0  0  0  0
  161.5160  205.4220  152.5340 C   0  0  0  0  0  0  0  0  0  0  0  0
  161.9040  206.8800  150.4650 C   0  0  0  0  0  0  0  0  0  0  0  0
  162.5350  208.1160  149.9070 C   0  0  0  0  0  2  0  0  0  0  0  0
  160.5280  206.5710  154.3820 C   0  0  0  0  0  3  0  0  0  0  0  0
  161.8930  209.3450  150.5520 C   0  0  0  0  0  2  0  0  0  0  0  0
  160.8690  207.8700  153.7840 C   0  0  0  0  0  3  0  0  0  0  0  0
  161.1840  206.0560  149.7550 N   0  0  0  0  0  0  0  0  0  0  0  0
  162.0650  206.7060  151.9480 C   0  0  1  0  0  3  0  0  0  0  0  0
  161.8060  209.2340  152.0140 N   0  0  0  0  0  0  0  0  0  0  0  0
  160.8280  205.4560  153.7890 N   0  0  0  0  0  0  0  0  0  0  0  0
  160.8390  206.1590  148.3650 C   0  0  0  0  0  0  0  0  0  0  0  0
  159.6770  206.5290  148.0540 O   0  0  0  0  0  0  0  0  0  0  0  0
  161.8360  205.9330  147.2710 C   0  0  0  0  0  2  0  0  0  0  0  0
  161.5700  204.6180  146.5530 C   0  0  0  0  0  3  0  0  0  0  0  0
  161.6280  203.4830  147.5550 C   0  0  0  0  0  1  0  0  0  0  0  0
  162.6060  204.3770  145.4700 C   0  0  0  0  0  1  0  0  0  0  0  0
  161.6710  210.4790  152.7660 C   0  0  0  0  0  2  0  0  0  0  0  0
  159.3070  210.7430  152.7960 O   0  0  0  0  0  0  0  0  0  0  0  0
  159.3480  213.1300  151.1380 C   0  0  0  0  0  0  0  0  0  0  0  0
  160.4770  212.3720  151.5810 N   0  0  0  0  0  2  0  0  0  0  0  0
  160.4130  211.1920  152.3910 C   0  0  0  0  0  0  0  0  0  0  0  0
  158.1780  212.8260  151.4950 O   0  0  0  0  0  0  0  0  0  0  0  0
  159.5600  214.3130  150.2610 C   0  0  0  0  0  2  0  0  0  0  0  0
  159.6610  213.9020  148.9320 O   0  0  0  0  0  1  0  0  0  0  0  0
  1  3  2  0  0  0  0
  2  8  2  0  0  0  0
  3 12  1  0  0  0  0
  5  4  1  0  0  0  0
  5  7  1  0  0  0  0
  7 11  1  0  0  0  0
  8  6  1  0  0  0  0
  9  4  2  0  0  0  0
 10  4  1  6  0  0  0
 10  3  1  0  0  0  0
 10  2  1  0  0  0  0
 11  2  1  0  0  0  0
 11 19  1  0  0  0  0
 12  6  2  0  0  0  0
 13  9  1  0  0  0  0
 14 13  2  0  0  0  0
 15 13  1  0  0  0  0
 16 15  1  0  0  0  0
 16 17  1  0  0  0  0
 18 16  1  0  0  0  0
 21 24  2  0  0  0  0
 21 22  1  0  0  0  0
 22 23  1  0  0  0  0
 23 19  1  0  0  0  0
 23 20  2  0  0  0  0
 25 21  1  0  0  0  0
 26 25  1  0  0  0  0
M  END
>  <MODEL>
4

>  <REMARK>
 VINA RESULT:      -5.9      2.534      3.175
  Name = 
  6 active torsions:
  status: ('A' for Active; 'I' for Inactive)
    1  A    between atoms: C_4  and  C_14
    2  A    between atoms: C_4  and  C_16
    3  A    between atoms: C_5  and  N_19
    4  A    between atoms: C_5  and  C_23
    5  A    between atoms: C_7  and  C_8
    6  A    between atoms: C_14  and  N_17
                            x       y       z     vdW  Elec       q    Type
                         _______ _______ _______ _____ _____    ______ ____

>  <TORSDO>
F 6

$$$$
=
 OpenBabel11072414233D

 26 27  0  0  1  0  0  0  0  0999 V2000
  161.2800  207.8180  155.8690 S   0  0  0  0  0  0  0  0  0  0  0  0
  160.0950  211.0530  153.7230 C   0  0  0  0  0  0  0  0  0  0  0  0
  160.4080  209.0590  155.2520 C   0  0  0  0  0  0  0  0  0  0  0  0
  161.3220  209.1240  152.8610 C   0  0  0  0  0  0  0  0  0  0  0  0
  161.9540  209.9500  151.7870 C   0  0  0  0  0  2  0  0  0  0  0  0
  158.6960  210.6660  155.7010 C   0  0  0  0  0  3  0  0  0  0  0  0
  160.9800  211.0480  151.3570 C   0  0  0  0  0  2  0  0  0  0  0  0
  159.0660  211.4260  154.4970 C   0  0  0  0  0  3  0  0  0  0  0  0
  161.0060  207.8670  152.7120 N   0  0  0  0  0  0  0  0  0  0  0  0
  160.9680  209.8800  154.1100 C   0  0  1  0  0  3  0  0  0  0  0  0
  160.3950  211.7620  152.5000 N   0  0  0  0  0  0  0  0  0  0  0  0
  159.3210  209.5760  156.0280 N   0  0  0  0  0  0  0  0  0  0  0  0
  161.1670  207.0510  151.5410 C   0  0  0  0  0  0  0  0  0  0  0  0
  160.8430  207.5270  150.4210 O   0  0  0  0  0  0  0  0  0  0  0  0
  161.7920  205.6910  151.5880 C   0  0  0  0  0  2  0  0  0  0  0  0
  160.8290  204.6310  151.0750 C   0  0  0  0  0  3  0  0  0  0  0  0
  160.8740  203.4290  151.9940 C   0  0  0  0  0  1  0  0  0  0  0  0
  161.2060  204.1960  149.6700 C   0  0  0  0  0  1  0  0  0  0  0  0
  159.8520  213.0930  152.2410 C   0  0  0  0  0  2  0  0  0  0  0  0
  158.0900  212.9920  150.6450 O   0  0  0  0  0  0  0  0  0  0  0  0
  159.8220  213.5970  148.3910 C   0  0  0  0  0  0  0  0  0  0  0  0
  160.2040  213.5000  149.7660 N   0  0  0  0  0  2  0  0  0  0  0  0
  159.3180  213.1870  150.8490 C   0  0  0  0  0  0  0  0  0  0  0  0
  158.6200  213.4650  148.0370 O   0  0  0  0  0  0  0  0  0  0  0  0
  160.8590  213.8850  147.3630 C   0  0  0  0  0  2  0  0  0  0  0  0
  161.4650  212.6950  146.9600 O   0  0  0  0  0  1  0  0  0  0  0  0
  2 10  1  0  0  0  0
  2  8  2  0  0  0  0
  3  1  2  0  0  0  0
  3 12  1  0  0  0  0
  5  4  1  0  0  0  0
  6 12  2  0  0  0  0
  7  5  1  0  0  0  0
  7 11  1  0  0  0  0
  8  6  1  0  0  0  0
  9  4  2  0  0  0  0
 10  4  1  6  0  0  0
 10  3  1  0  0  0  0
 11  2  1  0  0  0  0
 13 15  1  0  0  0  0
 13  9  1  0  0  0  0
 14 13  2  0  0  0  0
 16 15  1  0  0  0  0
 16 17  1  0  0  0  0
 18 16  1  0  0  0  0
 19 11  1  0  0  0  0
 20 23  2  0  0  0  0
 21 22  1  0  0  0  0
 22 23  1  0  0  0  0
 23 19  1  0  0  0  0
 24 21  2  0  0  0  0
 25 21  1  0  0  0  0
 26 25  1  0  0  0  0
M  END
>  <MODEL>
5

>  <REMARK>
 VINA RESULT:      -5.6      2.835      3.873
  Name = 
  6 active torsions:
  status: ('A' for Active; 'I' for Inactive)
    1  A    between atoms: C_4  and  C_14
    2  A    between atoms: C_4  and  C_16
    3  A    between atoms: C_5  and  N_19
    4  A    between atoms: C_5  and  C_23
    5  A    between atoms: C_7  and  C_8
    6  A    between atoms: C_14  and  N_17
                            x       y       z     vdW  Elec       q    Type
                         _______ _______ _______ _____ _____    ______ ____

>  <TORSDO>
F 6

$$$$
=
 OpenBabel11072414233D

 26 27  0  0  1  0  0  0  0  0999 V2000
  160.4540  209.3330  152.7970 S   0  0  0  0  0  0  0  0  0  0  0  0
  161.0640  205.5230  151.5390 C   0  0  0  0  0  0  0  0  0  0  0  0
  160.9870  207.7910  152.6620 C   0  0  0  0  0  0  0  0  0  0  0  0
  160.9470  207.5060  150.1180 C   0  0  0  0  0  0  0  0  0  0  0  0
  160.4560  206.7000  148.9580 C   0  0  0  0  0  2  0  0  0  0  0  0
  161.7780  205.8780  153.8590 C   0  0  0  0  0  3  0  0  0  0  0  0
  161.0660  205.3000  149.0220 C   0  0  0  0  0  2  0  0  0  0  0  0
  161.5820  205.0300  152.6740 C   0  0  0  0  0  3  0  0  0  0  0  0
  161.7130  208.5550  149.9940 N   0  0  0  0  0  0  0  0  0  0  0  0
  160.5830  206.9540  151.4660 C   0  0  1  0  0  3  0  0  0  0  0  0
  160.9540  204.6970  150.3570 N   0  0  0  0  0  0  0  0  0  0  0  0
  161.5040  207.1470  153.8330 N   0  0  0  0  0  0  0  0  0  0  0  0
  162.2430  209.1220  148.7850 C   0  0  0  0  0  0  0  0  0  0  0  0
  163.1500  208.5010  148.1710 O   0  0  0  0  0  0  0  0  0  0  0  0
  161.6940  210.3750  148.1780 C   0  0  0  0  0  2  0  0  0  0  0  0
  162.3270  211.6080  148.8060 C   0  0  0  0  0  3  0  0  0  0  0  0
  161.2520  212.6430  149.0640 C   0  0  0  0  0  1  0  0  0  0  0  0
  163.3770  212.2020  147.8860 C   0  0  0  0  0  1  0  0  0  0  0  0
  161.0500  203.2420  150.4360 C   0  0  0  0  0  2  0  0  0  0  0  0
  160.2120  201.5260  149.0170 O   0  0  0  0  0  0  0  0  0  0  0  0
  161.1960  202.7760  146.5840 C   0  0  0  0  0  0  0  0  0  0  0  0
  161.3210  203.2760  147.9190 N   0  0  0  0  0  2  0  0  0  0  0  0
  160.8300  202.6210  149.0950 C   0  0  0  0  0  0  0  0  0  0  0  0
  160.5680  201.7100  146.3440 O   0  0  0  0  0  0  0  0  0  0  0  0
  161.7940  203.5410  145.4570 C   0  0  0  0  0  2  0  0  0  0  0  0
  161.4750  204.8920  145.5840 O   0  0  0  0  0  1  0  0  0  0  0  0
  2  8  2  0  0  0  0
  3  1  2  0  0  0  0
  3 12  1  0  0  0  0
  5  7  1  0  0  0  0
  5  4  1  0  0  0  0
  7 11  1  0  0  0  0
  8  6  1  0  0  0  0
  9  4  2  0  0  0  0
 10  4  1  6  0  0  0
 10  2  1  0  0  0  0
 10  3  1  0  0  0  0
 11 19  1  0  0  0  0
 11  2  1  0  0  0  0
 12  6  2  0  0  0  0
 13  9  1  0  0  0  0
 14 13  2  0  0  0  0
 15 13  1  0  0  0  0
 15 16  1  0  0  0  0
 16 17  1  0  0  0  0
 18 16  1  0  0  0  0
 20 23  2  0  0  0  0
 21 22  1  0  0  0  0
 22 23  1  0  0  0  0
 23 19  1  0  0  0  0
 24 21  2  0  0  0  0
 25 26  1  0  0  0  0
 25 21  1  0  0  0  0
M  END
>  <MODEL>
6

>  <REMARK>
 VINA RESULT:      -5.6      2.636      6.715
  Name = 
  6 active torsions:
  status: ('A' for Active; 'I' for Inactive)
    1  A    between atoms: C_4  and  C_14
    2  A    between atoms: C_4  and  C_16
    3  A    between atoms: C_5  and  N_19
    4  A    between atoms: C_5  and  C_23
    5  A    between atoms: C_7  and  C_8
    6  A    between atoms: C_14  and  N_17
                            x       y       z     vdW  Elec       q    Type
                         _______ _______ _______ _____ _____    ______ ____

>  <TORSDO>
F 6

$$$$
=
 OpenBabel11072414233D

 26 27  0  0  1  0  0  0  0  0999 V2000
  161.1240  209.1760  155.3580 S   0  0  0  0  0  0  0  0  0  0  0  0
  160.3140  211.5890  152.1970 C   0  0  0  0  0  0  0  0  0  0  0  0
  160.3680  210.1440  154.2750 C   0  0  0  0  0  0  0  0  0  0  0  0
  161.6550  209.5480  152.1430 C   0  0  0  0  0  0  0  0  0  0  0  0
  162.4560  210.0510  150.9840 C   0  0  0  0  0  2  0  0  0  0  0  0
  158.6140  211.7360  153.9580 C   0  0  0  0  0  3  0  0  0  0  0  0
  161.5690  210.9320  150.1040 C   0  0  0  0  0  2  0  0  0  0  0  0
  159.1760  212.1270  152.6570 C   0  0  0  0  0  3  0  0  0  0  0  0
  161.3620  208.2890  152.3240 N   0  0  0  0  0  0  0  0  0  0  0  0
  161.1080  210.6190  153.0420 C   0  0  1  0  0  3  0  0  0  0  0  0
  160.8110  211.9220  150.8800 N   0  0  0  0  0  0  0  0  0  0  0  0
  159.1730  210.8180  154.6850 N   0  0  0  0  0  0  0  0  0  0  0  0
  161.7050  207.1750  151.4860 C   0  0  0  0  0  0  0  0  0  0  0  0
  162.7330  206.5030  151.7610 O   0  0  0  0  0  0  0  0  0  0  0  0
  160.8370  206.7240  150.3530 C   0  0  0  0  0  2  0  0  0  0  0  0
  161.6760  206.3380  149.1430 C   0  0  0  0  0  3  0  0  0  0  0  0
  161.9500  207.5720  148.3110 C   0  0  0  0  0  1  0  0  0  0  0  0
  160.9490  205.3150  148.2890 C   0  0  0  0  0  1  0  0  0  0  0  0
  160.3220  213.0950  150.1590 C   0  0  0  0  0  2  0  0  0  0  0  0
  162.0640  213.6190  148.6260 O   0  0  0  0  0  0  0  0  0  0  0  0
  160.5720  212.7040  146.3040 C   0  0  0  0  0  0  0  0  0  0  0  0
  160.1390  212.6820  147.6680 N   0  0  0  0  0  2  0  0  0  0  0  0
  160.9030  213.1540  148.7850 C   0  0  0  0  0  0  0  0  0  0  0  0
  161.7250  213.1050  145.9930 O   0  0  0  0  0  0  0  0  0  0  0  0
  159.6540  212.2220  145.2380 C   0  0  0  0  0  2  0  0  0  0  0  0
  159.0970  213.3110  144.5680 O   0  0  0  0  0  1  0  0  0  0  0  0
  2  8  2  0  0  0  0
  2 10  1  0  0  0  0
  3 12  1  0  0  0  0
  3  1  2  0  0  0  0
  4  9  2  0  0  0  0
  5  4  1  0  0  0  0
  6 12  2  0  0  0  0
  7 11  1  0  0  0  0
  7  5  1  0  0  0  0
  8  6  1  0  0  0  0
 10  4  1  6  0  0  0
 10  3  1  0  0  0  0
 11  2  1  0  0  0  0
 13 14  2  0  0  0  0
 13  9  1  0  0  0  0
 15 13  1  0  0  0  0
 16 15  1  0  0  0  0
 17 16  1  0  0  0  0
 18 16  1  0  0  0  0
 19 11  1  0  0  0  0
 20 23  2  0  0  0  0
 21 22  1  0  0  0  0
 22 23  1  0  0  0  0
 23 19  1  0  0  0  0
 24 21  2  0  0  0  0
 25 21  1  0  0  0  0
 26 25  1  0  0  0  0
M  END
>  <MODEL>
7

>  <REMARK>
 VINA RESULT:      -5.5      2.146      3.126
  Name = 
  6 active torsions:
  status: ('A' for Active; 'I' for Inactive)
    1  A    between atoms: C_4  and  C_14
    2  A    between atoms: C_4  and  C_16
    3  A    between atoms: C_5  and  N_19
    4  A    between atoms: C_5  and  C_23
    5  A    between atoms: C_7  and  C_8
    6  A    between atoms: C_14  and  N_17
                            x       y       z     vdW  Elec       q    Type
                         _______ _______ _______ _____ _____    ______ ____

>  <TORSDO>
F 6

$$$$
=
 OpenBabel11072414233D

 26 27  0  0  1  0  0  0  0  0999 V2000
  160.4520  206.2000  147.7990 S   0  0  0  0  0  0  0  0  0  0  0  0
  161.4920  208.2520  151.1430 C   0  0  0  0  0  0  0  0  0  0  0  0
  161.1920  207.2080  148.8560 C   0  0  0  0  0  0  0  0  0  0  0  0
  160.9320  205.8770  151.0270 C   0  0  0  0  0  0  0  0  0  0  0  0
  160.4500  205.8750  152.4430 C   0  0  0  0  0  2  0  0  0  0  0  0
  162.3800  209.2690  149.0950 C   0  0  0  0  0  3  0  0  0  0  0  0
  161.2660  206.8820  153.2540 C   0  0  0  0  0  2  0  0  0  0  0  0
  162.1910  209.2310  150.5530 C   0  0  0  0  0  3  0  0  0  0  0  0
  161.5160  204.8540  150.4640 N   0  0  0  0  0  0  0  0  0  0  0  0
  160.7970  207.1920  150.3170 C   0  0  1  0  0  3  0  0  0  0  0  0
  161.3840  208.1830  152.5830 N   0  0  0  0  0  0  0  0  0  0  0  0
  161.9180  208.3260  148.3320 N   0  0  0  0  0  0  0  0  0  0  0  0
  161.8270  203.5820  151.0530 C   0  0  0  0  0  0  0  0  0  0  0  0
  162.2410  203.5490  152.2420 O   0  0  0  0  0  0  0  0  0  0  0  0
  161.5900  202.2870  150.3410 C   0  0  0  0  0  2  0  0  0  0  0  0
  160.5530  202.4520  149.2400 C   0  0  0  0  0  3  0  0  0  0  0  0
  159.5430  201.3280  149.3320 C   0  0  0  0  0  1  0  0  0  0  0  0
  161.2110  202.4170  147.8720 C   0  0  0  0  0  1  0  0  0  0  0  0
  161.7040  209.3340  153.4240 C   0  0  0  0  0  2  0  0  0  0  0  0
  159.8670  209.8740  154.8350 O   0  0  0  0  0  0  0  0  0  0  0  0
  158.8160  211.9000  153.0350 C   0  0  0  0  0  0  0  0  0  0  0  0
  159.9920  211.1080  152.8450 N   0  0  0  0  0  2  0  0  0  0  0  0
  160.4710  210.1090  153.7540 C   0  0  0  0  0  0  0  0  0  0  0  0
  158.1290  211.8040  154.0870 O   0  0  0  0  0  0  0  0  0  0  0  0
  158.4110  212.8720  151.9840 C   0  0  0  0  0  2  0  0  0  0  0  0
  159.5330  213.2810  151.2640 O   0  0  0  0  0  1  0  0  0  0  0  0
  1  3  2  0  0  0  0
  2 11  1  0  0  0  0
  4  5  1  0  0  0  0
  5  7  1  0  0  0  0
  6  8  1  0  0  0  0
  8  2  2  0  0  0  0
  9  4  2  0  0  0  0
  9 13  1  0  0  0  0
 10  3  1  6  0  0  0
 10  4  1  0  0  0  0
 10  2  1  0  0  0  0
 11  7  1  0  0  0  0
 11 19  1  0  0  0  0
 12  3  1  0  0  0  0
 12  6  2  0  0  0  0
 13 14  2  0  0  0  0
 15 13  1  0  0  0  0
 16 17  1  0  0  0  0
 16 15  1  0  0  0  0
 18 16  1  0  0  0  0
 19 23  1  0  0  0  0
 21 24  2  0  0  0  0
 22 21  1  0  0  0  0
 22 23  1  0  0  0  0
 23 20  2  0  0  0  0
 25 21  1  0  0  0  0
 26 25  1  0  0  0  0
M  END
>  <MODEL>
8

>  <REMARK>
 VINA RESULT:      -5.4      3.510      4.964
  Name = 
  6 active torsions:
  status: ('A' for Active; 'I' for Inactive)
    1  A    between atoms: C_4  and  C_14
    2  A    between atoms: C_4  and  C_16
    3  A    between atoms: C_5  and  N_19
    4  A    between atoms: C_5  and  C_23
    5  A    between atoms: C_7  and  C_8
    6  A    between atoms: C_14  and  N_17
                            x       y       z     vdW  Elec       q    Type
                         _______ _______ _______ _____ _____    ______ ____

>  <TORSDO>
F 6

$$$$
=
 OpenBabel11072414233D

 26 27  0  0  1  0  0  0  0  0999 V2000
  159.8960  210.4640  152.8230 S   0  0  0  0  0  0  0  0  0  0  0  0
  161.3310  206.7000  152.3350 C   0  0  0  0  0  0  0  0  0  0  0  0
  160.6930  209.0490  153.0300 C   0  0  0  0  0  0  0  0  0  0  0  0
  161.1210  208.3970  150.5910 C   0  0  0  0  0  0  0  0  0  0  0  0
  160.9690  207.3540  149.5310 C   0  0  0  0  0  2  0  0  0  0  0  0
  161.5830  207.5170  154.6340 C   0  0  0  0  0  3  0  0  0  0  0  0
  161.7850  206.1200  149.9180 C   0  0  0  0  0  2  0  0  0  0  0  0
  161.7290  206.4850  153.5970 C   0  0  0  0  0  3  0  0  0  0  0  0
  161.7120  209.5440  150.3940 N   0  0  0  0  0  0  0  0  0  0  0  0
  160.6370  207.9870  151.9520 C   0  0  1  0  0  3  0  0  0  0  0  0
  161.5570  205.7070  151.3090 N   0  0  0  0  0  0  0  0  0  0  0  0
  161.1100  208.6920  154.3530 N   0  0  0  0  0  0  0  0  0  0  0  0
  162.3310  210.0210  149.1890 C   0  0  0  0  0  0  0  0  0  0  0  0
  162.5640  209.2020  148.2620 O   0  0  0  0  0  0  0  0  0  0  0  0
  162.6270  211.4700  148.9560 C   0  0  0  0  0  2  0  0  0  0  0  0
  161.5760  212.1020  148.0550 C   0  0  0  0  0  3  0  0  0  0  0  0
  162.2650  212.9140  146.9790 C   0  0  0  0  0  1  0  0  0  0  0  0
  160.6610  213.0130  148.8540 C   0  0  0  0  0  1  0  0  0  0  0  0
  161.8790  204.3230  151.6490 C   0  0  0  0  0  2  0  0  0  0  0  0
  159.8690  203.0530  151.5620 O   0  0  0  0  0  0  0  0  0  0  0  0
  160.4540  201.9260  148.9470 C   0  0  0  0  0  0  0  0  0  0  0  0
  161.2580  202.8530  149.6830 N   0  0  0  0  0  2  0  0  0  0  0  0
  160.9380  203.3770  150.9780 C   0  0  0  0  0  0  0  0  0  0  0  0
  159.3370  201.5410  149.3860 O   0  0  0  0  0  0  0  0  0  0  0  0
  160.9320  201.4300  147.6290 C   0  0  0  0  0  2  0  0  0  0  0  0
  161.5760  200.2030  147.7940 O   0  0  0  0  0  1  0  0  0  0  0  0
  1  3  2  0  0  0  0
  2  8  2  0  0  0  0
  3 12  1  0  0  0  0
  5  7  1  0  0  0  0
  5  4  1  0  0  0  0
  7 11  1  0  0  0  0
  8  6  1  0  0  0  0
  9  4  2  0  0  0  0
 10  4  1  6  0  0  0
 10  2  1  0  0  0  0
 10  3  1  0  0  0  0
 11 19  1  0  0  0  0
 11  2  1  0  0  0  0
 12  6  2  0  0  0  0
 13  9  1  0  0  0  0
 14 13  2  0  0  0  0
 15 13  1  0  0  0  0
 16 18  1  0  0  0  0
 16 15  1  0  0  0  0
 17 16  1  0  0  0  0
 21 24  2  0  0  0  0
 21 22  1  0  0  0  0
 22 23  1  0  0  0  0
 23 20  2  0  0  0  0
 23 19  1  0  0  0  0
 25 26  1  0  0  0  0
 25 21  1  0  0  0  0
M  END
>  <MODEL>
9

>  <REMARK>
 VINA RESULT:      -5.4      2.783      7.256
  Name = 
  6 active torsions:
  status: ('A' for Active; 'I' for Inactive)
    1  A    between atoms: C_4  and  C_14
    2  A    between atoms: C_4  and  C_16
    3  A    between atoms: C_5  and  N_19
    4  A    between atoms: C_5  and  C_23
    5  A    between atoms: C_7  and  C_8
    6  A    between atoms: C_14  and  N_17
                            x       y       z     vdW  Elec       q    Type
                         _______ _______ _______ _____ _____    ______ ____

>  <TORSDO>
F 6

$$$$
