=
 OpenBabel11072410513D

 40 45  0  0  1  0  0  0  0  0999 V2000
  161.9810  211.1590  150.0780 C   0  0  0  0  0  3  0  0  0  0  0  0
  161.8400  209.3290  151.8110 C   0  0  0  0  0  0  0  0  0  0  0  0
  161.4940  210.3130  148.9550 C   0  0  0  0  0  2  0  0  0  0  0  0
  162.5830  208.2200  149.6860 C   0  0  0  0  0  3  0  0  0  0  0  0
  162.4040  209.1550  148.7550 C   0  0  0  0  0  3  0  0  0  0  0  0
  162.1040  210.7110  151.3270 C   0  0  0  0  0  3  0  0  0  0  0  0
  161.9680  208.2110  151.0360 C   0  0  0  0  0  0  0  0  0  0  0  0
  158.9440  211.8660  155.6540 C   0  0  0  0  0  0  0  0  0  0  0  0
  158.6490  211.8650  153.0840 C   0  0  0  0  0  0  0  0  0  0  0  0
  158.3300  211.7960  156.9100 C   0  0  0  0  0  3  0  0  0  0  0  0
  156.1440  211.7800  155.8850 C   0  0  0  0  0  3  0  0  0  0  0  0
  158.2610  212.7510  152.2780 O   0  0  0  0  0  0  0  0  0  0  0  0
  159.4720  210.7970  152.5950 N   0  0  0  0  0  2  0  0  0  0  0  0
  156.9410  211.7480  157.0280 C   0  0  0  0  0  3  0  0  0  0  0  0
  162.5750  210.8440  156.0550 C   0  0  0  0  0  1  0  0  0  0  0  0
  160.4400  212.0360  155.6590 C   0  0  0  0  0  2  0  0  0  0  0  0
  161.4230  209.2360  153.2670 C   0  0  1  0  0  3  0  0  0  0  0  0
  158.1310  211.8760  154.4790 C   0  0  0  0  0  0  0  0  0  0  0  0
  156.7360  211.8430  154.6240 C   0  0  0  0  0  3  0  0  0  0  0  0
  161.3350  210.5990  153.9390 C   0  0  1  0  0  3  0  0  0  0  0  0
  160.0670  209.8880  153.5550 C   0  0  1  0  0  3  0  0  0  0  0  0
  161.1990  210.7270  155.4330 C   0  0  1  0  0  3  0  0  0  0  0  0
  161.6060  206.8650  151.5360 C   0  0  0  0  0  0  0  0  0  0  0  0
  161.2570  205.4210  153.3610 N   0  0  0  0  0  0  0  0  0  0  0  0
  161.5440  206.6300  152.8750 N   0  0  0  0  0  0  0  0  0  0  0  0
  161.0270  204.3650  152.5400 C   0  0  0  0  0  3  0  0  0  0  0  0
  161.0940  204.5360  151.1550 C   0  0  0  0  0  0  0  0  0  0  0  0
  161.3940  205.8000  150.6550 C   0  0  0  0  0  3  0  0  0  0  0  0
  160.9470  203.5060  148.8030 C   0  0  0  0  0  0  0  0  0  0  0  0
  160.7740  202.2550  148.0440 C   0  0  0  0  0  3  0  0  0  0  0  0
  160.8380  203.4670  150.2330 N   0  0  0  0  0  2  0  0  0  0  0  0
  161.1290  202.1940  146.7580 C   0  0  0  0  0  0  0  0  0  0  0  0
  161.2220  204.6130  148.1760 N   0  0  0  0  0  0  0  0  0  0  0  0
  161.7850  203.3900  146.1090 C   0  0  0  0  0  2  0  0  0  0  0  0
  161.2520  204.6910  146.7130 C   0  0  0  0  0  2  0  0  0  0  0  0
  160.9360  200.9950  146.0630 O   0  0  0  0  0  0  0  0  0  0  0  0
  158.6560  201.0980  145.7540 F   0  0  0  0  0  0  0  0  0  0  0  0
  159.8590  200.7730  145.1540 C   0  0  0  0  0  0  0  0  0  0  0  0
  159.8400  199.4460  144.7600 F   0  0  0  0  0  0  0  0  0  0  0  0
  160.0380  201.5700  144.0400 F   0  0  0  0  0  0  0  0  0  0  0  0
  1  6  2  0  0  0  0
  3  1  1  0  0  0  0
  4  7  1  0  0  0  0
  5  3  1  0  0  0  0
  5  4  2  0  0  0  0
  6  2  1  0  0  0  0
  7 23  1  0  0  0  0
  7  2  2  0  0  0  0
  8 16  1  0  0  0  0
  8 10  1  0  0  0  0
  9 18  1  0  0  0  0
 10 14  2  0  0  0  0
 11 14  1  0  0  0  0
 12  9  2  0  0  0  0
 13  9  1  0  0  0  0
 13 21  1  0  0  0  0
 17  2  1  6  0  0  0
 17 21  1  0  0  0  0
 17 20  1  0  0  0  0
 18 19  1  0  0  0  0
 18  8  2  0  0  0  0
 19 11  2  0  0  0  0
 20 22  1  0  0  0  0
 21 20  1  0  0  0  0
 22 16  1  0  0  0  0
 22 15  1  0  0  0  0
 23 25  1  0  0  0  0
 25 24  2  0  0  0  0
 26 24  1  0  0  0  0
 27 26  2  0  0  0  0
 28 27  1  0  0  0  0
 28 23  2  0  0  0  0
 29 31  1  0  0  0  0
 30 29  1  0  0  0  0
 31 27  1  0  0  0  0
 32 30  2  0  0  0  0
 33 29  2  0  0  0  0
 34 35  1  0  0  0  0
 34 32  1  0  0  0  0
 35 33  1  0  0  0  0
 36 32  1  0  0  0  0
 38 37  1  0  0  0  0
 38 36  1  0  0  0  0
 39 38  1  0  0  0  0
 40 38  1  0  0  0  0
M  END
>  <MODEL>
1

>  <REMARK>
 VINA RESULT:      -8.1      0.000      0.000
  Name = 
  5 active torsions:
  status: ('A' for Active; 'I' for Inactive)
    1  A    between atoms: C_3  and  C_30
    2  A    between atoms: C_4  and  C_35
    3  A    between atoms: C_13  and  O_23
    4  A    between atoms: N_19  and  C_37
    5  A    between atoms: O_23  and  C_26
                            x       y       z     vdW  Elec       q    Type
                         _______ _______ _______ _____ _____    ______ ____

>  <TORSDO>
F 5

$$$$
=
 OpenBabel11072410513D

 40 45  0  0  1  0  0  0  0  0999 V2000
  161.1280  208.8870  155.9550 C   0  0  0  0  0  3  0  0  0  0  0  0
  160.6020  210.2440  153.8920 C   0  0  0  0  0  0  0  0  0  0  0  0
  160.2590  209.6850  156.8610 C   0  0  0  0  0  2  0  0  0  0  0  0
  160.6800  211.8750  155.7980 C   0  0  0  0  0  3  0  0  0  0  0  0
  160.7080  211.1020  156.8820 C   0  0  0  0  0  3  0  0  0  0  0  0
  161.2450  209.1380  154.6510 C   0  0  0  0  0  3  0  0  0  0  0  0
  160.2630  211.4490  154.4400 C   0  0  0  0  0  0  0  0  0  0  0  0
  161.8300  206.7340  149.9220 C   0  0  0  0  0  0  0  0  0  0  0  0
  161.7170  206.3710  152.4810 C   0  0  0  0  0  0  0  0  0  0  0  0
  161.5280  206.2390  148.6470 C   0  0  0  0  0  3  0  0  0  0  0  0
  160.6730  204.1920  149.6010 C   0  0  0  0  0  3  0  0  0  0  0  0
  162.3860  205.6450  153.2610 O   0  0  0  0  0  0  0  0  0  0  0  0
  161.0470  207.5230  153.0110 N   0  0  0  0  0  2  0  0  0  0  0  0
  160.9500  204.9800  148.4850 C   0  0  0  0  0  3  0  0  0  0  0  0
  162.2800  210.4910  149.6530 C   0  0  0  0  0  1  0  0  0  0  0  0
  162.5610  208.0490  149.9630 C   0  0  0  0  0  2  0  0  0  0  0  0
  160.3550  209.9460  152.4250 C   0  0  1  0  0  3  0  0  0  0  0  0
  161.5260  205.9380  151.0700 C   0  0  0  0  0  0  0  0  0  0  0  0
  160.9600  204.6690  150.8800 C   0  0  0  0  0  3  0  0  0  0  0  0
  161.5790  209.3660  151.7310 C   0  0  1  0  0  3  0  0  0  0  0  0
  160.4360  208.4550  152.0840 C   0  0  1  0  0  3  0  0  0  0  0  0
  161.6440  209.2440  150.2320 C   0  0  1  0  0  3  0  0  0  0  0  0
  159.5420  212.4850  153.6660 C   0  0  0  0  0  0  0  0  0  0  0  0
  158.2500  214.4530  153.6500 N   0  0  0  0  0  0  0  0  0  0  0  0
  158.9390  213.5220  154.3120 N   0  0  0  0  0  0  0  0  0  0  0  0
  158.1080  214.4020  152.3010 C   0  0  0  0  0  3  0  0  0  0  0  0
  158.6860  213.3530  151.5810 C   0  0  0  0  0  0  0  0  0  0  0  0
  159.4040  212.3850  152.2780 C   0  0  0  0  0  3  0  0  0  0  0  0
  159.6220  213.5350  149.1920 C   0  0  0  0  0  0  0  0  0  0  0  0
  159.3670  213.2380  147.7720 C   0  0  0  0  0  3  0  0  0  0  0  0
  158.5930  213.2550  150.1530 N   0  0  0  0  0  2  0  0  0  0  0  0
  160.3740  213.2280  146.8950 C   0  0  0  0  0  0  0  0  0  0  0  0
  160.7740  214.0180  149.5570 N   0  0  0  0  0  0  0  0  0  0  0  0
  161.7870  213.4450  147.3830 C   0  0  0  0  0  2  0  0  0  0  0  0
  161.8050  214.3910  148.5850 C   0  0  0  0  0  2  0  0  0  0  0  0
  160.0940  212.9570  145.5520 O   0  0  0  0  0  0  0  0  0  0  0  0
  158.8320  212.7120  143.6410 F   0  0  0  0  0  0  0  0  0  0  0  0
  158.7840  213.0110  144.9910 C   0  0  0  0  0  0  0  0  0  0  0  0
  158.2430  214.2730  145.1710 F   0  0  0  0  0  0  0  0  0  0  0  0
  157.9830  212.0840  145.6290 F   0  0  0  0  0  0  0  0  0  0  0  0
  1  3  1  0  0  0  0
  2  7  2  0  0  0  0
  2  6  1  0  0  0  0
  3  5  1  0  0  0  0
  4  5  2  0  0  0  0
  6  1  2  0  0  0  0
  7  4  1  0  0  0  0
  8 16  1  0  0  0  0
  8 18  1  0  0  0  0
  9 13  1  0  0  0  0
  9 12  2  0  0  0  0
 10  8  2  0  0  0  0
 11 19  1  0  0  0  0
 14 10  1  0  0  0  0
 14 11  2  0  0  0  0
 15 22  1  0  0  0  0
 16 22  1  0  0  0  0
 17  2  1  1  0  0  0
 18  9  1  0  0  0  0
 19 18  2  0  0  0  0
 20 21  1  0  0  0  0
 20 17  1  0  0  0  0
 21 17  1  0  0  0  0
 21 13  1  0  0  0  0
 22 20  1  0  0  0  0
 23 25  1  0  0  0  0
 23  7  1  0  0  0  0
 24 25  2  0  0  0  0
 26 24  1  0  0  0  0
 27 28  1  0  0  0  0
 27 26  2  0  0  0  0
 28 23  2  0  0  0  0
 29 33  2  0  0  0  0
 29 31  1  0  0  0  0
 30 29  1  0  0  0  0
 31 27  1  0  0  0  0
 32 34  1  0  0  0  0
 32 30  2  0  0  0  0
 34 35  1  0  0  0  0
 35 33  1  0  0  0  0
 36 32  1  0  0  0  0
 37 38  1  0  0  0  0
 38 39  1  0  0  0  0
 38 36  1  0  0  0  0
 38 40  1  0  0  0  0
M  END
>  <MODEL>
2

>  <REMARK>
 VINA RESULT:      -7.9      4.288      8.734
  Name = 
  5 active torsions:
  status: ('A' for Active; 'I' for Inactive)
    1  A    between atoms: C_3  and  C_30
    2  A    between atoms: C_4  and  C_35
    3  A    between atoms: C_13  and  O_23
    4  A    between atoms: N_19  and  C_37
    5  A    between atoms: O_23  and  C_26
                            x       y       z     vdW  Elec       q    Type
                         _______ _______ _______ _____ _____    ______ ____

>  <TORSDO>
F 5

$$$$
=
 OpenBabel11072410513D

 40 45  0  0  1  0  0  0  0  0999 V2000
  160.8930  206.9630  155.4830 C   0  0  0  0  0  3  0  0  0  0  0  0
  160.6310  208.9920  154.0050 C   0  0  0  0  0  0  0  0  0  0  0  0
  160.0870  207.5130  156.6050 C   0  0  0  0  0  2  0  0  0  0  0  0
  160.8180  209.8590  156.3530 C   0  0  0  0  0  3  0  0  0  0  0  0
  160.7030  208.7690  157.1080 C   0  0  0  0  0  3  0  0  0  0  0  0
  161.0990  207.6210  154.3430 C   0  0  0  0  0  3  0  0  0  0  0  0
  160.4150  209.9750  154.9300 C   0  0  0  0  0  0  0  0  0  0  0  0
  161.9150  207.1040  149.0680 C   0  0  0  0  0  0  0  0  0  0  0  0
  161.7330  205.8550  151.3270 C   0  0  0  0  0  0  0  0  0  0  0  0
  161.6390  207.1020  147.6950 C   0  0  0  0  0  3  0  0  0  0  0  0
  160.7370  204.8670  147.8400 C   0  0  0  0  0  3  0  0  0  0  0  0
  162.3750  204.8850  151.8090 O   0  0  0  0  0  0  0  0  0  0  0  0
  161.0640  206.7560  152.2200 N   0  0  0  0  0  2  0  0  0  0  0  0
  161.0500  205.9950  147.0840 C   0  0  0  0  0  3  0  0  0  0  0  0
  162.4170  210.7000  150.1660 C   0  0  0  0  0  1  0  0  0  0  0  0
  162.6600  208.3040  149.5900 C   0  0  0  0  0  2  0  0  0  0  0  0
  160.4170  209.2420  152.5240 C   0  0  1  0  0  3  0  0  0  0  0  0
  161.5740  205.9580  149.8510 C   0  0  0  0  0  0  0  0  0  0  0  0
  160.9970  204.8510  149.2100 C   0  0  0  0  0  3  0  0  0  0  0  0
  161.6510  208.9230  151.6920 C   0  0  1  0  0  3  0  0  0  0  0  0
  160.4880  207.9690  151.6750 C   0  0  1  0  0  3  0  0  0  0  0  0
  161.7520  209.3420  150.2500 C   0  0  1  0  0  3  0  0  0  0  0  0
  159.8610  211.2960  154.5550 C   0  0  0  0  0  0  0  0  0  0  0  0
  159.3120  213.4990  155.1720 N   0  0  0  0  0  0  0  0  0  0  0  0
  159.8370  212.3080  155.4640 N   0  0  0  0  0  0  0  0  0  0  0  0
  158.7650  213.7520  153.9560 C   0  0  0  0  0  3  0  0  0  0  0  0
  158.7420  212.7490  152.9830 C   0  0  0  0  0  0  0  0  0  0  0  0
  159.2910  211.5080  153.2950 C   0  0  0  0  0  3  0  0  0  0  0  0
  158.8910  213.4550  150.5150 C   0  0  0  0  0  0  0  0  0  0  0  0
  158.1890  213.4670  149.2200 C   0  0  0  0  0  3  0  0  0  0  0  0
  158.2010  212.9600  151.6710 N   0  0  0  0  0  2  0  0  0  0  0  0
  158.8690  213.6610  148.0870 C   0  0  0  0  0  0  0  0  0  0  0  0
  160.1250  213.8650  150.5870 N   0  0  0  0  0  0  0  0  0  0  0  0
  160.3730  213.7880  148.1350 C   0  0  0  0  0  2  0  0  0  0  0  0
  160.8180  214.4530  149.4390 C   0  0  0  0  0  2  0  0  0  0  0  0
  158.1680  213.6820  146.8770 O   0  0  0  0  0  0  0  0  0  0  0  0
  157.0610  211.8500  146.0250 F   0  0  0  0  0  0  0  0  0  0  0  0
  158.2050  212.6220  145.9230 C   0  0  0  0  0  0  0  0  0  0  0  0
  159.3220  211.8320  146.1370 F   0  0  0  0  0  0  0  0  0  0  0  0
  158.2730  213.1610  144.6530 F   0  0  0  0  0  0  0  0  0  0  0  0
  1  3  1  0  0  0  0
  2  6  1  0  0  0  0
  2  7  2  0  0  0  0
  3  5  1  0  0  0  0
  4  5  2  0  0  0  0
  6  1  2  0  0  0  0
  7  4  1  0  0  0  0
  8 16  1  0  0  0  0
  8 18  1  0  0  0  0
  9 12  2  0  0  0  0
  9 13  1  0  0  0  0
 10  8  2  0  0  0  0
 11 19  1  0  0  0  0
 14 10  1  0  0  0  0
 14 11  2  0  0  0  0
 15 22  1  0  0  0  0
 16 22  1  0  0  0  0
 17  2  1  1  0  0  0
 18  9  1  0  0  0  0
 19 18  2  0  0  0  0
 20 17  1  0  0  0  0
 21 20  1  0  0  0  0
 21 13  1  0  0  0  0
 21 17  1  0  0  0  0
 22 20  1  0  0  0  0
 23  7  1  0  0  0  0
 23 25  1  0  0  0  0
 24 25  2  0  0  0  0
 26 24  1  0  0  0  0
 27 28  1  0  0  0  0
 27 26  2  0  0  0  0
 28 23  2  0  0  0  0
 29 33  2  0  0  0  0
 29 31  1  0  0  0  0
 30 29  1  0  0  0  0
 31 27  1  0  0  0  0
 32 34  1  0  0  0  0
 32 30  2  0  0  0  0
 34 35  1  0  0  0  0
 35 33  1  0  0  0  0
 36 32  1  0  0  0  0
 38 37  1  0  0  0  0
 38 39  1  0  0  0  0
 38 36  1  0  0  0  0
 40 38  1  0  0  0  0
M  END
>  <MODEL>
3

>  <REMARK>
 VINA RESULT:      -7.8      4.054      8.779
  Name = 
  5 active torsions:
  status: ('A' for Active; 'I' for Inactive)
    1  A    between atoms: C_3  and  C_30
    2  A    between atoms: C_4  and  C_35
    3  A    between atoms: C_13  and  O_23
    4  A    between atoms: N_19  and  C_37
    5  A    between atoms: O_23  and  C_26
                            x       y       z     vdW  Elec       q    Type
                         _______ _______ _______ _____ _____    ______ ____

>  <TORSDO>
F 5

$$$$
=
 OpenBabel11072410513D

 40 45  0  0  1  0  0  0  0  0999 V2000
  160.8420  206.6000  154.6260 C   0  0  0  0  0  3  0  0  0  0  0  0
  160.7890  208.0820  152.5830 C   0  0  0  0  0  0  0  0  0  0  0  0
  160.2150  207.6010  155.5300 C   0  0  0  0  0  2  0  0  0  0  0  0
  161.2790  209.5920  154.5280 C   0  0  0  0  0  3  0  0  0  0  0  0
  161.0530  208.8270  155.5940 C   0  0  0  0  0  3  0  0  0  0  0  0
  161.0640  206.8260  153.3320 C   0  0  0  0  0  3  0  0  0  0  0  0
  160.7960  209.3260  153.1510 C   0  0  0  0  0  0  0  0  0  0  0  0
  161.7870  204.7760  148.3810 C   0  0  0  0  0  0  0  0  0  0  0  0
  161.6890  204.2570  150.9140 C   0  0  0  0  0  0  0  0  0  0  0  0
  161.4440  204.3790  147.0830 C   0  0  0  0  0  3  0  0  0  0  0  0
  160.5000  202.3200  147.9200 C   0  0  0  0  0  3  0  0  0  0  0  0
  162.3310  203.4500  151.6360 O   0  0  0  0  0  0  0  0  0  0  0  0
  161.0850  205.4050  151.5260 N   0  0  0  0  0  2  0  0  0  0  0  0
  160.8020  203.1630  146.8510 C   0  0  0  0  0  3  0  0  0  0  0  0
  162.4230  208.5150  148.3420 C   0  0  0  0  0  1  0  0  0  0  0  0
  162.5840  206.0480  148.4930 C   0  0  0  0  0  2  0  0  0  0  0  0
  160.5090  207.8910  151.1050 C   0  0  1  0  0  3  0  0  0  0  0  0
  161.4590  203.9250  149.4810 C   0  0  0  0  0  0  0  0  0  0  0  0
  160.8270  202.7000  149.2210 C   0  0  0  0  0  3  0  0  0  0  0  0
  161.6930  207.2960  150.3560 C   0  0  1  0  0  3  0  0  0  0  0  0
  160.5100  206.4230  150.6690 C   0  0  1  0  0  3  0  0  0  0  0  0
  161.7320  207.2680  148.8510 C   0  0  1  0  0  3  0  0  0  0  0  0
  160.4270  210.5380  152.3850 C   0  0  0  0  0  0  0  0  0  0  0  0
  158.8920  212.2760  151.9810 N   0  0  0  0  0  0  0  0  0  0  0  0
  159.2740  211.2020  152.6740 N   0  0  0  0  0  0  0  0  0  0  0  0
  159.6320  212.7480  150.9440 C   0  0  0  0  0  3  0  0  0  0  0  0
  160.8160  212.1000  150.5850 C   0  0  0  0  0  0  0  0  0  0  0  0
  161.2090  210.9800  151.3130 C   0  0  0  0  0  3  0  0  0  0  0  0
  161.2790  212.7800  148.1480 C   0  0  0  0  0  0  0  0  0  0  0  0
  162.2570  213.3940  147.2330 C   0  0  0  0  0  3  0  0  0  0  0  0
  161.6540  212.5630  149.5160 N   0  0  0  0  0  2  0  0  0  0  0  0
  161.8660  213.8550  146.0420 C   0  0  0  0  0  0  0  0  0  0  0  0
  160.0910  212.4700  147.7150 N   0  0  0  0  0  0  0  0  0  0  0  0
  160.4020  213.8170  145.6730 C   0  0  0  0  0  2  0  0  0  0  0  0
  159.7180  212.6040  146.3050 C   0  0  0  0  0  2  0  0  0  0  0  0
  162.8240  214.4180  145.1920 O   0  0  0  0  0  0  0  0  0  0  0  0
  162.0880  214.4410  143.0090 F   0  0  0  0  0  0  0  0  0  0  0  0
  163.0670  213.9630  143.8620 C   0  0  0  0  0  0  0  0  0  0  0  0
  163.0770  212.5790  143.8310 F   0  0  0  0  0  0  0  0  0  0  0  0
  164.2970  214.4300  143.4430 F   0  0  0  0  0  0  0  0  0  0  0  0
  1  3  1  0  0  0  0
  2  7  2  0  0  0  0
  2  6  1  0  0  0  0
  3  5  1  0  0  0  0
  4  5  2  0  0  0  0
  6  1  2  0  0  0  0
  7  4  1  0  0  0  0
  8 16  1  0  0  0  0
  8 18  1  0  0  0  0
  9 13  1  0  0  0  0
  9 12  2  0  0  0  0
 10  8  2  0  0  0  0
 11 19  1  0  0  0  0
 14 10  1  0  0  0  0
 14 11  2  0  0  0  0
 15 22  1  0  0  0  0
 16 22  1  0  0  0  0
 17  2  1  1  0  0  0
 18  9  1  0  0  0  0
 19 18  2  0  0  0  0
 20 21  1  0  0  0  0
 20 17  1  0  0  0  0
 21 17  1  0  0  0  0
 21 13  1  0  0  0  0
 22 20  1  0  0  0  0
 23 25  1  0  0  0  0
 23  7  1  0  0  0  0
 24 25  2  0  0  0  0
 26 24  1  0  0  0  0
 27 26  2  0  0  0  0
 27 28  1  0  0  0  0
 28 23  2  0  0  0  0
 29 31  1  0  0  0  0
 30 29  1  0  0  0  0
 31 27  1  0  0  0  0
 32 30  2  0  0  0  0
 33 29  2  0  0  0  0
 34 32  1  0  0  0  0
 34 35  1  0  0  0  0
 35 33  1  0  0  0  0
 36 32  1  0  0  0  0
 37 38  1  0  0  0  0
 38 36  1  0  0  0  0
 39 38  1  0  0  0  0
 40 38  1  0  0  0  0
M  END
>  <MODEL>
4

>  <REMARK>
 VINA RESULT:      -7.6      4.562      9.225
  Name = 
  5 active torsions:
  status: ('A' for Active; 'I' for Inactive)
    1  A    between atoms: C_3  and  C_30
    2  A    between atoms: C_4  and  C_35
    3  A    between atoms: C_13  and  O_23
    4  A    between atoms: N_19  and  C_37
    5  A    between atoms: O_23  and  C_26
                            x       y       z     vdW  Elec       q    Type
                         _______ _______ _______ _____ _____    ______ ____

>  <TORSDO>
F 5

$$$$
=
 OpenBabel11072410513D

 40 45  0  0  1  0  0  0  0  0999 V2000
  160.8770  212.9820  150.1090 C   0  0  0  0  0  3  0  0  0  0  0  0
  160.9730  210.9060  151.5430 C   0  0  0  0  0  0  0  0  0  0  0  0
  160.7440  212.2460  148.8230 C   0  0  0  0  0  2  0  0  0  0  0  0
  162.2080  210.3520  149.4280 C   0  0  0  0  0  3  0  0  0  0  0  0
  161.9220  211.3650  148.6140 C   0  0  0  0  0  3  0  0  0  0  0  0
  160.9540  212.3720  151.2920 C   0  0  0  0  0  3  0  0  0  0  0  0
  161.4580  209.9860  150.6550 C   0  0  0  0  0  0  0  0  0  0  0  0
  157.9730  212.6600  155.7260 C   0  0  0  0  0  0  0  0  0  0  0  0
  157.9100  213.3520  153.2340 C   0  0  0  0  0  0  0  0  0  0  0  0
  157.2440  212.3340  156.8770 C   0  0  0  0  0  3  0  0  0  0  0  0
  155.1660  212.8140  155.7460 C   0  0  0  0  0  3  0  0  0  0  0  0
  157.6740  214.4520  152.6690 O   0  0  0  0  0  0  0  0  0  0  0  0
  158.6790  212.3650  152.5340 N   0  0  0  0  0  2  0  0  0  0  0  0
  155.8510  212.4050  156.8880 C   0  0  0  0  0  3  0  0  0  0  0  0
  161.4510  211.1890  156.0750 C   0  0  0  0  0  1  0  0  0  0  0  0
  159.4710  212.6630  155.8720 C   0  0  0  0  0  2  0  0  0  0  0  0
  160.4210  210.4860  152.8920 C   0  0  1  0  0  3  0  0  0  0  0  0
  157.2720  213.0580  154.5460 C   0  0  0  0  0  0  0  0  0  0  0  0
  155.8720  213.1370  154.5870 C   0  0  0  0  0  3  0  0  0  0  0  0
  160.3900  211.6310  153.8940 C   0  0  1  0  0  3  0  0  0  0  0  0
  159.1060  211.1820  153.2550 C   0  0  1  0  0  3  0  0  0  0  0  0
  160.1320  211.3830  155.3570 C   0  0  1  0  0  3  0  0  0  0  0  0
  161.3720  208.5310  150.9110 C   0  0  0  0  0  0  0  0  0  0  0  0
  161.1700  206.7650  152.4540 N   0  0  0  0  0  0  0  0  0  0  0  0
  161.2140  208.0710  152.1820 N   0  0  0  0  0  0  0  0  0  0  0  0
  161.2950  205.8340  151.4740 C   0  0  0  0  0  3  0  0  0  0  0  0
  161.4790  206.2410  150.1500 C   0  0  0  0  0  0  0  0  0  0  0  0
  161.5240  207.6050  149.8740 C   0  0  0  0  0  3  0  0  0  0  0  0
  161.3020  203.9040  149.0920 C   0  0  0  0  0  0  0  0  0  0  0  0
  161.3510  203.1450  147.8310 C   0  0  0  0  0  3  0  0  0  0  0  0
  161.5940  205.3080  149.0660 N   0  0  0  0  0  2  0  0  0  0  0  0
  160.8320  201.9160  147.7640 C   0  0  0  0  0  0  0  0  0  0  0  0
  160.9710  203.3020  150.1990 N   0  0  0  0  0  0  0  0  0  0  0  0
  160.1220  201.3420  148.9670 C   0  0  0  0  0  2  0  0  0  0  0  0
  160.7530  201.8550  150.2620 C   0  0  0  0  0  2  0  0  0  0  0  0
  160.9110  201.2170  146.5540 O   0  0  0  0  0  0  0  0  0  0  0  0
  160.6000  202.7100  144.8280 F   0  0  0  0  0  0  0  0  0  0  0  0
  160.1340  201.5410  145.4030 C   0  0  0  0  0  0  0  0  0  0  0  0
  158.8040  201.6930  145.7560 F   0  0  0  0  0  0  0  0  0  0  0  0
  160.2400  200.5140  144.4850 F   0  0  0  0  0  0  0  0  0  0  0  0
  1  6  2  0  0  0  0
  3  1  1  0  0  0  0
  4  7  1  0  0  0  0
  5  3  1  0  0  0  0
  5  4  2  0  0  0  0
  6  2  1  0  0  0  0
  7 23  1  0  0  0  0
  7  2  2  0  0  0  0
  8 16  1  0  0  0  0
  8 10  1  0  0  0  0
  9 18  1  0  0  0  0
 10 14  2  0  0  0  0
 11 14  1  0  0  0  0
 12  9  2  0  0  0  0
 13  9  1  0  0  0  0
 13 21  1  0  0  0  0
 17  2  1  6  0  0  0
 17 21  1  0  0  0  0
 17 20  1  0  0  0  0
 18 19  1  0  0  0  0
 18  8  2  0  0  0  0
 19 11  2  0  0  0  0
 20 22  1  0  0  0  0
 21 20  1  0  0  0  0
 22 16  1  0  0  0  0
 22 15  1  0  0  0  0
 23 25  1  0  0  0  0
 25 24  2  0  0  0  0
 26 24  1  0  0  0  0
 27 26  2  0  0  0  0
 28 27  1  0  0  0  0
 28 23  2  0  0  0  0
 29 33  2  0  0  0  0
 30 29  1  0  0  0  0
 31 29  1  0  0  0  0
 31 27  1  0  0  0  0
 32 30  2  0  0  0  0
 32 34  1  0  0  0  0
 33 35  1  0  0  0  0
 34 35  1  0  0  0  0
 36 32  1  0  0  0  0
 37 38  1  0  0  0  0
 38 39  1  0  0  0  0
 38 36  1  0  0  0  0
 40 38  1  0  0  0  0
M  END
>  <MODEL>
5

>  <REMARK>
 VINA RESULT:      -7.6      1.264      1.926
  Name = 
  5 active torsions:
  status: ('A' for Active; 'I' for Inactive)
    1  A    between atoms: C_3  and  C_30
    2  A    between atoms: C_4  and  C_35
    3  A    between atoms: C_13  and  O_23
    4  A    between atoms: N_19  and  C_37
    5  A    between atoms: O_23  and  C_26
                            x       y       z     vdW  Elec       q    Type
                         _______ _______ _______ _____ _____    ______ ____

>  <TORSDO>
F 5

$$$$
=
 OpenBabel11072410513D

 40 45  0  0  1  0  0  0  0  0999 V2000
  157.2880  214.3950  153.0200 C   0  0  0  0  0  3  0  0  0  0  0  0
  159.1110  212.9640  152.0190 C   0  0  0  0  0  0  0  0  0  0  0  0
  157.3450  213.7590  154.3630 C   0  0  0  0  0  2  0  0  0  0  0  0
  157.8240  211.4690  153.5710 C   0  0  0  0  0  3  0  0  0  0  0  0
  157.0470  212.3070  154.2540 C   0  0  0  0  0  3  0  0  0  0  0  0
  158.0880  214.0440  152.0130 C   0  0  0  0  0  3  0  0  0  0  0  0
  159.0320  211.8430  152.7970 C   0  0  0  0  0  0  0  0  0  0  0  0
  160.5460  212.5960  146.7850 C   0  0  0  0  0  0  0  0  0  0  0  0
  158.2200  212.9990  147.8430 C   0  0  0  0  0  0  0  0  0  0  0  0
  161.4610  212.9440  145.7840 C   0  0  0  0  0  3  0  0  0  0  0  0
  159.8590  214.4530  144.7900 C   0  0  0  0  0  3  0  0  0  0  0  0
  157.0620  212.6430  147.4990 O   0  0  0  0  0  0  0  0  0  0  0  0
  158.4650  213.3170  149.2200 N   0  0  0  0  0  2  0  0  0  0  0  0
  161.1250  213.8680  144.7950 C   0  0  0  0  0  3  0  0  0  0  0  0
  162.4690  210.9930  149.6350 C   0  0  0  0  0  1  0  0  0  0  0  0
  160.9790  211.5010  147.7230 C   0  0  0  0  0  2  0  0  0  0  0  0
  160.2710  213.1850  151.0670 C   0  0  1  0  0  3  0  0  0  0  0  0
  159.2560  213.2110  146.7960 C   0  0  0  0  0  0  0  0  0  0  0  0
  158.9360  214.1260  145.7820 C   0  0  0  0  0  3  0  0  0  0  0  0
  160.3170  212.1530  149.9500 C   0  0  1  0  0  3  0  0  0  0  0  0
  159.8330  213.5430  149.6440 C   0  0  1  0  0  3  0  0  0  0  0  0
  161.5210  212.0210  149.0550 C   0  0  1  0  0  3  0  0  0  0  0  0
  160.1200  210.8390  152.8350 C   0  0  0  0  0  0  0  0  0  0  0  0
  162.3410  210.2950  153.3930 N   0  0  0  0  0  0  0  0  0  0  0  0
  161.3270  211.1620  153.3750 N   0  0  0  0  0  0  0  0  0  0  0  0
  162.2180  209.0520  152.8600 C   0  0  0  0  0  3  0  0  0  0  0  0
  161.0100  208.6650  152.2740 C   0  0  0  0  0  0  0  0  0  0  0  0
  159.9560  209.5750  152.2590 C   0  0  0  0  0  3  0  0  0  0  0  0
  160.9620  206.9650  150.3440 C   0  0  0  0  0  0  0  0  0  0  0  0
  160.8430  205.5380  149.9980 C   0  0  0  0  0  3  0  0  0  0  0  0
  160.8080  207.3590  151.7160 N   0  0  0  0  0  2  0  0  0  0  0  0
  161.2400  205.1010  148.8000 C   0  0  0  0  0  0  0  0  0  0  0  0
  161.2300  207.8380  149.4160 N   0  0  0  0  0  0  0  0  0  0  0  0
  161.8870  206.0650  147.8330 C   0  0  0  0  0  2  0  0  0  0  0  0
  161.3050  207.4700  148.0000 C   0  0  0  0  0  2  0  0  0  0  0  0
  161.0980  203.7430  148.4980 O   0  0  0  0  0  0  0  0  0  0  0  0
  161.1780  203.2340  150.7440 F   0  0  0  0  0  0  0  0  0  0  0  0
  160.9070  202.7300  149.4840 C   0  0  0  0  0  0  0  0  0  0  0  0
  161.7370  201.6530  149.2240 F   0  0  0  0  0  0  0  0  0  0  0  0
  159.5930  202.3030  149.4430 F   0  0  0  0  0  0  0  0  0  0  0  0
  1  3  1  0  0  0  0
  2  7  2  0  0  0  0
  4  5  2  0  0  0  0
  5  3  1  0  0  0  0
  6  2  1  0  0  0  0
  6  1  2  0  0  0  0
  7 23  1  0  0  0  0
  7  4  1  0  0  0  0
  8 18  1  0  0  0  0
  8 16  1  0  0  0  0
  9 13  1  0  0  0  0
 10  8  2  0  0  0  0
 11 14  2  0  0  0  0
 11 19  1  0  0  0  0
 12  9  2  0  0  0  0
 13 21  1  0  0  0  0
 14 10  1  0  0  0  0
 16 22  1  0  0  0  0
 17  2  1  1  0  0  0
 18  9  1  0  0  0  0
 19 18  2  0  0  0  0
 20 17  1  0  0  0  0
 21 20  1  0  0  0  0
 21 17  1  0  0  0  0
 22 15  1  0  0  0  0
 22 20  1  0  0  0  0
 23 25  1  0  0  0  0
 25 24  2  0  0  0  0
 26 24  1  0  0  0  0
 27 26  2  0  0  0  0
 28 27  1  0  0  0  0
 28 23  2  0  0  0  0
 29 31  1  0  0  0  0
 30 29  1  0  0  0  0
 31 27  1  0  0  0  0
 32 30  2  0  0  0  0
 33 29  2  0  0  0  0
 34 35  1  0  0  0  0
 34 32  1  0  0  0  0
 35 33  1  0  0  0  0
 36 32  1  0  0  0  0
 36 38  1  0  0  0  0
 38 37  1  0  0  0  0
 39 38  1  0  0  0  0
 40 38  1  0  0  0  0
M  END
>  <MODEL>
6

>  <REMARK>
 VINA RESULT:      -7.2      3.129      6.343
  Name = 
  5 active torsions:
  status: ('A' for Active; 'I' for Inactive)
    1  A    between atoms: C_3  and  C_30
    2  A    between atoms: C_4  and  C_35
    3  A    between atoms: C_13  and  O_23
    4  A    between atoms: N_19  and  C_37
    5  A    between atoms: O_23  and  C_26
                            x       y       z     vdW  Elec       q    Type
                         _______ _______ _______ _____ _____    ______ ____

>  <TORSDO>
F 5

$$$$
=
 OpenBabel11072410513D

 40 45  0  0  1  0  0  0  0  0999 V2000
  156.5240  214.2600  153.2680 C   0  0  0  0  0  3  0  0  0  0  0  0
  158.6560  212.9180  153.1030 C   0  0  0  0  0  0  0  0  0  0  0  0
  156.3190  214.0020  154.7180 C   0  0  0  0  0  2  0  0  0  0  0  0
  157.1790  211.6870  154.7180 C   0  0  0  0  0  3  0  0  0  0  0  0
  156.1890  212.5420  154.9640 C   0  0  0  0  0  3  0  0  0  0  0  0
  157.5690  213.7920  152.5860 C   0  0  0  0  0  3  0  0  0  0  0  0
  158.4980  212.0320  154.1330 C   0  0  0  0  0  0  0  0  0  0  0  0
  160.9970  212.5200  148.2100 C   0  0  0  0  0  0  0  0  0  0  0  0
  158.5510  213.0810  148.8380 C   0  0  0  0  0  0  0  0  0  0  0  0
  162.1020  212.8120  147.4020 C   0  0  0  0  0  3  0  0  0  0  0  0
  160.8220  214.4530  146.1760 C   0  0  0  0  0  3  0  0  0  0  0  0
  157.4540  212.8190  148.2790 O   0  0  0  0  0  0  0  0  0  0  0  0
  158.5610  213.3600  150.2450 N   0  0  0  0  0  2  0  0  0  0  0  0
  162.0200  213.7740  146.3950 C   0  0  0  0  0  3  0  0  0  0  0  0
  162.2440  210.7340  151.3150 C   0  0  0  0  0  1  0  0  0  0  0  0
  161.1700  211.3810  149.1790 C   0  0  0  0  0  2  0  0  0  0  0  0
  159.9840  213.0640  152.3850 C   0  0  1  0  0  3  0  0  0  0  0  0
  159.7740  213.2300  148.0040 C   0  0  0  0  0  0  0  0  0  0  0  0
  159.7120  214.1810  146.9750 C   0  0  0  0  0  3  0  0  0  0  0  0
  160.1600  212.0480  151.2660 C   0  0  1  0  0  3  0  0  0  0  0  0
  159.8410  213.4760  150.9170 C   0  0  1  0  0  3  0  0  0  0  0  0
  161.4950  211.8390  150.6020 C   0  0  1  0  0  3  0  0  0  0  0  0
  159.6320  211.2490  154.6730 C   0  0  0  0  0  0  0  0  0  0  0  0
  161.6210  211.1880  155.9300 N   0  0  0  0  0  0  0  0  0  0  0  0
  160.5660  211.8540  155.4560 N   0  0  0  0  0  0  0  0  0  0  0  0
  161.8170  209.8760  155.6390 C   0  0  0  0  0  3  0  0  0  0  0  0
  160.9040  209.2010  154.8240 C   0  0  0  0  0  0  0  0  0  0  0  0
  159.8060  209.9030  154.3340 C   0  0  0  0  0  3  0  0  0  0  0  0
  161.1010  207.2240  153.1930 C   0  0  0  0  0  0  0  0  0  0  0  0
  161.3860  205.7830  153.0740 C   0  0  0  0  0  3  0  0  0  0  0  0
  161.0420  207.8110  154.5010 N   0  0  0  0  0  2  0  0  0  0  0  0
  161.7130  205.2570  151.8900 C   0  0  0  0  0  0  0  0  0  0  0  0
  160.9350  207.9430  152.1200 N   0  0  0  0  0  0  0  0  0  0  0  0
  161.8690  206.1630  150.6910 C   0  0  0  0  0  2  0  0  0  0  0  0
  160.9060  207.3480  150.7820 C   0  0  0  0  0  2  0  0  0  0  0  0
  161.9620  203.8830  151.8100 O   0  0  0  0  0  0  0  0  0  0  0  0
  161.5870  201.8540  150.7860 F   0  0  0  0  0  0  0  0  0  0  0  0
  160.9810  202.9230  151.4220 C   0  0  0  0  0  0  0  0  0  0  0  0
  160.0570  203.5080  150.5720 F   0  0  0  0  0  0  0  0  0  0  0  0
  160.3270  202.4660  152.5490 F   0  0  0  0  0  0  0  0  0  0  0  0
  1  3  1  0  0  0  0
  2  7  2  0  0  0  0
  3  5  1  0  0  0  0
  4  5  2  0  0  0  0
  6  2  1  0  0  0  0
  6  1  2  0  0  0  0
  7 23  1  0  0  0  0
  7  4  1  0  0  0  0
  8 16  1  0  0  0  0
  9 13  1  0  0  0  0
 10  8  2  0  0  0  0
 11 14  2  0  0  0  0
 11 19  1  0  0  0  0
 12  9  2  0  0  0  0
 13 21  1  0  0  0  0
 14 10  1  0  0  0  0
 16 22  1  0  0  0  0
 17  2  1  1  0  0  0
 18  8  1  0  0  0  0
 18  9  1  0  0  0  0
 19 18  2  0  0  0  0
 20 17  1  0  0  0  0
 21 20  1  0  0  0  0
 21 17  1  0  0  0  0
 22 20  1  0  0  0  0
 22 15  1  0  0  0  0
 23 25  1  0  0  0  0
 25 24  2  0  0  0  0
 26 24  1  0  0  0  0
 27 26  2  0  0  0  0
 28 23  2  0  0  0  0
 28 27  1  0  0  0  0
 29 31  1  0  0  0  0
 30 29  1  0  0  0  0
 31 27  1  0  0  0  0
 32 30  2  0  0  0  0
 33 29  2  0  0  0  0
 34 35  1  0  0  0  0
 34 32  1  0  0  0  0
 35 33  1  0  0  0  0
 36 32  1  0  0  0  0
 37 38  1  0  0  0  0
 38 36  1  0  0  0  0
 38 40  1  0  0  0  0
 39 38  1  0  0  0  0
M  END
>  <MODEL>
7

>  <REMARK>
 VINA RESULT:      -7.1      3.303      6.700
  Name = 
  5 active torsions:
  status: ('A' for Active; 'I' for Inactive)
    1  A    between atoms: C_3  and  C_30
    2  A    between atoms: C_4  and  C_35
    3  A    between atoms: C_13  and  O_23
    4  A    between atoms: N_19  and  C_37
    5  A    between atoms: O_23  and  C_26
                            x       y       z     vdW  Elec       q    Type
                         _______ _______ _______ _____ _____    ______ ____

>  <TORSDO>
F 5

$$$$
=
 OpenBabel11072410513D

 40 45  0  0  1  0  0  0  0  0999 V2000
  160.6060  211.7160  157.2580 C   0  0  0  0  0  3  0  0  0  0  0  0
  159.8930  210.5160  155.1550 C   0  0  0  0  0  0  0  0  0  0  0  0
  162.0130  211.9190  156.8220 C   0  0  0  0  0  2  0  0  0  0  0  0
  162.2470  209.7770  155.6160 C   0  0  0  0  0  3  0  0  0  0  0  0
  162.6640  210.6080  156.5690 C   0  0  0  0  0  3  0  0  0  0  0  0
  159.6880  211.1170  156.5000 C   0  0  0  0  0  3  0  0  0  0  0  0
  161.0810  209.9940  154.7250 C   0  0  0  0  0  0  0  0  0  0  0  0
  157.1130  213.5090  151.5640 C   0  0  0  0  0  0  0  0  0  0  0  0
  159.6350  213.5260  152.1380 C   0  0  0  0  0  0  0  0  0  0  0  0
  156.1310  213.5470  150.5660 C   0  0  0  0  0  3  0  0  0  0  0  0
  157.8170  213.8570  148.8650 C   0  0  0  0  0  3  0  0  0  0  0  0
  160.4870  214.4530  152.1750 O   0  0  0  0  0  0  0  0  0  0  0  0
  159.8700  212.3380  152.9080 N   0  0  0  0  0  2  0  0  0  0  0  0
  156.4780  213.7150  149.2250 C   0  0  0  0  0  3  0  0  0  0  0  0
  155.5840  211.9440  154.6630 C   0  0  0  0  0  1  0  0  0  0  0  0
  156.6100  213.4460  152.9820 C   0  0  0  0  0  2  0  0  0  0  0  0
  158.6600  210.5040  154.2710 C   0  0  1  0  0  3  0  0  0  0  0  0
  158.4880  213.6310  151.1960 C   0  0  0  0  0  0  0  0  0  0  0  0
  158.8100  213.8150  149.8430 C   0  0  0  0  0  3  0  0  0  0  0  0
  157.9980  211.8700  154.1700 C   0  0  1  0  0  3  0  0  0  0  0  0
  158.8060  211.3600  153.0100 C   0  0  1  0  0  3  0  0  0  0  0  0
  156.6280  212.0340  153.5690 C   0  0  1  0  0  3  0  0  0  0  0  0
  161.2610  209.4890  153.3450 C   0  0  0  0  0  0  0  0  0  0  0  0
  161.5940  209.9460  151.0600 N   0  0  0  0  0  0  0  0  0  0  0  0
  161.4650  210.3630  152.3210 N   0  0  0  0  0  0  0  0  0  0  0  0
  161.5140  208.6290  150.7390 C   0  0  0  0  0  3  0  0  0  0  0  0
  161.2880  207.6830  151.7420 C   0  0  0  0  0  0  0  0  0  0  0  0
  161.1540  208.1250  153.0560 C   0  0  0  0  0  3  0  0  0  0  0  0
  161.1270  205.6390  150.1890 C   0  0  0  0  0  0  0  0  0  0  0  0
  161.2070  204.1700  150.1190 C   0  0  0  0  0  3  0  0  0  0  0  0
  161.2180  206.2760  151.4720 N   0  0  0  0  0  2  0  0  0  0  0  0
  161.3970  203.5620  148.9440 C   0  0  0  0  0  0  0  0  0  0  0  0
  161.0040  206.3350  149.0960 N   0  0  0  0  0  0  0  0  0  0  0  0
  161.6090  204.3940  147.7020 C   0  0  0  0  0  2  0  0  0  0  0  0
  160.8230  205.7030  147.7870 C   0  0  0  0  0  2  0  0  0  0  0  0
  161.4520  202.1650  148.9120 O   0  0  0  0  0  0  0  0  0  0  0  0
  159.3160  201.3210  148.7310 F   0  0  0  0  0  0  0  0  0  0  0  0
  160.5670  201.3560  148.1400 C   0  0  0  0  0  0  0  0  0  0  0  0
  161.0690  200.0700  148.0360 F   0  0  0  0  0  0  0  0  0  0  0  0
  160.4520  201.8970  146.8730 F   0  0  0  0  0  0  0  0  0  0  0  0
  2  6  1  0  0  0  0
  3  1  1  0  0  0  0
  4  5  2  0  0  0  0
  5  3  1  0  0  0  0
  6  1  2  0  0  0  0
  7  2  2  0  0  0  0
  7  4  1  0  0  0  0
  8 16  1  0  0  0  0
  9 12  2  0  0  0  0
  9 13  1  0  0  0  0
 10  8  2  0  0  0  0
 11 14  2  0  0  0  0
 11 19  1  0  0  0  0
 13 21  1  0  0  0  0
 14 10  1  0  0  0  0
 16 22  1  0  0  0  0
 17  2  1  1  0  0  0
 18  8  1  0  0  0  0
 18  9  1  0  0  0  0
 19 18  2  0  0  0  0
 20 17  1  0  0  0  0
 21 20  1  0  0  0  0
 21 17  1  0  0  0  0
 22 20  1  0  0  0  0
 22 15  1  0  0  0  0
 23  7  1  0  0  0  0
 24 25  1  0  0  0  0
 25 23  2  0  0  0  0
 26 24  2  0  0  0  0
 26 27  1  0  0  0  0
 27 28  2  0  0  0  0
 28 23  1  0  0  0  0
 29 31  1  0  0  0  0
 30 29  1  0  0  0  0
 31 27  1  0  0  0  0
 32 30  2  0  0  0  0
 33 29  2  0  0  0  0
 34 35  1  0  0  0  0
 34 32  1  0  0  0  0
 35 33  1  0  0  0  0
 36 32  1  0  0  0  0
 38 37  1  0  0  0  0
 38 36  1  0  0  0  0
 39 38  1  0  0  0  0
 40 38  1  0  0  0  0
M  END
>  <MODEL>
8

>  <REMARK>
 VINA RESULT:      -6.1      2.175      4.614
  Name = 
  5 active torsions:
  status: ('A' for Active; 'I' for Inactive)
    1  A    between atoms: C_3  and  C_30
    2  A    between atoms: C_4  and  C_35
    3  A    between atoms: C_13  and  O_23
    4  A    between atoms: N_19  and  C_37
    5  A    between atoms: O_23  and  C_26
                            x       y       z     vdW  Elec       q    Type
                         _______ _______ _______ _____ _____    ______ ____

>  <TORSDO>
F 5

$$$$
=
 OpenBabel11072410513D

 40 45  0  0  1  0  0  0  0  0999 V2000
  162.2250  210.5290  148.1020 C   0  0  0  0  0  3  0  0  0  0  0  0
  161.9570  209.4510  150.3690 C   0  0  0  0  0  0  0  0  0  0  0  0
  162.4980  211.8900  148.6360 C   0  0  0  0  0  2  0  0  0  0  0  0
  160.9640  211.7480  150.5670 C   0  0  0  0  0  3  0  0  0  0  0  0
  161.3450  212.3600  149.4480 C   0  0  0  0  0  3  0  0  0  0  0  0
  162.0120  209.4700  148.8830 C   0  0  0  0  0  3  0  0  0  0  0  0
  161.5700  210.5180  151.1320 C   0  0  0  0  0  0  0  0  0  0  0  0
  160.7840  204.1400  150.3920 C   0  0  0  0  0  0  0  0  0  0  0  0
  160.5030  205.8930  148.5110 C   0  0  0  0  0  0  0  0  0  0  0  0
  161.1800  202.8440  150.7460 C   0  0  0  0  0  3  0  0  0  0  0  0
  161.6000  202.2990  148.4310 C   0  0  0  0  0  3  0  0  0  0  0  0
  159.6390  206.0280  147.6050 O   0  0  0  0  0  0  0  0  0  0  0  0
  161.2520  207.0420  148.9300 N   0  0  0  0  0  2  0  0  0  0  0  0
  161.5900  201.9300  149.7750 C   0  0  0  0  0  3  0  0  0  0  0  0
  160.9110  206.3030  153.5060 C   0  0  0  0  0  1  0  0  0  0  0  0
  160.2480  204.9940  151.5100 C   0  0  0  0  0  2  0  0  0  0  0  0
  162.3520  208.1310  151.0020 C   0  0  1  0  0  3  0  0  0  0  0  0
  160.8160  204.5290  149.0170 C   0  0  0  0  0  0  0  0  0  0  0  0
  161.2160  203.5870  148.0590 C   0  0  0  0  0  3  0  0  0  0  0  0
  161.1620  207.2090  151.2280 C   0  0  1  0  0  3  0  0  0  0  0  0
  162.1070  206.9220  150.0940 C   0  0  1  0  0  3  0  0  0  0  0  0
  161.2810  205.9710  152.0760 C   0  0  1  0  0  3  0  0  0  0  0  0
  161.6190  210.4810  152.6110 C   0  0  0  0  0  0  0  0  0  0  0  0
  162.9000  210.4320  154.5840 N   0  0  0  0  0  0  0  0  0  0  0  0
  162.8180  210.5010  153.2550 N   0  0  0  0  0  0  0  0  0  0  0  0
  161.7890  210.3250  155.3570 C   0  0  0  0  0  3  0  0  0  0  0  0
  160.5280  210.2810  154.7570 C   0  0  0  0  0  0  0  0  0  0  0  0
  160.4500  210.3540  153.3680 C   0  0  0  0  0  3  0  0  0  0  0  0
  158.4140  211.2620  155.8440 C   0  0  0  0  0  0  0  0  0  0  0  0
  157.1450  210.9390  156.5200 C   0  0  0  0  0  3  0  0  0  0  0  0
  159.3150  210.1940  155.5180 N   0  0  0  0  0  2  0  0  0  0  0  0
  156.1730  211.8510  156.5980 C   0  0  0  0  0  0  0  0  0  0  0  0
  158.6860  212.4960  155.5310 N   0  0  0  0  0  0  0  0  0  0  0  0
  156.3510  213.1880  155.9180 C   0  0  0  0  0  2  0  0  0  0  0  0
  157.8220  213.6090  155.9310 C   0  0  0  0  0  2  0  0  0  0  0  0
  154.9870  211.5160  157.2600 O   0  0  0  0  0  0  0  0  0  0  0  0
  154.1290  209.3780  157.2600 F   0  0  0  0  0  0  0  0  0  0  0  0
  153.9980  210.6440  156.7180 C   0  0  0  0  0  0  0  0  0  0  0  0
  154.1290  210.5780  155.3410 F   0  0  0  0  0  0  0  0  0  0  0  0
  152.7450  211.1380  157.0250 F   0  0  0  0  0  0  0  0  0  0  0  0
  1  3  1  0  0  0  0
  1  6  2  0  0  0  0
  2  7  2  0  0  0  0
  3  5  1  0  0  0  0
  4  7  1  0  0  0  0
  5  4  2  0  0  0  0
  6  2  1  0  0  0  0
  7 23  1  0  0  0  0
  8 10  1  0  0  0  0
  8 16  1  0  0  0  0
  9 13  1  0  0  0  0
  9 18  1  0  0  0  0
 11 14  1  0  0  0  0
 12  9  2  0  0  0  0
 13 21  1  0  0  0  0
 14 10  2  0  0  0  0
 16 22  1  0  0  0  0
 17  2  1  6  0  0  0
 17 20  1  0  0  0  0
 18  8  2  0  0  0  0
 19 11  2  0  0  0  0
 19 18  1  0  0  0  0
 20 22  1  0  0  0  0
 21 17  1  0  0  0  0
 21 20  1  0  0  0  0
 22 15  1  0  0  0  0
 23 25  2  0  0  0  0
 23 28  1  0  0  0  0
 24 26  2  0  0  0  0
 25 24  1  0  0  0  0
 27 26  1  0  0  0  0
 27 31  1  0  0  0  0
 28 27  2  0  0  0  0
 29 30  1  0  0  0  0
 30 32  2  0  0  0  0
 31 29  1  0  0  0  0
 32 36  1  0  0  0  0
 33 29  2  0  0  0  0
 33 35  1  0  0  0  0
 34 35  1  0  0  0  0
 34 32  1  0  0  0  0
 38 40  1  0  0  0  0
 38 36  1  0  0  0  0
 38 37  1  0  0  0  0
 39 38  1  0  0  0  0
M  END
>  <MODEL>
9

>  <REMARK>
 VINA RESULT:      -5.6      4.780      9.727
  Name = 
  5 active torsions:
  status: ('A' for Active; 'I' for Inactive)
    1  A    between atoms: C_3  and  C_30
    2  A    between atoms: C_4  and  C_35
    3  A    between atoms: C_13  and  O_23
    4  A    between atoms: N_19  and  C_37
    5  A    between atoms: O_23  and  C_26
                            x       y       z     vdW  Elec       q    Type
                         _______ _______ _______ _____ _____    ______ ____

>  <TORSDO>
F 5

$$$$
