=
 OpenBabel11072413103D

 35 39  0  0  1  0  0  0  0  0999 V2000
  159.2880  212.2480  153.4620 C   0  0  0  0  0  3  0  0  0  0  0  0
  160.6690  210.4490  152.6250 C   0  0  0  0  0  0  0  0  0  0  0  0
  159.7290  210.3350  154.8250 N   0  0  0  0  0  0  0  0  0  0  0  0
  160.2520  212.3440  151.2450 C   0  0  0  0  0  0  0  0  0  0  0  0
  161.2680  209.1930  152.8430 C   0  0  0  0  0  0  0  0  0  0  0  0
  159.8900  211.0050  153.6560 C   0  0  0  0  0  0  0  0  0  0  0  0
  160.3150  209.1250  155.0160 C   0  0  0  0  0  3  0  0  0  0  0  0
  159.4680  212.9240  152.2530 C   0  0  0  0  0  3  0  0  0  0  0  0
  161.0710  208.5660  154.0340 N   0  0  0  0  0  0  0  0  0  0  0  0
  160.8260  211.1280  151.4570 N   0  0  0  0  0  0  0  0  0  0  0  0
  159.6920  214.1790  149.5740 C   0  0  0  0  0  2  0  0  0  0  0  0
  158.3780  212.9600  147.3560 O   0  0  0  0  0  1  0  0  0  0  0  0
  161.4170  212.5660  149.0110 C   0  0  0  0  0  2  0  0  0  0  0  0
  161.2740  212.8080  146.5360 C   0  0  0  0  0  2  0  0  0  0  0  0
  160.4540  213.0190  149.9950 N   0  0  0  0  0  0  0  0  0  0  0  0
  159.4140  214.3530  145.7060 C   0  0  0  0  0  2  0  0  0  0  0  0
  160.7370  213.0220  144.2160 O   0  0  0  0  0  1  0  0  0  0  0  0
  160.1200  214.4530  148.1400 C   0  0  2  0  0  3  0  0  0  0  0  0
  158.9560  214.2190  147.1620 C   0  0  2  0  0  3  0  0  0  0  0  0
  161.3510  213.5600  147.8680 C   0  0  1  0  0  0  0  0  0  0  0  0
  160.7880  213.7280  145.4160 C   0  0  2  0  0  3  0  0  0  0  0  0
  162.6040  214.4170  147.8980 C   0  0  0  0  0  1  0  0  0  0  0  0
  161.3090  207.0100  150.1500 N   0  0  0  0  0  0  0  0  0  0  0  0
  160.3360  205.9210  148.3290 O   0  0  0  0  0  0  0  0  0  0  0  0
  162.1100  208.5000  151.8070 C   0  0  2  0  0  3  0  0  0  0  0  0
  162.0860  209.2320  150.4670 C   0  0  0  0  0  2  0  0  0  0  0  0
  161.6300  207.0800  151.5610 C   0  0  0  0  0  2  0  0  0  0  0  0
  160.6700  205.8760  149.5440 C   0  0  0  0  0  0  0  0  0  0  0  0
  161.5800  208.2420  149.4320 C   0  0  1  0  0  3  0  0  0  0  0  0
  162.5720  208.0230  148.4760 O   0  0  0  0  0  1  0  0  0  0  0  0
  160.4450  204.6140  150.3230 C   0  0  0  0  0  2  0  0  0  0  0  0
  160.4820  201.7810  149.8230 O   0  0  0  0  0  0  0  0  0  0  0  0
  160.8150  203.1620  149.3080 P   0  0  0  0  0  0  0  0  0  0  0  0
  161.8530  203.2050  147.9760 O   0  0  0  0  0  0  0  0  0  0  0  0
  161.6190  204.0170  150.5980 O   0  0  0  0  0  0  0  0  0  0  0  0
  1  6  1  0  0  0  0
  2  5  2  0  0  0  0
  2  6  1  0  0  0  0
  3  7  1  0  0  0  0
  4 10  2  0  0  0  0
  4  8  1  0  0  0  0
  5  9  1  0  0  0  0
  6  3  2  0  0  0  0
  8  1  2  0  0  0  0
  9  7  2  0  0  0  0
 10  2  1  0  0  0  0
 11 15  1  0  0  0  0
 13 15  1  0  0  0  0
 14 20  1  0  0  0  0
 15  4  1  0  0  0  0
 16 19  1  0  0  0  0
 18 11  1  1  0  0  0
 19 12  1  6  0  0  0
 19 18  1  0  0  0  0
 20 22  1  1  0  0  0
 20 18  1  0  0  0  0
 20 13  1  0  0  0  0
 21 17  1  6  0  0  0
 21 16  1  0  0  0  0
 21 14  1  0  0  0  0
 23 27  1  0  0  0  0
 24 28  2  0  0  0  0
 25  5  1  1  0  0  0
 26 25  1  0  0  0  0
 27 25  1  0  0  0  0
 28 23  1  0  0  0  0
 28 31  1  0  0  0  0
 29 30  1  6  0  0  0
 29 23  1  0  0  0  0
 29 26  1  0  0  0  0
 31 35  1  0  0  0  0
 33 32  2  0  0  0  0
 33 35  1  0  0  0  0
 34 33  2  0  0  0  0
M  END
>  <MODEL>
1

>  <REMARK>
 VINA RESULT:      -8.5      0.000      0.000
  Name = 
  3 active torsions:
  status: ('A' for Active; 'I' for Inactive)
    1  A    between atoms: C_3  and  C_17
    2  A    between atoms: C_5  and  C_24
    3  A    between atoms: N_13  and  C_21
                            x       y       z     vdW  Elec       q    Type
                         _______ _______ _______ _____ _____    ______ ____

>  <TORSDO>
F 3

$$$$
=
 OpenBabel11072413103D

 35 39  0  0  1  0  0  0  0  0999 V2000
  161.9630  206.2070  153.8290 C   0  0  0  0  0  3  0  0  0  0  0  0
  160.8440  208.2780  153.2760 C   0  0  0  0  0  0  0  0  0  0  0  0
  161.5100  207.8240  155.5300 N   0  0  0  0  0  0  0  0  0  0  0  0
  161.2750  206.6840  151.5580 C   0  0  0  0  0  0  0  0  0  0  0  0
  160.3240  209.5150  153.7040 C   0  0  0  0  0  0  0  0  0  0  0  0
  161.4430  207.4370  154.2310 C   0  0  0  0  0  0  0  0  0  0  0  0
  161.0040  209.0210  155.9240 C   0  0  0  0  0  3  0  0  0  0  0  0
  161.8800  205.8260  152.4880 C   0  0  0  0  0  3  0  0  0  0  0  0
  160.4220  209.8510  155.0180 N   0  0  0  0  0  0  0  0  0  0  0  0
  160.7780  207.8810  151.9760 N   0  0  0  0  0  0  0  0  0  0  0  0
  160.1760  205.4020  149.6560 C   0  0  0  0  0  2  0  0  0  0  0  0
  161.9590  203.3220  148.8680 O   0  0  0  0  0  1  0  0  0  0  0  0
  162.1100  206.7880  149.1730 C   0  0  0  0  0  2  0  0  0  0  0  0
  162.8320  205.6040  147.1040 C   0  0  0  0  0  2  0  0  0  0  0  0
  161.1760  206.3140  150.1760 N   0  0  0  0  0  0  0  0  0  0  0  0
  161.4830  203.5110  146.5280 C   0  0  0  0  0  2  0  0  0  0  0  0
  163.4630  204.1300  145.3300 O   0  0  0  0  0  1  0  0  0  0  0  0
  160.5460  205.1750  148.1980 C   0  0  2  0  0  3  0  0  0  0  0  0
  160.9720  203.7160  147.9580 C   0  0  2  0  0  3  0  0  0  0  0  0
  161.6410  206.2090  147.8530 C   0  0  1  0  0  0  0  0  0  0  0  0
  162.3610  204.6570  146.0010 C   0  0  2  0  0  3  0  0  0  0  0  0
  161.0290  207.3240  147.0240 C   0  0  0  0  0  1  0  0  0  0  0  0
  158.4310  212.4040  153.4110 N   0  0  0  0  0  0  0  0  0  0  0  0
  157.6140  214.4530  154.1760 O   0  0  0  0  0  0  0  0  0  0  0  0
  159.6750  210.4950  152.7670 C   0  0  2  0  0  3  0  0  0  0  0  0
  160.5390  211.7350  152.5470 C   0  0  0  0  0  2  0  0  0  0  0  0
  158.3310  210.9630  153.2960 C   0  0  0  0  0  2  0  0  0  0  0  0
  157.4190  213.2160  154.0270 C   0  0  0  0  0  0  0  0  0  0  0  0
  159.7040  212.9350  152.9590 C   0  0  1  0  0  3  0  0  0  0  0  0
  159.5050  213.7620  151.8540 O   0  0  0  0  0  1  0  0  0  0  0  0
  156.1070  212.6220  154.4440 C   0  0  0  0  0  2  0  0  0  0  0  0
  155.0720  211.1300  156.6750 O   0  0  0  0  0  0  0  0  0  0  0  0
  156.2160  211.9440  156.1180 P   0  0  0  0  0  0  0  0  0  0  0  0
  157.3500  212.4670  157.2560 O   0  0  0  0  0  0  0  0  0  0  0  0
  155.5310  213.3760  155.3980 O   0  0  0  0  0  0  0  0  0  0  0  0
  1  6  1  0  0  0  0
  2  5  2  0  0  0  0
  2  6  1  0  0  0  0
  3  7  1  0  0  0  0
  4 10  2  0  0  0  0
  4  8  1  0  0  0  0
  5  9  1  0  0  0  0
  6  3  2  0  0  0  0
  8  1  2  0  0  0  0
  9  7  2  0  0  0  0
 10  2  1  0  0  0  0
 11 15  1  0  0  0  0
 13 15  1  0  0  0  0
 14 20  1  0  0  0  0
 15  4  1  0  0  0  0
 16 19  1  0  0  0  0
 18 11  1  1  0  0  0
 19 18  1  0  0  0  0
 19 12  1  1  0  0  0
 20 22  1  6  0  0  0
 20 18  1  0  0  0  0
 20 13  1  0  0  0  0
 21 17  1  1  0  0  0
 21 16  1  0  0  0  0
 21 14  1  0  0  0  0
 23 28  1  0  0  0  0
 25 27  1  0  0  0  0
 25  5  1  1  0  0  0
 26 25  1  0  0  0  0
 26 29  1  0  0  0  0
 27 23  1  0  0  0  0
 28 24  2  0  0  0  0
 28 31  1  0  0  0  0
 29 30  1  6  0  0  0
 29 23  1  0  0  0  0
 31 35  1  0  0  0  0
 33 32  2  0  0  0  0
 33 34  2  0  0  0  0
 35 33  1  0  0  0  0
M  END
>  <MODEL>
2

>  <REMARK>
 VINA RESULT:      -8.1      4.218      8.007
  Name = 
  3 active torsions:
  status: ('A' for Active; 'I' for Inactive)
    1  A    between atoms: C_3  and  C_17
    2  A    between atoms: C_5  and  C_24
    3  A    between atoms: N_13  and  C_21
                            x       y       z     vdW  Elec       q    Type
                         _______ _______ _______ _____ _____    ______ ____

>  <TORSDO>
F 3

$$$$
=
 OpenBabel11072413103D

 35 39  0  0  1  0  0  0  0  0999 V2000
  162.3320  209.9720  149.8940 C   0  0  0  0  0  3  0  0  0  0  0  0
  161.3750  207.7810  150.2550 C   0  0  0  0  0  0  0  0  0  0  0  0
  162.3970  208.3280  148.1600 N   0  0  0  0  0  0  0  0  0  0  0  0
  161.2900  209.4000  152.0010 C   0  0  0  0  0  0  0  0  0  0  0  0
  161.0920  206.4960  149.7540 C   0  0  0  0  0  0  0  0  0  0  0  0
  162.0420  208.6940  149.4180 C   0  0  0  0  0  0  0  0  0  0  0  0
  162.1160  207.0840  147.6950 C   0  0  0  0  0  3  0  0  0  0  0  0
  161.9560  210.3300  151.1900 C   0  0  0  0  0  3  0  0  0  0  0  0
  161.4730  206.1850  148.4860 N   0  0  0  0  0  0  0  0  0  0  0  0
  161.0210  208.1570  151.5140 N   0  0  0  0  0  0  0  0  0  0  0  0
  159.8070  209.0950  154.0450 C   0  0  0  0  0  2  0  0  0  0  0  0
  158.0740  211.3540  154.2050 O   0  0  0  0  0  1  0  0  0  0  0  0
  161.5140  210.8200  154.0820 C   0  0  0  0  0  2  0  0  0  0  0  0
  160.4550  212.2680  155.8100 C   0  0  0  0  0  2  0  0  0  0  0  0
  160.8910  209.7450  153.3350 N   0  0  0  0  0  0  0  0  0  0  0  0
  158.1450  211.5050  156.5940 C   0  0  0  0  0  2  0  0  0  0  0  0
  159.0980  213.5990  157.2600 O   0  0  0  0  0  1  0  0  0  0  0  0
  159.6320  209.8790  155.3360 C   0  0  2  0  0  3  0  0  0  0  0  0
  158.2720  210.5980  155.3650 C   0  0  2  0  0  3  0  0  0  0  0  0
  160.8430  210.8330  155.4410 C   0  0  1  0  0  0  0  0  0  0  0  0
  159.4240  212.2840  156.9390 C   0  0  2  0  0  3  0  0  0  0  0  0
  161.8180  210.2870  156.4690 C   0  0  0  0  0  1  0  0  0  0  0  0
  160.8080  203.1110  150.4440 N   0  0  0  0  0  0  0  0  0  0  0  0
  161.6140  200.9210  150.5290 O   0  0  0  0  0  0  0  0  0  0  0  0
  160.3960  205.4390  150.5660 C   0  0  2  0  0  3  0  0  0  0  0  0
  161.2120  205.0260  151.7890 C   0  0  0  0  0  2  0  0  0  0  0  0
  160.1380  204.1880  149.7440 C   0  0  0  0  0  2  0  0  0  0  0  0
  160.9370  201.7850  149.9070 C   0  0  0  0  0  0  0  0  0  0  0  0
  161.4440  203.5290  151.6790 C   0  0  1  0  0  3  0  0  0  0  0  0
  160.8420  202.8870  152.7610 O   0  0  0  0  0  1  0  0  0  0  0  0
  160.2290  201.3960  148.6430 C   0  0  0  0  0  2  0  0  0  0  0  0
  160.1300  202.2900  145.9110 O   0  0  0  0  0  0  0  0  0  0  0  0
  160.8300  202.3770  147.2470 P   0  0  0  0  0  0  0  0  0  0  0  0
  162.3530  203.1080  147.2170 O   0  0  0  0  0  0  0  0  0  0  0  0
  161.0670  200.7460  147.8160 O   0  0  0  0  0  0  0  0  0  0  0  0
  1  8  1  0  0  0  0
  2 10  2  0  0  0  0
  3  6  1  0  0  0  0
  4 15  1  0  0  0  0
  5  2  1  0  0  0  0
  6  1  2  0  0  0  0
  6  2  1  0  0  0  0
  7  3  2  0  0  0  0
  7  9  1  0  0  0  0
  8  4  2  0  0  0  0
  9  5  2  0  0  0  0
 10  4  1  0  0  0  0
 13 20  1  0  0  0  0
 14 21  1  0  0  0  0
 15 11  1  0  0  0  0
 15 13  1  0  0  0  0
 16 21  1  0  0  0  0
 18 11  1  6  0  0  0
 18 19  1  0  0  0  0
 18 20  1  0  0  0  0
 19 12  1  6  0  0  0
 19 16  1  0  0  0  0
 20 14  1  0  0  0  0
 20 22  1  1  0  0  0
 21 17  1  6  0  0  0
 23 29  1  0  0  0  0
 25  5  1  6  0  0  0
 25 26  1  0  0  0  0
 27 23  1  0  0  0  0
 27 25  1  0  0  0  0
 28 23  1  0  0  0  0
 28 24  2  0  0  0  0
 29 26  1  0  0  0  0
 29 30  1  1  0  0  0
 31 28  1  0  0  0  0
 32 33  2  0  0  0  0
 33 35  1  0  0  0  0
 34 33  2  0  0  0  0
 35 31  1  0  0  0  0
M  END
>  <MODEL>
3

>  <REMARK>
 VINA RESULT:      -7.7      3.885      6.532
  Name = 
  3 active torsions:
  status: ('A' for Active; 'I' for Inactive)
    1  A    between atoms: C_3  and  C_17
    2  A    between atoms: C_5  and  C_24
    3  A    between atoms: N_13  and  C_21
                            x       y       z     vdW  Elec       q    Type
                         _______ _______ _______ _____ _____    ______ ____

>  <TORSDO>
F 3

$$$$
=
 OpenBabel11072413103D

 35 39  0  0  1  0  0  0  0  0999 V2000
  161.2120  208.6670  152.0550 C   0  0  0  0  0  3  0  0  0  0  0  0
  161.6120  207.4890  149.9810 C   0  0  0  0  0  0  0  0  0  0  0  0
  161.1590  206.2780  151.9970 N   0  0  0  0  0  0  0  0  0  0  0  0
  161.6770  209.8700  150.0070 C   0  0  0  0  0  0  0  0  0  0  0  0
  161.7210  206.2620  149.2980 C   0  0  0  0  0  0  0  0  0  0  0  0
  161.3240  207.4640  151.3580 C   0  0  0  0  0  0  0  0  0  0  0  0
  161.2680  205.1050  151.3210 C   0  0  0  0  0  3  0  0  0  0  0  0
  161.3890  209.8770  151.3800 C   0  0  0  0  0  3  0  0  0  0  0  0
  161.5440  205.1040  149.9900 N   0  0  0  0  0  0  0  0  0  0  0  0
  161.7780  208.6820  149.3490 N   0  0  0  0  0  0  0  0  0  0  0  0
  161.0830  212.2970  149.5300 C   0  0  0  0  0  2  0  0  0  0  0  0
  159.7840  212.3900  146.9930 O   0  0  0  0  0  1  0  0  0  0  0  0
  162.8330  211.2380  148.2220 C   0  0  0  0  0  2  0  0  0  0  0  0
  162.6810  212.7300  146.2330 C   0  0  0  0  0  2  0  0  0  0  0  0
  161.8650  211.0990  149.2920 N   0  0  0  0  0  0  0  0  0  0  0  0
  160.7940  214.4530  146.3150 C   0  0  0  0  0  2  0  0  0  0  0  0
  162.1360  214.1120  144.3590 O   0  0  0  0  0  1  0  0  0  0  0  0
  161.5040  213.2830  148.4510 C   0  0  2  0  0  3  0  0  0  0  0  0
  160.3420  213.5740  147.4860 C   0  0  2  0  0  3  0  0  0  0  0  0
  162.7490  212.6800  147.7630 C   0  0  1  0  0  0  0  0  0  0  0  0
  162.1780  214.0910  145.7520 C   0  0  2  0  0  3  0  0  0  0  0  0
  163.9870  213.4160  148.2430 C   0  0  0  0  0  1  0  0  0  0  0  0
  161.0700  204.6000  146.3260 N   0  0  0  0  0  0  0  0  0  0  0  0
  159.7530  203.2950  144.9080 O   0  0  0  0  0  0  0  0  0  0  0  0
  162.0120  206.1720  147.8250 C   0  0  2  0  0  3  0  0  0  0  0  0
  160.9490  206.8780  146.9870 C   0  0  0  0  0  2  0  0  0  0  0  0
  162.0770  204.7280  147.3600 C   0  0  0  0  0  2  0  0  0  0  0  0
  160.7030  203.3430  145.7360 C   0  0  0  0  0  0  0  0  0  0  0  0
  160.3790  205.8430  146.0330 C   0  0  1  0  0  3  0  0  0  0  0  0
  160.6400  206.2300  144.7190 O   0  0  0  0  0  1  0  0  0  0  0  0
  161.4740  202.0950  146.0480 C   0  0  0  0  0  2  0  0  0  0  0  0
  161.7780  200.2940  148.2700 O   0  0  0  0  0  0  0  0  0  0  0  0
  160.9990  201.4380  147.6650 P   0  0  0  0  0  0  0  0  0  0  0  0
  159.5100  201.7620  148.3940 O   0  0  0  0  0  0  0  0  0  0  0  0
  160.6660  201.0210  146.0060 O   0  0  0  0  0  0  0  0  0  0  0  0
  2  6  1  0  0  0  0
  4  8  2  0  0  0  0
  5  2  1  0  0  0  0
  5  9  2  0  0  0  0
  6  3  1  0  0  0  0
  6  1  2  0  0  0  0
  7  3  2  0  0  0  0
  8  1  1  0  0  0  0
  9  7  1  0  0  0  0
 10  2  2  0  0  0  0
 10  4  1  0  0  0  0
 13 15  1  0  0  0  0
 14 20  1  0  0  0  0
 15 11  1  0  0  0  0
 15  4  1  0  0  0  0
 16 19  1  0  0  0  0
 18 11  1  1  0  0  0
 19 12  1  6  0  0  0
 19 18  1  0  0  0  0
 20 13  1  0  0  0  0
 20 22  1  1  0  0  0
 20 18  1  0  0  0  0
 21 17  1  6  0  0  0
 21 14  1  0  0  0  0
 21 16  1  0  0  0  0
 23 27  1  0  0  0  0
 24 28  2  0  0  0  0
 25  5  1  1  0  0  0
 26 25  1  0  0  0  0
 27 25  1  0  0  0  0
 28 31  1  0  0  0  0
 28 23  1  0  0  0  0
 29 30  1  6  0  0  0
 29 23  1  0  0  0  0
 29 26  1  0  0  0  0
 33 32  2  0  0  0  0
 33 34  2  0  0  0  0
 35 31  1  0  0  0  0
 35 33  1  0  0  0  0
M  END
>  <MODEL>
4

>  <REMARK>
 VINA RESULT:      -7.4      2.393      3.691
  Name = 
  3 active torsions:
  status: ('A' for Active; 'I' for Inactive)
    1  A    between atoms: C_3  and  C_17
    2  A    between atoms: C_5  and  C_24
    3  A    between atoms: N_13  and  C_21
                            x       y       z     vdW  Elec       q    Type
                         _______ _______ _______ _____ _____    ______ ____

>  <TORSDO>
F 3

$$$$
=
 OpenBabel11072413103D

 35 39  0  0  1  0  0  0  0  0999 V2000
  161.8720  205.5470  153.0910 C   0  0  0  0  0  3  0  0  0  0  0  0
  160.9230  207.7160  152.6000 C   0  0  0  0  0  0  0  0  0  0  0  0
  161.1530  206.9780  154.8660 N   0  0  0  0  0  0  0  0  0  0  0  0
  161.6250  206.3110  150.8090 C   0  0  0  0  0  0  0  0  0  0  0  0
  160.3630  208.9180  153.0740 C   0  0  0  0  0  0  0  0  0  0  0  0
  161.3160  206.7450  153.5390 C   0  0  0  0  0  0  0  0  0  0  0  0
  160.6110  208.1440  155.3040 C   0  0  0  0  0  3  0  0  0  0  0  0
  162.0280  205.3250  151.7220 C   0  0  0  0  0  3  0  0  0  0  0  0
  160.2250  209.0970  154.4150 N   0  0  0  0  0  0  0  0  0  0  0  0
  161.0880  207.4730  151.2710 N   0  0  0  0  0  0  0  0  0  0  0  0
  161.7250  207.1740  148.4180 C   0  0  0  0  0  2  0  0  0  0  0  0
  159.3380  206.3440  147.0960 O   0  0  0  0  0  1  0  0  0  0  0  0
  161.9390  204.7880  148.8140 C   0  0  0  0  0  2  0  0  0  0  0  0
  161.1960  204.0310  146.5600 C   0  0  0  0  0  2  0  0  0  0  0  0
  161.7730  206.1060  149.3970 N   0  0  0  0  0  0  0  0  0  0  0  0
  160.4050  205.8950  144.9990 C   0  0  0  0  0  2  0  0  0  0  0  0
  160.1850  203.5750  144.4420 O   0  0  0  0  0  1  0  0  0  0  0  0
  161.7590  206.4900  147.0600 C   0  0  2  0  0  3  0  0  0  0  0  0
  160.4360  206.6980  146.3040 C   0  0  2  0  0  3  0  0  0  0  0  0
  162.0990  205.0050  147.3220 C   0  0  1  0  0  0  0  0  0  0  0  0
  161.0010  204.4830  145.1130 C   0  0  2  0  0  3  0  0  0  0  0  0
  163.5490  204.7540  146.9480 C   0  0  0  0  0  1  0  0  0  0  0  0
  159.1060  212.1410  152.8500 N   0  0  0  0  0  0  0  0  0  0  0  0
  158.7390  214.3010  153.6560 O   0  0  0  0  0  0  0  0  0  0  0  0
  159.9210  210.0280  152.1600 C   0  0  2  0  0  3  0  0  0  0  0  0
  161.0210  211.0660  151.9460 C   0  0  0  0  0  2  0  0  0  0  0  0
  158.7090  210.7540  152.7160 C   0  0  0  0  0  2  0  0  0  0  0  0
  158.2900  213.1340  153.4920 C   0  0  0  0  0  0  0  0  0  0  0  0
  160.4560  212.4050  152.3880 C   0  0  1  0  0  3  0  0  0  0  0  0
  160.4200  213.2750  151.2980 O   0  0  0  0  0  1  0  0  0  0  0  0
  156.8880  212.8170  153.9190 C   0  0  0  0  0  2  0  0  0  0  0  0
  155.5570  211.8790  156.2910 O   0  0  0  0  0  0  0  0  0  0  0  0
  156.8330  212.4130  155.6820 P   0  0  0  0  0  0  0  0  0  0  0  0
  157.9950  212.9420  156.7890 O   0  0  0  0  0  0  0  0  0  0  0  0
  156.4040  213.7940  154.7070 O   0  0  0  0  0  0  0  0  0  0  0  0
  1  6  1  0  0  0  0
  2  5  2  0  0  0  0
  2  6  1  0  0  0  0
  3  7  1  0  0  0  0
  4 10  2  0  0  0  0
  4  8  1  0  0  0  0
  5  9  1  0  0  0  0
  6  3  2  0  0  0  0
  8  1  2  0  0  0  0
  9  7  2  0  0  0  0
 10  2  1  0  0  0  0
 11 15  1  0  0  0  0
 13 15  1  0  0  0  0
 14 20  1  0  0  0  0
 15  4  1  0  0  0  0
 16 21  1  0  0  0  0
 16 19  1  0  0  0  0
 18 20  1  0  0  0  0
 18 11  1  1  0  0  0
 19 18  1  0  0  0  0
 19 12  1  1  0  0  0
 20 22  1  6  0  0  0
 20 13  1  0  0  0  0
 21 17  1  1  0  0  0
 21 14  1  0  0  0  0
 23 28  1  0  0  0  0
 25 27  1  0  0  0  0
 25  5  1  1  0  0  0
 26 25  1  0  0  0  0
 26 29  1  0  0  0  0
 27 23  1  0  0  0  0
 28 24  2  0  0  0  0
 28 31  1  0  0  0  0
 29 30  1  6  0  0  0
 29 23  1  0  0  0  0
 31 35  1  0  0  0  0
 33 32  2  0  0  0  0
 33 34  2  0  0  0  0
 35 33  1  0  0  0  0
M  END
>  <MODEL>
5

>  <REMARK>
 VINA RESULT:      -6.8      4.174      7.731
  Name = 
  3 active torsions:
  status: ('A' for Active; 'I' for Inactive)
    1  A    between atoms: C_3  and  C_17
    2  A    between atoms: C_5  and  C_24
    3  A    between atoms: N_13  and  C_21
                            x       y       z     vdW  Elec       q    Type
                         _______ _______ _______ _____ _____    ______ ____

>  <TORSDO>
F 3

$$$$
=
 OpenBabel11072413103D

 35 39  0  0  1  0  0  0  0  0999 V2000
  161.5520  206.8890  149.4640 C   0  0  0  0  0  3  0  0  0  0  0  0
  161.4920  207.8590  151.6780 C   0  0  0  0  0  0  0  0  0  0  0  0
  161.3490  205.4860  151.3890 N   0  0  0  0  0  0  0  0  0  0  0  0
  161.6890  209.2840  149.7790 C   0  0  0  0  0  0  0  0  0  0  0  0
  161.4000  207.6700  153.0710 C   0  0  0  0  0  0  0  0  0  0  0  0
  161.4630  206.7250  150.8460 C   0  0  0  0  0  0  0  0  0  0  0  0
  161.2630  205.3250  152.7350 C   0  0  0  0  0  3  0  0  0  0  0  0
  161.6650  208.1720  148.9250 C   0  0  0  0  0  3  0  0  0  0  0  0
  161.2900  206.4060  153.5580 N   0  0  0  0  0  0  0  0  0  0  0  0
  161.6040  209.0970  151.1250 N   0  0  0  0  0  0  0  0  0  0  0  0
  161.1580  211.7710  149.8360 C   0  0  0  0  0  2  0  0  0  0  0  0
  159.3820  212.3290  147.6770 O   0  0  0  0  0  1  0  0  0  0  0  0
  162.5410  210.9080  148.0380 C   0  0  0  0  0  2  0  0  0  0  0  0
  162.0810  212.7210  146.3930 C   0  0  0  0  0  2  0  0  0  0  0  0
  161.8020  210.6120  149.2500 N   0  0  0  0  0  0  0  0  0  0  0  0
  160.3560  214.4510  147.1460 C   0  0  0  0  0  2  0  0  0  0  0  0
  161.2520  214.4150  144.9240 O   0  0  0  0  0  1  0  0  0  0  0  0
  161.4110  212.9160  148.8680 C   0  0  2  0  0  3  0  0  0  0  0  0
  160.0980  213.3970  148.2270 C   0  0  2  0  0  3  0  0  0  0  0  0
  162.4530  212.4090  147.8460 C   0  0  1  0  0  0  0  0  0  0  0  0
  161.5730  214.1560  146.2540 C   0  0  2  0  0  3  0  0  0  0  0  0
  163.8050  213.0200  148.1690 C   0  0  0  0  0  1  0  0  0  0  0  0
  159.5640  210.0760  154.7610 N   0  0  0  0  0  0  0  0  0  0  0  0
  157.6010  210.9390  155.6850 O   0  0  0  0  0  0  0  0  0  0  0  0
  161.4340  208.8090  154.0520 C   0  0  2  0  0  3  0  0  0  0  0  0
  161.0520  208.3620  155.4610 C   0  0  0  0  0  2  0  0  0  0  0  0
  160.4790  209.9180  153.6490 C   0  0  0  0  0  2  0  0  0  0  0  0
  158.4040  210.9220  154.7130 C   0  0  0  0  0  0  0  0  0  0  0  0
  159.8600  209.2040  155.8830 C   0  0  1  0  0  3  0  0  0  0  0  0
  160.2050  209.9690  156.9980 O   0  0  0  0  0  1  0  0  0  0  0  0
  158.1650  211.8300  153.5430 C   0  0  0  0  0  2  0  0  0  0  0  0
  156.7450  214.2760  153.0170 O   0  0  0  0  0  0  0  0  0  0  0  0
  157.2610  213.3100  154.0580 P   0  0  0  0  0  0  0  0  0  0  0  0
  157.2700  213.8950  155.6430 O   0  0  0  0  0  0  0  0  0  0  0  0
  158.9150  212.9410  153.6500 O   0  0  0  0  0  0  0  0  0  0  0  0
  1  6  1  0  0  0  0
  2  5  1  0  0  0  0
  3  7  2  0  0  0  0
  4 10  2  0  0  0  0
  5  9  2  0  0  0  0
  6  3  1  0  0  0  0
  6  2  2  0  0  0  0
  7  9  1  0  0  0  0
  8  1  2  0  0  0  0
  8  4  1  0  0  0  0
 10  2  1  0  0  0  0
 13 15  1  0  0  0  0
 14 20  1  0  0  0  0
 15  4  1  0  0  0  0
 15 11  1  0  0  0  0
 16 19  1  0  0  0  0
 18 11  1  1  0  0  0
 19 12  1  6  0  0  0
 19 18  1  0  0  0  0
 20 13  1  0  0  0  0
 20 22  1  1  0  0  0
 20 18  1  0  0  0  0
 21 17  1  6  0  0  0
 21 14  1  0  0  0  0
 21 16  1  0  0  0  0
 23 29  1  0  0  0  0
 25  5  1  6  0  0  0
 25 26  1  0  0  0  0
 26 29  1  0  0  0  0
 27 25  1  0  0  0  0
 27 23  1  0  0  0  0
 28 23  1  0  0  0  0
 28 24  2  0  0  0  0
 29 30  1  1  0  0  0
 31 35  1  0  0  0  0
 31 28  1  0  0  0  0
 32 33  2  0  0  0  0
 33 34  2  0  0  0  0
 35 33  1  0  0  0  0
M  END
>  <MODEL>
6

>  <REMARK>
 VINA RESULT:      -6.7      4.005      6.051
  Name = 
  3 active torsions:
  status: ('A' for Active; 'I' for Inactive)
    1  A    between atoms: C_3  and  C_17
    2  A    between atoms: C_5  and  C_24
    3  A    between atoms: N_13  and  C_21
                            x       y       z     vdW  Elec       q    Type
                         _______ _______ _______ _____ _____    ______ ____

>  <TORSDO>
F 3

$$$$
=
 OpenBabel11072413103D

 35 39  0  0  1  0  0  0  0  0999 V2000
  159.7430  213.5300  151.1420 C   0  0  0  0  0  3  0  0  0  0  0  0
  161.0080  211.4970  150.8130 C   0  0  0  0  0  0  0  0  0  0  0  0
  160.1760  212.0700  152.9830 N   0  0  0  0  0  0  0  0  0  0  0  0
  160.5980  212.9340  148.9580 C   0  0  0  0  0  0  0  0  0  0  0  0
  161.5670  210.3270  151.3630 C   0  0  0  0  0  0  0  0  0  0  0  0
  160.3040  212.3660  151.6650 C   0  0  0  0  0  0  0  0  0  0  0  0
  160.7220  210.9360  153.4950 C   0  0  0  0  0  3  0  0  0  0  0  0
  159.8890  213.8190  149.7830 C   0  0  0  0  0  3  0  0  0  0  0  0
  161.4060  210.0810  152.6910 N   0  0  0  0  0  0  0  0  0  0  0  0
  161.1340  211.8030  149.4930 N   0  0  0  0  0  0  0  0  0  0  0  0
  160.3640  214.4530  146.9310 C   0  0  0  0  0  2  0  0  0  0  0  0
  158.3130  213.3730  145.2710 O   0  0  0  0  0  1  0  0  0  0  0  0
  161.3100  212.2380  146.6330 C   0  0  0  0  0  2  0  0  0  0  0  0
  160.7750  211.9930  144.2130 C   0  0  0  0  0  2  0  0  0  0  0  0
  160.7640  213.2100  147.5600 N   0  0  0  0  0  0  0  0  0  0  0  0
  159.4090  213.9060  143.2090 C   0  0  0  0  0  2  0  0  0  0  0  0
  159.8960  211.9020  141.9910 O   0  0  0  0  0  1  0  0  0  0  0  0
  160.5700  214.2440  145.4390 C   0  0  2  0  0  3  0  0  0  0  0  0
  159.2260  214.2580  144.6890 C   0  0  2  0  0  3  0  0  0  0  0  0
  161.3560  212.9230  145.2820 C   0  0  1  0  0  0  0  0  0  0  0  0
  160.4120  212.7720  142.9490 C   0  0  2  0  0  3  0  0  0  0  0  0
  162.8020  213.2430  144.9490 C   0  0  0  0  0  1  0  0  0  0  0  0
  161.5560  207.1690  149.9330 N   0  0  0  0  0  0  0  0  0  0  0  0
  160.5070  205.2770  149.0550 O   0  0  0  0  0  0  0  0  0  0  0  0
  162.3280  209.3230  150.5420 C   0  0  2  0  0  3  0  0  0  0  0  0
  161.9150  209.3530  149.0720 C   0  0  0  0  0  2  0  0  0  0  0  0
  162.1070  207.9090  151.0500 C   0  0  0  0  0  2  0  0  0  0  0  0
  161.0580  205.8270  150.0470 C   0  0  0  0  0  0  0  0  0  0  0  0
  161.4390  207.9550  148.7180 C   0  0  1  0  0  3  0  0  0  0  0  0
  162.2640  207.4210  147.7290 O   0  0  0  0  0  1  0  0  0  0  0  0
  161.2370  205.0470  151.3160 C   0  0  0  0  0  2  0  0  0  0  0  0
  160.9290  202.3230  152.1880 O   0  0  0  0  0  0  0  0  0  0  0  0
  160.9840  203.2800  151.0200 P   0  0  0  0  0  0  0  0  0  0  0  0
  161.1780  202.5580  149.5050 O   0  0  0  0  0  0  0  0  0  0  0  0
  162.3650  204.3160  151.2630 O   0  0  0  0  0  0  0  0  0  0  0  0
  1  6  1  0  0  0  0
  2  5  2  0  0  0  0
  2  6  1  0  0  0  0
  3  7  1  0  0  0  0
  4 10  2  0  0  0  0
  4  8  1  0  0  0  0
  5  9  1  0  0  0  0
  6  3  2  0  0  0  0
  8  1  2  0  0  0  0
  9  7  2  0  0  0  0
 10  2  1  0  0  0  0
 11 15  1  0  0  0  0
 13 15  1  0  0  0  0
 14 20  1  0  0  0  0
 15  4  1  0  0  0  0
 16 19  1  0  0  0  0
 18 11  1  1  0  0  0
 19 12  1  1  0  0  0
 19 18  1  0  0  0  0
 20 22  1  6  0  0  0
 20 18  1  0  0  0  0
 20 13  1  0  0  0  0
 21 17  1  6  0  0  0
 21 16  1  0  0  0  0
 21 14  1  0  0  0  0
 23 28  1  0  0  0  0
 23 27  1  0  0  0  0
 24 28  2  0  0  0  0
 25 27  1  0  0  0  0
 25  5  1  1  0  0  0
 26 25  1  0  0  0  0
 28 31  1  0  0  0  0
 29 30  1  6  0  0  0
 29 26  1  0  0  0  0
 29 23  1  0  0  0  0
 33 35  1  0  0  0  0
 33 32  2  0  0  0  0
 34 33  2  0  0  0  0
 35 31  1  0  0  0  0
M  END
>  <MODEL>
7

>  <REMARK>
 VINA RESULT:      -6.4      1.502      2.141
  Name = 
  3 active torsions:
  status: ('A' for Active; 'I' for Inactive)
    1  A    between atoms: C_3  and  C_17
    2  A    between atoms: C_5  and  C_24
    3  A    between atoms: N_13  and  C_21
                            x       y       z     vdW  Elec       q    Type
                         _______ _______ _______ _____ _____    ______ ____

>  <TORSDO>
F 3

$$$$
=
 OpenBabel11072413103D

 35 39  0  0  1  0  0  0  0  0999 V2000
  162.1500  211.8140  148.4710 C   0  0  0  0  0  3  0  0  0  0  0  0
  160.7610  211.7280  150.4470 C   0  0  0  0  0  0  0  0  0  0  0  0
  161.1700  213.8120  149.3420 N   0  0  0  0  0  0  0  0  0  0  0  0
  161.7280  209.7200  149.6070 C   0  0  0  0  0  0  0  0  0  0  0  0
  159.9680  212.4110  151.3900 C   0  0  0  0  0  0  0  0  0  0  0  0
  161.3610  212.4700  149.4150 C   0  0  0  0  0  0  0  0  0  0  0  0
  160.4010  214.4530  150.2600 C   0  0  0  0  0  3  0  0  0  0  0  0
  162.3370  210.4330  148.5650 C   0  0  0  0  0  3  0  0  0  0  0  0
  159.8100  213.7570  151.2670 N   0  0  0  0  0  0  0  0  0  0  0  0
  160.9590  210.3830  150.5140 N   0  0  0  0  0  0  0  0  0  0  0  0
  162.6630  207.5030  148.7820 C   0  0  0  0  0  2  0  0  0  0  0  0
  160.4830  205.9580  147.7880 O   0  0  0  0  0  1  0  0  0  0  0  0
  161.2980  207.5250  150.7890 C   0  0  0  0  0  2  0  0  0  0  0  0
  160.5590  205.1490  150.6900 C   0  0  0  0  0  2  0  0  0  0  0  0
  161.9070  208.3020  149.7260 N   0  0  0  0  0  0  0  0  0  0  0  0
  161.3140  203.8670  148.6110 C   0  0  0  0  0  2  0  0  0  0  0  0
  159.7820  202.9400  150.2030 O   0  0  0  0  0  1  0  0  0  0  0  0
  162.4500  206.0570  149.2030 C   0  0  2  0  0  3  0  0  0  0  0  0
  161.6580  205.2830  148.1350 C   0  0  2  0  0  3  0  0  0  0  0  0
  161.7580  206.0960  150.5840 C   0  0  1  0  0  0  0  0  0  0  0  0
  160.8850  203.7840  150.0840 C   0  0  2  0  0  3  0  0  0  0  0  0
  162.7750  205.7550  151.6590 C   0  0  0  0  0  1  0  0  0  0  0  0
  159.8410  211.9010  154.8160 N   0  0  0  0  0  0  0  0  0  0  0  0
  160.2340  212.5100  157.0350 O   0  0  0  0  0  0  0  0  0  0  0  0
  159.2700  211.7160  152.5260 C   0  0  2  0  0  3  0  0  0  0  0  0
  158.2470  212.6210  153.2100 C   0  0  0  0  0  2  0  0  0  0  0  0
  160.2560  211.2580  153.5860 C   0  0  0  0  0  2  0  0  0  0  0  0
  160.6100  211.8500  156.0290 C   0  0  0  0  0  0  0  0  0  0  0  0
  158.6400  212.7040  154.6740 C   0  0  1  0  0  3  0  0  0  0  0  0
  157.6190  212.1690  155.4590 O   0  0  0  0  0  1  0  0  0  0  0  0
  161.8230  210.9750  156.1320 C   0  0  0  0  0  2  0  0  0  0  0  0
  162.4250  208.2710  156.9070 O   0  0  0  0  0  0  0  0  0  0  0  0
  161.3550  209.2820  156.5650 P   0  0  0  0  0  0  0  0  0  0  0  0
  159.8250  208.6370  156.2540 O   0  0  0  0  0  0  0  0  0  0  0  0
  161.8600  210.1000  155.1110 O   0  0  0  0  0  0  0  0  0  0  0  0
  1  8  2  0  0  0  0
  1  6  1  0  0  0  0
  2 10  1  0  0  0  0
  2  5  1  0  0  0  0
  3  6  1  0  0  0  0
  3  7  2  0  0  0  0
  4 15  1  0  0  0  0
  4 10  2  0  0  0  0
  6  2  2  0  0  0  0
  7  9  1  0  0  0  0
  8  4  1  0  0  0  0
  9  5  2  0  0  0  0
 11 15  1  0  0  0  0
 15 13  1  0  0  0  0
 16 21  1  0  0  0  0
 18 11  1  6  0  0  0
 18 20  1  0  0  0  0
 19 12  1  1  0  0  0
 19 16  1  0  0  0  0
 19 18  1  0  0  0  0
 20 14  1  0  0  0  0
 20 13  1  0  0  0  0
 20 22  1  1  0  0  0
 21 17  1  6  0  0  0
 21 14  1  0  0  0  0
 23 28  1  0  0  0  0
 25  5  1  6  0  0  0
 25 26  1  0  0  0  0
 25 27  1  0  0  0  0
 26 29  1  0  0  0  0
 27 23  1  0  0  0  0
 28 31  1  0  0  0  0
 28 24  2  0  0  0  0
 29 23  1  0  0  0  0
 29 30  1  1  0  0  0
 33 32  2  0  0  0  0
 34 33  2  0  0  0  0
 35 31  1  0  0  0  0
 35 33  1  0  0  0  0
M  END
>  <MODEL>
8

>  <REMARK>
 VINA RESULT:      -6.2      3.704      7.698
  Name = 
  3 active torsions:
  status: ('A' for Active; 'I' for Inactive)
    1  A    between atoms: C_3  and  C_17
    2  A    between atoms: C_5  and  C_24
    3  A    between atoms: N_13  and  C_21
                            x       y       z     vdW  Elec       q    Type
                         _______ _______ _______ _____ _____    ______ ____

>  <TORSDO>
F 3

$$$$
