=
 OpenBabel11072413403D

 67 75  0  0  1  0  0  0  0  0999 V2000
  161.9980  208.4190  149.2220 C   0  0  0  0  0  0  0  0  0  0  0  0
  162.5460  207.3030  149.5520 C   0  0  0  0  0  0  0  0  0  0  0  0
  161.4840  209.3690  148.6400 C   0  0  0  0  0  3  0  0  0  0  0  0
  163.3550  210.5910  148.3590 O   0  0  0  0  0  0  0  0  0  0  0  0
  162.0490  210.5720  148.4100 C   0  0  0  0  0  0  0  0  0  0  0  0
  161.1890  211.2100  147.4550 O   0  0  0  0  0  0  0  0  0  0  0  0
  162.4080  213.0070  147.0730 O   0  0  0  0  0  0  0  0  0  0  0  0
  161.4430  214.4530  148.5170 C   0  0  0  0  0  2  0  0  0  0  0  0
  161.0740  212.6000  147.1890 C   0  0  2  0  0  0  0  0  0  0  0  0
  162.6300  214.0290  147.9270 O   0  0  0  0  0  0  0  0  0  0  0  0
  160.6300  213.2260  148.5450 C   0  0  0  0  0  2  0  0  0  0  0  0
  160.3920  214.4520  145.5610 O   0  0  0  0  0  0  0  0  0  0  0  0
  161.0130  213.6230  144.6670 C   0  0  1  0  0  3  0  0  0  0  0  0
  160.2250  213.1220  145.8930 C   0  0  1  0  0  0  0  0  0  0  0  0
  161.8780  212.2640  138.7990 N   0  0  0  0  0  0  0  0  0  0  0  0
  162.4510  213.9610  141.4230 F   0  0  0  0  0  0  0  0  0  0  0  0
  161.1570  212.3670  140.0120 C   0  0  0  0  0  0  0  0  0  0  0  0
  159.8770  212.2180  139.8670 C   0  0  0  0  0  0  0  0  0  0  0  0
  160.8740  211.9340  137.7910 C   0  0  0  0  0  3  0  0  0  0  0  0
  160.3670  212.7380  143.5510 C   0  0  2  0  0  3  0  0  0  0  0  0
  159.2140  212.5550  141.1820 C   0  0  0  0  0  2  0  0  0  0  0  0
  161.2910  212.0110  142.5660 C   0  0  2  0  0  3  0  0  0  0  0  0
  159.6060  211.9700  138.4810 O   0  0  0  0  0  0  0  0  0  0  0  0
  161.6040  212.8490  141.2990 C   0  0  1  0  0  0  0  0  0  0  0  0
  160.3810  213.1850  142.0720 C   0  0  2  0  0  0  0  0  0  0  0  0
  157.7150  212.2370  145.6480 O   0  0  0  0  0  0  0  0  0  0  0  0
  158.5940  213.2420  146.0590 C   0  0  0  0  0  0  0  0  0  0  0  0
  158.1210  213.6820  147.3150 O   0  0  0  0  0  0  0  0  0  0  0  0
  156.5750  214.1690  151.8620 C   0  0  0  0  0  2  0  0  0  0  0  0
  157.0870  213.1340  148.0390 C   0  0  0  0  0  2  0  0  0  0  0  0
  157.2860  213.9670  150.5710 C   0  0  0  0  0  3  0  0  0  0  0  0
  158.0240  214.4160  151.8390 C   0  0  0  0  0  2  0  0  0  0  0  0
  157.1390  213.5430  149.3050 C   0  0  0  0  0  2  0  0  0  0  0  0
  162.7890  206.4620  148.4410 O   0  0  0  0  0  0  0  0  0  0  0  0
  161.9060  206.3400  147.4670 O   0  0  0  0  0  0  0  0  0  0  0  0
  161.7680  204.2170  146.9000 O   0  0  0  0  0  1  0  0  0  0  0  0
  162.2470  205.4390  146.4550 C   0  0  2  0  0  0  0  0  0  0  0  0
  163.5770  205.0790  146.4390 F   0  0  0  0  0  0  0  0  0  0  0  0
  161.7500  205.6770  144.9460 C   0  0  0  0  0  2  0  0  0  0  0  0
  160.8370  204.6790  144.6150 O   0  0  0  0  0  1  0  0  0  0  0  0
  162.9740  206.9920  150.9410 C   0  0  0  0  0  2  0  0  0  0  0  0
  161.9060  207.3120  152.0960 C   0  0  2  0  0  3  0  0  0  0  0  0
  163.2440  210.4090  151.8260 N   0  0  0  0  0  1  0  0  0  0  0  0
  161.9250  209.9720  152.2960 C   0  0  1  0  0  3  0  0  0  0  0  0
  162.0000  208.6280  153.0080 C   0  0  1  0  0  3  0  0  0  0  0  0
  160.5100  210.2460  154.0950 C   0  0  1  0  0  3  0  0  0  0  0  0
  160.7650  208.7430  153.9140 C   0  0  2  0  0  3  0  0  0  0  0  0
  161.4740  210.9650  153.2390 N   0  0  0  0  0  2  0  0  0  0  0  0
  158.6700  210.7620  152.6240 O   0  0  0  0  0  0  0  0  0  0  0  0
  156.3570  212.5000  155.9170 C   0  0  1  0  0  3  0  0  0  0  0  0
  158.3290  211.1050  156.3220 C   0  0  0  0  0  2  0  0  0  0  0  0
  155.0980  211.9880  156.2360 O   0  0  0  0  0  1  0  0  0  0  0  0
  159.0600  210.7620  153.8590 C   0  0  0  0  0  0  0  0  0  0  0  0
  157.3840  212.1120  156.9970 C   0  0  0  0  0  2  0  0  0  0  0  0
  156.8130  211.8560  154.6020 C   0  0  0  0  0  2  0  0  0  0  0  0
  158.0720  211.1960  154.8570 N   0  0  0  0  0  0  0  0  0  0  0  0
  160.9000  207.7780  155.1160 C   0  0  0  0  0  0  0  0  0  0  0  0
  161.9270  207.6930  155.7600 O   0  0  0  0  0  1  0  0  0  0  0  0
  159.7500  207.1990  155.6230 O   0  0  0  0  0  0  0  0  0  0  0  0
  160.7690  206.2340  152.2640 C   0  0  2  0  0  3  0  0  0  0  0  0
  160.8490  205.4790  153.4450 O   0  0  0  0  0  1  0  0  0  0  0  0
  160.5380  205.3370  151.0280 C   0  0  0  0  0  2  0  0  0  0  0  0
  160.6450  203.9080  151.4650 N   0  0  0  0  0  0  0  0  0  0  0  0
  159.8300  203.1700  150.5050 C   0  0  0  0  0  2  0  0  0  0  0  0
  160.6870  202.9640  149.2970 C   0  0  0  0  0  1  0  0  0  0  0  0
  161.9520  203.4200  151.8390 C   0  0  0  0  0  2  0  0  0  0  0  0
  162.1840  201.9280  151.5630 C   0  0  0  0  0  1  0  0  0  0  0  0
  1  2  2  0  0  0  0
  2 41  1  0  0  0  0
  3  1  2  0  0  0  0
  4  5  2  0  0  0  0
  5  3  1  0  0  0  0
  6  5  1  0  0  0  0
  7  9  1  0  0  0  0
  7 10  1  0  0  0  0
  8 11  1  0  0  0  0
  9  6  1  1  0  0  0
  9 11  1  0  0  0  0
 10  8  1  0  0  0  0
 12 14  1  0  0  0  0
 13 12  1  6  0  0  0
 13 14  1  0  0  0  0
 14 27  1  6  0  0  0
 14  9  1  0  0  0  0
 15 17  1  0  0  0  0
 17 24  1  0  0  0  0
 18 17  2  0  0  0  0
 18 21  1  0  0  0  0
 19 23  1  0  0  0  0
 19 15  2  0  0  0  0
 20 13  1  1  0  0  0
 21 25  1  0  0  0  0
 22 20  1  0  0  0  0
 23 18  1  0  0  0  0
 24 16  1  0  0  0  0
 24 25  1  0  0  0  0
 24 22  1  0  0  0  0
 25 22  1  0  0  0  0
 25 20  1  0  0  0  0
 26 27  2  0  0  0  0
 27 28  1  0  0  0  0
 28 30  1  0  0  0  0
 30 33  1  0  0  0  0
 31 32  1  0  0  0  0
 31 29  1  0  0  0  0
 32 29  1  0  0  0  0
 33 31  1  0  0  0  0
 34  2  1  0  0  0  0
 35 34  1  0  0  0  0
 37 36  1  0  0  0  0
 37 35  1  0  0  0  0
 38 37  1  0  0  0  0
 39 37  1  0  0  0  0
 40 39  1  0  0  0  0
 41 42  1  0  0  0  0
 42 60  1  0  0  0  0
 42 45  1  0  0  0  0
 43 44  1  0  0  0  0
 44 45  1  0  0  0  0
 44 48  1  0  0  0  0
 45 47  1  0  0  0  0
 47 46  1  0  0  0  0
 47 57  1  0  0  0  0
 48 46  1  0  0  0  0
 49 53  2  0  0  0  0
 50 52  1  0  0  0  0
 50 54  1  0  0  0  0
 51 54  1  0  0  0  0
 53 46  1  0  0  0  0
 53 56  1  0  0  0  0
 55 56  1  0  0  0  0
 55 50  1  0  0  0  0
 56 51  1  0  0  0  0
 57 59  2  0  0  0  0
 57 58  1  0  0  0  0
 60 61  1  0  0  0  0
 62 63  1  0  0  0  0
 62 60  1  0  0  0  0
 63 66  1  0  0  0  0
 64 63  1  0  0  0  0
 65 64  1  0  0  0  0
 67 66  1  0  0  0  0
M  END
>  <MODEL>
1

>  <REMARK>
 VINA RESULT:      -5.5      0.000      0.000
  Name = 
  22 active torsions:
  status: ('A' for Active; 'I' for Inactive)
    1  A    between atoms: C_1  and  N_54
    2  A    between atoms: C_10  and  O_36
    3  A    between atoms: C_11  and  C_16
    4  A    between atoms: C_11  and  N_54
    5  A    between atoms: O_12  and  C_20
    6  A    between atoms: O_12  and  C_30
    7  A    between atoms: C_16  and  C_23
    8  A    between atoms: C_20  and  C_61
    9  A    between atoms: C_23  and  C_40
   10  A    between atoms: C_23  and  C_62
   11  A    between atoms: C_25  and  C_39
   12  A    between atoms: C_27  and  N_54
   13  A    between atoms: C_30  and  C_60
   14  A    between atoms: C_34  and  C_43
   15  A    between atoms: C_35  and  O_48
   16  A    between atoms: C_35  and  C_62
   17  A    between atoms: O_36  and  C_64
   18  A    between atoms: C_38  and  C_51
   19  A    between atoms: C_39  and  O_56
   20  A    between atoms: C_45  and  C_46
   21  A    between atoms: O_48  and  O_56
   22  A    between atoms: C_61  and  C_64
                            x       y       z     vdW  Elec       q    Type
                         _______ _______ _______ _____ _____    ______ ____

>  <TORSDO>
F 22

$$$$
