=
 OpenBabel11072415193D

 63 71  0  0  1  0  0  0  0  0999 V2000
  160.8810  212.9190  152.6650 C   0  0  0  0  0  2  0  0  0  0  0  0
  156.4190  211.5840  155.3370 C   0  0  2  0  0  3  0  0  0  0  0  0
  159.3700  213.1740  152.5210 C   0  0  2  0  0  0  0  0  0  0  0  0
  159.0260  211.3420  154.3610 C   0  0  2  0  0  3  0  0  0  0  0  0
  161.2990  212.5380  154.0810 C   0  0  0  0  0  2  0  0  0  0  0  0
  158.8010  209.3250  155.8420 C   0  0  0  0  0  0  0  0  0  0  0  0
  156.2810  212.4450  154.0620 C   0  0  0  0  0  2  0  0  0  0  0  0
  158.5920  211.9150  153.0040 C   0  0  1  0  0  3  0  0  0  0  0  0
  161.3100  209.9820  154.3770 C   0  0  1  0  0  3  0  0  0  0  0  0
  160.5560  211.3060  154.5820 C   0  0  2  0  0  3  0  0  0  0  0  0
  161.1390  208.9660  155.4840 C   0  0  0  0  0  0  0  0  0  0  0  0
  157.3750  209.4550  156.3350 C   0  0  0  0  0  2  0  0  0  0  0  0
  159.9290  208.8450  156.2500 N   0  0  0  0  0  0  0  0  0  0  0  0
  156.8910  210.1260  155.0830 C   0  0  2  0  0  3  0  0  0  0  0  0
  162.1180  208.2310  155.7790 O   0  0  0  0  0  0  0  0  0  0  0  0
  157.0620  211.9630  152.8310 C   0  0  0  0  0  2  0  0  0  0  0  0
  158.3130  210.0040  154.5960 C   0  0  1  0  0  3  0  0  0  0  0  0
  158.2190  212.7520  148.3030 C   0  0  1  0  0  3  0  0  0  0  0  0
  159.1170  213.4310  151.0120 C   0  0  2  0  0  3  0  0  0  0  0  0
  157.6250  213.4170  150.6330 C   0  0  0  0  0  2  0  0  0  0  0  0
  159.7170  212.8050  148.6270 C   0  0  2  0  0  3  0  0  0  0  0  0
  159.9190  212.4740  150.1070 C   0  0  0  0  0  2  0  0  0  0  0  0
  160.2460  214.0730  148.3570 O   0  0  0  0  0  1  0  0  0  0  0  0
  157.4140  213.7310  149.1580 C   0  0  0  0  0  2  0  0  0  0  0  0
  157.8870  212.8190  146.8120 C   0  0  0  0  0  2  0  0  0  0  0  0
  158.8780  212.0870  145.9090 C   0  0  0  0  0  2  0  0  0  0  0  0
  160.1020  212.1000  143.9050 C   0  0  0  0  0  2  0  0  0  0  0  0
  160.0310  214.3240  145.2690 S   0  0  0  0  0  0  0  0  0  0  0  0
  159.1730  212.8710  144.7180 N   0  0  0  0  0  0  0  0  0  0  0  0
  161.3140  214.1630  143.9920 C   0  0  0  0  0  2  0  0  0  0  0  0
  160.8810  213.0660  143.0520 C   0  0  0  0  0  2  0  0  0  0  0  0
  161.3680  209.4120  152.9860 C   0  0  0  0  0  0  0  0  0  0  0  0
  161.3950  208.3510  150.3800 C   0  0  0  0  0  0  0  0  0  0  0  0
  160.9650  208.0830  152.7570 C   0  0  0  0  0  0  0  0  0  0  0  0
  161.7930  209.6720  150.6070 C   0  0  0  0  0  3  0  0  0  0  0  0
  160.9730  207.5620  151.4610 C   0  0  0  0  0  3  0  0  0  0  0  0
  161.7730  210.2010  151.9000 C   0  0  0  0  0  3  0  0  0  0  0  0
  160.5240  207.2580  153.8330 N   0  0  0  0  0  1  0  0  0  0  0  0
  161.3990  207.8400  149.0460 N   0  0  0  0  0  2  0  0  0  0  0  0
  161.0810  205.8810  147.5410 C   0  0  0  0  0  2  0  0  0  0  0  0
  163.1650  206.1760  148.7770 O   0  0  0  0  0  1  0  0  0  0  0  0
  160.7810  205.3880  148.9640 C   0  0  2  0  0  3  0  0  0  0  0  0
  161.8050  206.4820  148.7140 C   0  0  1  0  0  0  0  0  0  0  0  0
  160.2190  202.5290  147.6560 C   0  0  0  0  0  2  0  0  0  0  0  0
  160.6520  203.4080  150.2400 C   0  0  0  0  0  2  0  0  0  0  0  0
  161.4330  204.1040  149.2040 N   0  0  1  0  0  0  0  0  0  0  0  0
  161.0280  201.0250  149.6000 C   0  0  0  0  0  3  0  0  0  0  0  0
  161.4690  203.3760  147.9200 C   0  0  0  0  0  2  0  0  0  0  0  0
  160.3160  201.1210  148.2690 C   0  0  2  0  0  3  0  0  0  0  0  0
  161.1690  202.0210  150.4870 C   0  0  0  0  0  3  0  0  0  0  0  0
  161.3400  199.4640  145.1270 N   0  0  0  0  0  2  0  0  0  0  0  0
  160.6810  200.2430  145.9180 C   0  0  0  0  0  0  0  0  0  0  0  0
  160.9440  200.2090  147.3230 N   0  0  0  0  0  2  0  0  0  0  0  0
  159.6250  201.1320  145.3510 C   0  0  0  0  0  1  0  0  0  0  0  0
  155.1050  211.6520  156.1210 C   0  0  1  0  0  3  0  0  0  0  0  0
  154.9030  210.4810  156.8620 O   0  0  0  0  0  1  0  0  0  0  0  0
  155.0460  212.9070  156.9950 C   0  0  1  0  0  3  0  0  0  0  0  0
  156.4690  213.3810  157.2600 C   0  0  0  0  0  1  0  0  0  0  0  0
  154.2960  213.9650  156.3310 N   0  0  0  0  0  2  0  0  0  0  0  0
  152.2410  213.1980  157.2420 N   0  0  0  0  0  1  0  0  0  0  0  0
  153.1800  214.3070  157.2000 C   0  0  0  0  0  2  0  0  0  0  0  0
  158.9800  214.4480  153.3000 C   0  0  0  0  0  2  0  0  0  0  0  0
  157.9170  214.2350  154.1810 O   0  0  0  0  0  1  0  0  0  0  0  0
  1  5  1  0  0  0  0
  2 55  1  6  0  0  0
  3  1  1  0  0  0  0
  3  8  1  0  0  0  0
  3 62  1  1  0  0  0
  4 10  1  0  0  0  0
  4 17  1  0  0  0  0
  5 10  1  0  0  0  0
  6 13  2  0  0  0  0
  6 12  1  0  0  0  0
  7  2  1  0  0  0  0
  8  4  1  0  0  0  0
  9 10  1  0  0  0  0
  9 11  1  0  0  0  0
 11 15  2  0  0  0  0
 11 13  1  0  0  0  0
 14  2  1  0  0  0  0
 14 12  1  0  0  0  0
 16  8  1  0  0  0  0
 16  7  1  0  0  0  0
 17 14  1  0  0  0  0
 17  6  1  0  0  0  0
 18 21  1  0  0  0  0
 18 24  1  0  0  0  0
 19  3  1  0  0  0  0
 20 19  1  0  0  0  0
 21 22  1  0  0  0  0
 22 19  1  0  0  0  0
 23 21  1  0  0  0  0
 24 20  1  0  0  0  0
 25 18  1  0  0  0  0
 26 25  1  0  0  0  0
 27 29  1  0  0  0  0
 29 28  1  0  0  0  0
 29 26  1  0  0  0  0
 30 28  1  0  0  0  0
 31 27  1  0  0  0  0
 31 30  1  0  0  0  0
 32  9  1  0  0  0  0
 33 35  2  0  0  0  0
 33 36  1  0  0  0  0
 34 32  1  0  0  0  0
 34 38  1  0  0  0  0
 35 37  1  0  0  0  0
 36 34  2  0  0  0  0
 37 32  2  0  0  0  0
 39 33  1  0  0  0  0
 40 43  1  0  0  0  0
 40 42  1  0  0  0  0
 42 46  1  0  0  0  0
 43 41  1  0  0  0  0
 43 42  1  0  0  0  0
 43 39  1  0  0  0  0
 44 48  1  0  0  0  0
 44 49  1  0  0  0  0
 45 50  1  0  0  0  0
 46 45  1  0  0  0  0
 47 50  2  0  0  0  0
 48 46  1  0  0  0  0
 49 47  1  0  0  0  0
 51 52  2  0  0  0  0
 52 53  1  0  0  0  0
 53 49  1  0  0  0  0
 54 52  1  0  0  0  0
 55 56  1  0  0  0  0
 55 57  1  0  0  0  0
 57 58  1  0  0  0  0
 59 57  1  0  0  0  0
 59 61  1  0  0  0  0
 61 60  1  0  0  0  0
 62 63  1  0  0  0  0
M  END
>  <MODEL>
1

>  <REMARK>
 VINA RESULT:       2.3      0.000      0.000
  Name = 
  14 active torsions:
  status: ('A' for Active; 'I' for Inactive)
    1  A    between atoms: C_2  and  C_15
    2  A    between atoms: C_4  and  C_12
    3  A    between atoms: C_4  and  C_14
    4  A    between atoms: C_5  and  C_13
    5  A    between atoms: N_9  and  C_14
    6  A    between atoms: N_9  and  C_41
    7  A    between atoms: N_10  and  C_28
    8  A    between atoms: N_10  and  C_45
    9  A    between atoms: C_11  and  C_37
   10  A    between atoms: C_13  and  C_54
   11  A    between atoms: C_15  and  C_17
   12  A    between atoms: C_17  and  N_52
   13  A    between atoms: C_25  and  N_29
   14  A    between atoms: N_39  and  C_50
                            x       y       z     vdW  Elec       q    Type
                         _______ _______ _______ _____ _____    ______ ____

>  <TORSDO>
F 14

$$$$
=
 OpenBabel11072415193D

 63 71  0  0  1  0  0  0  0  0999 V2000
  161.8610  212.4520  150.7430 C   0  0  0  0  0  2  0  0  0  0  0  0
  157.2790  212.5220  153.5400 C   0  0  2  0  0  3  0  0  0  0  0  0
  160.4510  213.0430  150.5680 C   0  0  2  0  0  0  0  0  0  0  0  0
  159.7290  211.5600  152.6020 C   0  0  2  0  0  3  0  0  0  0  0  0
  162.2130  212.1410  152.1930 C   0  0  0  0  0  2  0  0  0  0  0  0
  159.0700  209.8300  154.3010 C   0  0  0  0  0  0  0  0  0  0  0  0
  157.3170  213.2460  152.1750 C   0  0  0  0  0  2  0  0  0  0  0  0
  159.4090  212.0670  151.1880 C   0  0  1  0  0  3  0  0  0  0  0  0
  161.6250  209.7050  152.7770 C   0  0  1  0  0  3  0  0  0  0  0  0
  161.2120  211.1840  152.8290 C   0  0  2  0  0  3  0  0  0  0  0  0
  161.2460  208.8870  153.9910 C   0  0  0  0  0  0  0  0  0  0  0  0
  157.7280  210.3500  154.7740 C   0  0  0  0  0  2  0  0  0  0  0  0
  160.0610  209.1430  154.7630 N   0  0  0  0  0  0  0  0  0  0  0  0
  157.3850  210.9750  153.4530 C   0  0  2  0  0  3  0  0  0  0  0  0
  162.0300  207.9770  154.3680 O   0  0  0  0  0  0  0  0  0  0  0  0
  157.9310  212.4580  151.0090 C   0  0  0  0  0  2  0  0  0  0  0  0
  158.7250  210.4650  152.9860 C   0  0  1  0  0  3  0  0  0  0  0  0
  159.4660  212.2730  146.3570 C   0  0  1  0  0  3  0  0  0  0  0  0
  160.2280  213.1850  149.0390 C   0  0  2  0  0  3  0  0  0  0  0  0
  158.7540  213.0410  148.6220 C   0  0  0  0  0  2  0  0  0  0  0  0
  160.9450  212.4540  146.7170 C   0  0  2  0  0  3  0  0  0  0  0  0
  161.1230  212.2320  148.2210 C   0  0  0  0  0  2  0  0  0  0  0  0
  161.3930  213.7370  146.3790 O   0  0  0  0  0  1  0  0  0  0  0  0
  158.5680  213.2440  147.1240 C   0  0  0  0  0  2  0  0  0  0  0  0
  159.1770  212.2220  144.8570 C   0  0  0  0  0  2  0  0  0  0  0  0
  159.0030  213.5890  144.1980 C   0  0  0  0  0  2  0  0  0  0  0  0
  158.6940  213.1040  141.9210 C   0  0  0  0  0  2  0  0  0  0  0  0
  161.0030  212.4830  142.9670 S   0  0  0  0  0  0  0  0  0  0  0  0
  159.6460  213.6240  142.8920 N   0  0  0  0  0  0  0  0  0  0  0  0
  160.5700  211.7200  141.3760 C   0  0  0  0  0  2  0  0  0  0  0  0
  159.4770  212.5540  140.7580 C   0  0  0  0  0  2  0  0  0  0  0  0
  161.5110  208.9870  151.4590 C   0  0  0  0  0  0  0  0  0  0  0  0
  161.2180  207.6610  148.9950 C   0  0  0  0  0  0  0  0  0  0  0  0
  160.9550  207.6950  151.4110 C   0  0  0  0  0  0  0  0  0  0  0  0
  161.7680  208.9450  149.0420 C   0  0  0  0  0  3  0  0  0  0  0  0
  160.8040  207.0430  150.1850 C   0  0  0  0  0  3  0  0  0  0  0  0
  161.9070  209.6060  150.2640 C   0  0  0  0  0  3  0  0  0  0  0  0
  160.5190  207.0430  152.6020 N   0  0  0  0  0  1  0  0  0  0  0  0
  161.0610  207.0140  147.7300 N   0  0  0  0  0  2  0  0  0  0  0  0
  160.9350  204.9580  146.3300 C   0  0  0  0  0  2  0  0  0  0  0  0
  163.0310  205.6090  147.3990 O   0  0  0  0  0  1  0  0  0  0  0  0
  160.8050  204.4970  147.7900 C   0  0  2  0  0  3  0  0  0  0  0  0
  161.6390  205.7140  147.4240 C   0  0  1  0  0  0  0  0  0  0  0  0
  160.3760  201.4430  146.9620 C   0  0  0  0  0  2  0  0  0  0  0  0
  161.1860  202.7090  149.2810 C   0  0  0  0  0  2  0  0  0  0  0  0
  161.6530  203.3330  148.0320 N   0  0  1  0  0  0  0  0  0  0  0  0
  161.7370  200.3130  148.8510 C   0  0  0  0  0  3  0  0  0  0  0  0
  161.5330  202.4440  146.8600 C   0  0  0  0  0  2  0  0  0  0  0  0
  160.7730  200.1510  147.6970 C   0  0  2  0  0  3  0  0  0  0  0  0
  161.9170  201.4310  149.5700 C   0  0  0  0  0  3  0  0  0  0  0  0
  161.6320  198.4030  144.5540 N   0  0  0  0  0  2  0  0  0  0  0  0
  161.0440  199.2350  145.3470 C   0  0  0  0  0  0  0  0  0  0  0  0
  161.3180  199.1870  146.7500 N   0  0  0  0  0  2  0  0  0  0  0  0
  160.0560  200.2010  144.7860 C   0  0  0  0  0  1  0  0  0  0  0  0
  156.0390  212.9870  154.3090 C   0  0  1  0  0  3  0  0  0  0  0  0
  155.4770  211.9320  155.0380 O   0  0  0  0  0  1  0  0  0  0  0  0
  156.3550  214.1960  155.1920 C   0  0  1  0  0  3  0  0  0  0  0  0
  155.4190  214.1780  156.3940 C   0  0  0  0  0  1  0  0  0  0  0  0
  157.7380  214.1530  155.6530 N   0  0  0  0  0  2  0  0  0  0  0  0
  158.6190  212.6410  157.2580 N   0  0  0  0  0  1  0  0  0  0  0  0
  157.7080  213.7550  157.0520 C   0  0  0  0  0  2  0  0  0  0  0  0
  160.3940  214.4510  151.1970 C   0  0  0  0  0  2  0  0  0  0  0  0
  160.0400  214.4220  152.5480 O   0  0  0  0  0  1  0  0  0  0  0  0
  1  5  1  0  0  0  0
  2 55  1  6  0  0  0
  3  1  1  0  0  0  0
  3  8  1  0  0  0  0
  3 62  1  1  0  0  0
  4 10  1  0  0  0  0
  4 17  1  0  0  0  0
  5 10  1  0  0  0  0
  6 13  2  0  0  0  0
  6 12  1  0  0  0  0
  7  2  1  0  0  0  0
  8  4  1  0  0  0  0
  9 10  1  0  0  0  0
  9 11  1  0  0  0  0
 11 15  2  0  0  0  0
 11 13  1  0  0  0  0
 14  2  1  0  0  0  0
 14 12  1  0  0  0  0
 16  8  1  0  0  0  0
 16  7  1  0  0  0  0
 17 14  1  0  0  0  0
 17  6  1  0  0  0  0
 18 21  1  0  0  0  0
 18 24  1  0  0  0  0
 19  3  1  0  0  0  0
 20 19  1  0  0  0  0
 21 22  1  0  0  0  0
 22 19  1  0  0  0  0
 23 21  1  0  0  0  0
 24 20  1  0  0  0  0
 25 18  1  0  0  0  0
 26 25  1  0  0  0  0
 27 29  1  0  0  0  0
 29 28  1  0  0  0  0
 29 26  1  0  0  0  0
 30 28  1  0  0  0  0
 31 30  1  0  0  0  0
 31 27  1  0  0  0  0
 32  9  1  0  0  0  0
 33 35  2  0  0  0  0
 33 36  1  0  0  0  0
 34 32  1  0  0  0  0
 34 38  1  0  0  0  0
 35 37  1  0  0  0  0
 36 34  2  0  0  0  0
 37 32  2  0  0  0  0
 39 33  1  0  0  0  0
 40 43  1  0  0  0  0
 40 42  1  0  0  0  0
 41 43  1  0  0  0  0
 42 46  1  0  0  0  0
 43 39  1  0  0  0  0
 43 42  1  0  0  0  0
 44 49  1  0  0  0  0
 45 50  1  0  0  0  0
 46 45  1  0  0  0  0
 47 50  2  0  0  0  0
 48 44  1  0  0  0  0
 48 46  1  0  0  0  0
 49 47  1  0  0  0  0
 51 52  2  0  0  0  0
 52 53  1  0  0  0  0
 53 49  1  0  0  0  0
 54 52  1  0  0  0  0
 55 56  1  0  0  0  0
 55 57  1  0  0  0  0
 57 59  1  0  0  0  0
 57 58  1  0  0  0  0
 59 61  1  0  0  0  0
 61 60  1  0  0  0  0
 62 63  1  0  0  0  0
M  END
>  <MODEL>
2

>  <REMARK>
 VINA RESULT:       2.9      1.731      2.207
  Name = 
  14 active torsions:
  status: ('A' for Active; 'I' for Inactive)
    1  A    between atoms: C_2  and  C_15
    2  A    between atoms: C_4  and  C_12
    3  A    between atoms: C_4  and  C_14
    4  A    between atoms: C_5  and  C_13
    5  A    between atoms: N_9  and  C_14
    6  A    between atoms: N_9  and  C_41
    7  A    between atoms: N_10  and  C_28
    8  A    between atoms: N_10  and  C_45
    9  A    between atoms: C_11  and  C_37
   10  A    between atoms: C_13  and  C_54
   11  A    between atoms: C_15  and  C_17
   12  A    between atoms: C_17  and  N_52
   13  A    between atoms: C_25  and  N_29
   14  A    between atoms: N_39  and  C_50
                            x       y       z     vdW  Elec       q    Type
                         _______ _______ _______ _____ _____    ______ ____

>  <TORSDO>
F 14

$$$$
=
 OpenBabel11072415193D

 63 71  0  0  1  0  0  0  0  0999 V2000
  160.5750  213.2820  151.9950 C   0  0  0  0  0  2  0  0  0  0  0  0
  156.2980  211.7430  154.8510 C   0  0  2  0  0  3  0  0  0  0  0  0
  159.0630  213.1280  151.7530 C   0  0  2  0  0  0  0  0  0  0  0  0
  158.9690  211.8540  154.0390 C   0  0  2  0  0  3  0  0  0  0  0  0
  160.9430  213.4190  153.4680 C   0  0  0  0  0  2  0  0  0  0  0  0
  159.0610  210.3350  156.0380 C   0  0  0  0  0  0  0  0  0  0  0  0
  156.0860  212.1580  153.3780 C   0  0  0  0  0  2  0  0  0  0  0  0
  158.5390  211.9080  152.5660 C   0  0  1  0  0  3  0  0  0  0  0  0
  161.4830  211.1230  154.4960 C   0  0  1  0  0  3  0  0  0  0  0  0
  160.4450  212.2380  154.2920 C   0  0  2  0  0  3  0  0  0  0  0  0
  161.4430  210.4450  155.8470 C   0  0  0  0  0  0  0  0  0  0  0  0
  157.6030  210.2610  156.4440 C   0  0  0  0  0  2  0  0  0  0  0  0
  160.2260  210.2640  156.5910 N   0  0  0  0  0  0  0  0  0  0  0  0
  157.0940  210.4240  155.0420 C   0  0  2  0  0  3  0  0  0  0  0  0
  162.5290  210.0710  156.3620 O   0  0  0  0  0  0  0  0  0  0  0  0
  157.0560  211.5480  152.3560 C   0  0  0  0  0  2  0  0  0  0  0  0
  158.5460  210.5060  154.6400 C   0  0  1  0  0  3  0  0  0  0  0  0
  159.0190  213.5930  147.3850 C   0  0  1  0  0  3  0  0  0  0  0  0
  158.8910  212.8870  150.2290 C   0  0  2  0  0  3  0  0  0  0  0  0
  160.2220  212.8960  149.4570 C   0  0  0  0  0  2  0  0  0  0  0  0
  157.6670  213.5450  148.1060 C   0  0  2  0  0  3  0  0  0  0  0  0
  157.8810  213.8600  149.5890 C   0  0  0  0  0  2  0  0  0  0  0  0
  157.0720  212.2830  147.9800 O   0  0  0  0  0  1  0  0  0  0  0  0
  160.0180  212.5980  147.9770 C   0  0  0  0  0  2  0  0  0  0  0  0
  158.9300  213.5410  145.8600 C   0  0  0  0  0  2  0  0  0  0  0  0
  159.5190  212.2780  145.2330 C   0  0  0  0  0  2  0  0  0  0  0  0
  160.6950  212.0640  143.2120 C   0  0  0  0  0  2  0  0  0  0  0  0
  158.9010  213.9550  143.3490 S   0  0  0  0  0  0  0  0  0  0  0  0
  159.3780  212.3010  143.7840 N   0  0  0  0  0  0  0  0  0  0  0  0
  160.1230  214.0530  142.0080 C   0  0  0  0  0  2  0  0  0  0  0  0
  160.7170  212.6780  141.8370 C   0  0  0  0  0  2  0  0  0  0  0  0
  161.7840  210.2180  153.3320 C   0  0  0  0  0  0  0  0  0  0  0  0
  162.2660  208.5190  151.1410 C   0  0  0  0  0  0  0  0  0  0  0  0
  161.5290  208.8370  153.4350 C   0  0  0  0  0  0  0  0  0  0  0  0
  162.5160  209.8900  151.0380 C   0  0  0  0  0  3  0  0  0  0  0  0
  161.7630  207.9980  152.3430 C   0  0  0  0  0  3  0  0  0  0  0  0
  162.2700  210.7350  152.1230 C   0  0  0  0  0  3  0  0  0  0  0  0
  161.0110  208.2780  154.6410 N   0  0  0  0  0  1  0  0  0  0  0  0
  162.4990  207.6790  150.0090 N   0  0  0  0  0  2  0  0  0  0  0  0
  161.3300  205.4960  149.7410 C   0  0  0  0  0  2  0  0  0  0  0  0
  160.2200  207.5850  149.1380 O   0  0  0  0  0  1  0  0  0  0  0  0
  161.8840  205.8640  148.3570 C   0  0  2  0  0  3  0  0  0  0  0  0
  161.4420  206.9400  149.3350 C   0  0  1  0  0  0  0  0  0  0  0  0
  161.5160  203.4120  146.3440 C   0  0  0  0  0  2  0  0  0  0  0  0
  161.4170  206.1590  146.0630 C   0  0  0  0  0  2  0  0  0  0  0  0
  160.8720  205.6400  147.3290 N   0  0  1  0  0  0  0  0  0  0  0  0
  160.3140  204.6460  144.4140 C   0  0  0  0  0  3  0  0  0  0  0  0
  160.5920  204.1910  147.2880 C   0  0  0  0  0  2  0  0  0  0  0  0
  160.9990  203.3870  144.8950 C   0  0  2  0  0  3  0  0  0  0  0  0
  160.5020  205.8790  144.9080 C   0  0  0  0  0  3  0  0  0  0  0  0
  159.3150  200.1220  145.3170 N   0  0  0  0  0  2  0  0  0  0  0  0
  160.1970  201.0520  145.4770 C   0  0  0  0  0  0  0  0  0  0  0  0
  160.1050  202.2530  144.7050 N   0  0  0  0  0  2  0  0  0  0  0  0
  161.3200  200.8340  146.4350 C   0  0  0  0  0  1  0  0  0  0  0  0
  154.9370  211.7190  155.5550 C   0  0  1  0  0  3  0  0  0  0  0  0
  154.4780  210.4060  155.7120 O   0  0  0  0  0  1  0  0  0  0  0  0
  154.9880  212.4760  156.8840 C   0  0  1  0  0  3  0  0  0  0  0  0
  156.3940  213.0310  157.0730 C   0  0  0  0  0  1  0  0  0  0  0  0
  154.0270  213.5720  156.8920 N   0  0  0  0  0  2  0  0  0  0  0  0
  155.7170  214.4510  155.4750 N   0  0  0  0  0  1  0  0  0  0  0  0
  154.2840  214.3730  155.7060 C   0  0  0  0  0  2  0  0  0  0  0  0
  158.3400  214.4410  152.1190 C   0  0  0  0  0  2  0  0  0  0  0  0
  156.9830  214.2490  152.3910 O   0  0  0  0  0  1  0  0  0  0  0  0
  1  5  1  0  0  0  0
  2 14  1  0  0  0  0
  2 55  1  6  0  0  0
  3  1  1  0  0  0  0
  3 62  1  1  0  0  0
  3  8  1  0  0  0  0
  4 10  1  0  0  0  0
  4 17  1  0  0  0  0
  5 10  1  0  0  0  0
  6 12  1  0  0  0  0
  6 13  2  0  0  0  0
  7  2  1  0  0  0  0
  8  4  1  0  0  0  0
  9 11  1  0  0  0  0
 10  9  1  0  0  0  0
 11 15  2  0  0  0  0
 11 13  1  0  0  0  0
 14 12  1  0  0  0  0
 16  8  1  0  0  0  0
 16  7  1  0  0  0  0
 17 14  1  0  0  0  0
 17  6  1  0  0  0  0
 18 24  1  0  0  0  0
 18 21  1  0  0  0  0
 19  3  1  0  0  0  0
 20 19  1  0  0  0  0
 21 22  1  0  0  0  0
 22 19  1  0  0  0  0
 23 21  1  0  0  0  0
 24 20  1  0  0  0  0
 25 18  1  0  0  0  0
 26 25  1  0  0  0  0
 27 29  1  0  0  0  0
 28 29  1  0  0  0  0
 29 26  1  0  0  0  0
 30 28  1  0  0  0  0
 31 30  1  0  0  0  0
 31 27  1  0  0  0  0
 32 34  1  0  0  0  0
 32  9  1  0  0  0  0
 33 36  1  0  0  0  0
 34 38  1  0  0  0  0
 35 33  2  0  0  0  0
 35 37  1  0  0  0  0
 36 34  2  0  0  0  0
 37 32  2  0  0  0  0
 39 33  1  0  0  0  0
 41 43  1  0  0  0  0
 42 43  1  0  0  0  0
 42 40  1  0  0  0  0
 43 40  1  0  0  0  0
 43 39  1  0  0  0  0
 44 48  1  0  0  0  0
 45 46  1  0  0  0  0
 46 42  1  0  0  0  0
 47 49  1  0  0  0  0
 47 50  2  0  0  0  0
 48 46  1  0  0  0  0
 49 44  1  0  0  0  0
 50 45  1  0  0  0  0
 51 52  2  0  0  0  0
 52 54  1  0  0  0  0
 53 49  1  0  0  0  0
 53 52  1  0  0  0  0
 55 56  1  0  0  0  0
 55 57  1  0  0  0  0
 57 59  1  0  0  0  0
 57 58  1  0  0  0  0
 60 61  1  0  0  0  0
 61 59  1  0  0  0  0
 62 63  1  0  0  0  0
M  END
>  <MODEL>
3

>  <REMARK>
 VINA RESULT:       3.2      1.526      2.190
  Name = 
  14 active torsions:
  status: ('A' for Active; 'I' for Inactive)
    1  A    between atoms: C_2  and  C_15
    2  A    between atoms: C_4  and  C_12
    3  A    between atoms: C_4  and  C_14
    4  A    between atoms: C_5  and  C_13
    5  A    between atoms: N_9  and  C_14
    6  A    between atoms: N_9  and  C_41
    7  A    between atoms: N_10  and  C_28
    8  A    between atoms: N_10  and  C_45
    9  A    between atoms: C_11  and  C_37
   10  A    between atoms: C_13  and  C_54
   11  A    between atoms: C_15  and  C_17
   12  A    between atoms: C_17  and  N_52
   13  A    between atoms: C_25  and  N_29
   14  A    between atoms: N_39  and  C_50
                            x       y       z     vdW  Elec       q    Type
                         _______ _______ _______ _____ _____    ______ ____

>  <TORSDO>
F 14

$$$$
