=
 OpenBabel11072412373D

 31 34  0  0  1  0  0  0  0  0999 V2000
  161.0140  207.2330  153.1530 C   0  0  0  0  0  2  0  0  0  0  0  0
  162.0950  208.0230  152.4230 C   0  0  2  0  0  3  0  0  0  0  0  0
  161.6170  211.3030  148.3580 C   0  0  0  0  0  3  0  0  0  0  0  0
  162.0540  209.5740  152.5680 C   0  0  1  0  0  3  0  0  0  0  0  0
  161.9470  208.9330  150.2650 C   0  0  0  0  0  0  0  0  0  0  0  0
  162.5870  210.1770  148.2170 C   0  0  0  0  0  2  0  0  0  0  0  0
  162.1860  208.9420  148.9540 C   0  0  0  0  0  3  0  0  0  0  0  0
  161.6430  211.3440  150.8480 C   0  0  0  0  0  3  0  0  0  0  0  0
  160.9240  206.6950  150.7740 C   0  0  2  0  0  3  0  0  0  0  0  0
  161.9640  210.0800  151.1550 C   0  0  0  0  0  0  0  0  0  0  0  0
  161.9050  207.7330  151.0150 N   0  0  0  0  0  0  0  0  0  0  0  0
  161.2450  211.8620  149.5180 C   0  0  0  0  0  0  0  0  0  0  0  0
  160.5040  206.2010  152.1550 C   0  0  0  0  0  2  0  0  0  0  0  0
  161.1510  211.4300  155.5480 C   0  0  0  0  0  3  0  0  0  0  0  0
  159.8030  210.5500  152.9410 C   0  0  0  0  0  3  0  0  0  0  0  0
  160.0710  212.2110  155.5210 C   0  0  0  0  0  3  0  0  0  0  0  0
  160.9600  210.1160  153.4610 C   0  0  0  0  0  0  0  0  0  0  0  0
  158.6970  211.1700  153.6970 C   0  0  0  0  0  3  0  0  0  0  0  0
  161.1880  210.0700  154.9360 C   0  0  0  0  0  2  0  0  0  0  0  0
  158.8130  211.8950  154.8160 C   0  0  0  0  0  3  0  0  0  0  0  0
  160.2030  213.6890  148.4040 O   0  0  0  0  0  0  0  0  0  0  0  0
  160.3700  213.0510  149.4820 C   0  0  0  0  0  0  0  0  0  0  0  0
  159.7030  213.4810  150.6720 N   0  0  0  0  0  0  0  0  0  0  0  0
  158.4350  213.4740  150.7570 N   0  0  0  0  0  2  0  0  0  0  0  0
  161.5100  205.5890  149.8870 C   0  0  1  0  0  3  0  0  0  0  0  0
  161.3060  204.1970  150.4130 C   0  0  0  0  0  0  0  0  0  0  0  0
  160.4480  203.4320  149.8990 O   0  0  0  0  0  0  0  0  0  0  0  0
  162.0580  203.7590  151.4940 O   0  0  0  0  0  1  0  0  0  0  0  0
  161.1210  205.7310  148.4480 C   0  0  0  0  0  0  0  0  0  0  0  0
  161.9220  205.1660  147.4150 N   0  0  0  0  0  1  0  0  0  0  0  0
  160.0700  206.3540  148.1490 O   0  0  0  0  0  0  0  0  0  0  0  0
  2  4  1  0  0  0  0
  2  1  1  1  0  0  0
  3 12  2  0  0  0  0
  4 17  1  1  0  0  0
  5 11  1  0  0  0  0
  5 10  1  0  0  0  0
  6  3  1  0  0  0  0
  6  7  1  0  0  0  0
  7  5  2  0  0  0  0
  8 10  2  0  0  0  0
  9 25  1  6  0  0  0
  9 11  1  0  0  0  0
  9 13  1  0  0  0  0
 10  4  1  0  0  0  0
 11  2  1  0  0  0  0
 12  8  1  0  0  0  0
 13  1  1  0  0  0  0
 15 17  2  0  0  0  0
 15 18  1  0  0  0  0
 16 14  2  0  0  0  0
 17 19  1  0  0  0  0
 18 20  2  0  0  0  0
 19 14  1  0  0  0  0
 20 16  1  0  0  0  0
 21 22  2  0  0  0  0
 22 12  1  0  0  0  0
 22 23  1  0  0  0  0
 23 24  2  0  0  0  0
 25 29  1  6  0  0  0
 25 26  1  0  0  0  0
 26 28  1  0  0  0  0
 27 26  2  0  0  0  0
 30 29  1  0  0  0  0
 31 29  2  0  0  0  0
M  END
>  <MODEL>
1

>  <REMARK>
 VINA RESULT:      -5.4      0.000      0.000
  Name = 
  6 active torsions:
  status: ('A' for Active; 'I' for Inactive)
    1  A    between atoms: C_1  and  C_23
    2  A    between atoms: C_2  and  C_23
    3  A    between atoms: N_4  and  C_26
    4  A    between atoms: C_10  and  C_22
    5  A    between atoms: C_18  and  C_23
    6  A    between atoms: C_25  and  C_26
                            x       y       z     vdW  Elec       q    Type
                         _______ _______ _______ _____ _____    ______ ____

>  <TORSDO>
F 6

$$$$
=
 OpenBabel11072412373D

 31 34  0  0  1  0  0  0  0  0999 V2000
  157.2090  214.2590  152.9810 C   0  0  0  0  0  2  0  0  0  0  0  0
  158.5450  213.8240  153.5740 C   0  0  2  0  0  3  0  0  0  0  0  0
  160.8790  209.1320  153.3770 C   0  0  0  0  0  3  0  0  0  0  0  0
  159.6800  213.4690  152.5670 C   0  0  1  0  0  3  0  0  0  0  0  0
  159.2270  211.6240  154.0240 C   0  0  0  0  0  0  0  0  0  0  0  0
  160.6740  209.7370  154.7270 C   0  0  0  0  0  2  0  0  0  0  0  0
  159.4490  210.5840  154.8250 C   0  0  0  0  0  3  0  0  0  0  0  0
  160.8190  211.2840  152.1270 C   0  0  0  0  0  3  0  0  0  0  0  0
  156.8480  212.3260  154.4260 C   0  0  2  0  0  3  0  0  0  0  0  0
  160.0640  212.0580  152.9190 C   0  0  0  0  0  0  0  0  0  0  0  0
  158.2640  212.6170  154.3250 N   0  0  0  0  0  0  0  0  0  0  0  0
  161.0060  209.8180  152.2340 C   0  0  0  0  0  0  0  0  0  0  0  0
  156.1400  213.5000  153.7580 C   0  0  0  0  0  2  0  0  0  0  0  0
  160.8170  213.6070  149.1270 C   0  0  0  0  0  3  0  0  0  0  0  0
  158.1760  213.1670  150.6160 C   0  0  0  0  0  3  0  0  0  0  0  0
  160.0460  213.0910  148.1700 C   0  0  0  0  0  3  0  0  0  0  0  0
  159.3310  213.6400  151.1050 C   0  0  0  0  0  0  0  0  0  0  0  0
  157.7600  213.2020  149.2000 C   0  0  0  0  0  3  0  0  0  0  0  0
  160.2790  214.4200  150.2570 C   0  0  0  0  0  2  0  0  0  0  0  0
  158.5720  213.1650  148.1370 C   0  0  0  0  0  3  0  0  0  0  0  0
  160.9930  207.8680  150.8710 O   0  0  0  0  0  0  0  0  0  0  0  0
  161.3280  209.0790  150.9960 C   0  0  0  0  0  0  0  0  0  0  0  0
  162.0200  209.7380  149.9320 N   0  0  0  0  0  0  0  0  0  0  0  0
  162.0510  209.2460  148.7610 N   0  0  0  0  0  2  0  0  0  0  0  0
  156.4380  212.1250  155.8910 C   0  0  1  0  0  3  0  0  0  0  0  0
  156.0720  213.3900  156.6130 C   0  0  0  0  0  0  0  0  0  0  0  0
  156.9430  214.0580  157.2290 O   0  0  0  0  0  1  0  0  0  0  0  0
  154.7500  213.8140  156.6170 O   0  0  0  0  0  0  0  0  0  0  0  0
  155.4230  211.0390  156.0660 C   0  0  0  0  0  0  0  0  0  0  0  0
  155.1370  210.1290  155.0080 N   0  0  0  0  0  1  0  0  0  0  0  0
  154.8200  210.9250  157.1640 O   0  0  0  0  0  0  0  0  0  0  0  0
  1 13  1  0  0  0  0
  2  1  1  6  0  0  0
  2 11  1  0  0  0  0
  3  6  1  0  0  0  0
  4 17  1  6  0  0  0
  4 10  1  0  0  0  0
  4  2  1  0  0  0  0
  5 11  1  0  0  0  0
  5  7  2  0  0  0  0
  6  7  1  0  0  0  0
  8 12  1  0  0  0  0
  8 10  2  0  0  0  0
  9 25  1  1  0  0  0
 10  5  1  0  0  0  0
 11  9  1  0  0  0  0
 12  3  2  0  0  0  0
 13  9  1  0  0  0  0
 14 19  1  0  0  0  0
 15 17  2  0  0  0  0
 16 14  2  0  0  0  0
 18 15  1  0  0  0  0
 19 17  1  0  0  0  0
 20 16  1  0  0  0  0
 20 18  2  0  0  0  0
 21 22  2  0  0  0  0
 22 12  1  0  0  0  0
 23 22  1  0  0  0  0
 24 23  2  0  0  0  0
 25 29  1  6  0  0  0
 25 26  1  0  0  0  0
 26 28  2  0  0  0  0
 26 27  1  0  0  0  0
 29 31  2  0  0  0  0
 30 29  1  0  0  0  0
M  END
>  <MODEL>
2

>  <REMARK>
 VINA RESULT:      -5.2      3.964      7.718
  Name = 
  6 active torsions:
  status: ('A' for Active; 'I' for Inactive)
    1  A    between atoms: C_1  and  C_23
    2  A    between atoms: C_2  and  C_23
    3  A    between atoms: N_4  and  C_26
    4  A    between atoms: C_10  and  C_22
    5  A    between atoms: C_18  and  C_23
    6  A    between atoms: C_25  and  C_26
                            x       y       z     vdW  Elec       q    Type
                         _______ _______ _______ _____ _____    ______ ____

>  <TORSDO>
F 6

$$$$
=
 OpenBabel11072412373D

 31 34  0  0  1  0  0  0  0  0999 V2000
  161.1790  205.6370  152.0940 C   0  0  0  0  0  2  0  0  0  0  0  0
  162.2360  206.6460  151.6580 C   0  0  2  0  0  3  0  0  0  0  0  0
  161.6270  211.1620  149.0620 C   0  0  0  0  0  3  0  0  0  0  0  0
  162.2070  208.0410  152.3520 C   0  0  1  0  0  3  0  0  0  0  0  0
  162.0150  208.2690  149.9770 C   0  0  0  0  0  0  0  0  0  0  0  0
  162.5870  210.1710  148.4920 C   0  0  0  0  0  2  0  0  0  0  0  0
  162.2070  208.7500  148.7510 C   0  0  0  0  0  3  0  0  0  0  0  0
  161.7420  210.3070  151.3980 C   0  0  0  0  0  3  0  0  0  0  0  0
  161.0010  205.9880  149.6850 C   0  0  2  0  0  3  0  0  0  0  0  0
  162.0690  209.0200  151.2200 C   0  0  0  0  0  0  0  0  0  0  0  0
  161.9950  206.8800  150.2480 N   0  0  0  0  0  0  0  0  0  0  0  0
  161.3000  211.2650  150.3570 C   0  0  0  0  0  0  0  0  0  0  0  0
  160.6290  205.0270  150.8100 C   0  0  0  0  0  2  0  0  0  0  0  0
  160.8830  207.0280  155.5720 C   0  0  0  0  0  3  0  0  0  0  0  0
  160.6340  209.4260  153.6810 C   0  0  0  0  0  3  0  0  0  0  0  0
  160.3470  207.9520  156.3700 C   0  0  0  0  0  3  0  0  0  0  0  0
  161.1480  208.2160  153.4180 C   0  0  0  0  0  0  0  0  0  0  0  0
  159.6590  209.7360  154.7450 C   0  0  0  0  0  3  0  0  0  0  0  0
  160.6450  206.9870  154.1000 C   0  0  0  0  0  2  0  0  0  0  0  0
  159.5360  209.0980  155.9140 C   0  0  0  0  0  3  0  0  0  0  0  0
  160.1810  213.3320  149.9900 O   0  0  0  0  0  0  0  0  0  0  0  0
  160.4280  212.3790  150.7820 C   0  0  0  0  0  0  0  0  0  0  0  0
  159.8580  212.3790  152.0930 N   0  0  0  0  0  0  0  0  0  0  0  0
  158.6010  212.4460  152.2660 N   0  0  0  0  0  2  0  0  0  0  0  0
  161.5500  205.2800  148.4400 C   0  0  1  0  0  3  0  0  0  0  0  0
  161.2580  203.8070  148.3830 C   0  0  0  0  0  0  0  0  0  0  0  0
  161.0120  203.1570  149.4330 O   0  0  0  0  0  1  0  0  0  0  0  0
  161.2830  203.1530  147.1590 O   0  0  0  0  0  0  0  0  0  0  0  0
  161.2070  205.9910  147.1680 C   0  0  0  0  0  0  0  0  0  0  0  0
  162.1740  206.1470  146.1340 N   0  0  0  0  0  1  0  0  0  0  0  0
  160.0470  206.4520  147.0090 O   0  0  0  0  0  0  0  0  0  0  0  0
  2  1  1  1  0  0  0
  2  4  1  0  0  0  0
  3 12  2  0  0  0  0
  4 17  1  1  0  0  0
  5 11  1  0  0  0  0
  5 10  1  0  0  0  0
  6  7  1  0  0  0  0
  6  3  1  0  0  0  0
  7  5  2  0  0  0  0
  9 25  1  6  0  0  0
  9 11  1  0  0  0  0
  9 13  1  0  0  0  0
 10  8  2  0  0  0  0
 10  4  1  0  0  0  0
 11  2  1  0  0  0  0
 12 22  1  0  0  0  0
 12  8  1  0  0  0  0
 13  1  1  0  0  0  0
 14 16  2  0  0  0  0
 15 18  1  0  0  0  0
 17 15  2  0  0  0  0
 17 19  1  0  0  0  0
 18 20  2  0  0  0  0
 19 14  1  0  0  0  0
 20 16  1  0  0  0  0
 21 22  2  0  0  0  0
 22 23  1  0  0  0  0
 23 24  2  0  0  0  0
 25 29  1  6  0  0  0
 26 25  1  0  0  0  0
 26 27  1  0  0  0  0
 28 26  2  0  0  0  0
 30 29  1  0  0  0  0
 31 29  2  0  0  0  0
M  END
>  <MODEL>
3

>  <REMARK>
 VINA RESULT:      -5.1      1.416      2.065
  Name = 
  6 active torsions:
  status: ('A' for Active; 'I' for Inactive)
    1  A    between atoms: C_1  and  C_23
    2  A    between atoms: C_2  and  C_23
    3  A    between atoms: N_4  and  C_26
    4  A    between atoms: C_10  and  C_22
    5  A    between atoms: C_18  and  C_23
    6  A    between atoms: C_25  and  C_26
                            x       y       z     vdW  Elec       q    Type
                         _______ _______ _______ _____ _____    ______ ____

>  <TORSDO>
F 6

$$$$
=
 OpenBabel11072412373D

 31 34  0  0  1  0  0  0  0  0999 V2000
  162.0680  208.2620  148.8160 C   0  0  0  0  0  2  0  0  0  0  0  0
  162.7880  207.0290  149.3510 C   0  0  2  0  0  3  0  0  0  0  0  0
  160.7720  202.4910  151.0370 C   0  0  0  0  0  3  0  0  0  0  0  0
  162.7220  205.7400  148.4790 C   0  0  1  0  0  3  0  0  0  0  0  0
  161.8590  205.3270  150.6730 C   0  0  0  0  0  0  0  0  0  0  0  0
  161.6900  203.2170  151.9640 C   0  0  0  0  0  2  0  0  0  0  0  0
  161.6310  204.7020  151.8270 C   0  0  0  0  0  3  0  0  0  0  0  0
  161.6530  203.5270  148.9520 C   0  0  0  0  0  3  0  0  0  0  0  0
  161.1890  207.7230  151.0290 C   0  0  2  0  0  3  0  0  0  0  0  0
  162.1250  204.7020  149.3890 C   0  0  0  0  0  0  0  0  0  0  0  0
  162.1400  206.7130  150.6090 N   0  0  0  0  0  0  0  0  0  0  0  0
  160.7950  202.5790  149.7010 C   0  0  0  0  0  0  0  0  0  0  0  0
  161.2970  208.8420  149.9960 C   0  0  0  0  0  2  0  0  0  0  0  0
  162.0970  204.4610  145.1450 C   0  0  0  0  0  3  0  0  0  0  0  0
  160.7140  206.3270  147.1430 C   0  0  0  0  0  3  0  0  0  0  0  0
  160.8620  204.5280  144.6470 C   0  0  0  0  0  3  0  0  0  0  0  0
  161.9770  205.8770  147.1700 C   0  0  0  0  0  0  0  0  0  0  0  0
  159.8600  206.4290  145.9430 C   0  0  0  0  0  3  0  0  0  0  0  0
  162.7270  205.5730  145.9150 C   0  0  0  0  0  2  0  0  0  0  0  0
  159.9220  205.6460  144.8600 C   0  0  0  0  0  3  0  0  0  0  0  0
  158.7960  201.3260  149.3970 O   0  0  0  0  0  0  0  0  0  0  0  0
  159.9020  201.7010  148.9170 C   0  0  0  0  0  0  0  0  0  0  0  0
  160.2890  201.2770  147.6070 N   0  0  0  0  0  0  0  0  0  0  0  0
  161.2070  200.4160  147.4370 N   0  0  0  0  0  2  0  0  0  0  0  0
  161.4890  208.1880  152.4600 C   0  0  1  0  0  3  0  0  0  0  0  0
  161.2350  209.6480  152.7050 C   0  0  0  0  0  0  0  0  0  0  0  0
  162.1860  210.4360  152.9520 O   0  0  0  0  0  1  0  0  0  0  0  0
  159.9330  210.1290  152.6790 O   0  0  0  0  0  0  0  0  0  0  0  0
  160.8670  207.3070  153.4990 C   0  0  0  0  0  0  0  0  0  0  0  0
  161.1200  207.5210  154.8840 N   0  0  0  0  0  1  0  0  0  0  0  0
  160.1080  206.3700  153.1430 O   0  0  0  0  0  0  0  0  0  0  0  0
  1 13  1  0  0  0  0
  2  1  1  6  0  0  0
  2 11  1  0  0  0  0
  3  6  1  0  0  0  0
  4 17  1  6  0  0  0
  4  2  1  0  0  0  0
  4 10  1  0  0  0  0
  5  7  2  0  0  0  0
  7  6  1  0  0  0  0
  8 10  2  0  0  0  0
  8 12  1  0  0  0  0
  9 25  1  1  0  0  0
 10  5  1  0  0  0  0
 11  5  1  0  0  0  0
 11  9  1  0  0  0  0
 12  3  2  0  0  0  0
 13  9  1  0  0  0  0
 14 19  1  0  0  0  0
 15 17  2  0  0  0  0
 16 20  1  0  0  0  0
 16 14  2  0  0  0  0
 18 15  1  0  0  0  0
 19 17  1  0  0  0  0
 20 18  2  0  0  0  0
 22 21  2  0  0  0  0
 22 12  1  0  0  0  0
 23 22  1  0  0  0  0
 24 23  2  0  0  0  0
 25 26  1  6  0  0  0
 25 29  1  0  0  0  0
 26 27  1  0  0  0  0
 28 26  2  0  0  0  0
 29 30  1  0  0  0  0
 31 29  2  0  0  0  0
M  END
>  <MODEL>
4

>  <REMARK>
 VINA RESULT:      -4.8      3.239      8.286
  Name = 
  6 active torsions:
  status: ('A' for Active; 'I' for Inactive)
    1  A    between atoms: C_1  and  C_23
    2  A    between atoms: C_2  and  C_23
    3  A    between atoms: N_4  and  C_26
    4  A    between atoms: C_10  and  C_22
    5  A    between atoms: C_18  and  C_23
    6  A    between atoms: C_25  and  C_26
                            x       y       z     vdW  Elec       q    Type
                         _______ _______ _______ _____ _____    ______ ____

>  <TORSDO>
F 6

$$$$
=
 OpenBabel11072412373D

 31 34  0  0  1  0  0  0  0  0999 V2000
  161.9930  208.2750  148.8490 C   0  0  0  0  0  2  0  0  0  0  0  0
  162.6220  207.0880  149.5690 C   0  0  2  0  0  3  0  0  0  0  0  0
  160.3750  202.6320  151.1840 C   0  0  0  0  0  3  0  0  0  0  0  0
  162.7030  205.7470  148.7800 C   0  0  1  0  0  3  0  0  0  0  0  0
  161.4960  205.4560  150.8260 C   0  0  0  0  0  0  0  0  0  0  0  0
  161.1270  203.4260  152.2010 C   0  0  0  0  0  2  0  0  0  0  0  0
  161.0850  204.8990  151.9640 C   0  0  0  0  0  3  0  0  0  0  0  0
  161.5800  203.5520  149.2090 C   0  0  0  0  0  3  0  0  0  0  0  0
  160.7680  207.8590  150.9190 C   0  0  2  0  0  3  0  0  0  0  0  0
  161.9700  204.7580  149.6430 C   0  0  0  0  0  0  0  0  0  0  0  0
  161.7780  206.8390  150.7220 N   0  0  0  0  0  0  0  0  0  0  0  0
  160.6160  202.6390  149.8660 C   0  0  0  0  0  0  0  0  0  0  0  0
  161.0390  208.9150  149.8500 C   0  0  0  0  0  2  0  0  0  0  0  0
  162.3310  204.0830  145.5810 C   0  0  0  0  0  3  0  0  0  0  0  0
  161.0320  206.4210  147.0740 C   0  0  0  0  0  3  0  0  0  0  0  0
  161.2070  204.2610  144.8860 C   0  0  0  0  0  3  0  0  0  0  0  0
  162.1810  205.7940  147.3610 C   0  0  0  0  0  0  0  0  0  0  0  0
  160.3820  206.4680  145.7480 C   0  0  0  0  0  3  0  0  0  0  0  0
  163.0320  205.1910  146.2930 C   0  0  0  0  0  2  0  0  0  0  0  0
  160.4560  205.5280  144.8000 C   0  0  0  0  0  3  0  0  0  0  0  0
  158.7340  201.2710  149.3650 O   0  0  0  0  0  0  0  0  0  0  0  0
  159.8650  201.7030  149.0040 C   0  0  0  0  0  0  0  0  0  0  0  0
  160.4190  201.2860  147.7530 N   0  0  0  0  0  0  0  0  0  0  0  0
  161.2920  200.3650  147.6930 N   0  0  0  0  0  2  0  0  0  0  0  0
  160.8280  208.4150  152.3480 C   0  0  1  0  0  3  0  0  0  0  0  0
  161.3290  207.4380  153.3730 C   0  0  0  0  0  0  0  0  0  0  0  0
  162.5230  207.0400  153.3570 O   0  0  0  0  0  0  0  0  0  0  0  0
  160.4560  206.9530  154.3370 O   0  0  0  0  0  1  0  0  0  0  0  0
  161.5130  209.7440  152.4260 C   0  0  0  0  0  0  0  0  0  0  0  0
  160.8320  210.8870  152.9340 N   0  0  0  0  0  1  0  0  0  0  0  0
  162.7060  209.8500  152.0430 O   0  0  0  0  0  0  0  0  0  0  0  0
  1 13  1  0  0  0  0
  2  1  1  6  0  0  0
  2 11  1  0  0  0  0
  3  6  1  0  0  0  0
  4 17  1  6  0  0  0
  4  2  1  0  0  0  0
  4 10  1  0  0  0  0
  5  7  2  0  0  0  0
  7  6  1  0  0  0  0
  8 10  2  0  0  0  0
  8 12  1  0  0  0  0
  9 25  1  1  0  0  0
 10  5  1  0  0  0  0
 11  5  1  0  0  0  0
 11  9  1  0  0  0  0
 12  3  2  0  0  0  0
 13  9  1  0  0  0  0
 14 19  1  0  0  0  0
 15 17  2  0  0  0  0
 16 14  2  0  0  0  0
 18 15  1  0  0  0  0
 19 17  1  0  0  0  0
 20 16  1  0  0  0  0
 20 18  2  0  0  0  0
 22 21  2  0  0  0  0
 22 12  1  0  0  0  0
 23 22  1  0  0  0  0
 24 23  2  0  0  0  0
 25 29  1  6  0  0  0
 25 26  1  0  0  0  0
 26 28  1  0  0  0  0
 27 26  2  0  0  0  0
 29 30  1  0  0  0  0
 31 29  2  0  0  0  0
M  END
>  <MODEL>
5

>  <REMARK>
 VINA RESULT:      -4.7      2.897      8.164
  Name = 
  6 active torsions:
  status: ('A' for Active; 'I' for Inactive)
    1  A    between atoms: C_1  and  C_23
    2  A    between atoms: C_2  and  C_23
    3  A    between atoms: N_4  and  C_26
    4  A    between atoms: C_10  and  C_22
    5  A    between atoms: C_18  and  C_23
    6  A    between atoms: C_25  and  C_26
                            x       y       z     vdW  Elec       q    Type
                         _______ _______ _______ _____ _____    ______ ____

>  <TORSDO>
F 6

$$$$
=
 OpenBabel11072412373D

 31 34  0  0  1  0  0  0  0  0999 V2000
  160.8250  211.4180  153.5610 C   0  0  0  0  0  2  0  0  0  0  0  0
  161.9070  210.3550  153.4080 C   0  0  2  0  0  3  0  0  0  0  0  0
  161.5190  205.4940  151.4770 C   0  0  0  0  0  3  0  0  0  0  0  0
  162.3180  209.9710  151.9550 C   0  0  1  0  0  3  0  0  0  0  0  0
  161.5760  208.0440  153.1670 C   0  0  0  0  0  0  0  0  0  0  0  0
  162.0990  205.6410  152.8450 C   0  0  0  0  0  2  0  0  0  0  0  0
  161.5380  206.7910  153.6150 C   0  0  0  0  0  3  0  0  0  0  0  0
  162.0600  207.8050  150.7260 C   0  0  0  0  0  3  0  0  0  0  0  0
  160.1110  209.3850  154.7060 C   0  0  2  0  0  3  0  0  0  0  0  0
  162.0840  208.4870  151.8800 C   0  0  0  0  0  0  0  0  0  0  0  0
  161.3650  209.1560  154.0170 N   0  0  0  0  0  0  0  0  0  0  0  0
  161.5560  206.4280  150.5170 C   0  0  0  0  0  0  0  0  0  0  0  0
  159.8630  210.8880  154.6160 C   0  0  0  0  0  2  0  0  0  0  0  0
  160.2300  212.7800  151.0110 C   0  0  0  0  0  3  0  0  0  0  0  0
  162.1630  210.8410  149.6360 C   0  0  0  0  0  3  0  0  0  0  0  0
  160.4670  213.4020  149.8560 C   0  0  0  0  0  3  0  0  0  0  0  0
  161.6160  210.7360  150.8560 C   0  0  0  0  0  0  0  0  0  0  0  0
  161.6160  211.6230  148.5090 C   0  0  0  0  0  3  0  0  0  0  0  0
  160.2650  211.2960  151.1590 C   0  0  0  0  0  2  0  0  0  0  0  0
  160.8820  212.7370  148.6050 C   0  0  0  0  0  3  0  0  0  0  0  0
  160.4260  205.0000  148.9860 O   0  0  0  0  0  0  0  0  0  0  0  0
  161.0470  206.0840  149.1740 C   0  0  0  0  0  0  0  0  0  0  0  0
  161.2530  206.9830  148.0820 N   0  0  0  0  0  0  0  0  0  0  0  0
  161.2170  206.5780  146.8780 N   0  0  0  0  0  2  0  0  0  0  0  0
  160.1840  208.8680  156.1500 C   0  0  1  0  0  3  0  0  0  0  0  0
  159.6860  207.4620  156.3320 C   0  0  0  0  0  0  0  0  0  0  0  0
  160.1280  206.7360  157.2600 O   0  0  0  0  0  1  0  0  0  0  0  0
  158.7430  206.9530  155.4500 O   0  0  0  0  0  0  0  0  0  0  0  0
  161.5200  209.1000  156.7830 C   0  0  0  0  0  0  0  0  0  0  0  0
  161.8880  210.3900  157.2610 N   0  0  0  0  0  1  0  0  0  0  0  0
  162.3260  208.1410  156.9000 O   0  0  0  0  0  0  0  0  0  0  0  0
  1 13  1  0  0  0  0
  2  1  1  6  0  0  0
  2 11  1  0  0  0  0
  3  6  1  0  0  0  0
  4 17  1  6  0  0  0
  4  2  1  0  0  0  0
  5  7  2  0  0  0  0
  5 11  1  0  0  0  0
  6  7  1  0  0  0  0
  8 10  2  0  0  0  0
  9 25  1  1  0  0  0
 10  4  1  0  0  0  0
 10  5  1  0  0  0  0
 11  9  1  0  0  0  0
 12  8  1  0  0  0  0
 12  3  2  0  0  0  0
 13  9  1  0  0  0  0
 14 19  1  0  0  0  0
 15 17  2  0  0  0  0
 16 14  2  0  0  0  0
 17 19  1  0  0  0  0
 18 20  2  0  0  0  0
 18 15  1  0  0  0  0
 20 16  1  0  0  0  0
 21 22  2  0  0  0  0
 22 12  1  0  0  0  0
 23 22  1  0  0  0  0
 24 23  2  0  0  0  0
 25 26  1  6  0  0  0
 25 29  1  0  0  0  0
 26 27  1  0  0  0  0
 28 26  2  0  0  0  0
 29 31  2  0  0  0  0
 29 30  1  0  0  0  0
M  END
>  <MODEL>
6

>  <REMARK>
 VINA RESULT:      -4.4      2.800      6.148
  Name = 
  6 active torsions:
  status: ('A' for Active; 'I' for Inactive)
    1  A    between atoms: C_1  and  C_23
    2  A    between atoms: C_2  and  C_23
    3  A    between atoms: N_4  and  C_26
    4  A    between atoms: C_10  and  C_22
    5  A    between atoms: C_18  and  C_23
    6  A    between atoms: C_25  and  C_26
                            x       y       z     vdW  Elec       q    Type
                         _______ _______ _______ _____ _____    ______ ____

>  <TORSDO>
F 6

$$$$
=
 OpenBabel11072412373D

 31 34  0  0  1  0  0  0  0  0999 V2000
  159.5480  212.4720  152.2670 C   0  0  0  0  0  2  0  0  0  0  0  0
  160.4560  211.8240  153.3060 C   0  0  2  0  0  3  0  0  0  0  0  0
  160.4890  206.8760  155.0460 C   0  0  0  0  0  3  0  0  0  0  0  0
  161.4500  210.7390  152.7950 C   0  0  1  0  0  3  0  0  0  0  0  0
  160.0290  209.8520  154.5050 C   0  0  0  0  0  0  0  0  0  0  0  0
  160.3800  207.9590  156.0680 C   0  0  0  0  0  2  0  0  0  0  0  0
  159.6520  209.1700  155.5850 C   0  0  0  0  0  3  0  0  0  0  0  0
  161.5620  208.2890  153.2990 C   0  0  0  0  0  3  0  0  0  0  0  0
  158.1700  211.4710  154.0150 C   0  0  2  0  0  3  0  0  0  0  0  0
  161.1200  209.5160  153.6070 C   0  0  0  0  0  0  0  0  0  0  0  0
  159.5680  211.1650  154.2440 N   0  0  0  0  0  0  0  0  0  0  0  0
  161.0680  207.0030  153.8440 C   0  0  0  0  0  0  0  0  0  0  0  0
  158.1550  212.4950  152.8840 C   0  0  0  0  0  2  0  0  0  0  0  0
  161.8130  212.0620  149.4400 C   0  0  0  0  0  3  0  0  0  0  0  0
  161.8580  209.3180  150.8020 C   0  0  0  0  0  3  0  0  0  0  0  0
  162.3740  211.2990  148.5010 C   0  0  0  0  0  3  0  0  0  0  0  0
  161.4260  210.4830  151.3050 C   0  0  0  0  0  0  0  0  0  0  0  0
  161.9570  208.9810  149.3680 C   0  0  0  0  0  3  0  0  0  0  0  0
  160.8300  211.5390  150.4340 C   0  0  0  0  0  2  0  0  0  0  0  0
  162.1840  209.8410  148.3690 C   0  0  0  0  0  3  0  0  0  0  0  0
  161.1920  204.6510  153.5110 O   0  0  0  0  0  0  0  0  0  0  0  0
  161.2060  205.8030  152.9940 C   0  0  0  0  0  0  0  0  0  0  0  0
  161.3530  205.9460  151.5790 N   0  0  0  0  0  0  0  0  0  0  0  0
  161.1110  204.9790  150.7900 N   0  0  0  0  0  2  0  0  0  0  0  0
  157.5080  211.9800  155.3030 C   0  0  1  0  0  3  0  0  0  0  0  0
  157.4800  213.4760  155.4380 C   0  0  0  0  0  0  0  0  0  0  0  0
  158.4820  214.1040  155.8710 O   0  0  0  0  0  1  0  0  0  0  0  0
  156.3270  214.1690  155.1000 O   0  0  0  0  0  0  0  0  0  0  0  0
  156.1770  211.3460  155.5610 C   0  0  0  0  0  0  0  0  0  0  0  0
  155.5570  211.4440  156.8400 N   0  0  0  0  0  1  0  0  0  0  0  0
  155.5960  210.7250  154.6340 O   0  0  0  0  0  0  0  0  0  0  0  0
  1 13  1  0  0  0  0
  2  1  1  6  0  0  0
  2 11  1  0  0  0  0
  3  6  1  0  0  0  0
  4 17  1  6  0  0  0
  4  2  1  0  0  0  0
  4 10  1  0  0  0  0
  5  7  2  0  0  0  0
  7  6  1  0  0  0  0
  8 10  2  0  0  0  0
  8 12  1  0  0  0  0
  9 11  1  0  0  0  0
  9 25  1  1  0  0  0
 10  5  1  0  0  0  0
 11  5  1  0  0  0  0
 12  3  2  0  0  0  0
 13  9  1  0  0  0  0
 14 19  1  0  0  0  0
 15 17  2  0  0  0  0
 16 14  2  0  0  0  0
 18 15  1  0  0  0  0
 19 17  1  0  0  0  0
 20 16  1  0  0  0  0
 20 18  2  0  0  0  0
 22 21  2  0  0  0  0
 22 12  1  0  0  0  0
 23 22  1  0  0  0  0
 24 23  2  0  0  0  0
 25 26  1  6  0  0  0
 25 29  1  0  0  0  0
 26 27  1  0  0  0  0
 28 26  2  0  0  0  0
 29 30  1  0  0  0  0
 31 29  2  0  0  0  0
M  END
>  <MODEL>
7

>  <REMARK>
 VINA RESULT:      -4.3      3.215      7.729
  Name = 
  6 active torsions:
  status: ('A' for Active; 'I' for Inactive)
    1  A    between atoms: C_1  and  C_23
    2  A    between atoms: C_2  and  C_23
    3  A    between atoms: N_4  and  C_26
    4  A    between atoms: C_10  and  C_22
    5  A    between atoms: C_18  and  C_23
    6  A    between atoms: C_25  and  C_26
                            x       y       z     vdW  Elec       q    Type
                         _______ _______ _______ _____ _____    ______ ____

>  <TORSDO>
F 6

$$$$
=
 OpenBabel11072412373D

 31 34  0  0  1  0  0  0  0  0999 V2000
  160.6210  204.2700  152.6560 C   0  0  0  0  0  2  0  0  0  0  0  0
  160.0300  205.1470  151.5580 C   0  0  2  0  0  3  0  0  0  0  0  0
  162.3550  207.1170  147.2890 C   0  0  0  0  0  3  0  0  0  0  0  0
  159.9060  204.5130  150.1400 C   0  0  1  0  0  3  0  0  0  0  0  0
  161.2190  206.5130  150.0650 C   0  0  0  0  0  0  0  0  0  0  0  0
  161.6590  208.0800  148.1930 C   0  0  0  0  0  2  0  0  0  0  0  0
  161.6890  207.6820  149.6320 C   0  0  0  0  0  3  0  0  0  0  0  0
  161.0480  205.1200  147.9970 C   0  0  0  0  0  3  0  0  0  0  0  0
  161.9530  206.3050  152.4590 C   0  0  2  0  0  3  0  0  0  0  0  0
  160.6830  205.4400  149.2460 C   0  0  0  0  0  0  0  0  0  0  0  0
  160.9330  206.2740  151.4300 N   0  0  0  0  0  0  0  0  0  0  0  0
  162.0450  205.8210  147.1540 C   0  0  0  0  0  0  0  0  0  0  0  0
  161.6280  205.1440  153.3940 C   0  0  0  0  0  2  0  0  0  0  0  0
  160.2910  201.5620  148.0710 C   0  0  0  0  0  3  0  0  0  0  0  0
  161.4170  202.6300  150.7120 C   0  0  0  0  0  3  0  0  0  0  0  0
  161.3570  200.7810  148.2500 C   0  0  0  0  0  3  0  0  0  0  0  0
  160.3520  203.0730  150.0290 C   0  0  0  0  0  0  0  0  0  0  0  0
  161.9940  201.2740  150.6270 C   0  0  0  0  0  3  0  0  0  0  0  0
  159.5160  202.1540  149.2000 C   0  0  0  0  0  2  0  0  0  0  0  0
  161.9710  200.4720  149.5560 C   0  0  0  0  0  3  0  0  0  0  0  0
  163.9450  204.6690  146.3040 O   0  0  0  0  0  0  0  0  0  0  0  0
  162.7470  205.0280  146.1250 C   0  0  0  0  0  0  0  0  0  0  0  0
  162.0680  204.6600  144.9210 N   0  0  0  0  0  0  0  0  0  0  0  0
  161.2730  205.4630  144.3410 N   0  0  0  0  0  2  0  0  0  0  0  0
  161.9700  207.6670  153.1670 C   0  0  1  0  0  3  0  0  0  0  0  0
  161.6130  208.8300  152.2850 C   0  0  0  0  0  0  0  0  0  0  0  0
  162.4990  209.4440  151.6360 O   0  0  0  0  0  0  0  0  0  0  0  0
  160.2900  209.2440  152.2060 O   0  0  0  0  0  1  0  0  0  0  0  0
  161.2110  207.6590  154.4570 C   0  0  0  0  0  0  0  0  0  0  0  0
  161.7590  208.2540  155.6300 N   0  0  0  0  0  1  0  0  0  0  0  0
  160.0730  207.1250  154.5040 O   0  0  0  0  0  0  0  0  0  0  0  0
  1 13  1  0  0  0  0
  2  1  1  1  0  0  0
  3  6  1  0  0  0  0
  4 17  1  1  0  0  0
  4  2  1  0  0  0  0
  5 11  1  0  0  0  0
  6  7  1  0  0  0  0
  7  5  2  0  0  0  0
  8 10  2  0  0  0  0
  9 25  1  1  0  0  0
  9 13  1  0  0  0  0
 10  5  1  0  0  0  0
 10  4  1  0  0  0  0
 11  2  1  0  0  0  0
 11  9  1  0  0  0  0
 12  3  2  0  0  0  0
 12  8  1  0  0  0  0
 14 16  2  0  0  0  0
 14 19  1  0  0  0  0
 16 20  1  0  0  0  0
 17 15  2  0  0  0  0
 18 15  1  0  0  0  0
 19 17  1  0  0  0  0
 20 18  2  0  0  0  0
 22 21  2  0  0  0  0
 22 12  1  0  0  0  0
 23 22  1  0  0  0  0
 24 23  2  0  0  0  0
 25 26  1  6  0  0  0
 25 29  1  0  0  0  0
 27 26  2  0  0  0  0
 28 26  1  0  0  0  0
 29 31  2  0  0  0  0
 29 30  1  0  0  0  0
M  END
>  <MODEL>
8

>  <REMARK>
 VINA RESULT:      -4.0      3.616      7.539
  Name = 
  6 active torsions:
  status: ('A' for Active; 'I' for Inactive)
    1  A    between atoms: C_1  and  C_23
    2  A    between atoms: C_2  and  C_23
    3  A    between atoms: N_4  and  C_26
    4  A    between atoms: C_10  and  C_22
    5  A    between atoms: C_18  and  C_23
    6  A    between atoms: C_25  and  C_26
                            x       y       z     vdW  Elec       q    Type
                         _______ _______ _______ _____ _____    ______ ____

>  <TORSDO>
F 6

$$$$
=
 OpenBabel11072412373D

 31 34  0  0  1  0  0  0  0  0999 V2000
  162.3170  209.1600  150.1000 C   0  0  0  0  0  2  0  0  0  0  0  0
  162.3590  210.4860  150.8510 C   0  0  2  0  0  3  0  0  0  0  0  0
  158.3940  213.6090  152.2750 C   0  0  0  0  0  3  0  0  0  0  0  0
  161.7500  210.5040  152.2850 C   0  0  1  0  0  3  0  0  0  0  0  0
  160.6840  212.1300  150.8880 C   0  0  0  0  0  0  0  0  0  0  0  0
  159.4950  214.2250  151.4770 C   0  0  0  0  0  2  0  0  0  0  0  0
  160.1350  213.2830  150.5110 C   0  0  0  0  0  3  0  0  0  0  0  0
  159.7580  211.7310  153.1750 C   0  0  0  0  0  3  0  0  0  0  0  0
  161.1780  210.8640  148.7740 C   0  0  2  0  0  3  0  0  0  0  0  0
  160.6960  211.5760  152.2310 C   0  0  0  0  0  0  0  0  0  0  0  0
  161.5760  211.4110  150.0560 N   0  0  0  0  0  0  0  0  0  0  0  0
  158.5230  212.5430  153.0770 C   0  0  0  0  0  0  0  0  0  0  0  0
  161.8420  209.4930  148.6900 C   0  0  0  0  0  2  0  0  0  0  0  0
  161.2700  206.9610  151.6870 C   0  0  0  0  0  3  0  0  0  0  0  0
  161.2680  208.8660  154.0860 C   0  0  0  0  0  3  0  0  0  0  0  0
  161.3720  206.1120  152.7110 C   0  0  0  0  0  3  0  0  0  0  0  0
  161.2200  209.1780  152.7830 C   0  0  0  0  0  0  0  0  0  0  0  0
  160.8570  207.5790  154.6810 C   0  0  0  0  0  3  0  0  0  0  0  0
  160.5710  208.2760  151.7860 C   0  0  0  0  0  2  0  0  0  0  0  0
  160.9060  206.3820  154.0850 C   0  0  0  0  0  3  0  0  0  0  0  0
  157.4360  211.1000  154.6250 O   0  0  0  0  0  0  0  0  0  0  0  0
  157.3660  212.1300  153.8970 C   0  0  0  0  0  0  0  0  0  0  0  0
  156.1620  212.9010  153.8710 N   0  0  0  0  0  0  0  0  0  0  0  0
  155.7380  213.4960  154.9110 N   0  0  0  0  0  2  0  0  0  0  0  0
  161.5850  211.8060  147.6320 C   0  0  1  0  0  3  0  0  0  0  0  0
  160.4340  212.4780  146.9410 C   0  0  0  0  0  0  0  0  0  0  0  0
  159.3270  212.6240  147.5230 O   0  0  0  0  0  1  0  0  0  0  0  0
  160.5880  212.9230  145.6350 O   0  0  0  0  0  0  0  0  0  0  0  0
  162.6670  212.7630  148.0270 C   0  0  0  0  0  0  0  0  0  0  0  0
  162.3730  214.1330  148.2790 N   0  0  0  0  0  1  0  0  0  0  0  0
  163.8490  212.3480  148.1430 O   0  0  0  0  0  0  0  0  0  0  0  0
  2  1  1  6  0  0  0
  2  4  1  0  0  0  0
  3 12  2  0  0  0  0
  4 17  1  6  0  0  0
  5 10  1  0  0  0  0
  6  3  1  0  0  0  0
  7  5  2  0  0  0  0
  7  6  1  0  0  0  0
  9 25  1  6  0  0  0
  9 11  1  0  0  0  0
 10  4  1  0  0  0  0
 10  8  2  0  0  0  0
 11  2  1  0  0  0  0
 11  5  1  0  0  0  0
 12  8  1  0  0  0  0
 12 22  1  0  0  0  0
 13  9  1  0  0  0  0
 13  1  1  0  0  0  0
 14 19  1  0  0  0  0
 14 16  2  0  0  0  0
 15 18  1  0  0  0  0
 16 20  1  0  0  0  0
 17 15  2  0  0  0  0
 19 17  1  0  0  0  0
 20 18  2  0  0  0  0
 22 21  2  0  0  0  0
 23 22  1  0  0  0  0
 23 24  2  0  0  0  0
 25 26  1  1  0  0  0
 25 29  1  0  0  0  0
 26 27  1  0  0  0  0
 28 26  2  0  0  0  0
 29 31  2  0  0  0  0
 29 30  1  0  0  0  0
M  END
>  <MODEL>
9

>  <REMARK>
 VINA RESULT:      -4.0      3.430      5.771
  Name = 
  6 active torsions:
  status: ('A' for Active; 'I' for Inactive)
    1  A    between atoms: C_1  and  C_23
    2  A    between atoms: C_2  and  C_23
    3  A    between atoms: N_4  and  C_26
    4  A    between atoms: C_10  and  C_22
    5  A    between atoms: C_18  and  C_23
    6  A    between atoms: C_25  and  C_26
                            x       y       z     vdW  Elec       q    Type
                         _______ _______ _______ _____ _____    ______ ____

>  <TORSDO>
F 6

$$$$
