=
 OpenBabel11072413083D

 35 39  0  0  1  0  0  0  0  0999 V2000
  163.0210  207.2740  150.2470 O   0  0  0  0  0  1  0  0  0  0  0  0
  161.7040  206.9720  150.6010 C   0  0  2  0  0  0  0  0  0  0  0  0
  161.2720  206.7960  153.5830 C   0  0  1  0  0  3  0  0  0  0  0  0
  160.9320  209.1430  153.6930 C   0  0  2  0  0  3  0  0  0  0  0  0
  160.7930  205.6990  152.6310 C   0  0  0  0  0  2  0  0  0  0  0  0
  160.3940  208.4770  154.8720 N   0  0  0  0  0  2  0  0  0  0  0  0
  161.6500  208.0940  152.8850 C   0  0  2  0  0  3  0  0  0  0  0  0
  161.1640  208.1440  151.4340 C   0  0  0  0  0  2  0  0  0  0  0  0
  160.2240  207.1200  154.5360 N   0  0  0  0  0  2  0  0  0  0  0  0
  161.6990  205.6480  151.4030 C   0  0  0  0  0  2  0  0  0  0  0  0
  160.5840  205.6880  147.0390 C   0  0  1  0  0  3  0  0  0  0  0  0
  160.8260  206.9070  149.3300 C   0  0  2  0  0  3  0  0  0  0  0  0
  162.6580  205.4030  145.5920 C   0  0  0  0  0  1  0  0  0  0  0  0
  160.6590  206.9640  146.4670 O   0  0  0  0  0  1  0  0  0  0  0  0
  161.5900  204.6980  146.4290 C   0  0  1  0  0  0  0  0  0  0  0  0
  159.9250  205.8140  149.3430 O   0  0  0  0  0  0  0  0  0  0  0  0
  161.9120  204.5170  148.7140 C   0  0  2  0  0  3  0  0  0  0  0  0
  161.0140  205.7070  148.4570 C   0  0  1  0  0  0  0  0  0  0  0  0
  162.2440  203.9640  147.4570 O   0  0  0  0  0  0  0  0  0  0  0  0
  161.7330  203.2030  150.8130 F   0  0  0  0  0  0  0  0  0  0  0  0
  161.2780  203.4470  149.5550 C   0  0  0  0  0  0  0  0  0  0  0  0
  160.3260  202.8190  149.1230 O   0  0  0  0  0  0  0  0  0  0  0  0
  160.8100  203.7350  145.5370 C   0  0  0  0  0  2  0  0  0  0  0  0
  161.0470  202.3530  145.9230 N   0  0  0  0  0  1  0  0  0  0  0  0
  161.8960  210.2350  154.1230 C   0  0  0  0  0  2  0  0  0  0  0  0
  161.2350  211.1510  155.1390 C   0  0  0  0  0  2  0  0  0  0  0  0
  160.1880  212.0200  154.4620 C   0  0  0  0  0  2  0  0  0  0  0  0
  156.6440  212.0420  155.1090 C   0  0  1  0  0  3  0  0  0  0  0  0
  158.7770  211.8920  156.3980 C   0  0  0  0  0  2  0  0  0  0  0  0
  158.4870  213.6940  154.7970 C   0  0  0  0  0  2  0  0  0  0  0  0
  157.6510  211.0900  155.7390 C   0  0  0  0  0  2  0  0  0  0  0  0
  157.3570  212.9300  154.1010 C   0  0  0  0  0  2  0  0  0  0  0  0
  159.4500  212.7980  155.4560 N   0  0  0  0  0  0  0  0  0  0  0  0
  155.3330  210.2760  155.3490 C   0  0  0  0  0  1  0  0  0  0  0  0
  155.6450  211.3090  154.4650 O   0  0  0  0  0  0  0  0  0  0  0  0
  2  1  1  6  0  0  0
  2 10  1  0  0  0  0
  2  8  1  0  0  0  0
  3  5  1  6  0  0  0
  3  9  1  0  0  0  0
  4 25  1  1  0  0  0
  4  6  1  0  0  0  0
  7  8  1  6  0  0  0
  7  3  1  0  0  0  0
  7  4  1  0  0  0  0
  9  6  1  0  0  0  0
 10  5  1  0  0  0  0
 11 14  1  6  0  0  0
 11 18  1  0  0  0  0
 12 16  1  1  0  0  0
 12  2  1  0  0  0  0
 15 13  1  6  0  0  0
 15 11  1  0  0  0  0
 15 19  1  0  0  0  0
 17 21  1  1  0  0  0
 18 17  1  0  0  0  0
 18 12  1  0  0  0  0
 18 16  1  1  0  0  0
 19 17  1  0  0  0  0
 21 20  1  0  0  0  0
 22 21  2  0  0  0  0
 23 24  1  0  0  0  0
 23 15  1  0  0  0  0
 25 26  1  0  0  0  0
 27 26  1  0  0  0  0
 27 33  1  0  0  0  0
 28 35  1  6  0  0  0
 28 31  1  0  0  0  0
 30 33  1  0  0  0  0
 31 29  1  0  0  0  0
 32 30  1  0  0  0  0
 32 28  1  0  0  0  0
 33 29  1  0  0  0  0
 35 34  1  0  0  0  0
M  END
>  <MODEL>
1

>  <REMARK>
 VINA RESULT:      -7.3      0.000      0.000
  Name = 
  8 active torsions:
  status: ('A' for Active; 'I' for Inactive)
    1  A    between atoms: C_2  and  O_29
    2  A    between atoms: C_3  and  C_14
    3  A    between atoms: C_9  and  C_19
    4  A    between atoms: C_11  and  C_23
    5  A    between atoms: C_11  and  C_31
    6  A    between atoms: C_13  and  C_23
    7  A    between atoms: C_17  and  C_27
    8  A    between atoms: N_30  and  C_31
                            x       y       z     vdW  Elec       q    Type
                         _______ _______ _______ _____ _____    ______ ____

>  <TORSDO>
F 8

$$$$
=
 OpenBabel11072413083D

 35 39  0  0  1  0  0  0  0  0999 V2000
  159.8710  210.3410  155.3250 O   0  0  0  0  0  1  0  0  0  0  0  0
  159.6460  210.5260  153.9590 C   0  0  2  0  0  0  0  0  0  0  0  0
  162.0350  209.8460  152.2450 C   0  0  1  0  0  3  0  0  0  0  0  0
  161.3840  207.5640  152.2060 C   0  0  2  0  0  3  0  0  0  0  0  0
  161.2800  211.1670  152.0910 C   0  0  0  0  0  2  0  0  0  0  0  0
  162.3100  207.8650  151.1230 N   0  0  0  0  0  2  0  0  0  0  0  0
  161.2870  208.8010  153.0590 C   0  0  2  0  0  3  0  0  0  0  0  0
  159.8150  209.1640  153.2690 C   0  0  0  0  0  2  0  0  0  0  0  0
  162.2860  209.2610  150.9390 N   0  0  0  0  0  2  0  0  0  0  0  0
  160.6600  211.5670  153.4270 C   0  0  0  0  0  2  0  0  0  0  0  0
  156.1530  212.1260  154.8710 C   0  0  1  0  0  3  0  0  0  0  0  0
  158.1760  210.9470  153.7270 C   0  0  2  0  0  3  0  0  0  0  0  0
  155.5650  211.4790  157.2610 C   0  0  0  0  0  1  0  0  0  0  0  0
  155.4560  210.9350  154.6360 O   0  0  0  0  0  1  0  0  0  0  0  0
  156.0820  212.5830  156.3380 C   0  0  1  0  0  0  0  0  0  0  0  0
  158.0440  212.3200  153.4070 O   0  0  0  0  0  0  0  0  0  0  0  0
  158.3380  212.6340  155.8250 C   0  0  2  0  0  3  0  0  0  0  0  0
  157.6130  211.9400  154.6920 C   0  0  1  0  0  0  0  0  0  0  0  0
  157.3700  212.9770  156.7940 O   0  0  0  0  0  0  0  0  0  0  0  0
  158.8080  214.4530  154.2010 F   0  0  0  0  0  0  0  0  0  0  0  0
  159.0630  213.8810  155.4080 C   0  0  0  0  0  0  0  0  0  0  0  0
  159.8580  214.4050  156.1710 O   0  0  0  0  0  0  0  0  0  0  0  0
  155.1330  213.7770  156.4050 C   0  0  0  0  0  2  0  0  0  0  0  0
  154.8490  214.2980  155.0770 N   0  0  0  0  0  1  0  0  0  0  0  0
  161.9180  206.3980  153.0200 C   0  0  0  0  0  2  0  0  0  0  0  0
  161.2020  205.1140  152.6330 C   0  0  0  0  0  2  0  0  0  0  0  0
  161.6010  204.6930  151.2280 C   0  0  0  0  0  2  0  0  0  0  0  0
  161.4060  204.2630  147.6560 C   0  0  1  0  0  3  0  0  0  0  0  0
  160.4990  203.1880  149.7180 C   0  0  0  0  0  2  0  0  0  0  0  0
  160.2630  205.5880  149.4350 C   0  0  0  0  0  2  0  0  0  0  0  0
  161.6140  203.1470  148.6700 C   0  0  0  0  0  2  0  0  0  0  0  0
  161.3750  205.5990  148.3820 C   0  0  0  0  0  2  0  0  0  0  0  0
  160.4140  204.4880  150.4010 N   0  0  0  0  0  0  0  0  0  0  0  0
  161.8310  204.4200  145.4900 C   0  0  0  0  0  1  0  0  0  0  0  0
  162.4510  204.2570  146.7300 O   0  0  0  0  0  0  0  0  0  0  0  0
  2  1  1  1  0  0  0
  3  5  1  6  0  0  0
  3  7  1  0  0  0  0
  4 25  1  1  0  0  0
  4  7  1  0  0  0  0
  5 10  1  0  0  0  0
  6  4  1  0  0  0  0
  7  8  1  6  0  0  0
  8  2  1  0  0  0  0
  9  6  1  0  0  0  0
  9  3  1  0  0  0  0
 10  2  1  0  0  0  0
 11 14  1  1  0  0  0
 11 15  1  0  0  0  0
 12 16  1  6  0  0  0
 12  2  1  0  0  0  0
 12 18  1  0  0  0  0
 15 23  1  0  0  0  0
 15 19  1  0  0  0  0
 15 13  1  1  0  0  0
 17 21  1  6  0  0  0
 17 19  1  0  0  0  0
 18 16  1  6  0  0  0
 18 11  1  0  0  0  0
 18 17  1  0  0  0  0
 20 21  1  0  0  0  0
 21 22  2  0  0  0  0
 24 23  1  0  0  0  0
 26 25  1  0  0  0  0
 27 26  1  0  0  0  0
 28 35  1  6  0  0  0
 28 32  1  0  0  0  0
 28 31  1  0  0  0  0
 29 33  1  0  0  0  0
 30 33  1  0  0  0  0
 31 29  1  0  0  0  0
 32 30  1  0  0  0  0
 33 27  1  0  0  0  0
 34 35  1  0  0  0  0
M  END
>  <MODEL>
2

>  <REMARK>
 VINA RESULT:      -6.9      3.146     10.007
  Name = 
  8 active torsions:
  status: ('A' for Active; 'I' for Inactive)
    1  A    between atoms: C_2  and  O_29
    2  A    between atoms: C_3  and  C_14
    3  A    between atoms: C_9  and  C_19
    4  A    between atoms: C_11  and  C_23
    5  A    between atoms: C_11  and  C_31
    6  A    between atoms: C_13  and  C_23
    7  A    between atoms: C_17  and  C_27
    8  A    between atoms: N_30  and  C_31
                            x       y       z     vdW  Elec       q    Type
                         _______ _______ _______ _____ _____    ______ ____

>  <TORSDO>
F 8

$$$$
=
 OpenBabel11072413083D

 35 39  0  0  1  0  0  0  0  0999 V2000
  159.6540  206.0100  150.1560 O   0  0  0  0  0  1  0  0  0  0  0  0
  160.8360  205.4320  150.6260 C   0  0  2  0  0  0  0  0  0  0  0  0
  160.6820  202.4280  150.8790 C   0  0  1  0  0  3  0  0  0  0  0  0
  161.2820  202.1840  148.5950 C   0  0  2  0  0  3  0  0  0  0  0  0
  161.1900  203.3100  152.0200 C   0  0  0  0  0  2  0  0  0  0  0  0
  161.5060  200.9480  149.3330 N   0  0  0  0  0  2  0  0  0  0  0  0
  160.6020  203.1420  149.5380 C   0  0  2  0  0  3  0  0  0  0  0  0
  161.3510  204.4770  149.5380 C   0  0  0  0  0  2  0  0  0  0  0  0
  161.5670  201.2900  150.6980 N   0  0  0  0  0  2  0  0  0  0  0  0
  160.5280  204.6840  151.9460 C   0  0  0  0  0  2  0  0  0  0  0  0
  162.3960  208.8110  151.9420 C   0  0  1  0  0  3  0  0  0  0  0  0
  161.9190  206.5220  150.7910 C   0  0  2  0  0  3  0  0  0  0  0  0
  160.6210  210.6290  151.8090 C   0  0  0  0  0  1  0  0  0  0  0  0
  162.6400  209.2940  150.6510 O   0  0  0  0  0  1  0  0  0  0  0  0
  161.3800  209.6640  152.7200 C   0  0  1  0  0  0  0  0  0  0  0  0
  162.6120  206.4220  152.0220 O   0  0  0  0  0  0  0  0  0  0  0  0
  160.5990  207.4940  152.9320 C   0  0  2  0  0  3  0  0  0  0  0  0
  161.7110  207.4970  151.9050 C   0  0  1  0  0  0  0  0  0  0  0  0
  160.4300  208.8270  153.3700 O   0  0  0  0  0  0  0  0  0  0  0  0
  161.9720  205.8210  154.1490 F   0  0  0  0  0  0  0  0  0  0  0  0
  160.8790  206.6300  154.1270 C   0  0  0  0  0  0  0  0  0  0  0  0
  160.1420  206.6780  155.0980 O   0  0  0  0  0  0  0  0  0  0  0  0
  162.1510  210.4630  153.7660 C   0  0  0  0  0  2  0  0  0  0  0  0
  161.7200  210.1200  155.1130 N   0  0  0  0  0  1  0  0  0  0  0  0
  160.3970  201.9030  147.3940 C   0  0  0  0  0  2  0  0  0  0  0  0
  161.1700  202.1270  146.1050 C   0  0  0  0  0  2  0  0  0  0  0  0
  160.5020  203.2070  145.2710 C   0  0  0  0  0  2  0  0  0  0  0  0
  161.6620  206.4570  146.3070 C   0  0  1  0  0  3  0  0  0  0  0  0
  162.6290  204.2790  145.5620 C   0  0  0  0  0  2  0  0  0  0  0  0
  160.9090  205.3330  144.2100 C   0  0  0  0  0  2  0  0  0  0  0  0
  162.2310  205.1260  146.7750 C   0  0  0  0  0  2  0  0  0  0  0  0
  160.4720  206.2000  145.3950 C   0  0  0  0  0  2  0  0  0  0  0  0
  161.5080  204.0580  144.6370 N   0  0  0  0  0  0  0  0  0  0  0  0
  162.4360  207.6990  147.9660 C   0  0  0  0  0  1  0  0  0  0  0  0
  161.2540  207.2070  147.4110 O   0  0  0  0  0  0  0  0  0  0  0  0
  2  1  1  6  0  0  0
  2 12  1  0  0  0  0
  2 10  1  0  0  0  0
  3  5  1  1  0  0  0
  4 25  1  6  0  0  0
  4  6  1  0  0  0  0
  4  7  1  0  0  0  0
  6  9  1  0  0  0  0
  7  8  1  1  0  0  0
  7  3  1  0  0  0  0
  8  2  1  0  0  0  0
  9  3  1  0  0  0  0
 10  5  1  0  0  0  0
 11 14  1  6  0  0  0
 11 15  1  0  0  0  0
 12 18  1  0  0  0  0
 12 16  1  1  0  0  0
 15 13  1  6  0  0  0
 15 19  1  0  0  0  0
 15 23  1  0  0  0  0
 17 19  1  0  0  0  0
 17 21  1  1  0  0  0
 18 11  1  0  0  0  0
 18 16  1  1  0  0  0
 18 17  1  0  0  0  0
 21 20  1  0  0  0  0
 21 22  2  0  0  0  0
 23 24  1  0  0  0  0
 26 25  1  0  0  0  0
 27 26  1  0  0  0  0
 28 31  1  0  0  0  0
 28 35  1  1  0  0  0
 29 31  1  0  0  0  0
 30 33  1  0  0  0  0
 30 32  1  0  0  0  0
 32 28  1  0  0  0  0
 33 27  1  0  0  0  0
 33 29  1  0  0  0  0
 35 34  1  0  0  0  0
M  END
>  <MODEL>
3

>  <REMARK>
 VINA RESULT:      -6.8      2.923      8.670
  Name = 
  8 active torsions:
  status: ('A' for Active; 'I' for Inactive)
    1  A    between atoms: C_2  and  O_29
    2  A    between atoms: C_3  and  C_14
    3  A    between atoms: C_9  and  C_19
    4  A    between atoms: C_11  and  C_23
    5  A    between atoms: C_11  and  C_31
    6  A    between atoms: C_13  and  C_23
    7  A    between atoms: C_17  and  C_27
    8  A    between atoms: N_30  and  C_31
                            x       y       z     vdW  Elec       q    Type
                         _______ _______ _______ _____ _____    ______ ____

>  <TORSDO>
F 8

$$$$
=
 OpenBabel11072413083D

 35 39  0  0  1  0  0  0  0  0999 V2000
  160.1480  208.3450  151.6030 O   0  0  0  0  0  1  0  0  0  0  0  0
  161.2820  208.2830  152.4160 C   0  0  2  0  0  0  0  0  0  0  0  0
  161.6190  210.7010  154.1910 C   0  0  1  0  0  3  0  0  0  0  0  0
  160.1990  209.7260  155.8240 C   0  0  2  0  0  3  0  0  0  0  0  0
  162.7620  210.1680  153.3250 C   0  0  0  0  0  2  0  0  0  0  0  0
  161.0140  210.7870  156.4010 N   0  0  0  0  0  2  0  0  0  0  0  0
  160.4570  209.7310  154.3400 C   0  0  2  0  0  3  0  0  0  0  0  0
  160.8100  208.3150  153.8780 C   0  0  0  0  0  2  0  0  0  0  0  0
  162.1030  210.9890  155.5310 N   0  0  0  0  0  2  0  0  0  0  0  0
  162.1950  209.4870  152.0820 C   0  0  0  0  0  2  0  0  0  0  0  0
  162.0150  204.8000  150.7080 C   0  0  1  0  0  3  0  0  0  0  0  0
  161.9880  206.9210  152.2210 C   0  0  2  0  0  3  0  0  0  0  0  0
  159.7960  203.7070  150.1110 C   0  0  0  0  0  1  0  0  0  0  0  0
  161.7740  204.0810  151.8850 O   0  0  0  0  0  1  0  0  0  0  0  0
  161.0130  204.4720  149.5890 C   0  0  1  0  0  0  0  0  0  0  0  0
  162.9600  206.9520  151.1910 O   0  0  0  0  0  0  0  0  0  0  0  0
  161.0070  206.7830  149.7130 C   0  0  2  0  0  3  0  0  0  0  0  0
  161.7750  206.2490  150.9030 C   0  0  1  0  0  0  0  0  0  0  0  0
  160.5540  205.6690  148.9720 O   0  0  0  0  0  0  0  0  0  0  0  0
  162.8250  207.1320  148.0590 F   0  0  0  0  0  0  0  0  0  0  0  0
  161.8220  207.6610  148.8080 C   0  0  0  0  0  0  0  0  0  0  0  0
  161.5600  208.8490  148.7170 O   0  0  0  0  0  0  0  0  0  0  0  0
  161.7370  203.6150  148.5550 C   0  0  0  0  0  2  0  0  0  0  0  0
  161.6220  204.1880  147.2230 N   0  0  0  0  0  1  0  0  0  0  0  0
  158.7330  210.0000  156.1100 C   0  0  0  0  0  2  0  0  0  0  0  0
  158.5550  211.4100  156.6460 C   0  0  0  0  0  2  0  0  0  0  0  0
  157.4720  212.1370  155.8650 C   0  0  0  0  0  2  0  0  0  0  0  0
  157.9040  213.8750  152.7390 C   0  0  1  0  0  3  0  0  0  0  0  0
  156.7740  214.2360  154.9350 C   0  0  0  0  0  2  0  0  0  0  0  0
  159.1190  213.6100  154.9020 C   0  0  0  0  0  2  0  0  0  0  0  0
  156.5930  213.7370  153.4980 C   0  0  0  0  0  2  0  0  0  0  0  0
  158.9880  213.0940  153.4660 C   0  0  0  0  0  2  0  0  0  0  0  0
  157.8510  213.5320  155.6450 N   0  0  0  0  0  0  0  0  0  0  0  0
  159.0290  213.4360  150.8840 C   0  0  0  0  0  1  0  0  0  0  0  0
  157.7520  213.3740  151.4450 O   0  0  0  0  0  0  0  0  0  0  0  0
  2  1  1  6  0  0  0
  2  8  1  0  0  0  0
  3  5  1  6  0  0  0
  3  7  1  0  0  0  0
  3  9  1  0  0  0  0
  4 25  1  6  0  0  0
  4  6  1  0  0  0  0
  7  8  1  1  0  0  0
  7  4  1  0  0  0  0
  9  6  1  0  0  0  0
 10  2  1  0  0  0  0
 10  5  1  0  0  0  0
 11 18  1  0  0  0  0
 11 14  1  1  0  0  0
 12 16  1  6  0  0  0
 12  2  1  0  0  0  0
 15 13  1  1  0  0  0
 15 11  1  0  0  0  0
 17 21  1  6  0  0  0
 17 18  1  0  0  0  0
 18 16  1  6  0  0  0
 18 12  1  0  0  0  0
 19 15  1  0  0  0  0
 19 17  1  0  0  0  0
 20 21  1  0  0  0  0
 22 21  2  0  0  0  0
 23 15  1  0  0  0  0
 24 23  1  0  0  0  0
 25 26  1  0  0  0  0
 27 26  1  0  0  0  0
 28 35  1  6  0  0  0
 28 32  1  0  0  0  0
 28 31  1  0  0  0  0
 29 33  1  0  0  0  0
 30 33  1  0  0  0  0
 31 29  1  0  0  0  0
 32 30  1  0  0  0  0
 33 27  1  0  0  0  0
 34 35  1  0  0  0  0
M  END
>  <MODEL>
4

>  <REMARK>
 VINA RESULT:      -6.6      2.206      3.751
  Name = 
  8 active torsions:
  status: ('A' for Active; 'I' for Inactive)
    1  A    between atoms: C_2  and  O_29
    2  A    between atoms: C_3  and  C_14
    3  A    between atoms: C_9  and  C_19
    4  A    between atoms: C_11  and  C_23
    5  A    between atoms: C_11  and  C_31
    6  A    between atoms: C_13  and  C_23
    7  A    between atoms: C_17  and  C_27
    8  A    between atoms: N_30  and  C_31
                            x       y       z     vdW  Elec       q    Type
                         _______ _______ _______ _____ _____    ______ ____

>  <TORSDO>
F 8

$$$$
=
 OpenBabel11072413083D

 35 39  0  0  1  0  0  0  0  0999 V2000
  160.5940  208.8630  154.2140 O   0  0  0  0  0  1  0  0  0  0  0  0
  160.7230  209.5790  153.0220 C   0  0  2  0  0  0  0  0  0  0  0  0
  162.5770  208.2700  151.0320 C   0  0  1  0  0  3  0  0  0  0  0  0
  160.7930  206.9290  150.2210 C   0  0  2  0  0  3  0  0  0  0  0  0
  162.7070  209.7470  151.4070 C   0  0  0  0  0  2  0  0  0  0  0  0
  161.8870  206.9860  149.2610 N   0  0  0  0  0  2  0  0  0  0  0  0
  161.2610  207.6390  151.4640 C   0  0  2  0  0  3  0  0  0  0  0  0
  160.2200  208.6800  151.8820 C   0  0  0  0  0  2  0  0  0  0  0  0
  162.6640  208.1140  149.5900 N   0  0  0  0  0  2  0  0  0  0  0  0
  162.2110  209.9630  152.8350 C   0  0  0  0  0  2  0  0  0  0  0  0
  158.1750  212.1520  154.5950 C   0  0  1  0  0  3  0  0  0  0  0  0
  159.7840  210.8070  153.0480 C   0  0  2  0  0  3  0  0  0  0  0  0
  156.4930  210.8670  156.0060 C   0  0  0  0  0  1  0  0  0  0  0  0
  157.1950  211.8950  153.6290 O   0  0  0  0  0  1  0  0  0  0  0  0
  157.7380  211.7530  156.0140 C   0  0  1  0  0  0  0  0  0  0  0  0
  160.3770  211.9350  153.6660 O   0  0  0  0  0  0  0  0  0  0  0  0
  159.8100  210.7570  155.7440 C   0  0  2  0  0  3  0  0  0  0  0  0
  159.3640  211.2890  154.3990 C   0  0  1  0  0  0  0  0  0  0  0  0
  158.7830  211.0450  156.6710 O   0  0  0  0  0  0  0  0  0  0  0  0
  161.1050  212.6330  156.7290 F   0  0  0  0  0  0  0  0  0  0  0  0
  161.0900  211.3630  156.2430 C   0  0  0  0  0  0  0  0  0  0  0  0
  162.1150  210.7020  156.2460 O   0  0  0  0  0  0  0  0  0  0  0  0
  157.4360  213.0360  156.7840 C   0  0  0  0  0  2  0  0  0  0  0  0
  157.8280  214.2120  156.0220 N   0  0  0  0  0  1  0  0  0  0  0  0
  160.4630  205.4790  150.5290 C   0  0  0  0  0  2  0  0  0  0  0  0
  161.4670  204.5560  149.8590 C   0  0  0  0  0  2  0  0  0  0  0  0
  160.8240  203.8480  148.6780 C   0  0  0  0  0  2  0  0  0  0  0  0
  161.4530  204.1360  145.1420 C   0  0  1  0  0  3  0  0  0  0  0  0
  162.7480  204.1560  147.2760 C   0  0  0  0  0  2  0  0  0  0  0  0
  161.2060  202.3300  146.8450 C   0  0  0  0  0  2  0  0  0  0  0  0
  162.0560  205.0240  146.2210 C   0  0  0  0  0  2  0  0  0  0  0  0
  160.4790  203.1600  145.7830 C   0  0  0  0  0  2  0  0  0  0  0  0
  161.8400  203.1670  147.8770 N   0  0  0  0  0  0  0  0  0  0  0  0
  160.4570  206.0970  144.8950 C   0  0  0  0  0  1  0  0  0  0  0  0
  160.7800  204.9250  144.2080 O   0  0  0  0  0  0  0  0  0  0  0  0
  2 12  1  0  0  0  0
  2  1  1  1  0  0  0
  3  5  1  6  0  0  0
  3  7  1  0  0  0  0
  4 25  1  1  0  0  0
  4  7  1  0  0  0  0
  5 10  1  0  0  0  0
  6  9  1  0  0  0  0
  6  4  1  0  0  0  0
  7  8  1  6  0  0  0
  8  2  1  0  0  0  0
  9  3  1  0  0  0  0
 10  2  1  0  0  0  0
 11 14  1  6  0  0  0
 11 15  1  0  0  0  0
 12 16  1  1  0  0  0
 12 18  1  0  0  0  0
 15 13  1  6  0  0  0
 15 19  1  0  0  0  0
 15 23  1  0  0  0  0
 17 21  1  1  0  0  0
 17 19  1  0  0  0  0
 18 16  1  1  0  0  0
 18 11  1  0  0  0  0
 18 17  1  0  0  0  0
 21 22  2  0  0  0  0
 21 20  1  0  0  0  0
 24 23  1  0  0  0  0
 26 25  1  0  0  0  0
 27 26  1  0  0  0  0
 28 35  1  6  0  0  0
 28 32  1  0  0  0  0
 28 31  1  0  0  0  0
 29 33  1  0  0  0  0
 30 33  1  0  0  0  0
 31 29  1  0  0  0  0
 32 30  1  0  0  0  0
 33 27  1  0  0  0  0
 35 34  1  0  0  0  0
M  END
>  <MODEL>
5

>  <REMARK>
 VINA RESULT:      -6.2      3.215      9.971
  Name = 
  8 active torsions:
  status: ('A' for Active; 'I' for Inactive)
    1  A    between atoms: C_2  and  O_29
    2  A    between atoms: C_3  and  C_14
    3  A    between atoms: C_9  and  C_19
    4  A    between atoms: C_11  and  C_23
    5  A    between atoms: C_11  and  C_31
    6  A    between atoms: C_13  and  C_23
    7  A    between atoms: C_17  and  C_27
    8  A    between atoms: N_30  and  C_31
                            x       y       z     vdW  Elec       q    Type
                         _______ _______ _______ _____ _____    ______ ____

>  <TORSDO>
F 8

$$$$
=
 OpenBabel11072413083D

 35 39  0  0  1  0  0  0  0  0999 V2000
  160.4720  209.3080  154.7750 O   0  0  0  0  0  1  0  0  0  0  0  0
  160.5490  209.8870  153.5060 C   0  0  2  0  0  0  0  0  0  0  0  0
  162.4860  208.4840  151.6640 C   0  0  1  0  0  3  0  0  0  0  0  0
  160.7970  206.9390  151.0320 C   0  0  2  0  0  3  0  0  0  0  0  0
  162.5140  210.0000  151.8640 C   0  0  0  0  0  2  0  0  0  0  0  0
  161.8830  206.9580  150.0610 N   0  0  0  0  0  2  0  0  0  0  0  0
  161.2180  207.8200  152.1800 C   0  0  2  0  0  3  0  0  0  0  0  0
  160.1080  208.8290  152.4840 C   0  0  0  0  0  2  0  0  0  0  0  0
  162.5810  208.1660  150.2490 N   0  0  0  0  0  2  0  0  0  0  0  0
  162.0070  210.3470  153.2610 C   0  0  0  0  0  2  0  0  0  0  0  0
  157.8170  212.4310  154.7890 C   0  0  1  0  0  3  0  0  0  0  0  0
  159.5280  211.0430  153.3980 C   0  0  2  0  0  3  0  0  0  0  0  0
  156.2140  211.1910  156.3270 C   0  0  0  0  0  1  0  0  0  0  0  0
  156.8650  212.0040  153.8550 O   0  0  0  0  0  1  0  0  0  0  0  0
  157.3950  212.1570  156.2420 C   0  0  1  0  0  0  0  0  0  0  0  0
  160.0370  212.2690  153.8920 O   0  0  0  0  0  0  0  0  0  0  0  0
  159.5330  211.2840  156.0850 C   0  0  2  0  0  3  0  0  0  0  0  0
  159.0640  211.6370  154.6890 C   0  0  1  0  0  0  0  0  0  0  0  0
  158.4800  211.5980  156.9730 O   0  0  0  0  0  0  0  0  0  0  0  0
  161.9940  211.4740  156.3510 F   0  0  0  0  0  0  0  0  0  0  0  0
  160.7630  212.0270  156.5180 C   0  0  0  0  0  0  0  0  0  0  0  0
  160.6620  213.1480  156.9880 O   0  0  0  0  0  0  0  0  0  0  0  0
  156.9980  213.4910  156.8680 C   0  0  0  0  0  2  0  0  0  0  0  0
  155.5780  213.7520  156.6950 N   0  0  0  0  0  1  0  0  0  0  0  0
  160.5690  205.5160  151.5100 C   0  0  0  0  0  2  0  0  0  0  0  0
  161.8910  204.7740  151.6070 C   0  0  0  0  0  2  0  0  0  0  0  0
  161.7900  203.4270  150.9090 C   0  0  0  0  0  2  0  0  0  0  0  0
  160.9970  201.1820  148.2040 C   0  0  1  0  0  3  0  0  0  0  0  0
  159.9350  202.0330  150.2980 C   0  0  0  0  0  2  0  0  0  0  0  0
  160.8410  203.6220  148.7020 C   0  0  0  0  0  2  0  0  0  0  0  0
  160.7640  200.9020  149.6820 C   0  0  0  0  0  2  0  0  0  0  0  0
  161.6920  202.5270  148.0540 C   0  0  0  0  0  2  0  0  0  0  0  0
  160.5610  203.3520  150.1210 N   0  0  0  0  0  0  0  0  0  0  0  0
  161.2060  199.8850  146.4250 C   0  0  0  0  0  1  0  0  0  0  0  0
  161.7940  200.1770  147.6560 O   0  0  0  0  0  0  0  0  0  0  0  0
  2  1  1  1  0  0  0
  3  5  1  6  0  0  0
  3  7  1  0  0  0  0
  4 25  1  1  0  0  0
  4  7  1  0  0  0  0
  5 10  1  0  0  0  0
  6  9  1  0  0  0  0
  6  4  1  0  0  0  0
  7  8  1  6  0  0  0
  8  2  1  0  0  0  0
  9  3  1  0  0  0  0
 10  2  1  0  0  0  0
 11 14  1  6  0  0  0
 11 15  1  0  0  0  0
 12  2  1  0  0  0  0
 12 16  1  6  0  0  0
 12 18  1  0  0  0  0
 15 13  1  1  0  0  0
 15 23  1  0  0  0  0
 15 19  1  0  0  0  0
 17 21  1  1  0  0  0
 17 19  1  0  0  0  0
 18 16  1  6  0  0  0
 18 11  1  0  0  0  0
 18 17  1  0  0  0  0
 20 21  1  0  0  0  0
 21 22  2  0  0  0  0
 24 23  1  0  0  0  0
 25 26  1  0  0  0  0
 27 26  1  0  0  0  0
 28 35  1  1  0  0  0
 28 31  1  0  0  0  0
 30 33  1  0  0  0  0
 31 29  1  0  0  0  0
 32 28  1  0  0  0  0
 32 30  1  0  0  0  0
 33 29  1  0  0  0  0
 33 27  1  0  0  0  0
 34 35  1  0  0  0  0
M  END
>  <MODEL>
6

>  <REMARK>
 VINA RESULT:      -6.2      3.389     10.127
  Name = 
  8 active torsions:
  status: ('A' for Active; 'I' for Inactive)
    1  A    between atoms: C_2  and  O_29
    2  A    between atoms: C_3  and  C_14
    3  A    between atoms: C_9  and  C_19
    4  A    between atoms: C_11  and  C_23
    5  A    between atoms: C_11  and  C_31
    6  A    between atoms: C_13  and  C_23
    7  A    between atoms: C_17  and  C_27
    8  A    between atoms: N_30  and  C_31
                            x       y       z     vdW  Elec       q    Type
                         _______ _______ _______ _____ _____    ______ ____

>  <TORSDO>
F 8

$$$$
=
 OpenBabel11072413083D

 35 39  0  0  1  0  0  0  0  0999 V2000
  158.4650  211.4550  152.0160 O   0  0  0  0  0  1  0  0  0  0  0  0
  159.5800  212.0150  152.6420 C   0  0  2  0  0  0  0  0  0  0  0  0
  159.9100  211.1430  155.5120 C   0  0  1  0  0  3  0  0  0  0  0  0
  161.0800  209.2010  154.8090 C   0  0  2  0  0  3  0  0  0  0  0  0
  159.9600  212.6160  155.1040 C   0  0  0  0  0  2  0  0  0  0  0  0
  161.3360  209.4900  156.2140 N   0  0  0  0  0  2  0  0  0  0  0  0
  160.0320  210.1770  154.3430 C   0  0  2  0  0  3  0  0  0  0  0  0
  160.5070  210.8640  153.0600 C   0  0  0  0  0  2  0  0  0  0  0  0
  161.0020  210.8420  156.4230 N   0  0  0  0  0  2  0  0  0  0  0  0
  159.1010  212.8380  153.8620 C   0  0  0  0  0  2  0  0  0  0  0  0
  160.3640  213.6810  149.1490 C   0  0  1  0  0  3  0  0  0  0  0  0
  160.3780  212.8620  151.6220 C   0  0  2  0  0  3  0  0  0  0  0  0
  159.8620  211.9910  147.3140 C   0  0  0  0  0  1  0  0  0  0  0  0
  161.6140  213.0580  149.0420 O   0  0  0  0  0  1  0  0  0  0  0  0
  159.3800  213.2390  148.0530 C   0  0  1  0  0  0  0  0  0  0  0  0
  159.8320  214.1550  151.4400 O   0  0  0  0  0  0  0  0  0  0  0  0
  158.2040  212.9740  150.0300 C   0  0  2  0  0  3  0  0  0  0  0  0
  159.6520  213.2520  150.3750 C   0  0  1  0  0  0  0  0  0  0  0  0
  158.1060  212.9570  148.6210 O   0  0  0  0  0  0  0  0  0  0  0  0
  157.3670  214.4530  151.8400 F   0  0  0  0  0  0  0  0  0  0  0  0
  157.2460  213.9980  150.5640 C   0  0  0  0  0  0  0  0  0  0  0  0
  156.3750  214.4510  149.8400 O   0  0  0  0  0  0  0  0  0  0  0  0
  159.2470  214.3900  147.0590 C   0  0  0  0  0  2  0  0  0  0  0  0
  158.0010  214.2990  146.3130 N   0  0  0  0  0  1  0  0  0  0  0  0
  160.5780  207.7750  154.6680 C   0  0  0  0  0  2  0  0  0  0  0  0
  161.4360  207.0100  153.6740 C   0  0  0  0  0  2  0  0  0  0  0  0
  160.9160  207.2190  152.2610 C   0  0  0  0  0  2  0  0  0  0  0  0
  161.2690  204.1940  150.3350 C   0  0  1  0  0  3  0  0  0  0  0  0
  161.3350  206.6630  149.9640 C   0  0  0  0  0  2  0  0  0  0  0  0
  162.7030  205.6940  151.7210 C   0  0  0  0  0  2  0  0  0  0  0  0
  160.4520  205.4110  149.9260 C   0  0  0  0  0  2  0  0  0  0  0  0
  161.8480  204.4240  151.7230 C   0  0  0  0  0  2  0  0  0  0  0  0
  161.9490  206.8790  151.2830 N   0  0  0  0  0  0  0  0  0  0  0  0
  160.5360  202.5450  149.0550 C   0  0  0  0  0  1  0  0  0  0  0  0
  160.4520  203.0630  150.3480 O   0  0  0  0  0  0  0  0  0  0  0  0
  2  1  1  6  0  0  0
  2  8  1  0  0  0  0
  2 10  1  0  0  0  0
  3  5  1  6  0  0  0
  3  9  1  0  0  0  0
  4 25  1  1  0  0  0
  4  6  1  0  0  0  0
  6  9  1  0  0  0  0
  7  8  1  6  0  0  0
  7  4  1  0  0  0  0
  7  3  1  0  0  0  0
 10  5  1  0  0  0  0
 11 14  1  6  0  0  0
 11 18  1  0  0  0  0
 12 16  1  1  0  0  0
 12  2  1  0  0  0  0
 15 13  1  6  0  0  0
 15 19  1  0  0  0  0
 15 11  1  0  0  0  0
 17 18  1  0  0  0  0
 17 21  1  1  0  0  0
 18 16  1  1  0  0  0
 18 12  1  0  0  0  0
 19 17  1  0  0  0  0
 21 20  1  0  0  0  0
 22 21  2  0  0  0  0
 23 15  1  0  0  0  0
 24 23  1  0  0  0  0
 26 25  1  0  0  0  0
 27 26  1  0  0  0  0
 28 35  1  1  0  0  0
 28 32  1  0  0  0  0
 29 33  1  0  0  0  0
 30 32  1  0  0  0  0
 31 29  1  0  0  0  0
 31 28  1  0  0  0  0
 33 30  1  0  0  0  0
 33 27  1  0  0  0  0
 34 35  1  0  0  0  0
M  END
>  <MODEL>
7

>  <REMARK>
 VINA RESULT:      -5.9      4.360      8.218
  Name = 
  8 active torsions:
  status: ('A' for Active; 'I' for Inactive)
    1  A    between atoms: C_2  and  O_29
    2  A    between atoms: C_3  and  C_14
    3  A    between atoms: C_9  and  C_19
    4  A    between atoms: C_11  and  C_23
    5  A    between atoms: C_11  and  C_31
    6  A    between atoms: C_13  and  C_23
    7  A    between atoms: C_17  and  C_27
    8  A    between atoms: N_30  and  C_31
                            x       y       z     vdW  Elec       q    Type
                         _______ _______ _______ _____ _____    ______ ____

>  <TORSDO>
F 8

$$$$
=
 OpenBabel11072413083D

 35 39  0  0  1  0  0  0  0  0999 V2000
  159.6700  206.2010  150.1100 O   0  0  0  0  0  1  0  0  0  0  0  0
  160.9860  206.3150  150.5630 C   0  0  2  0  0  0  0  0  0  0  0  0
  161.9160  209.1740  150.8390 C   0  0  1  0  0  3  0  0  0  0  0  0
  160.9860  209.2870  153.0200 C   0  0  2  0  0  3  0  0  0  0  0  0
  162.7400  208.1240  150.0910 C   0  0  0  0  0  2  0  0  0  0  0  0
  161.9740  210.3380  152.8140 N   0  0  0  0  0  2  0  0  0  0  0  0
  160.8070  208.5860  151.6990 C   0  0  2  0  0  3  0  0  0  0  0  0
  160.9560  207.0750  151.8980 C   0  0  0  0  0  2  0  0  0  0  0  0
  162.7740  209.9410  151.7250 N   0  0  0  0  0  2  0  0  0  0  0  0
  161.8130  207.0690  149.4930 C   0  0  0  0  0  2  0  0  0  0  0  0
  161.4940  202.4280  150.0900 C   0  0  1  0  0  3  0  0  0  0  0  0
  161.5510  204.9110  150.8800 C   0  0  2  0  0  3  0  0  0  0  0  0
  159.2380  201.3750  149.5650 C   0  0  0  0  0  1  0  0  0  0  0  0
  161.0550  202.1320  151.3870 O   0  0  0  0  0  1  0  0  0  0  0  0
  160.5790  201.8450  149.0010 C   0  0  1  0  0  0  0  0  0  0  0  0
  162.6200  204.5460  150.0250 O   0  0  0  0  0  0  0  0  0  0  0  0
  160.8200  204.0740  148.4230 C   0  0  2  0  0  3  0  0  0  0  0  0
  161.3990  203.8800  149.8080 C   0  0  1  0  0  0  0  0  0  0  0  0
  160.3220  202.8210  147.9990 O   0  0  0  0  0  0  0  0  0  0  0  0
  162.8710  203.7830  147.0550 F   0  0  0  0  0  0  0  0  0  0  0  0
  161.8150  204.5620  147.4110 C   0  0  0  0  0  0  0  0  0  0  0  0
  161.6570  205.6480  146.8790 O   0  0  0  0  0  0  0  0  0  0  0  0
  161.3040  200.6560  148.3760 C   0  0  0  0  0  2  0  0  0  0  0  0
  161.2050  200.6840  146.9250 N   0  0  0  0  0  1  0  0  0  0  0  0
  159.6760  209.9050  153.4760 C   0  0  0  0  0  2  0  0  0  0  0  0
  159.8410  211.4010  153.6800 C   0  0  0  0  0  2  0  0  0  0  0  0
  158.5260  212.1170  153.4160 C   0  0  0  0  0  2  0  0  0  0  0  0
  156.1480  212.1910  156.1210 C   0  0  1  0  0  3  0  0  0  0  0  0
  158.5760  212.6460  155.7560 C   0  0  0  0  0  2  0  0  0  0  0  0
  156.9430  213.7020  154.3020 C   0  0  0  0  0  2  0  0  0  0  0  0
  157.5480  211.5970  156.1920 C   0  0  0  0  0  2  0  0  0  0  0  0
  155.8810  212.6750  154.7050 C   0  0  0  0  0  2  0  0  0  0  0  0
  158.3100  213.1690  154.4070 N   0  0  0  0  0  0  0  0  0  0  0  0
  155.2050  210.3240  155.4000 C   0  0  0  0  0  1  0  0  0  0  0  0
  155.2090  211.2190  156.4710 O   0  0  0  0  0  0  0  0  0  0  0  0
  2  1  1  6  0  0  0
  2 12  1  0  0  0  0
  2  8  1  0  0  0  0
  3  5  1  1  0  0  0
  3  7  1  0  0  0  0
  3  9  1  0  0  0  0
  4 25  1  6  0  0  0
  6  4  1  0  0  0  0
  7  8  1  1  0  0  0
  7  4  1  0  0  0  0
  9  6  1  0  0  0  0
 10  5  1  0  0  0  0
 10  2  1  0  0  0  0
 11 14  1  1  0  0  0
 12 16  1  6  0  0  0
 15 13  1  1  0  0  0
 15 11  1  0  0  0  0
 17 21  1  6  0  0  0
 17 18  1  0  0  0  0
 18 16  1  6  0  0  0
 18 11  1  0  0  0  0
 18 12  1  0  0  0  0
 19 17  1  0  0  0  0
 19 15  1  0  0  0  0
 20 21  1  0  0  0  0
 22 21  2  0  0  0  0
 23 15  1  0  0  0  0
 24 23  1  0  0  0  0
 25 26  1  0  0  0  0
 27 26  1  0  0  0  0
 27 33  1  0  0  0  0
 28 31  1  0  0  0  0
 28 35  1  6  0  0  0
 29 31  1  0  0  0  0
 30 33  1  0  0  0  0
 30 32  1  0  0  0  0
 32 28  1  0  0  0  0
 33 29  1  0  0  0  0
 34 35  1  0  0  0  0
M  END
>  <MODEL>
8

>  <REMARK>
 VINA RESULT:      -5.2      1.835      3.063
  Name = 
  8 active torsions:
  status: ('A' for Active; 'I' for Inactive)
    1  A    between atoms: C_2  and  O_29
    2  A    between atoms: C_3  and  C_14
    3  A    between atoms: C_9  and  C_19
    4  A    between atoms: C_11  and  C_23
    5  A    between atoms: C_11  and  C_31
    6  A    between atoms: C_13  and  C_23
    7  A    between atoms: C_17  and  C_27
    8  A    between atoms: N_30  and  C_31
                            x       y       z     vdW  Elec       q    Type
                         _______ _______ _______ _____ _____    ______ ____

>  <TORSDO>
F 8

$$$$
=
 OpenBabel11072413083D

 35 39  0  0  1  0  0  0  0  0999 V2000
  159.7050  206.1830  150.3660 O   0  0  0  0  0  1  0  0  0  0  0  0
  161.0220  206.3260  150.8090 C   0  0  2  0  0  0  0  0  0  0  0  0
  161.8600  209.2020  151.1760 C   0  0  1  0  0  3  0  0  0  0  0  0
  160.9540  209.2070  153.3700 C   0  0  2  0  0  3  0  0  0  0  0  0
  162.7090  208.2080  150.3820 C   0  0  0  0  0  2  0  0  0  0  0  0
  161.9030  210.2970  153.1910 N   0  0  0  0  0  2  0  0  0  0  0  0
  160.7820  208.5470  152.0270 C   0  0  2  0  0  3  0  0  0  0  0  0
  160.9830  207.0370  152.1700 C   0  0  0  0  0  2  0  0  0  0  0  0
  162.7030  209.9660  152.0800 N   0  0  0  0  0  2  0  0  0  0  0  0
  161.8100  207.1440  149.7570 C   0  0  0  0  0  2  0  0  0  0  0  0
  161.5530  202.4500  150.2770 C   0  0  1  0  0  3  0  0  0  0  0  0
  161.6370  204.9310  151.0680 C   0  0  2  0  0  3  0  0  0  0  0  0
  159.2790  201.3580  149.9480 C   0  0  0  0  0  1  0  0  0  0  0  0
  161.2360  202.1430  151.6060 O   0  0  0  0  0  1  0  0  0  0  0  0
  160.5560  201.8530  149.2700 C   0  0  1  0  0  0  0  0  0  0  0  0
  162.6330  204.5870  150.1210 O   0  0  0  0  0  0  0  0  0  0  0  0
  160.7070  204.0870  148.6820 C   0  0  2  0  0  3  0  0  0  0  0  0
  161.4090  203.9000  150.0100 C   0  0  1  0  0  0  0  0  0  0  0  0
  160.1960  202.8270  148.2980 O   0  0  0  0  0  0  0  0  0  0  0  0
  162.7200  203.9070  147.2410 F   0  0  0  0  0  0  0  0  0  0  0  0
  161.6010  204.5950  147.5890 C   0  0  0  0  0  0  0  0  0  0  0  0
  161.3030  205.6120  146.9840 O   0  0  0  0  0  0  0  0  0  0  0  0
  161.2440  200.6790  148.5780 C   0  0  0  0  0  2  0  0  0  0  0  0
  161.2060  200.8250  147.1310 N   0  0  0  0  0  1  0  0  0  0  0  0
  159.6290  209.7640  153.8620 C   0  0  0  0  0  2  0  0  0  0  0  0
  159.8390  211.1130  154.5280 C   0  0  0  0  0  2  0  0  0  0  0  0
  158.7670  212.0930  154.0810 C   0  0  0  0  0  2  0  0  0  0  0  0
  157.4160  214.1910  151.4820 C   0  0  1  0  0  3  0  0  0  0  0  0
  158.5480  214.4510  153.6920 C   0  0  0  0  0  2  0  0  0  0  0  0
  159.5600  213.0270  152.0050 C   0  0  0  0  0  2  0  0  0  0  0  0
  157.1960  214.3840  152.9760 C   0  0  0  0  0  2  0  0  0  0  0  0
  158.2290  212.9260  151.2540 C   0  0  0  0  0  2  0  0  0  0  0  0
  159.3760  213.2610  153.4460 N   0  0  0  0  0  0  0  0  0  0  0  0
  156.4980  213.9370  149.4850 C   0  0  0  0  0  1  0  0  0  0  0  0
  156.1830  214.0800  150.8370 O   0  0  0  0  0  0  0  0  0  0  0  0
  2  1  1  6  0  0  0
  2 12  1  0  0  0  0
  2  8  1  0  0  0  0
  3  5  1  1  0  0  0
  3  7  1  0  0  0  0
  3  9  1  0  0  0  0
  4 25  1  6  0  0  0
  6  4  1  0  0  0  0
  7  8  1  1  0  0  0
  7  4  1  0  0  0  0
  9  6  1  0  0  0  0
 10  5  1  0  0  0  0
 10  2  1  0  0  0  0
 11 14  1  1  0  0  0
 12 16  1  6  0  0  0
 15 13  1  1  0  0  0
 15 11  1  0  0  0  0
 17 21  1  6  0  0  0
 17 18  1  0  0  0  0
 18 16  1  6  0  0  0
 18 11  1  0  0  0  0
 18 12  1  0  0  0  0
 19 17  1  0  0  0  0
 19 15  1  0  0  0  0
 20 21  1  0  0  0  0
 22 21  2  0  0  0  0
 23 15  1  0  0  0  0
 24 23  1  0  0  0  0
 25 26  1  0  0  0  0
 27 26  1  0  0  0  0
 28 35  1  6  0  0  0
 28 31  1  0  0  0  0
 30 33  1  0  0  0  0
 31 29  1  0  0  0  0
 32 28  1  0  0  0  0
 32 30  1  0  0  0  0
 33 29  1  0  0  0  0
 33 27  1  0  0  0  0
 34 35  1  0  0  0  0
M  END
>  <MODEL>
9

>  <REMARK>
 VINA RESULT:      -5.1      2.262      3.598
  Name = 
  8 active torsions:
  status: ('A' for Active; 'I' for Inactive)
    1  A    between atoms: C_2  and  O_29
    2  A    between atoms: C_3  and  C_14
    3  A    between atoms: C_9  and  C_19
    4  A    between atoms: C_11  and  C_23
    5  A    between atoms: C_11  and  C_31
    6  A    between atoms: C_13  and  C_23
    7  A    between atoms: C_17  and  C_27
    8  A    between atoms: N_30  and  C_31
                            x       y       z     vdW  Elec       q    Type
                         _______ _______ _______ _____ _____    ______ ____

>  <TORSDO>
F 8

$$$$
