=
 OpenBabel11072414293D

 69 78  0  0  1  0  0  0  0  0999 V2000
  161.3410  213.1760  139.7160 C   0  0  0  0  0  2  0  0  0  0  0  0
  154.4720  214.4100  144.3580 C   0  0  0  0  0  3  0  0  0  0  0  0
  160.0100  214.1040  144.3000 C   0  0  0  0  0  2  0  0  0  0  0  0
  162.0960  213.9350  146.5010 C   0  0  0  0  0  2  0  0  0  0  0  0
  156.9130  213.7820  144.2560 C   0  0  0  0  0  3  0  0  0  0  0  0
  159.6300  212.8200  145.0690 C   0  0  2  0  0  3  0  0  0  0  0  0
  161.9620  211.3760  144.2990 S   0  0  0  0  0  0  0  0  0  0  0  0
  162.7040  211.5920  151.1680 C   0  0  0  0  0  2  0  0  0  0  0  0
  158.4610  213.0050  145.9590 N   0  0  0  0  0  0  0  0  0  0  0  0
  157.1590  213.3650  145.5090 C   0  0  0  0  0  0  0  0  0  0  0  0
  155.0050  213.7360  146.7180 C   0  0  0  0  0  3  0  0  0  0  0  0
  158.2220  212.2030  152.3140 O   0  0  0  0  0  0  0  0  0  0  0  0
  161.7860  212.7460  138.2990 C   0  0  0  0  0  2  0  0  0  0  0  0
  159.7140  212.5900  141.9690 P   0  0  2  0  0  0  0  0  0  0  0  0
  158.5230  212.9630  147.3740 N   0  0  0  0  0  2  0  0  0  0  0  0
  161.0570  210.6700  140.4250 C   0  0  2  0  0  3  0  0  0  0  0  0
  162.0920  210.5070  139.2970 C   0  0  1  0  0  3  0  0  0  0  0  0
  160.9720  212.3940  147.9960 O   0  0  0  0  0  0  0  0  0  0  0  0
  160.5750  211.9820  152.4570 N   0  0  0  0  0  2  0  0  0  0  0  0
  157.1490  212.0880  151.4610 N   0  0  0  0  0  2  0  0  0  0  0  0
  162.6680  209.2480  137.3840 O   0  0  0  0  0  0  0  0  0  0  0  0
  157.1550  213.1810  150.4680 C   0  0  2  0  0  0  0  0  0  0  0  0
  159.6030  213.4590  150.7810 C   0  0  0  0  0  2  0  0  0  0  0  0
  162.9420  214.3980  147.6500 C   0  0  0  0  0  3  0  0  0  0  0  0
  162.2810  209.1180  138.7420 C   0  0  0  0  0  2  0  0  0  0  0  0
  156.7060  212.7700  149.0680 C   0  0  1  0  0  0  0  0  0  0  0  0
  158.3200  213.1160  141.6900 O   0  0  0  0  0  0  0  0  0  0  0  0
  154.1020  213.5670  145.5350 C   0  0  0  0  0  2  0  0  0  0  0  0
  161.6420  211.2300  138.0880 C   0  0  2  0  0  3  0  0  0  0  0  0
  157.2500  213.5500  147.8450 C   0  0  2  0  0  3  0  0  0  0  0  0
  155.6790  214.4530  143.7900 C   0  0  0  0  0  3  0  0  0  0  0  0
  162.5130  210.6060  137.0360 C   0  0  0  0  0  2  0  0  0  0  0  0
  156.1650  211.3610  148.8950 C   0  0  0  0  0  1  0  0  0  0  0  0
  158.2890  214.2030  150.5530 C   0  0  0  0  0  2  0  0  0  0  0  0
  160.4420  212.1030  140.3840 C   0  0  2  0  0  3  0  0  0  0  0  0
  161.7370  210.3800  141.7600 C   0  0  0  0  0  2  0  0  0  0  0  0
  155.7980  213.6290  149.9530 C   0  0  0  0  0  2  0  0  0  0  0  0
  162.8150  213.8250  148.8510 C   0  0  0  0  0  3  0  0  0  0  0  0
  161.6340  212.4940  146.7540 C   0  0  1  0  0  3  0  0  0  0  0  0
  161.8650  212.6640  149.0690 C   0  0  2  0  0  3  0  0  0  0  0  0
  160.7800  211.9170  145.6020 C   0  0  1  0  0  3  0  0  0  0  0  0
  156.3280  213.5810  146.6680 C   0  0  0  0  0  0  0  0  0  0  0  0
  159.4250  212.1400  151.5500 C   0  0  2  0  0  0  0  0  0  0  0  0
  159.5970  211.1510  142.8720 O   0  0  0  0  0  0  0  0  0  0  0  0
  162.5550  211.4220  149.6440 C   0  0  2  0  0  3  0  0  0  0  0  0
  160.6590  213.8330  142.9400 C   0  0  0  0  0  2  0  0  0  0  0  0
  159.3470  211.0720  150.6280 O   0  0  0  0  0  1  0  0  0  0  0  0
  161.5570  210.9800  151.9950 C   0  0  2  0  0  3  0  0  0  0  0  0
  160.8920  210.5850  143.0390 C   0  0  2  0  0  3  0  0  0  0  0  0
  162.1150  210.2050  153.2050 C   0  0  0  0  0  2  0  0  0  0  0  0
  161.1270  209.2560  153.7270 N   0  0  0  0  0  2  0  0  0  0  0  0
  161.2780  208.6970  155.0310 C   0  0  0  0  0  0  0  0  0  0  0  0
  161.8860  207.5940  155.1500 O   0  0  0  0  0  0  0  0  0  0  0  0
  160.8330  209.3850  156.1580 O   0  0  0  0  0  0  0  0  0  0  0  0
  159.8370  210.3980  156.0640 C   0  0  2  0  0  3  0  0  0  0  0  0
  161.5150  212.1170  156.0610 O   0  0  0  0  0  1  0  0  0  0  0  0
  159.2720  212.8110  156.4240 C   0  0  0  0  0  1  0  0  0  0  0  0
  160.3100  211.7330  156.6550 C   0  0  1  0  0  3  0  0  0  0  0  0
  158.6270  209.9680  156.6330 O   0  0  0  0  0  0  0  0  0  0  0  0
  157.8990  209.4570  155.6400 O   0  0  0  0  0  0  0  0  0  0  0  0
  157.9690  211.7100  155.0710 O   0  0  0  0  0  1  0  0  0  0  0  0
  157.1900  210.5330  155.0310 C   0  0  2  0  0  3  0  0  0  0  0  0
  155.2280  212.1630  155.3020 C   0  0  0  0  0  1  0  0  0  0  0  0
  154.8060  209.7340  154.9210 C   0  0  0  0  0  1  0  0  0  0  0  0
  155.7470  210.7470  155.5530 C   0  0  0  0  0  3  0  0  0  0  0  0
  161.8570  210.2470  149.3240 O   0  0  0  0  0  0  0  0  0  0  0  0
  162.5160  209.7340  148.1970 C   0  0  0  0  0  2  0  0  0  0  0  0
  162.1640  208.2650  148.0290 C   0  0  0  0  0  2  0  0  0  0  0  0
  161.1620  208.0840  146.8950 C   0  0  0  0  0  1  0  0  0  0  0  0
  2 28  1  0  0  0  0
  4 24  1  0  0  0  0
  5 10  2  0  0  0  0
  6  3  1  1  0  0  0
  6 41  1  0  0  0  0
  6  9  1  0  0  0  0
  8 48  1  0  0  0  0
  9 15  1  0  0  0  0
 10  9  1  0  0  0  0
 10 42  1  0  0  0  0
 13  1  1  0  0  0  0
 14 27  2  6  0  0  0
 14 44  1  0  0  0  0
 14 46  1  0  0  0  0
 15 30  1  0  0  0  0
 16 36  1  1  0  0  0
 17 25  1  6  0  0  0
 17 16  1  0  0  0  0
 18 40  1  0  0  0  0
 20 12  1  0  0  0  0
 21 25  1  0  0  0  0
 22 37  1  1  0  0  0
 22 34  1  0  0  0  0
 22 20  1  0  0  0  0
 23 43  1  0  0  0  0
 24 38  2  0  0  0  0
 26 33  1  6  0  0  0
 26 37  1  0  0  0  0
 26 22  1  0  0  0  0
 28 11  1  0  0  0  0
 29 32  1  6  0  0  0
 29 13  1  0  0  0  0
 29 17  1  0  0  0  0
 30 42  1  6  0  0  0
 30 26  1  0  0  0  0
 31  5  1  0  0  0  0
 31  2  2  0  0  0  0
 32 21  1  0  0  0  0
 34 23  1  0  0  0  0
 35  1  1  1  0  0  0
 35 16  1  0  0  0  0
 35 14  1  0  0  0  0
 39  4  1  6  0  0  0
 39 18  1  0  0  0  0
 40 38  1  6  0  0  0
 40 45  1  0  0  0  0
 41  7  1  6  0  0  0
 41 39  1  0  0  0  0
 42 11  2  0  0  0  0
 43 47  1  6  0  0  0
 43 12  1  0  0  0  0
 43 19  1  0  0  0  0
 44 49  1  0  0  0  0
 45 66  1  1  0  0  0
 45  8  1  0  0  0  0
 46  3  1  0  0  0  0
 48 19  1  0  0  0  0
 48 50  1  1  0  0  0
 49 36  1  6  0  0  0
 49  7  1  0  0  0  0
 50 51  1  0  0  0  0
 51 52  1  0  0  0  0
 52 53  2  0  0  0  0
 52 54  1  0  0  0  0
 55 54  1  1  0  0  0
 55 59  1  0  0  0  0
 55 58  1  0  0  0  0
 56 58  1  0  0  0  0
 58 57  1  6  0  0  0
 60 59  1  0  0  0  0
 62 61  1  1  0  0  0
 62 65  1  0  0  0  0
 62 60  1  0  0  0  0
 63 65  1  0  0  0  0
 64 65  1  0  0  0  0
 67 66  1  0  0  0  0
 68 67  1  0  0  0  0
 69 68  1  0  0  0  0
M  END
>  <MODEL>
1

>  <REMARK>
 VINA RESULT:      20.0      0.000      0.000
  Name = 
  12 active torsions:
  status: ('A' for Active; 'I' for Inactive)
    1  A    between atoms: C_1  and  C_15
    2  A    between atoms: O_6  and  O_39
    3  A    between atoms: O_6  and  C_58
    4  A    between atoms: C_11  and  O_39
    5  A    between atoms: C_11  and  C_43
    6  A    between atoms: C_11  and  O_57
    7  A    between atoms: C_15  and  O_56
    8  A    between atoms: C_28  and  N_40
    9  A    between atoms: C_28  and  C_67
   10  A    between atoms: C_44  and  O_57
   11  A    between atoms: O_56  and  C_64
   12  A    between atoms: C_58  and  C_68
                            x       y       z     vdW  Elec       q    Type
                         _______ _______ _______ _____ _____    ______ ____

>  <TORSDO>
F 12

$$$$
