=
 OpenBabel11072415173D

 58 65  0  0  1  0  0  0  0  0999 V2000
  160.3090  212.4980  151.9800 C   0  0  2  0  0  3  0  0  0  0  0  0
  156.7290  213.3660  153.0390 O   0  0  0  0  0  0  0  0  0  0  0  0
  159.0160  210.8620  156.4360 C   0  0  2  0  0  3  0  0  0  0  0  0
  160.2690  211.8600  154.3970 C   0  0  0  0  0  2  0  0  0  0  0  0
  159.4880  212.5950  153.2710 C   0  0  1  0  0  3  0  0  0  0  0  0
  156.8160  212.1860  155.0940 C   0  0  2  0  0  0  0  0  0  0  0  0
  159.7630  212.0720  155.8460 C   0  0  1  0  0  3  0  0  0  0  0  0
  157.9060  211.2070  157.2590 O   0  0  0  0  0  0  0  0  0  0  0  0
  157.6010  214.4520  153.2740 C   0  0  0  0  0  2  0  0  0  0  0  0
  156.8720  212.0020  156.6490 C   0  0  1  0  0  3  0  0  0  0  0  0
  158.9940  213.3670  156.0320 C   0  0  1  0  0  3  0  0  0  0  0  0
  159.0670  214.0520  153.6100 C   0  0  1  0  0  3  0  0  0  0  0  0
  159.4150  214.4510  155.0440 C   0  0  0  0  0  2  0  0  0  0  0  0
  157.4780  213.2220  156.0360 C   0  0  1  0  0  3  0  0  0  0  0  0
  156.0020  213.1350  154.2280 C   0  0  2  0  0  3  0  0  0  0  0  0
  154.6570  212.5640  153.9130 C   0  0  0  0  0  3  0  0  0  0  0  0
  153.8710  213.1960  153.2260 O   0  0  0  0  0  0  0  0  0  0  0  0
  157.3370  210.9550  154.3300 C   0  0  0  0  0  2  0  0  0  0  0  0
  156.2770  209.8720  154.2510 C   0  0  0  0  0  1  0  0  0  0  0  0
  159.9780  209.9860  157.2220 C   0  0  0  0  0  2  0  0  0  0  0  0
  162.3090  210.0510  156.7180 O   0  0  0  0  0  1  0  0  0  0  0  0
  161.0960  209.4850  156.3240 C   0  0  1  0  0  3  0  0  0  0  0  0
  161.1760  207.9710  156.4240 C   0  0  0  0  0  2  0  0  0  0  0  0
  159.9050  207.3180  155.9050 C   0  0  0  0  0  2  0  0  0  0  0  0
  161.5220  206.1700  154.5760 O   0  0  0  0  0  1  0  0  0  0  0  0
  160.1700  206.5040  154.6480 C   0  0  0  0  0  2  0  0  0  0  0  0
  160.2800  213.7700  151.1270 C   0  0  0  0  0  2  0  0  0  0  0  0
  161.2120  212.9420  149.0590 N   0  0  0  0  0  0  0  0  0  0  0  0
  159.8050  212.0750  145.7880 N   0  0  0  0  0  2  0  0  0  0  0  0
  161.2730  212.6390  147.6250 C   0  0  0  0  0  2  0  0  0  0  0  0
  157.9220  214.1840  149.5090 O   0  0  0  0  0  0  0  0  0  0  0  0
  160.1730  213.4260  149.6760 C   0  0  0  0  0  0  0  0  0  0  0  0
  159.9140  212.5270  146.9930 C   0  0  0  0  0  0  0  0  0  0  0  0
  158.9040  213.6240  148.9520 C   0  0  0  0  0  0  0  0  0  0  0  0
  158.7850  213.1370  147.6190 N   0  0  0  0  0  2  0  0  0  0  0  0
  160.1510  211.1900  151.1910 C   0  0  0  0  0  2  0  0  0  0  0  0
  162.6180  209.0940  153.1940 C   0  0  0  0  0  3  0  0  0  0  0  0
  160.8290  208.7900  151.0720 C   0  0  0  0  0  3  0  0  0  0  0  0
  160.9920  210.0440  151.6670 C   0  0  0  0  0  0  0  0  0  0  0  0
  161.8750  210.1870  152.7450 C   0  0  0  0  0  3  0  0  0  0  0  0
  161.5710  207.6810  151.5120 C   0  0  0  0  0  0  0  0  0  0  0  0
  162.4700  207.8490  152.5780 C   0  0  0  0  0  3  0  0  0  0  0  0
  160.9500  204.1170  151.6170 C   0  0  1  0  0  3  0  0  0  0  0  0
  161.6060  202.8240  152.0490 C   0  0  0  0  0  1  0  0  0  0  0  0
  160.4240  204.8410  149.1800 C   0  0  1  0  0  3  0  0  0  0  0  0
  161.4240  206.3990  150.8710 N   0  0  0  0  0  0  0  0  0  0  0  0
  162.0080  205.2050  151.4770 C   0  0  0  0  0  2  0  0  0  0  0  0
  160.1300  203.8780  150.3410 C   0  0  0  0  0  2  0  0  0  0  0  0
  160.6850  206.2910  149.6090 C   0  0  0  0  0  2  0  0  0  0  0  0
  161.4260  204.2940  148.1630 C   0  0  0  0  0  2  0  0  0  0  0  0
  163.9840  204.4810  146.5960 C   0  0  0  0  0  1  0  0  0  0  0  0
  162.7160  205.4320  144.7610 N   0  0  0  0  0  2  0  0  0  0  0  0
  162.6100  204.5860  145.9510 C   0  0  2  0  0  3  0  0  0  0  0  0
  161.5540  206.1400  142.8820 F   0  0  0  0  0  0  0  0  0  0  0  0
  161.4300  205.4440  144.0700 C   0  0  2  0  0  3  0  0  0  0  0  0
  161.5920  205.1850  146.9360 C   0  0  1  0  0  3  0  0  0  0  0  0
  160.2360  205.3440  146.2500 C   0  0  0  0  0  2  0  0  0  0  0  0
  160.3800  206.1210  144.9470 C   0  0  0  0  0  2  0  0  0  0  0  0
  1 27  1  6  0  0  0
  2  9  1  0  0  0  0
  2 15  1  0  0  0  0
  3 20  1  1  0  0  0
  3  8  1  0  0  0  0
  5  1  1  6  0  0  0
  5 12  1  0  0  0  0
  5  4  1  0  0  0  0
  6 18  1  6  0  0  0
  6 14  1  0  0  0  0
  6 10  1  0  0  0  0
  7  4  1  6  0  0  0
  7 11  1  0  0  0  0
  7  3  1  0  0  0  0
 10  8  1  6  0  0  0
 11 13  1  6  0  0  0
 11 14  1  0  0  0  0
 12  9  1  1  0  0  0
 12 13  1  0  0  0  0
 14 10  1  0  0  0  0
 15  6  1  0  0  0  0
 16 15  1  0  0  0  0
 17 16  2  0  0  0  0
 19 18  1  0  0  0  0
 22 23  1  0  0  0  0
 22 21  1  0  0  0  0
 22 20  1  0  0  0  0
 24 23  1  0  0  0  0
 25 26  1  0  0  0  0
 26 24  1  0  0  0  0
 28 32  2  0  0  0  0
 29 33  2  0  0  0  0
 30 28  1  0  0  0  0
 32 27  1  0  0  0  0
 33 35  1  0  0  0  0
 33 30  1  0  0  0  0
 34 31  2  0  0  0  0
 34 32  1  0  0  0  0
 35 34  1  0  0  0  0
 36 39  1  0  0  0  0
 36  1  1  0  0  0  0
 38 41  2  0  0  0  0
 38 39  1  0  0  0  0
 39 40  2  0  0  0  0
 40 37  1  0  0  0  0
 41 42  1  0  0  0  0
 42 37  2  0  0  0  0
 43 44  1  0  0  0  0
 45 49  1  0  0  0  0
 45 48  1  0  0  0  0
 46 47  1  0  0  0  0
 46 41  1  0  0  0  0
 47 43  1  0  0  0  0
 48 43  1  0  0  0  0
 49 46  1  0  0  0  0
 50 45  1  0  0  0  0
 52 53  1  0  0  0  0
 53 51  1  0  0  0  0
 53 56  1  0  0  0  0
 54 55  1  0  0  0  0
 55 52  1  0  0  0  0
 55 58  1  0  0  0  0
 56 50  1  0  0  0  0
 57 56  1  0  0  0  0
 58 57  1  0  0  0  0
M  END
>  <MODEL>
1

>  <REMARK>
 VINA RESULT:      -2.7      0.000      0.000
  Name = 
  15 active torsions:
  status: ('A' for Active; 'I' for Inactive)
    1  A    between atoms: C_4  and  C_22
    2  A    between atoms: C_4  and  C_40
    3  A    between atoms: C_6  and  C_25
    4  A    between atoms: C_6  and  C_38
    5  A    between atoms: C_7  and  C_58
    6  A    between atoms: C_9  and  C_17
    7  A    between atoms: C_12  and  C_49
    8  A    between atoms: C_16  and  C_17
    9  A    between atoms: C_16  and  C_30
   10  A    between atoms: C_23  and  C_33
   11  A    between atoms: N_29  and  C_35
   12  A    between atoms: C_30  and  C_32
   13  A    between atoms: C_31  and  C_38
   14  A    between atoms: C_32  and  C_48
   15  A    between atoms: C_38  and  C_49
                            x       y       z     vdW  Elec       q    Type
                         _______ _______ _______ _____ _____    ______ ____

>  <TORSDO>
F 15

$$$$
=
 OpenBabel11072415173D

 58 65  0  0  1  0  0  0  0  0999 V2000
  160.5750  208.1780  152.9010 C   0  0  2  0  0  3  0  0  0  0  0  0
  162.5590  209.0750  156.0560 O   0  0  0  0  0  0  0  0  0  0  0  0
  159.0510  212.2420  155.2190 C   0  0  2  0  0  3  0  0  0  0  0  0
  159.2020  209.9980  153.9300 C   0  0  0  0  0  2  0  0  0  0  0  0
  160.3960  209.0300  154.1640 C   0  0  1  0  0  3  0  0  0  0  0  0
  161.3910  211.0920  156.4840 C   0  0  2  0  0  0  0  0  0  0  0  0
  158.6660  210.7520  155.1720 C   0  0  1  0  0  3  0  0  0  0  0  0
  159.3500  212.7250  156.5250 O   0  0  0  0  0  0  0  0  0  0  0  0
  161.5850  208.0920  156.3360 C   0  0  0  0  0  2  0  0  0  0  0  0
  160.4120  212.0590  157.2340 C   0  0  1  0  0  3  0  0  0  0  0  0
  158.9590  210.0430  156.4810 C   0  0  1  0  0  3  0  0  0  0  0  0
  160.3020  208.1750  155.4580 C   0  0  1  0  0  3  0  0  0  0  0  0
  159.0890  208.5310  156.3160 C   0  0  0  0  0  2  0  0  0  0  0  0
  160.1480  210.5900  157.2600 C   0  0  1  0  0  3  0  0  0  0  0  0
  162.4180  210.1040  157.0120 C   0  0  2  0  0  3  0  0  0  0  0  0
  163.7350  210.7690  157.2600 C   0  0  0  0  0  3  0  0  0  0  0  0
  163.9270  211.9080  156.8670 O   0  0  0  0  0  0  0  0  0  0  0  0
  161.6380  211.5110  155.0240 C   0  0  0  0  0  2  0  0  0  0  0  0
  162.6730  210.6160  154.3670 C   0  0  0  0  0  1  0  0  0  0  0  0
  157.9480  213.0880  154.6050 C   0  0  0  0  0  2  0  0  0  0  0  0
  157.0320  213.8540  152.5380 O   0  0  0  0  0  1  0  0  0  0  0  0
  158.0180  213.0320  153.0880 C   0  0  1  0  0  3  0  0  0  0  0  0
  159.3910  213.4970  152.6340 C   0  0  0  0  0  2  0  0  0  0  0  0
  159.8860  212.6770  151.4530 C   0  0  0  0  0  2  0  0  0  0  0  0
  160.8550  212.9850  149.2920 O   0  0  0  0  0  1  0  0  0  0  0  0
  159.9050  213.5000  150.1740 C   0  0  0  0  0  2  0  0  0  0  0  0
  161.9170  207.4440  152.8300 C   0  0  0  0  0  2  0  0  0  0  0  0
  160.6110  205.4200  153.0020 N   0  0  0  0  0  0  0  0  0  0  0  0
  160.8840  202.0710  151.5390 N   0  0  0  0  0  2  0  0  0  0  0  0
  160.3100  203.9880  152.8950 C   0  0  0  0  0  2  0  0  0  0  0  0
  163.8200  205.7080  151.5200 O   0  0  0  0  0  0  0  0  0  0  0  0
  161.7040  205.9860  152.5770 C   0  0  0  0  0  0  0  0  0  0  0  0
  161.1660  203.2840  151.8800 C   0  0  0  0  0  0  0  0  0  0  0  0
  162.7140  205.1980  151.8480 C   0  0  0  0  0  0  0  0  0  0  0  0
  162.4110  203.8550  151.4810 N   0  0  0  0  0  2  0  0  0  0  0  0
  160.1340  208.8410  151.5880 C   0  0  0  0  0  2  0  0  0  0  0  0
  162.8410  209.0630  148.9220 C   0  0  0  0  0  3  0  0  0  0  0  0
  160.7790  207.3470  149.6950 C   0  0  0  0  0  3  0  0  0  0  0  0
  160.9870  208.5400  150.3930 C   0  0  0  0  0  0  0  0  0  0  0  0
  162.0360  209.3870  150.0150 C   0  0  0  0  0  3  0  0  0  0  0  0
  161.5810  207.0080  148.5920 C   0  0  0  0  0  0  0  0  0  0  0  0
  162.6120  207.8820  148.2110 C   0  0  0  0  0  3  0  0  0  0  0  0
  161.7610  205.0230  145.5710 C   0  0  1  0  0  3  0  0  0  0  0  0
  161.1420  204.9240  144.1930 C   0  0  0  0  0  1  0  0  0  0  0  0
  161.4920  203.3160  147.5080 C   0  0  1  0  0  3  0  0  0  0  0  0
  161.3390  205.7950  147.8550 N   0  0  0  0  0  0  0  0  0  0  0  0
  160.8610  205.8560  146.4760 C   0  0  0  0  0  2  0  0  0  0  0  0
  162.0510  203.6140  146.1080 C   0  0  0  0  0  2  0  0  0  0  0  0
  161.5750  204.4930  148.4890 C   0  0  0  0  0  2  0  0  0  0  0  0
  160.1410  202.6010  147.4930 C   0  0  0  0  0  2  0  0  0  0  0  0
  159.1970  201.7720  144.7630 C   0  0  0  0  0  1  0  0  0  0  0  0
  160.5130  199.7490  144.9910 N   0  0  0  0  0  2  0  0  0  0  0  0
  160.3920  201.1320  145.4530 C   0  0  2  0  0  3  0  0  0  0  0  0
  161.9130  197.8980  145.0310 F   0  0  0  0  0  0  0  0  0  0  0  0
  161.7250  199.1630  145.5570 C   0  0  2  0  0  3  0  0  0  0  0  0
  160.2190  201.1660  146.9810 C   0  0  1  0  0  3  0  0  0  0  0  0
  161.3960  200.4610  147.6540 C   0  0  0  0  0  2  0  0  0  0  0  0
  161.5890  199.0640  147.0750 C   0  0  0  0  0  2  0  0  0  0  0  0
  1 36  1  6  0  0  0
  2  9  1  0  0  0  0
  2 15  1  0  0  0  0
  3 20  1  1  0  0  0
  3  8  1  0  0  0  0
  4  5  1  0  0  0  0
  5  1  1  6  0  0  0
  5 12  1  0  0  0  0
  6 18  1  6  0  0  0
  6 15  1  0  0  0  0
  6 10  1  0  0  0  0
  6 14  1  0  0  0  0
  7  4  1  6  0  0  0
  7  3  1  0  0  0  0
  7 11  1  0  0  0  0
 10  8  1  6  0  0  0
 10 14  1  0  0  0  0
 11 13  1  6  0  0  0
 11 14  1  0  0  0  0
 12 13  1  1  0  0  0
 12  9  1  0  0  0  0
 15 16  1  0  0  0  0
 17 16  2  0  0  0  0
 19 18  1  0  0  0  0
 21 22  1  0  0  0  0
 22 20  1  0  0  0  0
 23 22  1  0  0  0  0
 24 23  1  0  0  0  0
 25 26  1  0  0  0  0
 26 24  1  0  0  0  0
 27  1  1  0  0  0  0
 29 33  2  0  0  0  0
 30 28  1  0  0  0  0
 31 34  2  0  0  0  0
 32 27  1  0  0  0  0
 32 28  2  0  0  0  0
 33 30  1  0  0  0  0
 34 32  1  0  0  0  0
 35 34  1  0  0  0  0
 35 33  1  0  0  0  0
 37 40  1  0  0  0  0
 38 39  1  0  0  0  0
 39 36  1  0  0  0  0
 40 39  2  0  0  0  0
 41 38  2  0  0  0  0
 42 41  1  0  0  0  0
 42 37  2  0  0  0  0
 43 48  1  0  0  0  0
 43 47  1  0  0  0  0
 44 43  1  0  0  0  0
 45 49  1  0  0  0  0
 46 49  1  0  0  0  0
 46 41  1  0  0  0  0
 47 46  1  0  0  0  0
 48 45  1  0  0  0  0
 50 45  1  0  0  0  0
 51 53  1  0  0  0  0
 52 53  1  0  0  0  0
 52 55  1  0  0  0  0
 53 56  1  0  0  0  0
 54 55  1  0  0  0  0
 55 58  1  0  0  0  0
 56 50  1  0  0  0  0
 56 57  1  0  0  0  0
 58 57  1  0  0  0  0
M  END
>  <MODEL>
2

>  <REMARK>
 VINA RESULT:      -1.3      2.647      6.439
  Name = 
  15 active torsions:
  status: ('A' for Active; 'I' for Inactive)
    1  A    between atoms: C_4  and  C_22
    2  A    between atoms: C_4  and  C_40
    3  A    between atoms: C_6  and  C_25
    4  A    between atoms: C_6  and  C_38
    5  A    between atoms: C_7  and  C_58
    6  A    between atoms: C_9  and  C_17
    7  A    between atoms: C_12  and  C_49
    8  A    between atoms: C_16  and  C_17
    9  A    between atoms: C_16  and  C_30
   10  A    between atoms: C_23  and  C_33
   11  A    between atoms: N_29  and  C_35
   12  A    between atoms: C_30  and  C_32
   13  A    between atoms: C_31  and  C_38
   14  A    between atoms: C_32  and  C_48
   15  A    between atoms: C_38  and  C_49
                            x       y       z     vdW  Elec       q    Type
                         _______ _______ _______ _____ _____    ______ ____

>  <TORSDO>
F 15

$$$$
=
 OpenBabel11072415173D

 58 65  0  0  1  0  0  0  0  0999 V2000
  160.3130  212.2720  151.8320 C   0  0  2  0  0  3  0  0  0  0  0  0
  156.9500  213.4710  153.2280 O   0  0  0  0  0  0  0  0  0  0  0  0
  159.2290  210.6070  156.3330 C   0  0  2  0  0  3  0  0  0  0  0  0
  160.4070  211.5470  154.2240 C   0  0  0  0  0  2  0  0  0  0  0  0
  159.6190  212.4040  153.1930 C   0  0  1  0  0  3  0  0  0  0  0  0
  157.0800  212.2080  155.2290 C   0  0  2  0  0  0  0  0  0  0  0  0
  160.0500  211.7540  155.7160 C   0  0  1  0  0  3  0  0  0  0  0  0
  158.2360  211.0350  157.2600 O   0  0  0  0  0  0  0  0  0  0  0  0
  157.9510  214.4480  153.4170 C   0  0  0  0  0  2  0  0  0  0  0  0
  157.2460  211.9580  156.7670 C   0  0  1  0  0  3  0  0  0  0  0  0
  159.4450  213.1140  156.0080 C   0  0  1  0  0  3  0  0  0  0  0  0
  159.3890  213.8830  153.6110 C   0  0  1  0  0  3  0  0  0  0  0  0
  159.8970  214.1860  155.0200 C   0  0  0  0  0  2  0  0  0  0  0  0
  157.9280  213.1300  156.1410 C   0  0  1  0  0  3  0  0  0  0  0  0
  156.3050  213.2710  154.4680 C   0  0  2  0  0  3  0  0  0  0  0  0
  154.8840  212.8590  154.2550 C   0  0  0  0  0  3  0  0  0  0  0  0
  154.1370  213.5600  153.5920 O   0  0  0  0  0  0  0  0  0  0  0  0
  157.3990  210.9600  154.3860 C   0  0  0  0  0  2  0  0  0  0  0  0
  156.1390  210.1690  154.0850 C   0  0  0  0  0  1  0  0  0  0  0  0
  160.1520  209.6040  157.0050 C   0  0  0  0  0  2  0  0  0  0  0  0
  159.4420  207.3500  156.6730 O   0  0  0  0  0  1  0  0  0  0  0  0
  160.2750  208.3470  156.1620 C   0  0  1  0  0  3  0  0  0  0  0  0
  159.8800  208.6660  154.7290 C   0  0  0  0  0  2  0  0  0  0  0  0
  160.3120  207.5580  153.7810 C   0  0  0  0  0  2  0  0  0  0  0  0
  161.3250  205.4480  154.2520 O   0  0  0  0  0  1  0  0  0  0  0  0
  161.5370  206.8250  154.3040 C   0  0  0  0  0  2  0  0  0  0  0  0
  160.3580  213.5740  151.0270 C   0  0  0  0  0  2  0  0  0  0  0  0
  158.6430  213.5700  149.3270 N   0  0  0  0  0  0  0  0  0  0  0  0
  158.6500  213.1170  145.6910 N   0  0  0  0  0  2  0  0  0  0  0  0
  158.0310  213.3090  148.0200 C   0  0  0  0  0  2  0  0  0  0  0  0
  162.0100  212.5480  148.8900 O   0  0  0  0  0  0  0  0  0  0  0  0
  159.8890  213.3420  149.6270 C   0  0  0  0  0  0  0  0  0  0  0  0
  159.0430  213.1560  146.9200 C   0  0  0  0  0  0  0  0  0  0  0  0
  160.8270  212.8680  148.5930 C   0  0  0  0  0  0  0  0  0  0  0  0
  160.3920  212.8130  147.2380 N   0  0  0  0  0  2  0  0  0  0  0  0
  159.9430  211.0240  151.0180 C   0  0  0  0  0  2  0  0  0  0  0  0
  163.0100  208.9220  151.8310 C   0  0  0  0  0  3  0  0  0  0  0  0
  160.8020  208.8570  150.1240 C   0  0  0  0  0  3  0  0  0  0  0  0
  160.9800  209.9430  150.9850 C   0  0  0  0  0  0  0  0  0  0  0  0
  162.0780  209.9610  151.8540 C   0  0  0  0  0  3  0  0  0  0  0  0
  161.7320  207.8050  150.0870 C   0  0  0  0  0  0  0  0  0  0  0  0
  162.8400  207.8520  150.9490 C   0  0  0  0  0  3  0  0  0  0  0  0
  162.4270  206.1210  146.9600 C   0  0  1  0  0  3  0  0  0  0  0  0
  162.1350  206.2290  145.4790 C   0  0  0  0  0  1  0  0  0  0  0  0
  161.5700  204.2720  148.5670 C   0  0  1  0  0  3  0  0  0  0  0  0
  161.5600  206.7050  149.1730 N   0  0  0  0  0  0  0  0  0  0  0  0
  161.4190  206.9570  147.7410 C   0  0  0  0  0  2  0  0  0  0  0  0
  162.4600  204.6420  147.3710 C   0  0  0  0  0  2  0  0  0  0  0  0
  161.5280  205.3290  149.6790 C   0  0  0  0  0  2  0  0  0  0  0  0
  160.2010  203.7190  148.1710 C   0  0  0  0  0  2  0  0  0  0  0  0
  159.8800  202.7450  145.3460 C   0  0  0  0  0  1  0  0  0  0  0  0
  160.8390  200.6270  146.0350 N   0  0  0  0  0  2  0  0  0  0  0  0
  160.7760  202.0520  146.3630 C   0  0  2  0  0  3  0  0  0  0  0  0
  161.9470  198.6550  146.5530 F   0  0  0  0  0  0  0  0  0  0  0  0
  161.7890  199.9760  146.9330 C   0  0  2  0  0  3  0  0  0  0  0  0
  160.2300  202.2430  147.7870 C   0  0  1  0  0  3  0  0  0  0  0  0
  161.1040  201.4870  148.7860 C   0  0  0  0  0  2  0  0  0  0  0  0
  161.2650  200.0310  148.3650 C   0  0  0  0  0  2  0  0  0  0  0  0
  1 36  1  6  0  0  0
  2  9  1  0  0  0  0
  2 15  1  0  0  0  0
  3 20  1  1  0  0  0
  3  8  1  0  0  0  0
  5  1  1  6  0  0  0
  5 12  1  0  0  0  0
  5  4  1  0  0  0  0
  6 18  1  6  0  0  0
  6 14  1  0  0  0  0
  6 10  1  0  0  0  0
  7  4  1  6  0  0  0
  7 11  1  0  0  0  0
  7  3  1  0  0  0  0
 10  8  1  6  0  0  0
 11 13  1  6  0  0  0
 11 14  1  0  0  0  0
 12  9  1  1  0  0  0
 12 13  1  0  0  0  0
 14 10  1  0  0  0  0
 15  6  1  0  0  0  0
 16 15  1  0  0  0  0
 17 16  2  0  0  0  0
 19 18  1  0  0  0  0
 22 21  1  0  0  0  0
 22 20  1  0  0  0  0
 23 22  1  0  0  0  0
 24 26  1  0  0  0  0
 24 23  1  0  0  0  0
 25 26  1  0  0  0  0
 27  1  1  0  0  0  0
 28 32  2  0  0  0  0
 29 33  2  0  0  0  0
 30 28  1  0  0  0  0
 32 27  1  0  0  0  0
 33 35  1  0  0  0  0
 33 30  1  0  0  0  0
 34 31  2  0  0  0  0
 34 32  1  0  0  0  0
 35 34  1  0  0  0  0
 37 40  1  0  0  0  0
 38 39  1  0  0  0  0
 39 36  1  0  0  0  0
 39 40  2  0  0  0  0
 41 38  2  0  0  0  0
 41 42  1  0  0  0  0
 42 37  2  0  0  0  0
 43 48  1  0  0  0  0
 43 47  1  0  0  0  0
 44 43  1  0  0  0  0
 45 49  1  0  0  0  0
 46 49  1  0  0  0  0
 46 41  1  0  0  0  0
 47 46  1  0  0  0  0
 48 45  1  0  0  0  0
 50 45  1  0  0  0  0
 51 53  1  0  0  0  0
 52 53  1  0  0  0  0
 52 55  1  0  0  0  0
 53 56  1  0  0  0  0
 54 55  1  0  0  0  0
 55 58  1  0  0  0  0
 56 50  1  0  0  0  0
 56 57  1  0  0  0  0
 58 57  1  0  0  0  0
M  END
>  <MODEL>
3

>  <REMARK>
 VINA RESULT:      -0.3      2.061      2.833
  Name = 
  15 active torsions:
  status: ('A' for Active; 'I' for Inactive)
    1  A    between atoms: C_4  and  C_22
    2  A    between atoms: C_4  and  C_40
    3  A    between atoms: C_6  and  C_25
    4  A    between atoms: C_6  and  C_38
    5  A    between atoms: C_7  and  C_58
    6  A    between atoms: C_9  and  C_17
    7  A    between atoms: C_12  and  C_49
    8  A    between atoms: C_16  and  C_17
    9  A    between atoms: C_16  and  C_30
   10  A    between atoms: C_23  and  C_33
   11  A    between atoms: N_29  and  C_35
   12  A    between atoms: C_30  and  C_32
   13  A    between atoms: C_31  and  C_38
   14  A    between atoms: C_32  and  C_48
   15  A    between atoms: C_38  and  C_49
                            x       y       z     vdW  Elec       q    Type
                         _______ _______ _______ _____ _____    ______ ____

>  <TORSDO>
F 15

$$$$
