=
 OpenBabel11072413473D

 29 30  0  0  1  0  0  0  0  0999 V2000
  161.7200  205.9300  152.9420 C   0  0  2  0  0  3  0  0  0  0  0  0
  160.7630  208.2160  152.8050 C   0  0  0  0  0  0  0  0  0  0  0  0
  161.7440  204.3980  152.0250 Cl  0  0  0  0  0  0  0  0  0  0  0  0
  160.7180  208.2060  154.3040 C   0  0  0  0  0  0  0  0  0  0  0  0
  160.7920  207.0320  154.9480 C   0  0  0  0  0  3  0  0  0  0  0  0
  160.8510  205.7450  154.1850 C   0  0  0  0  0  2  0  0  0  0  0  0
  161.2510  207.1430  152.1440 C   0  0  0  0  0  0  0  0  0  0  0  0
  159.5520  210.1020  155.4500 C   0  0  0  0  0  3  0  0  0  0  0  0
  160.7480  209.4550  155.0980 C   0  0  0  0  0  0  0  0  0  0  0  0
  160.8270  213.0120  157.2590 F   0  0  0  0  0  0  0  0  0  0  0  0
  160.8010  211.8560  156.5550 C   0  0  0  0  0  0  0  0  0  0  0  0
  161.9980  211.2290  156.1970 C   0  0  0  0  0  3  0  0  0  0  0  0
  159.5790  211.2940  156.1780 C   0  0  0  0  0  3  0  0  0  0  0  0
  161.9720  210.0360  155.4690 C   0  0  0  0  0  3  0  0  0  0  0  0
  161.3170  207.1960  150.6390 C   0  0  2  0  0  3  0  0  0  0  0  0
  160.6190  206.0020  150.0050 C   0  0  0  0  0  2  0  0  0  0  0  0
  160.4290  206.2200  148.5110 C   0  0  0  0  0  2  0  0  0  0  0  0
  161.2400  203.8700  148.6530 C   0  0  0  0  0  1  0  0  0  0  0  0
  160.9430  205.0280  147.7160 C   0  0  2  0  0  3  0  0  0  0  0  0
  162.2030  205.4320  146.9670 C   0  0  0  0  0  2  0  0  0  0  0  0
  163.4560  204.3360  145.2930 O   0  0  0  0  0  0  0  0  0  0  0  0
  162.3510  204.6520  145.7000 C   0  0  0  0  0  0  0  0  0  0  0  0
  161.1400  204.2850  144.9140 C   0  0  0  0  0  1  0  0  0  0  0  0
  162.7350  207.3670  150.1120 C   0  0  0  0  0  2  0  0  0  0  0  0
  162.0680  209.1860  149.0570 C   0  0  0  0  0  1  0  0  0  0  0  0
  162.7070  207.9640  148.8520 O   0  0  0  0  0  0  0  0  0  0  0  0
  160.2840  209.3030  152.0590 O   0  0  0  0  0  0  0  0  0  0  0  0
  159.9110  211.6660  152.1690 C   0  0  0  0  0  1  0  0  0  0  0  0
  160.9370  210.5640  152.0220 C   0  0  0  0  0  2  0  0  0  0  0  0
  1  3  1  6  0  0  0
  1  6  1  0  0  0  0
  2  4  1  0  0  0  0
  4  5  2  0  0  0  0
  4  9  1  0  0  0  0
  6  5  1  0  0  0  0
  7  2  2  0  0  0  0
  7  1  1  0  0  0  0
  8 13  1  0  0  0  0
  9  8  2  0  0  0  0
  9 14  1  0  0  0  0
 11 10  1  0  0  0  0
 12 11  1  0  0  0  0
 13 11  2  0  0  0  0
 14 12  2  0  0  0  0
 15 16  1  6  0  0  0
 15  7  1  0  0  0  0
 17 16  1  0  0  0  0
 19 17  1  0  0  0  0
 19 18  1  1  0  0  0
 20 19  1  0  0  0  0
 21 22  2  0  0  0  0
 22 20  1  0  0  0  0
 23 22  1  0  0  0  0
 24 15  1  0  0  0  0
 26 25  1  0  0  0  0
 26 24  1  0  0  0  0
 27  2  1  0  0  0  0
 29 27  1  0  0  0  0
 29 28  1  0  0  0  0
M  END
>  <MODEL>
1

>  <REMARK>
 VINA RESULT:      -6.9      0.000      0.000
  Name = 
  11 active torsions:
  status: ('A' for Active; 'I' for Inactive)
    1  A    between atoms: C_1  and  C_4
    2  A    between atoms: C_1  and  C_14
    3  A    between atoms: C_1  and  C_22
    4  A    between atoms: C_4  and  C_21
    5  A    between atoms: C_6  and  C_24
    6  A    between atoms: O_7  and  C_11
    7  A    between atoms: O_7  and  C_28
    8  A    between atoms: C_10  and  C_16
    9  A    between atoms: C_14  and  O_25
   10  A    between atoms: C_21  and  C_26
   11  A    between atoms: C_24  and  C_26
                            x       y       z     vdW  Elec       q    Type
                         _______ _______ _______ _____ _____    ______ ____

>  <TORSDO>
F 11

$$$$
=
 OpenBabel11072413473D

 29 30  0  0  1  0  0  0  0  0999 V2000
  160.5650  204.6170  151.5370 C   0  0  2  0  0  3  0  0  0  0  0  0
  161.8130  205.9680  149.8700 C   0  0  0  0  0  0  0  0  0  0  0  0
  160.5610  204.2660  153.2880 Cl  0  0  0  0  0  0  0  0  0  0  0  0
  161.5050  204.8880  148.8760 C   0  0  0  0  0  0  0  0  0  0  0  0
  161.1330  203.6800  149.3240 C   0  0  0  0  0  3  0  0  0  0  0  0
  161.0890  203.3900  150.7920 C   0  0  0  0  0  2  0  0  0  0  0  0
  161.3590  205.8570  151.1380 C   0  0  0  0  0  0  0  0  0  0  0  0
  162.4520  204.6600  146.5710 C   0  0  0  0  0  3  0  0  0  0  0  0
  161.4500  205.1540  147.4210 C   0  0  0  0  0  0  0  0  0  0  0  0
  161.3470  205.9670  143.3390 F   0  0  0  0  0  0  0  0  0  0  0  0
  161.3820  205.7040  144.6670 C   0  0  0  0  0  0  0  0  0  0  0  0
  160.3860  206.2130  145.5060 C   0  0  0  0  0  3  0  0  0  0  0  0
  162.4160  204.9300  145.2000 C   0  0  0  0  0  3  0  0  0  0  0  0
  160.4220  205.9420  146.8770 C   0  0  0  0  0  3  0  0  0  0  0  0
  161.6550  206.9760  152.1060 C   0  0  2  0  0  3  0  0  0  0  0  0
  161.6070  206.4950  153.5480 C   0  0  0  0  0  2  0  0  0  0  0  0
  160.4690  207.1690  154.3020 C   0  0  0  0  0  2  0  0  0  0  0  0
  160.1620  207.0350  156.7700 C   0  0  0  0  0  1  0  0  0  0  0  0
  160.9440  207.6980  155.6480 C   0  0  2  0  0  3  0  0  0  0  0  0
  160.7470  209.2040  155.6920 C   0  0  0  0  0  2  0  0  0  0  0  0
  162.5060  210.6910  155.1720 O   0  0  0  0  0  0  0  0  0  0  0  0
  162.0350  209.9080  155.9800 C   0  0  0  0  0  0  0  0  0  0  0  0
  162.7620  209.6270  157.2490 C   0  0  0  0  0  1  0  0  0  0  0  0
  160.7740  208.1980  151.8870 C   0  0  0  0  0  2  0  0  0  0  0  0
  160.5980  210.3690  152.2400 C   0  0  0  0  0  1  0  0  0  0  0  0
  161.5340  209.3610  152.0080 O   0  0  0  0  0  0  0  0  0  0  0  0
  162.5880  207.0860  149.5290 O   0  0  0  0  0  0  0  0  0  0  0  0
  162.0070  209.2740  148.7480 C   0  0  0  0  0  1  0  0  0  0  0  0
  162.3620  207.8560  148.3570 C   0  0  0  0  0  2  0  0  0  0  0  0
  1  3  1  1  0  0  0
  2  7  2  0  0  0  0
  4  5  2  0  0  0  0
  4  2  1  0  0  0  0
  5  6  1  0  0  0  0
  6  1  1  0  0  0  0
  7  1  1  0  0  0  0
  7 15  1  0  0  0  0
  8  9  1  0  0  0  0
  9  4  1  0  0  0  0
 10 11  1  0  0  0  0
 11 13  1  0  0  0  0
 11 12  2  0  0  0  0
 12 14  1  0  0  0  0
 13  8  2  0  0  0  0
 14  9  2  0  0  0  0
 15 24  1  1  0  0  0
 15 16  1  0  0  0  0
 16 17  1  0  0  0  0
 17 19  1  0  0  0  0
 19 20  1  0  0  0  0
 19 18  1  1  0  0  0
 20 22  1  0  0  0  0
 21 22  2  0  0  0  0
 22 23  1  0  0  0  0
 24 26  1  0  0  0  0
 26 25  1  0  0  0  0
 27  2  1  0  0  0  0
 29 28  1  0  0  0  0
 29 27  1  0  0  0  0
M  END
>  <MODEL>
2

>  <REMARK>
 VINA RESULT:      -6.8      3.284      8.285
  Name = 
  11 active torsions:
  status: ('A' for Active; 'I' for Inactive)
    1  A    between atoms: C_1  and  C_4
    2  A    between atoms: C_1  and  C_14
    3  A    between atoms: C_1  and  C_22
    4  A    between atoms: C_4  and  C_21
    5  A    between atoms: C_6  and  C_24
    6  A    between atoms: O_7  and  C_11
    7  A    between atoms: O_7  and  C_28
    8  A    between atoms: C_10  and  C_16
    9  A    between atoms: C_14  and  O_25
   10  A    between atoms: C_21  and  C_26
   11  A    between atoms: C_24  and  C_26
                            x       y       z     vdW  Elec       q    Type
                         _______ _______ _______ _____ _____    ______ ____

>  <TORSDO>
F 11

$$$$
=
 OpenBabel11072413473D

 29 30  0  0  1  0  0  0  0  0999 V2000
  160.4900  207.2770  154.5810 C   0  0  2  0  0  3  0  0  0  0  0  0
  160.9940  208.1340  152.3070 C   0  0  0  0  0  0  0  0  0  0  0  0
  160.5980  207.7820  156.2900 Cl  0  0  0  0  0  0  0  0  0  0  0  0
  161.2700  206.7140  151.9140 C   0  0  0  0  0  0  0  0  0  0  0  0
  161.5050  205.8080  152.8740 C   0  0  0  0  0  3  0  0  0  0  0  0
  161.5580  206.2170  154.3140 C   0  0  0  0  0  2  0  0  0  0  0  0
  160.6090  208.4140  153.5710 C   0  0  0  0  0  0  0  0  0  0  0  0
  161.1750  204.8760  150.2170 C   0  0  0  0  0  3  0  0  0  0  0  0
  161.1410  206.2480  150.5140 C   0  0  0  0  0  0  0  0  0  0  0  0
  160.8620  204.9340  146.5740 F   0  0  0  0  0  0  0  0  0  0  0  0
  160.9540  205.3610  147.8560 C   0  0  0  0  0  0  0  0  0  0  0  0
  160.9340  206.7300  148.1390 C   0  0  0  0  0  3  0  0  0  0  0  0
  161.0780  204.4350  148.8940 C   0  0  0  0  0  3  0  0  0  0  0  0
  161.0300  207.1720  149.4620 C   0  0  0  0  0  3  0  0  0  0  0  0
  160.3050  209.8480  153.9270 C   0  0  2  0  0  3  0  0  0  0  0  0
  159.4810  210.5310  152.8460 C   0  0  0  0  0  2  0  0  0  0  0  0
  159.6230  212.0440  152.9360 C   0  0  0  0  0  2  0  0  0  0  0  0
  158.0630  213.9820  152.8260 C   0  0  0  0  0  1  0  0  0  0  0  0
  158.3740  212.6740  153.5350 C   0  0  2  0  0  3  0  0  0  0  0  0
  158.6000  212.9230  155.0170 C   0  0  0  0  0  2  0  0  0  0  0  0
  158.2830  211.6280  156.9660 O   0  0  0  0  0  0  0  0  0  0  0  0
  157.8800  211.9120  155.8500 C   0  0  0  0  0  0  0  0  0  0  0  0
  156.6790  211.2230  155.3000 C   0  0  0  0  0  1  0  0  0  0  0  0
  161.5510  210.6490  154.2790 C   0  0  0  0  0  2  0  0  0  0  0  0
  162.8360  210.6770  156.0720 C   0  0  0  0  0  1  0  0  0  0  0  0
  161.5450  210.9700  155.6370 O   0  0  0  0  0  0  0  0  0  0  0  0
  161.1540  209.1950  151.4030 O   0  0  0  0  0  0  0  0  0  0  0  0
  162.2530  210.6920  149.8900 C   0  0  0  0  0  1  0  0  0  0  0  0
  162.4240  209.7070  151.0270 C   0  0  0  0  0  2  0  0  0  0  0  0
  1  3  1  1  0  0  0
  2  7  2  0  0  0  0
  4  2  1  0  0  0  0
  4  5  2  0  0  0  0
  5  6  1  0  0  0  0
  6  1  1  0  0  0  0
  7 15  1  0  0  0  0
  7  1  1  0  0  0  0
  8  9  1  0  0  0  0
  9  4  1  0  0  0  0
 10 11  1  0  0  0  0
 11 12  2  0  0  0  0
 11 13  1  0  0  0  0
 12 14  1  0  0  0  0
 13  8  2  0  0  0  0
 14  9  2  0  0  0  0
 15 16  1  6  0  0  0
 15 24  1  0  0  0  0
 16 17  1  0  0  0  0
 17 19  1  0  0  0  0
 19 18  1  6  0  0  0
 19 20  1  0  0  0  0
 20 22  1  0  0  0  0
 22 21  2  0  0  0  0
 23 22  1  0  0  0  0
 24 26  1  0  0  0  0
 26 25  1  0  0  0  0
 27  2  1  0  0  0  0
 28 29  1  0  0  0  0
 29 27  1  0  0  0  0
M  END
>  <MODEL>
3

>  <REMARK>
 VINA RESULT:      -6.5      3.418      8.019
  Name = 
  11 active torsions:
  status: ('A' for Active; 'I' for Inactive)
    1  A    between atoms: C_1  and  C_4
    2  A    between atoms: C_1  and  C_14
    3  A    between atoms: C_1  and  C_22
    4  A    between atoms: C_4  and  C_21
    5  A    between atoms: C_6  and  C_24
    6  A    between atoms: O_7  and  C_11
    7  A    between atoms: O_7  and  C_28
    8  A    between atoms: C_10  and  C_16
    9  A    between atoms: C_14  and  O_25
   10  A    between atoms: C_21  and  C_26
   11  A    between atoms: C_24  and  C_26
                            x       y       z     vdW  Elec       q    Type
                         _______ _______ _______ _____ _____    ______ ____

>  <TORSDO>
F 11

$$$$
=
 OpenBabel11072413473D

 29 30  0  0  1  0  0  0  0  0999 V2000
  160.4590  207.2920  154.6010 C   0  0  2  0  0  3  0  0  0  0  0  0
  160.9820  208.1180  152.3200 C   0  0  0  0  0  0  0  0  0  0  0  0
  160.5630  207.8170  156.3050 Cl  0  0  0  0  0  0  0  0  0  0  0  0
  161.2480  206.6910  151.9450 C   0  0  0  0  0  0  0  0  0  0  0  0
  161.4710  205.7950  152.9170 C   0  0  0  0  0  3  0  0  0  0  0  0
  161.5200  206.2210  154.3520 C   0  0  0  0  0  2  0  0  0  0  0  0
  160.5930  208.4170  153.5790 C   0  0  0  0  0  0  0  0  0  0  0  0
  161.1820  204.8360  150.2650 C   0  0  0  0  0  3  0  0  0  0  0  0
  161.1230  206.2100  150.5500 C   0  0  0  0  0  0  0  0  0  0  0  0
  160.8520  204.8530  146.6240 F   0  0  0  0  0  0  0  0  0  0  0  0
  160.9420  205.2950  147.9010 C   0  0  0  0  0  0  0  0  0  0  0  0
  160.8960  206.6650  148.1710 C   0  0  0  0  0  3  0  0  0  0  0  0
  161.0880  204.3810  148.9470 C   0  0  0  0  0  3  0  0  0  0  0  0
  160.9890  207.1210  149.4900 C   0  0  0  0  0  3  0  0  0  0  0  0
  160.2990  209.8570  153.9160 C   0  0  2  0  0  3  0  0  0  0  0  0
  159.4880  210.5340  152.8210 C   0  0  0  0  0  2  0  0  0  0  0  0
  158.4490  211.4700  153.4220 C   0  0  0  0  0  2  0  0  0  0  0  0
  158.8780  213.5660  154.6960 C   0  0  0  0  0  1  0  0  0  0  0  0
  158.8980  212.9210  153.3210 C   0  0  2  0  0  3  0  0  0  0  0  0
  157.9680  213.6680  152.3780 C   0  0  0  0  0  2  0  0  0  0  0  0
  157.5670  213.2630  150.0870 O   0  0  0  0  0  0  0  0  0  0  0  0
  158.3920  213.4970  150.9550 C   0  0  0  0  0  0  0  0  0  0  0  0
  159.8360  213.5820  150.5990 C   0  0  0  0  0  1  0  0  0  0  0  0
  161.5500  210.6520  154.2680 C   0  0  0  0  0  2  0  0  0  0  0  0
  162.7500  210.7250  156.1170 C   0  0  0  0  0  1  0  0  0  0  0  0
  161.4980  211.0560  155.6010 O   0  0  0  0  0  0  0  0  0  0  0  0
  161.1550  209.1660  151.4040 O   0  0  0  0  0  0  0  0  0  0  0  0
  162.2730  210.6130  149.8560 C   0  0  0  0  0  1  0  0  0  0  0  0
  162.4310  209.6520  151.0150 C   0  0  0  0  0  2  0  0  0  0  0  0
  1  3  1  1  0  0  0
  2  7  2  0  0  0  0
  4  2  1  0  0  0  0
  4  5  2  0  0  0  0
  5  6  1  0  0  0  0
  6  1  1  0  0  0  0
  7 15  1  0  0  0  0
  7  1  1  0  0  0  0
  8  9  1  0  0  0  0
  9  4  1  0  0  0  0
 10 11  1  0  0  0  0
 11 12  2  0  0  0  0
 11 13  1  0  0  0  0
 12 14  1  0  0  0  0
 13  8  2  0  0  0  0
 14  9  2  0  0  0  0
 15 16  1  6  0  0  0
 15 24  1  0  0  0  0
 16 17  1  0  0  0  0
 19 17  1  0  0  0  0
 19 18  1  1  0  0  0
 20 19  1  0  0  0  0
 21 22  2  0  0  0  0
 22 20  1  0  0  0  0
 23 22  1  0  0  0  0
 24 26  1  0  0  0  0
 26 25  1  0  0  0  0
 27  2  1  0  0  0  0
 28 29  1  0  0  0  0
 29 27  1  0  0  0  0
M  END
>  <MODEL>
4

>  <REMARK>
 VINA RESULT:      -6.4      3.444      7.579
  Name = 
  11 active torsions:
  status: ('A' for Active; 'I' for Inactive)
    1  A    between atoms: C_1  and  C_4
    2  A    between atoms: C_1  and  C_14
    3  A    between atoms: C_1  and  C_22
    4  A    between atoms: C_4  and  C_21
    5  A    between atoms: C_6  and  C_24
    6  A    between atoms: O_7  and  C_11
    7  A    between atoms: O_7  and  C_28
    8  A    between atoms: C_10  and  C_16
    9  A    between atoms: C_14  and  O_25
   10  A    between atoms: C_21  and  C_26
   11  A    between atoms: C_24  and  C_26
                            x       y       z     vdW  Elec       q    Type
                         _______ _______ _______ _____ _____    ______ ____

>  <TORSDO>
F 11

$$$$
=
 OpenBabel11072413473D

 29 30  0  0  1  0  0  0  0  0999 V2000
  162.3290  208.6820  150.8030 C   0  0  2  0  0  3  0  0  0  0  0  0
  161.1030  206.8140  149.7230 C   0  0  0  0  0  0  0  0  0  0  0  0
  162.3190  209.6350  152.3130 Cl  0  0  0  0  0  0  0  0  0  0  0  0
  161.4120  207.4700  148.4100 C   0  0  0  0  0  0  0  0  0  0  0  0
  161.7740  208.7610  148.3980 C   0  0  0  0  0  3  0  0  0  0  0  0
  161.8050  209.5570  149.6660 C   0  0  0  0  0  2  0  0  0  0  0  0
  161.5460  207.3750  150.8700 C   0  0  0  0  0  0  0  0  0  0  0  0
  160.3700  206.6500  146.2870 C   0  0  0  0  0  3  0  0  0  0  0  0
  161.4790  206.7020  147.1460 C   0  0  0  0  0  0  0  0  0  0  0  0
  161.6330  204.4770  143.6310 F   0  0  0  0  0  0  0  0  0  0  0  0
  161.5820  205.1990  144.7760 C   0  0  0  0  0  0  0  0  0  0  0  0
  162.6880  205.2320  145.6300 C   0  0  0  0  0  3  0  0  0  0  0  0
  160.4230  205.9050  145.1050 C   0  0  0  0  0  3  0  0  0  0  0  0
  162.6360  205.9770  146.8120 C   0  0  0  0  0  3  0  0  0  0  0  0
  161.2490  206.6730  152.1720 C   0  0  2  0  0  3  0  0  0  0  0  0
  160.7830  207.6510  153.2410 C   0  0  0  0  0  2  0  0  0  0  0  0
  160.9180  207.0370  154.6270 C   0  0  0  0  0  2  0  0  0  0  0  0
  160.1860  207.6220  156.9350 C   0  0  0  0  0  1  0  0  0  0  0  0
  160.9270  208.1140  155.7020 C   0  0  2  0  0  3  0  0  0  0  0  0
  160.2630  209.3690  155.1600 C   0  0  0  0  0  2  0  0  0  0  0  0
  160.6040  211.7000  155.3150 O   0  0  0  0  0  0  0  0  0  0  0  0
  161.0750  210.5860  155.4700 C   0  0  0  0  0  0  0  0  0  0  0  0
  162.4800  210.4350  155.9430 C   0  0  0  0  0  1  0  0  0  0  0  0
  162.4060  205.8120  152.6590 C   0  0  0  0  0  2  0  0  0  0  0  0
  161.0710  204.0630  152.8160 C   0  0  0  0  0  1  0  0  0  0  0  0
  162.2470  204.5010  152.2100 O   0  0  0  0  0  0  0  0  0  0  0  0
  160.3360  205.6420  149.8000 O   0  0  0  0  0  0  0  0  0  0  0  0
  160.1030  203.2600  149.9050 C   0  0  0  0  0  1  0  0  0  0  0  0
  160.7100  204.4300  149.1600 C   0  0  0  0  0  2  0  0  0  0  0  0
  1  7  1  0  0  0  0
  1  3  1  1  0  0  0
  2 27  1  0  0  0  0
  2  7  2  0  0  0  0
  4  2  1  0  0  0  0
  5  4  2  0  0  0  0
  5  6  1  0  0  0  0
  6  1  1  0  0  0  0
  7 15  1  0  0  0  0
  8  9  1  0  0  0  0
  9  4  1  0  0  0  0
 10 11  1  0  0  0  0
 11 13  1  0  0  0  0
 11 12  2  0  0  0  0
 12 14  1  0  0  0  0
 13  8  2  0  0  0  0
 14  9  2  0  0  0  0
 15 24  1  1  0  0  0
 15 16  1  0  0  0  0
 16 17  1  0  0  0  0
 17 19  1  0  0  0  0
 19 18  1  1  0  0  0
 20 22  1  0  0  0  0
 20 19  1  0  0  0  0
 21 22  2  0  0  0  0
 22 23  1  0  0  0  0
 26 24  1  0  0  0  0
 26 25  1  0  0  0  0
 29 27  1  0  0  0  0
 29 28  1  0  0  0  0
M  END
>  <MODEL>
5

>  <REMARK>
 VINA RESULT:      -6.3      3.680      8.597
  Name = 
  11 active torsions:
  status: ('A' for Active; 'I' for Inactive)
    1  A    between atoms: C_1  and  C_4
    2  A    between atoms: C_1  and  C_14
    3  A    between atoms: C_1  and  C_22
    4  A    between atoms: C_4  and  C_21
    5  A    between atoms: C_6  and  C_24
    6  A    between atoms: O_7  and  C_11
    7  A    between atoms: O_7  and  C_28
    8  A    between atoms: C_10  and  C_16
    9  A    between atoms: C_14  and  O_25
   10  A    between atoms: C_21  and  C_26
   11  A    between atoms: C_24  and  C_26
                            x       y       z     vdW  Elec       q    Type
                         _______ _______ _______ _____ _____    ______ ____

>  <TORSDO>
F 11

$$$$
=
 OpenBabel11072413473D

 29 30  0  0  1  0  0  0  0  0999 V2000
  161.7890  208.7790  149.6070 C   0  0  2  0  0  3  0  0  0  0  0  0
  160.9290  208.2180  151.8660 C   0  0  0  0  0  0  0  0  0  0  0  0
  162.6860  208.0290  148.2570 Cl  0  0  0  0  0  0  0  0  0  0  0  0
  161.1610  209.6550  152.2290 C   0  0  0  0  0  0  0  0  0  0  0  0
  161.9800  210.3930  151.4660 C   0  0  0  0  0  3  0  0  0  0  0  0
  162.7050  209.7800  150.3090 C   0  0  0  0  0  2  0  0  0  0  0  0
  161.2120  207.7910  150.6160 C   0  0  0  0  0  0  0  0  0  0  0  0
  159.1020  210.8040  153.0690 C   0  0  0  0  0  3  0  0  0  0  0  0
  160.4000  210.3240  153.3080 C   0  0  0  0  0  0  0  0  0  0  0  0
  158.2840  212.2790  156.3130 F   0  0  0  0  0  0  0  0  0  0  0  0
  158.9730  211.6450  155.3350 C   0  0  0  0  0  0  0  0  0  0  0  0
  160.2690  211.1830  155.5800 C   0  0  0  0  0  3  0  0  0  0  0  0
  158.3910  211.4580  154.0790 C   0  0  0  0  0  3  0  0  0  0  0  0
  160.9810  210.5290  154.5710 C   0  0  0  0  0  3  0  0  0  0  0  0
  160.9350  206.3490  150.2710 C   0  0  2  0  0  3  0  0  0  0  0  0
  162.2000  205.5060  150.3380 C   0  0  0  0  0  2  0  0  0  0  0  0
  162.0930  204.4650  151.4440 C   0  0  0  0  0  2  0  0  0  0  0  0
  160.2290  203.1970  152.5020 C   0  0  0  0  0  1  0  0  0  0  0  0
  160.9280  203.5180  151.1920 C   0  0  2  0  0  3  0  0  0  0  0  0
  161.4490  202.2420  150.5510 C   0  0  0  0  0  2  0  0  0  0  0  0
  159.5110  201.3950  149.5020 O   0  0  0  0  0  0  0  0  0  0  0  0
  160.6290  201.8630  149.3600 C   0  0  0  0  0  0  0  0  0  0  0  0
  161.1930  202.0290  147.9910 C   0  0  0  0  0  1  0  0  0  0  0  0
  160.2160  206.1850  148.9380 C   0  0  0  0  0  2  0  0  0  0  0  0
  160.8240  205.7800  146.8570 C   0  0  0  0  0  1  0  0  0  0  0  0
  160.8860  205.2530  148.1470 O   0  0  0  0  0  0  0  0  0  0  0  0
  160.4510  207.2890  152.8020 O   0  0  0  0  0  0  0  0  0  0  0  0
  160.2910  206.9370  155.1660 C   0  0  0  0  0  1  0  0  0  0  0  0
  161.1900  206.8960  153.9490 C   0  0  0  0  0  2  0  0  0  0  0  0
  1  3  1  6  0  0  0
  1  6  1  0  0  0  0
  1  7  1  0  0  0  0
  2  4  1  0  0  0  0
  2 27  1  0  0  0  0
  4  9  1  0  0  0  0
  5  4  2  0  0  0  0
  6  5  1  0  0  0  0
  7  2  2  0  0  0  0
  8  9  2  0  0  0  0
  8 13  1  0  0  0  0
  9 14  1  0  0  0  0
 11 12  1  0  0  0  0
 11 10  1  0  0  0  0
 13 11  2  0  0  0  0
 14 12  2  0  0  0  0
 15 24  1  6  0  0  0
 15 16  1  0  0  0  0
 15  7  1  0  0  0  0
 16 17  1  0  0  0  0
 19 17  1  0  0  0  0
 19 18  1  1  0  0  0
 20 19  1  0  0  0  0
 22 21  2  0  0  0  0
 22 20  1  0  0  0  0
 23 22  1  0  0  0  0
 25 26  1  0  0  0  0
 26 24  1  0  0  0  0
 27 29  1  0  0  0  0
 29 28  1  0  0  0  0
M  END
>  <MODEL>
6

>  <REMARK>
 VINA RESULT:      -6.2      2.314      3.698
  Name = 
  11 active torsions:
  status: ('A' for Active; 'I' for Inactive)
    1  A    between atoms: C_1  and  C_4
    2  A    between atoms: C_1  and  C_14
    3  A    between atoms: C_1  and  C_22
    4  A    between atoms: C_4  and  C_21
    5  A    between atoms: C_6  and  C_24
    6  A    between atoms: O_7  and  C_11
    7  A    between atoms: O_7  and  C_28
    8  A    between atoms: C_10  and  C_16
    9  A    between atoms: C_14  and  O_25
   10  A    between atoms: C_21  and  C_26
   11  A    between atoms: C_24  and  C_26
                            x       y       z     vdW  Elec       q    Type
                         _______ _______ _______ _____ _____    ______ ____

>  <TORSDO>
F 11

$$$$
=
 OpenBabel11072413473D

 29 30  0  0  1  0  0  0  0  0999 V2000
  162.2290  209.2830  150.1950 C   0  0  2  0  0  3  0  0  0  0  0  0
  161.0270  207.5100  151.4480 C   0  0  0  0  0  0  0  0  0  0  0  0
  162.2750  211.0620  150.0450 Cl  0  0  0  0  0  0  0  0  0  0  0  0
  161.2090  206.6380  150.2410 C   0  0  0  0  0  0  0  0  0  0  0  0
  161.5020  207.2110  149.0640 C   0  0  0  0  0  3  0  0  0  0  0  0
  161.5810  208.7020  148.9390 C   0  0  0  0  0  2  0  0  0  0  0  0
  161.5200  208.7670  151.4440 C   0  0  0  0  0  0  0  0  0  0  0  0
  160.8340  204.3750  149.2400 C   0  0  0  0  0  3  0  0  0  0  0  0
  161.2270  205.1610  150.3350 C   0  0  0  0  0  0  0  0  0  0  0  0
  161.1970  201.0080  150.6190 F   0  0  0  0  0  0  0  0  0  0  0  0
  161.2050  202.3590  150.5270 C   0  0  0  0  0  0  0  0  0  0  0  0
  161.5850  203.1320  151.6280 C   0  0  0  0  0  3  0  0  0  0  0  0
  160.8270  202.9800  149.3350 C   0  0  0  0  0  3  0  0  0  0  0  0
  161.5930  204.5260  151.5340 C   0  0  0  0  0  3  0  0  0  0  0  0
  161.3520  209.6070  152.6850 C   0  0  2  0  0  3  0  0  0  0  0  0
  160.5000  210.8380  152.4170 C   0  0  0  0  0  2  0  0  0  0  0  0
  159.1770  210.7510  153.1660 C   0  0  0  0  0  2  0  0  0  0  0  0
  159.1020  212.9860  152.0690 C   0  0  0  0  0  1  0  0  0  0  0  0
  158.3510  212.0130  152.9630 C   0  0  2  0  0  3  0  0  0  0  0  0
  158.0730  212.6520  154.3140 C   0  0  0  0  0  2  0  0  0  0  0  0
  158.0280  211.2610  156.2200 O   0  0  0  0  0  0  0  0  0  0  0  0
  157.4250  211.6800  155.2470 C   0  0  0  0  0  0  0  0  0  0  0  0
  156.0440  211.1970  154.9680 C   0  0  0  0  0  1  0  0  0  0  0  0
  162.6780  209.9700  153.3410 C   0  0  0  0  0  2  0  0  0  0  0  0
  162.0570  209.8340  155.4530 C   0  0  0  0  0  1  0  0  0  0  0  0
  162.4520  210.7470  154.4760 O   0  0  0  0  0  0  0  0  0  0  0  0
  160.3300  207.0650  152.5800 O   0  0  0  0  0  0  0  0  0  0  0  0
  160.1310  206.9660  154.9650 C   0  0  0  0  0  1  0  0  0  0  0  0
  160.9780  206.6150  153.7610 C   0  0  0  0  0  2  0  0  0  0  0  0
  1  3  1  6  0  0  0
  1  7  1  0  0  0  0
  2 27  1  0  0  0  0
  4  9  1  0  0  0  0
  4  2  1  0  0  0  0
  5  4  2  0  0  0  0
  6  5  1  0  0  0  0
  6  1  1  0  0  0  0
  7  2  2  0  0  0  0
  7 15  1  0  0  0  0
  8 13  2  0  0  0  0
  8  9  1  0  0  0  0
  9 14  2  0  0  0  0
 11 10  1  0  0  0  0
 11 12  2  0  0  0  0
 13 11  1  0  0  0  0
 14 12  1  0  0  0  0
 15 16  1  6  0  0  0
 15 24  1  0  0  0  0
 16 17  1  0  0  0  0
 19 18  1  6  0  0  0
 19 17  1  0  0  0  0
 19 20  1  0  0  0  0
 20 22  1  0  0  0  0
 22 21  2  0  0  0  0
 23 22  1  0  0  0  0
 24 26  1  0  0  0  0
 26 25  1  0  0  0  0
 27 29  1  0  0  0  0
 29 28  1  0  0  0  0
M  END
>  <MODEL>
7

>  <REMARK>
 VINA RESULT:      -6.0      3.796      8.138
  Name = 
  11 active torsions:
  status: ('A' for Active; 'I' for Inactive)
    1  A    between atoms: C_1  and  C_4
    2  A    between atoms: C_1  and  C_14
    3  A    between atoms: C_1  and  C_22
    4  A    between atoms: C_4  and  C_21
    5  A    between atoms: C_6  and  C_24
    6  A    between atoms: O_7  and  C_11
    7  A    between atoms: O_7  and  C_28
    8  A    between atoms: C_10  and  C_16
    9  A    between atoms: C_14  and  O_25
   10  A    between atoms: C_21  and  C_26
   11  A    between atoms: C_24  and  C_26
                            x       y       z     vdW  Elec       q    Type
                         _______ _______ _______ _____ _____    ______ ____

>  <TORSDO>
F 11

$$$$
=
 OpenBabel11072413473D

 29 30  0  0  1  0  0  0  0  0999 V2000
  161.7530  208.7090  149.5560 C   0  0  2  0  0  3  0  0  0  0  0  0
  161.0410  208.1990  151.8770 C   0  0  0  0  0  0  0  0  0  0  0  0
  162.7860  208.0380  148.2610 Cl  0  0  0  0  0  0  0  0  0  0  0  0
  160.9620  209.6800  152.0990 C   0  0  0  0  0  0  0  0  0  0  0  0
  161.6020  210.4990  151.2500 C   0  0  0  0  0  3  0  0  0  0  0  0
  162.4380  209.9440  150.1390 C   0  0  0  0  0  2  0  0  0  0  0  0
  161.4040  207.7230  150.6660 C   0  0  0  0  0  0  0  0  0  0  0  0
  158.8630  210.8710  152.7610 C   0  0  0  0  0  3  0  0  0  0  0  0
  160.0790  210.2740  153.1280 C   0  0  0  0  0  0  0  0  0  0  0  0
  157.6290  212.0180  156.0060 F   0  0  0  0  0  0  0  0  0  0  0  0
  158.4270  211.4520  155.0700 C   0  0  0  0  0  0  0  0  0  0  0  0
  159.6420  210.8730  155.4450 C   0  0  0  0  0  3  0  0  0  0  0  0
  158.0390  211.4540  153.7280 C   0  0  0  0  0  3  0  0  0  0  0  0
  160.4660  210.2890  154.4790 C   0  0  0  0  0  3  0  0  0  0  0  0
  161.4410  206.2290  150.4650 C   0  0  2  0  0  3  0  0  0  0  0  0
  160.2500  205.7450  149.6510 C   0  0  0  0  0  2  0  0  0  0  0  0
  160.6390  205.5470  148.1930 C   0  0  0  0  0  2  0  0  0  0  0  0
  162.7270  204.7440  147.0990 C   0  0  0  0  0  1  0  0  0  0  0  0
  161.5910  204.3700  148.0370 C   0  0  2  0  0  3  0  0  0  0  0  0
  160.8270  203.1780  147.4840 C   0  0  0  0  0  2  0  0  0  0  0  0
  160.0810  202.1800  149.4890 O   0  0  0  0  0  0  0  0  0  0  0  0
  160.7630  202.0680  148.4840 C   0  0  0  0  0  0  0  0  0  0  0  0
  161.5610  200.8300  148.2650 C   0  0  0  0  0  1  0  0  0  0  0  0
  161.5860  205.4570  151.7700 C   0  0  0  0  0  2  0  0  0  0  0  0
  161.0630  203.4050  152.3880 C   0  0  0  0  0  1  0  0  0  0  0  0
  161.8690  204.1180  151.5020 O   0  0  0  0  0  0  0  0  0  0  0  0
  160.7750  207.2840  152.9070 O   0  0  0  0  0  0  0  0  0  0  0  0
  160.5380  206.9530  155.2680 C   0  0  0  0  0  1  0  0  0  0  0  0
  161.4900  207.2720  154.1350 C   0  0  0  0  0  2  0  0  0  0  0  0
  1  3  1  6  0  0  0
  1  6  1  0  0  0  0
  1  7  1  0  0  0  0
  2  4  1  0  0  0  0
  2 27  1  0  0  0  0
  4  9  1  0  0  0  0
  5  4  2  0  0  0  0
  6  5  1  0  0  0  0
  7  2  2  0  0  0  0
  8  9  2  0  0  0  0
  8 13  1  0  0  0  0
  9 14  1  0  0  0  0
 11 12  1  0  0  0  0
 11 10  1  0  0  0  0
 13 11  2  0  0  0  0
 14 12  2  0  0  0  0
 15 16  1  1  0  0  0
 15  7  1  0  0  0  0
 15 24  1  0  0  0  0
 17 16  1  0  0  0  0
 19 18  1  6  0  0  0
 19 17  1  0  0  0  0
 20 19  1  0  0  0  0
 20 22  1  0  0  0  0
 22 21  2  0  0  0  0
 23 22  1  0  0  0  0
 26 24  1  0  0  0  0
 26 25  1  0  0  0  0
 27 29  1  0  0  0  0
 29 28  1  0  0  0  0
M  END
>  <MODEL>
8

>  <REMARK>
 VINA RESULT:      -6.0      2.282      3.673
  Name = 
  11 active torsions:
  status: ('A' for Active; 'I' for Inactive)
    1  A    between atoms: C_1  and  C_4
    2  A    between atoms: C_1  and  C_14
    3  A    between atoms: C_1  and  C_22
    4  A    between atoms: C_4  and  C_21
    5  A    between atoms: C_6  and  C_24
    6  A    between atoms: O_7  and  C_11
    7  A    between atoms: O_7  and  C_28
    8  A    between atoms: C_10  and  C_16
    9  A    between atoms: C_14  and  O_25
   10  A    between atoms: C_21  and  C_26
   11  A    between atoms: C_24  and  C_26
                            x       y       z     vdW  Elec       q    Type
                         _______ _______ _______ _____ _____    ______ ____

>  <TORSDO>
F 11

$$$$
=
 OpenBabel11072413473D

 29 30  0  0  1  0  0  0  0  0999 V2000
  162.2540  207.1060  148.6910 C   0  0  2  0  0  3  0  0  0  0  0  0
  160.9970  205.0590  149.3150 C   0  0  0  0  0  0  0  0  0  0  0  0
  162.3370  208.8410  149.1050 Cl  0  0  0  0  0  0  0  0  0  0  0  0
  161.1820  204.6040  147.8980 C   0  0  0  0  0  0  0  0  0  0  0  0
  161.5060  205.5080  146.9630 C   0  0  0  0  0  3  0  0  0  0  0  0
  161.6160  206.9610  147.3100 C   0  0  0  0  0  2  0  0  0  0  0  0
  161.5140  206.2430  149.7090 C   0  0  0  0  0  0  0  0  0  0  0  0
  161.5550  202.1930  148.4580 C   0  0  0  0  0  3  0  0  0  0  0  0
  161.1690  203.1710  147.5270 C   0  0  0  0  0  0  0  0  0  0  0  0
  161.2160  199.1460  146.4650 F   0  0  0  0  0  0  0  0  0  0  0  0
  161.2030  200.4550  146.8100 C   0  0  0  0  0  0  0  0  0  0  0  0
  160.8300  201.4210  145.8710 C   0  0  0  0  0  3  0  0  0  0  0  0
  161.5680  200.8410  148.1020 C   0  0  0  0  0  3  0  0  0  0  0  0
  160.8170  202.7730  146.2260 C   0  0  0  0  0  3  0  0  0  0  0  0
  161.3410  206.6580  151.1490 C   0  0  2  0  0  3  0  0  0  0  0  0
  160.8280  208.0860  151.2630 C   0  0  0  0  0  2  0  0  0  0  0  0
  161.6710  208.8850  152.2460 C   0  0  0  0  0  2  0  0  0  0  0  0
  160.3350  210.9800  152.4080 C   0  0  0  0  0  1  0  0  0  0  0  0
  160.7940  209.7360  153.1520 C   0  0  2  0  0  3  0  0  0  0  0  0
  161.5830  210.1290  154.3900 C   0  0  0  0  0  2  0  0  0  0  0  0
  159.9160  209.0660  155.6800 O   0  0  0  0  0  0  0  0  0  0  0  0
  161.0850  209.4040  155.5990 C   0  0  0  0  0  0  0  0  0  0  0  0
  162.0170  209.1200  156.7250 C   0  0  0  0  0  1  0  0  0  0  0  0
  162.5960  206.4400  151.9840 C   0  0  0  0  0  2  0  0  0  0  0  0
  161.5790  206.1800  153.9240 C   0  0  0  0  0  1  0  0  0  0  0  0
  162.3470  205.4980  152.9820 O   0  0  0  0  0  0  0  0  0  0  0  0
  160.2710  204.3000  150.2450 O   0  0  0  0  0  0  0  0  0  0  0  0
  160.4490  203.2370  152.3840 C   0  0  0  0  0  1  0  0  0  0  0  0
  160.8150  203.1730  150.9170 C   0  0  0  0  0  2  0  0  0  0  0  0
  1  3  1  1  0  0  0
  1  7  1  0  0  0  0
  2  7  2  0  0  0  0
  2 27  1  0  0  0  0
  4  2  1  0  0  0  0
  5  6  1  0  0  0  0
  5  4  2  0  0  0  0
  6  1  1  0  0  0  0
  7 15  1  0  0  0  0
  9  4  1  0  0  0  0
  9  8  2  0  0  0  0
 10 11  1  0  0  0  0
 11 13  2  0  0  0  0
 12 14  2  0  0  0  0
 12 11  1  0  0  0  0
 13  8  1  0  0  0  0
 14  9  1  0  0  0  0
 15 16  1  6  0  0  0
 15 24  1  0  0  0  0
 16 17  1  0  0  0  0
 17 19  1  0  0  0  0
 19 18  1  6  0  0  0
 19 20  1  0  0  0  0
 20 22  1  0  0  0  0
 22 21  2  0  0  0  0
 22 23  1  0  0  0  0
 24 26  1  0  0  0  0
 26 25  1  0  0  0  0
 27 29  1  0  0  0  0
 29 28  1  0  0  0  0
M  END
>  <MODEL>
9

>  <REMARK>
 VINA RESULT:      -5.9      4.029      9.068
  Name = 
  11 active torsions:
  status: ('A' for Active; 'I' for Inactive)
    1  A    between atoms: C_1  and  C_4
    2  A    between atoms: C_1  and  C_14
    3  A    between atoms: C_1  and  C_22
    4  A    between atoms: C_4  and  C_21
    5  A    between atoms: C_6  and  C_24
    6  A    between atoms: O_7  and  C_11
    7  A    between atoms: O_7  and  C_28
    8  A    between atoms: C_10  and  C_16
    9  A    between atoms: C_14  and  O_25
   10  A    between atoms: C_21  and  C_26
   11  A    between atoms: C_24  and  C_26
                            x       y       z     vdW  Elec       q    Type
                         _______ _______ _______ _____ _____    ______ ____

>  <TORSDO>
F 11

$$$$
