=
 OpenBabel11072415033D

 39 43  0  0  1  0  0  0  0  0999 V2000
  161.1850  208.2630  155.5600 C   0  0  1  0  0  3  0  0  0  0  0  0
  160.2110  209.3540  155.1630 C   0  0  2  0  0  0  0  0  0  0  0  0
  160.6990  210.0380  153.8350 C   0  0  1  0  0  0  0  0  0  0  0  0
  160.6670  210.7930  155.1520 C   0  0  2  0  0  0  0  0  0  0  0  0
  160.5680  207.0000  155.6150 O   0  0  0  0  0  0  0  0  0  0  0  0
  160.7960  207.5180  154.3300 C   0  0  1  0  0  0  0  0  0  0  0  0
  161.8870  210.9890  155.8220 O   0  0  0  0  0  1  0  0  0  0  0  0
  162.0430  209.8280  153.4890 O   0  0  0  0  0  1  0  0  0  0  0  0
  159.9520  208.7040  153.8360 C   0  0  1  0  0  3  0  0  0  0  0  0
  156.3200  211.5950  157.2100 O   0  0  0  0  0  1  0  0  0  0  0  0
  155.7500  211.8500  154.3120 O   0  0  0  0  0  0  0  0  0  0  0  0
  156.9490  214.1640  154.7500 O   0  0  0  0  0  1  0  0  0  0  0  0
  158.6320  212.0230  154.2300 C   0  0  1  0  0  3  0  0  0  0  0  0
  157.4270  212.2320  156.6470 C   0  0  2  0  0  3  0  0  0  0  0  0
  159.5130  211.7580  155.4400 C   0  0  1  0  0  3  0  0  0  0  0  0
  157.0910  212.6670  154.9310 P   0  0  2  0  0  0  0  0  0  0  0  0
  158.6060  211.2790  156.5770 C   0  0  0  0  0  2  0  0  0  0  0  0
  159.4210  213.2270  153.1080 S   0  0  0  0  0  0  0  0  0  0  0  0
  158.3200  212.8250  151.7140 C   0  0  0  0  0  2  0  0  0  0  0  0
  156.6160  213.5250  149.6000 C   0  0  0  0  0  1  0  0  0  0  0  0
  158.1280  213.4460  149.4050 C   0  0  1  0  0  0  0  0  0  0  0  0
  159.0190  213.0570  150.4560 N   0  0  0  0  0  0  0  0  0  0  0  0
  158.6440  213.2750  148.1190 O   0  0  0  0  0  1  0  0  0  0  0  0
  158.8320  214.4520  150.1240 N   0  0  0  0  0  2  0  0  0  0  0  0
  161.9800  207.0610  153.5870 N   0  0  0  0  0  2  0  0  0  0  0  0
  163.0770  205.9930  151.8400 O   0  0  0  0  0  0  0  0  0  0  0  0
  162.0470  206.0570  152.5590 C   0  0  0  0  0  0  0  0  0  0  0  0
  160.9520  205.0510  152.3540 C   0  0  0  0  0  2  0  0  0  0  0  0
  161.2540  204.1500  151.1670 C   0  0  0  0  0  2  0  0  0  0  0  0
  160.5750  204.6600  149.8980 C   0  0  0  0  0  2  0  0  0  0  0  0
  161.3730  206.3730  147.8840 P   0  0  0  0  0  2  0  0  0  0  0  0
  161.7150  205.7900  146.1790 C   0  0  0  0  0  1  0  0  0  0  0  0
  161.6110  207.3660  149.2990 O   0  0  0  0  0  0  0  0  0  0  0  0
  159.7580  206.7570  147.5560 O   0  0  0  0  0  1  0  0  0  0  0  0
  162.5070  207.6960  148.3460 C   0  0  0  0  0  1  0  0  0  0  0  0
  161.5790  204.7620  148.7570 C   0  0  0  0  0  2  0  0  0  0  0  0
  162.8900  204.8160  146.1780 C   0  0  0  0  0  2  0  0  0  0  0  0
  162.5000  203.4640  146.7810 C   0  0  0  0  0  2  0  0  0  0  0  0
  161.3800  203.5710  147.8150 C   0  0  0  0  0  2  0  0  0  0  0  0
  1  5  1  1  0  0  0
  2  1  1  0  0  0  0
  3  9  1  0  0  0  0
  3  4  1  0  0  0  0
  3  2  1  0  0  0  0
  4  2  1  0  0  0  0
  4 15  1  0  0  0  0
  4  7  1  0  0  0  0
  6  1  1  0  0  0  0
  6  5  1  0  0  0  0
  8  3  1  0  0  0  0
  9  6  1  0  0  0  0
  9  2  1  0  0  0  0
 11 16  2  0  0  0  0
 12 16  1  0  0  0  0
 13 16  1  0  0  0  0
 13 15  1  0  0  0  0
 14 10  1  0  0  0  0
 15 17  1  0  0  0  0
 16 14  1  0  0  0  0
 17 14  1  0  0  0  0
 18 13  1  0  0  0  0
 19 18  1  0  0  0  0
 21 20  1  0  0  0  0
 21 24  1  0  0  0  0
 21 22  1  0  0  0  0
 22 19  1  0  0  0  0
 23 21  1  0  0  0  0
 24 22  1  0  0  0  0
 25  6  1  0  0  0  0
 26 27  2  0  0  0  0
 27 25  1  0  0  0  0
 28 27  1  0  0  0  0
 29 28  1  0  0  0  0
 30 29  1  0  0  0  0
 31 33  1  0  0  0  0
 34 31  1  0  0  0  0
 35 33  1  0  0  0  0
 36 30  1  0  0  0  0
 37 32  1  0  0  0  0
 37 38  1  0  0  0  0
 38 39  1  0  0  0  0
 39 36  1  0  0  0  0
M  END
>  <MODEL>
1

>  <REMARK>
 VINA RESULT:      -6.5      0.000      0.000
  Name = 
  9 active torsions:
  status: ('A' for Active; 'I' for Inactive)
    1  A    between atoms: C_3  and  C_22
    2  A    between atoms: C_3  and  C_34
    3  A    between atoms: N_4  and  C_28
    4  A    between atoms: C_15  and  C_25
    5  A    between atoms: C_17  and  C_32
    6  A    between atoms: C_21  and  S_27
    7  A    between atoms: C_23  and  S_27
    8  A    between atoms: C_23  and  N_31
    9  A    between atoms: C_25  and  C_34
                            x       y       z     vdW  Elec       q    Type
                         _______ _______ _______ _____ _____    ______ ____

>  <TORSDO>
F 9

$$$$
=
 OpenBabel11072415033D

 39 43  0  0  1  0  0  0  0  0999 V2000
  161.3630  208.3860  154.1560 C   0  0  1  0  0  3  0  0  0  0  0  0
  160.4070  209.5570  154.0460 C   0  0  2  0  0  0  0  0  0  0  0  0
  160.8450  210.4840  152.8550 C   0  0  1  0  0  0  0  0  0  0  0  0
  160.9120  210.9570  154.2960 C   0  0  2  0  0  0  0  0  0  0  0  0
  160.7070  207.1520  153.9940 O   0  0  0  0  0  0  0  0  0  0  0  0
  160.8810  207.9140  152.8270 C   0  0  1  0  0  0  0  0  0  0  0  0
  162.1730  210.9860  154.9160 O   0  0  0  0  0  1  0  0  0  0  0  0
  162.1600  210.3170  152.3920 O   0  0  0  0  0  1  0  0  0  0  0  0
  160.0530  209.1950  152.6340 C   0  0  1  0  0  3  0  0  0  0  0  0
  156.6840  211.4200  156.6820 O   0  0  0  0  0  1  0  0  0  0  0  0
  156.0120  212.3230  153.9390 O   0  0  0  0  0  0  0  0  0  0  0  0
  157.3200  214.4460  154.8150 O   0  0  0  0  0  1  0  0  0  0  0  0
  158.8940  212.4220  153.7610 C   0  0  1  0  0  3  0  0  0  0  0  0
  157.7930  212.1310  156.2200 C   0  0  2  0  0  3  0  0  0  0  0  0
  159.8100  211.8700  154.8410 C   0  0  1  0  0  3  0  0  0  0  0  0
  157.4080  212.9430  154.6580 P   0  0  2  0  0  0  0  0  0  0  0  0
  158.9290  211.1800  155.8880 C   0  0  0  0  0  2  0  0  0  0  0  0
  159.6850  213.8190  152.8940 S   0  0  0  0  0  0  0  0  0  0  0  0
  159.3390  213.1390  151.2400 C   0  0  0  0  0  2  0  0  0  0  0  0
  161.1960  212.0740  149.4290 C   0  0  0  0  0  1  0  0  0  0  0  0
  160.6890  213.5070  149.2910 C   0  0  1  0  0  0  0  0  0  0  0  0
  159.7690  214.0880  150.2210 N   0  0  0  0  0  0  0  0  0  0  0  0
  161.4450  214.4340  148.5730 O   0  0  0  0  0  1  0  0  0  0  0  0
  159.3100  213.5750  148.9490 N   0  0  0  0  0  2  0  0  0  0  0  0
  162.0050  207.5900  151.9370 N   0  0  0  0  0  2  0  0  0  0  0  0
  162.9810  207.0650  149.8940 O   0  0  0  0  0  0  0  0  0  0  0  0
  161.9550  207.0120  150.6210 C   0  0  0  0  0  0  0  0  0  0  0  0
  160.7350  206.3010  150.1090 C   0  0  0  0  0  2  0  0  0  0  0  0
  160.6310  204.9020  150.6980 C   0  0  0  0  0  2  0  0  0  0  0  0
  161.5540  203.9260  149.9720 C   0  0  0  0  0  2  0  0  0  0  0  0
  160.6680  201.7890  148.4650 P   0  0  0  0  0  2  0  0  0  0  0  0
  161.1580  201.5530  146.7140 C   0  0  0  0  0  1  0  0  0  0  0  0
  159.5850  201.7220  149.8330 O   0  0  0  0  0  0  0  0  0  0  0  0
  161.9220  200.8280  149.0700 O   0  0  0  0  0  1  0  0  0  0  0  0
  158.9630  201.2630  148.7270 C   0  0  0  0  0  1  0  0  0  0  0  0
  161.0050  203.5970  148.5900 C   0  0  0  0  0  2  0  0  0  0  0  0
  160.6450  202.7090  145.8600 C   0  0  0  0  0  2  0  0  0  0  0  0
  161.4340  203.9950  146.1210 C   0  0  0  0  0  2  0  0  0  0  0  0
  162.0110  204.0650  147.5340 C   0  0  0  0  0  2  0  0  0  0  0  0
  1  5  1  1  0  0  0
  2  1  1  0  0  0  0
  2  4  1  0  0  0  0
  3  2  1  0  0  0  0
  3  4  1  0  0  0  0
  4 15  1  0  0  0  0
  4  7  1  0  0  0  0
  6  5  1  0  0  0  0
  6  1  1  0  0  0  0
  8  3  1  0  0  0  0
  9  6  1  0  0  0  0
  9  3  1  0  0  0  0
  9  2  1  0  0  0  0
 11 16  2  0  0  0  0
 13 16  1  0  0  0  0
 13 15  1  0  0  0  0
 14 10  1  0  0  0  0
 15 17  1  0  0  0  0
 16 12  1  0  0  0  0
 16 14  1  0  0  0  0
 17 14  1  0  0  0  0
 18 13  1  0  0  0  0
 19 18  1  0  0  0  0
 21 20  1  0  0  0  0
 21 22  1  0  0  0  0
 22 19  1  0  0  0  0
 23 21  1  0  0  0  0
 24 21  1  0  0  0  0
 24 22  1  0  0  0  0
 25  6  1  0  0  0  0
 26 27  2  0  0  0  0
 27 25  1  0  0  0  0
 28 27  1  0  0  0  0
 28 29  1  0  0  0  0
 30 29  1  0  0  0  0
 31 34  1  0  0  0  0
 31 33  1  0  0  0  0
 35 33  1  0  0  0  0
 36 30  1  0  0  0  0
 37 38  1  0  0  0  0
 37 32  1  0  0  0  0
 38 39  1  0  0  0  0
 39 36  1  0  0  0  0
M  END
>  <MODEL>
2

>  <REMARK>
 VINA RESULT:      -6.0      2.130      2.638
  Name = 
  9 active torsions:
  status: ('A' for Active; 'I' for Inactive)
    1  A    between atoms: C_3  and  C_22
    2  A    between atoms: C_3  and  C_34
    3  A    between atoms: N_4  and  C_28
    4  A    between atoms: C_15  and  C_25
    5  A    between atoms: C_17  and  C_32
    6  A    between atoms: C_21  and  S_27
    7  A    between atoms: C_23  and  S_27
    8  A    between atoms: C_23  and  N_31
    9  A    between atoms: C_25  and  C_34
                            x       y       z     vdW  Elec       q    Type
                         _______ _______ _______ _____ _____    ______ ____

>  <TORSDO>
F 9

$$$$
=
 OpenBabel11072415033D

 39 43  0  0  1  0  0  0  0  0999 V2000
  161.4310  208.3350  152.4000 C   0  0  1  0  0  3  0  0  0  0  0  0
  160.9020  206.9220  152.2650 C   0  0  2  0  0  0  0  0  0  0  0  0
  161.5840  205.9990  153.3390 C   0  0  1  0  0  0  0  0  0  0  0  0
  161.8380  205.8110  151.8550 C   0  0  2  0  0  0  0  0  0  0  0  0
  160.4080  209.2560  152.6880 O   0  0  0  0  0  0  0  0  0  0  0  0
  160.7890  208.4100  153.7420 C   0  0  1  0  0  0  0  0  0  0  0  0
  163.0570  206.2810  151.3360 O   0  0  0  0  0  1  0  0  0  0  0  0
  162.7620  206.4940  153.9210 O   0  0  0  0  0  1  0  0  0  0  0  0
  160.4130  206.9200  153.6840 C   0  0  1  0  0  3  0  0  0  0  0  0
  161.3780  201.0630  150.8420 O   0  0  0  0  0  1  0  0  0  0  0  0
  162.1890  202.2310  148.2400 O   0  0  0  0  0  0  0  0  0  0  0  0
  159.6550  202.9790  148.3100 O   0  0  0  0  0  1  0  0  0  0  0  0
  161.4350  204.6560  149.6170 C   0  0  1  0  0  3  0  0  0  0  0  0
  160.7310  202.2970  150.7460 C   0  0  2  0  0  3  0  0  0  0  0  0
  161.1040  204.6990  151.1000 C   0  0  1  0  0  3  0  0  0  0  0  0
  160.9480  202.9900  149.0970 P   0  0  2  0  0  0  0  0  0  0  0  0
  161.3790  203.3060  151.6760 C   0  0  0  0  0  2  0  0  0  0  0  0
  160.5100  205.9440  148.7120 S   0  0  0  0  0  0  0  0  0  0  0  0
  161.8910  206.3010  147.5780 C   0  0  0  0  0  2  0  0  0  0  0  0
  160.2370  206.1560  145.3190 C   0  0  0  0  0  1  0  0  0  0  0  0
  161.3160  205.1070  145.5780 C   0  0  1  0  0  0  0  0  0  0  0  0
  162.1510  205.1370  146.7410 N   0  0  0  0  0  0  0  0  0  0  0  0
  161.2100  203.8520  144.9770 O   0  0  0  0  0  1  0  0  0  0  0  0
  162.6340  205.6320  145.4710 N   0  0  0  0  0  2  0  0  0  0  0  0
  161.7240  208.9230  154.7540 N   0  0  0  0  0  2  0  0  0  0  0  0
  162.4710  209.3020  156.9210 O   0  0  0  0  0  0  0  0  0  0  0  0
  161.4860  209.1280  156.1570 C   0  0  0  0  0  0  0  0  0  0  0  0
  160.0990  209.1960  156.7290 C   0  0  0  0  0  2  0  0  0  0  0  0
  159.5060  210.5860  156.5580 C   0  0  0  0  0  2  0  0  0  0  0  0
  158.4230  210.5970  155.4820 C   0  0  0  0  0  2  0  0  0  0  0  0
  156.1350  212.1370  155.3450 P   0  0  0  0  0  2  0  0  0  0  0  0
  155.8360  213.3310  153.9860 C   0  0  0  0  0  1  0  0  0  0  0  0
  156.0620  211.5520  156.9880 O   0  0  0  0  0  0  0  0  0  0  0  0
  155.3160  210.8730  154.5750 O   0  0  0  0  0  1  0  0  0  0  0  0
  155.4890  212.7700  156.9040 C   0  0  0  0  0  1  0  0  0  0  0  0
  157.9690  212.0220  155.1940 C   0  0  0  0  0  2  0  0  0  0  0  0
  156.8940  214.4310  154.0050 C   0  0  0  0  0  2  0  0  0  0  0  0
  158.2530  213.9130  153.5260 C   0  0  0  0  0  2  0  0  0  0  0  0
  158.4530  212.4230  153.7970 C   0  0  0  0  0  2  0  0  0  0  0  0
  1  5  1  6  0  0  0
  1  6  1  0  0  0  0
  2  1  1  0  0  0  0
  2  3  1  0  0  0  0
  2  9  1  0  0  0  0
  3  9  1  0  0  0  0
  3  8  1  0  0  0  0
  4  2  1  0  0  0  0
  4  3  1  0  0  0  0
  5  6  1  0  0  0  0
  6 25  1  0  0  0  0
  7  4  1  0  0  0  0
  9  6  1  0  0  0  0
 11 16  2  0  0  0  0
 12 16  1  0  0  0  0
 13 15  1  0  0  0  0
 14 10  1  0  0  0  0
 14 17  1  0  0  0  0
 15 17  1  0  0  0  0
 15  4  1  0  0  0  0
 16 13  1  0  0  0  0
 16 14  1  0  0  0  0
 18 13  1  0  0  0  0
 19 18  1  0  0  0  0
 20 21  1  0  0  0  0
 21 22  1  0  0  0  0
 22 19  1  0  0  0  0
 23 21  1  0  0  0  0
 24 21  1  0  0  0  0
 24 22  1  0  0  0  0
 25 27  1  0  0  0  0
 27 28  1  0  0  0  0
 27 26  2  0  0  0  0
 29 28  1  0  0  0  0
 30 29  1  0  0  0  0
 31 33  1  0  0  0  0
 32 37  1  0  0  0  0
 34 31  1  0  0  0  0
 35 33  1  0  0  0  0
 36 30  1  0  0  0  0
 38 39  1  0  0  0  0
 38 37  1  0  0  0  0
 39 36  1  0  0  0  0
M  END
>  <MODEL>
3

>  <REMARK>
 VINA RESULT:      -5.9      3.082      9.188
  Name = 
  9 active torsions:
  status: ('A' for Active; 'I' for Inactive)
    1  A    between atoms: C_3  and  C_22
    2  A    between atoms: C_3  and  C_34
    3  A    between atoms: N_4  and  C_28
    4  A    between atoms: C_15  and  C_25
    5  A    between atoms: C_17  and  C_32
    6  A    between atoms: C_21  and  S_27
    7  A    between atoms: C_23  and  S_27
    8  A    between atoms: C_23  and  N_31
    9  A    between atoms: C_25  and  C_34
                            x       y       z     vdW  Elec       q    Type
                         _______ _______ _______ _____ _____    ______ ____

>  <TORSDO>
F 9

$$$$
=
 OpenBabel11072415033D

 39 43  0  0  1  0  0  0  0  0999 V2000
  161.4650  208.2700  152.3730 C   0  0  1  0  0  3  0  0  0  0  0  0
  160.9210  206.8630  152.2250 C   0  0  2  0  0  0  0  0  0  0  0  0
  161.5820  205.9270  153.3010 C   0  0  1  0  0  0  0  0  0  0  0  0
  161.8500  205.7440  151.8190 C   0  0  2  0  0  0  0  0  0  0  0  0
  160.4490  209.2000  152.6550 O   0  0  0  0  0  0  0  0  0  0  0  0
  160.8080  208.3440  153.7080 C   0  0  1  0  0  0  0  0  0  0  0  0
  163.0800  206.2030  151.3160 O   0  0  0  0  0  1  0  0  0  0  0  0
  162.7580  206.4060  153.8990 O   0  0  0  0  0  1  0  0  0  0  0  0
  160.4170  206.8590  153.6380 C   0  0  1  0  0  3  0  0  0  0  0  0
  161.3220  201.0030  150.8070 O   0  0  0  0  0  1  0  0  0  0  0  0
  162.2150  202.1480  148.2220 O   0  0  0  0  0  0  0  0  0  0  0  0
  159.6950  202.9440  148.2320 O   0  0  0  0  0  1  0  0  0  0  0  0
  161.4760  204.5910  149.5750 C   0  0  1  0  0  3  0  0  0  0  0  0
  160.7010  202.2480  150.6930 C   0  0  2  0  0  3  0  0  0  0  0  0
  161.1120  204.6440  151.0500 C   0  0  1  0  0  3  0  0  0  0  0  0
  160.9700  202.9330  149.0480 P   0  0  2  0  0  0  0  0  0  0  0  0
  161.3470  203.2480  151.6350 C   0  0  0  0  0  2  0  0  0  0  0  0
  160.5980  205.8930  148.6460 S   0  0  0  0  0  0  0  0  0  0  0  0
  161.9940  206.1870  147.5120 C   0  0  0  0  0  2  0  0  0  0  0  0
  160.3420  206.1560  145.2470 C   0  0  0  0  0  1  0  0  0  0  0  0
  161.3590  205.0460  145.4990 C   0  0  1  0  0  0  0  0  0  0  0  0
  162.1900  205.0180  146.6650 N   0  0  0  0  0  0  0  0  0  0  0  0
  161.1850  203.8050  144.8860 O   0  0  0  0  0  1  0  0  0  0  0  0
  162.7050  205.4970  145.4020 N   0  0  0  0  0  2  0  0  0  0  0  0
  161.7370  208.8420  154.7330 N   0  0  0  0  0  2  0  0  0  0  0  0
  162.4780  209.1760  156.9090 O   0  0  0  0  0  0  0  0  0  0  0  0
  161.4960  209.0120  156.1410 C   0  0  0  0  0  0  0  0  0  0  0  0
  160.1080  209.0530  156.7120 C   0  0  0  0  0  2  0  0  0  0  0  0
  159.7070  210.4770  157.0680 C   0  0  0  0  0  2  0  0  0  0  0  0
  159.7830  211.3950  155.8500 C   0  0  0  0  0  2  0  0  0  0  0  0
  158.3840  212.9120  154.0160 P   0  0  0  0  0  2  0  0  0  0  0  0
  156.6190  213.3510  154.2490 C   0  0  0  0  0  1  0  0  0  0  0  0
  159.8040  212.4790  153.0970 O   0  0  0  0  0  0  0  0  0  0  0  0
  158.9550  214.3320  154.7370 O   0  0  0  0  0  1  0  0  0  0  0  0
  158.7430  212.6150  152.2750 C   0  0  0  0  0  1  0  0  0  0  0  0
  158.4390  211.4490  155.1350 C   0  0  0  0  0  2  0  0  0  0  0  0
  155.7570  212.0920  154.2620 C   0  0  0  0  0  2  0  0  0  0  0  0
  155.9420  211.2970  155.5570 C   0  0  0  0  0  2  0  0  0  0  0  0
  157.3230  211.4870  156.1830 C   0  0  0  0  0  2  0  0  0  0  0  0
  1  5  1  6  0  0  0
  1  6  1  0  0  0  0
  2  1  1  0  0  0  0
  2  3  1  0  0  0  0
  2  9  1  0  0  0  0
  3  9  1  0  0  0  0
  3  8  1  0  0  0  0
  4  2  1  0  0  0  0
  4  3  1  0  0  0  0
  5  6  1  0  0  0  0
  6 25  1  0  0  0  0
  7  4  1  0  0  0  0
  9  6  1  0  0  0  0
 11 16  2  0  0  0  0
 12 16  1  0  0  0  0
 13 15  1  0  0  0  0
 14 10  1  0  0  0  0
 14 17  1  0  0  0  0
 15 17  1  0  0  0  0
 15  4  1  0  0  0  0
 16 13  1  0  0  0  0
 16 14  1  0  0  0  0
 18 13  1  0  0  0  0
 19 18  1  0  0  0  0
 20 21  1  0  0  0  0
 21 22  1  0  0  0  0
 22 19  1  0  0  0  0
 23 21  1  0  0  0  0
 24 21  1  0  0  0  0
 24 22  1  0  0  0  0
 25 27  1  0  0  0  0
 27 28  1  0  0  0  0
 27 26  2  0  0  0  0
 28 29  1  0  0  0  0
 30 29  1  0  0  0  0
 31 34  1  0  0  0  0
 32 37  1  0  0  0  0
 33 31  1  0  0  0  0
 35 33  1  0  0  0  0
 36 30  1  0  0  0  0
 36 39  1  0  0  0  0
 37 38  1  0  0  0  0
 38 39  1  0  0  0  0
M  END
>  <MODEL>
4

>  <REMARK>
 VINA RESULT:      -5.9      3.146      9.018
  Name = 
  9 active torsions:
  status: ('A' for Active; 'I' for Inactive)
    1  A    between atoms: C_3  and  C_22
    2  A    between atoms: C_3  and  C_34
    3  A    between atoms: N_4  and  C_28
    4  A    between atoms: C_15  and  C_25
    5  A    between atoms: C_17  and  C_32
    6  A    between atoms: C_21  and  S_27
    7  A    between atoms: C_23  and  S_27
    8  A    between atoms: C_23  and  N_31
    9  A    between atoms: C_25  and  C_34
                            x       y       z     vdW  Elec       q    Type
                         _______ _______ _______ _____ _____    ______ ____

>  <TORSDO>
F 9

$$$$
=
 OpenBabel11072415033D

 39 43  0  0  1  0  0  0  0  0999 V2000
  160.9590  208.8340  154.2320 C   0  0  1  0  0  3  0  0  0  0  0  0
  159.8410  209.8580  154.2460 C   0  0  2  0  0  0  0  0  0  0  0  0
  160.0980  210.9330  153.1300 C   0  0  1  0  0  0  0  0  0  0  0  0
  160.1480  211.2920  154.6030 C   0  0  2  0  0  0  0  0  0  0  0  0
  160.4820  207.5360  153.9800 O   0  0  0  0  0  0  0  0  0  0  0  0
  160.5030  208.4080  152.8800 C   0  0  1  0  0  0  0  0  0  0  0  0
  161.4130  211.4540  155.1940 O   0  0  0  0  0  1  0  0  0  0  0  0
  161.4060  210.9990  152.6230 O   0  0  0  0  0  1  0  0  0  0  0  0
  159.4930  209.5640  152.8170 C   0  0  1  0  0  3  0  0  0  0  0  0
  155.6270  210.9790  156.4050 O   0  0  0  0  0  1  0  0  0  0  0  0
  155.2840  212.7090  154.0220 O   0  0  0  0  0  0  0  0  0  0  0  0
  156.3740  214.4410  155.6940 O   0  0  0  0  0  1  0  0  0  0  0  0
  158.1570  212.8540  154.2840 C   0  0  1  0  0  3  0  0  0  0  0  0
  156.7560  211.7980  156.3480 C   0  0  2  0  0  3  0  0  0  0  0  0
  158.9450  211.9860  155.2510 C   0  0  1  0  0  3  0  0  0  0  0  0
  156.5450  213.0660  155.0850 P   0  0  2  0  0  0  0  0  0  0  0  0
  157.9650  211.0010  155.8950 C   0  0  0  0  0  2  0  0  0  0  0  0
  158.9960  214.4530  154.0200 S   0  0  0  0  0  0  0  0  0  0  0  0
  158.8270  214.3730  152.2070 C   0  0  0  0  0  2  0  0  0  0  0  0
  158.3550  214.3190  149.4440 C   0  0  0  0  0  1  0  0  0  0  0  0
  157.2520  213.9750  150.4420 C   0  0  1  0  0  0  0  0  0  0  0  0
  157.4550  214.0290  151.8590 N   0  0  0  0  0  0  0  0  0  0  0  0
  155.9170  214.0710  150.0470 O   0  0  0  0  0  1  0  0  0  0  0  0
  157.5050  212.7680  151.1520 N   0  0  0  0  0  2  0  0  0  0  0  0
  161.6300  208.3250  151.9390 N   0  0  0  0  0  2  0  0  0  0  0  0
  162.7490  207.5130  150.0720 O   0  0  0  0  0  0  0  0  0  0  0  0
  161.9110  207.2880  150.9830 C   0  0  0  0  0  0  0  0  0  0  0  0
  161.2780  205.9290  151.0710 C   0  0  0  0  0  2  0  0  0  0  0  0
  161.9610  204.9470  150.1320 C   0  0  0  0  0  2  0  0  0  0  0  0
  161.3110  204.9580  148.7500 C   0  0  0  0  0  2  0  0  0  0  0  0
  161.6340  203.9340  146.2060 P   0  0  0  0  0  2  0  0  0  0  0  0
  160.8270  202.3780  145.6660 C   0  0  0  0  0  1  0  0  0  0  0  0
  162.9130  205.1200  146.2680 O   0  0  0  0  0  0  0  0  0  0  0  0
  160.3820  204.9200  145.6380 O   0  0  0  0  0  1  0  0  0  0  0  0
  163.2710  204.0930  145.4700 C   0  0  0  0  0  1  0  0  0  0  0  0
  161.5680  203.6430  148.0260 C   0  0  0  0  0  2  0  0  0  0  0  0
  161.3390  201.2020  146.4910 C   0  0  0  0  0  2  0  0  0  0  0  0
  160.7860  201.2320  147.9180 C   0  0  0  0  0  2  0  0  0  0  0  0
  160.4710  202.6450  148.4060 C   0  0  0  0  0  2  0  0  0  0  0  0
  1  5  1  1  0  0  0
  1  2  1  0  0  0  0
  2  4  1  0  0  0  0
  3  2  1  0  0  0  0
  3  4  1  0  0  0  0
  4  7  1  0  0  0  0
  4 15  1  0  0  0  0
  6  5  1  0  0  0  0
  6  1  1  0  0  0  0
  8  3  1  0  0  0  0
  9  6  1  0  0  0  0
  9  3  1  0  0  0  0
  9  2  1  0  0  0  0
 11 16  2  0  0  0  0
 13 16  1  0  0  0  0
 13 15  1  0  0  0  0
 14 10  1  0  0  0  0
 15 17  1  0  0  0  0
 16 12  1  0  0  0  0
 16 14  1  0  0  0  0
 17 14  1  0  0  0  0
 18 13  1  0  0  0  0
 19 18  1  0  0  0  0
 20 21  1  0  0  0  0
 21 24  1  0  0  0  0
 21 22  1  0  0  0  0
 22 19  1  0  0  0  0
 23 21  1  0  0  0  0
 24 22  1  0  0  0  0
 25  6  1  0  0  0  0
 26 27  2  0  0  0  0
 27 28  1  0  0  0  0
 27 25  1  0  0  0  0
 29 28  1  0  0  0  0
 30 29  1  0  0  0  0
 31 33  1  0  0  0  0
 32 37  1  0  0  0  0
 34 31  1  0  0  0  0
 35 33  1  0  0  0  0
 36 39  1  0  0  0  0
 36 30  1  0  0  0  0
 37 38  1  0  0  0  0
 38 39  1  0  0  0  0
M  END
>  <MODEL>
5

>  <REMARK>
 VINA RESULT:      -5.2      1.720      2.115
  Name = 
  9 active torsions:
  status: ('A' for Active; 'I' for Inactive)
    1  A    between atoms: C_3  and  C_22
    2  A    between atoms: C_3  and  C_34
    3  A    between atoms: N_4  and  C_28
    4  A    between atoms: C_15  and  C_25
    5  A    between atoms: C_17  and  C_32
    6  A    between atoms: C_21  and  S_27
    7  A    between atoms: C_23  and  S_27
    8  A    between atoms: C_23  and  N_31
    9  A    between atoms: C_25  and  C_34
                            x       y       z     vdW  Elec       q    Type
                         _______ _______ _______ _____ _____    ______ ____

>  <TORSDO>
F 9

$$$$
=
 OpenBabel11072415033D

 39 43  0  0  1  0  0  0  0  0999 V2000
  162.6210  207.8130  151.2020 C   0  0  1  0  0  3  0  0  0  0  0  0
  161.5260  206.7780  151.0380 C   0  0  2  0  0  0  0  0  0  0  0  0
  160.8290  206.5240  152.4240 C   0  0  1  0  0  0  0  0  0  0  0  0
  161.6490  205.4470  151.7390 C   0  0  2  0  0  0  0  0  0  0  0  0
  162.3960  208.9490  150.4030 O   0  0  0  0  0  0  0  0  0  0  0  0
  161.5710  208.8180  151.5320 C   0  0  1  0  0  0  0  0  0  0  0  0
  162.9430  205.1990  152.2290 O   0  0  0  0  0  1  0  0  0  0  0  0
  161.5370  206.9510  153.5590 O   0  0  0  0  0  1  0  0  0  0  0  0
  160.4850  207.7300  151.5490 C   0  0  1  0  0  3  0  0  0  0  0  0
  161.2060  200.6940  150.7410 O   0  0  0  0  0  1  0  0  0  0  0  0
  162.0940  201.8440  148.1560 O   0  0  0  0  0  1  0  0  0  0  0  0
  159.5610  202.5990  148.1500 O   0  0  0  0  0  0  0  0  0  0  0  0
  161.3070  204.2790  149.4970 C   0  0  1  0  0  3  0  0  0  0  0  0
  160.5650  201.9280  150.6190 C   0  0  2  0  0  3  0  0  0  0  0  0
  160.9340  204.3310  150.9690 C   0  0  1  0  0  3  0  0  0  0  0  0
  160.8310  202.6110  148.9730 P   0  0  2  0  0  0  0  0  0  0  0  0
  161.1890  202.9410  151.5610 C   0  0  0  0  0  2  0  0  0  0  0  0
  160.4120  205.5630  148.5580 S   0  0  0  0  0  0  0  0  0  0  0  0
  161.8150  205.8900  147.4430 C   0  0  0  0  0  2  0  0  0  0  0  0
  160.6140  205.6910  144.9180 C   0  0  0  0  0  1  0  0  0  0  0  0
  161.5650  204.6110  145.4280 C   0  0  1  0  0  0  0  0  0  0  0  0
  162.1650  204.6700  146.7270 N   0  0  0  0  0  0  0  0  0  0  0  0
  161.5070  203.3310  144.8770 O   0  0  0  0  0  1  0  0  0  0  0  0
  162.9060  205.0710  145.5520 N   0  0  0  0  0  2  0  0  0  0  0  0
  161.9170  209.5710  152.7460 N   0  0  0  0  0  2  0  0  0  0  0  0
  161.4800  211.0000  154.5250 O   0  0  0  0  0  0  0  0  0  0  0  0
  161.1990  210.6640  153.3460 C   0  0  0  0  0  0  0  0  0  0  0  0
  160.1660  211.4490  152.5900 C   0  0  0  0  0  2  0  0  0  0  0  0
  159.4660  212.4470  153.5000 C   0  0  0  0  0  2  0  0  0  0  0  0
  157.9490  212.2950  153.4250 C   0  0  0  0  0  2  0  0  0  0  0  0
  157.0010  211.6350  155.9330 P   0  0  0  0  0  2  0  0  0  0  0  0
  155.3980  212.2570  156.5700 C   0  0  0  0  0  1  0  0  0  0  0  0
  158.6700  211.1380  156.0510 O   0  0  0  0  0  0  0  0  0  0  0  0
  156.3380  210.2050  155.3190 O   0  0  0  0  0  1  0  0  0  0  0  0
  158.2180  211.5320  157.2590 C   0  0  0  0  0  1  0  0  0  0  0  0
  157.2870  212.9230  154.6450 C   0  0  0  0  0  2  0  0  0  0  0  0
  155.4300  213.7780  156.6920 C   0  0  0  0  0  2  0  0  0  0  0  0
  155.3790  214.4530  155.3190 C   0  0  0  0  0  2  0  0  0  0  0  0
  155.9810  213.5950  154.2080 C   0  0  0  0  0  2  0  0  0  0  0  0
  1  5  1  6  0  0  0
  1  6  1  0  0  0  0
  2  1  1  0  0  0  0
  2  9  1  0  0  0  0
  2  4  1  0  0  0  0
  2  3  1  0  0  0  0
  3  8  1  0  0  0  0
  4  7  1  0  0  0  0
  4  3  1  0  0  0  0
  5  6  1  0  0  0  0
  6  9  1  0  0  0  0
  6 25  1  0  0  0  0
  9  3  1  0  0  0  0
 11 16  1  0  0  0  0
 12 16  2  0  0  0  0
 13 15  1  0  0  0  0
 14 10  1  0  0  0  0
 14 17  1  0  0  0  0
 15 17  1  0  0  0  0
 15  4  1  0  0  0  0
 16 13  1  0  0  0  0
 16 14  1  0  0  0  0
 18 13  1  0  0  0  0
 19 18  1  0  0  0  0
 20 21  1  0  0  0  0
 21 24  1  0  0  0  0
 21 22  1  0  0  0  0
 22 19  1  0  0  0  0
 23 21  1  0  0  0  0
 24 22  1  0  0  0  0
 25 27  1  0  0  0  0
 27 26  2  0  0  0  0
 28 27  1  0  0  0  0
 28 29  1  0  0  0  0
 30 29  1  0  0  0  0
 30 36  1  0  0  0  0
 31 33  1  0  0  0  0
 32 37  1  0  0  0  0
 33 35  1  0  0  0  0
 34 31  1  0  0  0  0
 38 37  1  0  0  0  0
 39 36  1  0  0  0  0
 39 38  1  0  0  0  0
M  END
>  <MODEL>
6

>  <REMARK>
 VINA RESULT:      -5.2      3.337      9.657
  Name = 
  9 active torsions:
  status: ('A' for Active; 'I' for Inactive)
    1  A    between atoms: C_3  and  C_22
    2  A    between atoms: C_3  and  C_34
    3  A    between atoms: N_4  and  C_28
    4  A    between atoms: C_15  and  C_25
    5  A    between atoms: C_17  and  C_32
    6  A    between atoms: C_21  and  S_27
    7  A    between atoms: C_23  and  S_27
    8  A    between atoms: C_23  and  N_31
    9  A    between atoms: C_25  and  C_34
                            x       y       z     vdW  Elec       q    Type
                         _______ _______ _______ _____ _____    ______ ____

>  <TORSDO>
F 9

$$$$
=
 OpenBabel11072415033D

 39 43  0  0  1  0  0  0  0  0999 V2000
  161.3780  212.4450  145.6880 C   0  0  1  0  0  3  0  0  0  0  0  0
  160.7790  213.2740  144.5700 C   0  0  2  0  0  0  0  0  0  0  0  0
  159.2730  213.5860  144.8950 C   0  0  1  0  0  0  0  0  0  0  0  0
  159.6660  212.6970  143.7290 C   0  0  2  0  0  0  0  0  0  0  0  0
  162.4670  213.0920  146.2990 O   0  0  0  0  0  0  0  0  0  0  0  0
  161.1960  213.6090  146.6000 C   0  0  1  0  0  0  0  0  0  0  0  0
  159.5170  211.3090  143.8870 O   0  0  0  0  0  1  0  0  0  0  0  0
  158.6710  212.7780  145.8730 O   0  0  0  0  0  1  0  0  0  0  0  0
  160.4220  214.3800  145.5190 C   0  0  1  0  0  3  0  0  0  0  0  0
  157.1470  214.4240  139.9270 O   0  0  0  0  0  1  0  0  0  0  0  0
  158.3400  211.9260  138.8650 O   0  0  0  0  0  1  0  0  0  0  0  0
  160.4610  213.5030  138.8230 O   0  0  0  0  0  0  0  0  0  0  0  0
  159.9590  212.2360  141.2380 C   0  0  1  0  0  3  0  0  0  0  0  0
  158.4280  214.3370  140.4750 C   0  0  2  0  0  3  0  0  0  0  0  0
  159.6680  213.2740  142.3100 C   0  0  1  0  0  3  0  0  0  0  0  0
  159.3450  212.9890  139.7080 P   0  0  2  0  0  0  0  0  0  0  0  0
  158.3490  213.9610  141.9440 C   0  0  0  0  0  2  0  0  0  0  0  0
  161.7480  211.8850  141.1480 S   0  0  0  0  0  0  0  0  0  0  0  0
  161.4990  210.1480  140.6570 C   0  0  0  0  0  2  0  0  0  0  0  0
  161.8820  207.5470  139.6810 C   0  0  0  0  0  1  0  0  0  0  0  0
  161.5920  208.7120  138.7370 C   0  0  1  0  0  0  0  0  0  0  0  0
  161.4280  210.0550  139.2040 N   0  0  0  0  0  0  0  0  0  0  0  0
  161.9520  208.6090  137.3930 O   0  0  0  0  0  1  0  0  0  0  0  0
  160.2780  209.2350  138.8920 N   0  0  0  0  0  2  0  0  0  0  0  0
  160.5530  213.2040  147.8580 N   0  0  0  0  0  2  0  0  0  0  0  0
  160.5260  212.3780  150.0300 O   0  0  0  0  0  0  0  0  0  0  0  0
  161.0990  212.3890  148.9100 C   0  0  0  0  0  0  0  0  0  0  0  0
  162.2980  211.5100  148.6970 C   0  0  0  0  0  2  0  0  0  0  0  0
  162.1940  210.2350  149.5200 C   0  0  0  0  0  2  0  0  0  0  0  0
  161.9570  209.0190  148.6290 C   0  0  0  0  0  2  0  0  0  0  0  0
  161.4430  206.3090  148.4950 P   0  0  0  0  0  2  0  0  0  0  0  0
  160.8430  205.3520  149.9400 C   0  0  0  0  0  1  0  0  0  0  0  0
  162.3500  206.5630  147.0260 O   0  0  0  0  0  0  0  0  0  0  0  0
  159.8880  206.6210  147.9060 O   0  0  0  0  0  1  0  0  0  0  0  0
  162.5690  205.3180  147.4960 C   0  0  0  0  0  1  0  0  0  0  0  0
  162.1780  207.7300  149.4100 C   0  0  0  0  0  2  0  0  0  0  0  0
  161.8850  205.3680  151.0550 C   0  0  0  0  0  2  0  0  0  0  0  0
  161.9590  206.7380  151.7350 C   0  0  0  0  0  2  0  0  0  0  0  0
  161.5700  207.8880  150.8070 C   0  0  0  0  0  2  0  0  0  0  0  0
  1  5  1  6  0  0  0
  1  6  1  0  0  0  0
  2  3  1  0  0  0  0
  2  9  1  0  0  0  0
  2  1  1  0  0  0  0
  3  9  1  0  0  0  0
  3  8  1  0  0  0  0
  4  7  1  0  0  0  0
  4  2  1  0  0  0  0
  4  3  1  0  0  0  0
  5  6  1  0  0  0  0
  6 25  1  0  0  0  0
  9  6  1  0  0  0  0
 10 14  1  0  0  0  0
 11 16  1  0  0  0  0
 12 16  2  0  0  0  0
 13 15  1  0  0  0  0
 14 17  1  0  0  0  0
 15  4  1  0  0  0  0
 16 14  1  0  0  0  0
 16 13  1  0  0  0  0
 17 15  1  0  0  0  0
 18 13  1  0  0  0  0
 19 18  1  0  0  0  0
 21 24  1  0  0  0  0
 21 22  1  0  0  0  0
 21 20  1  0  0  0  0
 22 19  1  0  0  0  0
 23 21  1  0  0  0  0
 24 22  1  0  0  0  0
 25 27  1  0  0  0  0
 27 26  2  0  0  0  0
 28 27  1  0  0  0  0
 28 29  1  0  0  0  0
 30 36  1  0  0  0  0
 30 29  1  0  0  0  0
 32 37  1  0  0  0  0
 33 35  1  0  0  0  0
 33 31  1  0  0  0  0
 34 31  1  0  0  0  0
 36 39  1  0  0  0  0
 37 38  1  0  0  0  0
 39 38  1  0  0  0  0
M  END
>  <MODEL>
7

>  <REMARK>
 VINA RESULT:      -5.1      6.410     10.601
  Name = 
  9 active torsions:
  status: ('A' for Active; 'I' for Inactive)
    1  A    between atoms: C_3  and  C_22
    2  A    between atoms: C_3  and  C_34
    3  A    between atoms: N_4  and  C_28
    4  A    between atoms: C_15  and  C_25
    5  A    between atoms: C_17  and  C_32
    6  A    between atoms: C_21  and  S_27
    7  A    between atoms: C_23  and  S_27
    8  A    between atoms: C_23  and  N_31
    9  A    between atoms: C_25  and  C_34
                            x       y       z     vdW  Elec       q    Type
                         _______ _______ _______ _____ _____    ______ ____

>  <TORSDO>
F 9

$$$$
=
 OpenBabel11072415033D

 39 43  0  0  1  0  0  0  0  0999 V2000
  162.6320  207.4970  151.1740 C   0  0  1  0  0  3  0  0  0  0  0  0
  161.5270  206.4830  150.9530 C   0  0  2  0  0  0  0  0  0  0  0  0
  160.8400  206.1450  152.3250 C   0  0  1  0  0  0  0  0  0  0  0  0
  161.6450  205.1080  151.5640 C   0  0  2  0  0  0  0  0  0  0  0  0
  162.4100  208.6840  150.4530 O   0  0  0  0  0  0  0  0  0  0  0  0
  161.5930  208.4860  151.5780 C   0  0  1  0  0  0  0  0  0  0  0  0
  162.9410  204.8180  152.0250 O   0  0  0  0  0  1  0  0  0  0  0  0
  161.5600  206.4910  153.4800 O   0  0  0  0  0  1  0  0  0  0  0  0
  160.4990  207.4080  151.5330 C   0  0  1  0  0  3  0  0  0  0  0  0
  160.8750  200.4010  150.5490 O   0  0  0  0  0  1  0  0  0  0  0  0
  162.1270  201.4280  148.0650 O   0  0  0  0  0  1  0  0  0  0  0  0
  159.6880  202.4090  147.7900 O   0  0  0  0  0  0  0  0  0  0  0  0
  161.4310  203.9440  149.3040 C   0  0  1  0  0  3  0  0  0  0  0  0
  160.3650  201.6860  150.3550 C   0  0  2  0  0  3  0  0  0  0  0  0
  160.9150  204.0510  150.7300 C   0  0  1  0  0  3  0  0  0  0  0  0
  160.8620  202.3180  148.7420 P   0  0  2  0  0  0  0  0  0  0  0  0
  160.9780  202.6520  151.3520 C   0  0  0  0  0  2  0  0  0  0  0  0
  160.7600  205.2900  148.2710 S   0  0  0  0  0  0  0  0  0  0  0  0
  162.1810  205.2800  147.1300 C   0  0  0  0  0  2  0  0  0  0  0  0
  160.2980  206.1990  145.2670 C   0  0  0  0  0  1  0  0  0  0  0  0
  160.9910  204.8500  145.0920 C   0  0  1  0  0  0  0  0  0  0  0  0
  161.9300  204.3400  146.0450 N   0  0  0  0  0  0  0  0  0  0  0  0
  160.3990  203.8760  144.2880 O   0  0  0  0  0  1  0  0  0  0  0  0
  162.3840  204.9750  144.8280 N   0  0  0  0  0  2  0  0  0  0  0  0
  161.9550  209.1550  152.8360 N   0  0  0  0  0  2  0  0  0  0  0  0
  161.5480  210.4790  154.7020 O   0  0  0  0  0  0  0  0  0  0  0  0
  161.2600  210.2220  153.5050 C   0  0  0  0  0  0  0  0  0  0  0  0
  160.2400  211.0710  152.8020 C   0  0  0  0  0  2  0  0  0  0  0  0
  160.8590  211.8000  151.6190 C   0  0  0  0  0  2  0  0  0  0  0  0
  160.0680  213.0580  151.2680 C   0  0  0  0  0  2  0  0  0  0  0  0
  160.8280  213.1460  148.6150 P   0  0  0  0  0  2  0  0  0  0  0  0
  159.8740  214.0710  147.3520 C   0  0  0  0  0  1  0  0  0  0  0  0
  161.8130  211.8360  149.2150 O   0  0  0  0  0  0  0  0  0  0  0  0
  161.8710  214.4370  148.9450 O   0  0  0  0  0  1  0  0  0  0  0  0
  161.5110  211.6310  147.9160 C   0  0  0  0  0  1  0  0  0  0  0  0
  159.4870  212.9510  149.8640 C   0  0  0  0  0  2  0  0  0  0  0  0
  158.4750  213.4800  147.2060 C   0  0  0  0  0  2  0  0  0  0  0  0
  157.5940  213.8150  148.4120 C   0  0  0  0  0  2  0  0  0  0  0  0
  158.3930  214.0100  149.6990 C   0  0  0  0  0  2  0  0  0  0  0  0
  1  5  1  6  0  0  0
  1  6  1  0  0  0  0
  2  1  1  0  0  0  0
  2  9  1  0  0  0  0
  2  4  1  0  0  0  0
  2  3  1  0  0  0  0
  3  8  1  0  0  0  0
  4  7  1  0  0  0  0
  4  3  1  0  0  0  0
  5  6  1  0  0  0  0
  6 25  1  0  0  0  0
  9  6  1  0  0  0  0
  9  3  1  0  0  0  0
 11 16  1  0  0  0  0
 12 16  2  0  0  0  0
 13 15  1  0  0  0  0
 14 10  1  0  0  0  0
 14 17  1  0  0  0  0
 15 17  1  0  0  0  0
 15  4  1  0  0  0  0
 16 13  1  0  0  0  0
 16 14  1  0  0  0  0
 18 13  1  0  0  0  0
 19 18  1  0  0  0  0
 21 20  1  0  0  0  0
 21 22  1  0  0  0  0
 22 19  1  0  0  0  0
 23 21  1  0  0  0  0
 24 21  1  0  0  0  0
 24 22  1  0  0  0  0
 25 27  1  0  0  0  0
 27 26  2  0  0  0  0
 28 27  1  0  0  0  0
 29 28  1  0  0  0  0
 30 29  1  0  0  0  0
 31 34  1  0  0  0  0
 31 33  1  0  0  0  0
 35 33  1  0  0  0  0
 36 30  1  0  0  0  0
 37 32  1  0  0  0  0
 37 38  1  0  0  0  0
 38 39  1  0  0  0  0
 39 36  1  0  0  0  0
M  END
>  <MODEL>
8

>  <REMARK>
 VINA RESULT:      -4.7      3.715      8.748
  Name = 
  9 active torsions:
  status: ('A' for Active; 'I' for Inactive)
    1  A    between atoms: C_3  and  C_22
    2  A    between atoms: C_3  and  C_34
    3  A    between atoms: N_4  and  C_28
    4  A    between atoms: C_15  and  C_25
    5  A    between atoms: C_17  and  C_32
    6  A    between atoms: C_21  and  S_27
    7  A    between atoms: C_23  and  S_27
    8  A    between atoms: C_23  and  N_31
    9  A    between atoms: C_25  and  C_34
                            x       y       z     vdW  Elec       q    Type
                         _______ _______ _______ _____ _____    ______ ____

>  <TORSDO>
F 9

$$$$
=
 OpenBabel11072415033D

 39 43  0  0  1  0  0  0  0  0999 V2000
  162.5270  204.9670  151.9540 C   0  0  1  0  0  3  0  0  0  0  0  0
  161.5770  204.8650  150.7770 C   0  0  2  0  0  0  0  0  0  0  0  0
  160.1440  204.4730  151.2900 C   0  0  1  0  0  0  0  0  0  0  0  0
  160.9640  203.5310  150.4280 C   0  0  2  0  0  0  0  0  0  0  0  0
  163.0820  206.2530  152.0740 O   0  0  0  0  0  0  0  0  0  0  0  0
  161.7340  206.1270  152.4480 C   0  0  1  0  0  0  0  0  0  0  0  0
  161.5990  202.4490  151.0630 O   0  0  0  0  0  1  0  0  0  0  0  0
  160.0770  203.9290  152.5830 O   0  0  0  0  0  1  0  0  0  0  0  0
  160.6690  205.9070  151.3610 C   0  0  1  0  0  3  0  0  0  0  0  0
  161.5820  201.1630  146.2100 O   0  0  0  0  0  1  0  0  0  0  0  0
  162.8750  203.7830  145.7060 O   0  0  0  0  0  1  0  0  0  0  0  0
  160.3320  204.4810  145.5240 O   0  0  0  0  0  0  0  0  0  0  0  0
  161.3850  204.4560  148.0880 C   0  0  1  0  0  3  0  0  0  0  0  0
  160.7940  202.1190  146.8520 C   0  0  2  0  0  3  0  0  0  0  0  0
  160.6580  203.4210  148.9310 C   0  0  1  0  0  3  0  0  0  0  0  0
  161.3400  203.7780  146.4090 P   0  0  2  0  0  0  0  0  0  0  0  0
  160.9880  202.0400  148.3550 C   0  0  0  0  0  2  0  0  0  0  0  0
  160.5480  206.0740  148.1880 S   0  0  0  0  0  0  0  0  0  0  0  0
  162.0980  206.9890  148.4720 C   0  0  0  0  0  2  0  0  0  0  0  0
  161.9540  209.0400  150.3780 C   0  0  0  0  0  1  0  0  0  0  0  0
  161.9570  209.3490  148.8820 C   0  0  1  0  0  0  0  0  0  0  0  0
  161.9940  208.3200  147.8870 N   0  0  0  0  0  0  0  0  0  0  0  0
  161.4460  210.5670  148.4340 O   0  0  0  0  0  1  0  0  0  0  0  0
  163.1960  209.0350  148.2560 N   0  0  0  0  0  2  0  0  0  0  0  0
  161.4110  205.9830  153.8750 N   0  0  0  0  0  2  0  0  0  0  0  0
  160.3670  206.5860  155.8610 O   0  0  0  0  0  0  0  0  0  0  0  0
  160.8340  206.9630  154.7560 C   0  0  0  0  0  0  0  0  0  0  0  0
  160.8240  208.4270  154.4220 C   0  0  0  0  0  2  0  0  0  0  0  0
  160.0670  209.2230  155.4750 C   0  0  0  0  0  2  0  0  0  0  0  0
  160.0130  210.7060  155.1170 C   0  0  0  0  0  2  0  0  0  0  0  0
  158.6200  212.8320  154.0380 P   0  0  0  0  0  2  0  0  0  0  0  0
  156.9680  213.3350  154.6540 C   0  0  0  0  0  1  0  0  0  0  0  0
  159.8530  212.5750  152.8290 O   0  0  0  0  0  0  0  0  0  0  0  0
  159.4540  213.9040  155.0470 O   0  0  0  0  0  1  0  0  0  0  0  0
  158.7300  213.0510  152.2530 C   0  0  0  0  0  1  0  0  0  0  0  0
  158.6140  211.0970  154.6610 C   0  0  0  0  0  2  0  0  0  0  0  0
  155.9560  212.2150  154.4310 C   0  0  0  0  0  2  0  0  0  0  0  0
  156.1860  211.0480  155.3950 C   0  0  0  0  0  2  0  0  0  0  0  0
  157.6430  210.9120  155.8310 C   0  0  0  0  0  2  0  0  0  0  0  0
  1  5  1  6  0  0  0
  1  6  1  0  0  0  0
  2  3  1  0  0  0  0
  2  9  1  0  0  0  0
  2  1  1  0  0  0  0
  3  9  1  0  0  0  0
  3  8  1  0  0  0  0
  4  2  1  0  0  0  0
  4  7  1  0  0  0  0
  4  3  1  0  0  0  0
  5  6  1  0  0  0  0
  6 25  1  0  0  0  0
  9  6  1  0  0  0  0
 10 14  1  0  0  0  0
 11 16  1  0  0  0  0
 12 16  2  0  0  0  0
 13 18  1  0  0  0  0
 13 15  1  0  0  0  0
 14 17  1  0  0  0  0
 15  4  1  0  0  0  0
 16 14  1  0  0  0  0
 16 13  1  0  0  0  0
 17 15  1  0  0  0  0
 18 19  1  0  0  0  0
 21 20  1  0  0  0  0
 22 24  1  0  0  0  0
 22 19  1  0  0  0  0
 22 21  1  0  0  0  0
 23 21  1  0  0  0  0
 24 21  1  0  0  0  0
 25 27  1  0  0  0  0
 27 26  2  0  0  0  0
 28 27  1  0  0  0  0
 28 29  1  0  0  0  0
 30 29  1  0  0  0  0
 31 34  1  0  0  0  0
 33 31  1  0  0  0  0
 35 33  1  0  0  0  0
 36 30  1  0  0  0  0
 36 39  1  0  0  0  0
 37 32  1  0  0  0  0
 37 38  1  0  0  0  0
 38 39  1  0  0  0  0
M  END
>  <MODEL>
9

>  <REMARK>
 VINA RESULT:      -4.6      2.973      9.102
  Name = 
  9 active torsions:
  status: ('A' for Active; 'I' for Inactive)
    1  A    between atoms: C_3  and  C_22
    2  A    between atoms: C_3  and  C_34
    3  A    between atoms: N_4  and  C_28
    4  A    between atoms: C_15  and  C_25
    5  A    between atoms: C_17  and  C_32
    6  A    between atoms: C_21  and  S_27
    7  A    between atoms: C_23  and  S_27
    8  A    between atoms: C_23  and  N_31
    9  A    between atoms: C_25  and  C_34
                            x       y       z     vdW  Elec       q    Type
                         _______ _______ _______ _____ _____    ______ ____

>  <TORSDO>
F 9

$$$$
