=
 OpenBabel11072415163D

 40 43  0  0  1  0  0  0  0  0999 V2000
  161.4440  204.4590  150.5180 C   0  0  0  0  0  0  0  0  0  0  0  0
  160.2040  210.8540  155.7230 C   0  0  2  0  0  3  0  0  0  0  0  0
  161.9190  209.4370  150.5890 C   0  0  0  0  0  0  0  0  0  0  0  0
  162.0340  203.3510  150.3950 O   0  0  0  0  0  0  0  0  0  0  0  0
  160.7320  209.4430  155.9950 C   0  0  1  0  0  3  0  0  0  0  0  0
  160.8570  212.4520  149.8780 C   0  0  2  0  0  3  0  0  0  0  0  0
  159.1330  212.8840  152.5940 C   0  0  1  0  0  0  0  0  0  0  0  0
  161.9680  208.0460  150.5700 O   0  0  0  0  0  0  0  0  0  0  0  0
  160.2270  213.9410  152.3100 C   0  0  0  0  0  2  0  0  0  0  0  0
  160.3450  214.4530  150.8580 C   0  0  0  0  0  2  0  0  0  0  0  0
  160.4410  206.4960  149.5210 C   0  0  0  0  0  2  0  0  0  0  0  0
  157.7610  213.5200  152.4120 C   0  0  0  0  0  1  0  0  0  0  0  0
  158.4560  214.3310  155.0320 O   0  0  0  0  0  0  0  0  0  0  0  0
  160.8330  204.8760  151.8280 C   0  0  1  0  0  3  0  0  0  0  0  0
  160.6840  210.0890  150.6400 O   0  0  0  0  0  0  0  0  0  0  0  0
  160.0390  208.3320  155.1890 C   0  0  0  0  0  2  0  0  0  0  0  0
  160.6450  208.1340  153.8050 C   0  0  0  0  0  2  0  0  0  0  0  0
  160.8100  211.7970  148.5810 N   0  0  0  0  0  1  0  0  0  0  0  0
  158.7970  213.1210  155.1260 C   0  0  0  0  0  0  0  0  0  0  0  0
  160.5550  211.4520  151.0210 C   0  0  2  0  0  3  0  0  0  0  0  0
  160.7980  207.2710  150.7900 C   0  0  1  0  0  3  0  0  0  0  0  0
  158.7810  212.4290  156.4680 C   0  0  2  0  0  3  0  0  0  0  0  0
  161.2930  205.3260  149.3900 N   0  0  0  0  0  0  0  0  0  0  0  0
  158.9460  211.0370  156.3170 O   0  0  0  0  0  0  0  0  0  0  0  0
  159.1700  211.6870  151.6180 C   0  0  0  0  0  2  0  0  0  0  0  0
  159.9380  213.5200  149.8850 O   0  0  0  0  0  0  0  0  0  0  0  0
  162.9930  210.0960  150.5770 O   0  0  0  0  0  0  0  0  0  0  0  0
  159.3060  212.3990  153.9820 N   0  0  0  0  0  0  0  0  0  0  0  0
  160.1390  211.2070  154.2300 C   0  0  0  0  0  2  0  0  0  0  0  0
  161.9990  205.0850  148.1420 C   0  0  0  0  0  1  0  0  0  0  0  0
  161.4500  204.1180  152.9960 C   0  0  0  0  0  1  0  0  0  0  0  0
  160.9920  206.3930  152.0460 C   0  0  1  0  0  3  0  0  0  0  0  0
  160.0890  206.8680  153.1780 C   0  0  0  0  0  2  0  0  0  0  0  0
  162.2580  209.3990  155.9350 C   0  0  0  0  0  2  0  0  0  0  0  0
  162.8730  209.9750  157.1990 C   0  0  0  0  0  2  0  0  0  0  0  0
  163.5780  211.1430  156.9040 O   0  0  0  0  0  1  0  0  0  0  0  0
  157.5060  212.7300  157.2610 C   0  0  0  0  0  2  0  0  0  0  0  0
  155.4480  213.4430  156.2820 O   0  0  0  0  0  1  0  0  0  0  0  0
  156.2670  212.5030  156.4570 C   0  0  0  0  0  0  0  0  0  0  0  0
  156.0020  211.2480  155.9250 O   0  0  0  0  0  0  0  0  0  0  0  0
  1 14  1  0  0  0  0
  2 29  1  6  0  0  0
  2  5  1  0  0  0  0
  2 24  1  0  0  0  0
  3 15  1  0  0  0  0
  4  1  2  0  0  0  0
  5 34  1  6  0  0  0
  6 18  1  6  0  0  0
  6 26  1  0  0  0  0
  6 20  1  0  0  0  0
  7 12  1  6  0  0  0
  7 28  1  0  0  0  0
  8  3  1  0  0  0  0
  8 21  1  0  0  0  0
  9  7  1  0  0  0  0
 10  9  1  0  0  0  0
 13 19  2  0  0  0  0
 14 32  1  0  0  0  0
 14 31  1  1  0  0  0
 15 20  1  0  0  0  0
 16  5  1  0  0  0  0
 17 16  1  0  0  0  0
 19 22  1  0  0  0  0
 20 25  1  6  0  0  0
 21 11  1  6  0  0  0
 21 32  1  0  0  0  0
 22 37  1  6  0  0  0
 23 11  1  0  0  0  0
 23  1  1  0  0  0  0
 24 22  1  0  0  0  0
 25  7  1  0  0  0  0
 26 10  1  0  0  0  0
 27  3  2  0  0  0  0
 28 29  1  0  0  0  0
 28 19  1  0  0  0  0
 30 23  1  0  0  0  0
 32 33  1  1  0  0  0
 33 17  1  0  0  0  0
 34 35  1  0  0  0  0
 36 35  1  0  0  0  0
 38 39  1  0  0  0  0
 39 37  1  0  0  0  0
 40 39  2  0  0  0  0
M  END
>  <MODEL>
1

>  <REMARK>
 VINA RESULT:      -0.8      0.000      0.000
  Name = 
  4 active torsions:
  status: ('A' for Active; 'I' for Inactive)
    1  A    between atoms: C_3  and  C_18
    2  A    between atoms: C_7  and  C_18
    3  A    between atoms: C_21  and  C_38
    4  A    between atoms: C_26  and  C_38
                            x       y       z     vdW  Elec       q    Type
                         _______ _______ _______ _____ _____    ______ ____

>  <TORSDO>
F 4

$$$$
