=
 OpenBabel11072413373D

 43 49  0  0  1  0  0  0  0  0999 V2000
  162.5170  210.6900  153.2270 C   0  0  0  0  0  3  0  0  0  0  0  0
  161.8960  209.1410  154.9670 C   0  0  0  0  0  0  0  0  0  0  0  0
  161.3830  205.1190  152.2080 C   0  0  0  0  0  0  0  0  0  0  0  0
  161.1290  206.3940  151.6210 N   0  0  0  0  0  0  0  0  0  0  0  0
  162.5610  210.2940  154.5580 C   0  0  0  0  0  3  0  0  0  0  0  0
  160.9110  204.8140  153.5870 C   0  0  0  0  0  2  0  0  0  0  0  0
  161.8470  209.9180  152.2780 C   0  0  0  0  0  0  0  0  0  0  0  0
  162.0330  204.2540  151.5680 O   0  0  0  0  0  0  0  0  0  0  0  0
  161.2760  208.6720  152.6480 C   0  0  0  0  0  0  0  0  0  0  0  0
  161.3980  205.8760  154.5550 C   0  0  0  0  0  2  0  0  0  0  0  0
  161.8480  208.8390  156.3270 O   0  0  0  0  0  0  0  0  0  0  0  0
  162.6910  207.7450  150.4510 O   0  0  0  0  0  1  0  0  0  0  0  0
  160.5740  207.8010  151.6150 C   0  0  1  0  0  3  0  0  0  0  0  0
  159.6160  207.1600  155.7460 C   0  0  0  0  0  2  0  0  0  0  0  0
  161.3430  207.3800  150.5340 C   0  0  2  0  0  0  0  0  0  0  0  0
  160.4820  207.0830  154.4750 C   0  0  1  0  0  3  0  0  0  0  0  0
  161.2310  208.3260  154.0250 C   0  0  0  0  0  0  0  0  0  0  0  0
  160.6500  209.0070  157.0820 C   0  0  0  0  0  2  0  0  0  0  0  0
  159.4140  208.5600  156.3060 C   0  0  0  0  0  2  0  0  0  0  0  0
  161.6910  210.6040  150.6220 S   0  0  0  0  0  0  0  0  0  0  0  0
  159.3300  213.4730  149.8300 O   0  0  0  0  0  0  0  0  0  0  0  0
  160.3850  212.9990  150.6410 C   0  0  0  0  0  2  0  0  0  0  0  0
  157.0810  213.7880  152.6850 O   0  0  0  0  0  0  0  0  0  0  0  0
  158.1220  214.2220  151.8270 C   0  0  2  0  0  3  0  0  0  0  0  0
  159.9660  211.4600  152.5650 C   0  0  0  0  0  2  0  0  0  0  0  0
  160.2000  211.5420  151.0600 C   0  0  2  0  0  3  0  0  0  0  0  0
  158.1880  211.2630  154.1430 O   0  0  0  0  0  1  0  0  0  0  0  0
  158.1090  213.4000  150.5370 C   0  0  0  0  0  2  0  0  0  0  0  0
  158.5380  211.8530  152.9290 C   0  0  1  0  0  3  0  0  0  0  0  0
  158.3800  213.3760  153.0270 C   0  0  2  0  0  0  0  0  0  0  0  0
  158.8810  214.0150  154.2100 O   0  0  0  0  0  0  0  0  0  0  0  0
  158.3920  213.8570  155.5160 C   0  0  0  0  0  0  0  0  0  0  0  0
  157.1770  214.0320  155.7930 O   0  0  0  0  0  0  0  0  0  0  0  0
  159.3340  213.4670  156.5960 C   0  0  0  0  0  1  0  0  0  0  0  0
  160.6040  207.0460  149.2440 C   0  0  0  0  0  2  0  0  0  0  0  0
  162.4530  207.4240  147.5400 C   0  0  0  0  0  2  0  0  0  0  0  0
  161.5160  206.4700  148.1660 C   0  0  2  0  0  0  0  0  0  0  0  0
  161.2630  207.0150  146.8960 O   0  0  0  0  0  0  0  0  0  0  0  0
  161.8820  204.9750  148.1390 C   0  0  1  0  0  3  0  0  0  0  0  0
  160.8550  204.1750  148.6490 O   0  0  0  0  0  1  0  0  0  0  0  0
  162.2970  204.4730  146.7820 C   0  0  0  0  0  0  0  0  0  0  0  0
  161.3500  203.7460  145.8810 C   0  0  0  0  0  1  0  0  0  0  0  0
  163.4420  204.6550  146.4080 O   0  0  0  0  0  0  0  0  0  0  0  0
  1  5  1  0  0  0  0
  2 11  1  0  0  0  0
  3  6  1  0  0  0  0
  4  3  1  0  0  0  0
  5  2  2  0  0  0  0
  6 10  1  0  0  0  0
  7  9  1  0  0  0  0
  7  1  2  0  0  0  0
  8  3  2  0  0  0  0
  9 17  2  0  0  0  0
 11 18  1  0  0  0  0
 13  4  1  0  0  0  0
 13  9  1  1  0  0  0
 14 19  1  0  0  0  0
 15 12  1  6  0  0  0
 15 13  1  0  0  0  0
 15  4  1  0  0  0  0
 16 10  1  1  0  0  0
 16 14  1  0  0  0  0
 17 16  1  0  0  0  0
 17  2  1  0  0  0  0
 19 18  1  0  0  0  0
 20  7  1  0  0  0  0
 21 28  1  0  0  0  0
 21 22  1  0  0  0  0
 22 26  1  0  0  0  0
 23 30  1  0  0  0  0
 24 28  1  6  0  0  0
 24 23  1  0  0  0  0
 24 30  1  0  0  0  0
 25 29  1  0  0  0  0
 26 20  1  1  0  0  0
 26 25  1  0  0  0  0
 29 30  1  0  0  0  0
 29 27  1  1  0  0  0
 30 31  1  1  0  0  0
 31 32  1  0  0  0  0
 32 33  2  0  0  0  0
 32 34  1  0  0  0  0
 35 15  1  0  0  0  0
 36 37  1  0  0  0  0
 37 35  1  1  0  0  0
 38 36  1  0  0  0  0
 38 37  1  0  0  0  0
 39 37  1  0  0  0  0
 39 40  1  6  0  0  0
 41 39  1  0  0  0  0
 42 41  1  0  0  0  0
 43 41  2  0  0  0  0
M  END
>  <MODEL>
1

>  <REMARK>
 VINA RESULT:      -5.8      0.000      0.000
  Name = 
  8 active torsions:
  status: ('A' for Active; 'I' for Inactive)
    1  A    between atoms: C_3  and  C_12
    2  A    between atoms: C_3  and  C_21
    3  A    between atoms: O_4  and  C_14
    4  A    between atoms: O_4  and  C_43
    5  A    between atoms: C_12  and  C_37
    6  A    between atoms: C_16  and  S_30
    7  A    between atoms: C_29  and  C_37
    8  A    between atoms: S_30  and  C_31
                            x       y       z     vdW  Elec       q    Type
                         _______ _______ _______ _____ _____    ______ ____

>  <TORSDO>
F 8

$$$$
=
 OpenBabel11072413373D

 43 49  0  0  1  0  0  0  0  0999 V2000
  160.8710  207.2090  152.6720 C   0  0  0  0  0  3  0  0  0  0  0  0
  160.4240  207.7400  154.9820 C   0  0  0  0  0  0  0  0  0  0  0  0
  158.8890  212.3580  154.3790 C   0  0  0  0  0  0  0  0  0  0  0  0
  159.8340  211.8220  153.4560 N   0  0  0  0  0  0  0  0  0  0  0  0
  160.5200  206.8040  153.9550 C   0  0  0  0  0  3  0  0  0  0  0  0
  159.0150  212.0860  155.8370 C   0  0  0  0  0  2  0  0  0  0  0  0
  161.0870  208.5570  152.3870 C   0  0  0  0  0  0  0  0  0  0  0  0
  157.9250  213.0470  153.9570 O   0  0  0  0  0  0  0  0  0  0  0  0
  160.8650  209.5410  153.3860 C   0  0  0  0  0  0  0  0  0  0  0  0
  159.1080  210.5910  156.0850 C   0  0  0  0  0  2  0  0  0  0  0  0
  160.1980  207.2910  156.2810 O   0  0  0  0  0  0  0  0  0  0  0  0
  159.3430  210.7390  151.4020 O   0  0  0  0  0  1  0  0  0  0  0  0
  161.0600  211.0200  153.0790 C   0  0  1  0  0  3  0  0  0  0  0  0
  161.2050  209.8010  157.1880 C   0  0  0  0  0  2  0  0  0  0  0  0
  160.2690  211.5520  152.0650 C   0  0  2  0  0  0  0  0  0  0  0  0
  160.5340  210.1320  155.8430 C   0  0  1  0  0  3  0  0  0  0  0  0
  160.6110  209.1140  154.7170 C   0  0  0  0  0  0  0  0  0  0  0  0
  161.2360  207.2990  157.2600 C   0  0  0  0  0  2  0  0  0  0  0  0
  162.0890  208.5630  157.1810 C   0  0  0  0  0  2  0  0  0  0  0  0
  161.7130  208.9610  150.7500 S   0  0  0  0  0  0  0  0  0  0  0  0
  161.8460  205.1870  151.1680 O   0  0  0  0  0  0  0  0  0  0  0  0
  162.3770  206.3250  150.5210 C   0  0  0  0  0  2  0  0  0  0  0  0
  160.6960  203.7500  148.0200 O   0  0  0  0  0  0  0  0  0  0  0  0
  161.6660  204.0360  149.0120 C   0  0  2  0  0  3  0  0  0  0  0  0
  161.2210  207.3800  148.5730 C   0  0  0  0  0  2  0  0  0  0  0  0
  161.3000  207.3200  150.0950 C   0  0  2  0  0  3  0  0  0  0  0  0
  159.9430  206.5020  146.7590 O   0  0  0  0  0  1  0  0  0  0  0  0
  160.9750  204.5000  150.2960 C   0  0  0  0  0  2  0  0  0  0  0  0
  160.4780  206.1750  148.0050 C   0  0  1  0  0  3  0  0  0  0  0  0
  161.4010  204.9570  147.8700 C   0  0  2  0  0  0  0  0  0  0  0  0
  162.3150  204.9420  146.7640 O   0  0  0  0  0  0  0  0  0  0  0  0
  161.9780  204.9000  145.4030 C   0  0  0  0  0  0  0  0  0  0  0  0
  162.3900  205.7700  144.5920 O   0  0  0  0  0  0  0  0  0  0  0  0
  161.1170  203.7960  144.9070 C   0  0  0  0  0  1  0  0  0  0  0  0
  160.8050  212.7780  151.3360 C   0  0  0  0  0  2  0  0  0  0  0  0
  159.0470  214.4510  150.5820 C   0  0  0  0  0  2  0  0  0  0  0  0
  159.8710  213.2760  150.2380 C   0  0  2  0  0  0  0  0  0  0  0  0
  158.5150  213.1410  150.5800 O   0  0  0  0  0  0  0  0  0  0  0  0
  160.1660  213.0100  148.7520 C   0  0  1  0  0  3  0  0  0  0  0  0
  159.3340  213.7550  147.9110 O   0  0  0  0  0  1  0  0  0  0  0  0
  161.6060  213.2230  148.3680 C   0  0  0  0  0  0  0  0  0  0  0  0
  162.5270  212.0810  148.0750 C   0  0  0  0  0  1  0  0  0  0  0  0
  162.0390  214.3600  148.3020 O   0  0  0  0  0  0  0  0  0  0  0  0
  1  5  1  0  0  0  0
  2 11  1  0  0  0  0
  3  6  1  0  0  0  0
  4  3  1  0  0  0  0
  5  2  2  0  0  0  0
  6 10  1  0  0  0  0
  7  1  2  0  0  0  0
  7  9  1  0  0  0  0
  8  3  2  0  0  0  0
  9 17  2  0  0  0  0
 11 18  1  0  0  0  0
 13  9  1  6  0  0  0
 13  4  1  0  0  0  0
 15 12  1  6  0  0  0
 15 13  1  0  0  0  0
 15  4  1  0  0  0  0
 16 10  1  1  0  0  0
 16 14  1  0  0  0  0
 17  2  1  0  0  0  0
 17 16  1  0  0  0  0
 19 14  1  0  0  0  0
 19 18  1  0  0  0  0
 20  7  1  0  0  0  0
 22 21  1  0  0  0  0
 23 24  1  0  0  0  0
 24 28  1  1  0  0  0
 25 26  1  0  0  0  0
 26 22  1  0  0  0  0
 26 20  1  6  0  0  0
 28 21  1  0  0  0  0
 29 27  1  6  0  0  0
 29 25  1  0  0  0  0
 30 31  1  6  0  0  0
 30 29  1  0  0  0  0
 30 23  1  0  0  0  0
 30 24  1  0  0  0  0
 32 31  1  0  0  0  0
 33 32  2  0  0  0  0
 34 32  1  0  0  0  0
 35 15  1  0  0  0  0
 37 38  1  0  0  0  0
 37 36  1  0  0  0  0
 37 35  1  1  0  0  0
 38 36  1  0  0  0  0
 39 40  1  6  0  0  0
 39 37  1  0  0  0  0
 41 39  1  0  0  0  0
 42 41  1  0  0  0  0
 43 41  2  0  0  0  0
M  END
>  <MODEL>
2

>  <REMARK>
 VINA RESULT:      -5.7      1.838      7.831
  Name = 
  8 active torsions:
  status: ('A' for Active; 'I' for Inactive)
    1  A    between atoms: C_3  and  C_12
    2  A    between atoms: C_3  and  C_21
    3  A    between atoms: O_4  and  C_14
    4  A    between atoms: O_4  and  C_43
    5  A    between atoms: C_12  and  C_37
    6  A    between atoms: C_16  and  S_30
    7  A    between atoms: C_29  and  C_37
    8  A    between atoms: S_30  and  C_31
                            x       y       z     vdW  Elec       q    Type
                         _______ _______ _______ _____ _____    ______ ____

>  <TORSDO>
F 8

$$$$
=
 OpenBabel11072413373D

 43 49  0  0  1  0  0  0  0  0999 V2000
  160.7360  208.9460  153.0970 C   0  0  0  0  0  3  0  0  0  0  0  0
  159.7270  210.2770  154.8360 C   0  0  0  0  0  0  0  0  0  0  0  0
  158.2470  214.0590  152.0860 C   0  0  0  0  0  0  0  0  0  0  0  0
  159.4040  213.3270  151.6850 N   0  0  0  0  0  0  0  0  0  0  0  0
  160.0970  209.0350  154.3280 C   0  0  0  0  0  3  0  0  0  0  0  0
  158.0230  214.3960  153.5190 C   0  0  0  0  0  2  0  0  0  0  0  0
  160.9750  210.0910  152.3370 C   0  0  0  0  0  0  0  0  0  0  0  0
  157.3940  214.4000  151.2270 O   0  0  0  0  0  0  0  0  0  0  0  0
  160.4880  211.3500  152.7740 C   0  0  0  0  0  0  0  0  0  0  0  0
  158.0980  213.1420  154.3710 C   0  0  0  0  0  2  0  0  0  0  0  0
  159.2060  210.3480  156.1260 O   0  0  0  0  0  0  0  0  0  0  0  0
  159.4580  211.4750  150.2020 O   0  0  0  0  0  1  0  0  0  0  0  0
  160.7070  212.6030  151.9360 C   0  0  1  0  0  3  0  0  0  0  0  0
  159.8870  213.1170  156.1140 C   0  0  0  0  0  2  0  0  0  0  0  0
  160.1720  212.5920  150.6520 C   0  0  2  0  0  0  0  0  0  0  0  0
  159.5530  212.8090  154.6440 C   0  0  1  0  0  3  0  0  0  0  0  0
  159.9310  211.4500  154.0770 C   0  0  0  0  0  0  0  0  0  0  0  0
  159.9750  210.8690  157.2090 C   0  0  0  0  0  2  0  0  0  0  0  0
  160.7830  212.0970  156.8010 C   0  0  0  0  0  2  0  0  0  0  0  0
  161.9680  209.8970  150.8490 S   0  0  0  0  0  0  0  0  0  0  0  0
  162.0560  206.3430  152.1890 O   0  0  0  0  0  0  0  0  0  0  0  0
  162.5650  207.2660  151.2480 C   0  0  0  0  0  2  0  0  0  0  0  0
  160.6790  204.2100  149.5700 O   0  0  0  0  0  0  0  0  0  0  0  0
  161.7160  204.7000  150.4030 C   0  0  2  0  0  3  0  0  0  0  0  0
  161.3080  207.8430  149.1680 C   0  0  0  0  0  2  0  0  0  0  0  0
  161.4820  208.1600  150.6500 C   0  0  2  0  0  3  0  0  0  0  0  0
  159.9000  206.5870  147.7070 O   0  0  0  0  0  1  0  0  0  0  0  0
  161.1170  205.4910  151.5670 C   0  0  0  0  0  2  0  0  0  0  0  0
  160.5070  206.5610  148.9620 C   0  0  1  0  0  3  0  0  0  0  0  0
  161.3960  205.3170  149.0840 C   0  0  2  0  0  0  0  0  0  0  0  0
  162.2370  204.9960  147.9660 O   0  0  0  0  0  0  0  0  0  0  0  0
  161.8770  204.2440  146.8380 C   0  0  0  0  0  0  0  0  0  0  0  0
  161.3350  203.1120  146.9430 O   0  0  0  0  0  0  0  0  0  0  0  0
  162.1370  204.8010  145.4860 C   0  0  0  0  0  1  0  0  0  0  0  0
  160.8310  213.4920  149.6150 C   0  0  0  0  0  2  0  0  0  0  0  0
  159.3350  214.4370  147.7900 C   0  0  0  0  0  2  0  0  0  0  0  0
  160.2270  213.3430  148.2230 C   0  0  2  0  0  0  0  0  0  0  0  0
  158.8290  213.2020  148.2530 O   0  0  0  0  0  0  0  0  0  0  0  0
  160.9130  212.4970  147.1360 C   0  0  1  0  0  3  0  0  0  0  0  0
  160.1560  212.4400  145.9620 O   0  0  0  0  0  1  0  0  0  0  0  0
  162.3180  212.9340  146.8200 C   0  0  0  0  0  0  0  0  0  0  0  0
  162.6130  213.9800  145.7930 C   0  0  0  0  0  1  0  0  0  0  0  0
  163.2480  212.4120  147.4120 O   0  0  0  0  0  0  0  0  0  0  0  0
  1  5  1  0  0  0  0
  2 11  1  0  0  0  0
  3  6  1  0  0  0  0
  4 13  1  0  0  0  0
  4  3  1  0  0  0  0
  5  2  2  0  0  0  0
  6 10  1  0  0  0  0
  7  9  1  0  0  0  0
  7  1  2  0  0  0  0
  8  3  2  0  0  0  0
  9 17  2  0  0  0  0
 11 18  1  0  0  0  0
 13  9  1  1  0  0  0
 14 19  1  0  0  0  0
 15 12  1  6  0  0  0
 15  4  1  0  0  0  0
 15 13  1  0  0  0  0
 16 10  1  1  0  0  0
 16 14  1  0  0  0  0
 17 16  1  0  0  0  0
 17  2  1  0  0  0  0
 19 18  1  0  0  0  0
 20  7  1  0  0  0  0
 22 21  1  0  0  0  0
 23 24  1  0  0  0  0
 24 28  1  1  0  0  0
 25 26  1  0  0  0  0
 26 20  1  6  0  0  0
 26 22  1  0  0  0  0
 28 21  1  0  0  0  0
 29 27  1  6  0  0  0
 29 30  1  0  0  0  0
 29 25  1  0  0  0  0
 30 31  1  6  0  0  0
 30 23  1  0  0  0  0
 30 24  1  0  0  0  0
 32 33  2  0  0  0  0
 32 31  1  0  0  0  0
 34 32  1  0  0  0  0
 35 15  1  0  0  0  0
 36 37  1  0  0  0  0
 36 38  1  0  0  0  0
 37 38  1  0  0  0  0
 37 35  1  1  0  0  0
 39 40  1  6  0  0  0
 39 37  1  0  0  0  0
 41 39  1  0  0  0  0
 41 43  2  0  0  0  0
 42 41  1  0  0  0  0
M  END
>  <MODEL>
3

>  <REMARK>
 VINA RESULT:      -5.3      2.362      7.750
  Name = 
  8 active torsions:
  status: ('A' for Active; 'I' for Inactive)
    1  A    between atoms: C_3  and  C_12
    2  A    between atoms: C_3  and  C_21
    3  A    between atoms: O_4  and  C_14
    4  A    between atoms: O_4  and  C_43
    5  A    between atoms: C_12  and  C_37
    6  A    between atoms: C_16  and  S_30
    7  A    between atoms: C_29  and  C_37
    8  A    between atoms: S_30  and  C_31
                            x       y       z     vdW  Elec       q    Type
                         _______ _______ _______ _____ _____    ______ ____

>  <TORSDO>
F 8

$$$$
=
 OpenBabel11072413373D

 43 49  0  0  1  0  0  0  0  0999 V2000
  161.1710  206.6900  152.8170 C   0  0  0  0  0  3  0  0  0  0  0  0
  160.2900  207.7140  154.8140 C   0  0  0  0  0  0  0  0  0  0  0  0
  159.4460  212.1990  153.0180 C   0  0  0  0  0  0  0  0  0  0  0  0
  160.5050  211.4230  152.4620 N   0  0  0  0  0  0  0  0  0  0  0  0
  160.5050  206.5830  154.0310 C   0  0  0  0  0  3  0  0  0  0  0  0
  159.2170  212.2250  154.4890 C   0  0  0  0  0  2  0  0  0  0  0  0
  161.5920  207.9340  152.3460 C   0  0  0  0  0  0  0  0  0  0  0  0
  158.6800  212.8460  152.2590 O   0  0  0  0  0  0  0  0  0  0  0  0
  161.2670  209.1150  153.0630 C   0  0  0  0  0  0  0  0  0  0  0  0
  159.0880  210.8110  155.0250 C   0  0  0  0  0  2  0  0  0  0  0  0
  159.7360  207.5580  156.0830 O   0  0  0  0  0  0  0  0  0  0  0  0
  160.3600  209.9740  150.5870 O   0  0  0  0  0  1  0  0  0  0  0  0
  161.6870  210.4830  152.5420 C   0  0  1  0  0  3  0  0  0  0  0  0
  160.7910  210.1310  156.7210 C   0  0  0  0  0  2  0  0  0  0  0  0
  161.2020  210.8440  151.2880 C   0  0  2  0  0  0  0  0  0  0  0  0
  160.4720  210.2200  155.2180 C   0  0  1  0  0  3  0  0  0  0  0  0
  160.6810  208.9890  154.3510 C   0  0  0  0  0  0  0  0  0  0  0  0
  160.5280  207.7010  157.2610 C   0  0  0  0  0  2  0  0  0  0  0  0
  161.5120  208.8630  157.1540 C   0  0  0  0  0  2  0  0  0  0  0  0
  162.6040  207.9500  150.8580 S   0  0  0  0  0  0  0  0  0  0  0  0
  161.8840  204.2300  151.1340 O   0  0  0  0  0  0  0  0  0  0  0  0
  162.6210  205.2480  150.4880 C   0  0  0  0  0  2  0  0  0  0  0  0
  160.2270  203.2580  148.0340 O   0  0  0  0  0  0  0  0  0  0  0  0
  161.3000  203.2620  148.9590 C   0  0  2  0  0  3  0  0  0  0  0  0
  161.6160  206.6370  148.6710 C   0  0  0  0  0  2  0  0  0  0  0  0
  161.7790  206.4830  150.1800 C   0  0  2  0  0  3  0  0  0  0  0  0
  160.0530  206.1700  146.9300 O   0  0  0  0  0  1  0  0  0  0  0  0
  160.8210  203.8060  150.3070 C   0  0  0  0  0  2  0  0  0  0  0  0
  160.5780  205.6650  148.1190 C   0  0  1  0  0  3  0  0  0  0  0  0
  161.1820  204.2770  147.8730 C   0  0  2  0  0  0  0  0  0  0  0  0
  161.9930  204.1090  146.7010 O   0  0  0  0  0  0  0  0  0  0  0  0
  161.5350  203.8990  145.3920 C   0  0  0  0  0  0  0  0  0  0  0  0
  161.0140  202.8080  145.0390 O   0  0  0  0  0  0  0  0  0  0  0  0
  161.6630  204.9960  144.3990 C   0  0  0  0  0  1  0  0  0  0  0  0
  162.0170  211.8570  150.4930 C   0  0  0  0  0  2  0  0  0  0  0  0
  162.2920  210.6910  148.2520 C   0  0  0  0  0  2  0  0  0  0  0  0
  161.7150  211.8260  148.9990 C   0  0  2  0  0  0  0  0  0  0  0  0
  162.8680  211.9810  148.2110 O   0  0  0  0  0  0  0  0  0  0  0  0
  160.4680  212.5150  148.4180 C   0  0  1  0  0  3  0  0  0  0  0  0
  159.9420  213.4710  149.2930 O   0  0  0  0  0  1  0  0  0  0  0  0
  160.6870  213.1280  147.0600 C   0  0  0  0  0  0  0  0  0  0  0  0
  160.0070  212.6060  145.8350 C   0  0  0  0  0  1  0  0  0  0  0  0
  161.4490  214.0730  146.9530 O   0  0  0  0  0  0  0  0  0  0  0  0
  1  5  1  0  0  0  0
  2 11  1  0  0  0  0
  3  6  1  0  0  0  0
  4 13  1  0  0  0  0
  4  3  1  0  0  0  0
  5  2  2  0  0  0  0
  6 10  1  0  0  0  0
  7  1  2  0  0  0  0
  7  9  1  0  0  0  0
  8  3  2  0  0  0  0
  9 17  2  0  0  0  0
 11 18  1  0  0  0  0
 13  9  1  1  0  0  0
 14 19  1  0  0  0  0
 15 12  1  6  0  0  0
 15  4  1  0  0  0  0
 15 13  1  0  0  0  0
 16 10  1  1  0  0  0
 16 14  1  0  0  0  0
 17  2  1  0  0  0  0
 17 16  1  0  0  0  0
 19 18  1  0  0  0  0
 20  7  1  0  0  0  0
 22 21  1  0  0  0  0
 23 24  1  0  0  0  0
 24 28  1  1  0  0  0
 25 26  1  0  0  0  0
 26 22  1  0  0  0  0
 26 20  1  6  0  0  0
 28 21  1  0  0  0  0
 29 27  1  6  0  0  0
 29 25  1  0  0  0  0
 30 31  1  6  0  0  0
 30 23  1  0  0  0  0
 30 29  1  0  0  0  0
 30 24  1  0  0  0  0
 32 31  1  0  0  0  0
 33 32  2  0  0  0  0
 34 32  1  0  0  0  0
 35 15  1  0  0  0  0
 36 37  1  0  0  0  0
 37 35  1  1  0  0  0
 38 36  1  0  0  0  0
 38 37  1  0  0  0  0
 39 37  1  0  0  0  0
 39 40  1  1  0  0  0
 41 39  1  0  0  0  0
 42 41  1  0  0  0  0
 43 41  2  0  0  0  0
M  END
>  <MODEL>
4

>  <REMARK>
 VINA RESULT:      -4.8      2.224      7.777
  Name = 
  8 active torsions:
  status: ('A' for Active; 'I' for Inactive)
    1  A    between atoms: C_3  and  C_12
    2  A    between atoms: C_3  and  C_21
    3  A    between atoms: O_4  and  C_14
    4  A    between atoms: O_4  and  C_43
    5  A    between atoms: C_12  and  C_37
    6  A    between atoms: C_16  and  S_30
    7  A    between atoms: C_29  and  C_37
    8  A    between atoms: S_30  and  C_31
                            x       y       z     vdW  Elec       q    Type
                         _______ _______ _______ _____ _____    ______ ____

>  <TORSDO>
F 8

$$$$
=
 OpenBabel11072413373D

 43 49  0  0  1  0  0  0  0  0999 V2000
  162.5420  209.9170  150.5420 C   0  0  0  0  0  3  0  0  0  0  0  0
  161.5740  211.8550  149.4820 C   0  0  0  0  0  0  0  0  0  0  0  0
  159.1620  213.6670  153.3480 C   0  0  0  0  0  0  0  0  0  0  0  0
  159.3670  212.2580  153.2630 N   0  0  0  0  0  0  0  0  0  0  0  0
  162.5880  210.9040  149.5650 C   0  0  0  0  0  3  0  0  0  0  0  0
  158.7820  214.4510  152.1410 C   0  0  0  0  0  2  0  0  0  0  0  0
  161.5070  209.8920  151.4770 C   0  0  0  0  0  0  0  0  0  0  0  0
  159.3280  214.2580  154.4460 O   0  0  0  0  0  0  0  0  0  0  0  0
  160.5370  210.9280  151.4940 C   0  0  0  0  0  0  0  0  0  0  0  0
  159.7680  214.1920  151.0160 C   0  0  0  0  0  2  0  0  0  0  0  0
  161.5790  212.7520  148.4160 O   0  0  0  0  0  0  0  0  0  0  0  0
  161.1800  211.0370  154.1890 O   0  0  0  0  0  1  0  0  0  0  0  0
  159.4230  210.9350  152.5330 C   0  0  1  0  0  3  0  0  0  0  0  0
  158.8090  213.1920  148.9380 C   0  0  0  0  0  2  0  0  0  0  0  0
  159.8200  210.9810  153.8660 C   0  0  2  0  0  0  0  0  0  0  0  0
  159.4080  212.8910  150.3240 C   0  0  1  0  0  3  0  0  0  0  0  0
  160.5290  211.8710  150.4310 C   0  0  0  0  0  0  0  0  0  0  0  0
  160.6510  212.6290  147.3390 C   0  0  0  0  0  2  0  0  0  0  0  0
  159.2540  212.2540  147.8260 C   0  0  0  0  0  2  0  0  0  0  0  0
  161.4330  208.4760  152.5840 S   0  0  0  0  0  0  0  0  0  0  0  0
  161.2100  207.7260  148.8660 O   0  0  0  0  0  0  0  0  0  0  0  0
  160.6420  207.5410  150.1470 C   0  0  0  0  0  2  0  0  0  0  0  0
  161.8740  204.1600  148.4820 O   0  0  0  0  0  0  0  0  0  0  0  0
  161.0570  205.3170  148.4410 C   0  0  2  0  0  3  0  0  0  0  0  0
  161.5690  205.8710  151.7580 C   0  0  0  0  0  2  0  0  0  0  0  0
  161.6910  207.2970  151.2290 C   0  0  2  0  0  3  0  0  0  0  0  0
  162.5590  203.7170  151.4920 O   0  0  0  0  0  1  0  0  0  0  0  0
  161.9300  206.5720  148.4870 C   0  0  0  0  0  2  0  0  0  0  0  0
  162.1820  204.8630  150.7920 C   0  0  1  0  0  3  0  0  0  0  0  0
  161.2030  204.4890  149.6720 C   0  0  2  0  0  0  0  0  0  0  0  0
  160.1500  203.5700  149.9970 O   0  0  0  0  0  0  0  0  0  0  0  0
  160.1080  202.2030  149.6830 C   0  0  0  0  0  0  0  0  0  0  0  0
  159.1670  201.7070  149.0110 O   0  0  0  0  0  0  0  0  0  0  0  0
  161.2070  201.3220  150.1530 C   0  0  0  0  0  1  0  0  0  0  0  0
  158.8560  210.4100  154.8980 C   0  0  0  0  0  2  0  0  0  0  0  0
  158.5690  211.6030  157.1240 C   0  0  0  0  0  2  0  0  0  0  0  0
  159.3280  210.6140  156.3340 C   0  0  2  0  0  0  0  0  0  0  0  0
  159.8290  211.9070  156.5590 O   0  0  0  0  0  0  0  0  0  0  0  0
  160.0890  209.5120  157.0930 C   0  0  1  0  0  3  0  0  0  0  0  0
  159.6110  208.2360  156.7820 O   0  0  0  0  0  1  0  0  0  0  0  0
  161.5810  209.5610  156.9050 C   0  0  0  0  0  0  0  0  0  0  0  0
  162.3880  210.7690  157.2610 C   0  0  0  0  0  1  0  0  0  0  0  0
  162.1520  208.5900  156.4400 O   0  0  0  0  0  0  0  0  0  0  0  0
  1  7  1  0  0  0  0
  2  5  1  0  0  0  0
  2 17  2  0  0  0  0
  3  8  2  0  0  0  0
  4  3  1  0  0  0  0
  4 15  1  0  0  0  0
  5  1  2  0  0  0  0
  6  3  1  0  0  0  0
  7  9  2  0  0  0  0
  7 20  1  0  0  0  0
 10  6  1  0  0  0  0
 11  2  1  0  0  0  0
 13  9  1  6  0  0  0
 13  4  1  0  0  0  0
 13 15  1  0  0  0  0
 15 12  1  1  0  0  0
 15 35  1  0  0  0  0
 16 14  1  6  0  0  0
 16 17  1  0  0  0  0
 16 10  1  0  0  0  0
 17  9  1  0  0  0  0
 18 19  1  0  0  0  0
 18 11  1  0  0  0  0
 19 14  1  0  0  0  0
 21 22  1  0  0  0  0
 22 26  1  0  0  0  0
 23 30  1  0  0  0  0
 24 23  1  0  0  0  0
 24 28  1  1  0  0  0
 24 30  1  0  0  0  0
 26 25  1  0  0  0  0
 26 20  1  1  0  0  0
 28 21  1  0  0  0  0
 29 27  1  1  0  0  0
 29 25  1  0  0  0  0
 30 31  1  1  0  0  0
 30 29  1  0  0  0  0
 32 31  1  0  0  0  0
 32 34  1  0  0  0  0
 33 32  2  0  0  0  0
 37 35  1  6  0  0  0
 37 38  1  0  0  0  0
 37 39  1  0  0  0  0
 37 36  1  0  0  0  0
 38 36  1  0  0  0  0
 39 40  1  6  0  0  0
 41 39  1  0  0  0  0
 41 42  1  0  0  0  0
 43 41  2  0  0  0  0
M  END
>  <MODEL>
5

>  <REMARK>
 VINA RESULT:      -4.4      2.205      8.842
  Name = 
  8 active torsions:
  status: ('A' for Active; 'I' for Inactive)
    1  A    between atoms: C_3  and  C_12
    2  A    between atoms: C_3  and  C_21
    3  A    between atoms: O_4  and  C_14
    4  A    between atoms: O_4  and  C_43
    5  A    between atoms: C_12  and  C_37
    6  A    between atoms: C_16  and  S_30
    7  A    between atoms: C_29  and  C_37
    8  A    between atoms: S_30  and  C_31
                            x       y       z     vdW  Elec       q    Type
                         _______ _______ _______ _____ _____    ______ ____

>  <TORSDO>
F 8

$$$$
=
 OpenBabel11072413373D

 43 49  0  0  1  0  0  0  0  0999 V2000
  162.5100  209.9380  150.7790 C   0  0  0  0  0  3  0  0  0  0  0  0
  161.6270  211.9030  149.6960 C   0  0  0  0  0  0  0  0  0  0  0  0
  158.9400  213.6350  153.4140 C   0  0  0  0  0  0  0  0  0  0  0  0
  159.1480  212.2280  153.3120 N   0  0  0  0  0  0  0  0  0  0  0  0
  162.6300  210.9460  149.8310 C   0  0  0  0  0  3  0  0  0  0  0  0
  158.6530  214.4480  152.2010 C   0  0  0  0  0  2  0  0  0  0  0  0
  161.4090  209.8950  151.6340 C   0  0  0  0  0  0  0  0  0  0  0  0
  159.0260  214.2000  154.5340 O   0  0  0  0  0  0  0  0  0  0  0  0
  160.4420  210.9340  151.6040 C   0  0  0  0  0  0  0  0  0  0  0  0
  159.7180  214.2110  151.1460 C   0  0  0  0  0  2  0  0  0  0  0  0
  161.7130  212.8240  148.6530 O   0  0  0  0  0  0  0  0  0  0  0  0
  160.8860  210.9800  154.3400 O   0  0  0  0  0  1  0  0  0  0  0  0
  159.2550  210.9220  152.5570 C   0  0  1  0  0  3  0  0  0  0  0  0
  158.9130  213.2620  148.9800 C   0  0  0  0  0  2  0  0  0  0  0  0
  159.5520  210.9360  153.9170 C   0  0  2  0  0  0  0  0  0  0  0  0
  159.4070  212.9280  150.3990 C   0  0  1  0  0  3  0  0  0  0  0  0
  160.5150  211.9010  150.5650 C   0  0  0  0  0  0  0  0  0  0  0  0
  160.8660  212.7290  147.5090 C   0  0  0  0  0  2  0  0  0  0  0  0
  159.4360  212.3480  147.8820 C   0  0  0  0  0  2  0  0  0  0  0  0
  161.2510  208.4540  152.7000 S   0  0  0  0  0  0  0  0  0  0  0  0
  161.1860  207.7620  148.9650 O   0  0  0  0  0  0  0  0  0  0  0  0
  160.5760  207.5410  150.2200 C   0  0  0  0  0  2  0  0  0  0  0  0
  161.9530  204.2200  148.5500 O   0  0  0  0  0  0  0  0  0  0  0  0
  161.1080  205.3570  148.4960 C   0  0  2  0  0  3  0  0  0  0  0  0
  161.4820  205.8680  151.8390 C   0  0  0  0  0  2  0  0  0  0  0  0
  161.5890  207.3050  151.3370 C   0  0  2  0  0  3  0  0  0  0  0  0
  162.5340  203.7430  151.5770 O   0  0  0  0  0  1  0  0  0  0  0  0
  161.9490  206.6320  148.5950 C   0  0  0  0  0  2  0  0  0  0  0  0
  162.1560  204.8910  150.8810 C   0  0  1  0  0  3  0  0  0  0  0  0
  161.2290  204.5130  149.7190 C   0  0  2  0  0  0  0  0  0  0  0  0
  160.1870  203.5630  149.9890 O   0  0  0  0  0  0  0  0  0  0  0  0
  160.1750  202.2090  149.6200 C   0  0  0  0  0  0  0  0  0  0  0  0
  159.6110  201.8160  148.5660 O   0  0  0  0  0  0  0  0  0  0  0  0
  160.8510  201.2180  150.4950 C   0  0  0  0  0  1  0  0  0  0  0  0
  158.5140  210.3450  154.8620 C   0  0  0  0  0  2  0  0  0  0  0  0
  159.5940  211.6960  156.7240 C   0  0  0  0  0  2  0  0  0  0  0  0
  158.3500  211.1480  156.1480 C   0  0  2  0  0  0  0  0  0  0  0  0
  158.9760  210.5380  157.2490 O   0  0  0  0  0  0  0  0  0  0  0  0
  157.0240  211.8460  156.4960 C   0  0  1  0  0  3  0  0  0  0  0  0
  157.2010  213.2090  156.7490 O   0  0  0  0  0  1  0  0  0  0  0  0
  155.9440  211.6510  155.4660 C   0  0  0  0  0  0  0  0  0  0  0  0
  155.2010  210.3610  155.3270 C   0  0  0  0  0  1  0  0  0  0  0  0
  155.6700  212.5710  154.7140 O   0  0  0  0  0  0  0  0  0  0  0  0
  1  7  1  0  0  0  0
  2  5  1  0  0  0  0
  2 17  2  0  0  0  0
  3  8  2  0  0  0  0
  4  3  1  0  0  0  0
  4 15  1  0  0  0  0
  5  1  2  0  0  0  0
  6  3  1  0  0  0  0
  7 20  1  0  0  0  0
  9  7  2  0  0  0  0
 10  6  1  0  0  0  0
 11  2  1  0  0  0  0
 13  9  1  6  0  0  0
 13  4  1  0  0  0  0
 13 15  1  0  0  0  0
 15 12  1  1  0  0  0
 15 35  1  0  0  0  0
 16 14  1  6  0  0  0
 16 17  1  0  0  0  0
 16 10  1  0  0  0  0
 17  9  1  0  0  0  0
 18 19  1  0  0  0  0
 18 11  1  0  0  0  0
 19 14  1  0  0  0  0
 21 22  1  0  0  0  0
 22 26  1  0  0  0  0
 23 30  1  0  0  0  0
 24 23  1  0  0  0  0
 24 28  1  1  0  0  0
 24 30  1  0  0  0  0
 26 25  1  0  0  0  0
 26 20  1  1  0  0  0
 28 21  1  0  0  0  0
 29 27  1  1  0  0  0
 29 25  1  0  0  0  0
 30 31  1  1  0  0  0
 30 29  1  0  0  0  0
 32 31  1  0  0  0  0
 32 34  1  0  0  0  0
 33 32  2  0  0  0  0
 36 38  1  0  0  0  0
 37 35  1  6  0  0  0
 37 39  1  0  0  0  0
 37 36  1  0  0  0  0
 37 38  1  0  0  0  0
 39 40  1  6  0  0  0
 41 39  1  0  0  0  0
 42 41  1  0  0  0  0
 43 41  2  0  0  0  0
M  END
>  <MODEL>
6

>  <REMARK>
 VINA RESULT:      -4.2      2.347      9.109
  Name = 
  8 active torsions:
  status: ('A' for Active; 'I' for Inactive)
    1  A    between atoms: C_3  and  C_12
    2  A    between atoms: C_3  and  C_21
    3  A    between atoms: O_4  and  C_14
    4  A    between atoms: O_4  and  C_43
    5  A    between atoms: C_12  and  C_37
    6  A    between atoms: C_16  and  S_30
    7  A    between atoms: C_29  and  C_37
    8  A    between atoms: S_30  and  C_31
                            x       y       z     vdW  Elec       q    Type
                         _______ _______ _______ _____ _____    ______ ____

>  <TORSDO>
F 8

$$$$
=
 OpenBabel11072413373D

 43 49  0  0  1  0  0  0  0  0999 V2000
  160.5380  213.3550  150.6640 C   0  0  0  0  0  3  0  0  0  0  0  0
  159.1030  213.4230  152.6010 C   0  0  0  0  0  0  0  0  0  0  0  0
  160.9380  209.5590  154.9980 C   0  0  0  0  0  0  0  0  0  0  0  0
  160.9930  209.5740  153.5730 N   0  0  0  0  0  0  0  0  0  0  0  0
  159.7480  214.0740  151.5520 C   0  0  0  0  0  3  0  0  0  0  0  0
  159.7190  210.0280  155.7140 C   0  0  0  0  0  2  0  0  0  0  0  0
  160.7320  211.9850  150.8360 C   0  0  0  0  0  0  0  0  0  0  0  0
  161.9350  209.1700  155.6580 O   0  0  0  0  0  0  0  0  0  0  0  0
  160.1950  211.3260  151.9730 C   0  0  0  0  0  0  0  0  0  0  0  0
  159.3430  211.4230  155.2500 C   0  0  0  0  0  2  0  0  0  0  0  0
  158.2160  214.1450  153.3970 O   0  0  0  0  0  0  0  0  0  0  0  0
  162.7860  210.3760  152.2390 O   0  0  0  0  0  1  0  0  0  0  0  0
  160.4300  209.8380  152.1950 C   0  0  1  0  0  3  0  0  0  0  0  0
  157.0920  211.6460  154.1900 C   0  0  0  0  0  2  0  0  0  0  0  0
  161.7560  209.4310  152.3100 C   0  0  2  0  0  0  0  0  0  0  0  0
  158.5780  211.3260  153.9430 C   0  0  1  0  0  3  0  0  0  0  0  0
  159.3030  212.0420  152.8160 C   0  0  0  0  0  0  0  0  0  0  0  0
  156.8050  213.9630  153.2870 C   0  0  0  0  0  2  0  0  0  0  0  0
  156.4280  212.4940  153.1160 C   0  0  0  0  0  2  0  0  0  0  0  0
  161.6180  211.1100  149.5370 S   0  0  0  0  0  0  0  0  0  0  0  0
  158.6910  212.8480  147.8510 O   0  0  0  0  0  0  0  0  0  0  0  0
  159.6460  211.8090  147.7870 C   0  0  0  0  0  2  0  0  0  0  0  0
  160.0180  214.4530  144.8570 O   0  0  0  0  0  0  0  0  0  0  0  0
  159.2330  213.4980  145.5510 C   0  0  2  0  0  3  0  0  0  0  0  0
  162.0020  212.2410  147.0770 C   0  0  0  0  0  2  0  0  0  0  0  0
  161.0310  212.2500  148.2530 C   0  0  2  0  0  3  0  0  0  0  0  0
  162.9840  213.7270  145.4890 O   0  0  0  0  0  1  0  0  0  0  0  0
  159.0840  213.9160  147.0160 C   0  0  0  0  0  2  0  0  0  0  0  0
  161.8030  213.4600  146.1800 C   0  0  1  0  0  3  0  0  0  0  0  0
  160.6560  213.2440  145.1850 C   0  0  2  0  0  0  0  0  0  0  0  0
  160.9220  212.4190  144.0410 O   0  0  0  0  0  0  0  0  0  0  0  0
  161.0400  212.8480  142.7110 C   0  0  0  0  0  0  0  0  0  0  0  0
  160.0670  213.3480  142.0880 O   0  0  0  0  0  0  0  0  0  0  0  0
  162.3500  212.7150  142.0230 C   0  0  0  0  0  1  0  0  0  0  0  0
  162.0750  207.9870  151.9410 C   0  0  0  0  0  2  0  0  0  0  0  0
  162.6410  207.8340  149.4690 C   0  0  0  0  0  2  0  0  0  0  0  0
  161.6360  207.6200  150.5280 C   0  0  2  0  0  0  0  0  0  0  0  0
  161.5720  208.7360  149.6760 O   0  0  0  0  0  0  0  0  0  0  0  0
  160.5290  206.5820  150.2750 C   0  0  1  0  0  3  0  0  0  0  0  0
  160.1160  206.5720  148.9390 O   0  0  0  0  0  1  0  0  0  0  0  0
  160.8900  205.1870  150.7110 C   0  0  0  0  0  0  0  0  0  0  0  0
  160.8050  204.0180  149.7820 C   0  0  0  0  0  1  0  0  0  0  0  0
  161.2530  205.0010  151.8590 O   0  0  0  0  0  0  0  0  0  0  0  0
  1  7  2  0  0  0  0
  1  5  1  0  0  0  0
  2 17  1  0  0  0  0
  2 11  1  0  0  0  0
  3  8  2  0  0  0  0
  3  6  1  0  0  0  0
  4  3  1  0  0  0  0
  5  2  2  0  0  0  0
  7  9  1  0  0  0  0
  9 17  2  0  0  0  0
 10  6  1  0  0  0  0
 13  9  1  1  0  0  0
 13 15  1  0  0  0  0
 13  4  1  0  0  0  0
 15 12  1  6  0  0  0
 15  4  1  0  0  0  0
 16 14  1  1  0  0  0
 16 10  1  0  0  0  0
 17 16  1  0  0  0  0
 18 11  1  0  0  0  0
 19 18  1  0  0  0  0
 19 14  1  0  0  0  0
 20  7  1  0  0  0  0
 22 21  1  0  0  0  0
 22 26  1  0  0  0  0
 23 30  1  0  0  0  0
 23 24  1  0  0  0  0
 24 28  1  1  0  0  0
 25 26  1  0  0  0  0
 26 20  1  1  0  0  0
 28 21  1  0  0  0  0
 29 27  1  6  0  0  0
 29 25  1  0  0  0  0
 30 31  1  6  0  0  0
 30 24  1  0  0  0  0
 30 29  1  0  0  0  0
 32 31  1  0  0  0  0
 33 32  2  0  0  0  0
 34 32  1  0  0  0  0
 35 15  1  0  0  0  0
 36 38  1  0  0  0  0
 36 37  1  0  0  0  0
 37 35  1  1  0  0  0
 38 37  1  0  0  0  0
 39 40  1  6  0  0  0
 39 37  1  0  0  0  0
 39 41  1  0  0  0  0
 41 43  2  0  0  0  0
 42 41  1  0  0  0  0
M  END
>  <MODEL>
7

>  <REMARK>
 VINA RESULT:      -3.8      3.334      6.305
  Name = 
  8 active torsions:
  status: ('A' for Active; 'I' for Inactive)
    1  A    between atoms: C_3  and  C_12
    2  A    between atoms: C_3  and  C_21
    3  A    between atoms: O_4  and  C_14
    4  A    between atoms: O_4  and  C_43
    5  A    between atoms: C_12  and  C_37
    6  A    between atoms: C_16  and  S_30
    7  A    between atoms: C_29  and  C_37
    8  A    between atoms: S_30  and  C_31
                            x       y       z     vdW  Elec       q    Type
                         _______ _______ _______ _____ _____    ______ ____

>  <TORSDO>
F 8

$$$$
=
 OpenBabel11072413373D

 43 49  0  0  1  0  0  0  0  0999 V2000
  163.1870  210.3880  151.2590 C   0  0  0  0  0  3  0  0  0  0  0  0
  162.3420  210.0690  153.4950 C   0  0  0  0  0  0  0  0  0  0  0  0
  160.8810  205.4080  153.0600 C   0  0  0  0  0  0  0  0  0  0  0  0
  160.8680  206.2440  151.9050 N   0  0  0  0  0  0  0  0  0  0  0  0
  163.2110  210.7050  152.6110 C   0  0  0  0  0  3  0  0  0  0  0  0
  160.4230  205.9290  154.3770 C   0  0  0  0  0  2  0  0  0  0  0  0
  162.3280  209.4000  150.7760 C   0  0  0  0  0  0  0  0  0  0  0  0
  161.3080  204.2280  152.9740 O   0  0  0  0  0  0  0  0  0  0  0  0
  161.5300  208.6470  151.6770 C   0  0  0  0  0  0  0  0  0  0  0  0
  161.1630  207.2090  154.7220 C   0  0  0  0  0  2  0  0  0  0  0  0
  162.2980  210.4980  154.8200 O   0  0  0  0  0  0  0  0  0  0  0  0
  162.6190  206.4880  150.3200 O   0  0  0  0  0  1  0  0  0  0  0  0
  160.6160  207.5410  151.1700 C   0  0  1  0  0  3  0  0  0  0  0  0
  159.7430  209.2430  155.0070 C   0  0  0  0  0  2  0  0  0  0  0  0
  161.2290  206.4930  150.4890 C   0  0  2  0  0  0  0  0  0  0  0  0
  160.5130  208.3730  153.9980 C   0  0  1  0  0  3  0  0  0  0  0  0
  161.4810  209.0470  153.0400 C   0  0  0  0  0  0  0  0  0  0  0  0
  161.1970  211.2570  155.3170 C   0  0  0  0  0  2  0  0  0  0  0  0
  159.8600  210.7440  154.7880 C   0  0  0  0  0  2  0  0  0  0  0  0
  162.2380  209.1890  148.9920 S   0  0  0  0  0  0  0  0  0  0  0  0
  160.8270  212.3740  150.5080 O   0  0  0  0  0  0  0  0  0  0  0  0
  160.5590  211.1810  149.7980 C   0  0  0  0  0  2  0  0  0  0  0  0
  159.7260  214.4530  147.7210 O   0  0  0  0  0  0  0  0  0  0  0  0
  159.5230  213.6490  148.8700 C   0  0  2  0  0  3  0  0  0  0  0  0
  161.0020  210.9910  147.3470 C   0  0  0  0  0  2  0  0  0  0  0  0
  161.6150  210.8740  148.7390 C   0  0  2  0  0  3  0  0  0  0  0  0
  160.8370  212.5310  145.5320 O   0  0  0  0  0  1  0  0  0  0  0  0
  160.8460  213.4700  149.6170 C   0  0  0  0  0  2  0  0  0  0  0  0
  160.8540  212.4490  146.9230 C   0  0  1  0  0  3  0  0  0  0  0  0
  159.5750  213.0740  147.4960 C   0  0  2  0  0  0  0  0  0  0  0  0
  158.3350  212.7400  146.8560 O   0  0  0  0  0  0  0  0  0  0  0  0
  157.3740  213.6410  146.3740 C   0  0  0  0  0  0  0  0  0  0  0  0
  157.3720  214.0280  145.1760 O   0  0  0  0  0  0  0  0  0  0  0  0
  156.3300  214.1460  147.3010 C   0  0  0  0  0  1  0  0  0  0  0  0
  160.3780  205.7200  149.4890 C   0  0  0  0  0  2  0  0  0  0  0  0
  160.4580  203.1850  149.6440 C   0  0  0  0  0  2  0  0  0  0  0  0
  161.0200  204.4110  149.0440 C   0  0  2  0  0  0  0  0  0  0  0  0
  161.6740  203.7460  150.0950 O   0  0  0  0  0  0  0  0  0  0  0  0
  161.7380  204.2880  147.6890 C   0  0  1  0  0  3  0  0  0  0  0  0
  161.2250  203.2410  146.9170 O   0  0  0  0  0  1  0  0  0  0  0  0
  161.7470  205.5610  146.8860 C   0  0  0  0  0  0  0  0  0  0  0  0
  160.7570  205.8190  145.7950 C   0  0  0  0  0  1  0  0  0  0  0  0
  162.5930  206.4060  147.1240 O   0  0  0  0  0  0  0  0  0  0  0  0
  1  5  1  0  0  0  0
  2 11  1  0  0  0  0
  3  6  1  0  0  0  0
  4  3  1  0  0  0  0
  5  2  2  0  0  0  0
  6 10  1  0  0  0  0
  7  1  2  0  0  0  0
  7  9  1  0  0  0  0
  8  3  2  0  0  0  0
  9 17  2  0  0  0  0
 11 18  1  0  0  0  0
 13  9  1  1  0  0  0
 13  4  1  0  0  0  0
 15 12  1  6  0  0  0
 15 13  1  0  0  0  0
 15  4  1  0  0  0  0
 16 10  1  1  0  0  0
 16 14  1  0  0  0  0
 17  2  1  0  0  0  0
 17 16  1  0  0  0  0
 19 14  1  0  0  0  0
 19 18  1  0  0  0  0
 20  7  1  0  0  0  0
 22 21  1  0  0  0  0
 23 24  1  0  0  0  0
 24 28  1  1  0  0  0
 25 26  1  0  0  0  0
 26 20  1  1  0  0  0
 26 22  1  0  0  0  0
 28 21  1  0  0  0  0
 29 27  1  6  0  0  0
 29 25  1  0  0  0  0
 29 30  1  0  0  0  0
 30 31  1  6  0  0  0
 30 23  1  0  0  0  0
 30 24  1  0  0  0  0
 32 31  1  0  0  0  0
 32 34  1  0  0  0  0
 33 32  2  0  0  0  0
 35 15  1  0  0  0  0
 36 38  1  0  0  0  0
 37 35  1  1  0  0  0
 37 36  1  0  0  0  0
 37 38  1  0  0  0  0
 39 40  1  6  0  0  0
 39 37  1  0  0  0  0
 41 43  2  0  0  0  0
 41 39  1  0  0  0  0
 42 41  1  0  0  0  0
M  END
>  <MODEL>
8

>  <REMARK>
 VINA RESULT:      -3.6      2.307      4.126
  Name = 
  8 active torsions:
  status: ('A' for Active; 'I' for Inactive)
    1  A    between atoms: C_3  and  C_12
    2  A    between atoms: C_3  and  C_21
    3  A    between atoms: O_4  and  C_14
    4  A    between atoms: O_4  and  C_43
    5  A    between atoms: C_12  and  C_37
    6  A    between atoms: C_16  and  S_30
    7  A    between atoms: C_29  and  C_37
    8  A    between atoms: S_30  and  C_31
                            x       y       z     vdW  Elec       q    Type
                         _______ _______ _______ _____ _____    ______ ____

>  <TORSDO>
F 8

$$$$
=
 OpenBabel11072413373D

 43 49  0  0  1  0  0  0  0  0999 V2000
  161.1460  208.7450  147.5040 C   0  0  0  0  0  3  0  0  0  0  0  0
  161.1160  206.4160  146.8800 C   0  0  0  0  0  0  0  0  0  0  0  0
  160.7660  204.4680  151.3670 C   0  0  0  0  0  0  0  0  0  0  0  0
  161.4300  205.7200  151.2100 N   0  0  0  0  0  0  0  0  0  0  0  0
  160.8500  207.7500  146.5800 C   0  0  0  0  0  3  0  0  0  0  0  0
  160.9810  203.3680  150.3870 C   0  0  0  0  0  2  0  0  0  0  0  0
  161.6690  208.4190  148.7550 C   0  0  0  0  0  0  0  0  0  0  0  0
  159.9710  204.2980  152.3260 O   0  0  0  0  0  0  0  0  0  0  0  0
  161.8230  207.0590  149.1320 C   0  0  0  0  0  0  0  0  0  0  0  0
  160.7140  203.8620  148.9770 C   0  0  0  0  0  2  0  0  0  0  0  0
  160.9300  205.4540  145.8890 O   0  0  0  0  0  0  0  0  0  0  0  0
  160.4470  207.8720  151.3970 O   0  0  0  0  0  1  0  0  0  0  0  0
  162.3570  206.6870  150.5080 C   0  0  1  0  0  3  0  0  0  0  0  0
  162.6470  203.7490  147.3990 C   0  0  0  0  0  2  0  0  0  0  0  0
  161.6210  207.1370  151.6010 C   0  0  2  0  0  0  0  0  0  0  0  0
  161.9360  204.6010  148.4650 C   0  0  1  0  0  3  0  0  0  0  0  0
  161.6200  206.0540  148.1480 C   0  0  0  0  0  0  0  0  0  0  0  0
  162.0390  204.8430  145.2320 C   0  0  0  0  0  2  0  0  0  0  0  0
  163.1750  204.5220  146.2000 C   0  0  0  0  0  2  0  0  0  0  0  0
  162.1890  209.7820  149.8090 S   0  0  0  0  0  0  0  0  0  0  0  0
  163.7030  212.5740  147.7260 O   0  0  0  0  0  0  0  0  0  0  0  0
  162.8390  212.2260  148.7880 C   0  0  0  0  0  2  0  0  0  0  0  0
  160.9730  214.0240  145.7890 O   0  0  0  0  0  0  0  0  0  0  0  0
  161.9730  214.0400  146.7920 C   0  0  2  0  0  3  0  0  0  0  0  0
  160.5180  211.4010  148.3710 C   0  0  0  0  0  2  0  0  0  0  0  0
  161.9860  210.9990  148.4790 C   0  0  2  0  0  3  0  0  0  0  0  0
  158.8680  211.9240  146.7290 O   0  0  0  0  0  1  0  0  0  0  0  0
  162.9470  212.8800  146.5720 C   0  0  0  0  0  2  0  0  0  0  0  0
  160.2200  212.0730  147.0340 C   0  0  1  0  0  3  0  0  0  0  0  0
  160.5870  213.5620  147.0590 C   0  0  2  0  0  0  0  0  0  0  0  0
  159.6830  214.4520  147.7320 O   0  0  0  0  0  0  0  0  0  0  0  0
  159.3680  214.4450  149.0990 C   0  0  0  0  0  0  0  0  0  0  0  0
  160.2620  214.4530  149.9840 O   0  0  0  0  0  0  0  0  0  0  0  0
  157.9400  214.4350  149.5090 C   0  0  0  0  0  1  0  0  0  0  0  0
  162.3690  207.3200  152.9160 C   0  0  0  0  0  2  0  0  0  0  0  0
  161.1970  207.0780  155.1580 C   0  0  0  0  0  2  0  0  0  0  0  0
  161.5110  207.9490  154.0080 C   0  0  2  0  0  0  0  0  0  0  0  0
  160.2560  207.3290  154.1330 O   0  0  0  0  0  0  0  0  0  0  0  0
  161.4750  209.4720  154.2240 C   0  0  1  0  0  3  0  0  0  0  0  0
  162.3400  210.1450  153.3550 O   0  0  0  0  0  1  0  0  0  0  0  0
  160.0960  210.0690  154.1400 C   0  0  0  0  0  0  0  0  0  0  0  0
  159.5580  210.6470  152.8700 C   0  0  0  0  0  1  0  0  0  0  0  0
  159.3980  210.0910  155.1390 O   0  0  0  0  0  0  0  0  0  0  0  0
  1  7  1  0  0  0  0
  2 17  2  0  0  0  0
  3  8  2  0  0  0  0
  4  3  1  0  0  0  0
  4 15  1  0  0  0  0
  5  2  1  0  0  0  0
  5  1  2  0  0  0  0
  6  3  1  0  0  0  0
  7  9  2  0  0  0  0
  7 20  1  0  0  0  0
 10  6  1  0  0  0  0
 11  2  1  0  0  0  0
 13  9  1  6  0  0  0
 13  4  1  0  0  0  0
 13 15  1  0  0  0  0
 15 12  1  6  0  0  0
 15 35  1  0  0  0  0
 16 14  1  6  0  0  0
 16 10  1  0  0  0  0
 17 16  1  0  0  0  0
 17  9  1  0  0  0  0
 18 11  1  0  0  0  0
 18 19  1  0  0  0  0
 19 14  1  0  0  0  0
 21 22  1  0  0  0  0
 23 24  1  0  0  0  0
 23 30  1  0  0  0  0
 24 28  1  6  0  0  0
 24 30  1  0  0  0  0
 25 26  1  0  0  0  0
 26 22  1  0  0  0  0
 26 20  1  1  0  0  0
 28 21  1  0  0  0  0
 29 27  1  1  0  0  0
 29 30  1  0  0  0  0
 29 25  1  0  0  0  0
 30 31  1  1  0  0  0
 31 32  1  0  0  0  0
 32 34  1  0  0  0  0
 32 33  2  0  0  0  0
 37 35  1  6  0  0  0
 37 38  1  0  0  0  0
 37 39  1  0  0  0  0
 37 36  1  0  0  0  0
 38 36  1  0  0  0  0
 39 40  1  6  0  0  0
 41 39  1  0  0  0  0
 41 43  2  0  0  0  0
 42 41  1  0  0  0  0
M  END
>  <MODEL>
9

>  <REMARK>
 VINA RESULT:      -3.5      2.410      6.801
  Name = 
  8 active torsions:
  status: ('A' for Active; 'I' for Inactive)
    1  A    between atoms: C_3  and  C_12
    2  A    between atoms: C_3  and  C_21
    3  A    between atoms: O_4  and  C_14
    4  A    between atoms: O_4  and  C_43
    5  A    between atoms: C_12  and  C_37
    6  A    between atoms: C_16  and  S_30
    7  A    between atoms: C_29  and  C_37
    8  A    between atoms: S_30  and  C_31
                            x       y       z     vdW  Elec       q    Type
                         _______ _______ _______ _____ _____    ______ ____

>  <TORSDO>
F 8

$$$$
