=
 OpenBabel11072414533D

 47 51  0  0  1  0  0  0  0  0999 V2000
  161.2860  213.5020  149.0270 C   0  0  0  0  0  2  0  0  0  0  0  0
  160.5980  210.6220  153.2830 C   0  0  0  0  0  3  0  0  0  0  0  0
  159.0240  213.6770  152.5260 N   0  0  0  0  0  0  0  0  0  0  0  0
  159.8970  211.8120  153.3090 C   0  0  0  0  0  0  0  0  0  0  0  0
  161.7390  210.5700  149.6550 C   0  0  0  0  0  3  0  0  0  0  0  0
  159.2040  212.4330  154.3200 C   0  0  0  0  0  3  0  0  0  0  0  0
  161.1950  210.2280  152.0730 C   0  0  0  0  0  0  0  0  0  0  0  0
  158.7080  213.5400  153.7860 O   0  0  0  0  0  0  0  0  0  0  0  0
  161.0790  211.0530  150.8980 C   0  0  0  0  0  0  0  0  0  0  0  0
  160.0450  213.1780  149.8300 C   0  0  0  0  0  2  0  0  0  0  0  0
  161.4860  212.4600  147.9430 C   0  0  1  0  0  3  0  0  0  0  0  0
  161.9260  211.1240  148.4490 C   0  0  0  0  0  3  0  0  0  0  0  0
  159.7690  212.6020  152.2180 C   0  0  0  0  0  0  0  0  0  0  0  0
  160.3400  212.2770  150.9860 C   0  0  0  0  0  0  0  0  0  0  0  0
  160.9720  206.9040  150.0840 C   0  0  1  0  0  3  0  0  0  0  0  0
  162.6620  205.8400  153.1700 O   0  0  0  0  0  0  0  0  0  0  0  0
  161.2870  207.7450  152.8340 C   0  0  1  0  0  3  0  0  0  0  0  0
  161.6740  205.8850  151.0230 C   0  0  1  0  0  3  0  0  0  0  0  0
  162.6710  208.5960  150.8850 N   0  0  0  0  0  2  0  0  0  0  0  0
  161.9740  208.9320  152.1370 C   0  0  1  0  0  3  0  0  0  0  0  0
  161.9080  206.4320  152.4140 C   0  0  0  0  0  0  0  0  0  0  0  0
  161.7560  208.2030  149.8070 C   0  0  0  0  0  2  0  0  0  0  0  0
  160.5270  206.3150  148.7830 C   0  0  0  0  0  0  0  0  0  0  0  0
  159.3030  206.2520  148.4890 O   0  0  0  0  0  1  0  0  0  0  0  0
  161.4720  205.7920  147.9060 O   0  0  0  0  0  0  0  0  0  0  0  0
  160.9250  204.5460  151.1080 C   0  0  0  0  0  2  0  0  0  0  0  0
  161.8280  203.4040  151.5490 C   0  0  0  0  0  1  0  0  0  0  0  0
  161.3440  207.9070  154.2230 O   0  0  0  0  0  0  0  0  0  0  0  0
  159.6850  207.6460  155.8980 C   0  0  0  0  0  1  0  0  0  0  0  0
  160.4110  207.0040  154.7340 C   0  0  0  0  0  2  0  0  0  0  0  0
  160.2660  212.3210  147.0380 C   0  0  0  0  0  2  0  0  0  0  0  0
  160.2280  213.3970  146.0550 N   0  0  0  0  0  0  0  0  0  0  0  0
  161.9700  211.8330  141.6330 C   0  0  0  0  0  0  0  0  0  0  0  0
  163.0240  212.5730  142.2540 N   0  0  0  0  0  2  0  0  0  0  0  0
  159.6730  214.1730  142.3300 C   0  0  0  0  0  1  0  0  0  0  0  0
  160.2630  212.9680  143.0360 C   0  0  1  0  0  3  0  0  0  0  0  0
  161.3810  213.5660  145.2120 C   0  0  0  0  0  3  0  0  0  0  0  0
  160.6500  211.9890  142.0700 O   0  0  0  0  0  0  0  0  0  0  0  0
  162.2380  210.9870  140.7390 O   0  0  0  0  0  0  0  0  0  0  0  0
  162.7350  213.6430  143.1980 C   0  0  0  0  0  2  0  0  0  0  0  0
  161.4330  213.3900  143.8870 C   0  0  0  0  0  0  0  0  0  0  0  0
  158.1240  213.9930  145.2180 O   0  0  0  0  0  1  0  0  0  0  0  0
  159.1300  214.3640  146.1130 C   0  0  1  0  0  3  0  0  0  0  0  0
  158.5540  214.4530  147.5200 C   0  0  0  0  0  2  0  0  0  0  0  0
  157.0780  214.1090  147.5160 C   0  0  0  0  0  2  0  0  0  0  0  0
  156.7050  213.3950  148.8040 C   0  0  0  0  0  2  0  0  0  0  0  0
  156.1840  214.3580  149.7590 N   0  0  0  0  0  1  0  0  0  0  0  0
  1 10  1  0  0  0  0
  2  4  1  0  0  0  0
  3  8  1  0  0  0  0
  4  6  2  0  0  0  0
  5  9  1  0  0  0  0
  7  2  2  0  0  0  0
  8  6  1  0  0  0  0
  9 14  2  0  0  0  0
  9  7  1  0  0  0  0
 10 14  1  0  0  0  0
 11 31  1  1  0  0  0
 11 12  1  0  0  0  0
 11  1  1  0  0  0  0
 12  5  2  0  0  0  0
 13  3  2  0  0  0  0
 13  4  1  0  0  0  0
 14 13  1  0  0  0  0
 15 23  1  6  0  0  0
 15 18  1  0  0  0  0
 17 28  1  1  0  0  0
 18 26  1  1  0  0  0
 18 21  1  0  0  0  0
 19 20  1  0  0  0  0
 20  7  1  6  0  0  0
 20 17  1  0  0  0  0
 21 17  1  0  0  0  0
 21 16  2  0  0  0  0
 22 15  1  0  0  0  0
 22 19  1  0  0  0  0
 24 23  1  0  0  0  0
 25 23  2  0  0  0  0
 26 27  1  0  0  0  0
 28 30  1  0  0  0  0
 30 29  1  0  0  0  0
 32 43  1  0  0  0  0
 32 31  1  0  0  0  0
 33 38  1  0  0  0  0
 33 34  1  0  0  0  0
 34 40  1  0  0  0  0
 36 35  1  6  0  0  0
 36 41  1  0  0  0  0
 37 32  1  0  0  0  0
 38 36  1  0  0  0  0
 39 33  2  0  0  0  0
 40 41  1  0  0  0  0
 41 37  2  0  0  0  0
 43 42  1  6  0  0  0
 43 44  1  0  0  0  0
 45 44  1  0  0  0  0
 45 46  1  0  0  0  0
 46 47  1  0  0  0  0
M  END
>  <MODEL>
1

>  <REMARK>
 VINA RESULT:      -6.2      0.000      0.000
  Name = 
  12 active torsions:
  status: ('A' for Active; 'I' for Inactive)
    1  A    between atoms: O_1  and  C_9
    2  A    between atoms: O_1  and  C_35
    3  A    between atoms: C_3  and  C_13
    4  A    between atoms: C_6  and  C_12
    5  A    between atoms: C_11  and  C_17
    6  A    between atoms: C_13  and  C_42
    7  A    between atoms: C_14  and  N_39
    8  A    between atoms: C_14  and  C_43
    9  A    between atoms: C_22  and  C_26
   10  A    between atoms: C_28  and  N_39
   11  A    between atoms: C_33  and  N_39
   12  A    between atoms: C_33  and  C_42
                            x       y       z     vdW  Elec       q    Type
                         _______ _______ _______ _____ _____    ______ ____

>  <TORSDO>
F 12

$$$$
=
 OpenBabel11072414533D

 47 51  0  0  1  0  0  0  0  0999 V2000
  162.4510  209.9180  151.6610 C   0  0  0  0  0  2  0  0  0  0  0  0
  159.9950  214.2200  150.1300 C   0  0  0  0  0  3  0  0  0  0  0  0
  162.5100  212.4900  148.3790 N   0  0  0  0  0  0  0  0  0  0  0  0
  160.9920  213.8200  149.2600 C   0  0  0  0  0  0  0  0  0  0  0  0
  159.7880  211.1700  152.3940 C   0  0  0  0  0  3  0  0  0  0  0  0
  161.5530  214.4490  148.1750 C   0  0  0  0  0  3  0  0  0  0  0  0
  159.6100  213.3350  151.1520 C   0  0  0  0  0  0  0  0  0  0  0  0
  162.4510  213.6010  147.6950 O   0  0  0  0  0  0  0  0  0  0  0  0
  160.2480  212.0510  151.2860 C   0  0  0  0  0  0  0  0  0  0  0  0
  161.9490  210.3580  150.3030 C   0  0  0  0  0  2  0  0  0  0  0  0
  161.3640  209.1500  152.3890 C   0  0  1  0  0  3  0  0  0  0  0  0
  160.2280  209.9960  152.8660 C   0  0  0  0  0  3  0  0  0  0  0  0
  161.6030  212.6170  149.3620 C   0  0  0  0  0  0  0  0  0  0  0  0
  161.2760  211.6920  150.3550 C   0  0  0  0  0  0  0  0  0  0  0  0
  158.5950  212.4480  154.7900 C   0  0  1  0  0  3  0  0  0  0  0  0
  155.5240  213.9930  153.4910 O   0  0  0  0  0  0  0  0  0  0  0  0
  157.2890  212.9870  152.2660 C   0  0  1  0  0  3  0  0  0  0  0  0
  157.1370  212.9740  154.8860 C   0  0  1  0  0  3  0  0  0  0  0  0
  159.0710  214.4520  153.3230 N   0  0  0  0  0  2  0  0  0  0  0  0
  158.5400  213.8620  152.0830 C   0  0  1  0  0  3  0  0  0  0  0  0
  156.5550  213.3420  153.5390 C   0  0  0  0  0  0  0  0  0  0  0  0
  159.6300  213.4510  154.2400 C   0  0  0  0  0  2  0  0  0  0  0  0
  159.1100  211.8670  156.0690 C   0  0  0  0  0  0  0  0  0  0  0  0
  159.1640  212.5630  157.1180 O   0  0  0  0  0  1  0  0  0  0  0  0
  159.5750  210.5550  156.0890 O   0  0  0  0  0  0  0  0  0  0  0  0
  156.2010  211.9920  155.6080 C   0  0  0  0  0  2  0  0  0  0  0  0
  155.5800  212.5980  156.8580 C   0  0  0  0  0  1  0  0  0  0  0  0
  156.4510  213.1090  151.1510 O   0  0  0  0  0  0  0  0  0  0  0  0
  156.2520  214.4470  149.2040 C   0  0  0  0  0  1  0  0  0  0  0  0
  156.6960  214.3880  150.6500 C   0  0  0  0  0  2  0  0  0  0  0  0
  160.8510  207.9620  151.5790 C   0  0  0  0  0  2  0  0  0  0  0  0
  161.9280  207.0160  151.3140 N   0  0  0  0  0  0  0  0  0  0  0  0
  161.8480  204.3510  147.0790 C   0  0  0  0  0  0  0  0  0  0  0  0
  162.8620  205.3460  146.9220 N   0  0  0  0  0  2  0  0  0  0  0  0
  159.6200  206.5530  148.2730 C   0  0  0  0  0  1  0  0  0  0  0  0
  160.7250  205.6880  148.8470 C   0  0  1  0  0  3  0  0  0  0  0  0
  162.5150  207.0310  150.0000 C   0  0  0  0  0  3  0  0  0  0  0  0
  160.8610  204.5030  148.0600 O   0  0  0  0  0  0  0  0  0  0  0  0
  161.8820  203.3030  146.3820 O   0  0  0  0  0  0  0  0  0  0  0  0
  162.7790  206.6200  147.6220 C   0  0  0  0  0  2  0  0  0  0  0  0
  162.0150  206.4630  148.8970 C   0  0  0  0  0  0  0  0  0  0  0  0
  161.2200  205.9750  153.2890 O   0  0  0  0  0  1  0  0  0  0  0  0
  162.2120  205.9770  152.3060 C   0  0  1  0  0  3  0  0  0  0  0  0
  162.2850  204.6030  151.6530 C   0  0  0  0  0  2  0  0  0  0  0  0
  161.0060  203.8270  151.8960 C   0  0  0  0  0  2  0  0  0  0  0  0
  161.1890  202.3770  151.4800 C   0  0  0  0  0  2  0  0  0  0  0  0
  160.4660  202.1320  150.2440 N   0  0  0  0  0  1  0  0  0  0  0  0
  1 11  1  0  0  0  0
  2  7  2  0  0  0  0
  3 13  2  0  0  0  0
  4 13  1  0  0  0  0
  4  2  1  0  0  0  0
  5 12  2  0  0  0  0
  6  4  2  0  0  0  0
  7  9  1  0  0  0  0
  8  6  1  0  0  0  0
  8  3  1  0  0  0  0
  9  5  1  0  0  0  0
 10 14  1  0  0  0  0
 10  1  1  0  0  0  0
 11 31  1  6  0  0  0
 11 12  1  0  0  0  0
 13 14  1  0  0  0  0
 14  9  2  0  0  0  0
 15 18  1  0  0  0  0
 15 23  1  1  0  0  0
 16 21  2  0  0  0  0
 17 28  1  6  0  0  0
 17 21  1  0  0  0  0
 18 26  1  6  0  0  0
 19 22  1  0  0  0  0
 20  7  1  1  0  0  0
 20 17  1  0  0  0  0
 20 19  1  0  0  0  0
 21 18  1  0  0  0  0
 22 15  1  0  0  0  0
 23 25  2  0  0  0  0
 23 24  1  0  0  0  0
 26 27  1  0  0  0  0
 29 30  1  0  0  0  0
 30 28  1  0  0  0  0
 32 31  1  0  0  0  0
 32 43  1  0  0  0  0
 33 38  1  0  0  0  0
 34 33  1  0  0  0  0
 34 40  1  0  0  0  0
 36 35  1  6  0  0  0
 36 41  1  0  0  0  0
 37 32  1  0  0  0  0
 38 36  1  0  0  0  0
 39 33  2  0  0  0  0
 40 41  1  0  0  0  0
 41 37  2  0  0  0  0
 43 42  1  1  0  0  0
 44 45  1  0  0  0  0
 44 43  1  0  0  0  0
 46 45  1  0  0  0  0
 47 46  1  0  0  0  0
M  END
>  <MODEL>
2

>  <REMARK>
 VINA RESULT:      -6.1      3.168      8.383
  Name = 
  12 active torsions:
  status: ('A' for Active; 'I' for Inactive)
    1  A    between atoms: O_1  and  C_9
    2  A    between atoms: O_1  and  C_35
    3  A    between atoms: C_3  and  C_13
    4  A    between atoms: C_6  and  C_12
    5  A    between atoms: C_11  and  C_17
    6  A    between atoms: C_13  and  C_42
    7  A    between atoms: C_14  and  N_39
    8  A    between atoms: C_14  and  C_43
    9  A    between atoms: C_22  and  C_26
   10  A    between atoms: C_28  and  N_39
   11  A    between atoms: C_33  and  N_39
   12  A    between atoms: C_33  and  C_42
                            x       y       z     vdW  Elec       q    Type
                         _______ _______ _______ _____ _____    ______ ____

>  <TORSDO>
F 12

$$$$
=
 OpenBabel11072414533D

 47 51  0  0  1  0  0  0  0  0999 V2000
  162.4050  209.5630  151.2740 C   0  0  0  0  0  2  0  0  0  0  0  0
  160.4100  214.1540  149.9230 C   0  0  0  0  0  3  0  0  0  0  0  0
  162.7320  212.2430  148.0950 N   0  0  0  0  0  0  0  0  0  0  0  0
  161.3600  213.6880  149.0350 C   0  0  0  0  0  0  0  0  0  0  0  0
  159.8860  211.0550  152.0650 C   0  0  0  0  0  3  0  0  0  0  0  0
  161.9840  214.2970  147.9720 C   0  0  0  0  0  3  0  0  0  0  0  0
  159.9350  213.2740  150.9110 C   0  0  0  0  0  0  0  0  0  0  0  0
  162.7890  213.3800  147.4560 O   0  0  0  0  0  0  0  0  0  0  0  0
  160.4360  211.9270  150.9910 C   0  0  0  0  0  0  0  0  0  0  0  0
  161.9520  210.1060  149.9360 C   0  0  0  0  0  2  0  0  0  0  0  0
  161.2440  208.8830  151.9750 C   0  0  1  0  0  3  0  0  0  0  0  0
  160.2020  209.8240  152.4900 C   0  0  0  0  0  3  0  0  0  0  0  0
  161.8430  212.4240  149.0860 C   0  0  0  0  0  0  0  0  0  0  0  0
  161.4210  211.4990  150.0430 C   0  0  0  0  0  0  0  0  0  0  0  0
  158.4360  212.0630  154.2790 C   0  0  1  0  0  3  0  0  0  0  0  0
  155.8950  214.4530  153.1230 O   0  0  0  0  0  0  0  0  0  0  0  0
  157.5030  213.2850  151.8280 C   0  0  1  0  0  3  0  0  0  0  0  0
  157.1220  212.8840  154.3940 C   0  0  1  0  0  3  0  0  0  0  0  0
  159.4580  214.1180  153.2160 N   0  0  0  0  0  2  0  0  0  0  0  0
  158.9250  213.8720  151.8660 C   0  0  1  0  0  3  0  0  0  0  0  0
  156.7540  213.5860  153.1050 C   0  0  0  0  0  0  0  0  0  0  0  0
  159.7070  212.8820  153.9670 C   0  0  0  0  0  2  0  0  0  0  0  0
  158.7000  211.1820  155.4580 C   0  0  0  0  0  0  0  0  0  0  0  0
  159.4250  211.5780  156.4100 O   0  0  0  0  0  1  0  0  0  0  0  0
  158.1740  209.8930  155.4850 O   0  0  0  0  0  0  0  0  0  0  0  0
  155.9380  212.0350  154.8820 C   0  0  0  0  0  2  0  0  0  0  0  0
  155.6180  212.2800  156.3500 C   0  0  0  0  0  1  0  0  0  0  0  0
  156.8140  213.7730  150.7120 O   0  0  0  0  0  0  0  0  0  0  0  0
  157.1770  213.2490  148.4280 C   0  0  0  0  0  1  0  0  0  0  0  0
  156.8080  212.7190  149.7980 C   0  0  0  0  0  2  0  0  0  0  0  0
  160.6100  207.7890  151.1220 C   0  0  0  0  0  2  0  0  0  0  0  0
  161.1290  206.4780  151.4970 N   0  0  0  0  0  0  0  0  0  0  0  0
  160.6400  206.1000  146.5310 C   0  0  0  0  0  0  0  0  0  0  0  0
  160.8460  204.7760  147.0280 N   0  0  0  0  0  2  0  0  0  0  0  0
  163.1540  207.3670  148.3510 C   0  0  0  0  0  1  0  0  0  0  0  0
  161.6780  207.0880  148.5600 C   0  0  1  0  0  3  0  0  0  0  0  0
  161.2480  205.4900  150.4570 C   0  0  0  0  0  3  0  0  0  0  0  0
  160.9880  207.2070  147.3150 O   0  0  0  0  0  0  0  0  0  0  0  0
  160.0800  206.2740  145.4160 O   0  0  0  0  0  0  0  0  0  0  0  0
  161.6010  204.5410  148.2510 C   0  0  0  0  0  2  0  0  0  0  0  0
  161.4910  205.7210  149.1620 C   0  0  0  0  0  0  0  0  0  0  0  0
  162.6400  206.3390  153.2800 O   0  0  0  0  0  1  0  0  0  0  0  0
  161.3020  206.1710  152.9170 C   0  0  1  0  0  3  0  0  0  0  0  0
  160.4230  207.0670  153.7810 C   0  0  0  0  0  2  0  0  0  0  0  0
  160.5350  206.6770  155.2410 C   0  0  0  0  0  2  0  0  0  0  0  0
  160.5320  207.9200  156.1150 C   0  0  0  0  0  2  0  0  0  0  0  0
  161.8650  208.4990  156.1400 N   0  0  0  0  0  1  0  0  0  0  0  0
  1 11  1  0  0  0  0
  2  7  2  0  0  0  0
  3 13  2  0  0  0  0
  4 13  1  0  0  0  0
  4  2  1  0  0  0  0
  5 12  2  0  0  0  0
  6  4  2  0  0  0  0
  7  9  1  0  0  0  0
  8  6  1  0  0  0  0
  8  3  1  0  0  0  0
  9  5  1  0  0  0  0
 10 14  1  0  0  0  0
 10  1  1  0  0  0  0
 11 31  1  6  0  0  0
 11 12  1  0  0  0  0
 13 14  1  0  0  0  0
 14  9  2  0  0  0  0
 15 18  1  0  0  0  0
 15 23  1  1  0  0  0
 17 28  1  6  0  0  0
 17 20  1  0  0  0  0
 17 21  1  0  0  0  0
 18 26  1  6  0  0  0
 19 22  1  0  0  0  0
 20  7  1  1  0  0  0
 20 19  1  0  0  0  0
 21 16  2  0  0  0  0
 21 18  1  0  0  0  0
 22 15  1  0  0  0  0
 23 25  2  0  0  0  0
 23 24  1  0  0  0  0
 26 27  1  0  0  0  0
 29 30  1  0  0  0  0
 30 28  1  0  0  0  0
 31 32  1  0  0  0  0
 32 43  1  0  0  0  0
 33 34  1  0  0  0  0
 33 38  1  0  0  0  0
 34 40  1  0  0  0  0
 36 35  1  6  0  0  0
 36 41  1  0  0  0  0
 37 32  1  0  0  0  0
 38 36  1  0  0  0  0
 39 33  2  0  0  0  0
 40 41  1  0  0  0  0
 41 37  2  0  0  0  0
 43 42  1  1  0  0  0
 43 44  1  0  0  0  0
 44 45  1  0  0  0  0
 45 46  1  0  0  0  0
 46 47  1  0  0  0  0
M  END
>  <MODEL>
3

>  <REMARK>
 VINA RESULT:      -5.5      3.019      8.034
  Name = 
  12 active torsions:
  status: ('A' for Active; 'I' for Inactive)
    1  A    between atoms: O_1  and  C_9
    2  A    between atoms: O_1  and  C_35
    3  A    between atoms: C_3  and  C_13
    4  A    between atoms: C_6  and  C_12
    5  A    between atoms: C_11  and  C_17
    6  A    between atoms: C_13  and  C_42
    7  A    between atoms: C_14  and  N_39
    8  A    between atoms: C_14  and  C_43
    9  A    between atoms: C_22  and  C_26
   10  A    between atoms: C_28  and  N_39
   11  A    between atoms: C_33  and  N_39
   12  A    between atoms: C_33  and  C_42
                            x       y       z     vdW  Elec       q    Type
                         _______ _______ _______ _____ _____    ______ ____

>  <TORSDO>
F 12

$$$$
=
 OpenBabel11072414533D

 47 51  0  0  1  0  0  0  0  0999 V2000
  160.7110  211.4240  153.5270 C   0  0  0  0  0  2  0  0  0  0  0  0
  161.2830  206.3010  154.0830 C   0  0  0  0  0  3  0  0  0  0  0  0
  160.1880  208.5800  156.5310 N   0  0  0  0  0  0  0  0  0  0  0  0
  160.9110  206.9400  155.2510 C   0  0  0  0  0  0  0  0  0  0  0  0
  160.7830  209.1100  151.5680 C   0  0  0  0  0  3  0  0  0  0  0  0
  160.8400  206.4900  156.5470 C   0  0  0  0  0  3  0  0  0  0  0  0
  161.2320  207.0290  152.8820 C   0  0  0  0  0  0  0  0  0  0  0  0
  160.4020  207.5170  157.2590 O   0  0  0  0  0  0  0  0  0  0  0  0
  160.8090  208.4050  152.8790 C   0  0  0  0  0  0  0  0  0  0  0  0
  159.8770  210.3950  154.2570 C   0  0  0  0  0  2  0  0  0  0  0  0
  160.2300  211.5560  152.0940 C   0  0  1  0  0  3  0  0  0  0  0  0
  160.5600  210.3860  151.2240 C   0  0  0  0  0  3  0  0  0  0  0  0
  160.5050  208.2310  155.2730 C   0  0  0  0  0  0  0  0  0  0  0  0
  160.4360  209.0150  154.1200 C   0  0  0  0  0  0  0  0  0  0  0  0
  161.9480  208.0960  149.2210 C   0  0  1  0  0  3  0  0  0  0  0  0
  161.3230  204.4920  148.8620 O   0  0  0  0  0  0  0  0  0  0  0  0
  160.6150  205.9350  150.6070 C   0  0  1  0  0  3  0  0  0  0  0  0
  161.8420  206.7590  148.4380 C   0  0  1  0  0  3  0  0  0  0  0  0
  162.9670  206.7490  151.1030 N   0  0  0  0  0  2  0  0  0  0  0  0
  161.6890  206.2690  151.6560 C   0  0  1  0  0  3  0  0  0  0  0  0
  161.2380  205.6430  149.2610 C   0  0  0  0  0  0  0  0  0  0  0  0
  162.8570  208.0680  150.4680 C   0  0  0  0  0  2  0  0  0  0  0  0
  162.3270  209.2650  148.3680 C   0  0  0  0  0  0  0  0  0  0  0  0
  161.5300  210.2280  148.2030 O   0  0  0  0  0  1  0  0  0  0  0  0
  163.5560  209.2690  147.7140 O   0  0  0  0  0  0  0  0  0  0  0  0
  161.0740  206.9080  147.1160 C   0  0  0  0  0  2  0  0  0  0  0  0
  161.5040  205.8830  146.0780 C   0  0  0  0  0  1  0  0  0  0  0  0
  159.8360  204.8590  151.0460 O   0  0  0  0  0  0  0  0  0  0  0  0
  160.4220  203.3000  152.7340 C   0  0  0  0  0  1  0  0  0  0  0  0
  160.7490  203.8520  151.3630 C   0  0  0  0  0  2  0  0  0  0  0  0
  158.7440  211.8910  152.0090 C   0  0  0  0  0  2  0  0  0  0  0  0
  158.5500  213.3000  151.6890 N   0  0  0  0  0  0  0  0  0  0  0  0
  158.5100  212.7410  146.7170 C   0  0  0  0  0  0  0  0  0  0  0  0
  159.6180  213.5890  147.0280 N   0  0  0  0  0  2  0  0  0  0  0  0
  156.4150  214.4450  148.7030 C   0  0  0  0  0  1  0  0  0  0  0  0
  157.3980  213.3020  148.8660 C   0  0  1  0  0  3  0  0  0  0  0  0
  159.2210  213.8140  150.5250 C   0  0  0  0  0  3  0  0  0  0  0  0
  157.4780  212.5630  147.6460 O   0  0  0  0  0  0  0  0  0  0  0  0
  158.4960  212.0970  145.6340 O   0  0  0  0  0  0  0  0  0  0  0  0
  159.6030  214.4390  148.2100 C   0  0  0  0  0  2  0  0  0  0  0  0
  158.7470  213.8340  149.2740 C   0  0  0  0  0  0  0  0  0  0  0  0
  156.5800  214.4530  152.2100 O   0  0  0  0  0  1  0  0  0  0  0  0
  157.8670  214.1550  152.6620 C   0  0  1  0  0  3  0  0  0  0  0  0
  157.7850  213.4760  154.0230 C   0  0  0  0  0  2  0  0  0  0  0  0
  156.3460  213.1590  154.3760 C   0  0  0  0  0  2  0  0  0  0  0  0
  156.1600  213.1890  155.8840 C   0  0  0  0  0  2  0  0  0  0  0  0
  155.0090  214.0120  156.2140 N   0  0  0  0  0  1  0  0  0  0  0  0
  1 10  1  0  0  0  0
  2  4  1  0  0  0  0
  3  8  1  0  0  0  0
  4 13  1  0  0  0  0
  4  6  2  0  0  0  0
  5  9  1  0  0  0  0
  6  8  1  0  0  0  0
  7  2  2  0  0  0  0
  9  7  1  0  0  0  0
  9 14  2  0  0  0  0
 11 31  1  1  0  0  0
 11  1  1  0  0  0  0
 12  5  2  0  0  0  0
 12 11  1  0  0  0  0
 13  3  2  0  0  0  0
 14 10  1  0  0  0  0
 14 13  1  0  0  0  0
 15 23  1  6  0  0  0
 15 22  1  0  0  0  0
 16 21  2  0  0  0  0
 17 28  1  1  0  0  0
 17 20  1  0  0  0  0
 18 26  1  6  0  0  0
 18 15  1  0  0  0  0
 18 21  1  0  0  0  0
 19 20  1  0  0  0  0
 20  7  1  1  0  0  0
 21 17  1  0  0  0  0
 22 19  1  0  0  0  0
 24 23  1  0  0  0  0
 25 23  2  0  0  0  0
 27 26  1  0  0  0  0
 28 30  1  0  0  0  0
 30 29  1  0  0  0  0
 32 31  1  0  0  0  0
 32 43  1  0  0  0  0
 33 34  1  0  0  0  0
 33 38  1  0  0  0  0
 34 40  1  0  0  0  0
 36 35  1  6  0  0  0
 36 41  1  0  0  0  0
 37 32  1  0  0  0  0
 38 36  1  0  0  0  0
 39 33  2  0  0  0  0
 40 41  1  0  0  0  0
 41 37  2  0  0  0  0
 43 42  1  6  0  0  0
 43 44  1  0  0  0  0
 44 45  1  0  0  0  0
 45 46  1  0  0  0  0
 46 47  1  0  0  0  0
M  END
>  <MODEL>
4

>  <REMARK>
 VINA RESULT:      -5.3      2.700      5.234
  Name = 
  12 active torsions:
  status: ('A' for Active; 'I' for Inactive)
    1  A    between atoms: O_1  and  C_9
    2  A    between atoms: O_1  and  C_35
    3  A    between atoms: C_3  and  C_13
    4  A    between atoms: C_6  and  C_12
    5  A    between atoms: C_11  and  C_17
    6  A    between atoms: C_13  and  C_42
    7  A    between atoms: C_14  and  N_39
    8  A    between atoms: C_14  and  C_43
    9  A    between atoms: C_22  and  C_26
   10  A    between atoms: C_28  and  N_39
   11  A    between atoms: C_33  and  N_39
   12  A    between atoms: C_33  and  C_42
                            x       y       z     vdW  Elec       q    Type
                         _______ _______ _______ _____ _____    ______ ____

>  <TORSDO>
F 12

$$$$
=
 OpenBabel11072414533D

 47 51  0  0  1  0  0  0  0  0999 V2000
  162.7040  207.3270  150.1660 C   0  0  0  0  0  2  0  0  0  0  0  0
  160.6110  211.7710  151.8230 C   0  0  0  0  0  3  0  0  0  0  0  0
  162.0910  211.1780  148.6870 N   0  0  0  0  0  0  0  0  0  0  0  0
  161.1860  211.8710  150.5710 C   0  0  0  0  0  0  0  0  0  0  0  0
  160.6720  208.0000  152.3140 C   0  0  0  0  0  3  0  0  0  0  0  0
  161.4510  212.9640  149.7800 C   0  0  0  0  0  3  0  0  0  0  0  0
  160.4470  210.4910  152.3800 C   0  0  0  0  0  0  0  0  0  0  0  0
  161.9900  212.4800  148.6710 O   0  0  0  0  0  0  0  0  0  0  0  0
  160.8770  209.3210  151.6590 C   0  0  0  0  0  0  0  0  0  0  0  0
  161.8600  208.3650  149.4580 C   0  0  0  0  0  2  0  0  0  0  0  0
  161.8090  206.2770  150.7960 C   0  0  1  0  0  3  0  0  0  0  0  0
  161.0470  206.7550  151.9900 C   0  0  0  0  0  3  0  0  0  0  0  0
  161.5930  210.7870  149.8720 C   0  0  0  0  0  0  0  0  0  0  0  0
  161.4670  209.4860  150.3650 C   0  0  0  0  0  0  0  0  0  0  0  0
  157.6210  212.5450  154.0680 C   0  0  1  0  0  3  0  0  0  0  0  0
  159.5350  211.3450  156.9670 O   0  0  0  0  0  0  0  0  0  0  0  0
  160.2730  211.5940  154.7260 C   0  0  1  0  0  3  0  0  0  0  0  0
  157.9160  212.3690  155.5830 C   0  0  1  0  0  3  0  0  0  0  0  0
  158.4050  210.1580  153.7840 N   0  0  0  0  0  2  0  0  0  0  0  0
  159.8440  210.4700  153.7670 C   0  0  1  0  0  3  0  0  0  0  0  0
  159.2760  211.7640  155.8500 C   0  0  0  0  0  0  0  0  0  0  0  0
  157.5770  211.2420  153.2430 C   0  0  0  0  0  2  0  0  0  0  0  0
  156.3890  213.3450  153.7830 C   0  0  0  0  0  0  0  0  0  0  0  0
  156.4550  214.4150  153.1210 O   0  0  0  0  0  0  0  0  0  0  0  0
  155.1640  212.9240  154.2910 O   0  0  0  0  0  1  0  0  0  0  0  0
  157.7650  213.6810  156.3690 C   0  0  0  0  0  2  0  0  0  0  0  0
  158.9840  213.9850  157.2270 C   0  0  0  0  0  1  0  0  0  0  0  0
  161.5550  211.3350  155.2250 O   0  0  0  0  0  0  0  0  0  0  0  0
  162.7020  209.7980  156.6190 C   0  0  0  0  0  1  0  0  0  0  0  0
  161.4890  210.0430  155.7460 C   0  0  0  0  0  2  0  0  0  0  0  0
  160.8730  205.6270  149.7820 C   0  0  0  0  0  2  0  0  0  0  0  0
  161.2490  204.2380  149.5490 N   0  0  0  0  0  0  0  0  0  0  0  0
  161.2900  205.6250  144.7410 C   0  0  0  0  0  0  0  0  0  0  0  0
  160.7160  204.3160  144.7890 N   0  0  0  0  0  2  0  0  0  0  0  0
  163.8340  204.7770  146.7540 C   0  0  0  0  0  1  0  0  0  0  0  0
  162.4140  205.2780  146.9300 C   0  0  1  0  0  3  0  0  0  0  0  0
  160.9760  203.6860  148.2480 C   0  0  0  0  0  3  0  0  0  0  0  0
  162.0540  206.0960  145.8160 O   0  0  0  0  0  0  0  0  0  0  0  0
  161.0520  206.3810  143.7630 O   0  0  0  0  0  0  0  0  0  0  0  0
  161.0740  203.3770  145.8420 C   0  0  0  0  0  2  0  0  0  0  0  0
  161.4700  204.1130  147.0810 C   0  0  0  0  0  0  0  0  0  0  0  0
  162.1780  204.2540  151.6980 O   0  0  0  0  0  1  0  0  0  0  0  0
  161.6850  203.4270  150.6870 C   0  0  1  0  0  3  0  0  0  0  0  0
  160.5360  202.5870  151.2310 C   0  0  0  0  0  2  0  0  0  0  0  0
  160.2170  201.4440  150.2880 C   0  0  0  0  0  2  0  0  0  0  0  0
  161.4960  200.9130  149.6610 C   0  0  0  0  0  2  0  0  0  0  0  0
  161.1700  199.8660  148.7080 N   0  0  0  0  0  1  0  0  0  0  0  0
  1 11  1  0  0  0  0
  2  7  2  0  0  0  0
  3 13  2  0  0  0  0
  4  2  1  0  0  0  0
  6  4  2  0  0  0  0
  8  3  1  0  0  0  0
  8  6  1  0  0  0  0
  9  5  1  0  0  0  0
  9  7  1  0  0  0  0
 10  1  1  0  0  0  0
 10 14  1  0  0  0  0
 11 31  1  6  0  0  0
 11 12  1  0  0  0  0
 12  5  2  0  0  0  0
 13 14  1  0  0  0  0
 13  4  1  0  0  0  0
 14  9  2  0  0  0  0
 15 23  1  1  0  0  0
 15 18  1  0  0  0  0
 17 28  1  1  0  0  0
 17 21  1  0  0  0  0
 18 21  1  0  0  0  0
 18 26  1  1  0  0  0
 20  7  1  6  0  0  0
 20 19  1  0  0  0  0
 20 17  1  0  0  0  0
 21 16  2  0  0  0  0
 22 19  1  0  0  0  0
 22 15  1  0  0  0  0
 23 25  1  0  0  0  0
 24 23  2  0  0  0  0
 26 27  1  0  0  0  0
 28 30  1  0  0  0  0
 30 29  1  0  0  0  0
 32 31  1  0  0  0  0
 32 43  1  0  0  0  0
 33 34  1  0  0  0  0
 33 38  1  0  0  0  0
 34 40  1  0  0  0  0
 36 35  1  6  0  0  0
 36 41  1  0  0  0  0
 37 32  1  0  0  0  0
 38 36  1  0  0  0  0
 39 33  2  0  0  0  0
 40 41  1  0  0  0  0
 41 37  2  0  0  0  0
 43 44  1  0  0  0  0
 43 42  1  1  0  0  0
 45 44  1  0  0  0  0
 46 45  1  0  0  0  0
 47 46  1  0  0  0  0
M  END
>  <MODEL>
5

>  <REMARK>
 VINA RESULT:      -4.9      3.745      8.245
  Name = 
  12 active torsions:
  status: ('A' for Active; 'I' for Inactive)
    1  A    between atoms: O_1  and  C_9
    2  A    between atoms: O_1  and  C_35
    3  A    between atoms: C_3  and  C_13
    4  A    between atoms: C_6  and  C_12
    5  A    between atoms: C_11  and  C_17
    6  A    between atoms: C_13  and  C_42
    7  A    between atoms: C_14  and  N_39
    8  A    between atoms: C_14  and  C_43
    9  A    between atoms: C_22  and  C_26
   10  A    between atoms: C_28  and  N_39
   11  A    between atoms: C_33  and  N_39
   12  A    between atoms: C_33  and  C_42
                            x       y       z     vdW  Elec       q    Type
                         _______ _______ _______ _____ _____    ______ ____

>  <TORSDO>
F 12

$$$$
=
 OpenBabel11072414533D

 47 51  0  0  1  0  0  0  0  0999 V2000
  162.8290  207.8040  149.7900 C   0  0  0  0  0  2  0  0  0  0  0  0
  161.2110  212.6940  150.3830 C   0  0  0  0  0  3  0  0  0  0  0  0
  162.6820  211.2930  147.5100 N   0  0  0  0  0  0  0  0  0  0  0  0
  161.8200  212.4640  149.1650 C   0  0  0  0  0  0  0  0  0  0  0  0
  160.8390  209.1290  151.6560 C   0  0  0  0  0  3  0  0  0  0  0  0
  162.2220  213.3280  148.1750 C   0  0  0  0  0  3  0  0  0  0  0  0
  160.8930  211.5860  151.1880 C   0  0  0  0  0  0  0  0  0  0  0  0
  162.7280  212.5650  147.2170 O   0  0  0  0  0  0  0  0  0  0  0  0
  161.2040  210.2510  150.7480 C   0  0  0  0  0  0  0  0  0  0  0  0
  162.1220  208.7490  148.8430 C   0  0  0  0  0  2  0  0  0  0  0  0
  161.8090  207.0120  150.5850 C   0  0  1  0  0  3  0  0  0  0  0  0
  161.0790  207.8110  151.6170 C   0  0  0  0  0  3  0  0  0  0  0  0
  162.1180  211.2180  148.7270 C   0  0  0  0  0  0  0  0  0  0  0  0
  161.8370  210.0740  149.4760 C   0  0  0  0  0  0  0  0  0  0  0  0
  160.3850  209.5710  154.4650 C   0  0  1  0  0  3  0  0  0  0  0  0
  157.7980  212.1670  154.7500 O   0  0  0  0  0  0  0  0  0  0  0  0
  158.8550  211.3620  152.7850 C   0  0  1  0  0  3  0  0  0  0  0  0
  159.2300  210.3340  155.1700 C   0  0  1  0  0  3  0  0  0  0  0  0
  161.1910  211.8280  153.6590 N   0  0  0  0  0  2  0  0  0  0  0  0
  160.2620  211.9250  152.5210 C   0  0  1  0  0  3  0  0  0  0  0  0
  158.5460  211.3340  154.2640 C   0  0  0  0  0  0  0  0  0  0  0  0
  161.5610  210.4450  153.9810 C   0  0  0  0  0  2  0  0  0  0  0  0
  160.9230  208.4250  155.2600 C   0  0  0  0  0  0  0  0  0  0  0  0
  161.6750  208.6250  156.2520 O   0  0  0  0  0  1  0  0  0  0  0  0
  160.6250  207.1210  154.8760 O   0  0  0  0  0  0  0  0  0  0  0  0
  158.1860  209.3870  155.7840 C   0  0  0  0  0  2  0  0  0  0  0  0
  156.7770  209.9580  155.7160 C   0  0  0  0  0  1  0  0  0  0  0  0
  157.9010  212.1090  152.0850 O   0  0  0  0  0  0  0  0  0  0  0  0
  157.9150  214.2610  151.0890 C   0  0  0  0  0  1  0  0  0  0  0  0
  158.2370  213.4430  152.3210 C   0  0  0  0  0  2  0  0  0  0  0  0
  160.8280  206.2620  149.6890 C   0  0  0  0  0  2  0  0  0  0  0  0
  161.1500  204.8410  149.6470 N   0  0  0  0  0  0  0  0  0  0  0  0
  161.3620  205.4690  144.6870 C   0  0  0  0  0  0  0  0  0  0  0  0
  160.6650  204.2420  144.9190 N   0  0  0  0  0  2  0  0  0  0  0  0
  163.7970  204.7040  146.8610 C   0  0  0  0  0  1  0  0  0  0  0  0
  162.4300  205.3560  146.9270 C   0  0  1  0  0  3  0  0  0  0  0  0
  160.8360  204.1250  148.4390 C   0  0  0  0  0  3  0  0  0  0  0  0
  162.1590  206.0250  145.6950 O   0  0  0  0  0  0  0  0  0  0  0  0
  161.2050  206.0860  143.6010 O   0  0  0  0  0  0  0  0  0  0  0  0
  160.9230  203.4460  146.1100 C   0  0  0  0  0  2  0  0  0  0  0  0
  161.3780  204.3220  147.2310 C   0  0  0  0  0  0  0  0  0  0  0  0
  160.6670  204.4560  151.9050 O   0  0  0  0  0  1  0  0  0  0  0  0
  161.5760  204.1800  150.8820 C   0  0  1  0  0  3  0  0  0  0  0  0
  161.6800  202.6730  150.6860 C   0  0  0  0  0  2  0  0  0  0  0  0
  160.3300  202.0130  150.8820 C   0  0  0  0  0  2  0  0  0  0  0  0
  159.9970  201.1410  149.6830 C   0  0  0  0  0  2  0  0  0  0  0  0
  161.2220  200.7810  148.9890 N   0  0  0  0  0  1  0  0  0  0  0  0
  1 11  1  0  0  0  0
  2  7  2  0  0  0  0
  3 13  2  0  0  0  0
  4  2  1  0  0  0  0
  6  4  2  0  0  0  0
  8  3  1  0  0  0  0
  8  6  1  0  0  0  0
  9  7  1  0  0  0  0
  9  5  1  0  0  0  0
 10 14  1  0  0  0  0
 10  1  1  0  0  0  0
 11 31  1  6  0  0  0
 11 12  1  0  0  0  0
 12  5  2  0  0  0  0
 13  4  1  0  0  0  0
 13 14  1  0  0  0  0
 14  9  2  0  0  0  0
 15 18  1  0  0  0  0
 15 23  1  1  0  0  0
 17 28  1  6  0  0  0
 17 21  1  0  0  0  0
 18 26  1  6  0  0  0
 19 22  1  0  0  0  0
 20  7  1  6  0  0  0
 20 17  1  0  0  0  0
 20 19  1  0  0  0  0
 21 16  2  0  0  0  0
 21 18  1  0  0  0  0
 22 15  1  0  0  0  0
 23 24  1  0  0  0  0
 25 23  2  0  0  0  0
 27 26  1  0  0  0  0
 28 30  1  0  0  0  0
 29 30  1  0  0  0  0
 32 31  1  0  0  0  0
 32 43  1  0  0  0  0
 33 34  1  0  0  0  0
 33 38  1  0  0  0  0
 34 40  1  0  0  0  0
 36 35  1  6  0  0  0
 36 41  1  0  0  0  0
 37 32  1  0  0  0  0
 38 36  1  0  0  0  0
 39 33  2  0  0  0  0
 40 41  1  0  0  0  0
 41 37  2  0  0  0  0
 43 42  1  1  0  0  0
 44 43  1  0  0  0  0
 44 45  1  0  0  0  0
 46 45  1  0  0  0  0
 47 46  1  0  0  0  0
M  END
>  <MODEL>
6

>  <REMARK>
 VINA RESULT:      -4.9      3.253      7.844
  Name = 
  12 active torsions:
  status: ('A' for Active; 'I' for Inactive)
    1  A    between atoms: O_1  and  C_9
    2  A    between atoms: O_1  and  C_35
    3  A    between atoms: C_3  and  C_13
    4  A    between atoms: C_6  and  C_12
    5  A    between atoms: C_11  and  C_17
    6  A    between atoms: C_13  and  C_42
    7  A    between atoms: C_14  and  N_39
    8  A    between atoms: C_14  and  C_43
    9  A    between atoms: C_22  and  C_26
   10  A    between atoms: C_28  and  N_39
   11  A    between atoms: C_33  and  N_39
   12  A    between atoms: C_33  and  C_42
                            x       y       z     vdW  Elec       q    Type
                         _______ _______ _______ _____ _____    ______ ____

>  <TORSDO>
F 12

$$$$
=
 OpenBabel11072414533D

 47 51  0  0  1  0  0  0  0  0999 V2000
  162.4210  210.7240  150.2500 C   0  0  0  0  0  2  0  0  0  0  0  0
  161.5040  205.7900  151.5530 C   0  0  0  0  0  3  0  0  0  0  0  0
  160.6350  208.6570  153.4000 N   0  0  0  0  0  0  0  0  0  0  0  0
  161.1130  206.6940  152.5230 C   0  0  0  0  0  0  0  0  0  0  0  0
  162.2240  208.1500  148.6580 C   0  0  0  0  0  3  0  0  0  0  0  0
  160.6950  206.5080  153.8180 C   0  0  0  0  0  3  0  0  0  0  0  0
  161.8630  206.2860  150.2880 C   0  0  0  0  0  0  0  0  0  0  0  0
  160.4260  207.7180  154.2850 O   0  0  0  0  0  0  0  0  0  0  0  0
  161.8280  207.7010  150.0210 C   0  0  0  0  0  0  0  0  0  0  0  0
  161.2270  210.0640  150.9040 C   0  0  0  0  0  2  0  0  0  0  0  0
  162.2560  210.7110  148.7420 C   0  0  1  0  0  3  0  0  0  0  0  0
  162.4130  209.3620  148.1180 C   0  0  0  0  0  3  0  0  0  0  0  0
  161.0670  208.0270  152.2950 C   0  0  0  0  0  0  0  0  0  0  0  0
  161.4150  208.5900  151.0650 C   0  0  0  0  0  0  0  0  0  0  0  0
  160.7760  205.4340  146.6620 C   0  0  1  0  0  3  0  0  0  0  0  0
  162.2860  202.2730  147.7740 O   0  0  0  0  0  0  0  0  0  0  0  0
  161.3920  204.0190  149.1090 C   0  0  1  0  0  3  0  0  0  0  0  0
  161.2520  203.9660  146.4880 C   0  0  1  0  0  3  0  0  0  0  0  0
  162.8600  205.7960  148.0480 N   0  0  0  0  0  2  0  0  0  0  0  0
  162.3130  205.2370  149.2950 C   0  0  1  0  0  3  0  0  0  0  0  0
  161.6650  203.3240  147.7950 C   0  0  0  0  0  0  0  0  0  0  0  0
  161.8350  206.4180  147.2010 C   0  0  0  0  0  2  0  0  0  0  0  0
  160.1520  206.0140  145.4320 C   0  0  0  0  0  0  0  0  0  0  0  0
  158.9010  206.1370  145.3420 O   0  0  0  0  0  1  0  0  0  0  0  0
  160.9590  206.3820  144.3600 O   0  0  0  0  0  0  0  0  0  0  0  0
  160.2100  203.0870  145.7810 C   0  0  0  0  0  2  0  0  0  0  0  0
  160.6420  201.6310  145.6960 C   0  0  0  0  0  1  0  0  0  0  0  0
  161.5410  203.1370  150.1850 O   0  0  0  0  0  0  0  0  0  0  0  0
  159.7670  201.6820  149.5880 C   0  0  0  0  0  1  0  0  0  0  0  0
  160.2420  202.7640  150.5330 C   0  0  0  0  0  2  0  0  0  0  0  0
  160.9520  211.3650  148.2950 C   0  0  0  0  0  2  0  0  0  0  0  0
  161.1760  212.7530  147.9090 N   0  0  0  0  0  0  0  0  0  0  0  0
  161.4860  212.1250  142.9550 C   0  0  0  0  0  0  0  0  0  0  0  0
  162.7660  212.5830  143.3930 N   0  0  0  0  0  2  0  0  0  0  0  0
  159.8460  214.4510  144.7260 C   0  0  0  0  0  1  0  0  0  0  0  0
  160.3900  213.0590  144.9790 C   0  0  1  0  0  3  0  0  0  0  0  0
  162.0950  213.0000  146.8300 C   0  0  0  0  0  3  0  0  0  0  0  0
  160.3590  212.3050  143.7660 O   0  0  0  0  0  0  0  0  0  0  0  0
  161.3810  211.4950  141.8690 O   0  0  0  0  0  0  0  0  0  0  0  0
  162.8990  213.4200  144.5780 C   0  0  0  0  0  2  0  0  0  0  0  0
  161.7870  213.1420  145.5360 C   0  0  0  0  0  0  0  0  0  0  0  0
  159.5180  214.3900  148.1360 O   0  0  0  0  0  1  0  0  0  0  0  0
  160.6300  213.8160  148.7550 C   0  0  1  0  0  3  0  0  0  0  0  0
  160.2310  213.2750  150.1220 C   0  0  0  0  0  2  0  0  0  0  0  0
  159.4210  214.3020  150.8870 C   0  0  0  0  0  2  0  0  0  0  0  0
  158.1860  213.6510  151.4860 C   0  0  0  0  0  2  0  0  0  0  0  0
  158.5620  212.4160  152.1510 N   0  0  0  0  0  1  0  0  0  0  0  0
  1 10  1  0  0  0  0
  2  4  1  0  0  0  0
  3  8  1  0  0  0  0
  4  6  2  0  0  0  0
  5  9  1  0  0  0  0
  6  8  1  0  0  0  0
  7  2  2  0  0  0  0
  9  7  1  0  0  0  0
  9 14  2  0  0  0  0
 10 14  1  0  0  0  0
 11 31  1  1  0  0  0
 11  1  1  0  0  0  0
 12  5  2  0  0  0  0
 12 11  1  0  0  0  0
 13  4  1  0  0  0  0
 13  3  2  0  0  0  0
 14 13  1  0  0  0  0
 15 23  1  6  0  0  0
 15 22  1  0  0  0  0
 16 21  2  0  0  0  0
 17 20  1  0  0  0  0
 17 28  1  1  0  0  0
 18 26  1  1  0  0  0
 18 15  1  0  0  0  0
 18 21  1  0  0  0  0
 19 20  1  0  0  0  0
 20  7  1  6  0  0  0
 21 17  1  0  0  0  0
 22 19  1  0  0  0  0
 24 23  1  0  0  0  0
 25 23  2  0  0  0  0
 27 26  1  0  0  0  0
 28 30  1  0  0  0  0
 29 30  1  0  0  0  0
 32 31  1  0  0  0  0
 32 43  1  0  0  0  0
 33 34  1  0  0  0  0
 33 38  1  0  0  0  0
 34 40  1  0  0  0  0
 36 35  1  6  0  0  0
 36 41  1  0  0  0  0
 37 32  1  0  0  0  0
 38 36  1  0  0  0  0
 39 33  2  0  0  0  0
 40 41  1  0  0  0  0
 41 37  2  0  0  0  0
 43 42  1  6  0  0  0
 43 44  1  0  0  0  0
 44 45  1  0  0  0  0
 45 46  1  0  0  0  0
 46 47  1  0  0  0  0
M  END
>  <MODEL>
7

>  <REMARK>
 VINA RESULT:      -4.7      2.295      4.162
  Name = 
  12 active torsions:
  status: ('A' for Active; 'I' for Inactive)
    1  A    between atoms: O_1  and  C_9
    2  A    between atoms: O_1  and  C_35
    3  A    between atoms: C_3  and  C_13
    4  A    between atoms: C_6  and  C_12
    5  A    between atoms: C_11  and  C_17
    6  A    between atoms: C_13  and  C_42
    7  A    between atoms: C_14  and  N_39
    8  A    between atoms: C_14  and  C_43
    9  A    between atoms: C_22  and  C_26
   10  A    between atoms: C_28  and  N_39
   11  A    between atoms: C_33  and  N_39
   12  A    between atoms: C_33  and  C_42
                            x       y       z     vdW  Elec       q    Type
                         _______ _______ _______ _____ _____    ______ ____

>  <TORSDO>
F 12

$$$$
=
 OpenBabel11072414533D

 47 51  0  0  1  0  0  0  0  0999 V2000
  161.6000  213.8550  149.0600 C   0  0  0  0  0  2  0  0  0  0  0  0
  160.0280  210.6310  152.8030 C   0  0  0  0  0  3  0  0  0  0  0  0
  158.4870  213.6400  151.8260 N   0  0  0  0  0  0  0  0  0  0  0  0
  159.2580  211.7750  152.7070 C   0  0  0  0  0  0  0  0  0  0  0  0
  162.0880  210.9150  149.6190 C   0  0  0  0  0  3  0  0  0  0  0  0
  158.2780  212.2790  153.5280 C   0  0  0  0  0  3  0  0  0  0  0  0
  160.9510  210.3630  151.7780 C   0  0  0  0  0  0  0  0  0  0  0  0
  157.8600  213.3920  152.9450 O   0  0  0  0  0  0  0  0  0  0  0  0
  161.0880  211.2650  150.6640 C   0  0  0  0  0  0  0  0  0  0  0  0
  160.2190  213.4020  149.4790 C   0  0  0  0  0  2  0  0  0  0  0  0
  162.1570  212.9100  148.0120 C   0  0  1  0  0  3  0  0  0  0  0  0
  162.5450  211.5660  148.5410 C   0  0  0  0  0  3  0  0  0  0  0  0
  159.3650  212.6350  151.6690 C   0  0  0  0  0  0  0  0  0  0  0  0
  160.2640  212.4350  150.6190 C   0  0  0  0  0  0  0  0  0  0  0  0
  160.9800  206.9020  150.0240 C   0  0  1  0  0  3  0  0  0  0  0  0
  162.5390  206.1350  153.2630 O   0  0  0  0  0  0  0  0  0  0  0  0
  161.1060  207.9460  152.7190 C   0  0  1  0  0  3  0  0  0  0  0  0
  161.6720  205.9840  151.0690 C   0  0  1  0  0  3  0  0  0  0  0  0
  162.5590  208.7230  150.7890 N   0  0  0  0  0  2  0  0  0  0  0  0
  161.7790  209.1120  151.9760 C   0  0  1  0  0  3  0  0  0  0  0  0
  161.8040  206.6370  152.4280 C   0  0  0  0  0  0  0  0  0  0  0  0
  161.7220  208.2140  149.6960 C   0  0  0  0  0  2  0  0  0  0  0  0
  160.6330  206.2050  148.7470 C   0  0  0  0  0  0  0  0  0  0  0  0
  159.4300  206.0060  148.4280 O   0  0  0  0  0  1  0  0  0  0  0  0
  161.6510  205.7330  147.9230 O   0  0  0  0  0  0  0  0  0  0  0  0
  160.9760  204.6220  151.2100 C   0  0  0  0  0  2  0  0  0  0  0  0
  161.9570  203.5010  151.5190 C   0  0  0  0  0  1  0  0  0  0  0  0
  161.0780  208.2060  154.0940 O   0  0  0  0  0  0  0  0  0  0  0  0
  159.7340  207.9270  156.0280 C   0  0  0  0  0  1  0  0  0  0  0  0
  159.8820  207.6490  154.5470 C   0  0  0  0  0  2  0  0  0  0  0  0
  161.2330  212.7700  146.8060 C   0  0  0  0  0  2  0  0  0  0  0  0
  161.3270  213.9430  145.9450 N   0  0  0  0  0  0  0  0  0  0  0  0
  158.6060  213.2540  141.8030 C   0  0  0  0  0  0  0  0  0  0  0  0
  158.0160  214.3500  142.5070 N   0  0  0  0  0  2  0  0  0  0  0  0
  158.8300  211.3660  144.5630 C   0  0  0  0  0  1  0  0  0  0  0  0
  159.6810  212.4180  143.8800 C   0  0  1  0  0  3  0  0  0  0  0  0
  160.1120  214.4220  145.3420 C   0  0  0  0  0  3  0  0  0  0  0  0
  159.4610  212.3690  142.4700 O   0  0  0  0  0  0  0  0  0  0  0  0
  158.4120  213.1250  140.5650 O   0  0  0  0  0  0  0  0  0  0  0  0
  158.1190  214.4530  143.9560 C   0  0  0  0  0  2  0  0  0  0  0  0
  159.3640  213.7810  144.4370 C   0  0  0  0  0  0  0  0  0  0  0  0
  163.5010  214.3980  146.6860 O   0  0  0  0  0  1  0  0  0  0  0  0
  162.6540  214.4400  145.5770 C   0  0  1  0  0  3  0  0  0  0  0  0
  163.2530  213.6120  144.4470 C   0  0  0  0  0  2  0  0  0  0  0  0
  163.3610  214.4370  143.1800 C   0  0  0  0  0  2  0  0  0  0  0  0
  162.6640  213.7250  142.0330 C   0  0  0  0  0  2  0  0  0  0  0  0
  163.0580  212.3270  142.0190 N   0  0  0  0  0  1  0  0  0  0  0  0
  1 10  1  0  0  0  0
  3  8  1  0  0  0  0
  4  2  1  0  0  0  0
  4  6  2  0  0  0  0
  5  9  1  0  0  0  0
  7  2  2  0  0  0  0
  8  6  1  0  0  0  0
  9  7  1  0  0  0  0
 10 14  1  0  0  0  0
 11 31  1  6  0  0  0
 11 12  1  0  0  0  0
 11  1  1  0  0  0  0
 12  5  2  0  0  0  0
 13  3  2  0  0  0  0
 13  4  1  0  0  0  0
 14  9  2  0  0  0  0
 14 13  1  0  0  0  0
 15 23  1  6  0  0  0
 15 18  1  0  0  0  0
 17 28  1  1  0  0  0
 18 26  1  1  0  0  0
 18 21  1  0  0  0  0
 19 20  1  0  0  0  0
 20  7  1  6  0  0  0
 20 17  1  0  0  0  0
 21 17  1  0  0  0  0
 21 16  2  0  0  0  0
 22 15  1  0  0  0  0
 22 19  1  0  0  0  0
 24 23  1  0  0  0  0
 25 23  2  0  0  0  0
 26 27  1  0  0  0  0
 28 30  1  0  0  0  0
 30 29  1  0  0  0  0
 32 31  1  0  0  0  0
 33 38  1  0  0  0  0
 33 34  1  0  0  0  0
 34 40  1  0  0  0  0
 36 41  1  0  0  0  0
 36 35  1  1  0  0  0
 37 32  1  0  0  0  0
 38 36  1  0  0  0  0
 39 33  2  0  0  0  0
 40 41  1  0  0  0  0
 41 37  2  0  0  0  0
 43 32  1  0  0  0  0
 43 42  1  1  0  0  0
 44 43  1  0  0  0  0
 45 44  1  0  0  0  0
 46 45  1  0  0  0  0
 47 46  1  0  0  0  0
M  END
>  <MODEL>
8

>  <REMARK>
 VINA RESULT:      -4.3      1.454      3.083
  Name = 
  12 active torsions:
  status: ('A' for Active; 'I' for Inactive)
    1  A    between atoms: O_1  and  C_9
    2  A    between atoms: O_1  and  C_35
    3  A    between atoms: C_3  and  C_13
    4  A    between atoms: C_6  and  C_12
    5  A    between atoms: C_11  and  C_17
    6  A    between atoms: C_13  and  C_42
    7  A    between atoms: C_14  and  N_39
    8  A    between atoms: C_14  and  C_43
    9  A    between atoms: C_22  and  C_26
   10  A    between atoms: C_28  and  N_39
   11  A    between atoms: C_33  and  N_39
   12  A    between atoms: C_33  and  C_42
                            x       y       z     vdW  Elec       q    Type
                         _______ _______ _______ _____ _____    ______ ____

>  <TORSDO>
F 12

$$$$
=
 OpenBabel11072414533D

 47 51  0  0  1  0  0  0  0  0999 V2000
  160.6390  211.4620  153.6780 C   0  0  0  0  0  2  0  0  0  0  0  0
  161.2810  206.3330  154.0740 C   0  0  0  0  0  3  0  0  0  0  0  0
  160.0650  208.5050  156.5610 N   0  0  0  0  0  0  0  0  0  0  0  0
  160.8590  206.9240  155.2500 C   0  0  0  0  0  0  0  0  0  0  0  0
  160.8170  209.2210  151.6430 C   0  0  0  0  0  3  0  0  0  0  0  0
  160.7530  206.4260  156.5260 C   0  0  0  0  0  3  0  0  0  0  0  0
  161.2580  207.1020  152.8970 C   0  0  0  0  0  0  0  0  0  0  0  0
  160.2730  207.4200  157.2590 O   0  0  0  0  0  0  0  0  0  0  0  0
  160.8110  208.4710  152.9280 C   0  0  0  0  0  0  0  0  0  0  0  0
  159.7980  210.3940  154.3430 C   0  0  0  0  0  2  0  0  0  0  0  0
  160.2040  211.6380  152.2360 C   0  0  1  0  0  3  0  0  0  0  0  0
  160.5830  210.5050  151.3370 C   0  0  0  0  0  3  0  0  0  0  0  0
  160.4300  208.2060  155.3040 C   0  0  0  0  0  0  0  0  0  0  0  0
  160.3860  209.0290  154.1770 C   0  0  0  0  0  0  0  0  0  0  0  0
  161.7610  208.2300  149.2190 C   0  0  1  0  0  3  0  0  0  0  0  0
  161.5410  204.5760  148.8790 O   0  0  0  0  0  0  0  0  0  0  0  0
  160.7150  205.9360  150.6390 C   0  0  1  0  0  3  0  0  0  0  0  0
  161.7890  206.8860  148.4410 C   0  0  1  0  0  3  0  0  0  0  0  0
  162.9700  207.0140  151.0780 N   0  0  0  0  0  2  0  0  0  0  0  0
  161.7690  206.3940  151.6620 C   0  0  1  0  0  3  0  0  0  0  0  0
  161.3350  205.7110  149.2790 C   0  0  0  0  0  0  0  0  0  0  0  0
  162.6960  208.3090  150.4440 C   0  0  0  0  0  2  0  0  0  0  0  0
  161.9840  209.4300  148.3550 C   0  0  0  0  0  0  0  0  0  0  0  0
  163.1480  209.8710  148.1530 O   0  0  0  0  0  1  0  0  0  0  0  0
  160.8920  210.0930  147.8040 O   0  0  0  0  0  0  0  0  0  0  0  0
  160.9770  206.9410  147.1370 C   0  0  0  0  0  2  0  0  0  0  0  0
  161.2660  205.7590  146.2250 C   0  0  0  0  0  1  0  0  0  0  0  0
  160.0740  204.7800  151.0980 O   0  0  0  0  0  0  0  0  0  0  0  0
  160.6090  202.8850  152.4190 C   0  0  0  0  0  1  0  0  0  0  0  0
  161.1020  203.8860  151.3960 C   0  0  0  0  0  2  0  0  0  0  0  0
  158.7160  211.9510  152.1120 C   0  0  0  0  0  2  0  0  0  0  0  0
  158.4930  213.3920  152.0800 N   0  0  0  0  0  0  0  0  0  0  0  0
  156.0270  212.6140  156.3640 C   0  0  0  0  0  0  0  0  0  0  0  0
  155.2590  213.5550  155.6110 N   0  0  0  0  0  2  0  0  0  0  0  0
  158.9030  214.2430  155.8080 C   0  0  0  0  0  1  0  0  0  0  0  0
  158.0850  213.1840  155.0950 C   0  0  1  0  0  3  0  0  0  0  0  0
  157.3530  213.9030  152.7950 C   0  0  0  0  0  3  0  0  0  0  0  0
  157.3760  212.4010  156.0560 O   0  0  0  0  0  0  0  0  0  0  0  0
  155.4730  211.9240  157.2610 O   0  0  0  0  0  0  0  0  0  0  0  0
  155.8970  214.4530  154.6580 C   0  0  0  0  0  2  0  0  0  0  0  0
  157.1430  213.8320  154.1150 C   0  0  0  0  0  0  0  0  0  0  0  0
  160.6440  214.1450  151.5430 O   0  0  0  0  0  1  0  0  0  0  0  0
  159.2990  214.2080  151.1710 C   0  0  1  0  0  3  0  0  0  0  0  0
  159.1450  213.7360  149.7310 C   0  0  0  0  0  2  0  0  0  0  0  0
  157.7000  213.8370  149.2880 C   0  0  0  0  0  2  0  0  0  0  0  0
  157.6140  213.7800  147.7710 C   0  0  0  0  0  2  0  0  0  0  0  0
  157.1030  212.4830  147.3630 N   0  0  0  0  0  1  0  0  0  0  0  0
  1 10  1  0  0  0  0
  2  4  1  0  0  0  0
  3  8  1  0  0  0  0
  4 13  1  0  0  0  0
  4  6  2  0  0  0  0
  5  9  1  0  0  0  0
  6  8  1  0  0  0  0
  7  9  1  0  0  0  0
  7  2  2  0  0  0  0
  9 14  2  0  0  0  0
 11 31  1  1  0  0  0
 11  1  1  0  0  0  0
 12  5  2  0  0  0  0
 12 11  1  0  0  0  0
 13  3  2  0  0  0  0
 14 10  1  0  0  0  0
 14 13  1  0  0  0  0
 15 23  1  6  0  0  0
 15 22  1  0  0  0  0
 16 21  2  0  0  0  0
 17 28  1  1  0  0  0
 17 20  1  0  0  0  0
 18 26  1  6  0  0  0
 18 15  1  0  0  0  0
 18 21  1  0  0  0  0
 19 20  1  0  0  0  0
 20  7  1  1  0  0  0
 21 17  1  0  0  0  0
 22 19  1  0  0  0  0
 24 23  1  0  0  0  0
 25 23  2  0  0  0  0
 27 26  1  0  0  0  0
 28 30  1  0  0  0  0
 30 29  1  0  0  0  0
 32 31  1  0  0  0  0
 32 37  1  0  0  0  0
 33 39  2  0  0  0  0
 34 33  1  0  0  0  0
 36 35  1  1  0  0  0
 36 38  1  0  0  0  0
 37 41  2  0  0  0  0
 38 33  1  0  0  0  0
 40 34  1  0  0  0  0
 41 40  1  0  0  0  0
 41 36  1  0  0  0  0
 43 42  1  1  0  0  0
 43 32  1  0  0  0  0
 44 43  1  0  0  0  0
 45 44  1  0  0  0  0
 46 45  1  0  0  0  0
 47 46  1  0  0  0  0
M  END
>  <MODEL>
9

>  <REMARK>
 VINA RESULT:      -4.1      3.312      7.284
  Name = 
  12 active torsions:
  status: ('A' for Active; 'I' for Inactive)
    1  A    between atoms: O_1  and  C_9
    2  A    between atoms: O_1  and  C_35
    3  A    between atoms: C_3  and  C_13
    4  A    between atoms: C_6  and  C_12
    5  A    between atoms: C_11  and  C_17
    6  A    between atoms: C_13  and  C_42
    7  A    between atoms: C_14  and  N_39
    8  A    between atoms: C_14  and  C_43
    9  A    between atoms: C_22  and  C_26
   10  A    between atoms: C_28  and  N_39
   11  A    between atoms: C_33  and  N_39
   12  A    between atoms: C_33  and  C_42
                            x       y       z     vdW  Elec       q    Type
                         _______ _______ _______ _____ _____    ______ ____

>  <TORSDO>
F 12

$$$$
