=
 OpenBabel11072415253D

 25 27  0  0  1  0  0  0  0  0999 V2000
  161.2660  211.5610  147.9800 C   0  0  0  0  0  2  0  0  0  0  0  0
  161.5910  212.9920  147.5840 C   0  0  2  0  0  3  0  0  0  0  0  0
  161.3730  209.7410  153.3620 C   0  0  0  0  0  2  0  0  0  0  0  0
  160.1040  214.2550  149.2540 C   0  0  0  0  0  2  0  0  0  0  0  0
  161.1180  208.0640  151.5220 C   0  0  0  0  0  3  0  0  0  0  0  0
  159.5250  212.2140  152.2130 C   0  0  2  0  0  3  0  0  0  0  0  0
  157.5760  213.7180  151.6280 C   0  0  0  0  0  2  0  0  0  0  0  0
  161.5240  213.9540  148.7790 C   0  0  0  0  0  2  0  0  0  0  0  0
  162.4780  210.9210  148.6350 C   0  0  0  0  0  2  0  0  0  0  0  0
  161.2050  207.7020  150.1740 C   0  0  0  0  0  3  0  0  0  0  0  0
  157.4010  214.0450  149.2550 O   0  0  0  0  0  1  0  0  0  0  0  0
  158.2080  212.8330  152.7050 C   0  0  0  0  0  2  0  0  0  0  0  0
  161.4970  209.3490  151.9280 C   0  0  0  0  0  0  0  0  0  0  0  0
  160.1080  210.5550  153.5870 C   0  0  2  0  0  3  0  0  0  0  0  0
  160.3480  211.9050  153.3030 O   0  0  0  0  0  0  0  0  0  0  0  0
  159.6980  210.4250  154.9740 N   0  0  0  0  0  1  0  0  0  0  0  0
  162.0390  209.9120  149.6350 C   0  0  0  0  0  0  0  0  0  0  0  0
  161.9540  210.2710  150.9830 C   0  0  0  0  0  3  0  0  0  0  0  0
  159.5240  213.1280  150.1070 C   0  0  1  0  0  3  0  0  0  0  0  0
  160.1890  213.1170  151.3610 O   0  0  0  0  0  0  0  0  0  0  0  0
  157.9770  213.2360  150.2380 C   0  0  1  0  0  3  0  0  0  0  0  0
  161.6620  208.6260  149.2290 C   0  0  0  0  0  3  0  0  0  0  0  0
  160.7580  213.4500  146.4280 C   0  0  0  0  0  0  0  0  0  0  0  0
  159.5730  212.7980  146.1040 O   0  0  0  0  0  1  0  0  0  0  0  0
  161.1200  214.4530  145.7610 O   0  0  0  0  0  0  0  0  0  0  0  0
  1  9  1  0  0  0  0
  2 23  1  6  0  0  0
  2  1  1  0  0  0  0
  2  8  1  0  0  0  0
  3 14  1  0  0  0  0
  5 13  1  0  0  0  0
  6 12  1  1  0  0  0
  6 15  1  0  0  0  0
  7 12  1  0  0  0  0
  8  4  1  0  0  0  0
  9 17  1  0  0  0  0
 10  5  2  0  0  0  0
 13  3  1  0  0  0  0
 14 16  1  1  0  0  0
 15 14  1  0  0  0  0
 17 18  1  0  0  0  0
 18 13  2  0  0  0  0
 19  4  1  6  0  0  0
 19 21  1  0  0  0  0
 19 20  1  0  0  0  0
 20  6  1  0  0  0  0
 21 11  1  6  0  0  0
 21  7  1  0  0  0  0
 22 17  2  0  0  0  0
 22 10  1  0  0  0  0
 24 23  1  0  0  0  0
 25 23  2  0  0  0  0
M  END
>  <MODEL>
1

>  <REMARK>
 VINA RESULT:      -6.0      0.000      0.000
  Name = 
  1 active torsions:
  status: ('A' for Active; 'I' for Inactive)
    1  A    between atoms: C_1  and  C_3
                            x       y       z     vdW  Elec       q    Type
                         _______ _______ _______ _____ _____    ______ ____

>  <TORSDO>
F 1

$$$$
=
 OpenBabel11072415253D

 25 27  0  0  1  0  0  0  0  0999 V2000
  159.5410  211.0590  153.5590 C   0  0  0  0  0  2  0  0  0  0  0  0
  160.5820  210.5160  154.5240 C   0  0  2  0  0  3  0  0  0  0  0  0
  160.8920  213.6840  148.7050 C   0  0  0  0  0  2  0  0  0  0  0  0
  162.0570  209.2030  152.8810 C   0  0  0  0  0  2  0  0  0  0  0  0
  158.5110  213.7120  149.4730 C   0  0  0  0  0  3  0  0  0  0  0  0
  161.7820  210.6240  149.5390 C   0  0  2  0  0  3  0  0  0  0  0  0
  162.1520  208.1200  149.5440 C   0  0  0  0  0  2  0  0  0  0  0  0
  161.9610  210.3680  153.8660 C   0  0  0  0  0  2  0  0  0  0  0  0
  159.7010  212.5630  153.4240 C   0  0  0  0  0  2  0  0  0  0  0  0
  157.5430  213.5400  150.4680 C   0  0  0  0  0  3  0  0  0  0  0  0
  161.1360  207.0870  151.4600 O   0  0  0  0  0  1  0  0  0  0  0  0
  162.1710  209.3970  148.7000 C   0  0  0  0  0  2  0  0  0  0  0  0
  159.8660  213.5310  149.7750 C   0  0  0  0  0  0  0  0  0  0  0  0
  161.3160  212.3240  148.1700 C   0  0  2  0  0  3  0  0  0  0  0  0
  162.3260  211.7840  148.9760 O   0  0  0  0  0  0  0  0  0  0  0  0
  161.8160  212.4780  146.8160 N   0  0  0  0  0  1  0  0  0  0  0  0
  159.2810  212.9970  152.0650 C   0  0  0  0  0  0  0  0  0  0  0  0
  160.2480  213.1710  151.0710 C   0  0  0  0  0  3  0  0  0  0  0  0
  161.4270  209.5330  151.5280 C   0  0  1  0  0  3  0  0  0  0  0  0
  162.2530  210.4710  150.8560 O   0  0  0  0  0  0  0  0  0  0  0  0
  161.1530  208.2520  150.6880 C   0  0  1  0  0  3  0  0  0  0  0  0
  157.9270  213.1790  151.7630 C   0  0  0  0  0  3  0  0  0  0  0  0
  160.1210  209.2550  155.1860 C   0  0  0  0  0  0  0  0  0  0  0  0
  160.4600  208.0130  154.6600 O   0  0  0  0  0  0  0  0  0  0  0  0
  159.4450  209.3200  156.2440 O   0  0  0  0  0  1  0  0  0  0  0  0
  1  2  1  0  0  0  0
  2 23  1  6  0  0  0
  3 13  1  0  0  0  0
  4  8  1  0  0  0  0
  5 13  2  0  0  0  0
  5 10  1  0  0  0  0
  6 12  1  6  0  0  0
  6 20  1  0  0  0  0
  7 21  1  0  0  0  0
  8  2  1  0  0  0  0
  9  1  1  0  0  0  0
 10 22  2  0  0  0  0
 12  7  1  0  0  0  0
 13 18  1  0  0  0  0
 14 16  1  6  0  0  0
 14  3  1  0  0  0  0
 14 15  1  0  0  0  0
 15  6  1  0  0  0  0
 17  9  1  0  0  0  0
 18 17  2  0  0  0  0
 19  4  1  1  0  0  0
 20 19  1  0  0  0  0
 21 11  1  1  0  0  0
 21 19  1  0  0  0  0
 22 17  1  0  0  0  0
 23 25  1  0  0  0  0
 24 23  2  0  0  0  0
M  END
>  <MODEL>
2

>  <REMARK>
 VINA RESULT:      -5.0      2.689      6.760
  Name = 
  1 active torsions:
  status: ('A' for Active; 'I' for Inactive)
    1  A    between atoms: C_1  and  C_3
                            x       y       z     vdW  Elec       q    Type
                         _______ _______ _______ _____ _____    ______ ____

>  <TORSDO>
F 1

$$$$
=
 OpenBabel11072415253D

 25 27  0  0  1  0  0  0  0  0999 V2000
  161.4180  209.6280  148.6430 C   0  0  0  0  0  2  0  0  0  0  0  0
  162.1520  210.9550  148.5440 C   0  0  2  0  0  3  0  0  0  0  0  0
  161.7410  206.2480  153.1990 C   0  0  0  0  0  2  0  0  0  0  0  0
  161.4790  211.9940  150.7950 C   0  0  0  0  0  2  0  0  0  0  0  0
  160.6320  205.3850  151.1290 C   0  0  0  0  0  3  0  0  0  0  0  0
  160.7060  209.3750  153.2040 C   0  0  2  0  0  3  0  0  0  0  0  0
  159.3320  211.4770  153.5220 C   0  0  0  0  0  2  0  0  0  0  0  0
  162.6130  211.4670  149.9170 C   0  0  0  0  0  2  0  0  0  0  0  0
  162.4210  208.4970  148.7910 C   0  0  0  0  0  2  0  0  0  0  0  0
  160.3730  205.4590  149.7560 C   0  0  0  0  0  3  0  0  0  0  0  0
  158.9080  212.5730  151.4280 O   0  0  0  0  0  1  0  0  0  0  0  0
  159.7810  210.1550  154.1500 C   0  0  0  0  0  2  0  0  0  0  0  0
  161.4920  206.3110  151.7300 C   0  0  0  0  0  0  0  0  0  0  0  0
  160.8890  207.2740  153.9320 C   0  0  2  0  0  3  0  0  0  0  0  0
  161.5330  208.5170  153.9390 O   0  0  0  0  0  0  0  0  0  0  0  0
  160.6840  206.8340  155.3000 N   0  0  0  0  0  1  0  0  0  0  0  0
  161.8240  207.3920  149.5870 C   0  0  0  0  0  0  0  0  0  0  0  0
  162.0840  207.3150  150.9590 C   0  0  0  0  0  3  0  0  0  0  0  0
  160.6880  210.8690  151.4610 C   0  0  1  0  0  3  0  0  0  0  0  0
  161.4970  210.2730  152.4630 O   0  0  0  0  0  0  0  0  0  0  0  0
  159.3150  211.3660  152.0020 C   0  0  1  0  0  3  0  0  0  0  0  0
  160.9660  206.4640  148.9860 C   0  0  0  0  0  3  0  0  0  0  0  0
  161.3570  211.9730  147.7870 C   0  0  0  0  0  0  0  0  0  0  0  0
  161.8290  213.2720  147.6350 O   0  0  0  0  0  1  0  0  0  0  0  0
  160.2660  211.6410  147.2580 O   0  0  0  0  0  0  0  0  0  0  0  0
  1  9  1  0  0  0  0
  2 23  1  1  0  0  0
  2  1  1  0  0  0  0
  2  8  1  0  0  0  0
  3 14  1  0  0  0  0
  5 13  1  0  0  0  0
  6 15  1  0  0  0  0
  6 12  1  1  0  0  0
  7 12  1  0  0  0  0
  8  4  1  0  0  0  0
  9 17  1  0  0  0  0
 10  5  2  0  0  0  0
 13  3  1  0  0  0  0
 14 15  1  0  0  0  0
 14 16  1  1  0  0  0
 17 18  1  0  0  0  0
 18 13  2  0  0  0  0
 19  4  1  1  0  0  0
 19 21  1  0  0  0  0
 19 20  1  0  0  0  0
 20  6  1  0  0  0  0
 21 11  1  6  0  0  0
 21  7  1  0  0  0  0
 22 17  2  0  0  0  0
 22 10  1  0  0  0  0
 24 23  1  0  0  0  0
 25 23  2  0  0  0  0
M  END
>  <MODEL>
3

>  <REMARK>
 VINA RESULT:      -4.5      1.958      2.976
  Name = 
  1 active torsions:
  status: ('A' for Active; 'I' for Inactive)
    1  A    between atoms: C_1  and  C_3
                            x       y       z     vdW  Elec       q    Type
                         _______ _______ _______ _____ _____    ______ ____

>  <TORSDO>
F 1

$$$$
=
 OpenBabel11072415253D

 25 27  0  0  1  0  0  0  0  0999 V2000
  161.5490  207.5580  149.2070 C   0  0  0  0  0  2  0  0  0  0  0  0
  162.4840  207.8440  150.3710 C   0  0  2  0  0  3  0  0  0  0  0  0
  161.7320  202.7360  146.2060 C   0  0  0  0  0  2  0  0  0  0  0  0
  162.2160  205.6580  151.6920 C   0  0  0  0  0  2  0  0  0  0  0  0
  160.3000  204.6170  145.3870 C   0  0  0  0  0  3  0  0  0  0  0  0
  161.2470  202.9510  149.4560 C   0  0  2  0  0  3  0  0  0  0  0  0
  160.2850  202.7290  151.7870 C   0  0  0  0  0  2  0  0  0  0  0  0
  163.1540  206.5690  150.9030 C   0  0  0  0  0  2  0  0  0  0  0  0
  162.3560  207.3820  147.9320 C   0  0  0  0  0  2  0  0  0  0  0  0
  159.9260  205.9650  145.3940 C   0  0  0  0  0  3  0  0  0  0  0  0
  159.8520  204.8790  152.7660 O   0  0  0  0  0  1  0  0  0  0  0  0
  160.5620  202.0140  150.4620 C   0  0  0  0  0  2  0  0  0  0  0  0
  161.3570  204.1790  146.1920 C   0  0  0  0  0  0  0  0  0  0  0  0
  161.1400  202.0410  147.4220 C   0  0  2  0  0  3  0  0  0  0  0  0
  161.9830  202.2060  148.5280 O   0  0  0  0  0  0  0  0  0  0  0  0
  160.9970  200.6240  147.1390 N   0  0  0  0  0  1  0  0  0  0  0  0
  161.6610  206.4370  147.0180 C   0  0  0  0  0  0  0  0  0  0  0  0
  162.0340  205.0900  147.0090 C   0  0  0  0  0  3  0  0  0  0  0  0
  161.3140  204.8240  150.7830 C   0  0  1  0  0  3  0  0  0  0  0  0
  162.1030  203.8380  150.1360 O   0  0  0  0  0  0  0  0  0  0  0  0
  160.1030  204.2250  151.5570 C   0  0  1  0  0  3  0  0  0  0  0  0
  160.6040  206.8750  146.2110 C   0  0  0  0  0  3  0  0  0  0  0  0
  161.8040  208.6300  151.4470 C   0  0  0  0  0  0  0  0  0  0  0  0
  160.5520  208.2500  151.9200 O   0  0  0  0  0  0  0  0  0  0  0  0
  162.3830  209.6260  151.9500 O   0  0  0  0  0  1  0  0  0  0  0  0
  1  2  1  0  0  0  0
  2  8  1  0  0  0  0
  2 23  1  1  0  0  0
  3 14  1  0  0  0  0
  5 10  2  0  0  0  0
  5 13  1  0  0  0  0
  6 20  1  0  0  0  0
  6 12  1  1  0  0  0
  8  4  1  0  0  0  0
  9  1  1  0  0  0  0
 10 22  1  0  0  0  0
 12  7  1  0  0  0  0
 13  3  1  0  0  0  0
 13 18  2  0  0  0  0
 14 16  1  6  0  0  0
 14 15  1  0  0  0  0
 15  6  1  0  0  0  0
 17  9  1  0  0  0  0
 18 17  1  0  0  0  0
 19 21  1  0  0  0  0
 19  4  1  1  0  0  0
 20 19  1  0  0  0  0
 21  7  1  0  0  0  0
 21 11  1  1  0  0  0
 22 17  2  0  0  0  0
 23 24  2  0  0  0  0
 23 25  1  0  0  0  0
M  END
>  <MODEL>
4

>  <REMARK>
 VINA RESULT:      -4.1      5.541      8.459
  Name = 
  1 active torsions:
  status: ('A' for Active; 'I' for Inactive)
    1  A    between atoms: C_1  and  C_3
                            x       y       z     vdW  Elec       q    Type
                         _______ _______ _______ _____ _____    ______ ____

>  <TORSDO>
F 1

$$$$
=
 OpenBabel11072415253D

 25 27  0  0  1  0  0  0  0  0999 V2000
  157.8460  212.4460  153.2520 C   0  0  0  0  0  2  0  0  0  0  0  0
  158.5580  212.3900  154.5940 C   0  0  2  0  0  3  0  0  0  0  0  0
  160.5080  213.6890  148.3880 C   0  0  0  0  0  2  0  0  0  0  0  0
  160.5560  210.9040  153.9660 C   0  0  0  0  0  2  0  0  0  0  0  0
  158.0090  213.5600  148.4020 C   0  0  0  0  0  3  0  0  0  0  0  0
  161.2710  211.2010  150.4080 C   0  0  2  0  0  3  0  0  0  0  0  0
  161.7740  208.9060  151.3500 C   0  0  0  0  0  2  0  0  0  0  0  0
  160.0810  212.2770  154.4380 C   0  0  0  0  0  2  0  0  0  0  0  0
  157.9480  213.8470  152.6750 C   0  0  0  0  0  2  0  0  0  0  0  0
  156.7870  213.5390  149.0820 C   0  0  0  0  0  3  0  0  0  0  0  0
  160.2670  208.3410  153.1320 O   0  0  0  0  0  1  0  0  0  0  0  0
  161.9810  209.8600  150.1710 C   0  0  0  0  0  2  0  0  0  0  0  0
  159.2050  213.6980  149.1140 C   0  0  0  0  0  0  0  0  0  0  0  0
  161.1620  212.3180  148.4790 C   0  0  2  0  0  3  0  0  0  0  0  0
  161.8940  212.2130  149.6680 O   0  0  0  0  0  0  0  0  0  0  0  0
  162.0560  212.1410  147.3490 N   0  0  0  0  0  1  0  0  0  0  0  0
  157.9570  213.7840  151.1890 C   0  0  0  0  0  0  0  0  0  0  0  0
  159.1770  213.8070  150.5080 C   0  0  0  0  0  3  0  0  0  0  0  0
  160.3700  210.7100  152.4620 C   0  0  1  0  0  3  0  0  0  0  0  0
  161.3080  211.5260  151.7770 O   0  0  0  0  0  0  0  0  0  0  0  0
  160.4560  209.2100  152.0550 C   0  0  1  0  0  3  0  0  0  0  0  0
  156.7600  213.6470  150.4750 C   0  0  0  0  0  3  0  0  0  0  0  0
  157.9880  211.3270  155.4800 C   0  0  0  0  0  0  0  0  0  0  0  0
  158.5510  211.0640  156.7240 O   0  0  0  0  0  1  0  0  0  0  0  0
  156.9730  210.6850  155.1060 O   0  0  0  0  0  0  0  0  0  0  0  0
  1  2  1  0  0  0  0
  2 23  1  6  0  0  0
  3 14  1  0  0  0  0
  3 13  1  0  0  0  0
  4  8  1  0  0  0  0
  5 10  2  0  0  0  0
  5 13  1  0  0  0  0
  6 12  1  1  0  0  0
  6 20  1  0  0  0  0
  7 21  1  0  0  0  0
  8  2  1  0  0  0  0
  9  1  1  0  0  0  0
 10 22  1  0  0  0  0
 12  7  1  0  0  0  0
 13 18  2  0  0  0  0
 14 16  1  6  0  0  0
 14 15  1  0  0  0  0
 15  6  1  0  0  0  0
 17  9  1  0  0  0  0
 18 17  1  0  0  0  0
 19  4  1  1  0  0  0
 20 19  1  0  0  0  0
 21 19  1  0  0  0  0
 21 11  1  1  0  0  0
 22 17  2  0  0  0  0
 23 24  1  0  0  0  0
 25 23  2  0  0  0  0
M  END
>  <MODEL>
5

>  <REMARK>
 VINA RESULT:      -3.8      2.582      6.679
  Name = 
  1 active torsions:
  status: ('A' for Active; 'I' for Inactive)
    1  A    between atoms: C_1  and  C_3
                            x       y       z     vdW  Elec       q    Type
                         _______ _______ _______ _____ _____    ______ ____

>  <TORSDO>
F 1

$$$$
=
 OpenBabel11072415253D

 25 27  0  0  1  0  0  0  0  0999 V2000
  161.4020  211.9990  147.3180 C   0  0  0  0  0  2  0  0  0  0  0  0
  161.5010  213.2420  146.4500 C   0  0  2  0  0  3  0  0  0  0  0  0
  160.0710  212.1820  152.8390 C   0  0  0  0  0  2  0  0  0  0  0  0
  159.2790  214.3780  147.0580 C   0  0  0  0  0  2  0  0  0  0  0  0
  160.8630  210.0220  151.8560 C   0  0  0  0  0  3  0  0  0  0  0  0
  158.2100  213.3410  150.3820 C   0  0  2  0  0  3  0  0  0  0  0  0
  156.2880  213.7970  148.7990 C   0  0  0  0  0  2  0  0  0  0  0  0
  160.8050  214.4530  147.0880 C   0  0  0  0  0  2  0  0  0  0  0  0
  162.4280  212.0710  148.4360 C   0  0  0  0  0  2  0  0  0  0  0  0
  161.4900  209.2950  150.8380 C   0  0  0  0  0  3  0  0  0  0  0  0
  156.8700  213.2530  146.5330 O   0  0  0  0  0  1  0  0  0  0  0  0
  156.6980  213.5870  150.2580 C   0  0  0  0  0  2  0  0  0  0  0  0
  160.7680  211.4150  151.7670 C   0  0  0  0  0  0  0  0  0  0  0  0
  158.6530  212.5310  152.4130 C   0  0  2  0  0  3  0  0  0  0  0  0
  158.6550  213.7090  151.6570 O   0  0  0  0  0  0  0  0  0  0  0  0
  157.8330  212.7230  153.5950 N   0  0  0  0  0  1  0  0  0  0  0  0
  161.9200  211.3550  149.6360 C   0  0  0  0  0  0  0  0  0  0  0  0
  161.2950  212.0790  150.6550 C   0  0  0  0  0  3  0  0  0  0  0  0
  158.7210  213.4620  148.1460 C   0  0  1  0  0  3  0  0  0  0  0  0
  158.8960  214.0900  149.4070 O   0  0  0  0  0  0  0  0  0  0  0  0
  157.2430  213.0610  147.8660 C   0  0  1  0  0  3  0  0  0  0  0  0
  162.0150  209.9610  149.7270 C   0  0  0  0  0  3  0  0  0  0  0  0
  161.0350  212.9810  145.0520 C   0  0  0  0  0  0  0  0  0  0  0  0
  159.6950  213.1320  144.7100 O   0  0  0  0  0  1  0  0  0  0  0  0
  161.8690  212.6490  144.1710 O   0  0  0  0  0  0  0  0  0  0  0  0
  1  9  1  0  0  0  0
  2 23  1  6  0  0  0
  2  8  1  0  0  0  0
  2  1  1  0  0  0  0
  4  8  1  0  0  0  0
  6 12  1  1  0  0  0
  6 15  1  0  0  0  0
  7 12  1  0  0  0  0
  9 17  1  0  0  0  0
 10  5  2  0  0  0  0
 13  5  1  0  0  0  0
 13  3  1  0  0  0  0
 14  3  1  0  0  0  0
 14 16  1  1  0  0  0
 15 14  1  0  0  0  0
 17 22  2  0  0  0  0
 17 18  1  0  0  0  0
 18 13  2  0  0  0  0
 19  4  1  6  0  0  0
 19 20  1  0  0  0  0
 20  6  1  0  0  0  0
 21 11  1  6  0  0  0
 21 19  1  0  0  0  0
 21  7  1  0  0  0  0
 22 10  1  0  0  0  0
 24 23  1  0  0  0  0
 25 23  2  0  0  0  0
M  END
>  <MODEL>
6

>  <REMARK>
 VINA RESULT:      -3.6      1.666      2.265
  Name = 
  1 active torsions:
  status: ('A' for Active; 'I' for Inactive)
    1  A    between atoms: C_1  and  C_3
                            x       y       z     vdW  Elec       q    Type
                         _______ _______ _______ _____ _____    ______ ____

>  <TORSDO>
F 1

$$$$
=
 OpenBabel11072415253D

 25 27  0  0  1  0  0  0  0  0999 V2000
  157.1830  211.2150  138.5010 C   0  0  0  0  0  2  0  0  0  0  0  0
  156.3760  212.5030  138.5010 C   0  0  2  0  0  3  0  0  0  0  0  0
  162.7480  211.0530  137.3630 C   0  0  0  0  0  2  0  0  0  0  0  0
  157.8910  213.9690  139.9670 C   0  0  0  0  0  2  0  0  0  0  0  0
  161.4850  208.9000  137.5400 C   0  0  0  0  0  3  0  0  0  0  0  0
  161.3360  212.8040  139.7700 C   0  0  2  0  0  3  0  0  0  0  0  0
  160.7290  213.7850  142.0230 C   0  0  0  0  0  2  0  0  0  0  0  0
  157.2690  213.7480  138.5890 C   0  0  0  0  0  2  0  0  0  0  0  0
  157.7590  210.9700  137.1180 C   0  0  0  0  0  2  0  0  0  0  0  0
  160.2850  208.1820  137.5630 C   0  0  0  0  0  3  0  0  0  0  0  0
  158.4230  213.3870  142.5600 O   0  0  0  0  0  1  0  0  0  0  0  0
  161.8720  213.3450  141.1040 C   0  0  0  0  0  2  0  0  0  0  0  0
  161.4680  210.2870  137.3560 C   0  0  0  0  0  0  0  0  0  0  0  0
  162.9710  211.7100  138.7170 C   0  0  2  0  0  3  0  0  0  0  0  0
  162.3060  212.9410  138.7700 O   0  0  0  0  0  0  0  0  0  0  0  0
  164.3930  211.9270  138.9130 N   0  0  0  0  0  1  0  0  0  0  0  0
  159.0490  210.2380  137.2290 C   0  0  0  0  0  0  0  0  0  0  0  0
  160.2490  210.9540  137.2030 C   0  0  0  0  0  3  0  0  0  0  0  0
  159.0980  213.0640  140.2120 C   0  0  1  0  0  3  0  0  0  0  0  0
  160.1740  213.5080  139.4010 O   0  0  0  0  0  0  0  0  0  0  0  0
  159.4660  212.9850  141.7230 C   0  0  1  0  0  3  0  0  0  0  0  0
  159.0670  208.8500  137.4110 C   0  0  0  0  0  3  0  0  0  0  0  0
  155.3050  212.4870  139.5460 C   0  0  0  0  0  0  0  0  0  0  0  0
  154.8270  213.6740  140.0910 O   0  0  0  0  0  1  0  0  0  0  0  0
  154.8130  211.3900  139.9140 O   0  0  0  0  0  0  0  0  0  0  0  0
  2  1  1  0  0  0  0
  2  8  1  0  0  0  0
  2 23  1  1  0  0  0
  3 14  1  0  0  0  0
  5 10  1  0  0  0  0
  6 12  1  1  0  0  0
  8  4  1  0  0  0  0
  9 17  1  0  0  0  0
  9  1  1  0  0  0  0
 12  7  1  0  0  0  0
 13  3  1  0  0  0  0
 13  5  2  0  0  0  0
 14 15  1  0  0  0  0
 14 16  1  6  0  0  0
 15  6  1  0  0  0  0
 17 22  1  0  0  0  0
 18 17  2  0  0  0  0
 18 13  1  0  0  0  0
 19  4  1  1  0  0  0
 19 21  1  0  0  0  0
 20  6  1  0  0  0  0
 20 19  1  0  0  0  0
 21  7  1  0  0  0  0
 21 11  1  1  0  0  0
 22 10  2  0  0  0  0
 23 25  2  0  0  0  0
 23 24  1  0  0  0  0
M  END
>  <MODEL>
7

>  <REMARK>
 VINA RESULT:      -3.5      9.306     12.063
  Name = 
  1 active torsions:
  status: ('A' for Active; 'I' for Inactive)
    1  A    between atoms: C_1  and  C_3
                            x       y       z     vdW  Elec       q    Type
                         _______ _______ _______ _____ _____    ______ ____

>  <TORSDO>
F 1

$$$$
=
 OpenBabel11072415253D

 25 27  0  0  1  0  0  0  0  0999 V2000
  158.0480  209.3880  138.2820 C   0  0  0  0  0  2  0  0  0  0  0  0
  156.9990  209.9970  137.3660 C   0  0  2  0  0  3  0  0  0  0  0  0
  163.2190  211.6350  138.9880 C   0  0  0  0  0  2  0  0  0  0  0  0
  157.0920  212.4380  138.1600 C   0  0  0  0  0  2  0  0  0  0  0  0
  162.7430  209.3720  139.9430 C   0  0  0  0  0  3  0  0  0  0  0  0
  160.3660  213.1730  139.5750 C   0  0  2  0  0  3  0  0  0  0  0  0
  158.4800  214.4530  140.6750 C   0  0  0  0  0  2  0  0  0  0  0  0
  157.3170  211.4570  137.0110 C   0  0  0  0  0  2  0  0  0  0  0  0
  159.2670  208.9840  137.4700 C   0  0  0  0  0  2  0  0  0  0  0  0
  161.9610  208.2140  140.0190 C   0  0  0  0  0  3  0  0  0  0  0  0
  156.4440  213.1800  140.6850 O   0  0  0  0  0  1  0  0  0  0  0  0
  159.9970  214.3470  140.4930 C   0  0  0  0  0  2  0  0  0  0  0  0
  162.4020  210.3890  139.0440 C   0  0  0  0  0  0  0  0  0  0  0  0
  162.5480  212.7510  139.7740 C   0  0  2  0  0  3  0  0  0  0  0  0
  161.6070  213.4060  138.9710 O   0  0  0  0  0  0  0  0  0  0  0  0
  163.5560  213.7040  140.2040 N   0  0  0  0  0  1  0  0  0  0  0  0
  160.4910  209.0940  138.3060 C   0  0  0  0  0  0  0  0  0  0  0  0
  161.2750  210.2490  138.2290 C   0  0  0  0  0  3  0  0  0  0  0  0
  158.2350  212.4180  139.1740 C   0  0  1  0  0  3  0  0  0  0  0  0
  159.3800  213.0130  138.5830 O   0  0  0  0  0  0  0  0  0  0  0  0
  157.8280  213.0830  140.5210 C   0  0  1  0  0  3  0  0  0  0  0  0
  160.8340  208.0760  139.2040 C   0  0  0  0  0  3  0  0  0  0  0  0
  155.6170  209.8250  137.9140 C   0  0  0  0  0  0  0  0  0  0  0  0
  155.4150  209.6030  139.2720 O   0  0  0  0  0  1  0  0  0  0  0  0
  154.6280  209.9110  137.1430 O   0  0  0  0  0  0  0  0  0  0  0  0
  2 23  1  1  0  0  0
  2  1  1  0  0  0  0
  3 13  1  0  0  0  0
  3 14  1  0  0  0  0
  5 10  1  0  0  0  0
  6 12  1  1  0  0  0
  8  2  1  0  0  0  0
  8  4  1  0  0  0  0
  9  1  1  0  0  0  0
  9 17  1  0  0  0  0
 12  7  1  0  0  0  0
 13  5  2  0  0  0  0
 14 16  1  6  0  0  0
 15  6  1  0  0  0  0
 15 14  1  0  0  0  0
 17 22  1  0  0  0  0
 18 17  2  0  0  0  0
 18 13  1  0  0  0  0
 19  4  1  6  0  0  0
 19 21  1  0  0  0  0
 20 19  1  0  0  0  0
 20  6  1  0  0  0  0
 21  7  1  0  0  0  0
 21 11  1  6  0  0  0
 22 10  2  0  0  0  0
 23 24  1  0  0  0  0
 25 23  2  0  0  0  0
M  END
>  <MODEL>
8

>  <REMARK>
 VINA RESULT:      -3.4     10.452     11.951
  Name = 
  1 active torsions:
  status: ('A' for Active; 'I' for Inactive)
    1  A    between atoms: C_1  and  C_3
                            x       y       z     vdW  Elec       q    Type
                         _______ _______ _______ _____ _____    ______ ____

>  <TORSDO>
F 1

$$$$
=
 OpenBabel11072415253D

 25 27  0  0  1  0  0  0  0  0999 V2000
  160.9130  203.6610  146.0970 C   0  0  0  0  0  2  0  0  0  0  0  0
  162.0360  204.3620  145.3510 C   0  0  2  0  0  3  0  0  0  0  0  0
  161.2430  202.2790  151.5990 C   0  0  0  0  0  2  0  0  0  0  0  0
  162.5160  206.2800  146.9900 C   0  0  0  0  0  2  0  0  0  0  0  0
  159.3270  201.4080  150.2450 C   0  0  0  0  0  3  0  0  0  0  0  0
  161.5460  205.3190  150.3660 C   0  0  2  0  0  3  0  0  0  0  0  0
  161.2510  207.7880  149.8960 C   0  0  0  0  0  2  0  0  0  0  0  0
  163.0430  205.0200  146.3050 C   0  0  0  0  0  2  0  0  0  0  0  0
  161.3960  202.3140  146.6060 C   0  0  0  0  0  2  0  0  0  0  0  0
  158.7220  201.1310  149.0150 C   0  0  0  0  0  3  0  0  0  0  0  0
  160.6810  208.1810  147.5960 O   0  0  0  0  0  1  0  0  0  0  0  0
  161.3190  206.7090  150.9790 C   0  0  0  0  0  2  0  0  0  0  0  0
  160.6130  201.9570  150.2860 C   0  0  0  0  0  0  0  0  0  0  0  0
  161.1110  203.7630  151.9060 C   0  0  2  0  0  3  0  0  0  0  0  0
  162.1550  204.4740  151.3010 O   0  0  0  0  0  0  0  0  0  0  0  0
  161.1680  203.9600  153.3430 N   0  0  0  0  0  1  0  0  0  0  0  0
  160.6850  201.9630  147.8640 C   0  0  0  0  0  0  0  0  0  0  0  0
  161.2890  202.2360  149.0940 C   0  0  0  0  0  3  0  0  0  0  0  0
  161.5890  205.9610  148.1620 C   0  0  1  0  0  3  0  0  0  0  0  0
  162.3630  205.4270  149.2250 O   0  0  0  0  0  0  0  0  0  0  0  0
  160.7420  207.1960  148.5860 C   0  0  1  0  0  3  0  0  0  0  0  0
  159.3990  201.4120  147.8240 C   0  0  0  0  0  3  0  0  0  0  0  0
  161.5090  205.3140  144.3230 C   0  0  0  0  0  0  0  0  0  0  0  0
  160.4090  206.1180  144.5980 O   0  0  0  0  0  1  0  0  0  0  0  0
  162.0860  205.4070  143.2100 O   0  0  0  0  0  0  0  0  0  0  0  0
  1  9  1  0  0  0  0
  2 23  1  6  0  0  0
  2  1  1  0  0  0  0
  2  8  1  0  0  0  0
  3 14  1  0  0  0  0
  5 13  1  0  0  0  0
  6 12  1  1  0  0  0
  6 15  1  0  0  0  0
  7 12  1  0  0  0  0
  8  4  1  0  0  0  0
  9 17  1  0  0  0  0
 10  5  2  0  0  0  0
 13  3  1  0  0  0  0
 14 16  1  1  0  0  0
 15 14  1  0  0  0  0
 17 18  1  0  0  0  0
 18 13  2  0  0  0  0
 19  4  1  6  0  0  0
 19 21  1  0  0  0  0
 19 20  1  0  0  0  0
 20  6  1  0  0  0  0
 21 11  1  6  0  0  0
 21  7  1  0  0  0  0
 22 17  2  0  0  0  0
 22 10  1  0  0  0  0
 23 24  1  0  0  0  0
 25 23  2  0  0  0  0
M  END
>  <MODEL>
9

>  <REMARK>
 VINA RESULT:      -3.4      5.672      7.867
  Name = 
  1 active torsions:
  status: ('A' for Active; 'I' for Inactive)
    1  A    between atoms: C_1  and  C_3
                            x       y       z     vdW  Elec       q    Type
                         _______ _______ _______ _____ _____    ______ ____

>  <TORSDO>
F 1

$$$$
