=
 OpenBabel11072415013D

 39 45  0  0  1  0  0  0  0  0999 V2000
  160.8690  208.6620  151.7890 C   0  0  0  0  0  3  0  0  0  0  0  0
  160.3620  208.9060  154.0930 N   0  0  0  0  0  0  0  0  0  0  0  0
  160.9340  207.5840  153.8340 C   0  0  0  0  0  3  0  0  0  0  0  0
  160.2020  209.5450  152.7840 C   0  0  1  0  0  3  0  0  0  0  0  0
  161.2660  207.5540  152.3850 C   0  0  0  0  0  0  0  0  0  0  0  0
  161.2620  204.3590  150.3510 C   0  0  0  0  0  2  0  0  0  0  0  0
  161.9660  206.4170  151.6770 C   0  0  1  0  0  0  0  0  0  0  0  0
  161.0000  204.4570  145.6560 C   0  0  2  0  0  3  0  0  0  0  0  0
  161.7230  207.3990  147.9350 C   0  0  0  0  0  2  0  0  0  0  0  0
  161.1420  206.6870  146.7240 C   0  0  0  0  0  2  0  0  0  0  0  0
  161.0110  205.2090  151.5970 C   0  0  0  0  0  2  0  0  0  0  0  0
  161.1320  203.0850  146.2610 C   0  0  0  0  0  2  0  0  0  0  0  0
  161.0380  205.1610  149.0590 C   0  0  1  0  0  3  0  0  0  0  0  0
  161.2840  203.2130  147.6520 O   0  0  0  0  0  0  0  0  0  0  0  0
  161.3620  206.6700  149.2300 C   0  0  1  0  0  3  0  0  0  0  0  0
  162.4380  206.8970  150.2910 C   0  0  0  0  0  2  0  0  0  0  0  0
  161.8030  204.5020  147.8970 C   0  0  1  0  0  3  0  0  0  0  0  0
  163.0960  206.0390  152.4100 O   0  0  0  0  0  1  0  0  0  0  0  0
  161.5920  204.4740  144.3920 O   0  0  0  0  0  1  0  0  0  0  0  0
  161.7820  205.3090  146.5960 C   0  0  1  0  0  3  0  0  0  0  0  0
  160.8530  210.9240  152.7940 C   0  0  0  0  0  2  0  0  0  0  0  0
  159.9170  212.0550  153.1490 C   0  0  0  0  0  0  0  0  0  0  0  0
  158.0350  213.4260  156.1970 C   0  0  0  0  0  1  0  0  0  0  0  0
  158.2650  213.1480  154.7260 C   0  0  2  0  0  3  0  0  0  0  0  0
  159.6090  213.0270  152.2490 C   0  0  0  0  0  0  0  0  0  0  0  0
  159.4070  212.1490  154.5750 C   0  0  0  0  0  2  0  0  0  0  0  0
  158.6100  214.0980  152.6100 C   0  0  0  0  0  2  0  0  0  0  0  0
  158.6150  214.3840  154.0410 N   0  0  0  0  0  2  0  0  0  0  0  0
  160.0810  213.0430  150.8880 N   0  0  0  0  0  2  0  0  0  0  0  0
  160.2740  214.1950  150.1050 N   0  0  0  0  0  2  0  0  0  0  0  0
  160.6900  213.0130  146.5490 C   0  0  0  0  0  2  0  0  0  0  0  0
  162.6380  211.8820  148.3150 C   0  0  0  0  0  2  0  0  0  0  0  0
  161.0730  213.8190  148.9480 C   0  0  2  0  0  3  0  0  0  0  0  0
  162.1580  213.2240  146.3000 C   0  0  0  0  0  0  0  0  0  0  0  0
  160.2670  212.9000  148.0320 C   0  0  2  0  0  3  0  0  0  0  0  0
  161.3140  212.3140  148.9810 C   0  0  1  0  0  3  0  0  0  0  0  0
  163.0590  212.7050  147.1350 C   0  0  0  0  0  3  0  0  0  0  0  0
  163.2980  213.4280  144.1020 C   0  0  0  0  0  1  0  0  0  0  0  0
  162.5450  213.9750  145.1810 O   0  0  0  0  0  0  0  0  0  0  0  0
  1  5  2  0  0  0  0
  1  4  1  0  0  0  0
  3  2  2  0  0  0  0
  4 21  1  1  0  0  0
  4  2  1  0  0  0  0
  5  3  1  0  0  0  0
  6 11  1  0  0  0  0
  7  5  1  0  0  0  0
  7 18  1  1  0  0  0
  8 19  1  6  0  0  0
  8 12  1  0  0  0  0
  8 20  1  0  0  0  0
 10  9  1  0  0  0  0
 11  7  1  0  0  0  0
 12 14  1  0  0  0  0
 13 15  1  0  0  0  0
 13  6  1  1  0  0  0
 15  9  1  6  0  0  0
 15 16  1  0  0  0  0
 16  7  1  0  0  0  0
 17 14  1  6  0  0  0
 17 13  1  0  0  0  0
 20 10  1  1  0  0  0
 20 17  1  0  0  0  0
 21 22  1  0  0  0  0
 22 26  1  0  0  0  0
 24 23  1  1  0  0  0
 25 27  1  0  0  0  0
 25 22  2  0  0  0  0
 26 24  1  0  0  0  0
 27 28  1  0  0  0  0
 28 24  1  0  0  0  0
 29 25  1  0  0  0  0
 30 29  1  0  0  0  0
 33 36  1  0  0  0  0
 33 30  1  1  0  0  0
 34 31  1  0  0  0  0
 34 37  2  0  0  0  0
 35 31  1  6  0  0  0
 35 33  1  0  0  0  0
 35 36  1  0  0  0  0
 36 32  1  6  0  0  0
 37 32  1  0  0  0  0
 38 39  1  0  0  0  0
 39 34  1  0  0  0  0
M  END
>  <MODEL>
1

>  <REMARK>
 VINA RESULT:      -9.2      0.000      0.000
  Name = 
  7 active torsions:
  status: ('A' for Active; 'I' for Inactive)
    1  A    between atoms: C_3  and  C_35
    2  A    between atoms: C_6  and  C_32
    3  A    between atoms: N_11  and  C_18
    4  A    between atoms: N_11  and  N_19
    5  A    between atoms: N_19  and  C_23
    6  A    between atoms: C_20  and  O_27
    7  A    between atoms: C_32  and  C_34
                            x       y       z     vdW  Elec       q    Type
                         _______ _______ _______ _____ _____    ______ ____

>  <TORSDO>
F 7

$$$$
=
 OpenBabel11072415013D

 39 45  0  0  1  0  0  0  0  0999 V2000
  160.4520  208.9020  152.8980 C   0  0  0  0  0  3  0  0  0  0  0  0
  161.2430  210.9150  151.9230 N   0  0  0  0  0  0  0  0  0  0  0  0
  162.0340  209.7770  151.4540 C   0  0  0  0  0  3  0  0  0  0  0  0
  160.3220  210.3850  152.9330 C   0  0  1  0  0  3  0  0  0  0  0  0
  161.4270  208.5690  152.0740 C   0  0  0  0  0  0  0  0  0  0  0  0
  160.7700  205.0420  150.8600 C   0  0  0  0  0  2  0  0  0  0  0  0
  161.8550  207.1450  151.8040 C   0  0  1  0  0  0  0  0  0  0  0  0
  161.2030  203.9060  146.3170 C   0  0  2  0  0  3  0  0  0  0  0  0
  162.4330  207.0870  147.9710 C   0  0  0  0  0  2  0  0  0  0  0  0
  161.8420  206.2360  146.8580 C   0  0  0  0  0  2  0  0  0  0  0  0
  160.6090  206.2370  151.8000 C   0  0  0  0  0  2  0  0  0  0  0  0
  160.8410  202.7650  147.2300 C   0  0  0  0  0  2  0  0  0  0  0  0
  160.9720  205.4870  149.4030 C   0  0  1  0  0  3  0  0  0  0  0  0
  160.8300  203.2290  148.5560 O   0  0  0  0  0  0  0  0  0  0  0  0
  161.6980  206.8550  149.2920 C   0  0  1  0  0  3  0  0  0  0  0  0
  162.6350  207.0920  150.4750 C   0  0  0  0  0  2  0  0  0  0  0  0
  161.6640  204.3650  148.6060 C   0  0  1  0  0  3  0  0  0  0  0  0
  162.7110  206.7160  152.8230 O   0  0  0  0  0  1  0  0  0  0  0  0
  161.9430  203.4270  145.2350 O   0  0  0  0  0  1  0  0  0  0  0  0
  162.0620  204.7620  147.1820 C   0  0  1  0  0  3  0  0  0  0  0  0
  158.8920  210.8020  152.6050 C   0  0  0  0  0  2  0  0  0  0  0  0
  158.2790  211.7620  153.5970 C   0  0  0  0  0  0  0  0  0  0  0  0
  157.1320  211.8240  157.2570 C   0  0  0  0  0  1  0  0  0  0  0  0
  157.1140  212.2270  155.7970 C   0  0  2  0  0  3  0  0  0  0  0  0
  158.0880  213.0720  153.2880 C   0  0  0  0  0  0  0  0  0  0  0  0
  157.9800  211.2590  154.9970 C   0  0  0  0  0  2  0  0  0  0  0  0
  157.4020  213.9850  154.2730 C   0  0  0  0  0  2  0  0  0  0  0  0
  157.6430  213.5750  155.6520 N   0  0  0  0  0  2  0  0  0  0  0  0
  158.3830  213.6470  152.0000 N   0  0  0  0  0  2  0  0  0  0  0  0
  157.5360  213.6120  150.8790 N   0  0  0  0  0  2  0  0  0  0  0  0
  160.6620  213.9700  148.8020 C   0  0  0  0  0  2  0  0  0  0  0  0
  158.2880  213.8950  147.2040 C   0  0  0  0  0  2  0  0  0  0  0  0
  158.3570  213.3300  149.7100 C   0  0  2  0  0  3  0  0  0  0  0  0
  160.4840  212.9100  147.7500 C   0  0  0  0  0  0  0  0  0  0  0  0
  159.3690  214.4530  149.4980 C   0  0  2  0  0  3  0  0  0  0  0  0
  158.0950  214.3960  148.6520 C   0  0  1  0  0  3  0  0  0  0  0  0
  159.3690  212.8740  147.0190 C   0  0  0  0  0  3  0  0  0  0  0  0
  162.8200  212.1380  148.1020 C   0  0  0  0  0  1  0  0  0  0  0  0
  161.5100  211.9730  147.5650 O   0  0  0  0  0  0  0  0  0  0  0  0
  1  4  1  0  0  0  0
  2  4  1  0  0  0  0
  3  2  2  0  0  0  0
  3  5  1  0  0  0  0
  4 21  1  6  0  0  0
  5  1  2  0  0  0  0
  6 11  1  0  0  0  0
  7  5  1  0  0  0  0
  7 18  1  1  0  0  0
  8 19  1  6  0  0  0
  8 20  1  0  0  0  0
  8 12  1  0  0  0  0
 10  9  1  0  0  0  0
 11  7  1  0  0  0  0
 12 14  1  0  0  0  0
 13  6  1  1  0  0  0
 15  9  1  6  0  0  0
 15 13  1  0  0  0  0
 15 16  1  0  0  0  0
 16  7  1  0  0  0  0
 17 14  1  6  0  0  0
 17 13  1  0  0  0  0
 20 10  1  1  0  0  0
 20 17  1  0  0  0  0
 21 22  1  0  0  0  0
 22 26  1  0  0  0  0
 24 23  1  1  0  0  0
 25 22  2  0  0  0  0
 25 27  1  0  0  0  0
 26 24  1  0  0  0  0
 27 28  1  0  0  0  0
 28 24  1  0  0  0  0
 29 25  1  0  0  0  0
 30 29  1  0  0  0  0
 33 30  1  1  0  0  0
 34 31  1  0  0  0  0
 35 31  1  6  0  0  0
 35 33  1  0  0  0  0
 36 32  1  6  0  0  0
 36 35  1  0  0  0  0
 36 33  1  0  0  0  0
 37 32  1  0  0  0  0
 37 34  2  0  0  0  0
 39 34  1  0  0  0  0
 39 38  1  0  0  0  0
M  END
>  <MODEL>
2

>  <REMARK>
 VINA RESULT:      -8.0      1.563      2.174
  Name = 
  7 active torsions:
  status: ('A' for Active; 'I' for Inactive)
    1  A    between atoms: C_3  and  C_35
    2  A    between atoms: C_6  and  C_32
    3  A    between atoms: N_11  and  C_18
    4  A    between atoms: N_11  and  N_19
    5  A    between atoms: N_19  and  C_23
    6  A    between atoms: C_20  and  O_27
    7  A    between atoms: C_32  and  C_34
                            x       y       z     vdW  Elec       q    Type
                         _______ _______ _______ _____ _____    ______ ____

>  <TORSDO>
F 7

$$$$
=
 OpenBabel11072415013D

 39 45  0  0  1  0  0  0  0  0999 V2000
  160.8360  208.7580  151.6950 C   0  0  0  0  0  3  0  0  0  0  0  0
  160.2820  209.0990  153.9760 N   0  0  0  0  0  0  0  0  0  0  0  0
  160.8530  207.7650  153.7840 C   0  0  0  0  0  3  0  0  0  0  0  0
  160.1520  209.6840  152.6390 C   0  0  1  0  0  3  0  0  0  0  0  0
  161.2140  207.6740  152.3440 C   0  0  0  0  0  0  0  0  0  0  0  0
  161.2350  204.3490  150.5310 C   0  0  0  0  0  2  0  0  0  0  0  0
  161.9230  206.5060  151.6980 C   0  0  1  0  0  0  0  0  0  0  0  0
  160.8670  204.1240  145.8470 C   0  0  2  0  0  3  0  0  0  0  0  0
  161.5770  207.2270  147.9050 C   0  0  0  0  0  2  0  0  0  0  0  0
  160.9840  206.4230  146.7590 C   0  0  0  0  0  2  0  0  0  0  0  0
  160.9930  205.2760  151.7210 C   0  0  0  0  0  2  0  0  0  0  0  0
  161.0410  202.7990  146.5400 C   0  0  0  0  0  2  0  0  0  0  0  0
  160.9640  205.0570  149.1930 C   0  0  1  0  0  3  0  0  0  0  0  0
  161.2210  203.0240  147.9150 O   0  0  0  0  0  0  0  0  0  0  0  0
  161.2600  206.5800  149.2550 C   0  0  1  0  0  3  0  0  0  0  0  0
  162.3540  206.9000  150.2720 C   0  0  0  0  0  2  0  0  0  0  0  0
  161.7180  204.3360  148.0600 C   0  0  1  0  0  3  0  0  0  0  0  0
  163.0760  206.2010  152.4280 O   0  0  0  0  0  1  0  0  0  0  0  0
  161.4310  204.0670  144.5710 O   0  0  0  0  0  1  0  0  0  0  0  0
  161.6510  205.0530  146.7080 C   0  0  1  0  0  3  0  0  0  0  0  0
  160.8100  211.0600  152.6050 C   0  0  0  0  0  2  0  0  0  0  0  0
  160.1140  212.0640  151.7180 C   0  0  0  0  0  0  0  0  0  0  0  0
  160.6960  213.9230  148.4130 C   0  0  0  0  0  1  0  0  0  0  0  0
  160.1460  213.7310  149.8110 C   0  0  2  0  0  3  0  0  0  0  0  0
  158.8450  212.4790  151.9790 C   0  0  0  0  0  0  0  0  0  0  0  0
  160.8200  212.5230  150.4560 C   0  0  0  0  0  2  0  0  0  0  0  0
  158.2080  213.5400  151.1180 C   0  0  0  0  0  2  0  0  0  0  0  0
  158.7100  213.5010  149.7480 N   0  0  0  0  0  2  0  0  0  0  0  0
  158.0830  212.0630  153.1280 N   0  0  0  0  0  2  0  0  0  0  0  0
  157.8870  212.8230  154.2950 N   0  0  0  0  0  2  0  0  0  0  0  0
  159.0780  210.8220  157.2610 C   0  0  0  0  0  2  0  0  0  0  0  0
  160.1040  213.4950  157.2580 C   0  0  0  0  0  2  0  0  0  0  0  0
  158.8920  212.4150  155.2660 C   0  0  2  0  0  3  0  0  0  0  0  0
  160.5610  211.0690  157.2520 C   0  0  0  0  0  0  0  0  0  0  0  0
  158.2160  211.8720  156.5220 C   0  0  2  0  0  3  0  0  0  0  0  0
  158.7720  213.2970  156.5040 C   0  0  1  0  0  3  0  0  0  0  0  0
  161.0310  212.3180  157.2380 C   0  0  0  0  0  3  0  0  0  0  0  0
  162.7030  209.9720  156.6320 C   0  0  0  0  0  1  0  0  0  0  0  0
  161.4230  209.9630  157.2580 O   0  0  0  0  0  0  0  0  0  0  0  0
  1  5  2  0  0  0  0
  1  4  1  0  0  0  0
  3  2  2  0  0  0  0
  4 21  1  1  0  0  0
  4  2  1  0  0  0  0
  5  3  1  0  0  0  0
  6 11  1  0  0  0  0
  7 11  1  0  0  0  0
  7  5  1  0  0  0  0
  7 18  1  1  0  0  0
  8 19  1  6  0  0  0
  8 12  1  0  0  0  0
  8 20  1  0  0  0  0
 10  9  1  0  0  0  0
 12 14  1  0  0  0  0
 13 15  1  0  0  0  0
 13  6  1  1  0  0  0
 15  9  1  6  0  0  0
 15 16  1  0  0  0  0
 16  7  1  0  0  0  0
 17 14  1  6  0  0  0
 17 13  1  0  0  0  0
 20 10  1  1  0  0  0
 20 17  1  0  0  0  0
 22 25  2  0  0  0  0
 22 21  1  0  0  0  0
 24 23  1  6  0  0  0
 24 26  1  0  0  0  0
 25 29  1  0  0  0  0
 26 22  1  0  0  0  0
 27 25  1  0  0  0  0
 28 24  1  0  0  0  0
 28 27  1  0  0  0  0
 29 30  1  0  0  0  0
 33 30  1  6  0  0  0
 33 36  1  0  0  0  0
 33 35  1  0  0  0  0
 34 39  1  0  0  0  0
 34 31  1  0  0  0  0
 35 31  1  1  0  0  0
 36 35  1  0  0  0  0
 36 32  1  1  0  0  0
 37 34  2  0  0  0  0
 37 32  1  0  0  0  0
 38 39  1  0  0  0  0
M  END
>  <MODEL>
3

>  <REMARK>
 VINA RESULT:      -7.9      2.130      5.410
  Name = 
  7 active torsions:
  status: ('A' for Active; 'I' for Inactive)
    1  A    between atoms: C_3  and  C_35
    2  A    between atoms: C_6  and  C_32
    3  A    between atoms: N_11  and  C_18
    4  A    between atoms: N_11  and  N_19
    5  A    between atoms: N_19  and  C_23
    6  A    between atoms: C_20  and  O_27
    7  A    between atoms: C_32  and  C_34
                            x       y       z     vdW  Elec       q    Type
                         _______ _______ _______ _____ _____    ______ ____

>  <TORSDO>
F 7

$$$$
=
 OpenBabel11072415013D

 39 45  0  0  1  0  0  0  0  0999 V2000
  160.9880  208.7380  151.5760 C   0  0  0  0  0  3  0  0  0  0  0  0
  160.3760  209.3180  153.7930 N   0  0  0  0  0  0  0  0  0  0  0  0
  160.8270  207.9270  153.7360 C   0  0  0  0  0  3  0  0  0  0  0  0
  160.3560  209.7980  152.4080 C   0  0  1  0  0  3  0  0  0  0  0  0
  161.2360  207.6820  152.3280 C   0  0  0  0  0  0  0  0  0  0  0  0
  161.0200  204.2300  150.7850 C   0  0  0  0  0  2  0  0  0  0  0  0
  161.8590  206.4050  151.8130 C   0  0  1  0  0  0  0  0  0  0  0  0
  160.8370  203.6510  146.1210 C   0  0  2  0  0  3  0  0  0  0  0  0
  161.7480  206.8370  147.9620 C   0  0  0  0  0  2  0  0  0  0  0  0
  161.1320  205.9970  146.8540 C   0  0  0  0  0  2  0  0  0  0  0  0
  160.8150  205.2710  151.8850 C   0  0  0  0  0  2  0  0  0  0  0  0
  160.8540  202.3780  146.9240 C   0  0  0  0  0  2  0  0  0  0  0  0
  160.8760  204.8470  149.3840 C   0  0  1  0  0  3  0  0  0  0  0  0
  160.9950  202.6990  148.2850 O   0  0  0  0  0  0  0  0  0  0  0  0
  161.3130  206.3360  149.3400 C   0  0  1  0  0  3  0  0  0  0  0  0
  162.3870  206.6380  150.3840 C   0  0  0  0  0  2  0  0  0  0  0  0
  161.6060  203.9680  148.3510 C   0  0  1  0  0  3  0  0  0  0  0  0
  162.9450  206.0580  152.6220 O   0  0  0  0  0  1  0  0  0  0  0  0
  161.4470  203.4370  144.8850 O   0  0  0  0  0  1  0  0  0  0  0  0
  161.6670  204.5730  146.9460 C   0  0  1  0  0  3  0  0  0  0  0  0
  161.1410  211.1010  152.2960 C   0  0  0  0  0  2  0  0  0  0  0  0
  160.7790  211.9470  151.0990 C   0  0  0  0  0  0  0  0  0  0  0  0
  161.9430  212.5310  147.4910 C   0  0  0  0  0  1  0  0  0  0  0  0
  161.3280  212.9100  148.8220 C   0  0  2  0  0  3  0  0  0  0  0  0
  159.6740  212.7400  151.1010 C   0  0  0  0  0  0  0  0  0  0  0  0
  161.6170  211.8120  149.8410 C   0  0  0  0  0  2  0  0  0  0  0  0
  159.3850  213.6310  149.9190 C   0  0  0  0  0  2  0  0  0  0  0  0
  159.8880  213.0600  148.6740 N   0  0  0  0  0  2  0  0  0  0  0  0
  158.7980  212.8970  152.2340 N   0  0  0  0  0  2  0  0  0  0  0  0
  159.0580  213.6950  153.3610 N   0  0  0  0  0  2  0  0  0  0  0  0
  156.3430  213.6390  155.9770 C   0  0  0  0  0  2  0  0  0  0  0  0
  158.8550  212.7080  156.9850 C   0  0  0  0  0  2  0  0  0  0  0  0
  158.3610  213.1060  154.4950 C   0  0  2  0  0  3  0  0  0  0  0  0
  156.4670  212.2560  156.5530 C   0  0  0  0  0  0  0  0  0  0  0  0
  157.5990  214.1860  155.2600 C   0  0  2  0  0  3  0  0  0  0  0  0
  158.9420  213.6750  155.7850 C   0  0  1  0  0  3  0  0  0  0  0  0
  157.6450  211.8250  157.0090 C   0  0  0  0  0  3  0  0  0  0  0  0
  155.1530  210.3010  155.7610 C   0  0  0  0  0  1  0  0  0  0  0  0
  155.3250  211.4440  156.5950 O   0  0  0  0  0  0  0  0  0  0  0  0
  1  5  2  0  0  0  0
  1  4  1  0  0  0  0
  3  2  2  0  0  0  0
  4 21  1  1  0  0  0
  4  2  1  0  0  0  0
  5  3  1  0  0  0  0
  6 11  1  0  0  0  0
  7 11  1  0  0  0  0
  7  5  1  0  0  0  0
  7 18  1  1  0  0  0
  8 19  1  6  0  0  0
  8 12  1  0  0  0  0
  8 20  1  0  0  0  0
 10  9  1  0  0  0  0
 12 14  1  0  0  0  0
 13  6  1  1  0  0  0
 15  9  1  6  0  0  0
 15 13  1  0  0  0  0
 15 16  1  0  0  0  0
 16  7  1  0  0  0  0
 17 14  1  6  0  0  0
 17 13  1  0  0  0  0
 20 10  1  1  0  0  0
 20 17  1  0  0  0  0
 22 25  2  0  0  0  0
 22 21  1  0  0  0  0
 24 23  1  6  0  0  0
 24 26  1  0  0  0  0
 25 29  1  0  0  0  0
 26 22  1  0  0  0  0
 27 25  1  0  0  0  0
 28 24  1  0  0  0  0
 28 27  1  0  0  0  0
 29 30  1  0  0  0  0
 31 34  1  0  0  0  0
 32 37  1  0  0  0  0
 33 30  1  6  0  0  0
 33 35  1  0  0  0  0
 33 36  1  0  0  0  0
 34 39  1  0  0  0  0
 34 37  2  0  0  0  0
 35 36  1  0  0  0  0
 35 31  1  1  0  0  0
 36 32  1  1  0  0  0
 38 39  1  0  0  0  0
M  END
>  <MODEL>
4

>  <REMARK>
 VINA RESULT:      -7.3      2.074      5.667
  Name = 
  7 active torsions:
  status: ('A' for Active; 'I' for Inactive)
    1  A    between atoms: C_3  and  C_35
    2  A    between atoms: C_6  and  C_32
    3  A    between atoms: N_11  and  C_18
    4  A    between atoms: N_11  and  N_19
    5  A    between atoms: N_19  and  C_23
    6  A    between atoms: C_20  and  O_27
    7  A    between atoms: C_32  and  C_34
                            x       y       z     vdW  Elec       q    Type
                         _______ _______ _______ _____ _____    ______ ____

>  <TORSDO>
F 7

$$$$
=
 OpenBabel11072415013D

 39 45  0  0  1  0  0  0  0  0999 V2000
  161.5470  208.2380  153.3290 C   0  0  0  0  0  3  0  0  0  0  0  0
  161.2250  205.8990  153.0920 N   0  0  0  0  0  0  0  0  0  0  0  0
  161.1410  206.2850  154.5010 C   0  0  0  0  0  3  0  0  0  0  0  0
  161.6060  207.1100  152.3590 C   0  0  1  0  0  3  0  0  0  0  0  0
  161.2990  207.7630  154.5350 C   0  0  0  0  0  0  0  0  0  0  0  0
  161.4520  211.0930  156.3330 C   0  0  0  0  0  2  0  0  0  0  0  0
  161.1900  208.6210  155.7740 C   0  0  1  0  0  0  0  0  0  0  0  0
  157.7330  213.9710  156.4560 C   0  0  2  0  0  3  0  0  0  0  0  0
  157.7350  210.3350  155.3820 C   0  0  0  0  0  2  0  0  0  0  0  0
  157.3130  211.7960  155.3500 C   0  0  0  0  0  2  0  0  0  0  0  0
  162.0340  209.8970  155.5790 C   0  0  0  0  0  2  0  0  0  0  0  0
  158.9400  214.4510  157.2170 C   0  0  0  0  0  2  0  0  0  0  0  0
  160.0380  211.4430  155.8410 C   0  0  1  0  0  3  0  0  0  0  0  0
  159.9360  213.4610  157.1640 O   0  0  0  0  0  0  0  0  0  0  0  0
  159.2580  210.2000  155.3350 C   0  0  1  0  0  3  0  0  0  0  0  0
  159.7050  208.9260  156.0510 C   0  0  0  0  0  2  0  0  0  0  0  0
  159.2880  212.2310  156.9310 C   0  0  1  0  0  3  0  0  0  0  0  0
  161.6970  207.9190  156.8720 O   0  0  0  0  0  1  0  0  0  0  0  0
  156.5720  214.4520  157.0610 O   0  0  0  0  0  1  0  0  0  0  0  0
  157.8120  212.4910  156.6110 C   0  0  1  0  0  3  0  0  0  0  0  0
  160.6370  207.3490  151.2050 C   0  0  0  0  0  2  0  0  0  0  0  0
  161.1730  206.9560  149.8490 C   0  0  2  0  0  3  0  0  0  0  0  0
  161.2760  203.8990  147.5340 C   0  0  0  0  0  1  0  0  0  0  0  0
  161.7810  205.1950  148.1340 C   0  0  2  0  0  3  0  0  0  0  0  0
  161.7480  207.8720  149.0240 C   0  0  0  0  0  0  0  0  0  0  0  0
  160.9560  205.5320  149.3720 C   0  0  0  0  0  2  0  0  0  0  0  0
  162.3430  207.4320  147.7100 C   0  0  0  0  0  2  0  0  0  0  0  0
  161.6480  206.2710  147.1620 N   0  0  0  0  0  2  0  0  0  0  0  0
  161.9570  209.2530  149.3750 N   0  0  0  0  0  0  0  0  0  0  0  0
  162.5750  210.2170  148.5600 N   0  0  0  0  0  2  0  0  0  0  0  0
  159.8470  212.6140  147.5440 C   0  0  0  0  0  2  0  0  0  0  0  0
  162.2660  213.9560  148.2800 C   0  0  0  0  0  2  0  0  0  0  0  0
  161.8230  211.4570  148.6880 C   0  0  2  0  0  3  0  0  0  0  0  0
  159.8520  213.6150  148.6650 C   0  0  0  0  0  0  0  0  0  0  0  0
  161.1490  211.8000  147.3610 C   0  0  2  0  0  3  0  0  0  0  0  0
  162.4410  212.5080  147.7720 C   0  0  1  0  0  3  0  0  0  0  0  0
  160.9860  214.2270  149.0110 C   0  0  0  0  0  3  0  0  0  0  0  0
  158.4230  213.5550  150.6980 C   0  0  0  0  0  1  0  0  0  0  0  0
  158.6460  213.8820  149.3290 O   0  0  0  0  0  0  0  0  0  0  0  0
  1  5  2  0  0  0  0
  2  3  2  0  0  0  0
  3  5  1  0  0  0  0
  4 21  1  6  0  0  0
  4  2  1  0  0  0  0
  4  1  1  0  0  0  0
  5  7  1  0  0  0  0
  7 16  1  0  0  0  0
  7 18  1  1  0  0  0
  8 20  1  0  0  0  0
  8 19  1  1  0  0  0
  8 12  1  0  0  0  0
 10  9  1  0  0  0  0
 11  7  1  0  0  0  0
 11  6  1  0  0  0  0
 13  6  1  1  0  0  0
 13 17  1  0  0  0  0
 14 12  1  0  0  0  0
 15  9  1  1  0  0  0
 15 13  1  0  0  0  0
 15 16  1  0  0  0  0
 17 14  1  6  0  0  0
 20 10  1  6  0  0  0
 20 17  1  0  0  0  0
 22 21  1  6  0  0  0
 24 23  1  6  0  0  0
 24 26  1  0  0  0  0
 25 29  2  0  0  0  0
 25 22  1  0  0  0  0
 26 22  1  0  0  0  0
 27 25  1  0  0  0  0
 28 27  1  0  0  0  0
 28 24  1  0  0  0  0
 30 29  1  0  0  0  0
 31 34  1  0  0  0  0
 32 37  1  0  0  0  0
 33 30  1  6  0  0  0
 34 37  2  0  0  0  0
 34 39  1  0  0  0  0
 35 31  1  1  0  0  0
 35 36  1  0  0  0  0
 35 33  1  0  0  0  0
 36 32  1  1  0  0  0
 36 33  1  0  0  0  0
 39 38  1  0  0  0  0
M  END
>  <MODEL>
5

>  <REMARK>
 VINA RESULT:      -7.2      3.518      8.317
  Name = 
  7 active torsions:
  status: ('A' for Active; 'I' for Inactive)
    1  A    between atoms: C_3  and  C_35
    2  A    between atoms: C_6  and  C_32
    3  A    between atoms: N_11  and  C_18
    4  A    between atoms: N_11  and  N_19
    5  A    between atoms: N_19  and  C_23
    6  A    between atoms: C_20  and  O_27
    7  A    between atoms: C_32  and  C_34
                            x       y       z     vdW  Elec       q    Type
                         _______ _______ _______ _____ _____    ______ ____

>  <TORSDO>
F 7

$$$$
=
 OpenBabel11072415013D

 39 45  0  0  1  0  0  0  0  0999 V2000
  161.7320  208.7260  152.3310 C   0  0  0  0  0  3  0  0  0  0  0  0
  161.6000  210.2200  150.4930 N   0  0  0  0  0  0  0  0  0  0  0  0
  161.9500  208.8760  150.0330 C   0  0  0  0  0  3  0  0  0  0  0  0
  161.5850  210.1590  151.9580 C   0  0  1  0  0  3  0  0  0  0  0  0
  161.9520  208.0120  151.2430 C   0  0  0  0  0  0  0  0  0  0  0  0
  160.7320  204.4440  150.8810 C   0  0  0  0  0  2  0  0  0  0  0  0
  162.1700  206.5160  151.2430 C   0  0  1  0  0  0  0  0  0  0  0  0
  160.4560  202.3770  146.6650 C   0  0  2  0  0  3  0  0  0  0  0  0
  162.2530  205.6150  147.4740 C   0  0  0  0  0  2  0  0  0  0  0  0
  161.4310  204.6530  146.6320 C   0  0  0  0  0  2  0  0  0  0  0  0
  160.8330  205.8130  151.5550 C   0  0  0  0  0  2  0  0  0  0  0  0
  160.0770  201.5040  147.8320 C   0  0  0  0  0  2  0  0  0  0  0  0
  160.8020  204.5570  149.3490 C   0  0  1  0  0  3  0  0  0  0  0  0
  160.2870  202.2200  149.0230 O   0  0  0  0  0  0  0  0  0  0  0  0
  161.6670  205.7580  148.8790 C   0  0  1  0  0  3  0  0  0  0  0  0
  162.7650  206.0890  149.8870 C   0  0  0  0  0  2  0  0  0  0  0  0
  161.2500  203.2120  148.7480 C   0  0  1  0  0  3  0  0  0  0  0  0
  163.0890  206.1810  152.2420 O   0  0  0  0  0  1  0  0  0  0  0  0
  160.9930  201.5920  145.6440 O   0  0  0  0  0  1  0  0  0  0  0  0
  161.5120  203.2570  147.2400 C   0  0  1  0  0  3  0  0  0  0  0  0
  160.2680  210.7150  152.4890 C   0  0  0  0  0  2  0  0  0  0  0  0
  160.2110  210.8560  153.9920 C   0  0  0  0  0  0  0  0  0  0  0  0
  162.5340  210.5740  157.0310 C   0  0  0  0  0  1  0  0  0  0  0  0
  161.2160  210.4990  156.2880 C   0  0  2  0  0  3  0  0  0  0  0  0
  159.0870  211.2960  154.6190 C   0  0  0  0  0  0  0  0  0  0  0  0
  161.4760  210.6020  154.7890 C   0  0  0  0  0  2  0  0  0  0  0  0
  159.0380  211.3510  156.1250 C   0  0  0  0  0  2  0  0  0  0  0  0
  160.3560  211.5980  156.7020 N   0  0  0  0  0  2  0  0  0  0  0  0
  157.8540  211.6030  153.9400 N   0  0  0  0  0  2  0  0  0  0  0  0
  157.4320  212.8880  153.5560 N   0  0  0  0  0  2  0  0  0  0  0  0
  159.7170  214.4470  150.9940 C   0  0  0  0  0  2  0  0  0  0  0  0
  156.9960  214.3340  150.1120 C   0  0  0  0  0  2  0  0  0  0  0  0
  157.8870  213.1180  152.1930 C   0  0  2  0  0  3  0  0  0  0  0  0
  159.3540  213.7090  149.7350 C   0  0  0  0  0  0  0  0  0  0  0  0
  158.6480  214.4390  152.1120 C   0  0  2  0  0  3  0  0  0  0  0  0
  157.1940  214.3600  151.6430 C   0  0  1  0  0  3  0  0  0  0  0  0
  158.0820  213.6500  149.3380 C   0  0  0  0  0  3  0  0  0  0  0  0
  160.3070  212.8770  147.5960 C   0  0  0  0  0  1  0  0  0  0  0  0
  160.3780  213.0920  149.0030 O   0  0  0  0  0  0  0  0  0  0  0  0
  2  4  1  0  0  0  0
  3  2  2  0  0  0  0
  3  5  1  0  0  0  0
  4  1  1  0  0  0  0
  4 21  1  6  0  0  0
  5  7  1  0  0  0  0
  5  1  2  0  0  0  0
  6 11  1  0  0  0  0
  7 11  1  0  0  0  0
  7 18  1  1  0  0  0
  8 19  1  6  0  0  0
  8 20  1  0  0  0  0
  8 12  1  0  0  0  0
 10  9  1  0  0  0  0
 12 14  1  0  0  0  0
 13  6  1  1  0  0  0
 15  9  1  6  0  0  0
 15 13  1  0  0  0  0
 15 16  1  0  0  0  0
 16  7  1  0  0  0  0
 17 14  1  6  0  0  0
 17 13  1  0  0  0  0
 20 10  1  6  0  0  0
 20 17  1  0  0  0  0
 21 22  1  0  0  0  0
 22 25  2  0  0  0  0
 22 26  1  0  0  0  0
 24 28  1  0  0  0  0
 24 23  1  1  0  0  0
 25 27  1  0  0  0  0
 26 24  1  0  0  0  0
 27 28  1  0  0  0  0
 29 25  1  0  0  0  0
 30 29  1  0  0  0  0
 33 30  1  1  0  0  0
 34 31  1  0  0  0  0
 35 31  1  6  0  0  0
 35 33  1  0  0  0  0
 36 32  1  6  0  0  0
 36 35  1  0  0  0  0
 36 33  1  0  0  0  0
 37 34  2  0  0  0  0
 37 32  1  0  0  0  0
 38 39  1  0  0  0  0
 39 34  1  0  0  0  0
M  END
>  <MODEL>
6

>  <REMARK>
 VINA RESULT:      -7.1      2.079      3.407
  Name = 
  7 active torsions:
  status: ('A' for Active; 'I' for Inactive)
    1  A    between atoms: C_3  and  C_35
    2  A    between atoms: C_6  and  C_32
    3  A    between atoms: N_11  and  C_18
    4  A    between atoms: N_11  and  N_19
    5  A    between atoms: N_19  and  C_23
    6  A    between atoms: C_20  and  O_27
    7  A    between atoms: C_32  and  C_34
                            x       y       z     vdW  Elec       q    Type
                         _______ _______ _______ _____ _____    ______ ____

>  <TORSDO>
F 7

$$$$
=
 OpenBabel11072415013D

 39 45  0  0  1  0  0  0  0  0999 V2000
  161.4550  207.9870  153.0110 C   0  0  0  0  0  3  0  0  0  0  0  0
  161.2200  205.6270  152.9580 N   0  0  0  0  0  0  0  0  0  0  0  0
  161.2100  206.1090  154.3400 C   0  0  0  0  0  3  0  0  0  0  0  0
  161.5010  206.7960  152.1200 C   0  0  1  0  0  3  0  0  0  0  0  0
  161.3060  207.5910  154.2610 C   0  0  0  0  0  0  0  0  0  0  0  0
  161.5230  211.0330  155.8260 C   0  0  0  0  0  2  0  0  0  0  0  0
  161.2390  208.5310  155.4430 C   0  0  1  0  0  0  0  0  0  0  0  0
  157.8150  213.9260  155.8780 C   0  0  2  0  0  3  0  0  0  0  0  0
  157.7750  210.2270  155.0510 C   0  0  0  0  0  2  0  0  0  0  0  0
  157.3550  211.6840  154.9350 C   0  0  0  0  0  2  0  0  0  0  0  0
  162.0780  209.7880  155.1350 C   0  0  0  0  0  2  0  0  0  0  0  0
  159.0470  214.4520  156.5650 C   0  0  0  0  0  2  0  0  0  0  0  0
  160.0940  211.3550  155.3580 C   0  0  1  0  0  3  0  0  0  0  0  0
  160.0390  213.4570  156.5460 O   0  0  0  0  0  0  0  0  0  0  0  0
  159.2960  210.0830  154.9640 C   0  0  1  0  0  3  0  0  0  0  0  0
  159.7640  208.8590  155.7480 C   0  0  0  0  0  2  0  0  0  0  0  0
  159.3810  212.2170  156.4170 C   0  0  1  0  0  3  0  0  0  0  0  0
  161.7820  207.9020  156.5680 O   0  0  0  0  0  1  0  0  0  0  0  0
  156.6750  214.4510  156.4880 O   0  0  0  0  0  1  0  0  0  0  0  0
  157.8970  212.4600  156.1300 C   0  0  1  0  0  3  0  0  0  0  0  0
  160.4500  206.9140  151.0200 C   0  0  0  0  0  2  0  0  0  0  0  0
  160.9180  206.4590  149.6580 C   0  0  0  0  0  0  0  0  0  0  0  0
  161.2730  203.2180  147.6370 C   0  0  0  0  0  1  0  0  0  0  0  0
  161.6300  204.6270  148.0600 C   0  0  2  0  0  3  0  0  0  0  0  0
  161.2780  207.3520  148.6990 C   0  0  0  0  0  0  0  0  0  0  0  0
  160.8740  204.9760  149.3390 C   0  0  0  0  0  2  0  0  0  0  0  0
  161.8150  206.8630  147.3770 C   0  0  0  0  0  2  0  0  0  0  0  0
  161.2560  205.5650  147.0120 N   0  0  0  0  0  2  0  0  0  0  0  0
  161.3080  208.7790  148.8980 N   0  0  0  0  0  2  0  0  0  0  0  0
  162.4010  209.6180  148.6170 N   0  0  0  0  0  2  0  0  0  0  0  0
  162.7650  213.0970  147.2080 C   0  0  0  0  0  2  0  0  0  0  0  0
  160.8330  212.9650  149.3160 C   0  0  0  0  0  2  0  0  0  0  0  0
  161.8750  210.9050  148.1870 C   0  0  2  0  0  3  0  0  0  0  0  0
  161.3390  213.5050  146.9620 C   0  0  0  0  0  0  0  0  0  0  0  0
  162.9730  211.9640  148.2410 C   0  0  2  0  0  3  0  0  0  0  0  0
  161.9310  211.8800  149.3570 C   0  0  1  0  0  3  0  0  0  0  0  0
  160.4420  213.4280  147.9460 C   0  0  0  0  0  3  0  0  0  0  0  0
  161.7180  213.6240  144.5090 C   0  0  0  0  0  1  0  0  0  0  0  0
  160.9850  213.9600  145.6840 O   0  0  0  0  0  0  0  0  0  0  0  0
  1  5  2  0  0  0  0
  2  3  2  0  0  0  0
  4 21  1  6  0  0  0
  4  2  1  0  0  0  0
  4  1  1  0  0  0  0
  5  3  1  0  0  0  0
  5  7  1  0  0  0  0
  7 16  1  0  0  0  0
  7 18  1  1  0  0  0
  8 20  1  0  0  0  0
  8 19  1  1  0  0  0
  8 12  1  0  0  0  0
 10  9  1  0  0  0  0
 11  7  1  0  0  0  0
 11  6  1  0  0  0  0
 13  6  1  1  0  0  0
 13 17  1  0  0  0  0
 14 12  1  0  0  0  0
 15  9  1  1  0  0  0
 15 13  1  0  0  0  0
 15 16  1  0  0  0  0
 17 14  1  6  0  0  0
 20 10  1  6  0  0  0
 20 17  1  0  0  0  0
 22 21  1  0  0  0  0
 24 23  1  6  0  0  0
 24 26  1  0  0  0  0
 25 29  1  0  0  0  0
 25 22  2  0  0  0  0
 26 22  1  0  0  0  0
 27 25  1  0  0  0  0
 28 27  1  0  0  0  0
 28 24  1  0  0  0  0
 30 29  1  0  0  0  0
 33 35  1  0  0  0  0
 33 30  1  1  0  0  0
 33 36  1  0  0  0  0
 34 31  1  0  0  0  0
 34 37  2  0  0  0  0
 35 31  1  6  0  0  0
 35 36  1  0  0  0  0
 36 32  1  6  0  0  0
 37 32  1  0  0  0  0
 38 39  1  0  0  0  0
 39 34  1  0  0  0  0
M  END
>  <MODEL>
7

>  <REMARK>
 VINA RESULT:      -7.0      3.290      8.092
  Name = 
  7 active torsions:
  status: ('A' for Active; 'I' for Inactive)
    1  A    between atoms: C_3  and  C_35
    2  A    between atoms: C_6  and  C_32
    3  A    between atoms: N_11  and  C_18
    4  A    between atoms: N_11  and  N_19
    5  A    between atoms: N_19  and  C_23
    6  A    between atoms: C_20  and  O_27
    7  A    between atoms: C_32  and  C_34
                            x       y       z     vdW  Elec       q    Type
                         _______ _______ _______ _____ _____    ______ ____

>  <TORSDO>
F 7

$$$$
=
 OpenBabel11072415013D

 39 45  0  0  1  0  0  0  0  0999 V2000
  161.7480  209.0560  149.9260 C   0  0  0  0  0  3  0  0  0  0  0  0
  161.1430  210.4840  151.7210 N   0  0  0  0  0  0  0  0  0  0  0  0
  161.2900  209.1060  152.1920 C   0  0  0  0  0  3  0  0  0  0  0  0
  161.3090  210.4370  150.2650 C   0  0  1  0  0  3  0  0  0  0  0  0
  161.7210  208.3090  151.0130 C   0  0  0  0  0  0  0  0  0  0  0  0
  160.8460  204.6300  150.8050 C   0  0  0  0  0  2  0  0  0  0  0  0
  162.0860  206.8430  151.0410 C   0  0  1  0  0  0  0  0  0  0  0  0
  160.5770  202.4180  146.6630 C   0  0  2  0  0  3  0  0  0  0  0  0
  162.0790  205.8400  147.2970 C   0  0  0  0  0  2  0  0  0  0  0  0
  161.3180  204.7760  146.5220 C   0  0  0  0  0  2  0  0  0  0  0  0
  160.8420  206.0210  151.4380 C   0  0  0  0  0  2  0  0  0  0  0  0
  160.3430  201.5490  147.8690 C   0  0  0  0  0  2  0  0  0  0  0  0
  160.8320  204.7030  149.2690 C   0  0  1  0  0  3  0  0  0  0  0  0
  160.5360  202.3170  149.0300 O   0  0  0  0  0  0  0  0  0  0  0  0
  161.5490  205.9680  148.7260 C   0  0  1  0  0  3  0  0  0  0  0  0
  162.6560  206.4350  149.6680 C   0  0  0  0  0  2  0  0  0  0  0  0
  161.3820  203.3900  148.6810 C   0  0  1  0  0  3  0  0  0  0  0  0
  163.0800  206.6300  152.0010 O   0  0  0  0  0  1  0  0  0  0  0  0
  161.1400  201.6590  145.6360 O   0  0  0  0  0  1  0  0  0  0  0  0
  161.5660  203.4140  147.1610 C   0  0  1  0  0  3  0  0  0  0  0  0
  162.3590  211.4530  149.8270 C   0  0  0  0  0  2  0  0  0  0  0  0
  161.8930  212.4100  148.7550 C   0  0  0  0  0  0  0  0  0  0  0  0
  162.7050  213.3280  145.1210 C   0  0  0  0  0  1  0  0  0  0  0  0
  162.2290  213.5820  146.5360 C   0  0  2  0  0  3  0  0  0  0  0  0
  160.8040  213.2030  148.9410 C   0  0  0  0  0  0  0  0  0  0  0  0
  162.6010  212.3910  147.4140 C   0  0  0  0  0  2  0  0  0  0  0  0
  160.4120  214.2030  147.8820 C   0  0  0  0  0  2  0  0  0  0  0  0
  160.7830  213.7500  146.5450 N   0  0  0  0  0  2  0  0  0  0  0  0
  160.0450  213.2560  150.1640 N   0  0  0  0  0  2  0  0  0  0  0  0
  159.9950  214.3500  151.0460 N   0  0  0  0  0  2  0  0  0  0  0  0
  158.2070  211.9190  153.3070 C   0  0  0  0  0  2  0  0  0  0  0  0
  156.5240  214.0790  152.4710 C   0  0  0  0  0  2  0  0  0  0  0  0
  159.0690  214.0160  152.1180 C   0  0  2  0  0  3  0  0  0  0  0  0
  157.5660  212.8220  154.3230 C   0  0  0  0  0  0  0  0  0  0  0  0
  158.5800  212.5780  151.9580 C   0  0  2  0  0  3  0  0  0  0  0  0
  157.6940  213.7450  151.5190 C   0  0  1  0  0  3  0  0  0  0  0  0
  156.7940  213.8350  153.9250 C   0  0  0  0  0  3  0  0  0  0  0  0
  158.5820  211.4750  156.1470 C   0  0  0  0  0  1  0  0  0  0  0  0
  157.8020  212.5730  155.6820 O   0  0  0  0  0  0  0  0  0  0  0  0
  1  4  1  0  0  0  0
  1  5  2  0  0  0  0
  2  3  2  0  0  0  0
  4 21  1  1  0  0  0
  4  2  1  0  0  0  0
  5  7  1  0  0  0  0
  5  3  1  0  0  0  0
  6 11  1  0  0  0  0
  7 11  1  0  0  0  0
  7 18  1  1  0  0  0
  8 19  1  6  0  0  0
  8 20  1  0  0  0  0
  8 12  1  0  0  0  0
 10  9  1  0  0  0  0
 12 14  1  0  0  0  0
 13  6  1  1  0  0  0
 15  9  1  6  0  0  0
 15 13  1  0  0  0  0
 15 16  1  0  0  0  0
 16  7  1  0  0  0  0
 17 14  1  6  0  0  0
 17 13  1  0  0  0  0
 20 10  1  6  0  0  0
 20 17  1  0  0  0  0
 22 25  2  0  0  0  0
 22 21  1  0  0  0  0
 24 23  1  6  0  0  0
 24 28  1  0  0  0  0
 24 26  1  0  0  0  0
 25 29  1  0  0  0  0
 26 22  1  0  0  0  0
 27 25  1  0  0  0  0
 28 27  1  0  0  0  0
 29 30  1  0  0  0  0
 31 34  1  0  0  0  0
 32 37  1  0  0  0  0
 33 30  1  6  0  0  0
 34 39  1  0  0  0  0
 35 33  1  0  0  0  0
 35 31  1  1  0  0  0
 36 35  1  0  0  0  0
 36 33  1  0  0  0  0
 36 32  1  1  0  0  0
 37 34  2  0  0  0  0
 39 38  1  0  0  0  0
M  END
>  <MODEL>
8

>  <REMARK>
 VINA RESULT:      -6.8      2.158      5.404
  Name = 
  7 active torsions:
  status: ('A' for Active; 'I' for Inactive)
    1  A    between atoms: C_3  and  C_35
    2  A    between atoms: C_6  and  C_32
    3  A    between atoms: N_11  and  C_18
    4  A    between atoms: N_11  and  N_19
    5  A    between atoms: N_19  and  C_23
    6  A    between atoms: C_20  and  O_27
    7  A    between atoms: C_32  and  C_34
                            x       y       z     vdW  Elec       q    Type
                         _______ _______ _______ _____ _____    ______ ____

>  <TORSDO>
F 7

$$$$
=
 OpenBabel11072415013D

 39 45  0  0  1  0  0  0  0  0999 V2000
  162.0100  213.1330  146.7700 C   0  0  0  0  0  3  0  0  0  0  0  0
  159.9310  212.0870  147.2280 N   0  0  0  0  0  0  0  0  0  0  0  0
  159.9860  212.5210  145.8320 C   0  0  0  0  0  3  0  0  0  0  0  0
  161.1580  212.5830  147.8590 C   0  0  1  0  0  3  0  0  0  0  0  0
  161.3380  213.1080  145.6350 C   0  0  0  0  0  0  0  0  0  0  0  0
  162.2190  212.6560  141.9790 C   0  0  0  0  0  2  0  0  0  0  0  0
  161.8850  213.6090  144.3180 C   0  0  1  0  0  0  0  0  0  0  0  0
  159.0150  213.3190  138.5990 C   0  0  2  0  0  3  0  0  0  0  0  0
  158.6980  214.3400  142.2360 C   0  0  0  0  0  2  0  0  0  0  0  0
  158.2170  213.8330  140.8860 C   0  0  0  0  0  2  0  0  0  0  0  0
  162.3610  212.4050  143.4800 C   0  0  0  0  0  2  0  0  0  0  0  0
  160.3970  212.9720  138.1130 C   0  0  0  0  0  2  0  0  0  0  0  0
  160.7530  212.8960  141.5790 C   0  0  1  0  0  3  0  0  0  0  0  0
  161.2610  212.8870  139.2170 O   0  0  0  0  0  0  0  0  0  0  0  0
  159.9280  213.5640  142.7110 C   0  0  1  0  0  3  0  0  0  0  0  0
  160.8040  214.4420  143.6030 C   0  0  0  0  0  2  0  0  0  0  0  0
  160.6970  213.6680  140.2470 C   0  0  1  0  0  3  0  0  0  0  0  0
  162.9830  214.4410  144.5580 O   0  0  0  0  0  1  0  0  0  0  0  0
  158.3710  214.1230  137.6570 O   0  0  0  0  0  1  0  0  0  0  0  0
  159.2880  214.1050  139.8360 C   0  0  1  0  0  3  0  0  0  0  0  0
  161.8760  211.4410  148.5730 C   0  0  0  0  0  2  0  0  0  0  0  0
  161.4090  211.1980  149.9880 C   0  0  0  0  0  0  0  0  0  0  0  0
  159.3660  212.9520  152.7200 C   0  0  0  0  0  1  0  0  0  0  0  0
  160.4380  212.0330  152.1730 C   0  0  2  0  0  3  0  0  0  0  0  0
  161.6180  210.0050  150.6060 C   0  0  0  0  0  0  0  0  0  0  0  0
  160.5980  212.2800  150.6760 C   0  0  0  0  0  2  0  0  0  0  0  0
  161.2090  209.8220  152.0460 C   0  0  0  0  0  2  0  0  0  0  0  0
  160.0550  210.6460  152.3910 N   0  0  0  0  0  2  0  0  0  0  0  0
  162.3390  208.9070  150.0150 N   0  0  0  0  0  2  0  0  0  0  0  0
  162.5490  207.6530  150.6140 N   0  0  0  0  0  2  0  0  0  0  0  0
  160.6540  206.3360  147.6330 C   0  0  0  0  0  2  0  0  0  0  0  0
  161.0640  204.3370  149.6400 C   0  0  0  0  0  2  0  0  0  0  0  0
  162.2260  206.6290  149.6310 C   0  0  2  0  0  3  0  0  0  0  0  0
  161.3920  205.0670  147.3050 C   0  0  0  0  0  0  0  0  0  0  0  0
  160.8220  206.8600  149.0780 C   0  0  2  0  0  3  0  0  0  0  0  0
  161.0600  205.7950  150.1500 C   0  0  1  0  0  3  0  0  0  0  0  0
  161.5910  204.1460  148.2500 C   0  0  0  0  0  3  0  0  0  0  0  0
  161.2390  205.4770  144.8590 C   0  0  0  0  0  1  0  0  0  0  0  0
  161.8610  204.8850  145.9970 O   0  0  0  0  0  0  0  0  0  0  0  0
  1  4  1  0  0  0  0
  2  4  1  0  0  0  0
  3  2  2  0  0  0  0
  4 21  1  6  0  0  0
  5  3  1  0  0  0  0
  5  1  2  0  0  0  0
  6 11  1  0  0  0  0
  7 18  1  1  0  0  0
  7  5  1  0  0  0  0
  8 19  1  6  0  0  0
  8 20  1  0  0  0  0
 10  9  1  0  0  0  0
 11  7  1  0  0  0  0
 12  8  1  0  0  0  0
 12 14  1  0  0  0  0
 13  6  1  1  0  0  0
 13 15  1  0  0  0  0
 15  9  1  6  0  0  0
 15 16  1  0  0  0  0
 16  7  1  0  0  0  0
 17 14  1  6  0  0  0
 17 13  1  0  0  0  0
 20 17  1  0  0  0  0
 20 10  1  1  0  0  0
 21 22  1  0  0  0  0
 22 25  2  0  0  0  0
 22 26  1  0  0  0  0
 24 28  1  0  0  0  0
 24 23  1  6  0  0  0
 25 27  1  0  0  0  0
 26 24  1  0  0  0  0
 27 28  1  0  0  0  0
 29 25  1  0  0  0  0
 29 30  1  0  0  0  0
 33 36  1  0  0  0  0
 33 30  1  1  0  0  0
 34 31  1  0  0  0  0
 34 37  2  0  0  0  0
 35 31  1  6  0  0  0
 35 33  1  0  0  0  0
 35 36  1  0  0  0  0
 36 32  1  6  0  0  0
 37 32  1  0  0  0  0
 38 39  1  0  0  0  0
 39 34  1  0  0  0  0
M  END
>  <MODEL>
9

>  <REMARK>
 VINA RESULT:      -6.6      3.406      8.662
  Name = 
  7 active torsions:
  status: ('A' for Active; 'I' for Inactive)
    1  A    between atoms: C_3  and  C_35
    2  A    between atoms: C_6  and  C_32
    3  A    between atoms: N_11  and  C_18
    4  A    between atoms: N_11  and  N_19
    5  A    between atoms: N_19  and  C_23
    6  A    between atoms: C_20  and  O_27
    7  A    between atoms: C_32  and  C_34
                            x       y       z     vdW  Elec       q    Type
                         _______ _______ _______ _____ _____    ______ ____

>  <TORSDO>
F 7

$$$$
