=
 OpenBabel11072410383D

 50 53  0  0  1  0  0  0  0  0999 V2000
  161.8800  209.8130  153.4220 O   0  0  0  0  0  1  0  0  0  0  0  0
  160.6440  209.1750  153.2890 C   0  0  1  0  0  3  0  0  0  0  0  0
  160.8580  207.8270  152.9930 O   0  0  0  0  0  0  0  0  0  0  0  0
  160.6180  207.7270  151.6180 C   0  0  0  0  0  2  0  0  0  0  0  0
  162.7460  206.4130  151.8960 C   0  0  0  0  0  2  0  0  0  0  0  0
  160.9330  204.6600  152.3150 C   0  0  2  0  0  3  0  0  0  0  0  0
  162.0330  208.3900  148.7960 C   0  0  0  0  0  2  0  0  0  0  0  0
  161.0560  207.2400  148.6050 C   0  0  2  0  0  3  0  0  0  0  0  0
  160.4110  204.2030  150.9600 C   0  0  0  0  0  2  0  0  0  0  0  0
  162.4230  204.9460  152.2080 C   0  0  0  0  0  2  0  0  0  0  0  0
  161.8240  207.1160  150.8800 C   0  0  2  0  0  0  0  0  0  0  0  0
  160.1330  205.3730  150.0130 C   0  0  0  0  0  2  0  0  0  0  0  0
  162.5860  208.2530  150.2100 C   0  0  0  0  0  2  0  0  0  0  0  0
  161.3760  206.2230  149.6980 C   0  0  1  0  0  0  0  0  0  0  0  0
  160.7320  203.6410  153.2460 O   0  0  0  0  0  1  0  0  0  0  0  0
  162.4290  205.3940  149.2810 O   0  0  0  0  0  1  0  0  0  0  0  0
  161.0790  206.6940  147.2090 C   0  0  0  0  0  0  0  0  0  0  0  0
  161.7560  205.4600  146.9240 N   0  0  0  0  0  2  0  0  0  0  0  0
  160.4760  207.3190  146.2960 O   0  0  0  0  0  0  0  0  0  0  0  0
  161.8140  204.8260  145.6100 C   0  0  0  0  0  0  0  0  0  0  0  0
  160.4530  204.8850  144.9270 C   0  0  0  0  0  2  0  0  0  0  0  0
  160.8490  202.6060  145.6030 C   0  0  0  0  0  2  0  0  0  0  0  0
  162.1490  203.3570  145.7810 C   0  0  0  0  0  2  0  0  0  0  0  0
  160.0300  203.4550  144.6590 C   0  0  0  0  0  2  0  0  0  0  0  0
  162.8740  205.4850  144.7450 C   0  0  0  0  0  1  0  0  0  0  0  0
  159.8390  209.3200  154.5880 C   0  0  1  0  0  3  0  0  0  0  0  0
  162.5990  208.8410  156.7990 O   0  0  0  0  0  0  0  0  0  0  0  0
  160.3590  208.4160  155.6700 C   0  0  0  0  0  0  0  0  0  0  0  0
  159.5390  207.2510  156.0930 C   0  0  0  0  0  1  0  0  0  0  0  0
  161.5100  208.6330  156.2500 C   0  0  0  0  0  0  0  0  0  0  0  0
  159.7710  211.0240  155.1470 S   0  0  0  0  0  0  0  0  0  0  0  0
  160.9550  211.3050  156.0290 O   0  0  0  0  0  0  0  0  0  0  0  0
  158.5050  211.2560  155.9220 O   0  0  0  0  0  0  0  0  0  0  0  0
  159.8190  212.1260  153.7440 C   0  0  0  0  0  2  0  0  0  0  0  0
  157.4810  212.5180  154.2340 C   0  0  0  0  0  3  0  0  0  0  0  0
  156.0330  212.7500  153.9620 C   0  0  0  0  0  1  0  0  0  0  0  0
  158.4400  212.4730  153.3030 C   0  0  0  0  0  0  0  0  0  0  0  0
  158.1960  212.6480  151.8990 N   0  0  0  0  0  2  0  0  0  0  0  0
  156.9330  213.7530  150.1550 C   0  0  0  0  0  1  0  0  0  0  0  0
  157.9890  213.9240  151.2280 C   0  0  2  0  0  3  0  0  0  0  0  0
  160.1980  213.2980  150.5400 O   0  0  0  0  0  0  0  0  0  0  0  0
  159.2900  214.3730  150.5830 C   0  0  1  0  0  3  0  0  0  0  0  0
  159.5280  213.6050  149.3430 C   0  0  1  0  0  3  0  0  0  0  0  0
  160.4500  214.3880  148.4270 C   0  0  0  0  0  2  0  0  0  0  0  0
  160.5940  213.6730  147.0900 C   0  0  2  0  0  3  0  0  0  0  0  0
  159.5800  212.7200  146.9460 O   0  0  0  0  0  1  0  0  0  0  0  0
  162.9300  213.8150  147.5370 F   0  0  0  0  0  0  0  0  0  0  0  0
  161.9570  211.7790  147.6090 F   0  0  0  0  0  0  0  0  0  0  0  0
  161.9610  213.0060  146.9680 C   0  0  0  0  0  0  0  0  0  0  0  0
  162.2660  212.8210  145.6330 F   0  0  0  0  0  0  0  0  0  0  0  0
  2  1  1  1  0  0  0
  2 26  1  0  0  0  0
  3  2  1  0  0  0  0
  4  3  1  0  0  0  0
  5 10  1  0  0  0  0
  6 15  1  1  0  0  0
  7 13  1  0  0  0  0
  8 17  1  6  0  0  0
  8  7  1  0  0  0  0
  8 14  1  0  0  0  0
  9  6  1  0  0  0  0
 10  6  1  0  0  0  0
 11  4  1  1  0  0  0
 11  5  1  0  0  0  0
 12  9  1  0  0  0  0
 13 11  1  0  0  0  0
 14 16  1  6  0  0  0
 14 12  1  0  0  0  0
 14 11  1  0  0  0  0
 18 17  1  0  0  0  0
 19 17  2  0  0  0  0
 20 23  1  0  0  0  0
 20 18  1  0  0  0  0
 21 20  1  0  0  0  0
 22 23  1  0  0  0  0
 24 21  1  0  0  0  0
 24 22  1  0  0  0  0
 25 20  1  0  0  0  0
 26 31  1  0  0  0  0
 26 28  1  1  0  0  0
 28 29  1  0  0  0  0
 28 30  2  0  0  0  0
 30 27  2  0  0  0  0
 31 33  2  0  0  0  0
 31 32  2  0  0  0  0
 34 31  1  0  0  0  0
 36 35  1  0  0  0  0
 37 34  1  0  0  0  0
 37 35  2  0  0  0  0
 38 37  1  0  0  0  0
 40 39  1  6  0  0  0
 40 38  1  0  0  0  0
 41 42  1  0  0  0  0
 42 40  1  1  0  0  0
 43 44  1  6  0  0  0
 43 41  1  0  0  0  0
 43 42  1  0  0  0  0
 45 46  1  1  0  0  0
 45 44  1  0  0  0  0
 49 45  1  0  0  0  0
 49 47  1  0  0  0  0
 49 48  1  0  0  0  0
 50 49  1  0  0  0  0
M  END
>  <MODEL>
1

>  <REMARK>
 VINA RESULT:      -5.9      0.000      0.000
  Name = 
  16 active torsions:
  status: ('A' for Active; 'I' for Inactive)
    1  A    between atoms: C_2  and  C_8
    2  A    between atoms: S_7  and  C_17
    3  A    between atoms: S_7  and  C_48
    4  A    between atoms: N_9  and  C_12
    5  A    between atoms: C_10  and  C_20
    6  A    between atoms: C_10  and  O_23
    7  A    between atoms: C_14  and  C_38
    8  A    between atoms: C_15  and  C_17
    9  A    between atoms: C_15  and  O_23
   10  A    between atoms: C_17  and  C_34
   11  A    between atoms: C_18  and  C_29
   12  A    between atoms: C_18  and  C_44
   13  A    between atoms: C_29  and  C_45
   14  A    between atoms: C_38  and  N_40
   15  A    between atoms: N_40  and  C_42
   16  A    between atoms: C_42  and  C_48
                            x       y       z     vdW  Elec       q    Type
                         _______ _______ _______ _____ _____    ______ ____

>  <TORSDO>
F 16

$$$$
=
 OpenBabel11072410383D

 50 53  0  0  1  0  0  0  0  0999 V2000
  162.0390  209.8960  152.5670 O   0  0  0  0  0  1  0  0  0  0  0  0
  160.7200  209.4970  152.3400 C   0  0  1  0  0  3  0  0  0  0  0  0
  160.6570  208.1020  152.3630 O   0  0  0  0  0  0  0  0  0  0  0  0
  160.5580  207.7320  151.0180 C   0  0  0  0  0  2  0  0  0  0  0  0
  162.6810  206.5730  151.7130 C   0  0  0  0  0  2  0  0  0  0  0  0
  160.8920  204.7980  152.1460 C   0  0  2  0  0  3  0  0  0  0  0  0
  162.2820  208.1020  148.3170 C   0  0  0  0  0  2  0  0  0  0  0  0
  161.3770  206.8880  148.1670 C   0  0  2  0  0  3  0  0  0  0  0  0
  160.5560  204.1470  150.8110 C   0  0  0  0  0  2  0  0  0  0  0  0
  162.3740  205.1430  152.1770 C   0  0  0  0  0  2  0  0  0  0  0  0
  161.8650  207.0940  150.5130 C   0  0  2  0  0  0  0  0  0  0  0  0
  160.3550  205.1710  149.6930 C   0  0  0  0  0  2  0  0  0  0  0  0
  162.6630  208.1740  149.7910 C   0  0  0  0  0  2  0  0  0  0  0  0
  161.5970  206.0360  149.4150 C   0  0  1  0  0  0  0  0  0  0  0  0
  160.6160  203.8960  153.1740 O   0  0  0  0  0  1  0  0  0  0  0  0
  162.7220  205.2150  149.2370 O   0  0  0  0  0  1  0  0  0  0  0  0
  161.5890  206.1710  146.8680 C   0  0  0  0  0  0  0  0  0  0  0  0
  160.5600  205.3280  146.3290 N   0  0  0  0  0  2  0  0  0  0  0  0
  162.6720  206.3380  146.2450 O   0  0  0  0  0  0  0  0  0  0  0  0
  160.6510  204.6100  145.0610 C   0  0  0  0  0  0  0  0  0  0  0  0
  159.2990  204.0190  144.6820 C   0  0  0  0  0  2  0  0  0  0  0  0
  160.7420  202.2080  145.3530 C   0  0  0  0  0  2  0  0  0  0  0  0
  161.6060  203.4410  145.2170 C   0  0  0  0  0  2  0  0  0  0  0  0
  159.4870  202.5200  144.5710 C   0  0  0  0  0  2  0  0  0  0  0  0
  161.1580  205.5280  143.9630 C   0  0  0  0  0  1  0  0  0  0  0  0
  159.7990  210.0960  153.4120 C   0  0  1  0  0  3  0  0  0  0  0  0
  160.4640  208.0440  156.2560 O   0  0  0  0  0  0  0  0  0  0  0  0
  160.4530  210.1070  154.7650 C   0  0  0  0  0  0  0  0  0  0  0  0
  161.1140  211.3500  155.2370 C   0  0  0  0  0  1  0  0  0  0  0  0
  160.4580  209.0480  155.5320 C   0  0  0  0  0  0  0  0  0  0  0  0
  159.2240  211.7350  152.9600 S   0  0  0  0  0  0  0  0  0  0  0  0
  158.9810  212.5380  154.2070 O   0  0  0  0  0  0  0  0  0  0  0  0
  157.9460  211.6280  152.1770 O   0  0  0  0  0  0  0  0  0  0  0  0
  160.4590  212.5610  151.9700 C   0  0  0  0  0  2  0  0  0  0  0  0
  158.5190  213.6470  151.0120 C   0  0  0  0  0  3  0  0  0  0  0  0
  157.6920  214.3420  149.9830 C   0  0  0  0  0  1  0  0  0  0  0  0
  159.8160  213.3500  150.8830 C   0  0  0  0  0  0  0  0  0  0  0  0
  160.5950  213.6690  149.7190 N   0  0  0  0  0  2  0  0  0  0  0  0
  161.9280  211.7640  149.0440 C   0  0  0  0  0  1  0  0  0  0  0  0
  160.8730  212.7640  148.6130 C   0  0  2  0  0  3  0  0  0  0  0  0
  162.5150  212.9120  146.8730 O   0  0  0  0  0  0  0  0  0  0  0  0
  161.3940  213.5590  147.4270 C   0  0  1  0  0  3  0  0  0  0  0  0
  161.2940  212.7490  146.1950 C   0  0  1  0  0  3  0  0  0  0  0  0
  161.2550  213.6630  144.9850 C   0  0  0  0  0  2  0  0  0  0  0  0
  161.6930  212.9050  143.7390 C   0  0  2  0  0  3  0  0  0  0  0  0
  162.6500  213.6470  143.0410 O   0  0  0  0  0  1  0  0  0  0  0  0
  160.1980  211.2530  142.8950 F   0  0  0  0  0  0  0  0  0  0  0  0
  159.3970  213.3360  143.2290 F   0  0  0  0  0  0  0  0  0  0  0  0
  160.5030  212.6020  142.8340 C   0  0  0  0  0  0  0  0  0  0  0  0
  160.8210  212.9270  141.5290 F   0  0  0  0  0  0  0  0  0  0  0  0
  2  3  1  0  0  0  0
  2  1  1  1  0  0  0
  2 26  1  0  0  0  0
  4  3  1  0  0  0  0
  5 10  1  0  0  0  0
  6 10  1  0  0  0  0
  6 15  1  1  0  0  0
  7 13  1  0  0  0  0
  8 17  1  6  0  0  0
  8  7  1  0  0  0  0
  8 14  1  0  0  0  0
  9  6  1  0  0  0  0
 11  4  1  1  0  0  0
 11  5  1  0  0  0  0
 12  9  1  0  0  0  0
 13 11  1  0  0  0  0
 14 16  1  6  0  0  0
 14 12  1  0  0  0  0
 14 11  1  0  0  0  0
 18 17  1  0  0  0  0
 19 17  2  0  0  0  0
 20 23  1  0  0  0  0
 20 18  1  0  0  0  0
 21 20  1  0  0  0  0
 23 22  1  0  0  0  0
 24 21  1  0  0  0  0
 24 22  1  0  0  0  0
 25 20  1  0  0  0  0
 26 28  1  1  0  0  0
 28 29  1  0  0  0  0
 28 30  2  0  0  0  0
 30 27  2  0  0  0  0
 31 26  1  0  0  0  0
 31 32  2  0  0  0  0
 33 31  2  0  0  0  0
 34 31  1  0  0  0  0
 36 35  1  0  0  0  0
 37 35  2  0  0  0  0
 37 34  1  0  0  0  0
 38 37  1  0  0  0  0
 40 39  1  1  0  0  0
 40 38  1  0  0  0  0
 41 42  1  0  0  0  0
 42 40  1  1  0  0  0
 43 44  1  6  0  0  0
 43 41  1  0  0  0  0
 43 42  1  0  0  0  0
 45 46  1  6  0  0  0
 45 44  1  0  0  0  0
 49 47  1  0  0  0  0
 49 48  1  0  0  0  0
 49 45  1  0  0  0  0
 50 49  1  0  0  0  0
M  END
>  <MODEL>
2

>  <REMARK>
 VINA RESULT:      -5.8      2.003      2.792
  Name = 
  16 active torsions:
  status: ('A' for Active; 'I' for Inactive)
    1  A    between atoms: C_2  and  C_8
    2  A    between atoms: S_7  and  C_17
    3  A    between atoms: S_7  and  C_48
    4  A    between atoms: N_9  and  C_12
    5  A    between atoms: C_10  and  C_20
    6  A    between atoms: C_10  and  O_23
    7  A    between atoms: C_14  and  C_38
    8  A    between atoms: C_15  and  C_17
    9  A    between atoms: C_15  and  O_23
   10  A    between atoms: C_17  and  C_34
   11  A    between atoms: C_18  and  C_29
   12  A    between atoms: C_18  and  C_44
   13  A    between atoms: C_29  and  C_45
   14  A    between atoms: C_38  and  N_40
   15  A    between atoms: N_40  and  C_42
   16  A    between atoms: C_42  and  C_48
                            x       y       z     vdW  Elec       q    Type
                         _______ _______ _______ _____ _____    ______ ____

>  <TORSDO>
F 16

$$$$
=
 OpenBabel11072410383D

 50 53  0  0  1  0  0  0  0  0999 V2000
  162.3680  206.0790  153.5830 O   0  0  0  0  0  1  0  0  0  0  0  0
  162.3130  207.4120  153.1680 C   0  0  1  0  0  3  0  0  0  0  0  0
  162.3470  207.4560  151.7730 O   0  0  0  0  0  0  0  0  0  0  0  0
  162.2890  206.1150  151.3780 C   0  0  0  0  0  2  0  0  0  0  0  0
  160.3750  207.1570  150.1190 C   0  0  0  0  0  2  0  0  0  0  0  0
  162.3780  207.6200  148.5990 C   0  0  2  0  0  3  0  0  0  0  0  0
  160.3040  203.5780  151.2200 C   0  0  0  0  0  2  0  0  0  0  0  0
  161.3190  203.4860  150.0910 C   0  0  2  0  0  3  0  0  0  0  0  0
  162.6650  206.3470  147.8140 C   0  0  0  0  0  2  0  0  0  0  0  0
  160.8760  207.7580  148.8000 C   0  0  0  0  0  2  0  0  0  0  0  0
  161.0200  205.8260  150.5550 C   0  0  2  0  0  0  0  0  0  0  0  0
  162.6530  205.0980  148.6970 C   0  0  0  0  0  2  0  0  0  0  0  0
  160.0490  205.0630  151.4480 C   0  0  0  0  0  2  0  0  0  0  0  0
  161.3050  204.8440  149.3930 C   0  0  1  0  0  0  0  0  0  0  0  0
  162.8410  208.7160  147.8720 O   0  0  0  0  0  1  0  0  0  0  0  0
  160.2650  204.8810  148.4500 O   0  0  0  0  0  1  0  0  0  0  0  0
  161.0740  202.3110  149.1920 C   0  0  0  0  0  0  0  0  0  0  0  0
  161.0100  202.4890  147.7690 N   0  0  0  0  0  2  0  0  0  0  0  0
  160.9470  201.1660  149.7010 O   0  0  0  0  0  0  0  0  0  0  0  0
  160.8060  201.4130  146.8040 C   0  0  0  0  0  0  0  0  0  0  0  0
  161.1200  201.8920  145.3930 C   0  0  0  0  0  2  0  0  0  0  0  0
  158.7310  201.6400  145.5780 C   0  0  0  0  0  2  0  0  0  0  0  0
  159.3430  201.0100  146.8080 C   0  0  0  0  0  2  0  0  0  0  0  0
  159.8580  201.7180  144.5740 C   0  0  0  0  0  2  0  0  0  0  0  0
  161.6590  200.2070  147.1600 C   0  0  0  0  0  1  0  0  0  0  0  0
  161.0320  208.0730  153.6970 C   0  0  1  0  0  3  0  0  0  0  0  0
  162.4700  209.0020  156.8280 O   0  0  0  0  0  0  0  0  0  0  0  0
  160.8820  207.8890  155.1810 C   0  0  0  0  0  0  0  0  0  0  0  0
  159.7750  207.0430  155.6950 C   0  0  0  0  0  1  0  0  0  0  0  0
  161.6970  208.4590  156.0280 C   0  0  0  0  0  0  0  0  0  0  0  0
  160.9400  209.8080  153.2490 S   0  0  0  0  0  0  0  0  0  0  0  0
  160.0090  209.9710  152.0800 O   0  0  0  0  0  0  0  0  0  0  0  0
  162.3060  210.3100  152.8730 O   0  0  0  0  0  0  0  0  0  0  0  0
  160.3170  210.7590  154.6240 C   0  0  0  0  0  2  0  0  0  0  0  0
  157.9620  210.9250  155.1600 C   0  0  0  0  0  3  0  0  0  0  0  0
  156.5230  211.2660  154.9680 C   0  0  0  0  0  1  0  0  0  0  0  0
  158.9510  211.2740  154.3300 C   0  0  0  0  0  0  0  0  0  0  0  0
  158.7530  212.0350  153.1290 N   0  0  0  0  0  2  0  0  0  0  0  0
  157.9010  214.2310  153.6870 C   0  0  0  0  0  1  0  0  0  0  0  0
  159.0000  213.4620  152.9810 C   0  0  2  0  0  3  0  0  0  0  0  0
  160.2110  214.4510  151.1640 O   0  0  0  0  0  0  0  0  0  0  0  0
  158.9960  213.8260  151.5050 C   0  0  1  0  0  3  0  0  0  0  0  0
  160.0750  213.0980  150.8040 C   0  0  1  0  0  3  0  0  0  0  0  0
  159.7420  212.9930  149.3280 C   0  0  0  0  0  2  0  0  0  0  0  0
  160.8960  213.5280  148.4900 C   0  0  2  0  0  3  0  0  0  0  0  0
  160.4080  214.3740  147.4890 O   0  0  0  0  0  1  0  0  0  0  0  0
  162.8320  212.1460  148.6240 F   0  0  0  0  0  0  0  0  0  0  0  0
  160.9330  211.2360  147.8100 F   0  0  0  0  0  0  0  0  0  0  0  0
  161.6980  212.3890  147.8680 C   0  0  0  0  0  0  0  0  0  0  0  0
  162.0850  212.7420  146.5890 F   0  0  0  0  0  0  0  0  0  0  0  0
  2  1  1  6  0  0  0
  2 26  1  0  0  0  0
  3  2  1  0  0  0  0
  4  3  1  0  0  0  0
  5 11  1  0  0  0  0
  6 15  1  6  0  0  0
  6 10  1  0  0  0  0
  7 13  1  0  0  0  0
  8 17  1  6  0  0  0
  8  7  1  0  0  0  0
  9  6  1  0  0  0  0
  9 12  1  0  0  0  0
 10  5  1  0  0  0  0
 11  4  1  1  0  0  0
 11 13  1  0  0  0  0
 12 14  1  0  0  0  0
 14 16  1  6  0  0  0
 14  8  1  0  0  0  0
 14 11  1  0  0  0  0
 17 19  2  0  0  0  0
 18 17  1  0  0  0  0
 20 23  1  0  0  0  0
 20 25  1  0  0  0  0
 20 18  1  0  0  0  0
 21 20  1  0  0  0  0
 22 23  1  0  0  0  0
 24 21  1  0  0  0  0
 24 22  1  0  0  0  0
 26 28  1  1  0  0  0
 28 29  1  0  0  0  0
 28 30  2  0  0  0  0
 30 27  2  0  0  0  0
 31 26  1  0  0  0  0
 31 34  1  0  0  0  0
 32 31  2  0  0  0  0
 33 31  2  0  0  0  0
 36 35  1  0  0  0  0
 37 34  1  0  0  0  0
 37 35  2  0  0  0  0
 38 37  1  0  0  0  0
 40 38  1  0  0  0  0
 40 39  1  1  0  0  0
 41 42  1  0  0  0  0
 42 40  1  1  0  0  0
 43 44  1  6  0  0  0
 43 41  1  0  0  0  0
 43 42  1  0  0  0  0
 45 46  1  6  0  0  0
 45 44  1  0  0  0  0
 48 49  1  0  0  0  0
 49 45  1  0  0  0  0
 49 47  1  0  0  0  0
 50 49  1  0  0  0  0
M  END
>  <MODEL>
3

>  <REMARK>
 VINA RESULT:      -4.1      1.823      3.234
  Name = 
  16 active torsions:
  status: ('A' for Active; 'I' for Inactive)
    1  A    between atoms: C_2  and  C_8
    2  A    between atoms: S_7  and  C_17
    3  A    between atoms: S_7  and  C_48
    4  A    between atoms: N_9  and  C_12
    5  A    between atoms: C_10  and  C_20
    6  A    between atoms: C_10  and  O_23
    7  A    between atoms: C_14  and  C_38
    8  A    between atoms: C_15  and  C_17
    9  A    between atoms: C_15  and  O_23
   10  A    between atoms: C_17  and  C_34
   11  A    between atoms: C_18  and  C_29
   12  A    between atoms: C_18  and  C_44
   13  A    between atoms: C_29  and  C_45
   14  A    between atoms: C_38  and  N_40
   15  A    between atoms: N_40  and  C_42
   16  A    between atoms: C_42  and  C_48
                            x       y       z     vdW  Elec       q    Type
                         _______ _______ _______ _____ _____    ______ ____

>  <TORSDO>
F 16

$$$$
=
 OpenBabel11072410383D

 50 53  0  0  1  0  0  0  0  0999 V2000
  161.9670  207.7450  154.2110 O   0  0  0  0  0  1  0  0  0  0  0  0
  160.6240  207.6500  153.8390 C   0  0  1  0  0  3  0  0  0  0  0  0
  160.0330  208.9110  153.9440 O   0  0  0  0  0  0  0  0  0  0  0  0
  159.6080  208.9910  155.2740 C   0  0  0  0  0  2  0  0  0  0  0  0
  159.8780  210.6700  157.1290 C   0  0  0  0  0  2  0  0  0  0  0  0
  162.2730  210.3540  156.2910 C   0  0  2  0  0  3  0  0  0  0  0  0
  157.5060  211.2280  154.2840 C   0  0  0  0  0  2  0  0  0  0  0  0
  158.8310  211.4390  153.5670 C   0  0  2  0  0  3  0  0  0  0  0  0
  162.4340  211.1920  155.0300 C   0  0  0  0  0  2  0  0  0  0  0  0
  161.3500  211.0780  157.2600 C   0  0  0  0  0  2  0  0  0  0  0  0
  159.3530  210.4500  155.6960 C   0  0  2  0  0  0  0  0  0  0  0  0
  161.2620  211.0270  154.0620 C   0  0  0  0  0  2  0  0  0  0  0  0
  157.8480  210.6870  155.6680 C   0  0  0  0  0  2  0  0  0  0  0  0
  159.9060  211.4500  154.6520 C   0  0  1  0  0  0  0  0  0  0  0  0
  163.5210  210.1890  156.8900 O   0  0  0  0  0  1  0  0  0  0  0  0
  160.0060  212.7360  155.2070 O   0  0  0  0  0  1  0  0  0  0  0  0
  158.8180  212.6460  152.6790 C   0  0  0  0  0  0  0  0  0  0  0  0
  158.8860  212.4980  151.2530 N   0  0  0  0  0  2  0  0  0  0  0  0
  158.7240  213.7900  153.2010 O   0  0  0  0  0  0  0  0  0  0  0  0
  158.8490  213.6020  150.2990 C   0  0  0  0  0  0  0  0  0  0  0  0
  157.6030  214.4530  150.5100 C   0  0  0  0  0  2  0  0  0  0  0  0
  157.3140  213.2040  148.4690 C   0  0  0  0  0  2  0  0  0  0  0  0
  158.7570  213.0420  148.8920 C   0  0  0  0  0  2  0  0  0  0  0  0
  156.8220  214.4230  149.2130 C   0  0  0  0  0  2  0  0  0  0  0  0
  160.1020  214.4530  150.4180 C   0  0  0  0  0  1  0  0  0  0  0  0
  160.5150  207.1220  152.4020 C   0  0  1  0  0  3  0  0  0  0  0  0
  161.4180  207.4250  148.9620 O   0  0  0  0  0  0  0  0  0  0  0  0
  161.1650  208.0510  151.4160 C   0  0  0  0  0  0  0  0  0  0  0  0
  161.6650  209.3680  151.8860 C   0  0  0  0  0  1  0  0  0  0  0  0
  161.2970  207.7300  150.1550 C   0  0  0  0  0  0  0  0  0  0  0  0
  161.1690  205.4570  152.2490 S   0  0  0  0  0  0  0  0  0  0  0  0
  160.9470  204.7160  153.5380 O   0  0  0  0  0  0  0  0  0  0  0  0
  162.6420  205.5140  151.9530 O   0  0  0  0  0  0  0  0  0  0  0  0
  160.3330  204.5930  150.9310 C   0  0  0  0  0  2  0  0  0  0  0  0
  161.4210  202.5640  151.6780 C   0  0  0  0  0  3  0  0  0  0  0  0
  162.1990  201.2960  151.5740 C   0  0  0  0  0  1  0  0  0  0  0  0
  161.0100  203.3000  150.6390 C   0  0  0  0  0  0  0  0  0  0  0  0
  161.2660  202.9580  149.2680 N   0  0  0  0  0  2  0  0  0  0  0  0
  161.3830  200.5400  149.2320 C   0  0  0  0  0  1  0  0  0  0  0  0
  160.7740  201.7690  148.5870 C   0  0  2  0  0  3  0  0  0  0  0  0
  160.1200  201.3650  146.3170 O   0  0  0  0  0  0  0  0  0  0  0  0
  161.1810  201.8200  147.1240 C   0  0  1  0  0  3  0  0  0  0  0  0
  160.3040  202.7570  146.3890 C   0  0  1  0  0  3  0  0  0  0  0  0
  161.0130  203.2450  145.1400 C   0  0  0  0  0  2  0  0  0  0  0  0
  161.2540  204.7460  145.2260 C   0  0  2  0  0  3  0  0  0  0  0  0
  161.0380  205.3370  143.9760 O   0  0  0  0  0  1  0  0  0  0  0  0
  162.6910  205.0970  147.0940 F   0  0  0  0  0  0  0  0  0  0  0  0
  163.5470  204.0700  145.2750 F   0  0  0  0  0  0  0  0  0  0  0  0
  162.6690  205.0490  145.7100 C   0  0  0  0  0  0  0  0  0  0  0  0
  163.0730  206.2750  145.2170 F   0  0  0  0  0  0  0  0  0  0  0  0
  2  3  1  0  0  0  0
  2  1  1  6  0  0  0
  3  4  1  0  0  0  0
  5 10  1  0  0  0  0
  6 15  1  1  0  0  0
  6 10  1  0  0  0  0
  7 13  1  0  0  0  0
  8 17  1  1  0  0  0
  8  7  1  0  0  0  0
  8 14  1  0  0  0  0
  9  6  1  0  0  0  0
 11  4  1  6  0  0  0
 11  5  1  0  0  0  0
 12 14  1  0  0  0  0
 12  9  1  0  0  0  0
 13 11  1  0  0  0  0
 14 16  1  1  0  0  0
 14 11  1  0  0  0  0
 17 19  2  0  0  0  0
 18 17  1  0  0  0  0
 20 25  1  0  0  0  0
 20 21  1  0  0  0  0
 20 18  1  0  0  0  0
 22 23  1  0  0  0  0
 22 24  1  0  0  0  0
 23 20  1  0  0  0  0
 24 21  1  0  0  0  0
 26 28  1  6  0  0  0
 26  2  1  0  0  0  0
 27 30  2  0  0  0  0
 28 29  1  0  0  0  0
 30 28  2  0  0  0  0
 31 26  1  0  0  0  0
 31 32  2  0  0  0  0
 33 31  2  0  0  0  0
 34 31  1  0  0  0  0
 36 35  1  0  0  0  0
 37 34  1  0  0  0  0
 37 35  2  0  0  0  0
 38 37  1  0  0  0  0
 40 39  1  1  0  0  0
 40 38  1  0  0  0  0
 41 43  1  0  0  0  0
 41 42  1  0  0  0  0
 42 40  1  1  0  0  0
 43 44  1  6  0  0  0
 43 42  1  0  0  0  0
 44 45  1  0  0  0  0
 45 46  1  6  0  0  0
 45 49  1  0  0  0  0
 48 49  1  0  0  0  0
 49 47  1  0  0  0  0
 50 49  1  0  0  0  0
M  END
>  <MODEL>
4

>  <REMARK>
 VINA RESULT:      -3.9      2.795      8.909
  Name = 
  16 active torsions:
  status: ('A' for Active; 'I' for Inactive)
    1  A    between atoms: C_2  and  C_8
    2  A    between atoms: S_7  and  C_17
    3  A    between atoms: S_7  and  C_48
    4  A    between atoms: N_9  and  C_12
    5  A    between atoms: C_10  and  C_20
    6  A    between atoms: C_10  and  O_23
    7  A    between atoms: C_14  and  C_38
    8  A    between atoms: C_15  and  C_17
    9  A    between atoms: C_15  and  O_23
   10  A    between atoms: C_17  and  C_34
   11  A    between atoms: C_18  and  C_29
   12  A    between atoms: C_18  and  C_44
   13  A    between atoms: C_29  and  C_45
   14  A    between atoms: C_38  and  N_40
   15  A    between atoms: N_40  and  C_42
   16  A    between atoms: C_42  and  C_48
                            x       y       z     vdW  Elec       q    Type
                         _______ _______ _______ _____ _____    ______ ____

>  <TORSDO>
F 16

$$$$
=
 OpenBabel11072410383D

 50 53  0  0  1  0  0  0  0  0999 V2000
  160.9880  208.2680  147.8340 O   0  0  0  0  0  1  0  0  0  0  0  0
  162.0940  208.4530  148.6670 C   0  0  1  0  0  3  0  0  0  0  0  0
  161.9020  209.6090  149.4270 O   0  0  0  0  0  0  0  0  0  0  0  0
  161.6700  210.6160  148.4840 C   0  0  0  0  0  2  0  0  0  0  0  0
  163.0700  212.6920  148.2360 C   0  0  0  0  0  2  0  0  0  0  0  0
  161.4720  212.8390  146.2460 C   0  0  2  0  0  3  0  0  0  0  0  0
  161.2280  211.9150  151.4030 C   0  0  0  0  0  2  0  0  0  0  0  0
  160.0600  212.2980  150.5060 C   0  0  2  0  0  3  0  0  0  0  0  0
  160.1420  213.3720  146.7620 C   0  0  0  0  0  2  0  0  0  0  0  0
  162.6080  213.4970  147.0160 C   0  0  0  0  0  2  0  0  0  0  0  0
  161.9650  212.0100  149.0660 C   0  0  2  0  0  0  0  0  0  0  0  0
  159.6920  212.6780  148.0480 C   0  0  0  0  0  2  0  0  0  0  0  0
  162.4520  211.8240  150.4990 C   0  0  0  0  0  2  0  0  0  0  0  0
  160.6730  212.8490  149.2200 C   0  0  1  0  0  0  0  0  0  0  0  0
  161.5960  213.1590  144.8940 O   0  0  0  0  0  1  0  0  0  0  0  0
  160.9850  214.2070  149.3890 O   0  0  0  0  0  1  0  0  0  0  0  0
  159.0900  213.2160  151.1870 C   0  0  0  0  0  0  0  0  0  0  0  0
  158.2660  212.7330  152.2590 N   0  0  0  0  0  2  0  0  0  0  0  0
  159.0260  214.4200  150.8230 O   0  0  0  0  0  0  0  0  0  0  0  0
  157.3130  213.5470  153.0080 C   0  0  0  0  0  0  0  0  0  0  0  0
  158.0410  214.4530  153.9930 C   0  0  0  0  0  2  0  0  0  0  0  0
  156.9400  212.7180  155.2520 C   0  0  0  0  0  2  0  0  0  0  0  0
  156.4220  212.6380  153.8330 C   0  0  0  0  0  2  0  0  0  0  0  0
  157.5330  214.1020  155.3760 C   0  0  0  0  0  2  0  0  0  0  0  0
  156.4540  214.3690  152.0630 C   0  0  0  0  0  1  0  0  0  0  0  0
  162.2730  207.2320  149.5790 C   0  0  1  0  0  3  0  0  0  0  0  0
  162.6280  206.1340  152.9570 O   0  0  0  0  0  0  0  0  0  0  0  0
  161.8060  207.5100  150.9800 C   0  0  0  0  0  0  0  0  0  0  0  0
  160.8460  208.6190  151.2140 C   0  0  0  0  0  1  0  0  0  0  0  0
  162.2260  206.8040  151.9960 C   0  0  0  0  0  0  0  0  0  0  0  0
  161.4710  205.7730  148.9090 S   0  0  0  0  0  0  0  0  0  0  0  0
  161.7600  205.6790  147.4370 O   0  0  0  0  0  0  0  0  0  0  0  0
  159.9860  205.8650  149.1220 O   0  0  0  0  0  0  0  0  0  0  0  0
  162.0960  204.3100  149.7170 C   0  0  0  0  0  2  0  0  0  0  0  0
  160.9580  203.4610  151.6780 C   0  0  0  0  0  3  0  0  0  0  0  0
  159.9810  202.6570  152.4680 C   0  0  0  0  0  1  0  0  0  0  0  0
  160.9850  203.5410  150.3430 C   0  0  0  0  0  0  0  0  0  0  0  0
  160.0610  202.8550  149.4840 N   0  0  0  0  0  2  0  0  0  0  0  0
  161.0650  200.6580  149.6430 C   0  0  0  0  0  1  0  0  0  0  0  0
  160.3440  201.6370  148.7380 C   0  0  2  0  0  3  0  0  0  0  0  0
  161.2050  200.9060  146.6240 O   0  0  0  0  0  0  0  0  0  0  0  0
  161.2330  201.9660  147.5500 C   0  0  1  0  0  3  0  0  0  0  0  0
  160.4200  202.0310  146.3160 C   0  0  1  0  0  3  0  0  0  0  0  0
  161.1310  202.8820  145.2820 C   0  0  0  0  0  2  0  0  0  0  0  0
  160.2890  204.1040  144.9380 C   0  0  2  0  0  3  0  0  0  0  0  0
  159.2720  203.7480  144.0470 O   0  0  0  0  0  1  0  0  0  0  0  0
  161.3050  204.9990  142.9780 F   0  0  0  0  0  0  0  0  0  0  0  0
  160.5540  206.4460  144.5390 F   0  0  0  0  0  0  0  0  0  0  0  0
  161.1480  205.2120  144.3370 C   0  0  0  0  0  0  0  0  0  0  0  0
  162.3950  205.2050  144.9340 F   0  0  0  0  0  0  0  0  0  0  0  0
  2  1  1  6  0  0  0
  2  3  1  0  0  0  0
  2 26  1  0  0  0  0
  4  3  1  0  0  0  0
  5 11  1  0  0  0  0
  6 15  1  6  0  0  0
  6  9  1  0  0  0  0
  6 10  1  0  0  0  0
  8 17  1  1  0  0  0
  8  7  1  0  0  0  0
  9 12  1  0  0  0  0
 10  5  1  0  0  0  0
 11  4  1  6  0  0  0
 11 14  1  0  0  0  0
 11 13  1  0  0  0  0
 12 14  1  0  0  0  0
 13  7  1  0  0  0  0
 14 16  1  1  0  0  0
 14  8  1  0  0  0  0
 17 18  1  0  0  0  0
 18 20  1  0  0  0  0
 19 17  2  0  0  0  0
 20 23  1  0  0  0  0
 20 21  1  0  0  0  0
 21 24  1  0  0  0  0
 22 24  1  0  0  0  0
 23 22  1  0  0  0  0
 25 20  1  0  0  0  0
 26 28  1  1  0  0  0
 28 29  1  0  0  0  0
 28 30  2  0  0  0  0
 30 27  2  0  0  0  0
 31 33  2  0  0  0  0
 31 26  1  0  0  0  0
 31 34  1  0  0  0  0
 32 31  2  0  0  0  0
 34 37  1  0  0  0  0
 35 36  1  0  0  0  0
 37 35  2  0  0  0  0
 38 37  1  0  0  0  0
 40 38  1  0  0  0  0
 40 39  1  1  0  0  0
 41 42  1  0  0  0  0
 42 40  1  1  0  0  0
 43 44  1  6  0  0  0
 43 41  1  0  0  0  0
 43 42  1  0  0  0  0
 45 46  1  6  0  0  0
 45 44  1  0  0  0  0
 47 49  1  0  0  0  0
 49 48  1  0  0  0  0
 49 50  1  0  0  0  0
 49 45  1  0  0  0  0
M  END
>  <MODEL>
5

>  <REMARK>
 VINA RESULT:      -3.6      3.246      9.555
  Name = 
  16 active torsions:
  status: ('A' for Active; 'I' for Inactive)
    1  A    between atoms: C_2  and  C_8
    2  A    between atoms: S_7  and  C_17
    3  A    between atoms: S_7  and  C_48
    4  A    between atoms: N_9  and  C_12
    5  A    between atoms: C_10  and  C_20
    6  A    between atoms: C_10  and  O_23
    7  A    between atoms: C_14  and  C_38
    8  A    between atoms: C_15  and  C_17
    9  A    between atoms: C_15  and  O_23
   10  A    between atoms: C_17  and  C_34
   11  A    between atoms: C_18  and  C_29
   12  A    between atoms: C_18  and  C_44
   13  A    between atoms: C_29  and  C_45
   14  A    between atoms: C_38  and  N_40
   15  A    between atoms: N_40  and  C_42
   16  A    between atoms: C_42  and  C_48
                            x       y       z     vdW  Elec       q    Type
                         _______ _______ _______ _____ _____    ______ ____

>  <TORSDO>
F 16

$$$$
=
 OpenBabel11072410383D

 50 53  0  0  1  0  0  0  0  0999 V2000
  161.9260  206.1610  153.7080 O   0  0  0  0  0  1  0  0  0  0  0  0
  162.1950  207.5160  153.5010 C   0  0  1  0  0  3  0  0  0  0  0  0
  162.2740  207.7600  152.1290 O   0  0  0  0  0  0  0  0  0  0  0  0
  162.2050  206.4910  151.5420 C   0  0  0  0  0  2  0  0  0  0  0  0
  160.1500  207.6630  150.6810 C   0  0  0  0  0  2  0  0  0  0  0  0
  162.0540  208.9560  149.5680 C   0  0  2  0  0  3  0  0  0  0  0  0
  160.6210  203.9650  150.3110 C   0  0  0  0  0  2  0  0  0  0  0  0
  161.6340  204.4630  149.2910 C   0  0  2  0  0  3  0  0  0  0  0  0
  162.5240  208.1420  148.3690 C   0  0  0  0  0  2  0  0  0  0  0  0
  160.5500  208.7930  149.7250 C   0  0  0  0  0  2  0  0  0  0  0  0
  160.9900  206.3710  150.6040 C   0  0  2  0  0  0  0  0  0  0  0  0
  162.7040  206.6600  148.7000 C   0  0  0  0  0  2  0  0  0  0  0  0
  160.1480  205.1930  151.0800 C   0  0  0  0  0  2  0  0  0  0  0  0
  161.4120  205.9690  149.1700 C   0  0  1  0  0  0  0  0  0  0  0  0
  162.3440  210.3010  149.3450 O   0  0  0  0  0  1  0  0  0  0  0  0
  160.3750  206.2250  148.2610 O   0  0  0  0  0  1  0  0  0  0  0  0
  161.5620  203.7090  147.9970 C   0  0  0  0  0  0  0  0  0  0  0  0
  161.4960  204.4160  146.7490 N   0  0  0  0  0  2  0  0  0  0  0  0
  161.5840  202.4490  148.0190 O   0  0  0  0  0  0  0  0  0  0  0  0
  161.4540  203.7830  145.4350 C   0  0  0  0  0  0  0  0  0  0  0  0
  160.3100  204.3490  144.6030 C   0  0  0  0  0  2  0  0  0  0  0  0
  159.7120  202.1090  145.2610 C   0  0  0  0  0  2  0  0  0  0  0  0
  161.1720  202.3010  145.6040 C   0  0  0  0  0  2  0  0  0  0  0  0
  159.4010  203.1900  144.2520 C   0  0  0  0  0  2  0  0  0  0  0  0
  162.7780  203.9620  144.7130 C   0  0  0  0  0  1  0  0  0  0  0  0
  161.0910  208.3720  154.1380 C   0  0  1  0  0  3  0  0  0  0  0  0
  158.6030  206.8320  156.1820 O   0  0  0  0  0  0  0  0  0  0  0  0
  160.8020  207.9470  155.5500 C   0  0  0  0  0  0  0  0  0  0  0  0
  161.8280  208.1790  156.5980 C   0  0  0  0  0  1  0  0  0  0  0  0
  159.6730  207.3750  155.8760 C   0  0  0  0  0  0  0  0  0  0  0  0
  161.4730  210.1240  154.0560 S   0  0  0  0  0  0  0  0  0  0  0  0
  162.9640  210.3070  154.0140 O   0  0  0  0  0  0  0  0  0  0  0  0
  160.9180  210.8230  155.2660 O   0  0  0  0  0  0  0  0  0  0  0  0
  160.7590  210.8330  152.5830 C   0  0  0  0  0  2  0  0  0  0  0  0
  158.7880  211.0110  153.9760 C   0  0  0  0  0  3  0  0  0  0  0  0
  157.4120  211.4250  154.3760 C   0  0  0  0  0  1  0  0  0  0  0  0
  159.4280  211.4310  152.8800 C   0  0  0  0  0  0  0  0  0  0  0  0
  158.8670  212.3520  151.9320 N   0  0  0  0  0  2  0  0  0  0  0  0
  157.7500  214.4500  152.3940 C   0  0  0  0  0  1  0  0  0  0  0  0
  159.0440  213.7980  151.9500 C   0  0  2  0  0  3  0  0  0  0  0  0
  160.6010  213.6910  150.1310 O   0  0  0  0  0  0  0  0  0  0  0  0
  159.3940  214.2810  150.5520 C   0  0  1  0  0  3  0  0  0  0  0  0
  159.4160  213.1380  149.6150 C   0  0  1  0  0  3  0  0  0  0  0  0
  159.1940  213.6360  148.1990 C   0  0  0  0  0  2  0  0  0  0  0  0
  159.6680  212.5940  147.1960 C   0  0  2  0  0  3  0  0  0  0  0  0
  161.0230  212.7890  146.9080 O   0  0  0  0  0  1  0  0  0  0  0  0
  157.5760  212.1540  146.1430 F   0  0  0  0  0  0  0  0  0  0  0  0
  158.7470  213.9610  145.4630 F   0  0  0  0  0  0  0  0  0  0  0  0
  158.8470  212.6540  145.9110 C   0  0  0  0  0  0  0  0  0  0  0  0
  159.4550  211.8850  144.9370 F   0  0  0  0  0  0  0  0  0  0  0  0
  2  1  1  6  0  0  0
  2 26  1  0  0  0  0
  3  2  1  0  0  0  0
  4  3  1  0  0  0  0
  6 15  1  6  0  0  0
  6 10  1  0  0  0  0
  7 13  1  0  0  0  0
  8 17  1  6  0  0  0
  8  7  1  0  0  0  0
  9 12  1  0  0  0  0
  9  6  1  0  0  0  0
 10  5  1  0  0  0  0
 11  5  1  0  0  0  0
 11 13  1  0  0  0  0
 11  4  1  1  0  0  0
 12 14  1  0  0  0  0
 14 16  1  6  0  0  0
 14  8  1  0  0  0  0
 14 11  1  0  0  0  0
 17 19  2  0  0  0  0
 18 17  1  0  0  0  0
 20 23  1  0  0  0  0
 20 18  1  0  0  0  0
 21 20  1  0  0  0  0
 22 23  1  0  0  0  0
 24 21  1  0  0  0  0
 24 22  1  0  0  0  0
 25 20  1  0  0  0  0
 26 28  1  1  0  0  0
 28 30  2  0  0  0  0
 28 29  1  0  0  0  0
 30 27  2  0  0  0  0
 31 26  1  0  0  0  0
 31 33  2  0  0  0  0
 32 31  2  0  0  0  0
 34 37  1  0  0  0  0
 34 31  1  0  0  0  0
 35 36  1  0  0  0  0
 37 35  2  0  0  0  0
 38 40  1  0  0  0  0
 38 37  1  0  0  0  0
 40 39  1  6  0  0  0
 41 42  1  0  0  0  0
 42 40  1  1  0  0  0
 43 44  1  6  0  0  0
 43 41  1  0  0  0  0
 43 42  1  0  0  0  0
 45 46  1  6  0  0  0
 45 44  1  0  0  0  0
 48 49  1  0  0  0  0
 49 47  1  0  0  0  0
 49 45  1  0  0  0  0
 50 49  1  0  0  0  0
M  END
>  <MODEL>
6

>  <REMARK>
 VINA RESULT:      -3.3      1.814      2.991
  Name = 
  16 active torsions:
  status: ('A' for Active; 'I' for Inactive)
    1  A    between atoms: C_2  and  C_8
    2  A    between atoms: S_7  and  C_17
    3  A    between atoms: S_7  and  C_48
    4  A    between atoms: N_9  and  C_12
    5  A    between atoms: C_10  and  C_20
    6  A    between atoms: C_10  and  O_23
    7  A    between atoms: C_14  and  C_38
    8  A    between atoms: C_15  and  C_17
    9  A    between atoms: C_15  and  O_23
   10  A    between atoms: C_17  and  C_34
   11  A    between atoms: C_18  and  C_29
   12  A    between atoms: C_18  and  C_44
   13  A    between atoms: C_29  and  C_45
   14  A    between atoms: C_38  and  N_40
   15  A    between atoms: N_40  and  C_42
   16  A    between atoms: C_42  and  C_48
                            x       y       z     vdW  Elec       q    Type
                         _______ _______ _______ _____ _____    ______ ____

>  <TORSDO>
F 16

$$$$
=
 OpenBabel11072410383D

 50 53  0  0  1  0  0  0  0  0999 V2000
  160.9110  208.1080  147.2320 O   0  0  0  0  0  1  0  0  0  0  0  0
  162.0980  208.1620  147.9670 C   0  0  1  0  0  3  0  0  0  0  0  0
  161.9980  209.1770  148.9200 O   0  0  0  0  0  0  0  0  0  0  0  0
  161.5110  210.2800  148.2090 C   0  0  0  0  0  2  0  0  0  0  0  0
  163.1520  212.1790  148.0260 C   0  0  0  0  0  2  0  0  0  0  0  0
  161.5740  212.5940  146.0580 C   0  0  2  0  0  3  0  0  0  0  0  0
  161.2430  211.5110  151.1790 C   0  0  0  0  0  2  0  0  0  0  0  0
  160.1260  212.0660  150.3080 C   0  0  2  0  0  3  0  0  0  0  0  0
  160.3200  213.2640  146.6050 C   0  0  0  0  0  2  0  0  0  0  0  0
  162.7850  213.0800  146.8410 C   0  0  0  0  0  2  0  0  0  0  0  0
  161.9750  211.6050  148.8410 C   0  0  2  0  0  0  0  0  0  0  0  0
  159.7960  212.5810  147.8690 C   0  0  0  0  0  2  0  0  0  0  0  0
  162.4430  211.3070  150.2610 C   0  0  0  0  0  2  0  0  0  0  0  0
  160.7960  212.5880  149.0380 C   0  0  1  0  0  0  0  0  0  0  0  0
  161.7290  212.9480  144.7180 O   0  0  0  0  0  1  0  0  0  0  0  0
  161.2710  213.8910  149.2540 O   0  0  0  0  0  1  0  0  0  0  0  0
  159.2780  213.0680  151.0320 C   0  0  0  0  0  0  0  0  0  0  0  0
  158.4010  212.6470  152.0870 N   0  0  0  0  0  2  0  0  0  0  0  0
  159.3640  214.2850  150.7170 O   0  0  0  0  0  0  0  0  0  0  0  0
  157.5570  213.5410  152.8740 C   0  0  0  0  0  0  0  0  0  0  0  0
  158.4100  214.4530  153.7460 C   0  0  0  0  0  2  0  0  0  0  0  0
  157.3470  212.8350  155.1810 C   0  0  0  0  0  2  0  0  0  0  0  0
  156.7020  212.7160  153.8180 C   0  0  0  0  0  2  0  0  0  0  0  0
  158.0120  214.1910  155.1840 C   0  0  0  0  0  2  0  0  0  0  0  0
  156.6550  214.3600  151.9680 C   0  0  0  0  0  1  0  0  0  0  0  0
  162.3550  206.8090  148.6460 C   0  0  1  0  0  3  0  0  0  0  0  0
  162.3200  206.9690  152.2110 O   0  0  0  0  0  0  0  0  0  0  0  0
  161.4670  206.6080  149.8410 C   0  0  0  0  0  0  0  0  0  0  0  0
  160.0550  206.1960  149.6300 C   0  0  0  0  0  1  0  0  0  0  0  0
  161.9040  206.7920  151.0590 C   0  0  0  0  0  0  0  0  0  0  0  0
  162.2040  205.4420  147.4920 S   0  0  0  0  0  0  0  0  0  0  0  0
  161.9870  204.1670  148.2580 O   0  0  0  0  0  0  0  0  0  0  0  0
  163.4590  205.3260  146.6730 O   0  0  0  0  0  0  0  0  0  0  0  0
  160.8120  205.7120  146.4080 C   0  0  0  0  0  2  0  0  0  0  0  0
  161.3570  206.1370  144.0880 C   0  0  0  0  0  3  0  0  0  0  0  0
  161.5810  205.8360  142.6450 C   0  0  0  0  0  1  0  0  0  0  0  0
  161.1150  205.2230  145.0350 C   0  0  0  0  0  0  0  0  0  0  0  0
  161.0410  203.8120  144.7800 N   0  0  0  0  0  2  0  0  0  0  0  0
  158.7070  204.0690  144.1920 C   0  0  0  0  0  1  0  0  0  0  0  0
  159.8710  203.1020  144.2830 C   0  0  2  0  0  3  0  0  0  0  0  0
  160.3610  200.8760  145.0200 O   0  0  0  0  0  0  0  0  0  0  0  0
  159.5150  201.9790  145.2420 C   0  0  1  0  0  3  0  0  0  0  0  0
  160.6640  201.6890  146.1270 C   0  0  1  0  0  3  0  0  0  0  0  0
  160.1720  201.0250  147.3990 C   0  0  0  0  0  2  0  0  0  0  0  0
  161.1440  201.2930  148.5400 C   0  0  2  0  0  3  0  0  0  0  0  0
  162.0650  200.2450  148.6390 O   0  0  0  0  0  1  0  0  0  0  0  0
  161.0580  200.7660  150.8620 F   0  0  0  0  0  0  0  0  0  0  0  0
  160.3440  202.8060  150.2110 F   0  0  0  0  0  0  0  0  0  0  0  0
  160.4040  201.4660  149.8630 C   0  0  0  0  0  0  0  0  0  0  0  0
  159.1200  200.9700  149.7420 F   0  0  0  0  0  0  0  0  0  0  0  0
  2  1  1  1  0  0  0
  2 26  1  0  0  0  0
  2  3  1  0  0  0  0
  4  3  1  0  0  0  0
  5 11  1  0  0  0  0
  6 15  1  6  0  0  0
  6  9  1  0  0  0  0
  6 10  1  0  0  0  0
  8 17  1  1  0  0  0
  8  7  1  0  0  0  0
  9 12  1  0  0  0  0
 10  5  1  0  0  0  0
 11  4  1  6  0  0  0
 11 14  1  0  0  0  0
 11 13  1  0  0  0  0
 12 14  1  0  0  0  0
 13  7  1  0  0  0  0
 14 16  1  1  0  0  0
 14  8  1  0  0  0  0
 17 18  1  0  0  0  0
 18 20  1  0  0  0  0
 19 17  2  0  0  0  0
 20 21  1  0  0  0  0
 20 23  1  0  0  0  0
 21 24  1  0  0  0  0
 22 24  1  0  0  0  0
 23 22  1  0  0  0  0
 25 20  1  0  0  0  0
 26 28  1  1  0  0  0
 28 30  2  0  0  0  0
 29 28  1  0  0  0  0
 30 27  2  0  0  0  0
 31 32  2  0  0  0  0
 31 26  1  0  0  0  0
 33 31  2  0  0  0  0
 34 31  1  0  0  0  0
 35 37  2  0  0  0  0
 36 35  1  0  0  0  0
 37 34  1  0  0  0  0
 38 37  1  0  0  0  0
 40 39  1  1  0  0  0
 40 38  1  0  0  0  0
 41 42  1  0  0  0  0
 41 43  1  0  0  0  0
 42 40  1  6  0  0  0
 42 43  1  0  0  0  0
 43 44  1  1  0  0  0
 44 45  1  0  0  0  0
 45 46  1  1  0  0  0
 45 49  1  0  0  0  0
 49 48  1  0  0  0  0
 49 47  1  0  0  0  0
 50 49  1  0  0  0  0
M  END
>  <MODEL>
7

>  <REMARK>
 VINA RESULT:      -3.1      3.948     10.361
  Name = 
  16 active torsions:
  status: ('A' for Active; 'I' for Inactive)
    1  A    between atoms: C_2  and  C_8
    2  A    between atoms: S_7  and  C_17
    3  A    between atoms: S_7  and  C_48
    4  A    between atoms: N_9  and  C_12
    5  A    between atoms: C_10  and  C_20
    6  A    between atoms: C_10  and  O_23
    7  A    between atoms: C_14  and  C_38
    8  A    between atoms: C_15  and  C_17
    9  A    between atoms: C_15  and  O_23
   10  A    between atoms: C_17  and  C_34
   11  A    between atoms: C_18  and  C_29
   12  A    between atoms: C_18  and  C_44
   13  A    between atoms: C_29  and  C_45
   14  A    between atoms: C_38  and  N_40
   15  A    between atoms: N_40  and  C_42
   16  A    between atoms: C_42  and  C_48
                            x       y       z     vdW  Elec       q    Type
                         _______ _______ _______ _____ _____    ______ ____

>  <TORSDO>
F 16

$$$$
=
 OpenBabel11072410383D

 50 53  0  0  1  0  0  0  0  0999 V2000
  162.3290  206.1030  153.6810 O   0  0  0  0  0  1  0  0  0  0  0  0
  162.2490  207.4410  153.2890 C   0  0  1  0  0  3  0  0  0  0  0  0
  162.3700  207.5160  151.8990 O   0  0  0  0  0  0  0  0  0  0  0  0
  162.3240  206.1850  151.4700 C   0  0  0  0  0  2  0  0  0  0  0  0
  160.3730  207.2130  150.2580 C   0  0  0  0  0  2  0  0  0  0  0  0
  162.3240  207.6290  148.6580 C   0  0  2  0  0  3  0  0  0  0  0  0
  160.3190  203.6590  151.4390 C   0  0  0  0  0  2  0  0  0  0  0  0
  161.2930  203.5350  150.2770 C   0  0  2  0  0  3  0  0  0  0  0  0
  162.5740  206.3370  147.8910 C   0  0  0  0  0  2  0  0  0  0  0  0
  160.8310  207.7810  148.9090 C   0  0  0  0  0  2  0  0  0  0  0  0
  161.0250  205.8880  150.6990 C   0  0  2  0  0  0  0  0  0  0  0  0
  162.5860  205.1080  148.8010 C   0  0  0  0  0  2  0  0  0  0  0  0
  160.0810  205.1510  151.6430 C   0  0  0  0  0  2  0  0  0  0  0  0
  161.2620  204.8780  149.5500 C   0  0  1  0  0  0  0  0  0  0  0  0
  162.7670  208.7060  147.8910 O   0  0  0  0  0  1  0  0  0  0  0  0
  160.1900  204.9020  148.6440 O   0  0  0  0  0  1  0  0  0  0  0  0
  161.0080  202.3440  149.4130 C   0  0  0  0  0  0  0  0  0  0  0  0
  161.0450  202.4600  147.9830 N   0  0  0  0  0  2  0  0  0  0  0  0
  160.7600  201.2360  149.9600 O   0  0  0  0  0  0  0  0  0  0  0  0
  160.8140  201.3590  147.0520 C   0  0  0  0  0  0  0  0  0  0  0  0
  161.2090  201.7620  145.6370 C   0  0  0  0  0  2  0  0  0  0  0  0
  158.8030  201.6560  145.7370 C   0  0  0  0  0  2  0  0  0  0  0  0
  159.3310  201.0420  147.0140 C   0  0  0  0  0  2  0  0  0  0  0  0
  159.9700  201.6290  144.7770 C   0  0  0  0  0  2  0  0  0  0  0  0
  161.5800  200.1220  147.4870 C   0  0  0  0  0  1  0  0  0  0  0  0
  160.9140  208.0430  153.7470 C   0  0  1  0  0  3  0  0  0  0  0  0
  162.3670  209.1510  156.8130 O   0  0  0  0  0  0  0  0  0  0  0  0
  160.7530  207.9700  155.2390 C   0  0  0  0  0  0  0  0  0  0  0  0
  159.6200  207.1950  155.8060 C   0  0  0  0  0  1  0  0  0  0  0  0
  161.5820  208.5750  156.0490 C   0  0  0  0  0  0  0  0  0  0  0  0
  160.6990  209.7250  153.1560 S   0  0  0  0  0  0  0  0  0  0  0  0
  160.7720  210.6740  154.3200 O   0  0  0  0  0  0  0  0  0  0  0  0
  159.3620  209.8610  152.4830 O   0  0  0  0  0  0  0  0  0  0  0  0
  161.9920  210.1300  151.9950 C   0  0  0  0  0  2  0  0  0  0  0  0
  161.8460  211.0940  149.7790 C   0  0  0  0  0  3  0  0  0  0  0  0
  161.5700  212.1250  148.7370 C   0  0  0  0  0  1  0  0  0  0  0  0
  161.5510  211.2170  151.0780 C   0  0  0  0  0  0  0  0  0  0  0  0
  160.9180  212.3740  151.6460 N   0  0  0  0  0  2  0  0  0  0  0  0
  159.5640  213.8550  150.2910 C   0  0  0  0  0  1  0  0  0  0  0  0
  159.5520  212.8060  151.3850 C   0  0  2  0  0  3  0  0  0  0  0  0
  157.6280  213.7950  152.4160 O   0  0  0  0  0  0  0  0  0  0  0  0
  158.9620  213.4070  152.6490 C   0  0  1  0  0  3  0  0  0  0  0  0
  157.8210  212.5880  153.1120 C   0  0  1  0  0  3  0  0  0  0  0  0
  157.6010  212.8130  154.5960 C   0  0  0  0  0  2  0  0  0  0  0  0
  156.1460  212.5470  154.9570 C   0  0  2  0  0  3  0  0  0  0  0  0
  155.5500  213.7190  155.4340 O   0  0  0  0  0  1  0  0  0  0  0  0
  154.9210  211.6580  156.7980 F   0  0  0  0  0  0  0  0  0  0  0  0
  155.9160  210.2060  155.3850 F   0  0  0  0  0  0  0  0  0  0  0  0
  156.0330  211.4400  156.0010 C   0  0  0  0  0  0  0  0  0  0  0  0
  157.1590  211.4440  156.8020 F   0  0  0  0  0  0  0  0  0  0  0  0
  2  1  1  6  0  0  0
  2 26  1  0  0  0  0
  3  2  1  0  0  0  0
  4  3  1  0  0  0  0
  5 11  1  0  0  0  0
  6 15  1  6  0  0  0
  6 10  1  0  0  0  0
  7 13  1  0  0  0  0
  8 17  1  6  0  0  0
  8  7  1  0  0  0  0
  9  6  1  0  0  0  0
  9 12  1  0  0  0  0
 10  5  1  0  0  0  0
 11  4  1  1  0  0  0
 11 13  1  0  0  0  0
 12 14  1  0  0  0  0
 14 16  1  6  0  0  0
 14  8  1  0  0  0  0
 14 11  1  0  0  0  0
 17 19  2  0  0  0  0
 18 17  1  0  0  0  0
 20 25  1  0  0  0  0
 20 18  1  0  0  0  0
 21 20  1  0  0  0  0
 22 23  1  0  0  0  0
 23 20  1  0  0  0  0
 24 21  1  0  0  0  0
 24 22  1  0  0  0  0
 26 28  1  1  0  0  0
 28 29  1  0  0  0  0
 28 30  2  0  0  0  0
 30 27  2  0  0  0  0
 31 26  1  0  0  0  0
 31 32  2  0  0  0  0
 33 31  2  0  0  0  0
 34 31  1  0  0  0  0
 35 37  2  0  0  0  0
 36 35  1  0  0  0  0
 37 38  1  0  0  0  0
 37 34  1  0  0  0  0
 40 39  1  6  0  0  0
 40 38  1  0  0  0  0
 41 42  1  0  0  0  0
 41 43  1  0  0  0  0
 42 40  1  6  0  0  0
 42 43  1  0  0  0  0
 43 44  1  1  0  0  0
 44 45  1  0  0  0  0
 45 46  1  1  0  0  0
 45 49  1  0  0  0  0
 48 49  1  0  0  0  0
 49 47  1  0  0  0  0
 49 50  1  0  0  0  0
M  END
>  <MODEL>
8

>  <REMARK>
 VINA RESULT:      -3.0      3.351      5.237
  Name = 
  16 active torsions:
  status: ('A' for Active; 'I' for Inactive)
    1  A    between atoms: C_2  and  C_8
    2  A    between atoms: S_7  and  C_17
    3  A    between atoms: S_7  and  C_48
    4  A    between atoms: N_9  and  C_12
    5  A    between atoms: C_10  and  C_20
    6  A    between atoms: C_10  and  O_23
    7  A    between atoms: C_14  and  C_38
    8  A    between atoms: C_15  and  C_17
    9  A    between atoms: C_15  and  O_23
   10  A    between atoms: C_17  and  C_34
   11  A    between atoms: C_18  and  C_29
   12  A    between atoms: C_18  and  C_44
   13  A    between atoms: C_29  and  C_45
   14  A    between atoms: C_38  and  N_40
   15  A    between atoms: N_40  and  C_42
   16  A    between atoms: C_42  and  C_48
                            x       y       z     vdW  Elec       q    Type
                         _______ _______ _______ _____ _____    ______ ____

>  <TORSDO>
F 16

$$$$
