=
 OpenBabel11072411483D

 53 60  0  0  1  0  0  0  0  0999 V2000
  161.9540  205.9780  147.7470 N   0  0  0  0  0  0  0  0  0  0  0  0
  160.3250  203.9490  150.5770 C   0  0  0  0  0  2  0  0  0  0  0  0
  161.8990  204.7820  148.5830 C   0  0  1  0  0  3  0  0  0  0  0  0
  161.2360  206.6900  149.9970 C   0  0  1  0  0  3  0  0  0  0  0  0
  161.5890  207.1740  148.5840 C   0  0  1  0  0  3  0  0  0  0  0  0
  161.4010  204.6200  151.4010 C   0  0  0  0  0  2  0  0  0  0  0  0
  161.1270  205.1480  149.9010 C   0  0  0  0  0  0  0  0  0  0  0  0
  160.9150  205.7420  146.2240 S   0  0  0  0  0  3  0  0  0  0  0  0
  160.5060  207.1020  145.7970 O   0  0  0  0  0  1  0  0  0  0  0  0
  161.9980  205.4350  144.9110 O   0  0  0  0  0  1  0  0  0  0  0  0
  161.2390  202.5760  147.2760 N   0  0  0  0  0  0  0  0  0  0  0  0
  161.5150  203.5510  147.8830 C   0  0  0  0  0  0  0  0  0  0  0  0
  162.0150  207.1110  151.0470 O   0  0  0  0  0  0  0  0  0  0  0  0
  161.3660  208.0790  151.8930 C   0  0  0  0  0  2  0  0  0  0  0  0
  161.9410  209.4850  151.8380 C   0  0  0  0  0  2  0  0  0  0  0  0
  161.8920  210.0270  153.1830 O   0  0  0  0  0  0  0  0  0  0  0  0
  159.2570  214.0520  154.5330 C   0  0  0  0  0  2  0  0  0  0  0  0
  155.6040  213.7070  153.9200 P   0  0  1  0  0  0  0  0  0  0  0  0
  157.9960  211.3090  154.4830 C   0  0  1  0  0  3  0  0  0  0  0  0
  158.6470  213.5620  153.2360 C   0  0  1  0  0  3  0  0  0  0  0  0
  160.4540  211.2490  154.6970 C   0  0  2  0  0  3  0  0  0  0  0  0
  154.2320  214.0170  153.3490 O   0  0  0  0  0  0  0  0  0  0  0  0
  155.7740  212.0790  153.9980 O   0  0  0  0  0  0  0  0  0  0  0  0
  158.5640  212.0020  153.2240 C   0  0  1  0  0  3  0  0  0  0  0  0
  159.2050  213.0550  155.7440 C   0  0  0  0  0  2  0  0  0  0  0  0
  159.1920  211.5000  155.4610 C   0  0  1  0  0  0  0  0  0  0  0  0
  156.6740  211.9640  155.0710 C   0  0  1  0  0  3  0  0  0  0  0  0
  157.1360  214.4480  152.6440 S   0  0  0  0  0  0  0  0  0  0  0  0
  155.6480  214.3780  155.4520 O   0  0  0  0  0  1  0  0  0  0  0  0
  160.0850  211.7450  153.2390 C   0  0  2  0  0  3  0  0  0  0  0  0
  160.5000  210.2900  153.5030 C   0  0  1  0  0  3  0  0  0  0  0  0
  156.0840  211.1240  156.1930 C   0  0  0  0  0  2  0  0  0  0  0  0
  154.8890  210.5370  155.8820 F   0  0  0  0  0  0  0  0  0  0  0  0
  159.1130  210.5710  156.4550 O   0  0  0  0  0  0  0  0  0  0  0  0
  161.2680  209.9310  157.2410 C   0  0  0  0  0  1  0  0  0  0  0  0
  159.6650  208.1890  156.4490 C   0  0  0  0  0  1  0  0  0  0  0  0
  160.1370  209.5930  156.2910 C   0  0  0  0  0  3  0  0  0  0  0  0
  162.4850  208.3640  148.4370 C   0  0  0  0  0  2  0  0  0  0  0  0
  161.7310  209.7650  148.3750 C   0  0  0  0  0  2  0  0  0  0  0  0
  162.5250  211.1410  148.6280 S   0  0  0  0  0  0  0  0  0  0  0  0
  159.2670  214.1810  146.7650 C   0  0  0  0  0  2  0  0  0  0  0  0
  162.5590  213.3370  144.5870 S   0  0  0  0  0  0  0  0  0  0  0  0
  159.1540  213.3550  149.1220 C   0  0  0  0  0  3  0  0  0  0  0  0
  160.4320  212.9670  149.2880 C   0  0  0  0  0  3  0  0  0  0  0  0
  161.0430  214.3410  145.0320 C   0  0  0  0  0  2  0  0  0  0  0  0
  161.5290  213.0760  147.0180 C   0  0  0  0  0  0  0  0  0  0  0  0
  162.6150  212.7860  146.2490 O   0  0  0  0  0  0  0  0  0  0  0  0
  158.4510  213.4780  147.7530 C   0  0  1  0  0  3  0  0  0  0  0  0
  160.5780  214.0140  146.3940 C   0  0  0  0  0  0  0  0  0  0  0  0
  161.4430  212.5350  148.2640 C   0  0  2  0  0  3  0  0  0  0  0  0
  157.0660  214.0710  147.8730 N   0  0  0  0  0  0  0  0  0  0  0  0
  156.2400  214.2180  146.7800 O   0  0  0  0  0  0  0  0  0  0  0  0
  156.6070  214.3490  149.0240 O   0  0  0  0  0  0  0  0  0  0  0  0
  1  3  1  0  0  0  0
  1  5  1  0  0  0  0
  2  6  1  0  0  0  0
  3 12  1  6  0  0  0
  3  7  1  0  0  0  0
  4 13  1  1  0  0  0
  5 38  1  1  0  0  0
  5  4  1  0  0  0  0
  7  4  1  0  0  0  0
  7  2  1  0  0  0  0
  7  6  1  0  0  0  0
  8  1  1  0  0  0  0
  9  8  1  0  0  0  0
 10  8  1  0  0  0  0
 11 12  3  0  0  0  0
 13 14  1  0  0  0  0
 15 14  1  0  0  0  0
 15 16  1  0  0  0  0
 16 31  1  0  0  0  0
 17 25  1  0  0  0  0
 18 22  2  6  0  0  0
 18 23  1  0  0  0  0
 18 29  1  0  0  0  0
 19 27  1  0  0  0  0
 19 26  1  0  0  0  0
 20 17  1  0  0  0  0
 21 26  1  0  0  0  0
 23 27  1  0  0  0  0
 24 20  1  0  0  0  0
 24 30  1  0  0  0  0
 24 19  1  0  0  0  0
 26 25  1  0  0  0  0
 26 34  1  0  0  0  0
 27 32  1  0  0  0  0
 28 20  1  0  0  0  0
 28 18  1  0  0  0  0
 30 31  1  0  0  0  0
 30 21  1  0  0  0  0
 31 21  1  0  0  0  0
 33 32  1  0  0  0  0
 37 36  1  0  0  0  0
 37 34  1  0  0  0  0
 37 35  1  0  0  0  0
 39 38  1  0  0  0  0
 39 40  1  0  0  0  0
 41 48  1  0  0  0  0
 42 45  1  0  0  0  0
 42 47  1  0  0  0  0
 43 44  2  0  0  0  0
 45 49  1  0  0  0  0
 46 50  1  0  0  0  0
 47 46  1  0  0  0  0
 48 51  1  0  0  0  0
 48 43  1  0  0  0  0
 49 41  1  0  0  0  0
 49 46  2  0  0  0  0
 50 40  1  0  0  0  0
 50 44  1  0  0  0  0
 51 53  2  0  0  0  0
 52 51  2  0  0  0  0
M  END
>  <MODEL>
1

>  <REMARK>
 VINA RESULT:      -7.1      0.000      0.000
  Name = 
  14 active torsions:
  status: ('A' for Active; 'I' for Inactive)
    1  A    between atoms: C_1  and  C_4
    2  A    between atoms: S_2  and  N_5
    3  A    between atoms: O_3  and  C_17
    4  A    between atoms: O_3  and  C_23
    5  A    between atoms: C_4  and  C_30
    6  A    between atoms: C_10  and  C_52
    7  A    between atoms: N_15  and  C_45
    8  A    between atoms: S_16  and  C_51
    9  A    between atoms: C_21  and  C_32
   10  A    between atoms: C_23  and  C_36
   11  A    between atoms: O_27  and  C_31
   12  A    between atoms: O_27  and  C_50
   13  A    between atoms: C_36  and  O_53
   14  A    between atoms: C_44  and  O_53
                            x       y       z     vdW  Elec       q    Type
                         _______ _______ _______ _____ _____    ______ ____

>  <TORSDO>
F 14

$$$$
