=
 OpenBabel11072413033D

 37 40  0  0  1  0  0  0  0  0999 V2000
  161.9460  209.2950  155.5590 N   0  0  0  0  0  0  0  0  0  0  0  0
  161.0280  211.5130  155.9930 C   0  0  0  0  0  0  0  0  0  0  0  0
  160.8370  209.3940  154.7650 C   0  0  0  0  0  0  0  0  0  0  0  0
  162.1210  210.4820  156.4350 C   0  0  0  0  0  2  0  0  0  0  0  0
  160.4930  208.3510  153.8630 N   0  0  0  0  0  2  0  0  0  0  0  0
  160.2970  210.8620  154.8040 C   0  0  1  0  0  3  0  0  0  0  0  0
  160.5550  212.5080  156.5590 O   0  0  0  0  0  0  0  0  0  0  0  0
  157.7320  210.7680  155.2800 C   0  0  0  0  0  3  0  0  0  0  0  0
  155.1080  210.3260  155.6550 C   0  0  0  0  0  1  0  0  0  0  0  0
  158.4170  212.6300  153.9860 C   0  0  0  0  0  0  0  0  0  0  0  0
  158.8280  211.3540  154.5640 C   0  0  0  0  0  0  0  0  0  0  0  0
  156.3160  211.0750  155.1460 C   0  0  0  0  0  0  0  0  0  0  0  0
  156.0620  212.3310  154.5590 C   0  0  0  0  0  3  0  0  0  0  0  0
  157.0970  213.0890  154.0650 C   0  0  0  0  0  3  0  0  0  0  0  0
  159.5480  213.3860  152.8510 S   0  0  0  0  0  0  0  0  0  0  0  0
  158.5480  212.9330  151.4640 C   0  0  1  0  0  3  0  0  0  0  0  0
  155.1030  214.4530  150.6870 C   0  0  0  0  0  1  0  0  0  0  0  0
  156.3850  213.5000  150.7360 C   0  0  1  0  0  3  0  0  0  0  0  0
  157.2720  213.8720  149.7730 O   0  0  0  0  0  0  0  0  0  0  0  0
  157.6880  214.0960  151.0900 C   0  0  2  0  0  3  0  0  0  0  0  0
  160.3540  213.2930  149.6080 C   0  0  0  0  0  0  0  0  0  0  0  0
  159.9390  214.4440  149.2880 N   0  0  0  0  0  2  0  0  0  0  0  0
  161.6010  212.7610  149.0020 C   0  0  0  0  0  1  0  0  0  0  0  0
  159.5660  212.5230  150.5740 N   0  0  0  0  0  2  0  0  0  0  0  0
  161.4100  207.8640  152.7130 C   0  0  1  0  0  3  0  0  0  0  0  0
  161.1360  206.6370  150.5980 C   0  0  0  0  0  3  0  0  0  0  0  0
  160.8300  204.0060  152.2370 C   0  0  0  0  0  3  0  0  0  0  0  0
  161.0910  206.5290  151.9890 C   0  0  1  0  0  3  0  0  0  0  0  0
  160.7940  205.2780  152.7190 C   0  0  0  0  0  3  0  0  0  0  0  0
  161.1460  203.4840  150.8530 C   0  0  0  0  0  0  0  0  0  0  0  0
  161.1390  204.1960  149.7130 C   0  0  0  0  0  3  0  0  0  0  0  0
  160.7230  205.6490  149.5950 C   0  0  0  0  0  0  0  0  0  0  0  0
  161.3930  202.1260  150.7480 F   0  0  0  0  0  0  0  0  0  0  0  0
  161.5670  206.7520  147.8600 C   0  0  0  0  0  1  0  0  0  0  0  0
  160.3640  206.1060  148.2610 O   0  0  0  0  0  0  0  0  0  0  0  0
  162.0540  209.9320  151.2740 C   0  0  0  0  0  3  0  0  0  0  0  0
  161.6910  208.9870  151.8230 C   0  0  0  0  0  0  0  0  0  0  0  0
  1  4  1  0  0  0  0
  2  4  1  0  0  0  0
  2  7  2  0  0  0  0
  3  6  1  0  0  0  0
  3  1  2  0  0  0  0
  5  3  1  0  0  0  0
  6 11  1  1  0  0  0
  6  2  1  0  0  0  0
 10 14  2  0  0  0  0
 10 11  1  0  0  0  0
 11  8  2  0  0  0  0
 12  8  1  0  0  0  0
 12  9  1  0  0  0  0
 13 12  2  0  0  0  0
 14 13  1  0  0  0  0
 15 10  1  0  0  0  0
 16 24  1  6  0  0  0
 16 15  1  0  0  0  0
 18 17  1  6  0  0  0
 18 20  1  0  0  0  0
 19 18  1  0  0  0  0
 19 20  1  0  0  0  0
 20 16  1  1  0  0  0
 21 24  1  0  0  0  0
 22 21  2  0  0  0  0
 23 21  1  0  0  0  0
 25 37  1  6  0  0  0
 25  5  1  0  0  0  0
 26 28  1  0  0  0  0
 27 29  2  0  0  0  0
 28 25  1  1  0  0  0
 28 29  1  0  0  0  0
 30 27  1  0  0  0  0
 31 30  2  0  0  0  0
 32 31  1  0  0  0  0
 32 26  2  0  0  0  0
 33 30  1  0  0  0  0
 34 35  1  0  0  0  0
 35 32  1  0  0  0  0
 36 37  3  0  0  0  0
M  END
>  <MODEL>
1

>  <REMARK>
 VINA RESULT:      -6.9      0.000      0.000
  Name = 
  9 active torsions:
  status: ('A' for Active; 'I' for Inactive)
    1  A    between atoms: C_5  and  C_12
    2  A    between atoms: C_5  and  C_17
    3  A    between atoms: C_5  and  N_31
    4  A    between atoms: S_11  and  C_19
    5  A    between atoms: S_11  and  C_22
    6  A    between atoms: C_20  and  C_35
    7  A    between atoms: C_22  and  C_28
    8  A    between atoms: C_22  and  N_32
    9  A    between atoms: O_25  and  C_27
                            x       y       z     vdW  Elec       q    Type
                         _______ _______ _______ _____ _____    ______ ____

>  <TORSDO>
F 9

$$$$
=
 OpenBabel11072413033D

 37 40  0  0  1  0  0  0  0  0999 V2000
  161.5040  208.7480  154.1450 N   0  0  0  0  0  0  0  0  0  0  0  0
  161.1730  211.0690  154.8210 C   0  0  0  0  0  0  0  0  0  0  0  0
  160.7640  209.3180  153.1460 C   0  0  0  0  0  0  0  0  0  0  0  0
  161.7390  209.6810  155.2770 C   0  0  0  0  0  2  0  0  0  0  0  0
  160.4250  208.5800  151.9800 N   0  0  0  0  0  2  0  0  0  0  0  0
  160.6810  210.8640  153.3750 C   0  0  1  0  0  3  0  0  0  0  0  0
  160.8570  212.0820  155.4600 O   0  0  0  0  0  0  0  0  0  0  0  0
  158.5010  212.2390  153.7870 C   0  0  0  0  0  3  0  0  0  0  0  0
  156.0950  213.3340  154.2750 C   0  0  0  0  0  1  0  0  0  0  0  0
  159.6270  212.7750  151.7730 C   0  0  0  0  0  0  0  0  0  0  0  0
  159.5590  211.8490  152.9000 C   0  0  0  0  0  0  0  0  0  0  0  0
  157.3670  213.1030  153.4930 C   0  0  0  0  0  0  0  0  0  0  0  0
  157.5630  213.9340  152.3710 C   0  0  0  0  0  3  0  0  0  0  0  0
  158.6900  213.7990  151.5960 C   0  0  0  0  0  3  0  0  0  0  0  0
  160.6990  212.3190  150.4380 S   0  0  0  0  0  0  0  0  0  0  0  0
  160.1130  213.6550  149.4370 C   0  0  1  0  0  3  0  0  0  0  0  0
  162.4130  214.4500  146.4590 C   0  0  0  0  0  1  0  0  0  0  0  0
  161.5150  213.7010  147.5490 C   0  0  1  0  0  3  0  0  0  0  0  0
  162.2720  213.3910  148.6360 O   0  0  0  0  0  0  0  0  0  0  0  0
  161.2890  214.3650  148.8470 C   0  0  2  0  0  3  0  0  0  0  0  0
  157.9440  213.2960  148.0210 C   0  0  0  0  0  0  0  0  0  0  0  0
  157.3230  214.2640  148.5450 N   0  0  0  0  0  2  0  0  0  0  0  0
  157.3410  212.5590  146.8820 C   0  0  0  0  0  1  0  0  0  0  0  0
  159.2500  212.9360  148.5800 N   0  0  0  0  0  2  0  0  0  0  0  0
  161.4660  207.9680  151.0100 C   0  0  1  0  0  3  0  0  0  0  0  0
  161.2060  206.7550  148.8850 C   0  0  0  0  0  3  0  0  0  0  0  0
  160.8580  204.1180  150.5060 C   0  0  0  0  0  3  0  0  0  0  0  0
  161.1440  206.6400  150.2750 C   0  0  1  0  0  3  0  0  0  0  0  0
  160.8280  205.3870  150.9950 C   0  0  0  0  0  3  0  0  0  0  0  0
  161.1860  203.6000  149.1230 C   0  0  0  0  0  0  0  0  0  0  0  0
  161.1980  204.3180  147.9860 C   0  0  0  0  0  3  0  0  0  0  0  0
  160.7960  205.7760  147.8720 C   0  0  0  0  0  0  0  0  0  0  0  0
  161.4220  202.2410  149.0140 F   0  0  0  0  0  0  0  0  0  0  0  0
  161.5540  205.7400  145.7830 C   0  0  0  0  0  1  0  0  0  0  0  0
  160.4570  206.2430  146.5370 O   0  0  0  0  0  0  0  0  0  0  0  0
  162.2960  209.7610  149.3190 C   0  0  0  0  0  3  0  0  0  0  0  0
  161.9940  209.0250  150.1520 C   0  0  0  0  0  0  0  0  0  0  0  0
  1  4  1  0  0  0  0
  2  4  1  0  0  0  0
  2  7  2  0  0  0  0
  3  6  1  0  0  0  0
  3  1  2  0  0  0  0
  5  3  1  0  0  0  0
  6 11  1  1  0  0  0
  6  2  1  0  0  0  0
 10 11  1  0  0  0  0
 11  8  2  0  0  0  0
 12  8  1  0  0  0  0
 12  9  1  0  0  0  0
 13 12  2  0  0  0  0
 14 10  2  0  0  0  0
 14 13  1  0  0  0  0
 15 10  1  0  0  0  0
 16 24  1  6  0  0  0
 16 15  1  0  0  0  0
 18 17  1  6  0  0  0
 18 19  1  0  0  0  0
 18 20  1  0  0  0  0
 19 20  1  0  0  0  0
 20 16  1  1  0  0  0
 21 22  2  0  0  0  0
 21 24  1  0  0  0  0
 23 21  1  0  0  0  0
 25 37  1  6  0  0  0
 25  5  1  0  0  0  0
 26 28  1  0  0  0  0
 27 29  2  0  0  0  0
 28 29  1  0  0  0  0
 28 25  1  1  0  0  0
 30 27  1  0  0  0  0
 31 30  2  0  0  0  0
 32 31  1  0  0  0  0
 32 26  2  0  0  0  0
 33 30  1  0  0  0  0
 34 35  1  0  0  0  0
 35 32  1  0  0  0  0
 36 37  3  0  0  0  0
M  END
>  <MODEL>
2

>  <REMARK>
 VINA RESULT:      -6.4      1.917      2.951
  Name = 
  9 active torsions:
  status: ('A' for Active; 'I' for Inactive)
    1  A    between atoms: C_5  and  C_12
    2  A    between atoms: C_5  and  C_17
    3  A    between atoms: C_5  and  N_31
    4  A    between atoms: S_11  and  C_19
    5  A    between atoms: S_11  and  C_22
    6  A    between atoms: C_20  and  C_35
    7  A    between atoms: C_22  and  C_28
    8  A    between atoms: C_22  and  N_32
    9  A    between atoms: O_25  and  C_27
                            x       y       z     vdW  Elec       q    Type
                         _______ _______ _______ _____ _____    ______ ____

>  <TORSDO>
F 9

$$$$
=
 OpenBabel11072413033D

 37 40  0  0  1  0  0  0  0  0999 V2000
  162.1990  208.5200  150.3480 N   0  0  0  0  0  0  0  0  0  0  0  0
  161.3880  210.5660  151.4000 C   0  0  0  0  0  0  0  0  0  0  0  0
  161.6460  208.1270  151.5350 C   0  0  0  0  0  0  0  0  0  0  0  0
  162.1970  209.9960  150.1860 C   0  0  0  0  0  2  0  0  0  0  0  0
  161.5650  206.7500  151.8790 N   0  0  0  0  0  2  0  0  0  0  0  0
  160.9000  209.3370  152.1900 C   0  0  1  0  0  3  0  0  0  0  0  0
  161.3310  211.7000  151.8960 O   0  0  0  0  0  0  0  0  0  0  0  0
  161.6180  209.3160  154.6990 C   0  0  0  0  0  3  0  0  0  0  0  0
  162.4060  208.9360  157.2400 C   0  0  0  0  0  1  0  0  0  0  0  0
  159.5740  210.4380  154.2780 C   0  0  0  0  0  0  0  0  0  0  0  0
  160.6130  209.5830  153.7110 C   0  0  0  0  0  0  0  0  0  0  0  0
  161.5020  209.4480  156.1440 C   0  0  0  0  0  0  0  0  0  0  0  0
  160.4490  210.2910  156.5530 C   0  0  0  0  0  3  0  0  0  0  0  0
  159.5730  210.8060  155.6280 C   0  0  0  0  0  3  0  0  0  0  0  0
  158.1180  210.6700  153.2970 S   0  0  0  0  0  0  0  0  0  0  0  0
  158.3230  212.4280  153.3070 C   0  0  1  0  0  3  0  0  0  0  0  0
  159.8940  214.4520  150.4400 C   0  0  0  0  0  1  0  0  0  0  0  0
  159.3330  213.9840  151.8620 C   0  0  1  0  0  3  0  0  0  0  0  0
  158.0100  214.2860  151.9580 O   0  0  0  0  0  0  0  0  0  0  0  0
  158.3110  212.9210  151.8960 C   0  0  2  0  0  3  0  0  0  0  0  0
  157.1940  213.7270  155.2750 C   0  0  0  0  0  0  0  0  0  0  0  0
  158.2860  214.1380  155.7620 N   0  0  0  0  0  2  0  0  0  0  0  0
  155.9060  214.2040  155.8390 C   0  0  0  0  0  1  0  0  0  0  0  0
  157.2530  212.7770  154.1610 N   0  0  0  0  0  2  0  0  0  0  0  0
  160.7990  205.6930  151.0450 C   0  0  1  0  0  3  0  0  0  0  0  0
  160.9910  204.1290  149.1540 C   0  0  0  0  0  3  0  0  0  0  0  0
  161.7790  206.5280  147.3310 C   0  0  0  0  0  3  0  0  0  0  0  0
  161.1960  205.4480  149.5650 C   0  0  1  0  0  3  0  0  0  0  0  0
  161.7150  206.5220  148.6910 C   0  0  0  0  0  3  0  0  0  0  0  0
  161.3830  205.4770  146.3190 C   0  0  0  0  0  0  0  0  0  0  0  0
  161.1840  204.1700  146.5650 C   0  0  0  0  0  3  0  0  0  0  0  0
  161.4110  203.4910  147.9020 C   0  0  0  0  0  0  0  0  0  0  0  0
  161.2890  205.8930  145.0030 F   0  0  0  0  0  0  0  0  0  0  0  0
  160.8120  201.6570  149.0070 C   0  0  0  0  0  1  0  0  0  0  0  0
  161.5690  202.0450  147.8660 O   0  0  0  0  0  0  0  0  0  0  0  0
  160.7420  203.5210  152.4740 C   0  0  0  0  0  3  0  0  0  0  0  0
  160.6460  204.4800  151.8420 C   0  0  0  0  0  0  0  0  0  0  0  0
  1  3  2  0  0  0  0
  2  7  2  0  0  0  0
  2  6  1  0  0  0  0
  3  5  1  0  0  0  0
  3  6  1  0  0  0  0
  4  1  1  0  0  0  0
  4  2  1  0  0  0  0
  6 11  1  1  0  0  0
  8 12  1  0  0  0  0
 10 14  2  0  0  0  0
 11 10  1  0  0  0  0
 11  8  2  0  0  0  0
 12 13  2  0  0  0  0
 12  9  1  0  0  0  0
 14 13  1  0  0  0  0
 15 10  1  0  0  0  0
 16 15  1  6  0  0  0
 16 24  1  0  0  0  0
 18 17  1  6  0  0  0
 18 20  1  0  0  0  0
 18 19  1  0  0  0  0
 20 19  1  0  0  0  0
 20 16  1  1  0  0  0
 21 22  2  0  0  0  0
 21 23  1  0  0  0  0
 24 21  1  0  0  0  0
 25 37  1  1  0  0  0
 25  5  1  0  0  0  0
 26 28  1  0  0  0  0
 27 29  2  0  0  0  0
 28 25  1  6  0  0  0
 29 28  1  0  0  0  0
 30 31  2  0  0  0  0
 30 27  1  0  0  0  0
 31 32  1  0  0  0  0
 32 26  2  0  0  0  0
 33 30  1  0  0  0  0
 35 32  1  0  0  0  0
 35 34  1  0  0  0  0
 37 36  3  0  0  0  0
M  END
>  <MODEL>
3

>  <REMARK>
 VINA RESULT:      -6.2      2.683      4.702
  Name = 
  9 active torsions:
  status: ('A' for Active; 'I' for Inactive)
    1  A    between atoms: C_5  and  C_12
    2  A    between atoms: C_5  and  C_17
    3  A    between atoms: C_5  and  N_31
    4  A    between atoms: S_11  and  C_19
    5  A    between atoms: S_11  and  C_22
    6  A    between atoms: C_20  and  C_35
    7  A    between atoms: C_22  and  C_28
    8  A    between atoms: C_22  and  N_32
    9  A    between atoms: O_25  and  C_27
                            x       y       z     vdW  Elec       q    Type
                         _______ _______ _______ _____ _____    ______ ____

>  <TORSDO>
F 9

$$$$
=
 OpenBabel11072413033D

 37 40  0  0  1  0  0  0  0  0999 V2000
  162.2350  208.1780  150.4690 N   0  0  0  0  0  0  0  0  0  0  0  0
  161.3450  210.1730  151.5550 C   0  0  0  0  0  0  0  0  0  0  0  0
  161.5670  207.7260  151.5730 C   0  0  0  0  0  0  0  0  0  0  0  0
  162.2620  209.6610  150.3920 C   0  0  0  0  0  2  0  0  0  0  0  0
  161.4420  206.3340  151.8280 N   0  0  0  0  0  2  0  0  0  0  0  0
  160.7730  208.9080  152.2220 C   0  0  1  0  0  3  0  0  0  0  0  0
  161.2510  211.2780  152.1070 O   0  0  0  0  0  0  0  0  0  0  0  0
  160.9760  208.3010  154.7530 C   0  0  0  0  0  3  0  0  0  0  0  0
  161.0940  207.3370  157.2590 C   0  0  0  0  0  1  0  0  0  0  0  0
  159.6410  210.2080  154.3100 C   0  0  0  0  0  0  0  0  0  0  0  0
  160.3440  209.0720  153.7210 C   0  0  0  0  0  0  0  0  0  0  0  0
  160.6690  208.3000  156.1760 C   0  0  0  0  0  0  0  0  0  0  0  0
  159.9760  209.4490  156.6070 C   0  0  0  0  0  3  0  0  0  0  0  0
  159.5480  210.3840  155.6950 C   0  0  0  0  0  3  0  0  0  0  0  0
  158.5880  211.1340  153.2290 S   0  0  0  0  0  0  0  0  0  0  0  0
  158.1420  212.2510  154.5270 C   0  0  1  0  0  3  0  0  0  0  0  0
  160.3030  214.3480  156.9180 C   0  0  0  0  0  1  0  0  0  0  0  0
  159.0730  213.6710  156.1540 C   0  0  1  0  0  3  0  0  0  0  0  0
  158.7310  214.4240  155.0740 O   0  0  0  0  0  0  0  0  0  0  0  0
  159.2890  213.1750  154.7810 C   0  0  2  0  0  3  0  0  0  0  0  0
  155.7390  213.2760  154.6290 C   0  0  0  0  0  0  0  0  0  0  0  0
  155.5590  212.9880  155.8470 N   0  0  0  0  0  2  0  0  0  0  0  0
  154.7310  214.0920  153.9060 C   0  0  0  0  0  1  0  0  0  0  0  0
  156.9520  212.7760  153.9770 N   0  0  0  0  0  2  0  0  0  0  0  0
  160.7500  205.3360  150.8650 C   0  0  1  0  0  3  0  0  0  0  0  0
  161.0060  203.9540  148.8460 C   0  0  0  0  0  3  0  0  0  0  0  0
  162.0560  206.4680  147.3350 C   0  0  0  0  0  3  0  0  0  0  0  0
  161.2470  205.2130  149.4010 C   0  0  1  0  0  3  0  0  0  0  0  0
  161.8870  206.3340  148.6790 C   0  0  0  0  0  3  0  0  0  0  0  0
  161.6850  205.5440  146.1960 C   0  0  0  0  0  0  0  0  0  0  0  0
  161.4010  204.2340  146.2940 C   0  0  0  0  0  3  0  0  0  0  0  0
  161.4880  203.4160  147.5690 C   0  0  0  0  0  0  0  0  0  0  0  0
  161.7140  206.0900  144.9250 F   0  0  0  0  0  0  0  0  0  0  0  0
  160.8180  201.5200  148.5160 C   0  0  0  0  0  1  0  0  0  0  0  0
  161.5740  201.9740  147.3980 O   0  0  0  0  0  0  0  0  0  0  0  0
  160.5640  203.1370  152.2410 C   0  0  0  0  0  3  0  0  0  0  0  0
  160.5660  204.0630  151.5550 C   0  0  0  0  0  0  0  0  0  0  0  0
  1  3  2  0  0  0  0
  2  7  2  0  0  0  0
  2  6  1  0  0  0  0
  3  5  1  0  0  0  0
  3  6  1  0  0  0  0
  4  1  1  0  0  0  0
  4  2  1  0  0  0  0
  6 11  1  1  0  0  0
  8 12  1  0  0  0  0
 10 14  2  0  0  0  0
 11 10  1  0  0  0  0
 11  8  2  0  0  0  0
 12 13  2  0  0  0  0
 12  9  1  0  0  0  0
 14 13  1  0  0  0  0
 15 10  1  0  0  0  0
 16 15  1  6  0  0  0
 18 17  1  6  0  0  0
 19 18  1  0  0  0  0
 20 16  1  1  0  0  0
 20 19  1  0  0  0  0
 20 18  1  0  0  0  0
 21 22  2  0  0  0  0
 23 21  1  0  0  0  0
 24 16  1  0  0  0  0
 24 21  1  0  0  0  0
 25 37  1  1  0  0  0
 25  5  1  0  0  0  0
 26 28  1  0  0  0  0
 27 29  2  0  0  0  0
 28 25  1  6  0  0  0
 29 28  1  0  0  0  0
 30 31  2  0  0  0  0
 30 27  1  0  0  0  0
 31 32  1  0  0  0  0
 32 26  2  0  0  0  0
 33 30  1  0  0  0  0
 35 32  1  0  0  0  0
 35 34  1  0  0  0  0
 37 36  3  0  0  0  0
M  END
>  <MODEL>
4

>  <REMARK>
 VINA RESULT:      -6.2      2.941      5.094
  Name = 
  9 active torsions:
  status: ('A' for Active; 'I' for Inactive)
    1  A    between atoms: C_5  and  C_12
    2  A    between atoms: C_5  and  C_17
    3  A    between atoms: C_5  and  N_31
    4  A    between atoms: S_11  and  C_19
    5  A    between atoms: S_11  and  C_22
    6  A    between atoms: C_20  and  C_35
    7  A    between atoms: C_22  and  C_28
    8  A    between atoms: C_22  and  N_32
    9  A    between atoms: O_25  and  C_27
                            x       y       z     vdW  Elec       q    Type
                         _______ _______ _______ _____ _____    ______ ____

>  <TORSDO>
F 9

$$$$
=
 OpenBabel11072413033D

 37 40  0  0  1  0  0  0  0  0999 V2000
  162.0760  209.5060  154.2160 N   0  0  0  0  0  0  0  0  0  0  0  0
  161.0520  211.4620  155.2530 C   0  0  0  0  0  0  0  0  0  0  0  0
  161.0110  209.8260  153.4210 C   0  0  0  0  0  0  0  0  0  0  0  0
  162.1570  210.3650  155.4260 C   0  0  0  0  0  2  0  0  0  0  0  0
  160.7590  209.1090  152.2200 N   0  0  0  0  0  2  0  0  0  0  0  0
  160.4150  211.1990  153.8750 C   0  0  1  0  0  3  0  0  0  0  0  0
  160.5100  212.2240  156.0660 O   0  0  0  0  0  0  0  0  0  0  0  0
  157.8720  211.1380  154.4630 C   0  0  0  0  0  3  0  0  0  0  0  0
  155.2600  210.7310  154.9490 C   0  0  0  0  0  1  0  0  0  0  0  0
  158.5270  213.0000  153.1520 C   0  0  0  0  0  0  0  0  0  0  0  0
  158.9440  211.7140  153.7040 C   0  0  0  0  0  0  0  0  0  0  0  0
  156.4560  211.4670  154.3920 C   0  0  0  0  0  0  0  0  0  0  0  0
  156.1950  212.7310  153.8260 C   0  0  0  0  0  3  0  0  0  0  0  0
  157.2190  213.4770  153.2930 C   0  0  0  0  0  3  0  0  0  0  0  0
  159.6180  213.7490  151.9750 S   0  0  0  0  0  0  0  0  0  0  0  0
  158.5060  213.4070  150.6420 C   0  0  1  0  0  3  0  0  0  0  0  0
  154.8000  214.4260  150.5330 C   0  0  0  0  0  1  0  0  0  0  0  0
  156.2100  213.7280  150.2490 C   0  0  1  0  0  3  0  0  0  0  0  0
  156.9060  214.4530  149.3320 O   0  0  0  0  0  0  0  0  0  0  0  0
  157.4380  214.4530  150.6260 C   0  0  2  0  0  3  0  0  0  0  0  0
  159.2220  213.2540  148.1320 C   0  0  0  0  0  0  0  0  0  0  0  0
  158.0830  212.8830  147.7260 N   0  0  0  0  0  2  0  0  0  0  0  0
  160.2940  213.5560  147.1500 C   0  0  0  0  0  1  0  0  0  0  0  0
  159.4340  213.3630  149.5770 N   0  0  0  0  0  2  0  0  0  0  0  0
  161.7570  209.0200  151.0380 C   0  0  1  0  0  3  0  0  0  0  0  0
  161.2450  206.6280  150.7710 C   0  0  0  0  0  3  0  0  0  0  0  0
  162.0370  206.8590  147.7680 C   0  0  0  0  0  3  0  0  0  0  0  0
  161.7700  207.7570  150.1380 C   0  0  0  0  0  0  0  0  0  0  0  0
  162.2710  207.7750  148.7460 C   0  0  0  0  0  3  0  0  0  0  0  0
  161.2450  205.5700  147.7900 C   0  0  0  0  0  0  0  0  0  0  0  0
  160.8720  204.8840  148.8840 C   0  0  0  0  0  3  0  0  0  0  0  0
  161.2580  205.2360  150.3070 C   0  0  2  0  0  3  0  0  0  0  0  0
  160.9430  205.0120  146.5600 F   0  0  0  0  0  0  0  0  0  0  0  0
  160.6610  203.1020  150.4720 C   0  0  0  0  0  1  0  0  0  0  0  0
  161.1410  204.1660  151.2860 O   0  0  0  0  0  0  0  0  0  0  0  0
  161.9230  211.2160  149.6550 C   0  0  0  0  0  3  0  0  0  0  0  0
  161.7450  210.2860  150.3120 C   0  0  0  0  0  0  0  0  0  0  0  0
  1  4  1  0  0  0  0
  2  4  1  0  0  0  0
  2  7  2  0  0  0  0
  3  6  1  0  0  0  0
  3  1  2  0  0  0  0
  5  3  1  0  0  0  0
  6 11  1  1  0  0  0
  6  2  1  0  0  0  0
 10 14  2  0  0  0  0
 10 11  1  0  0  0  0
 11  8  2  0  0  0  0
 12  8  1  0  0  0  0
 12  9  1  0  0  0  0
 13 12  2  0  0  0  0
 14 13  1  0  0  0  0
 15 10  1  0  0  0  0
 16 24  1  6  0  0  0
 16 15  1  0  0  0  0
 18 17  1  1  0  0  0
 18 20  1  0  0  0  0
 19 18  1  0  0  0  0
 19 20  1  0  0  0  0
 20 16  1  6  0  0  0
 21 24  1  0  0  0  0
 22 21  2  0  0  0  0
 23 21  1  0  0  0  0
 25 37  1  6  0  0  0
 25  5  1  0  0  0  0
 27 30  1  0  0  0  0
 27 29  2  0  0  0  0
 28 26  2  0  0  0  0
 28 25  1  0  0  0  0
 29 28  1  0  0  0  0
 30 31  2  0  0  0  0
 31 32  1  0  0  0  0
 32 26  1  0  0  0  0
 32 35  1  1  0  0  0
 33 30  1  0  0  0  0
 34 35  1  0  0  0  0
 36 37  3  0  0  0  0
M  END
>  <MODEL>
5

>  <REMARK>
 VINA RESULT:      -5.9      1.567      2.244
  Name = 
  9 active torsions:
  status: ('A' for Active; 'I' for Inactive)
    1  A    between atoms: C_5  and  C_12
    2  A    between atoms: C_5  and  C_17
    3  A    between atoms: C_5  and  N_31
    4  A    between atoms: S_11  and  C_19
    5  A    between atoms: S_11  and  C_22
    6  A    between atoms: C_20  and  C_35
    7  A    between atoms: C_22  and  C_28
    8  A    between atoms: C_22  and  N_32
    9  A    between atoms: O_25  and  C_27
                            x       y       z     vdW  Elec       q    Type
                         _______ _______ _______ _____ _____    ______ ____

>  <TORSDO>
F 9

$$$$
=
 OpenBabel11072413033D

 37 40  0  0  1  0  0  0  0  0999 V2000
  161.4170  208.3460  153.4710 N   0  0  0  0  0  0  0  0  0  0  0  0
  161.1550  210.6000  154.3680 C   0  0  0  0  0  0  0  0  0  0  0  0
  160.8390  209.0750  152.4680 C   0  0  0  0  0  0  0  0  0  0  0  0
  161.5730  209.1320  154.7220 C   0  0  0  0  0  2  0  0  0  0  0  0
  160.5970  208.4940  151.1940 N   0  0  0  0  0  2  0  0  0  0  0  0
  160.8280  210.5890  152.8630 C   0  0  1  0  0  3  0  0  0  0  0  0
  160.8290  211.5600  155.0800 O   0  0  0  0  0  0  0  0  0  0  0  0
  158.7460  212.1240  153.2140 C   0  0  0  0  0  3  0  0  0  0  0  0
  156.4100  213.3960  153.6030 C   0  0  0  0  0  1  0  0  0  0  0  0
  160.0740  212.6940  151.3360 C   0  0  0  0  0  0  0  0  0  0  0  0
  159.8350  211.7020  152.3810 C   0  0  0  0  0  0  0  0  0  0  0  0
  157.7170  213.1050  152.9020 C   0  0  0  0  0  0  0  0  0  0  0  0
  158.0730  213.9900  151.8650 C   0  0  0  0  0  3  0  0  0  0  0  0
  159.2440  213.8080  151.1690 C   0  0  0  0  0  3  0  0  0  0  0  0
  161.2070  212.2360  150.0540 S   0  0  0  0  0  0  0  0  0  0  0  0
  160.6110  213.5190  148.9910 C   0  0  1  0  0  3  0  0  0  0  0  0
  162.7000  213.5070  145.7630 C   0  0  0  0  0  1  0  0  0  0  0  0
  161.8730  213.0690  147.0590 C   0  0  1  0  0  3  0  0  0  0  0  0
  162.7030  213.0070  148.1360 O   0  0  0  0  0  0  0  0  0  0  0  0
  161.7500  214.0310  148.1710 C   0  0  2  0  0  3  0  0  0  0  0  0
  158.3090  213.2930  147.7720 C   0  0  0  0  0  0  0  0  0  0  0  0
  157.9140  214.4510  148.0900 N   0  0  0  0  0  2  0  0  0  0  0  0
  157.4970  212.4620  146.8480 C   0  0  0  0  0  1  0  0  0  0  0  0
  159.5690  212.8150  148.3470 N   0  0  0  0  0  2  0  0  0  0  0  0
  161.7060  207.9110  150.2830 C   0  0  1  0  0  3  0  0  0  0  0  0
  161.2120  205.5780  150.8900 C   0  0  0  0  0  3  0  0  0  0  0  0
  161.6890  204.7700  147.9200 C   0  0  0  0  0  3  0  0  0  0  0  0
  161.6500  206.4180  149.8630 C   0  0  0  0  0  0  0  0  0  0  0  0
  162.0050  205.9580  148.5040 C   0  0  0  0  0  3  0  0  0  0  0  0
  160.9260  203.5790  148.4550 C   0  0  0  0  0  0  0  0  0  0  0  0
  160.6800  203.3070  149.7480 C   0  0  0  0  0  3  0  0  0  0  0  0
  161.2030  204.1110  150.9230 C   0  0  2  0  0  3  0  0  0  0  0  0
  160.5100  202.6440  147.5230 F   0  0  0  0  0  0  0  0  0  0  0  0
  161.2010  204.5430  153.1030 C   0  0  0  0  0  1  0  0  0  0  0  0
  161.2050  203.4350  152.2110 O   0  0  0  0  0  0  0  0  0  0  0  0
  161.9390  209.5670  148.2920 C   0  0  0  0  0  3  0  0  0  0  0  0
  161.9560  208.8420  149.1870 C   0  0  0  0  0  0  0  0  0  0  0  0
  1  4  1  0  0  0  0
  2  4  1  0  0  0  0
  2  7  2  0  0  0  0
  3  6  1  0  0  0  0
  3  1  2  0  0  0  0
  5  3  1  0  0  0  0
  6 11  1  1  0  0  0
  6  2  1  0  0  0  0
 10 11  1  0  0  0  0
 11  8  2  0  0  0  0
 12  8  1  0  0  0  0
 12  9  1  0  0  0  0
 13 12  2  0  0  0  0
 14 10  2  0  0  0  0
 14 13  1  0  0  0  0
 15 10  1  0  0  0  0
 16 24  1  6  0  0  0
 16 15  1  0  0  0  0
 18 17  1  6  0  0  0
 18 19  1  0  0  0  0
 18 20  1  0  0  0  0
 19 20  1  0  0  0  0
 20 16  1  1  0  0  0
 21 22  2  0  0  0  0
 21 24  1  0  0  0  0
 23 21  1  0  0  0  0
 25 37  1  6  0  0  0
 25  5  1  0  0  0  0
 26 32  1  0  0  0  0
 27 30  1  0  0  0  0
 27 29  2  0  0  0  0
 28 25  1  0  0  0  0
 28 26  2  0  0  0  0
 29 28  1  0  0  0  0
 30 31  2  0  0  0  0
 31 32  1  0  0  0  0
 32 35  1  1  0  0  0
 33 30  1  0  0  0  0
 35 34  1  0  0  0  0
 36 37  3  0  0  0  0
M  END
>  <MODEL>
6

>  <REMARK>
 VINA RESULT:      -5.7      2.263      3.691
  Name = 
  9 active torsions:
  status: ('A' for Active; 'I' for Inactive)
    1  A    between atoms: C_5  and  C_12
    2  A    between atoms: C_5  and  C_17
    3  A    between atoms: C_5  and  N_31
    4  A    between atoms: S_11  and  C_19
    5  A    between atoms: S_11  and  C_22
    6  A    between atoms: C_20  and  C_35
    7  A    between atoms: C_22  and  C_28
    8  A    between atoms: C_22  and  N_32
    9  A    between atoms: O_25  and  C_27
                            x       y       z     vdW  Elec       q    Type
                         _______ _______ _______ _____ _____    ______ ____

>  <TORSDO>
F 9

$$$$
=
 OpenBabel11072413033D

 37 41  0  0  1  0  0  0  0  0999 V2000
  162.2840  207.8350  149.8580 N   0  0  0  0  0  0  0  0  0  0  0  0
  161.5690  209.9270  150.8890 C   0  0  1  0  0  3  0  0  0  0  0  0
  161.7410  207.4830  151.0630 C   0  0  0  0  0  0  0  0  0  0  0  0
  162.3330  209.3070  149.6690 C   0  0  0  0  0  2  0  0  0  0  0  0
  161.6180  206.1160  151.4340 N   0  0  0  0  0  2  0  0  0  0  0  0
  161.0530  208.7300  151.7100 C   0  0  1  0  0  3  0  0  0  0  0  0
  161.5640  211.0710  151.3650 O   0  0  0  0  0  0  0  0  0  0  0  0
  160.9330  207.9650  154.2030 C   0  0  0  0  0  3  0  0  0  0  0  0
  160.5480  206.9470  156.6600 C   0  0  0  0  0  1  0  0  0  0  0  0
  160.8450  210.3130  153.8970 C   0  0  0  0  0  0  0  0  0  0  0  0
  160.8070  209.0130  153.2320 C   0  0  0  0  0  0  0  0  0  0  0  0
  160.6980  208.0480  155.6370 C   0  0  0  0  0  0  0  0  0  0  0  0
  160.7500  209.3610  156.1450 C   0  0  0  0  0  3  0  0  0  0  0  0
  160.8850  210.4300  155.2910 C   0  0  0  0  0  3  0  0  0  0  0  0
  160.4480  211.7230  152.9030 S   0  0  2  0  0  3  0  0  0  0  0  0
  158.7240  211.5650  153.2650 C   0  0  1  0  0  3  0  0  0  0  0  0
  157.2900  211.8570  156.8210 C   0  0  0  0  0  1  0  0  0  0  0  0
  157.5020  211.5150  155.2740 C   0  0  1  0  0  3  0  0  0  0  0  0
  157.0240  212.5330  154.5080 O   0  0  0  0  0  0  0  0  0  0  0  0
  158.4140  212.3680  154.4870 C   0  0  2  0  0  3  0  0  0  0  0  0
  158.2550  213.2740  151.3430 C   0  0  0  0  0  0  0  0  0  0  0  0
  158.5980  214.2840  152.0220 N   0  0  0  0  0  2  0  0  0  0  0  0
  157.9260  213.4290  149.9040 C   0  0  0  0  0  1  0  0  0  0  0  0
  158.1920  211.9780  152.0240 N   0  0  0  0  0  2  0  0  0  0  0  0
  160.7970  205.0730  150.6340 C   0  0  1  0  0  3  0  0  0  0  0  0
  160.8640  203.3980  148.8320 C   0  0  0  0  0  3  0  0  0  0  0  0
  162.0730  205.5650  146.9490 C   0  0  0  0  0  3  0  0  0  0  0  0
  161.2310  204.6970  149.1920 C   0  0  1  0  0  3  0  0  0  0  0  0
  161.9390  205.6410  148.3000 C   0  0  0  0  0  3  0  0  0  0  0  0
  161.5840  204.5240  145.9650 C   0  0  0  0  0  0  0  0  0  0  0  0
  161.1930  203.2720  146.2600 C   0  0  0  0  0  3  0  0  0  0  0  0
  161.2540  202.6420  147.6370 C   0  0  0  0  0  0  0  0  0  0  0  0
  161.6170  204.8780  144.6270 F   0  0  0  0  0  0  0  0  0  0  0  0
  160.8790  200.9610  149.0430 C   0  0  0  0  0  1  0  0  0  0  0  0
  161.2100  201.1880  147.6780 O   0  0  0  0  0  0  0  0  0  0  0  0
  160.4530  203.1010  152.2930 C   0  0  0  0  0  3  0  0  0  0  0  0
  160.5070  203.9340  151.4990 C   0  0  0  0  0  0  0  0  0  0  0  0
  1  3  2  0  0  0  0
  2  4  1  1  0  0  0
  2  7  1  0  0  0  0
  2  6  1  0  0  0  0
  3  5  1  0  0  0  0
  4  1  1  0  0  0  0
  6  3  1  1  0  0  0
  6 11  1  0  0  0  0
  7 15  1  0  0  0  0
  8 12  1  0  0  0  0
 10 14  2  0  0  0  0
 11 10  1  0  0  0  0
 11  8  2  0  0  0  0
 12 13  2  0  0  0  0
 12  9  1  0  0  0  0
 14 13  1  0  0  0  0
 15 16  1  6  0  0  0
 15 10  1  0  0  0  0
 16 24  1  6  0  0  0
 18 17  1  1  0  0  0
 19 18  1  0  0  0  0
 20 16  1  6  0  0  0
 20 19  1  0  0  0  0
 20 18  1  0  0  0  0
 21 22  2  0  0  0  0
 21 24  1  0  0  0  0
 23 21  1  0  0  0  0
 25  5  1  0  0  0  0
 25 37  1  1  0  0  0
 26 28  1  0  0  0  0
 27 29  2  0  0  0  0
 28 25  1  6  0  0  0
 29 28  1  0  0  0  0
 30 31  2  0  0  0  0
 30 27  1  0  0  0  0
 31 32  1  0  0  0  0
 32 35  1  0  0  0  0
 32 26  2  0  0  0  0
 33 30  1  0  0  0  0
 35 34  1  0  0  0  0
 37 36  3  0  0  0  0
M  END
>  <MODEL>
7

>  <REMARK>
 VINA RESULT:      -5.2      2.562      4.758
  Name = 
  9 active torsions:
  status: ('A' for Active; 'I' for Inactive)
    1  A    between atoms: C_5  and  C_12
    2  A    between atoms: C_5  and  C_17
    3  A    between atoms: C_5  and  N_31
    4  A    between atoms: S_11  and  C_19
    5  A    between atoms: S_11  and  C_22
    6  A    between atoms: C_20  and  C_35
    7  A    between atoms: C_22  and  C_28
    8  A    between atoms: C_22  and  N_32
    9  A    between atoms: O_25  and  C_27
                            x       y       z     vdW  Elec       q    Type
                         _______ _______ _______ _____ _____    ______ ____

>  <TORSDO>
F 9

$$$$
=
 OpenBabel11072413033D

 37 40  0  0  1  0  0  0  0  0999 V2000
  161.1280  206.8170  155.2810 N   0  0  0  0  0  0  0  0  0  0  0  0
  161.2710  209.2320  155.5950 C   0  0  0  0  0  0  0  0  0  0  0  0
  160.8350  207.3630  154.0620 C   0  0  0  0  0  0  0  0  0  0  0  0
  161.3170  207.8500  156.3320 C   0  0  0  0  0  2  0  0  0  0  0  0
  160.6090  206.5340  152.9300 N   0  0  0  0  0  2  0  0  0  0  0  0
  161.1130  208.9020  154.0990 C   0  0  1  0  0  3  0  0  0  0  0  0
  161.0890  210.3840  156.0120 O   0  0  0  0  0  0  0  0  0  0  0  0
  159.2700  210.7030  153.6870 C   0  0  0  0  0  3  0  0  0  0  0  0
  157.1330  212.2830  153.2810 C   0  0  0  0  0  1  0  0  0  0  0  0
  161.0750  210.7840  152.1530 C   0  0  0  0  0  0  0  0  0  0  0  0
  160.4460  210.0220  153.2290 C   0  0  0  0  0  0  0  0  0  0  0  0
  158.5070  211.7280  152.9880 C   0  0  0  0  0  0  0  0  0  0  0  0
  159.2300  212.3740  151.9650 C   0  0  0  0  0  3  0  0  0  0  0  0
  160.4900  211.9410  151.6260 C   0  0  0  0  0  3  0  0  0  0  0  0
  162.3940  209.9850  151.2830 S   0  0  0  0  0  0  0  0  0  0  0  0
  161.6850  210.3990  149.7150 C   0  0  1  0  0  3  0  0  0  0  0  0
  161.1820  213.6080  147.6570 C   0  0  0  0  0  1  0  0  0  0  0  0
  161.3560  212.0840  148.1080 C   0  0  1  0  0  3  0  0  0  0  0  0
  162.6750  211.7530  148.1160 O   0  0  0  0  0  0  0  0  0  0  0  0
  162.0620  211.8040  149.3730 C   0  0  2  0  0  3  0  0  0  0  0  0
  161.6670  208.0200  148.6290 C   0  0  0  0  0  0  0  0  0  0  0  0
  160.7030  207.5980  149.3310 N   0  0  0  0  0  2  0  0  0  0  0  0
  162.2090  207.1770  147.5350 C   0  0  0  0  0  1  0  0  0  0  0  0
  162.2150  209.3430  148.9400 N   0  0  0  0  0  2  0  0  0  0  0  0
  161.6550  205.5440  152.3590 C   0  0  1  0  0  3  0  0  0  0  0  0
  161.3470  204.5750  150.1190 C   0  0  0  0  0  3  0  0  0  0  0  0
  160.5210  201.8890  151.4620 C   0  0  0  0  0  3  0  0  0  0  0  0
  161.1860  204.3490  151.4880 C   0  0  1  0  0  3  0  0  0  0  0  0
  160.6480  203.1000  152.0690 C   0  0  0  0  0  3  0  0  0  0  0  0
  160.8510  201.4510  150.0520 C   0  0  0  0  0  0  0  0  0  0  0  0
  161.0350  202.2560  148.9920 C   0  0  0  0  0  3  0  0  0  0  0  0
  160.8580  203.7620  148.9990 C   0  0  0  0  0  0  0  0  0  0  0  0
  160.8920  200.0870  149.8250 F   0  0  0  0  0  0  0  0  0  0  0  0
  161.5260  203.5970  146.8860 C   0  0  0  0  0  1  0  0  0  0  0  0
  160.6700  204.3900  147.7010 O   0  0  0  0  0  0  0  0  0  0  0  0
  163.6120  206.7870  151.1830 C   0  0  0  0  0  3  0  0  0  0  0  0
  162.7710  206.3020  151.8030 C   0  0  0  0  0  0  0  0  0  0  0  0
  1  4  1  0  0  0  0
  2  7  2  0  0  0  0
  2  4  1  0  0  0  0
  3  6  1  0  0  0  0
  3  1  2  0  0  0  0
  5  3  1  0  0  0  0
  6 11  1  1  0  0  0
  6  2  1  0  0  0  0
 10 11  2  0  0  0  0
 11  8  1  0  0  0  0
 12  9  1  0  0  0  0
 12  8  2  0  0  0  0
 13 12  1  0  0  0  0
 14 13  2  0  0  0  0
 14 10  1  0  0  0  0
 15 10  1  0  0  0  0
 16 24  1  6  0  0  0
 16 15  1  0  0  0  0
 18 17  1  1  0  0  0
 18 19  1  0  0  0  0
 18 20  1  0  0  0  0
 19 20  1  0  0  0  0
 20 16  1  6  0  0  0
 21 24  1  0  0  0  0
 21 22  2  0  0  0  0
 23 21  1  0  0  0  0
 25 37  1  6  0  0  0
 25  5  1  0  0  0  0
 26 28  1  0  0  0  0
 27 29  2  0  0  0  0
 28 29  1  0  0  0  0
 28 25  1  1  0  0  0
 30 27  1  0  0  0  0
 31 32  1  0  0  0  0
 31 30  2  0  0  0  0
 32 26  2  0  0  0  0
 33 30  1  0  0  0  0
 34 35  1  0  0  0  0
 35 32  1  0  0  0  0
 36 37  3  0  0  0  0
M  END
>  <MODEL>
8

>  <REMARK>
 VINA RESULT:      -5.2      2.517      3.744
  Name = 
  9 active torsions:
  status: ('A' for Active; 'I' for Inactive)
    1  A    between atoms: C_5  and  C_12
    2  A    between atoms: C_5  and  C_17
    3  A    between atoms: C_5  and  N_31
    4  A    between atoms: S_11  and  C_19
    5  A    between atoms: S_11  and  C_22
    6  A    between atoms: C_20  and  C_35
    7  A    between atoms: C_22  and  C_28
    8  A    between atoms: C_22  and  N_32
    9  A    between atoms: O_25  and  C_27
                            x       y       z     vdW  Elec       q    Type
                         _______ _______ _______ _____ _____    ______ ____

>  <TORSDO>
F 9

$$$$
=
 OpenBabel11072413033D

 37 40  0  0  1  0  0  0  0  0999 V2000
  161.2420  206.1600  152.8140 N   0  0  0  0  0  0  0  0  0  0  0  0
  161.4250  208.1310  154.2410 C   0  0  0  0  0  0  0  0  0  0  0  0
  160.8270  207.2110  152.0430 C   0  0  0  0  0  0  0  0  0  0  0  0
  161.5410  206.5680  154.2110 C   0  0  0  0  0  2  0  0  0  0  0  0
  160.4840  207.0190  150.6770 N   0  0  0  0  0  2  0  0  0  0  0  0
  161.1140  208.5540  152.7930 C   0  0  1  0  0  3  0  0  0  0  0  0
  161.2910  208.9310  155.1780 O   0  0  0  0  0  0  0  0  0  0  0  0
  159.4820  210.3960  153.6630 C   0  0  0  0  0  3  0  0  0  0  0  0
  157.5470  212.0320  154.5590 C   0  0  0  0  0  1  0  0  0  0  0  0
  160.7310  211.0230  151.7500 C   0  0  0  0  0  0  0  0  0  0  0  0
  160.3650  209.9220  152.6370 C   0  0  0  0  0  0  0  0  0  0  0  0
  158.6830  211.6120  153.6570 C   0  0  0  0  0  0  0  0  0  0  0  0
  159.1380  212.5850  152.7440 C   0  0  0  0  0  3  0  0  0  0  0  0
  160.1690  212.2980  151.8810 C   0  0  0  0  0  3  0  0  0  0  0  0
  161.6080  210.5920  150.2730 S   0  0  0  0  0  0  0  0  0  0  0  0
  161.4330  212.2280  149.6230 C   0  0  1  0  0  3  0  0  0  0  0  0
  163.2370  214.4530  147.0590 C   0  0  0  0  0  1  0  0  0  0  0  0
  162.1440  213.5900  147.8440 C   0  0  1  0  0  3  0  0  0  0  0  0
  162.2040  212.2930  147.4390 O   0  0  0  0  0  0  0  0  0  0  0  0
  162.6120  212.5300  148.7560 C   0  0  2  0  0  3  0  0  0  0  0  0
  159.1390  213.1070  148.7270 C   0  0  0  0  0  0  0  0  0  0  0  0
  159.2350  214.2330  149.2950 N   0  0  0  0  0  2  0  0  0  0  0  0
  158.0110  212.8410  147.7990 C   0  0  0  0  0  1  0  0  0  0  0  0
  160.1600  212.0990  149.0240 N   0  0  0  0  0  2  0  0  0  0  0  0
  161.4630  206.4750  149.6060 C   0  0  1  0  0  3  0  0  0  0  0  0
  161.5340  205.0490  147.6020 C   0  0  0  0  0  3  0  0  0  0  0  0
  160.7040  202.6260  149.3730 C   0  0  0  0  0  3  0  0  0  0  0  0
  161.1980  205.0910  148.9570 C   0  0  1  0  0  3  0  0  0  0  0  0
  160.6660  203.9410  149.7200 C   0  0  0  0  0  3  0  0  0  0  0  0
  161.2550  201.9440  148.1400 C   0  0  0  0  0  0  0  0  0  0  0  0
  161.5340  202.5320  146.9640 C   0  0  0  0  0  3  0  0  0  0  0  0
  161.2600  203.9860  146.6290 C   0  0  0  0  0  0  0  0  0  0  0  0
  161.4160  200.5720  148.2140 F   0  0  0  0  0  0  0  0  0  0  0  0
  160.8870  205.7020  145.2670 C   0  0  0  0  0  1  0  0  0  0  0  0
  161.2170  204.3190  145.2140 O   0  0  0  0  0  0  0  0  0  0  0  0
  162.2170  208.3670  147.9900 C   0  0  0  0  0  3  0  0  0  0  0  0
  161.7710  207.5420  148.6600 C   0  0  0  0  0  0  0  0  0  0  0  0
  1  4  1  0  0  0  0
  2  7  2  0  0  0  0
  3  6  1  0  0  0  0
  3  1  2  0  0  0  0
  4  2  1  0  0  0  0
  5  3  1  0  0  0  0
  6 11  1  1  0  0  0
  6  2  1  0  0  0  0
 10 14  2  0  0  0  0
 10 11  1  0  0  0  0
 11  8  2  0  0  0  0
 12  8  1  0  0  0  0
 12  9  1  0  0  0  0
 13 12  2  0  0  0  0
 14 13  1  0  0  0  0
 15 10  1  0  0  0  0
 16 24  1  6  0  0  0
 16 15  1  0  0  0  0
 18 17  1  6  0  0  0
 18 20  1  0  0  0  0
 19 18  1  0  0  0  0
 19 20  1  0  0  0  0
 20 16  1  1  0  0  0
 21 24  1  0  0  0  0
 21 22  2  0  0  0  0
 23 21  1  0  0  0  0
 25 37  1  6  0  0  0
 25  5  1  0  0  0  0
 26 28  1  0  0  0  0
 27 29  2  0  0  0  0
 28 25  1  1  0  0  0
 28 29  1  0  0  0  0
 30 33  1  0  0  0  0
 30 27  1  0  0  0  0
 31 30  2  0  0  0  0
 32 31  1  0  0  0  0
 32 26  2  0  0  0  0
 35 34  1  0  0  0  0
 35 32  1  0  0  0  0
 36 37  3  0  0  0  0
M  END
>  <MODEL>
9

>  <REMARK>
 VINA RESULT:      -5.0      2.473      3.872
  Name = 
  9 active torsions:
  status: ('A' for Active; 'I' for Inactive)
    1  A    between atoms: C_5  and  C_12
    2  A    between atoms: C_5  and  C_17
    3  A    between atoms: C_5  and  N_31
    4  A    between atoms: S_11  and  C_19
    5  A    between atoms: S_11  and  C_22
    6  A    between atoms: C_20  and  C_35
    7  A    between atoms: C_22  and  C_28
    8  A    between atoms: C_22  and  N_32
    9  A    between atoms: O_25  and  C_27
                            x       y       z     vdW  Elec       q    Type
                         _______ _______ _______ _____ _____    ______ ____

>  <TORSDO>
F 9

$$$$
