=
 OpenBabel11072414543D

 47 51  0  0  1  0  0  0  0  0999 V2000
  161.2040  206.9630  153.9540 C   0  0  0  0  0  2  0  0  0  0  0  0
  162.2560  208.3920  151.2030 O   0  0  0  0  0  1  0  0  0  0  0  0
  160.8080  209.3360  154.2590 O   0  0  0  0  0  0  0  0  0  0  0  0
  160.0430  210.1250  153.3740 C   0  0  2  0  0  3  0  0  0  0  0  0
  160.6240  209.9900  151.9700 C   0  0  1  0  0  3  0  0  0  0  0  0
  161.7250  210.9290  151.7720 N   0  0  0  0  0  1  0  0  0  0  0  0
  161.4890  208.3840  153.4740 C   0  0  2  0  0  3  0  0  0  0  0  0
  161.1340  208.5770  152.0150 C   0  0  2  0  0  3  0  0  0  0  0  0
  159.9120  211.5700  153.8780 C   0  0  2  0  0  3  0  0  0  0  0  0
  159.2060  210.6830  156.5780 C   0  0  0  0  0  1  0  0  0  0  0  0
  161.7300  211.2210  155.8570 O   0  0  0  0  0  0  0  0  0  0  0  0
  160.1990  213.1150  156.0740 O   0  0  0  0  0  0  0  0  0  0  0  0
  160.3190  211.6860  155.6220 S   0  0  0  0  0  0  0  0  0  0  0  0
  158.4970  212.0860  153.6480 C   0  0  0  0  0  2  0  0  0  0  0  0
  158.6860  214.3120  152.5030 C   0  0  0  0  0  3  0  0  0  0  0  0
  158.4830  213.5760  153.6010 C   0  0  0  0  0  3  0  0  0  0  0  0
  157.9270  213.1490  150.5640 O   0  0  0  0  0  1  0  0  0  0  0  0
  158.9370  213.8100  151.1780 N   0  0  0  0  0  0  0  0  0  0  0  0
  160.2480  213.9110  150.5310 C   0  0  0  0  0  2  0  0  0  0  0  0
  160.2740  213.2640  149.1500 C   0  0  0  0  0  2  0  0  0  0  0  0
  162.3850  212.2370  148.2010 C   0  0  0  0  0  0  0  0  0  0  0  0
  161.6000  213.3790  148.5500 N   0  0  0  0  0  2  0  0  0  0  0  0
  161.9050  210.9490  148.4250 O   0  0  0  0  0  1  0  0  0  0  0  0
  163.5220  212.3990  147.6880 O   0  0  0  0  0  0  0  0  0  0  0  0
  161.9400  205.9140  153.1290 C   0  0  0  0  0  2  0  0  0  0  0  0
  161.3310  202.5020  151.9200 C   0  0  0  0  0  2  0  0  0  0  0  0
  160.9690  204.8590  152.6290 C   0  0  2  0  0  3  0  0  0  0  0  0
  161.1760  200.3210  150.9290 O   0  0  0  0  0  1  0  0  0  0  0  0
  160.4950  202.5660  148.8620 C   0  0  2  0  0  0  0  0  0  0  0  0
  161.6700  203.9660  151.6190 C   0  0  2  0  0  3  0  0  0  0  0  0
  160.0960  205.4370  151.5210 C   0  0  0  0  0  2  0  0  0  0  0  0
  161.6200  205.4150  149.5370 C   0  0  0  0  0  1  0  0  0  0  0  0
  160.8060  204.5670  150.5020 C   0  0  1  0  0  0  0  0  0  0  0  0
  161.8610  201.5340  150.8560 C   0  0  1  0  0  3  0  0  0  0  0  0
  159.8330  203.5930  149.8110 C   0  0  0  0  0  2  0  0  0  0  0  0
  159.6360  201.4670  148.7390 O   0  0  0  0  0  1  0  0  0  0  0  0
  161.8550  202.0760  149.4170 C   0  0  0  0  0  2  0  0  0  0  0  0
  162.2170  204.5530  146.1790 C   0  0  2  0  0  0  0  0  0  0  0  0
  160.6670  206.3440  145.7330 C   0  0  0  0  0  2  0  0  0  0  0  0
  163.6400  204.5800  145.6590 C   0  0  0  0  0  1  0  0  0  0  0  0
  161.8130  205.9350  146.6360 C   0  0  0  0  0  2  0  0  0  0  0  0
  162.1100  203.5740  147.3470 C   0  0  0  0  0  2  0  0  0  0  0  0
  160.7060  203.1920  147.5380 N   0  0  1  0  0  0  0  0  0  0  0  0
  160.3300  202.2700  146.4530 C   0  0  0  0  0  2  0  0  0  0  0  0
  160.1200  205.1360  145.1350 N   0  0  0  0  0  2  0  0  0  0  0  0
  161.2460  204.2190  145.0430 C   0  0  2  0  0  3  0  0  0  0  0  0
  160.7600  202.7650  145.0610 C   0  0  0  0  0  2  0  0  0  0  0  0
  4  9  1  1  0  0  0
  4  3  1  0  0  0  0
  5  6  1  1  0  0  0
  5  8  1  0  0  0  0
  5  4  1  0  0  0  0
  7  1  1  1  0  0  0
  7  3  1  0  0  0  0
  8  2  1  6  0  0  0
  8  7  1  0  0  0  0
  9 14  1  1  0  0  0
  9 13  1  0  0  0  0
 13 11  2  0  0  0  0
 13 12  2  0  0  0  0
 13 10  1  0  0  0  0
 15 16  2  0  0  0  0
 16 14  1  0  0  0  0
 17 18  1  0  0  0  0
 18 15  1  0  0  0  0
 19 18  1  0  0  0  0
 20 19  1  0  0  0  0
 21 23  1  0  0  0  0
 21 22  1  0  0  0  0
 22 20  1  0  0  0  0
 24 21  2  0  0  0  0
 25  1  1  0  0  0  0
 27 25  1  6  0  0  0
 29 36  1  6  0  0  0
 29 37  1  0  0  0  0
 29 35  1  0  0  0  0
 30 26  1  1  0  0  0
 30 27  1  0  0  0  0
 31 27  1  0  0  0  0
 33 32  1  6  0  0  0
 33 31  1  0  0  0  0
 33 30  1  0  0  0  0
 34 28  1  6  0  0  0
 34 26  1  0  0  0  0
 35 33  1  0  0  0  0
 37 34  1  0  0  0  0
 38 40  1  6  0  0  0
 38 41  1  0  0  0  0
 38 42  1  0  0  0  0
 39 41  1  0  0  0  0
 42 43  1  0  0  0  0
 43 44  1  6  0  0  0
 43 29  1  0  0  0  0
 45 39  1  0  0  0  0
 46 47  1  1  0  0  0
 46 45  1  0  0  0  0
 46 38  1  0  0  0  0
 47 44  1  0  0  0  0
M  END
>  <MODEL>
1

>  <REMARK>
 VINA RESULT:      -6.0      0.000      0.000
  Name = 
  12 active torsions:
  status: ('A' for Active; 'I' for Inactive)
    1  A    between atoms: C_3  and  C_13
    2  A    between atoms: C_3  and  C_34
    3  A    between atoms: C_5  and  C_38
    4  A    between atoms: C_11  and  N_28
    5  A    between atoms: C_13  and  C_15
    6  A    between atoms: C_13  and  S_32
    7  A    between atoms: C_14  and  N_17
    8  A    between atoms: N_17  and  C_45
    9  A    between atoms: N_18  and  C_29
   10  A    between atoms: C_29  and  C_45
   11  A    between atoms: C_36  and  C_38
   12  A    between atoms: C_36  and  C_40
                            x       y       z     vdW  Elec       q    Type
                         _______ _______ _______ _____ _____    ______ ____

>  <TORSDO>
F 12

$$$$
=
 OpenBabel11072414543D

 47 51  0  0  1  0  0  0  0  0999 V2000
  160.7460  206.8490  149.8590 C   0  0  0  0  0  2  0  0  0  0  0  0
  163.0770  207.8960  147.8130 O   0  0  0  0  0  1  0  0  0  0  0  0
  160.6500  205.3630  147.9430 O   0  0  0  0  0  0  0  0  0  0  0  0
  161.7510  204.6190  147.4710 C   0  0  2  0  0  3  0  0  0  0  0  0
  162.9020  205.5780  147.1800 C   0  0  1  0  0  3  0  0  0  0  0  0
  162.7770  206.1460  145.8400 N   0  0  0  0  0  1  0  0  0  0  0  0
  161.1570  206.5930  148.4100 C   0  0  2  0  0  3  0  0  0  0  0  0
  162.6590  206.6290  148.2260 C   0  0  2  0  0  3  0  0  0  0  0  0
  161.3560  203.7150  146.2930 C   0  0  2  0  0  3  0  0  0  0  0  0
  159.2350  203.6450  144.2760 C   0  0  0  0  0  1  0  0  0  0  0  0
  159.8700  205.8770  145.6160 O   0  0  0  0  0  0  0  0  0  0  0  0
  161.4770  205.0690  143.9600 O   0  0  0  0  0  0  0  0  0  0  0  0
  160.4990  204.6480  145.0220 S   0  0  0  0  0  0  0  0  0  0  0  0
  160.4700  202.5740  146.7750 C   0  0  0  0  0  2  0  0  0  0  0  0
  161.2630  200.8020  148.3690 C   0  0  0  0  0  3  0  0  0  0  0  0
  161.2980  201.3990  147.1720 C   0  0  0  0  0  3  0  0  0  0  0  0
  159.0830  201.0270  149.3090 O   0  0  0  0  0  1  0  0  0  0  0  0
  160.4190  201.1690  149.4750 N   0  0  0  0  0  0  0  0  0  0  0  0
  160.9480  201.7600  150.7070 C   0  0  0  0  0  2  0  0  0  0  0  0
  160.5530  203.2240  150.8750 C   0  0  0  0  0  2  0  0  0  0  0  0
  162.0340  204.8180  152.1690 C   0  0  0  0  0  0  0  0  0  0  0  0
  161.7360  204.0700  150.9880 N   0  0  0  0  0  2  0  0  0  0  0  0
  161.1890  204.7660  153.2740 O   0  0  0  0  0  1  0  0  0  0  0  0
  163.0690  205.5320  152.2070 O   0  0  0  0  0  0  0  0  0  0  0  0
  160.8320  208.3230  150.2330 C   0  0  0  0  0  2  0  0  0  0  0  0
  161.0940  207.6490  153.8330 C   0  0  0  0  0  2  0  0  0  0  0  0
  161.5820  208.4920  151.5430 C   0  0  2  0  0  3  0  0  0  0  0  0
  160.9610  207.3010  156.2040 O   0  0  0  0  0  1  0  0  0  0  0  0
  160.6570  210.3260  155.4740 C   0  0  2  0  0  0  0  0  0  0  0  0
  160.5880  208.5390  152.6920 C   0  0  2  0  0  3  0  0  0  0  0  0
  161.9180  209.9620  151.7660 C   0  0  0  0  0  2  0  0  0  0  0  0
  159.7400  210.9250  152.5350 C   0  0  0  0  0  1  0  0  0  0  0  0
  160.9110  210.0250  152.8970 C   0  0  1  0  0  0  0  0  0  0  0  0
  160.2400  207.7580  155.1000 C   0  0  1  0  0  3  0  0  0  0  0  0
  161.5830  210.3840  154.2370 C   0  0  0  0  0  2  0  0  0  0  0  0
  161.4550  210.1420  156.6100 O   0  0  0  0  0  1  0  0  0  0  0  0
  159.6520  209.1520  155.3750 C   0  0  0  0  0  2  0  0  0  0  0  0
  157.7010  212.6140  155.8580 C   0  0  2  0  0  0  0  0  0  0  0  0
  157.7100  213.8810  153.8080 C   0  0  0  0  0  2  0  0  0  0  0  0
  156.5160  212.6270  156.8010 C   0  0  0  0  0  1  0  0  0  0  0  0
  157.2170  212.5880  154.4270 C   0  0  0  0  0  2  0  0  0  0  0  0
  158.5650  211.3830  156.1290 C   0  0  0  0  0  2  0  0  0  0  0  0
  159.9090  211.5990  155.5820 N   0  0  1  0  0  0  0  0  0  0  0  0
  160.6140  212.5510  156.4580 C   0  0  0  0  0  2  0  0  0  0  0  0
  158.7960  214.3840  154.6350 N   0  0  0  0  0  2  0  0  0  0  0  0
  158.4890  213.9210  155.9800 C   0  0  2  0  0  3  0  0  0  0  0  0
  159.7710  213.7890  156.8090 C   0  0  0  0  0  2  0  0  0  0  0  0
  1 25  1  0  0  0  0
  3  7  1  0  0  0  0
  4  9  1  6  0  0  0
  4  3  1  0  0  0  0
  5  6  1  6  0  0  0
  5  4  1  0  0  0  0
  5  8  1  0  0  0  0
  7  1  1  1  0  0  0
  8  2  1  6  0  0  0
  8  7  1  0  0  0  0
  9 14  1  1  0  0  0
 10 13  1  0  0  0  0
 12 13  2  0  0  0  0
 13 11  2  0  0  0  0
 13  9  1  0  0  0  0
 14 16  1  0  0  0  0
 15 18  1  0  0  0  0
 16 15  2  0  0  0  0
 17 18  1  0  0  0  0
 18 19  1  0  0  0  0
 19 20  1  0  0  0  0
 20 22  1  0  0  0  0
 21 24  2  0  0  0  0
 21 23  1  0  0  0  0
 22 21  1  0  0  0  0
 26 34  1  0  0  0  0
 27 25  1  6  0  0  0
 27 31  1  0  0  0  0
 27 30  1  0  0  0  0
 29 43  1  0  0  0  0
 29 36  1  1  0  0  0
 30 33  1  0  0  0  0
 30 26  1  1  0  0  0
 31 33  1  0  0  0  0
 33 32  1  6  0  0  0
 33 35  1  0  0  0  0
 34 37  1  0  0  0  0
 34 28  1  1  0  0  0
 35 29  1  0  0  0  0
 37 29  1  0  0  0  0
 38 46  1  0  0  0  0
 38 42  1  0  0  0  0
 38 40  1  1  0  0  0
 39 41  1  0  0  0  0
 39 45  1  0  0  0  0
 41 38  1  0  0  0  0
 43 42  1  1  0  0  0
 43 44  1  0  0  0  0
 44 47  1  0  0  0  0
 45 46  1  0  0  0  0
 46 47  1  1  0  0  0
M  END
>  <MODEL>
2

>  <REMARK>
 VINA RESULT:      -5.5      3.226     10.419
  Name = 
  12 active torsions:
  status: ('A' for Active; 'I' for Inactive)
    1  A    between atoms: C_3  and  C_13
    2  A    between atoms: C_3  and  C_34
    3  A    between atoms: C_5  and  C_38
    4  A    between atoms: C_11  and  N_28
    5  A    between atoms: C_13  and  C_15
    6  A    between atoms: C_13  and  S_32
    7  A    between atoms: C_14  and  N_17
    8  A    between atoms: N_17  and  C_45
    9  A    between atoms: N_18  and  C_29
   10  A    between atoms: C_29  and  C_45
   11  A    between atoms: C_36  and  C_38
   12  A    between atoms: C_36  and  C_40
                            x       y       z     vdW  Elec       q    Type
                         _______ _______ _______ _____ _____    ______ ____

>  <TORSDO>
F 12

$$$$
=
 OpenBabel11072414543D

 47 51  0  0  1  0  0  0  0  0999 V2000
  160.8890  207.9300  150.0050 C   0  0  0  0  0  2  0  0  0  0  0  0
  163.2790  207.6350  147.7880 O   0  0  0  0  0  1  0  0  0  0  0  0
  160.4430  205.8510  148.8370 O   0  0  0  0  0  0  0  0  0  0  0  0
  161.3710  204.7930  148.7360 C   0  0  2  0  0  3  0  0  0  0  0  0
  162.6610  205.3300  148.1250 C   0  0  1  0  0  3  0  0  0  0  0  0
  162.5820  205.3320  146.6660 N   0  0  0  0  0  1  0  0  0  0  0  0
  161.1830  207.0500  148.7920 C   0  0  2  0  0  3  0  0  0  0  0  0
  162.6580  206.7350  148.6570 C   0  0  2  0  0  3  0  0  0  0  0  0
  160.7680  203.5850  148.0030 C   0  0  2  0  0  3  0  0  0  0  0  0
  161.1350  202.6100  150.7390 C   0  0  0  0  0  1  0  0  0  0  0  0
  159.2530  201.6270  149.1050 O   0  0  0  0  0  0  0  0  0  0  0  0
  161.5800  201.0780  148.5930 O   0  0  0  0  0  0  0  0  0  0  0  0
  160.6590  202.1590  149.0870 S   0  0  0  0  0  0  0  0  0  0  0  0
  161.6050  203.2340  146.7800 C   0  0  0  0  0  2  0  0  0  0  0  0
  160.3660  203.6200  144.6310 C   0  0  0  0  0  3  0  0  0  0  0  0
  160.7300  202.8260  145.6440 C   0  0  0  0  0  3  0  0  0  0  0  0
  159.9840  205.9420  145.0160 O   0  0  0  0  0  1  0  0  0  0  0  0
  160.7590  204.9910  144.4420 N   0  0  0  0  0  0  0  0  0  0  0  0
  161.8890  205.3780  143.5940 C   0  0  0  0  0  2  0  0  0  0  0  0
  161.5070  206.4100  142.5390 C   0  0  0  0  0  2  0  0  0  0  0  0
  162.1450  206.9130  140.1410 C   0  0  0  0  0  0  0  0  0  0  0  0
  161.9590  205.9910  141.2160 N   0  0  0  0  0  2  0  0  0  0  0  0
  161.8970  208.2710  140.3190 O   0  0  0  0  0  1  0  0  0  0  0  0
  162.5350  206.4910  139.0220 O   0  0  0  0  0  0  0  0  0  0  0  0
  160.7000  207.1150  151.2790 C   0  0  0  0  0  2  0  0  0  0  0  0
  161.3000  207.4980  154.8810 C   0  0  0  0  0  2  0  0  0  0  0  0
  161.5190  207.7100  152.4110 C   0  0  2  0  0  3  0  0  0  0  0  0
  161.3800  207.8140  157.2590 O   0  0  0  0  0  1  0  0  0  0  0  0
  160.6780  210.4750  155.7750 C   0  0  2  0  0  0  0  0  0  0  0  0
  160.6130  207.9850  153.6000 C   0  0  2  0  0  3  0  0  0  0  0  0
  161.7000  209.2080  152.1950 C   0  0  0  0  0  2  0  0  0  0  0  0
  159.4880  210.1460  152.8930 C   0  0  0  0  0  1  0  0  0  0  0  0
  160.7770  209.4920  153.3640 C   0  0  1  0  0  0  0  0  0  0  0  0
  160.5330  207.8780  156.1520 C   0  0  1  0  0  3  0  0  0  0  0  0
  161.5000  210.2690  154.4810 C   0  0  0  0  0  2  0  0  0  0  0  0
  161.5720  210.6880  156.8320 O   0  0  0  0  0  1  0  0  0  0  0  0
  159.8100  209.2340  156.0990 C   0  0  0  0  0  2  0  0  0  0  0  0
  157.4970  212.4740  155.7180 C   0  0  2  0  0  0  0  0  0  0  0  0
  157.3530  213.2230  153.4320 C   0  0  0  0  0  2  0  0  0  0  0  0
  156.3250  212.5850  156.6710 C   0  0  0  0  0  1  0  0  0  0  0  0
  157.0070  212.0670  154.3480 C   0  0  0  0  0  2  0  0  0  0  0  0
  158.4910  211.4350  156.2380 C   0  0  0  0  0  2  0  0  0  0  0  0
  159.7990  211.6550  155.6110 N   0  0  1  0  0  0  0  0  0  0  0  0
  160.4050  212.8520  156.2210 C   0  0  0  0  0  2  0  0  0  0  0  0
  158.3860  214.0140  154.0850 N   0  0  0  0  0  2  0  0  0  0  0  0
  158.1410  213.8470  155.5100 C   0  0  2  0  0  3  0  0  0  0  0  0
  159.4370  214.0450  156.3050 C   0  0  0  0  0  2  0  0  0  0  0  0
  1 25  1  0  0  0  0
  4  9  1  6  0  0  0
  4  3  1  0  0  0  0
  5  6  1  6  0  0  0
  5  8  1  0  0  0  0
  5  4  1  0  0  0  0
  7  3  1  0  0  0  0
  7  1  1  1  0  0  0
  8  2  1  6  0  0  0
  8  7  1  0  0  0  0
  9 14  1  6  0  0  0
  9 13  1  0  0  0  0
 12 13  2  0  0  0  0
 13 11  2  0  0  0  0
 13 10  1  0  0  0  0
 15 16  2  0  0  0  0
 16 14  1  0  0  0  0
 18 15  1  0  0  0  0
 18 17  1  0  0  0  0
 19 18  1  0  0  0  0
 20 19  1  0  0  0  0
 21 23  1  0  0  0  0
 21 22  1  0  0  0  0
 22 20  1  0  0  0  0
 24 21  2  0  0  0  0
 26 34  1  0  0  0  0
 27 25  1  6  0  0  0
 27 30  1  0  0  0  0
 29 37  1  0  0  0  0
 29 36  1  1  0  0  0
 30 26  1  1  0  0  0
 31 27  1  0  0  0  0
 31 33  1  0  0  0  0
 33 32  1  6  0  0  0
 33 30  1  0  0  0  0
 33 35  1  0  0  0  0
 34 28  1  1  0  0  0
 35 29  1  0  0  0  0
 37 34  1  0  0  0  0
 38 42  1  0  0  0  0
 38 40  1  1  0  0  0
 39 45  1  0  0  0  0
 39 41  1  0  0  0  0
 41 38  1  0  0  0  0
 43 29  1  0  0  0  0
 43 44  1  1  0  0  0
 43 42  1  0  0  0  0
 44 47  1  0  0  0  0
 45 46  1  0  0  0  0
 46 38  1  0  0  0  0
 46 47  1  1  0  0  0
M  END
>  <MODEL>
3

>  <REMARK>
 VINA RESULT:      -5.5      3.525     10.102
  Name = 
  12 active torsions:
  status: ('A' for Active; 'I' for Inactive)
    1  A    between atoms: C_3  and  C_13
    2  A    between atoms: C_3  and  C_34
    3  A    between atoms: C_5  and  C_38
    4  A    between atoms: C_11  and  N_28
    5  A    between atoms: C_13  and  C_15
    6  A    between atoms: C_13  and  S_32
    7  A    between atoms: C_14  and  N_17
    8  A    between atoms: N_17  and  C_45
    9  A    between atoms: N_18  and  C_29
   10  A    between atoms: C_29  and  C_45
   11  A    between atoms: C_36  and  C_38
   12  A    between atoms: C_36  and  C_40
                            x       y       z     vdW  Elec       q    Type
                         _______ _______ _______ _____ _____    ______ ____

>  <TORSDO>
F 12

$$$$
=
 OpenBabel11072414543D

 47 51  0  0  1  0  0  0  0  0999 V2000
  161.9940  208.2890  149.2900 C   0  0  0  0  0  2  0  0  0  0  0  0
  162.0250  205.3240  150.6750 O   0  0  0  0  0  1  0  0  0  0  0  0
  162.3150  206.7210  147.4680 O   0  0  0  0  0  0  0  0  0  0  0  0
  161.4380  205.6520  147.1880 C   0  0  2  0  0  3  0  0  0  0  0  0
  161.2980  204.7920  148.4410 C   0  0  1  0  0  3  0  0  0  0  0  0
  162.3810  203.8140  148.5210 N   0  0  0  0  0  1  0  0  0  0  0  0
  162.3510  206.8650  148.8700 C   0  0  2  0  0  3  0  0  0  0  0  0
  161.4450  205.8350  149.5120 C   0  0  2  0  0  3  0  0  0  0  0  0
  161.8690  204.8850  145.9280 C   0  0  2  0  0  3  0  0  0  0  0  0
  161.6840  205.8150  143.1580 C   0  0  0  0  0  1  0  0  0  0  0  0
  160.0230  203.9710  144.1680 O   0  0  0  0  0  0  0  0  0  0  0  0
  159.7610  206.2690  144.9610 O   0  0  0  0  0  0  0  0  0  0  0  0
  160.7620  205.2210  144.5570 S   0  0  0  0  0  0  0  0  0  0  0  0
  161.9020  203.3880  146.2040 C   0  0  0  0  0  2  0  0  0  0  0  0
  160.2580  201.4900  146.1390 C   0  0  0  0  0  3  0  0  0  0  0  0
  160.5680  202.7760  145.9380 C   0  0  0  0  0  3  0  0  0  0  0  0
  161.4340  199.4370  145.8380 O   0  0  0  0  0  1  0  0  0  0  0  0
  161.1380  200.4760  146.6560 N   0  0  0  0  0  0  0  0  0  0  0  0
  161.6330  200.4890  148.0350 C   0  0  0  0  0  2  0  0  0  0  0  0
  160.5850  200.9710  149.0320 C   0  0  0  0  0  2  0  0  0  0  0  0
  160.7800  202.3140  151.1690 C   0  0  0  0  0  0  0  0  0  0  0  0
  161.1900  201.2290  150.3350 N   0  0  0  0  0  2  0  0  0  0  0  0
  159.7680  203.1800  150.7630 O   0  0  0  0  0  0  0  0  0  0  0  0
  161.3410  202.4880  152.2820 O   0  0  0  0  0  1  0  0  0  0  0  0
  161.0090  208.3200  150.4520 C   0  0  0  0  0  2  0  0  0  0  0  0
  161.3660  207.8770  154.0790 C   0  0  0  0  0  2  0  0  0  0  0  0
  161.7290  208.6600  151.7450 C   0  0  2  0  0  3  0  0  0  0  0  0
  161.2840  207.6370  156.4660 O   0  0  0  0  0  1  0  0  0  0  0  0
  160.5610  210.5490  155.5840 C   0  0  2  0  0  0  0  0  0  0  0  0
  160.7390  208.6270  152.8980 C   0  0  2  0  0  3  0  0  0  0  0  0
  161.8570  210.1720  151.8900 C   0  0  0  0  0  2  0  0  0  0  0  0
  159.5670  210.8610  152.6260 C   0  0  0  0  0  1  0  0  0  0  0  0
  160.8530  210.1520  153.0250 C   0  0  1  0  0  0  0  0  0  0  0  0
  160.5060  207.9320  155.3460 C   0  0  1  0  0  3  0  0  0  0  0  0
  161.4690  210.6700  154.3380 C   0  0  0  0  0  2  0  0  0  0  0  0
  161.3780  210.5370  156.7220 O   0  0  0  0  0  1  0  0  0  0  0  0
  159.7290  209.2430  155.5540 C   0  0  0  0  0  2  0  0  0  0  0  0
  157.3290  212.4260  155.9650 C   0  0  2  0  0  0  0  0  0  0  0  0
  157.0460  213.4860  153.8200 C   0  0  0  0  0  2  0  0  0  0  0  0
  156.2050  212.3620  156.9790 C   0  0  0  0  0  1  0  0  0  0  0  0
  156.7800  212.2010  154.5760 C   0  0  0  0  0  2  0  0  0  0  0  0
  158.3760  211.3590  156.2830 C   0  0  0  0  0  2  0  0  0  0  0  0
  159.6430  211.7090  155.6330 N   0  0  1  0  0  0  0  0  0  0  0  0
  160.2480  212.8270  156.3780 C   0  0  0  0  0  2  0  0  0  0  0  0
  158.0900  214.2110  154.5290 N   0  0  0  0  0  2  0  0  0  0  0  0
  157.9240  213.8370  155.9250 C   0  0  2  0  0  3  0  0  0  0  0  0
  159.2530  213.9630  156.6780 C   0  0  0  0  0  2  0  0  0  0  0  0
  1 25  1  0  0  0  0
  3  7  1  0  0  0  0
  4  9  1  6  0  0  0
  4  3  1  0  0  0  0
  4  5  1  0  0  0  0
  5  6  1  1  0  0  0
  5  8  1  0  0  0  0
  7  1  1  6  0  0  0
  7  8  1  0  0  0  0
  8  2  1  1  0  0  0
  9 14  1  1  0  0  0
 10 13  1  0  0  0  0
 11 13  2  0  0  0  0
 13 12  2  0  0  0  0
 13  9  1  0  0  0  0
 15 18  1  0  0  0  0
 16 15  2  0  0  0  0
 16 14  1  0  0  0  0
 17 18  1  0  0  0  0
 18 19  1  0  0  0  0
 19 20  1  0  0  0  0
 20 22  1  0  0  0  0
 21 24  1  0  0  0  0
 22 21  1  0  0  0  0
 23 21  2  0  0  0  0
 26 34  1  0  0  0  0
 27 25  1  6  0  0  0
 27 31  1  0  0  0  0
 27 30  1  0  0  0  0
 29 43  1  0  0  0  0
 29 36  1  1  0  0  0
 30 33  1  0  0  0  0
 30 26  1  1  0  0  0
 31 33  1  0  0  0  0
 33 32  1  6  0  0  0
 33 35  1  0  0  0  0
 34 37  1  0  0  0  0
 34 28  1  1  0  0  0
 35 29  1  0  0  0  0
 37 29  1  0  0  0  0
 38 42  1  0  0  0  0
 38 40  1  1  0  0  0
 39 45  1  0  0  0  0
 39 41  1  0  0  0  0
 41 38  1  0  0  0  0
 43 42  1  1  0  0  0
 43 44  1  0  0  0  0
 44 47  1  0  0  0  0
 45 46  1  0  0  0  0
 46 38  1  0  0  0  0
 46 47  1  1  0  0  0
M  END
>  <MODEL>
4

>  <REMARK>
 VINA RESULT:      -5.3      3.379     10.817
  Name = 
  12 active torsions:
  status: ('A' for Active; 'I' for Inactive)
    1  A    between atoms: C_3  and  C_13
    2  A    between atoms: C_3  and  C_34
    3  A    between atoms: C_5  and  C_38
    4  A    between atoms: C_11  and  N_28
    5  A    between atoms: C_13  and  C_15
    6  A    between atoms: C_13  and  S_32
    7  A    between atoms: C_14  and  N_17
    8  A    between atoms: N_17  and  C_45
    9  A    between atoms: N_18  and  C_29
   10  A    between atoms: C_29  and  C_45
   11  A    between atoms: C_36  and  C_38
   12  A    between atoms: C_36  and  C_40
                            x       y       z     vdW  Elec       q    Type
                         _______ _______ _______ _____ _____    ______ ____

>  <TORSDO>
F 12

$$$$
=
 OpenBabel11072414543D

 47 51  0  0  1  0  0  0  0  0999 V2000
  160.7260  206.7520  152.7210 C   0  0  0  0  0  2  0  0  0  0  0  0
  160.8370  203.4850  152.8970 O   0  0  0  0  0  1  0  0  0  0  0  0
  161.6820  206.0170  150.6170 O   0  0  0  0  0  0  0  0  0  0  0  0
  161.0520  205.1050  149.7440 C   0  0  2  0  0  3  0  0  0  0  0  0
  160.7400  203.8250  150.5140 C   0  0  1  0  0  3  0  0  0  0  0  0
  161.8970  202.9330  150.5270 N   0  0  0  0  0  1  0  0  0  0  0  0
  161.3650  205.6130  151.9290 C   0  0  2  0  0  3  0  0  0  0  0  0
  160.4850  204.3820  151.8860 C   0  0  2  0  0  3  0  0  0  0  0  0
  161.8700  204.8980  148.4600 C   0  0  2  0  0  3  0  0  0  0  0  0
  162.5370  207.7490  148.4370 C   0  0  0  0  0  1  0  0  0  0  0  0
  162.7900  206.1970  146.2670 O   0  0  0  0  0  0  0  0  0  0  0  0
  160.5200  206.7290  147.0060 O   0  0  0  0  0  0  0  0  0  0  0  0
  161.9110  206.3940  147.4710 S   0  0  0  0  0  0  0  0  0  0  0  0
  161.2860  203.7570  147.6370 C   0  0  0  0  0  2  0  0  0  0  0  0
  161.7530  203.3700  145.2000 C   0  0  0  0  0  3  0  0  0  0  0  0
  162.1630  203.4490  146.4710 C   0  0  0  0  0  3  0  0  0  0  0  0
  160.0230  204.8600  144.5100 O   0  0  0  0  0  1  0  0  0  0  0  0
  160.4110  203.5800  144.7270 N   0  0  0  0  0  0  0  0  0  0  0  0
  159.4510  202.4850  144.5660 C   0  0  0  0  0  2  0  0  0  0  0  0
  159.9930  201.1490  145.0600 C   0  0  0  0  0  2  0  0  0  0  0  0
  161.2280  200.3120  147.1050 C   0  0  0  0  0  0  0  0  0  0  0  0
  160.3090  201.2120  146.4830 N   0  0  0  0  0  2  0  0  0  0  0  0
  161.8670  199.3230  146.3620 O   0  0  0  0  0  0  0  0  0  0  0  0
  161.4590  200.4140  148.3370 O   0  0  0  0  0  1  0  0  0  0  0  0
  160.6600  208.0470  151.9210 C   0  0  0  0  0  2  0  0  0  0  0  0
  161.9540  209.4100  155.0750 C   0  0  0  0  0  2  0  0  0  0  0  0
  161.3610  209.1660  152.6700 C   0  0  2  0  0  3  0  0  0  0  0  0
  162.5160  210.2280  157.2610 O   0  0  0  0  0  1  0  0  0  0  0  0
  160.2400  211.9280  155.9540 C   0  0  2  0  0  0  0  0  0  0  0  0
  160.7980  209.2620  154.0790 C   0  0  2  0  0  3  0  0  0  0  0  0
  160.7270  210.5070  152.3190 C   0  0  0  0  0  2  0  0  0  0  0  0
  158.6240  210.5040  153.6740 C   0  0  0  0  0  1  0  0  0  0  0  0
  160.1410  210.5990  153.7140 C   0  0  1  0  0  0  0  0  0  0  0  0
  161.4790  209.6770  156.5070 C   0  0  1  0  0  3  0  0  0  0  0  0
  160.6700  211.8330  154.4720 C   0  0  0  0  0  2  0  0  0  0  0  0
  161.1680  212.7310  156.6280 O   0  0  0  0  0  1  0  0  0  0  0  0
  160.2070  210.5330  156.6260 C   0  0  0  0  0  2  0  0  0  0  0  0
  156.5030  212.0980  156.3040 C   0  0  2  0  0  0  0  0  0  0  0  0
  155.7930  213.0700  154.2160 C   0  0  0  0  0  2  0  0  0  0  0  0
  155.5200  211.4550  157.2600 C   0  0  0  0  0  1  0  0  0  0  0  0
  156.1340  211.7520  154.8800 C   0  0  0  0  0  2  0  0  0  0  0  0
  157.9170  211.6020  156.6030 C   0  0  0  0  0  2  0  0  0  0  0  0
  158.8930  212.5380  156.0320 N   0  0  1  0  0  0  0  0  0  0  0  0
  158.9120  213.7490  156.8700 C   0  0  0  0  0  2  0  0  0  0  0  0
  156.3820  214.1350  155.0130 N   0  0  0  0  0  2  0  0  0  0  0  0
  156.3890  213.6230  156.3760 C   0  0  2  0  0  3  0  0  0  0  0  0
  157.5050  214.2830  157.1930 C   0  0  0  0  0  2  0  0  0  0  0  0
  3  7  1  0  0  0  0
  4  9  1  6  0  0  0
  4  5  1  0  0  0  0
  4  3  1  0  0  0  0
  5  6  1  1  0  0  0
  5  8  1  0  0  0  0
  7  1  1  6  0  0  0
  8  7  1  0  0  0  0
  8  2  1  1  0  0  0
  9 14  1  6  0  0  0
 11 13  2  0  0  0  0
 12 13  2  0  0  0  0
 13 10  1  0  0  0  0
 13  9  1  0  0  0  0
 15 16  2  0  0  0  0
 16 14  1  0  0  0  0
 17 18  1  0  0  0  0
 18 15  1  0  0  0  0
 19 18  1  0  0  0  0
 19 20  1  0  0  0  0
 20 22  1  0  0  0  0
 21 24  1  0  0  0  0
 22 21  1  0  0  0  0
 23 21  2  0  0  0  0
 25  1  1  0  0  0  0
 26 34  1  0  0  0  0
 27 25  1  6  0  0  0
 27 30  1  0  0  0  0
 29 43  1  0  0  0  0
 29 37  1  0  0  0  0
 29 36  1  1  0  0  0
 30 26  1  1  0  0  0
 31 27  1  0  0  0  0
 31 33  1  0  0  0  0
 33 32  1  1  0  0  0
 33 30  1  0  0  0  0
 33 35  1  0  0  0  0
 34 37  1  0  0  0  0
 34 28  1  1  0  0  0
 35 29  1  0  0  0  0
 38 46  1  0  0  0  0
 38 42  1  0  0  0  0
 38 40  1  1  0  0  0
 39 41  1  0  0  0  0
 39 45  1  0  0  0  0
 41 38  1  0  0  0  0
 43 42  1  1  0  0  0
 43 44  1  0  0  0  0
 44 47  1  0  0  0  0
 45 46  1  0  0  0  0
 46 47  1  1  0  0  0
M  END
>  <MODEL>
5

>  <REMARK>
 VINA RESULT:      -5.1      3.267     10.728
  Name = 
  12 active torsions:
  status: ('A' for Active; 'I' for Inactive)
    1  A    between atoms: C_3  and  C_13
    2  A    between atoms: C_3  and  C_34
    3  A    between atoms: C_5  and  C_38
    4  A    between atoms: C_11  and  N_28
    5  A    between atoms: C_13  and  C_15
    6  A    between atoms: C_13  and  S_32
    7  A    between atoms: C_14  and  N_17
    8  A    between atoms: N_17  and  C_45
    9  A    between atoms: N_18  and  C_29
   10  A    between atoms: C_29  and  C_45
   11  A    between atoms: C_36  and  C_38
   12  A    between atoms: C_36  and  C_40
                            x       y       z     vdW  Elec       q    Type
                         _______ _______ _______ _____ _____    ______ ____

>  <TORSDO>
F 12

$$$$
=
 OpenBabel11072414543D

 47 51  0  0  1  0  0  0  0  0999 V2000
  161.6570  207.9410  152.0390 C   0  0  0  0  0  2  0  0  0  0  0  0
  161.2840  208.8030  155.1750 O   0  0  0  0  0  1  0  0  0  0  0  0
  160.1880  209.8710  152.0150 O   0  0  0  0  0  0  0  0  0  0  0  0
  160.5180  211.1160  152.5910 C   0  0  2  0  0  3  0  0  0  0  0  0
  160.8740  210.8980  154.0590 C   0  0  1  0  0  3  0  0  0  0  0  0
  159.6720  210.8920  154.8880 N   0  0  0  0  0  1  0  0  0  0  0  0
  160.7530  208.8770  152.8390 C   0  0  2  0  0  3  0  0  0  0  0  0
  161.4820  209.5260  153.9960 C   0  0  2  0  0  3  0  0  0  0  0  0
  159.4170  212.1590  152.3460 C   0  0  2  0  0  3  0  0  0  0  0  0
  158.2170  213.1990  149.8860 C   0  0  0  0  0  1  0  0  0  0  0  0
  160.2200  214.4530  151.1490 O   0  0  0  0  0  0  0  0  0  0  0  0
  160.7520  212.3570  150.0080 O   0  0  0  0  0  0  0  0  0  0  0  0
  159.7170  213.0720  150.8310 S   0  0  0  0  0  0  0  0  0  0  0  0
  159.3330  213.1270  153.5190 C   0  0  0  0  0  2  0  0  0  0  0  0
  157.3030  213.9130  154.7710 C   0  0  0  0  0  3  0  0  0  0  0  0
  157.9630  213.7050  153.6260 C   0  0  0  0  0  3  0  0  0  0  0  0
  158.9100  214.2930  156.4920 O   0  0  0  0  0  1  0  0  0  0  0  0
  157.7930  213.6370  156.0950 N   0  0  0  0  0  0  0  0  0  0  0  0
  157.1870  212.6270  156.9660 C   0  0  0  0  0  2  0  0  0  0  0  0
  155.6790  212.5130  156.7740 C   0  0  0  0  0  2  0  0  0  0  0  0
  155.1560  210.4180  155.4520 C   0  0  0  0  0  0  0  0  0  0  0  0
  155.2710  211.1140  156.6940 N   0  0  0  0  0  2  0  0  0  0  0  0
  155.4330  211.0620  154.2490 O   0  0  0  0  0  0  0  0  0  0  0  0
  154.7980  209.2120  155.4460 O   0  0  0  0  0  1  0  0  0  0  0  0
  161.9960  206.6680  152.8050 C   0  0  0  0  0  2  0  0  0  0  0  0
  161.3870  203.1320  152.0270 C   0  0  0  0  0  2  0  0  0  0  0  0
  161.0240  205.5590  152.4410 C   0  0  2  0  0  3  0  0  0  0  0  0
  161.2320  200.8460  151.3130 O   0  0  0  0  0  1  0  0  0  0  0  0
  160.5410  202.8190  148.9870 C   0  0  2  0  0  0  0  0  0  0  0  0
  161.7230  204.5490  151.5460 C   0  0  2  0  0  3  0  0  0  0  0  0
  160.1470  205.9950  151.2740 C   0  0  0  0  0  2  0  0  0  0  0  0
  161.6640  205.7300  149.3020 C   0  0  0  0  0  1  0  0  0  0  0  0
  160.8550  205.0080  150.3680 C   0  0  1  0  0  0  0  0  0  0  0  0
  161.9150  202.0420  151.0890 C   0  0  1  0  0  3  0  0  0  0  0  0
  159.8810  203.9540  149.8040 C   0  0  0  0  0  2  0  0  0  0  0  0
  159.6820  201.7130  149.0040 O   0  0  0  0  0  1  0  0  0  0  0  0
  161.9030  202.4020  149.5940 C   0  0  0  0  0  2  0  0  0  0  0  0
  162.2350  204.4940  146.0820 C   0  0  2  0  0  0  0  0  0  0  0  0
  160.6450  206.1740  145.4050 C   0  0  0  0  0  2  0  0  0  0  0  0
  163.6610  204.4900  145.5700 C   0  0  0  0  0  1  0  0  0  0  0  0
  161.7940  205.9110  146.3580 C   0  0  0  0  0  2  0  0  0  0  0  0
  162.1430  203.6680  147.3640 C   0  0  0  0  0  2  0  0  0  0  0  0
  160.7470  203.2780  147.5950 N   0  0  1  0  0  0  0  0  0  0  0  0
  160.4020  202.2160  146.6340 C   0  0  0  0  0  2  0  0  0  0  0  0
  160.1320  204.8860  144.9630 N   0  0  0  0  0  2  0  0  0  0  0  0
  161.2810  203.9940  144.9930 C   0  0  2  0  0  3  0  0  0  0  0  0
  160.8300  202.5420  145.1920 C   0  0  0  0  0  2  0  0  0  0  0  0
  1 25  1  0  0  0  0
  3  4  1  0  0  0  0
  3  7  1  0  0  0  0
  4  9  1  1  0  0  0
  4  5  1  0  0  0  0
  5  6  1  1  0  0  0
  7  1  1  6  0  0  0
  7  8  1  0  0  0  0
  8  5  1  0  0  0  0
  8  2  1  1  0  0  0
  9 14  1  1  0  0  0
 10 13  1  0  0  0  0
 12 13  2  0  0  0  0
 13 11  2  0  0  0  0
 13  9  1  0  0  0  0
 14 16  1  0  0  0  0
 15 18  1  0  0  0  0
 16 15  2  0  0  0  0
 18 17  1  0  0  0  0
 18 19  1  0  0  0  0
 20 19  1  0  0  0  0
 21 22  1  0  0  0  0
 22 20  1  0  0  0  0
 23 21  2  0  0  0  0
 24 21  1  0  0  0  0
 27 25  1  6  0  0  0
 29 36  1  6  0  0  0
 29 37  1  0  0  0  0
 29 35  1  0  0  0  0
 30 26  1  1  0  0  0
 30 27  1  0  0  0  0
 31 27  1  0  0  0  0
 33 32  1  6  0  0  0
 33 31  1  0  0  0  0
 33 30  1  0  0  0  0
 34 28  1  6  0  0  0
 34 26  1  0  0  0  0
 35 33  1  0  0  0  0
 37 34  1  0  0  0  0
 38 40  1  6  0  0  0
 38 41  1  0  0  0  0
 38 42  1  0  0  0  0
 39 41  1  0  0  0  0
 42 43  1  0  0  0  0
 43 44  1  6  0  0  0
 43 29  1  0  0  0  0
 45 46  1  0  0  0  0
 45 39  1  0  0  0  0
 46 47  1  1  0  0  0
 46 38  1  0  0  0  0
 47 44  1  0  0  0  0
M  END
>  <MODEL>
6

>  <REMARK>
 VINA RESULT:      -4.8      2.370      4.273
  Name = 
  12 active torsions:
  status: ('A' for Active; 'I' for Inactive)
    1  A    between atoms: C_3  and  C_13
    2  A    between atoms: C_3  and  C_34
    3  A    between atoms: C_5  and  C_38
    4  A    between atoms: C_11  and  N_28
    5  A    between atoms: C_13  and  C_15
    6  A    between atoms: C_13  and  S_32
    7  A    between atoms: C_14  and  N_17
    8  A    between atoms: N_17  and  C_45
    9  A    between atoms: N_18  and  C_29
   10  A    between atoms: C_29  and  C_45
   11  A    between atoms: C_36  and  C_38
   12  A    between atoms: C_36  and  C_40
                            x       y       z     vdW  Elec       q    Type
                         _______ _______ _______ _____ _____    ______ ____

>  <TORSDO>
F 12

$$$$
=
 OpenBabel11072414543D

 47 51  0  0  1  0  0  0  0  0999 V2000
  162.0680  207.6660  150.1230 C   0  0  0  0  0  2  0  0  0  0  0  0
  163.0950  205.5850  152.4320 O   0  0  0  0  0  1  0  0  0  0  0  0
  161.4630  205.4560  149.3260 O   0  0  0  0  0  0  0  0  0  0  0  0
  160.6660  204.5490  150.0570 C   0  0  2  0  0  3  0  0  0  0  0  0
  161.3080  204.3240  151.4230 C   0  0  1  0  0  3  0  0  0  0  0  0
  162.3310  203.2850  151.3500 N   0  0  0  0  0  1  0  0  0  0  0  0
  162.2500  206.1560  150.2640 C   0  0  2  0  0  3  0  0  0  0  0  0
  161.9330  205.6690  151.6620 C   0  0  2  0  0  3  0  0  0  0  0  0
  160.3960  203.2660  149.2550 C   0  0  2  0  0  3  0  0  0  0  0  0
  158.6750  200.9520  149.7590 C   0  0  0  0  0  1  0  0  0  0  0  0
  161.2750  200.9770  150.4070 O   0  0  0  0  0  0  0  0  0  0  0  0
  159.7760  202.3840  151.7310 O   0  0  0  0  0  0  0  0  0  0  0  0
  160.0730  201.8790  150.3460 S   0  0  0  0  0  0  0  0  0  0  0  0
  161.5810  202.9440  148.3550 C   0  0  0  0  0  2  0  0  0  0  0  0
  161.0440  201.4270  146.4270 C   0  0  0  0  0  3  0  0  0  0  0  0
  161.3990  201.6150  147.7030 C   0  0  0  0  0  3  0  0  0  0  0  0
  159.7010  202.3090  144.6640 O   0  0  0  0  0  1  0  0  0  0  0  0
  160.7900  202.4580  145.4560 N   0  0  0  0  0  0  0  0  0  0  0  0
  161.7020  203.5850  145.2440 C   0  0  0  0  0  2  0  0  0  0  0  0
  161.0650  204.7170  144.4470 C   0  0  0  0  0  2  0  0  0  0  0  0
  161.0890  206.3810  146.3550 C   0  0  0  0  0  0  0  0  0  0  0  0
  160.3940  205.6620  145.3350 N   0  0  0  0  0  2  0  0  0  0  0  0
  162.4570  206.2030  146.5440 O   0  0  0  0  0  0  0  0  0  0  0  0
  160.4560  207.1810  147.0910 O   0  0  0  0  0  1  0  0  0  0  0  0
  160.9970  208.2090  151.0600 C   0  0  0  0  0  2  0  0  0  0  0  0
  161.2050  208.2240  154.7260 C   0  0  0  0  0  2  0  0  0  0  0  0
  161.6310  208.7470  152.3310 C   0  0  2  0  0  3  0  0  0  0  0  0
  161.0240  208.2630  157.1190 O   0  0  0  0  0  1  0  0  0  0  0  0
  160.1640  210.9940  155.8620 C   0  0  2  0  0  0  0  0  0  0  0  0
  160.5910  208.7850  153.4380 C   0  0  2  0  0  3  0  0  0  0  0  0
  161.6580  210.2710  152.2960 C   0  0  0  0  0  2  0  0  0  0  0  0
  159.2970  210.8860  152.8500 C   0  0  0  0  0  1  0  0  0  0  0  0
  160.6030  210.3180  153.3830 C   0  0  1  0  0  0  0  0  0  0  0  0
  160.2830  208.3700  155.9410 C   0  0  1  0  0  3  0  0  0  0  0  0
  161.1220  211.0290  154.6480 C   0  0  0  0  0  2  0  0  0  0  0  0
  160.9240  211.1730  157.0240 O   0  0  0  0  0  1  0  0  0  0  0  0
  159.4180  209.6410  155.9570 C   0  0  0  0  0  2  0  0  0  0  0  0
  156.8200  212.7040  155.9720 C   0  0  2  0  0  0  0  0  0  0  0  0
  156.4660  213.3800  153.6860 C   0  0  0  0  0  2  0  0  0  0  0  0
  155.7050  212.7360  156.9970 C   0  0  0  0  0  1  0  0  0  0  0  0
  156.2840  212.2210  154.6460 C   0  0  0  0  0  2  0  0  0  0  0  0
  157.9330  211.7700  156.4470 C   0  0  0  0  0  2  0  0  0  0  0  0
  159.1750  212.0880  155.7320 N   0  0  1  0  0  0  0  0  0  0  0  0
  159.7090  213.3480  156.2780 C   0  0  0  0  0  2  0  0  0  0  0  0
  157.4630  214.2740  154.2550 N   0  0  0  0  0  2  0  0  0  0  0  0
  157.3250  214.1230  155.6950 C   0  0  2  0  0  3  0  0  0  0  0  0
  158.6450  214.4530  156.4010 C   0  0  0  0  0  2  0  0  0  0  0  0
  1 25  1  0  0  0  0
  3  4  1  0  0  0  0
  3  7  1  0  0  0  0
  4  9  1  6  0  0  0
  4  5  1  0  0  0  0
  5  6  1  6  0  0  0
  5  8  1  0  0  0  0
  7  1  1  1  0  0  0
  7  8  1  0  0  0  0
  8  2  1  1  0  0  0
  9 14  1  1  0  0  0
  9 13  1  0  0  0  0
 10 13  1  0  0  0  0
 13 11  2  0  0  0  0
 13 12  2  0  0  0  0
 15 16  2  0  0  0  0
 16 14  1  0  0  0  0
 17 18  1  0  0  0  0
 18 15  1  0  0  0  0
 19 18  1  0  0  0  0
 20 19  1  0  0  0  0
 20 22  1  0  0  0  0
 21 23  2  0  0  0  0
 21 24  1  0  0  0  0
 22 21  1  0  0  0  0
 26 34  1  0  0  0  0
 27 25  1  6  0  0  0
 27 30  1  0  0  0  0
 29 37  1  0  0  0  0
 29 36  1  1  0  0  0
 30 26  1  1  0  0  0
 31 27  1  0  0  0  0
 31 33  1  0  0  0  0
 33 32  1  6  0  0  0
 33 30  1  0  0  0  0
 33 35  1  0  0  0  0
 34 37  1  0  0  0  0
 34 28  1  1  0  0  0
 35 29  1  0  0  0  0
 38 42  1  0  0  0  0
 38 40  1  1  0  0  0
 39 45  1  0  0  0  0
 39 41  1  0  0  0  0
 41 38  1  0  0  0  0
 43 29  1  0  0  0  0
 43 44  1  1  0  0  0
 43 42  1  0  0  0  0
 44 47  1  0  0  0  0
 45 46  1  0  0  0  0
 46 38  1  0  0  0  0
 46 47  1  1  0  0  0
M  END
>  <MODEL>
7

>  <REMARK>
 VINA RESULT:      -4.4      3.175     10.179
  Name = 
  12 active torsions:
  status: ('A' for Active; 'I' for Inactive)
    1  A    between atoms: C_3  and  C_13
    2  A    between atoms: C_3  and  C_34
    3  A    between atoms: C_5  and  C_38
    4  A    between atoms: C_11  and  N_28
    5  A    between atoms: C_13  and  C_15
    6  A    between atoms: C_13  and  S_32
    7  A    between atoms: C_14  and  N_17
    8  A    between atoms: N_17  and  C_45
    9  A    between atoms: N_18  and  C_29
   10  A    between atoms: C_29  and  C_45
   11  A    between atoms: C_36  and  C_38
   12  A    between atoms: C_36  and  C_40
                            x       y       z     vdW  Elec       q    Type
                         _______ _______ _______ _____ _____    ______ ____

>  <TORSDO>
F 12

$$$$
=
 OpenBabel11072414543D

 47 51  0  0  1  0  0  0  0  0999 V2000
  161.8110  207.4770  152.5550 C   0  0  0  0  0  2  0  0  0  0  0  0
  160.3590  206.6710  155.3750 O   0  0  0  0  0  1  0  0  0  0  0  0
  160.7480  209.5090  153.3450 O   0  0  0  0  0  0  0  0  0  0  0  0
  160.9930  210.0810  154.6120 C   0  0  2  0  0  3  0  0  0  0  0  0
  160.7110  209.0340  155.6850 C   0  0  1  0  0  3  0  0  0  0  0  0
  159.2910  209.0120  156.0270 N   0  0  0  0  0  1  0  0  0  0  0  0
  160.8030  208.1100  153.5110 C   0  0  2  0  0  3  0  0  0  0  0  0
  161.1010  207.7780  154.9580 C   0  0  2  0  0  3  0  0  0  0  0  0
  160.2300  211.4030  154.7880 C   0  0  2  0  0  3  0  0  0  0  0  0
  160.4050  213.7270  156.5600 C   0  0  0  0  0  1  0  0  0  0  0  0
  159.0360  211.5200  157.2170 O   0  0  0  0  0  0  0  0  0  0  0  0
  161.4750  211.3570  157.1840 O   0  0  0  0  0  0  0  0  0  0  0  0
  160.2800  211.9550  156.4940 S   0  0  0  0  0  0  0  0  0  0  0  0
  158.7820  211.2420  154.3450 C   0  0  0  0  0  2  0  0  0  0  0  0
  158.3100  212.4060  152.1700 C   0  0  0  0  0  3  0  0  0  0  0  0
  158.6770  211.3200  152.8590 C   0  0  0  0  0  3  0  0  0  0  0  0
  158.9180  214.3220  153.4540 O   0  0  0  0  0  1  0  0  0  0  0  0
  157.9680  213.6890  152.7260 N   0  0  0  0  0  0  0  0  0  0  0  0
  156.6280  214.2690  152.6050 C   0  0  0  0  0  2  0  0  0  0  0  0
  155.6540  213.7220  153.6420 C   0  0  0  0  0  2  0  0  0  0  0  0
  155.8210  213.6740  156.1680 C   0  0  0  0  0  0  0  0  0  0  0  0
  155.8410  214.3850  154.9290 N   0  0  0  0  0  2  0  0  0  0  0  0
  155.6190  212.2960  156.1940 O   0  0  0  0  0  0  0  0  0  0  0  0
  155.9860  214.3000  157.2460 O   0  0  0  0  0  1  0  0  0  0  0  0
  162.2240  206.0760  152.9920 C   0  0  0  0  0  2  0  0  0  0  0  0
  161.3800  202.6570  151.9550 C   0  0  0  0  0  2  0  0  0  0  0  0
  161.1780  205.0610  152.5630 C   0  0  2  0  0  3  0  0  0  0  0  0
  161.0700  200.4470  151.0690 O   0  0  0  0  0  1  0  0  0  0  0  0
  160.4700  202.6360  148.9180 C   0  0  2  0  0  0  0  0  0  0  0  0
  161.7980  204.0830  151.5790 C   0  0  2  0  0  3  0  0  0  0  0  0
  160.3120  205.6410  151.4510 C   0  0  0  0  0  2  0  0  0  0  0  0
  161.7790  205.4380  149.4340 C   0  0  0  0  0  1  0  0  0  0  0  0
  160.9420  204.6860  150.4570 C   0  0  1  0  0  0  0  0  0  0  0  0
  161.8240  201.6130  150.9250 C   0  0  1  0  0  3  0  0  0  0  0  0
  159.8950  203.7420  149.8340 C   0  0  0  0  0  2  0  0  0  0  0  0
  159.5440  201.5870  148.8660 O   0  0  0  0  0  1  0  0  0  0  0  0
  161.8120  202.0890  149.4630 C   0  0  0  0  0  2  0  0  0  0  0  0
  162.1410  204.5660  146.1620 C   0  0  2  0  0  0  0  0  0  0  0  0
  160.4840  206.2050  145.5480 C   0  0  0  0  0  2  0  0  0  0  0  0
  163.5760  204.6640  145.6860 C   0  0  0  0  0  1  0  0  0  0  0  0
  161.6230  205.9410  146.5120 C   0  0  0  0  0  2  0  0  0  0  0  0
  162.0620  203.6590  147.3900 C   0  0  0  0  0  2  0  0  0  0  0  0
  160.6830  203.1890  147.5610 N   0  0  1  0  0  0  0  0  0  0  0  0
  160.4120  202.1730  146.5300 C   0  0  0  0  0  2  0  0  0  0  0  0
  160.0460  204.9240  145.0170 N   0  0  0  0  0  2  0  0  0  0  0  0
  161.2370  204.0880  145.0220 C   0  0  2  0  0  3  0  0  0  0  0  0
  160.8560  202.6070  145.1220 C   0  0  0  0  0  2  0  0  0  0  0  0
  1 25  1  0  0  0  0
  3  7  1  0  0  0  0
  3  4  1  0  0  0  0
  4  9  1  1  0  0  0
  4  5  1  0  0  0  0
  5  6  1  6  0  0  0
  7  1  1  6  0  0  0
  7  8  1  0  0  0  0
  8  2  1  1  0  0  0
  8  5  1  0  0  0  0
  9 14  1  1  0  0  0
  9 13  1  0  0  0  0
 13 10  1  0  0  0  0
 13 12  2  0  0  0  0
 13 11  2  0  0  0  0
 15 18  1  0  0  0  0
 15 16  2  0  0  0  0
 16 14  1  0  0  0  0
 18 17  1  0  0  0  0
 19 18  1  0  0  0  0
 19 20  1  0  0  0  0
 20 22  1  0  0  0  0
 21 23  2  0  0  0  0
 21 24  1  0  0  0  0
 22 21  1  0  0  0  0
 27 25  1  6  0  0  0
 29 36  1  6  0  0  0
 29 37  1  0  0  0  0
 29 35  1  0  0  0  0
 30 26  1  1  0  0  0
 30 27  1  0  0  0  0
 31 27  1  0  0  0  0
 33 32  1  6  0  0  0
 33 31  1  0  0  0  0
 33 30  1  0  0  0  0
 34 28  1  6  0  0  0
 34 26  1  0  0  0  0
 35 33  1  0  0  0  0
 37 34  1  0  0  0  0
 38 40  1  6  0  0  0
 38 41  1  0  0  0  0
 38 42  1  0  0  0  0
 39 41  1  0  0  0  0
 42 43  1  0  0  0  0
 43 44  1  6  0  0  0
 43 29  1  0  0  0  0
 45 46  1  0  0  0  0
 45 39  1  0  0  0  0
 46 47  1  1  0  0  0
 46 38  1  0  0  0  0
 47 44  1  0  0  0  0
M  END
>  <MODEL>
8

>  <REMARK>
 VINA RESULT:      -4.4      2.272      3.666
  Name = 
  12 active torsions:
  status: ('A' for Active; 'I' for Inactive)
    1  A    between atoms: C_3  and  C_13
    2  A    between atoms: C_3  and  C_34
    3  A    between atoms: C_5  and  C_38
    4  A    between atoms: C_11  and  N_28
    5  A    between atoms: C_13  and  C_15
    6  A    between atoms: C_13  and  S_32
    7  A    between atoms: C_14  and  N_17
    8  A    between atoms: N_17  and  C_45
    9  A    between atoms: N_18  and  C_29
   10  A    between atoms: C_29  and  C_45
   11  A    between atoms: C_36  and  C_38
   12  A    between atoms: C_36  and  C_40
                            x       y       z     vdW  Elec       q    Type
                         _______ _______ _______ _____ _____    ______ ____

>  <TORSDO>
F 12

$$$$
=
 OpenBabel11072414543D

 47 51  0  0  1  0  0  0  0  0999 V2000
  162.8050  210.1320  154.1070 C   0  0  0  0  0  2  0  0  0  0  0  0
  161.8820  209.7550  157.2250 O   0  0  0  0  0  1  0  0  0  0  0  0
  160.6530  211.2370  154.2890 O   0  0  0  0  0  0  0  0  0  0  0  0
  160.3750  212.2650  155.2140 C   0  0  2  0  0  3  0  0  0  0  0  0
  160.6880  211.7580  156.6190 C   0  0  1  0  0  3  0  0  0  0  0  0
  159.5510  211.0250  157.1700 N   0  0  0  0  0  1  0  0  0  0  0  0
  161.5330  210.3390  154.9280 C   0  0  2  0  0  3  0  0  0  0  0  0
  161.8300  210.8260  156.3300 C   0  0  2  0  0  3  0  0  0  0  0  0
  158.9510  212.8140  155.0320 C   0  0  2  0  0  3  0  0  0  0  0  0
  156.1560  212.0280  154.6610 C   0  0  0  0  0  1  0  0  0  0  0  0
  158.0810  211.3520  152.9240 O   0  0  0  0  0  0  0  0  0  0  0  0
  158.1050  210.2510  155.1070 O   0  0  0  0  0  0  0  0  0  0  0  0
  157.8470  211.5510  154.3960 S   0  0  0  0  0  0  0  0  0  0  0  0
  158.9610  214.0090  154.0870 C   0  0  0  0  0  2  0  0  0  0  0  0
  157.2660  214.3780  152.2720 C   0  0  0  0  0  3  0  0  0  0  0  0
  157.5900  214.2760  153.5660 C   0  0  0  0  0  3  0  0  0  0  0  0
  159.4850  214.1210  151.4370 O   0  0  0  0  0  1  0  0  0  0  0  0
  158.1640  214.2350  151.1580 N   0  0  0  0  0  0  0  0  0  0  0  0
  157.7120  214.3010  149.7660 C   0  0  0  0  0  2  0  0  0  0  0  0
  158.7200  213.7050  148.7900 C   0  0  0  0  0  2  0  0  0  0  0  0
  158.7900  212.7870  146.4310 C   0  0  0  0  0  0  0  0  0  0  0  0
  158.0910  213.4210  147.5040 N   0  0  0  0  0  2  0  0  0  0  0  0
  160.1220  212.4090  146.5770 O   0  0  0  0  0  1  0  0  0  0  0  0
  158.1950  212.5700  145.3440 O   0  0  0  0  0  0  0  0  0  0  0  0
  162.5070  209.8210  152.6460 C   0  0  0  0  0  2  0  0  0  0  0  0
  161.5830  206.2730  152.8360 C   0  0  0  0  0  2  0  0  0  0  0  0
  161.4450  208.7400  152.5420 C   0  0  2  0  0  3  0  0  0  0  0  0
  161.2300  203.8990  152.7710 O   0  0  0  0  0  1  0  0  0  0  0  0
  160.8220  205.1930  149.9540 C   0  0  2  0  0  0  0  0  0  0  0  0
  162.0740  207.4650  152.0060 C   0  0  2  0  0  3  0  0  0  0  0  0
  160.6580  208.9040  151.2470 C   0  0  0  0  0  2  0  0  0  0  0  0
  162.2140  207.9700  149.5240 C   0  0  0  0  0  1  0  0  0  0  0  0
  161.2980  207.6460  150.6940 C   0  0  1  0  0  0  0  0  0  0  0  0
  162.0350  204.9230  152.2700 C   0  0  1  0  0  3  0  0  0  0  0  0
  160.2470  206.5630  150.3830 C   0  0  0  0  0  2  0  0  0  0  0  0
  159.8590  204.2120  150.2210 O   0  0  0  0  0  1  0  0  0  0  0  0
  162.1140  204.8500  150.7360 C   0  0  0  0  0  2  0  0  0  0  0  0
  161.5260  203.8700  146.5090 C   0  0  2  0  0  0  0  0  0  0  0  0
  163.7320  204.7130  146.0300 C   0  0  0  0  0  2  0  0  0  0  0  0
  160.8780  202.7980  145.6570 C   0  0  0  0  0  1  0  0  0  0  0  0
  162.9940  203.5640  146.6870 C   0  0  0  0  0  2  0  0  0  0  0  0
  160.8440  203.9290  147.8750 C   0  0  0  0  0  2  0  0  0  0  0  0
  161.1230  205.2240  148.5050 N   0  0  1  0  0  0  0  0  0  0  0  0
  160.3180  206.2510  147.8210 C   0  0  0  0  0  2  0  0  0  0  0  0
  162.8060  205.8290  145.9170 N   0  0  0  0  0  2  0  0  0  0  0  0
  161.4940  205.2160  145.7790 C   0  0  2  0  0  3  0  0  0  0  0  0
  160.4000  206.1620  146.2870 C   0  0  0  0  0  2  0  0  0  0  0  0
  3  7  1  0  0  0  0
  3  4  1  0  0  0  0
  4  9  1  1  0  0  0
  4  5  1  0  0  0  0
  5  6  1  6  0  0  0
  7  1  1  6  0  0  0
  7  8  1  0  0  0  0
  8  5  1  0  0  0  0
  8  2  1  1  0  0  0
  9 14  1  6  0  0  0
 11 13  2  0  0  0  0
 13 10  1  0  0  0  0
 13  9  1  0  0  0  0
 13 12  2  0  0  0  0
 15 16  2  0  0  0  0
 16 14  1  0  0  0  0
 18 17  1  0  0  0  0
 18 15  1  0  0  0  0
 19 18  1  0  0  0  0
 20 19  1  0  0  0  0
 21 23  1  0  0  0  0
 21 22  1  0  0  0  0
 22 20  1  0  0  0  0
 24 21  2  0  0  0  0
 25  1  1  0  0  0  0
 27 25  1  6  0  0  0
 29 36  1  1  0  0  0
 29 35  1  0  0  0  0
 29 37  1  0  0  0  0
 30 27  1  0  0  0  0
 30 26  1  1  0  0  0
 31 27  1  0  0  0  0
 33 32  1  6  0  0  0
 33 31  1  0  0  0  0
 33 30  1  0  0  0  0
 34 28  1  6  0  0  0
 34 26  1  0  0  0  0
 35 33  1  0  0  0  0
 37 34  1  0  0  0  0
 38 40  1  6  0  0  0
 38 41  1  0  0  0  0
 38 42  1  0  0  0  0
 39 41  1  0  0  0  0
 42 43  1  0  0  0  0
 43 44  1  6  0  0  0
 43 29  1  0  0  0  0
 45 39  1  0  0  0  0
 46 45  1  0  0  0  0
 46 47  1  1  0  0  0
 46 38  1  0  0  0  0
 47 44  1  0  0  0  0
M  END
>  <MODEL>
9

>  <REMARK>
 VINA RESULT:      -4.3      2.299      3.393
  Name = 
  12 active torsions:
  status: ('A' for Active; 'I' for Inactive)
    1  A    between atoms: C_3  and  C_13
    2  A    between atoms: C_3  and  C_34
    3  A    between atoms: C_5  and  C_38
    4  A    between atoms: C_11  and  N_28
    5  A    between atoms: C_13  and  C_15
    6  A    between atoms: C_13  and  S_32
    7  A    between atoms: C_14  and  N_17
    8  A    between atoms: N_17  and  C_45
    9  A    between atoms: N_18  and  C_29
   10  A    between atoms: C_29  and  C_45
   11  A    between atoms: C_36  and  C_38
   12  A    between atoms: C_36  and  C_40
                            x       y       z     vdW  Elec       q    Type
                         _______ _______ _______ _____ _____    ______ ____

>  <TORSDO>
F 12

$$$$
