=
 OpenBabel11072411013D

 30 32  0  0  1  0  0  0  0  0999 V2000
  161.2980  209.4640  152.6450 C   0  0  0  0  0  0  0  0  0  0  0  0
  161.0160  207.0080  152.1830 C   0  0  2  0  0  3  0  0  0  0  0  0
  161.5790  210.8890  150.7440 O   0  0  0  0  0  1  0  0  0  0  0  0
  161.6450  208.5470  150.3230 C   0  0  0  0  0  2  0  0  0  0  0  0
  161.9600  209.6700  151.3030 C   0  0  2  0  0  3  0  0  0  0  0  0
  160.9630  208.2310  153.0620 C   0  0  0  0  0  3  0  0  0  0  0  0
  161.4460  205.8330  153.0430 C   0  0  0  0  0  1  0  0  0  0  0  0
  161.9380  207.1890  150.9610 C   0  0  2  0  0  3  0  0  0  0  0  0
  160.4280  205.5540  150.0340 O   0  0  0  0  0  1  0  0  0  0  0  0
  161.7160  206.0850  149.9170 C   0  0  1  0  0  3  0  0  0  0  0  0
  161.8870  206.6080  148.5710 N   0  0  0  0  0  2  0  0  0  0  0  0
  160.7710  206.1180  147.7790 C   0  0  0  0  0  2  0  0  0  0  0  0
  162.3330  205.9870  145.9870 O   0  0  0  0  0  1  0  0  0  0  0  0
  161.1340  206.1430  146.3370 C   0  0  0  0  0  0  0  0  0  0  0  0
  160.1470  206.3100  145.3740 O   0  0  0  0  0  0  0  0  0  0  0  0
  161.2770  210.6000  153.6340 C   0  0  0  0  0  2  0  0  0  0  0  0
  158.8830  211.0850  153.3820 O   0  0  0  0  0  0  0  0  0  0  0  0
  160.5360  211.8020  156.5370 C   0  0  0  0  0  3  0  0  0  0  0  0
  160.8230  210.4420  157.0240 C   0  0  0  0  0  3  0  0  0  0  0  0
  159.9110  210.8270  154.3300 C   0  0  1  0  0  0  0  0  0  0  0  0
  160.3960  209.3700  156.3450 C   0  0  0  0  0  0  0  0  0  0  0  0
  158.2630  212.4320  151.6320 O   0  0  0  0  0  1  0  0  0  0  0  0
  159.1210  212.3160  152.7240 C   0  0  1  0  0  3  0  0  0  0  0  0
  159.5280  209.5620  155.1220 C   0  0  0  0  0  2  0  0  0  0  0  0
  158.8870  213.4800  153.6800 C   0  0  0  0  0  2  0  0  0  0  0  0
  160.0430  211.9890  155.3090 C   0  0  0  0  0  0  0  0  0  0  0  0
  159.7020  213.3050  154.8730 N   0  0  0  0  0  2  0  0  0  0  0  0
  160.6910  208.0160  156.8350 C   0  0  0  0  0  0  0  0  0  0  0  0
  161.8440  207.7310  157.2560 O   0  0  0  0  0  1  0  0  0  0  0  0
  159.7030  207.0380  156.8450 O   0  0  0  0  0  0  0  0  0  0  0  0
  1  6  2  0  0  0  0
  1 16  1  0  0  0  0
  2  7  1  1  0  0  0
  2  6  1  0  0  0  0
  4  8  1  0  0  0  0
  4  5  1  0  0  0  0
  5  3  1  6  0  0  0
  5  1  1  0  0  0  0
  8 10  1  6  0  0  0
  8  2  1  0  0  0  0
 10  9  1  6  0  0  0
 11 10  1  0  0  0  0
 12 11  1  0  0  0  0
 13 14  1  0  0  0  0
 14 12  1  0  0  0  0
 15 14  2  0  0  0  0
 17 20  1  0  0  0  0
 18 19  1  0  0  0  0
 20 16  1  6  0  0  0
 20 24  1  0  0  0  0
 20 26  1  0  0  0  0
 21 28  1  0  0  0  0
 21 19  2  0  0  0  0
 23 22  1  6  0  0  0
 23 17  1  0  0  0  0
 23 25  1  0  0  0  0
 24 21  1  0  0  0  0
 25 27  1  0  0  0  0
 26 18  2  0  0  0  0
 27 26  1  0  0  0  0
 28 30  2  0  0  0  0
 28 29  1  0  0  0  0
M  END
>  <MODEL>
1

>  <REMARK>
 VINA RESULT:      -6.9      0.000      0.000
  Name = 
  7 active torsions:
  status: ('A' for Active; 'I' for Inactive)
    1  A    between atoms: N_1  and  C_11
    2  A    between atoms: N_1  and  C_19
    3  A    between atoms: C_2  and  C_15
    4  A    between atoms: C_6  and  C_9
    5  A    between atoms: C_9  and  C_13
    6  A    between atoms: C_11  and  C_14
    7  A    between atoms: C_19  and  C_30
                            x       y       z     vdW  Elec       q    Type
                         _______ _______ _______ _____ _____    ______ ____

>  <TORSDO>
F 7

$$$$
=
 OpenBabel11072411013D

 30 32  0  0  1  0  0  0  0  0999 V2000
  162.3390  208.7310  150.3890 C   0  0  0  0  0  0  0  0  0  0  0  0
  161.9370  211.2120  150.4870 C   0  0  2  0  0  3  0  0  0  0  0  0
  162.9990  207.8330  148.2710 O   0  0  0  0  0  1  0  0  0  0  0  0
  162.3040  210.1100  148.2790 C   0  0  0  0  0  2  0  0  0  0  0  0
  162.1270  208.7260  148.8930 C   0  0  2  0  0  3  0  0  0  0  0  0
  162.1540  209.8540  151.1040 C   0  0  0  0  0  3  0  0  0  0  0  0
  160.9600  211.9730  151.3650 C   0  0  0  0  0  1  0  0  0  0  0  0
  161.4500  211.1340  149.0260 C   0  0  2  0  0  3  0  0  0  0  0  0
  162.9040  212.8590  148.1760 O   0  0  0  0  0  1  0  0  0  0  0  0
  161.5630  212.4930  148.3200 C   0  0  1  0  0  3  0  0  0  0  0  0
  160.9480  212.4410  147.0020 N   0  0  0  0  0  2  0  0  0  0  0  0
  161.4760  213.5600  146.2410 C   0  0  0  0  0  2  0  0  0  0  0  0
  160.9550  212.6260  144.1150 O   0  0  0  0  0  0  0  0  0  0  0  0
  161.8380  213.1070  144.8730 C   0  0  0  0  0  0  0  0  0  0  0  0
  163.1450  213.2380  144.4190 O   0  0  0  0  0  1  0  0  0  0  0  0
  162.4730  207.4170  151.1140 C   0  0  0  0  0  2  0  0  0  0  0  0
  160.3290  207.6640  152.2840 O   0  0  0  0  0  0  0  0  0  0  0  0
  161.6860  204.3430  151.7110 C   0  0  0  0  0  3  0  0  0  0  0  0
  161.5610  204.2320  150.2470 C   0  0  0  0  0  3  0  0  0  0  0  0
  161.1290  206.7660  151.5260 C   0  0  1  0  0  0  0  0  0  0  0  0
  160.9710  205.2030  149.5380 C   0  0  0  0  0  0  0  0  0  0  0  0
  160.2950  209.0110  154.1400 O   0  0  0  0  0  1  0  0  0  0  0  0
  160.9480  207.9440  153.5250 C   0  0  1  0  0  3  0  0  0  0  0  0
  160.3440  206.3740  150.2580 C   0  0  0  0  0  2  0  0  0  0  0  0
  160.8900  206.7210  154.4330 C   0  0  0  0  0  2  0  0  0  0  0  0
  161.4190  205.5000  152.3250 C   0  0  0  0  0  0  0  0  0  0  0  0
  161.4750  205.5770  153.7490 N   0  0  0  0  0  2  0  0  0  0  0  0
  160.8540  205.0870  148.0770 C   0  0  0  0  0  0  0  0  0  0  0  0
  160.3700  206.0350  147.4030 O   0  0  0  0  0  0  0  0  0  0  0  0
  161.2810  203.9370  147.4250 O   0  0  0  0  0  1  0  0  0  0  0  0
  1  6  2  0  0  0  0
  1 16  1  0  0  0  0
  2  6  1  0  0  0  0
  2  7  1  1  0  0  0
  4  5  1  0  0  0  0
  4  8  1  0  0  0  0
  5  3  1  6  0  0  0
  5  1  1  0  0  0  0
  8 10  1  6  0  0  0
  8  2  1  0  0  0  0
 10  9  1  6  0  0  0
 11 10  1  0  0  0  0
 12 11  1  0  0  0  0
 13 14  2  0  0  0  0
 14 12  1  0  0  0  0
 15 14  1  0  0  0  0
 17 23  1  0  0  0  0
 18 26  2  0  0  0  0
 19 18  1  0  0  0  0
 20 16  1  6  0  0  0
 20 17  1  0  0  0  0
 20 26  1  0  0  0  0
 21 19  2  0  0  0  0
 21 24  1  0  0  0  0
 23 22  1  1  0  0  0
 23 25  1  0  0  0  0
 24 20  1  0  0  0  0
 26 27  1  0  0  0  0
 27 25  1  0  0  0  0
 28 21  1  0  0  0  0
 29 28  2  0  0  0  0
 30 28  1  0  0  0  0
M  END
>  <MODEL>
2

>  <REMARK>
 VINA RESULT:      -6.5      3.447      6.612
  Name = 
  7 active torsions:
  status: ('A' for Active; 'I' for Inactive)
    1  A    between atoms: N_1  and  C_11
    2  A    between atoms: N_1  and  C_19
    3  A    between atoms: C_2  and  C_15
    4  A    between atoms: C_6  and  C_9
    5  A    between atoms: C_9  and  C_13
    6  A    between atoms: C_11  and  C_14
    7  A    between atoms: C_19  and  C_30
                            x       y       z     vdW  Elec       q    Type
                         _______ _______ _______ _____ _____    ______ ____

>  <TORSDO>
F 7

$$$$
=
 OpenBabel11072411013D

 30 32  0  0  1  0  0  0  0  0999 V2000
  160.9230  206.0060  149.4120 C   0  0  0  0  0  0  0  0  0  0  0  0
  161.5170  206.7670  151.7350 C   0  0  2  0  0  3  0  0  0  0  0  0
  161.4740  207.4940  147.6210 O   0  0  0  0  0  1  0  0  0  0  0  0
  161.7350  208.3570  149.8240 C   0  0  0  0  0  2  0  0  0  0  0  0
  160.9430  207.4300  148.9090 C   0  0  2  0  0  3  0  0  0  0  0  0
  161.0940  205.7380  150.7180 C   0  0  0  0  0  3  0  0  0  0  0  0
  160.8030  206.4580  153.0380 C   0  0  0  0  0  1  0  0  0  0  0  0
  161.2540  208.2130  151.2680 C   0  0  2  0  0  3  0  0  0  0  0  0
  162.7650  210.0900  151.3590 O   0  0  0  0  0  1  0  0  0  0  0  0
  161.9910  209.2340  152.1470 C   0  0  1  0  0  3  0  0  0  0  0  0
  161.0450  210.0300  152.9130 N   0  0  0  0  0  2  0  0  0  0  0  0
  161.6560  210.2900  154.2060 C   0  0  0  0  0  2  0  0  0  0  0  0
  161.6670  208.5460  155.8260 O   0  0  0  0  0  1  0  0  0  0  0  0
  161.0070  209.4450  155.2430 C   0  0  0  0  0  0  0  0  0  0  0  0
  159.6790  209.6660  155.5900 O   0  0  0  0  0  0  0  0  0  0  0  0
  160.4250  204.9150  148.5010 C   0  0  0  0  0  2  0  0  0  0  0  0
  162.5090  204.4240  147.2990 O   0  0  0  0  0  0  0  0  0  0  0  0
  160.2080  201.7220  148.0760 C   0  0  0  0  0  3  0  0  0  0  0  0
  160.3320  201.6540  149.5420 C   0  0  0  0  0  3  0  0  0  0  0  0
  161.4910  203.8580  148.1150 C   0  0  1  0  0  0  0  0  0  0  0  0
  161.2110  202.4290  150.1890 C   0  0  0  0  0  0  0  0  0  0  0  0
  162.9070  205.5950  145.3670 O   0  0  0  0  0  1  0  0  0  0  0  0
  161.9730  204.8170  146.0490 C   0  0  1  0  0  3  0  0  0  0  0  0
  162.1500  203.3100  149.3960 C   0  0  0  0  0  2  0  0  0  0  0  0
  161.6260  203.5900  145.2130 C   0  0  0  0  0  2  0  0  0  0  0  0
  160.8030  202.7050  147.3930 C   0  0  0  0  0  0  0  0  0  0  0  0
  160.7350  202.7210  145.9680 N   0  0  0  0  0  2  0  0  0  0  0  0
  161.3260  202.3590  151.6530 C   0  0  0  0  0  0  0  0  0  0  0  0
  162.2890  201.7450  152.1840 O   0  0  0  0  0  0  0  0  0  0  0  0
  160.3800  202.9740  152.4640 O   0  0  0  0  0  1  0  0  0  0  0  0
  1  6  2  0  0  0  0
  2  7  1  1  0  0  0
  4  8  1  0  0  0  0
  5  3  1  6  0  0  0
  5  1  1  0  0  0  0
  5  4  1  0  0  0  0
  6  2  1  0  0  0  0
  8  2  1  0  0  0  0
  8 10  1  1  0  0  0
 10  9  1  6  0  0  0
 10 11  1  0  0  0  0
 11 12  1  0  0  0  0
 12 14  1  0  0  0  0
 14 15  2  0  0  0  0
 14 13  1  0  0  0  0
 16  1  1  0  0  0  0
 17 20  1  0  0  0  0
 18 19  1  0  0  0  0
 19 21  2  0  0  0  0
 20 16  1  1  0  0  0
 20 24  1  0  0  0  0
 21 28  1  0  0  0  0
 23 22  1  6  0  0  0
 23 17  1  0  0  0  0
 24 21  1  0  0  0  0
 25 27  1  0  0  0  0
 25 23  1  0  0  0  0
 26 18  2  0  0  0  0
 26 20  1  0  0  0  0
 27 26  1  0  0  0  0
 28 29  2  0  0  0  0
 28 30  1  0  0  0  0
M  END
>  <MODEL>
3

>  <REMARK>
 VINA RESULT:      -6.4      2.686      8.411
  Name = 
  7 active torsions:
  status: ('A' for Active; 'I' for Inactive)
    1  A    between atoms: N_1  and  C_11
    2  A    between atoms: N_1  and  C_19
    3  A    between atoms: C_2  and  C_15
    4  A    between atoms: C_6  and  C_9
    5  A    between atoms: C_9  and  C_13
    6  A    between atoms: C_11  and  C_14
    7  A    between atoms: C_19  and  C_30
                            x       y       z     vdW  Elec       q    Type
                         _______ _______ _______ _____ _____    ______ ____

>  <TORSDO>
F 7

$$$$
=
 OpenBabel11072411013D

 30 32  0  0  1  0  0  0  0  0999 V2000
  160.6760  207.6600  152.3090 C   0  0  0  0  0  0  0  0  0  0  0  0
  161.1970  206.2430  150.2980 C   0  0  2  0  0  3  0  0  0  0  0  0
  161.2000  206.7240  154.4480 O   0  0  0  0  0  1  0  0  0  0  0  0
  161.3860  205.2570  152.5820 C   0  0  0  0  0  2  0  0  0  0  0  0
  160.6490  206.4400  153.1990 C   0  0  2  0  0  3  0  0  0  0  0  0
  160.8330  207.5360  150.9800 C   0  0  0  0  0  3  0  0  0  0  0  0
  160.4720  206.1980  148.9650 C   0  0  0  0  0  1  0  0  0  0  0  0
  160.8840  205.0030  151.1600 C   0  0  2  0  0  3  0  0  0  0  0  0
  162.0160  202.9310  151.6490 O   0  0  0  0  0  1  0  0  0  0  0  0
  161.5640  203.7430  150.6050 C   0  0  1  0  0  3  0  0  0  0  0  0
  160.6370  202.9780  149.7850 N   0  0  0  0  0  2  0  0  0  0  0  0
  161.1870  202.9440  148.4400 C   0  0  0  0  0  2  0  0  0  0  0  0
  161.1820  200.5730  148.6510 O   0  0  0  0  0  1  0  0  0  0  0  0
  161.0700  201.5690  147.8880 C   0  0  0  0  0  0  0  0  0  0  0  0
  160.8100  201.3810  146.5360 O   0  0  0  0  0  0  0  0  0  0  0  0
  160.2400  208.9870  152.8720 C   0  0  0  0  0  2  0  0  0  0  0  0
  162.2010  209.5740  154.2270 O   0  0  0  0  0  0  0  0  0  0  0  0
  160.4450  212.1740  152.3940 C   0  0  0  0  0  3  0  0  0  0  0  0
  160.7650  211.8070  151.0030 C   0  0  0  0  0  3  0  0  0  0  0  0
  161.3910  209.9900  153.1350 C   0  0  1  0  0  0  0  0  0  0  0  0
  161.5950  210.7900  150.7390 C   0  0  0  0  0  0  0  0  0  0  0  0
  162.1700  208.9660  156.4390 O   0  0  0  0  0  1  0  0  0  0  0  0
  161.4570  209.6130  155.4310 C   0  0  1  0  0  3  0  0  0  0  0  0
  162.2840  210.0770  151.8810 C   0  0  0  0  0  2  0  0  0  0  0  0
  161.1910  211.0560  155.8420 C   0  0  0  0  0  2  0  0  0  0  0  0
  160.7950  211.3680  153.4010 C   0  0  0  0  0  0  0  0  0  0  0  0
  160.5430  211.7650  154.7480 N   0  0  0  0  0  2  0  0  0  0  0  0
  161.9060  210.4280  149.3490 C   0  0  0  0  0  0  0  0  0  0  0  0
  162.2760  209.2570  149.0660 O   0  0  0  0  0  1  0  0  0  0  0  0
  161.7900  211.3680  148.3320 O   0  0  0  0  0  0  0  0  0  0  0  0
  1 16  1  0  0  0  0
  1  5  1  0  0  0  0
  2  7  1  6  0  0  0
  2  6  1  0  0  0  0
  2  8  1  0  0  0  0
  4  5  1  0  0  0  0
  5  3  1  1  0  0  0
  6  1  2  0  0  0  0
  8 10  1  6  0  0  0
  8  4  1  0  0  0  0
 10  9  1  1  0  0  0
 11 10  1  0  0  0  0
 12 11  1  0  0  0  0
 14 12  1  0  0  0  0
 14 13  1  0  0  0  0
 15 14  2  0  0  0  0
 17 23  1  0  0  0  0
 18 26  2  0  0  0  0
 19 18  1  0  0  0  0
 20 16  1  6  0  0  0
 20 26  1  0  0  0  0
 20 17  1  0  0  0  0
 21 19  2  0  0  0  0
 21 24  1  0  0  0  0
 23 25  1  0  0  0  0
 23 22  1  1  0  0  0
 24 20  1  0  0  0  0
 26 27  1  0  0  0  0
 27 25  1  0  0  0  0
 28 21  1  0  0  0  0
 29 28  1  0  0  0  0
 30 28  2  0  0  0  0
M  END
>  <MODEL>
4

>  <REMARK>
 VINA RESULT:      -6.3      2.479      4.779
  Name = 
  7 active torsions:
  status: ('A' for Active; 'I' for Inactive)
    1  A    between atoms: N_1  and  C_11
    2  A    between atoms: N_1  and  C_19
    3  A    between atoms: C_2  and  C_15
    4  A    between atoms: C_6  and  C_9
    5  A    between atoms: C_9  and  C_13
    6  A    between atoms: C_11  and  C_14
    7  A    between atoms: C_19  and  C_30
                            x       y       z     vdW  Elec       q    Type
                         _______ _______ _______ _____ _____    ______ ____

>  <TORSDO>
F 7

$$$$
=
 OpenBabel11072411013D

 30 32  0  0  1  0  0  0  0  0999 V2000
  160.8510  206.5910  149.5680 C   0  0  0  0  0  0  0  0  0  0  0  0
  160.8330  204.1890  148.8220 C   0  0  2  0  0  3  0  0  0  0  0  0
  161.7140  208.1920  148.0130 O   0  0  0  0  0  1  0  0  0  0  0  0
  162.0040  205.9000  147.4360 C   0  0  0  0  0  2  0  0  0  0  0  0
  161.9250  206.9260  148.5600 C   0  0  2  0  0  3  0  0  0  0  0  0
  160.4380  205.3230  149.7340 C   0  0  0  0  0  3  0  0  0  0  0  0
  160.9840  202.9390  149.6700 C   0  0  0  0  0  1  0  0  0  0  0  0
  162.1110  204.4890  148.0130 C   0  0  2  0  0  3  0  0  0  0  0  0
  161.1520  202.7060  146.7030 O   0  0  0  0  0  1  0  0  0  0  0  0
  162.2990  203.4880  146.8630 C   0  0  1  0  0  3  0  0  0  0  0  0
  162.5690  204.1850  145.6150 N   0  0  0  0  0  2  0  0  0  0  0  0
  161.3660  204.0870  144.8050 C   0  0  0  0  0  2  0  0  0  0  0  0
  161.5810  205.8280  143.1950 O   0  0  0  0  0  0  0  0  0  0  0  0
  161.0270  205.4250  144.2520 C   0  0  0  0  0  0  0  0  0  0  0  0
  160.0800  206.2200  144.8860 O   0  0  0  0  0  1  0  0  0  0  0  0
  160.4520  207.6280  150.5850 C   0  0  0  0  0  2  0  0  0  0  0  0
  162.5150  206.9950  151.7560 O   0  0  0  0  0  0  0  0  0  0  0  0
  160.4770  209.7080  153.0540 C   0  0  0  0  0  3  0  0  0  0  0  0
  160.6690  210.7330  152.0120 C   0  0  0  0  0  3  0  0  0  0  0  0
  161.5820  208.0500  151.5570 C   0  0  1  0  0  0  0  0  0  0  0  0
  161.5090  210.5180  150.9920 C   0  0  0  0  0  0  0  0  0  0  0  0
  162.7340  204.8000  152.3870 O   0  0  0  0  0  1  0  0  0  0  0  0
  161.8970  205.9140  152.4280 C   0  0  1  0  0  3  0  0  0  0  0  0
  162.3380  209.2550  150.9640 C   0  0  0  0  0  2  0  0  0  0  0  0
  161.6150  206.2850  153.8790 C   0  0  0  0  0  2  0  0  0  0  0  0
  160.9610  208.4740  152.8830 C   0  0  0  0  0  0  0  0  0  0  0  0
  160.8310  207.5100  153.9280 N   0  0  0  0  0  2  0  0  0  0  0  0
  161.6910  211.5440  149.9540 C   0  0  0  0  0  0  0  0  0  0  0  0
  160.9900  212.5910  149.9670 O   0  0  0  0  0  1  0  0  0  0  0  0
  162.6400  211.3730  148.9540 O   0  0  0  0  0  0  0  0  0  0  0  0
  1  6  2  0  0  0  0
  1 16  1  0  0  0  0
  2  7  1  1  0  0  0
  2  6  1  0  0  0  0
  4  8  1  0  0  0  0
  4  5  1  0  0  0  0
  5  3  1  6  0  0  0
  5  1  1  0  0  0  0
  8 10  1  6  0  0  0
  8  2  1  0  0  0  0
 10  9  1  6  0  0  0
 11 10  1  0  0  0  0
 12 11  1  0  0  0  0
 13 14  2  0  0  0  0
 14 12  1  0  0  0  0
 14 15  1  0  0  0  0
 17 23  1  0  0  0  0
 19 18  1  0  0  0  0
 20 16  1  6  0  0  0
 20 17  1  0  0  0  0
 20 26  1  0  0  0  0
 21 19  2  0  0  0  0
 23 22  1  1  0  0  0
 23 25  1  0  0  0  0
 24 21  1  0  0  0  0
 24 20  1  0  0  0  0
 25 27  1  0  0  0  0
 26 18  2  0  0  0  0
 26 27  1  0  0  0  0
 28 29  1  0  0  0  0
 28 21  1  0  0  0  0
 30 28  2  0  0  0  0
M  END
>  <MODEL>
5

>  <REMARK>
 VINA RESULT:      -5.9      3.009      5.335
  Name = 
  7 active torsions:
  status: ('A' for Active; 'I' for Inactive)
    1  A    between atoms: N_1  and  C_11
    2  A    between atoms: N_1  and  C_19
    3  A    between atoms: C_2  and  C_15
    4  A    between atoms: C_6  and  C_9
    5  A    between atoms: C_9  and  C_13
    6  A    between atoms: C_11  and  C_14
    7  A    between atoms: C_19  and  C_30
                            x       y       z     vdW  Elec       q    Type
                         _______ _______ _______ _____ _____    ______ ____

>  <TORSDO>
F 7

$$$$
=
 OpenBabel11072411013D

 30 32  0  0  1  0  0  0  0  0999 V2000
  161.6460  206.2730  151.8720 C   0  0  0  0  0  0  0  0  0  0  0  0
  160.9500  208.3450  153.1180 C   0  0  2  0  0  3  0  0  0  0  0  0
  161.1310  204.1760  152.9040 O   0  0  0  0  0  1  0  0  0  0  0  0
  160.7720  206.1190  154.2310 C   0  0  0  0  0  2  0  0  0  0  0  0
  161.6150  205.4610  153.1460 C   0  0  2  0  0  3  0  0  0  0  0  0
  161.4320  207.6000  151.9000 C   0  0  0  0  0  3  0  0  0  0  0  0
  161.6220  209.7060  153.1300 C   0  0  0  0  0  1  0  0  0  0  0  0
  161.2020  207.5730  154.4300 C   0  0  2  0  0  3  0  0  0  0  0  0
  159.4280  207.2850  156.0370 O   0  0  0  0  0  1  0  0  0  0  0  0
  160.4120  208.1760  155.6000 C   0  0  1  0  0  3  0  0  0  0  0  0
  161.2960  208.4800  156.7140 N   0  0  0  0  0  2  0  0  0  0  0  0
  160.8720  209.7590  157.2580 C   0  0  0  0  0  2  0  0  0  0  0  0
  162.7880  210.8920  156.4160 O   0  0  0  0  0  1  0  0  0  0  0  0
  161.5330  210.8620  156.5130 C   0  0  0  0  0  0  0  0  0  0  0  0
  160.7670  211.8450  155.9000 O   0  0  0  0  0  0  0  0  0  0  0  0
  162.1990  205.6480  150.6190 C   0  0  0  0  0  2  0  0  0  0  0  0
  160.0880  204.7920  149.7020 O   0  0  0  0  0  0  0  0  0  0  0  0
  162.6900  205.9410  147.4410 C   0  0  0  0  0  3  0  0  0  0  0  0
  162.6820  207.3900  147.7100 C   0  0  0  0  0  3  0  0  0  0  0  0
  161.2140  205.6150  149.4230 C   0  0  1  0  0  0  0  0  0  0  0  0
  161.7830  207.9230  148.5470 C   0  0  0  0  0  0  0  0  0  0  0  0
  159.4360  202.6910  150.3530 O   0  0  0  0  0  1  0  0  0  0  0  0
  160.4890  203.4410  149.8300 C   0  0  1  0  0  3  0  0  0  0  0  0
  160.7080  207.0440  149.1420 C   0  0  0  0  0  2  0  0  0  0  0  0
  160.8890  202.8770  148.4720 C   0  0  0  0  0  2  0  0  0  0  0  0
  161.9540  205.1120  148.1880 C   0  0  0  0  0  0  0  0  0  0  0  0
  161.9130  203.7210  147.8740 N   0  0  0  0  0  2  0  0  0  0  0  0
  161.7860  209.3690  148.8140 C   0  0  0  0  0  0  0  0  0  0  0  0
  162.2630  209.8130  149.8920 O   0  0  0  0  0  1  0  0  0  0  0  0
  161.2690  210.2590  147.8810 O   0  0  0  0  0  0  0  0  0  0  0  0
  1  6  2  0  0  0  0
  1  5  1  0  0  0  0
  2  7  1  1  0  0  0
  2  8  1  0  0  0  0
  4  8  1  0  0  0  0
  5  3  1  6  0  0  0
  5  4  1  0  0  0  0
  6  2  1  0  0  0  0
  8 10  1  1  0  0  0
 10  9  1  1  0  0  0
 10 11  1  0  0  0  0
 11 12  1  0  0  0  0
 13 14  1  0  0  0  0
 14 12  1  0  0  0  0
 15 14  2  0  0  0  0
 16  1  1  0  0  0  0
 17 23  1  0  0  0  0
 18 19  1  0  0  0  0
 18 26  2  0  0  0  0
 19 21  2  0  0  0  0
 20 17  1  0  0  0  0
 20 16  1  1  0  0  0
 21 28  1  0  0  0  0
 21 24  1  0  0  0  0
 23 22  1  6  0  0  0
 24 20  1  0  0  0  0
 25 23  1  0  0  0  0
 26 20  1  0  0  0  0
 27 26  1  0  0  0  0
 27 25  1  0  0  0  0
 28 29  1  0  0  0  0
 30 28  2  0  0  0  0
M  END
>  <MODEL>
6

>  <REMARK>
 VINA RESULT:      -5.7      2.563      8.282
  Name = 
  7 active torsions:
  status: ('A' for Active; 'I' for Inactive)
    1  A    between atoms: N_1  and  C_11
    2  A    between atoms: N_1  and  C_19
    3  A    between atoms: C_2  and  C_15
    4  A    between atoms: C_6  and  C_9
    5  A    between atoms: C_9  and  C_13
    6  A    between atoms: C_11  and  C_14
    7  A    between atoms: C_19  and  C_30
                            x       y       z     vdW  Elec       q    Type
                         _______ _______ _______ _____ _____    ______ ____

>  <TORSDO>
F 7

$$$$
=
 OpenBabel11072411013D

 30 32  0  0  1  0  0  0  0  0999 V2000
  160.4080  208.9470  153.6480 C   0  0  0  0  0  0  0  0  0  0  0  0
  161.5960  207.9930  151.6470 C   0  0  2  0  0  3  0  0  0  0  0  0
  160.5080  207.6650  155.6670 O   0  0  0  0  0  1  0  0  0  0  0  0
  161.3450  206.6070  153.7050 C   0  0  0  0  0  2  0  0  0  0  0  0
  160.3260  207.5800  154.2870 C   0  0  2  0  0  3  0  0  0  0  0  0
  160.9040  209.0950  152.4080 C   0  0  0  0  0  3  0  0  0  0  0  0
  161.2360  208.1430  150.1800 C   0  0  0  0  0  1  0  0  0  0  0  0
  161.2500  206.5880  152.1800 C   0  0  2  0  0  3  0  0  0  0  0  0
  163.3920  205.5000  152.3720 O   0  0  0  0  0  1  0  0  0  0  0  0
  162.2080  205.5230  151.6290 C   0  0  1  0  0  3  0  0  0  0  0  0
  161.5970  204.2050  151.6810 N   0  0  0  0  0  2  0  0  0  0  0  0
  160.4880  204.2130  150.7410 C   0  0  0  0  0  2  0  0  0  0  0  0
  161.3240  204.4090  148.5210 O   0  0  0  0  0  0  0  0  0  0  0  0
  160.9310  203.6440  149.4410 C   0  0  0  0  0  0  0  0  0  0  0  0
  160.9390  202.2680  149.2500 O   0  0  0  0  0  1  0  0  0  0  0  0
  159.6710  210.0960  154.2830 C   0  0  0  0  0  2  0  0  0  0  0  0
  161.8260  211.0690  154.9450 O   0  0  0  0  0  0  0  0  0  0  0  0
  158.8250  213.1150  155.0560 C   0  0  0  0  0  3  0  0  0  0  0  0
  158.5210  213.2530  153.6200 C   0  0  0  0  0  3  0  0  0  0  0  0
  160.5180  211.3790  154.4800 C   0  0  1  0  0  0  0  0  0  0  0  0
  159.3470  212.7460  152.6970 C   0  0  0  0  0  0  0  0  0  0  0  0
  163.0080  209.9860  156.5860 O   0  0  0  0  0  1  0  0  0  0  0  0
  161.7650  210.5180  156.2470 C   0  0  1  0  0  3  0  0  0  0  0  0
  160.6490  212.1130  153.1300 C   0  0  0  0  0  2  0  0  0  0  0  0
  161.3790  211.5920  157.2580 C   0  0  0  0  0  2  0  0  0  0  0  0
  159.8020  212.2980  155.4630 C   0  0  0  0  0  0  0  0  0  0  0  0
  160.1350  212.2250  156.8490 N   0  0  0  0  0  2  0  0  0  0  0  0
  159.0340  212.8830  151.2670 C   0  0  0  0  0  0  0  0  0  0  0  0
  159.9620  212.9120  150.4150 O   0  0  0  0  0  0  0  0  0  0  0  0
  157.7150  212.9760  150.8390 O   0  0  0  0  0  1  0  0  0  0  0  0
  1 16  1  0  0  0  0
  1  5  1  0  0  0  0
  2  7  1  6  0  0  0
  2  8  1  0  0  0  0
  2  6  1  0  0  0  0
  4  5  1  0  0  0  0
  5  3  1  1  0  0  0
  6  1  2  0  0  0  0
  8 10  1  6  0  0  0
  8  4  1  0  0  0  0
 10 11  1  0  0  0  0
 10  9  1  1  0  0  0
 12 11  1  0  0  0  0
 13 14  2  0  0  0  0
 14 12  1  0  0  0  0
 15 14  1  0  0  0  0
 17 23  1  0  0  0  0
 18 26  2  0  0  0  0
 19 18  1  0  0  0  0
 20 16  1  6  0  0  0
 20 17  1  0  0  0  0
 20 26  1  0  0  0  0
 21 24  1  0  0  0  0
 21 19  2  0  0  0  0
 23 22  1  1  0  0  0
 23 25  1  0  0  0  0
 24 20  1  0  0  0  0
 26 27  1  0  0  0  0
 27 25  1  0  0  0  0
 28 21  1  0  0  0  0
 29 28  2  0  0  0  0
 30 28  1  0  0  0  0
M  END
>  <MODEL>
7

>  <REMARK>
 VINA RESULT:      -5.6      2.067      4.432
  Name = 
  7 active torsions:
  status: ('A' for Active; 'I' for Inactive)
    1  A    between atoms: N_1  and  C_11
    2  A    between atoms: N_1  and  C_19
    3  A    between atoms: C_2  and  C_15
    4  A    between atoms: C_6  and  C_9
    5  A    between atoms: C_9  and  C_13
    6  A    between atoms: C_11  and  C_14
    7  A    between atoms: C_19  and  C_30
                            x       y       z     vdW  Elec       q    Type
                         _______ _______ _______ _____ _____    ______ ____

>  <TORSDO>
F 7

$$$$
=
 OpenBabel11072411013D

 30 32  0  0  1  0  0  0  0  0999 V2000
  160.6960  208.4340  152.8620 C   0  0  0  0  0  0  0  0  0  0  0  0
  161.1750  208.0410  155.3000 C   0  0  2  0  0  3  0  0  0  0  0  0
  160.7740  210.7030  152.1050 O   0  0  0  0  0  1  0  0  0  0  0  0
  160.9000  210.3740  154.4600 C   0  0  0  0  0  2  0  0  0  0  0  0
  160.3320  209.8750  153.1360 C   0  0  2  0  0  3  0  0  0  0  0  0
  160.9840  207.5960  153.8730 C   0  0  0  0  0  3  0  0  0  0  0  0
  160.6180  206.9570  156.2050 C   0  0  0  0  0  1  0  0  0  0  0  0
  160.5320  209.4130  155.5910 C   0  0  2  0  0  3  0  0  0  0  0  0
  162.4010  210.2200  156.8830 O   0  0  0  0  0  1  0  0  0  0  0  0
  161.0220  209.9950  156.9240 C   0  0  1  0  0  3  0  0  0  0  0  0
  160.3510  211.2520  157.2140 N   0  0  0  0  0  2  0  0  0  0  0  0
  158.9250  210.9730  157.2600 C   0  0  0  0  0  2  0  0  0  0  0  0
  156.9410  212.1900  156.7620 O   0  0  0  0  0  1  0  0  0  0  0  0
  158.1810  212.0660  156.5800 C   0  0  0  0  0  0  0  0  0  0  0  0
  158.8570  212.9670  155.7670 O   0  0  0  0  0  0  0  0  0  0  0  0
  160.4540  207.8670  151.4880 C   0  0  0  0  0  2  0  0  0  0  0  0
  162.7320  208.4730  150.8040 O   0  0  0  0  0  0  0  0  0  0  0  0
  160.8860  205.9940  148.8940 C   0  0  0  0  0  3  0  0  0  0  0  0
  160.8260  204.8800  149.8570 C   0  0  0  0  0  3  0  0  0  0  0  0
  161.7370  207.4610  150.7210 C   0  0  1  0  0  0  0  0  0  0  0  0
  161.4540  204.9630  151.0360 C   0  0  0  0  0  0  0  0  0  0  0  0
  163.1600  210.6950  150.4280 O   0  0  0  0  0  1  0  0  0  0  0  0
  162.3040  209.6380  150.1240 C   0  0  1  0  0  3  0  0  0  0  0  0
  162.3120  206.1700  151.3390 C   0  0  0  0  0  2  0  0  0  0  0  0
  162.3010  209.4020  148.6180 C   0  0  0  0  0  2  0  0  0  0  0  0
  161.3750  207.1810  149.2670 C   0  0  0  0  0  0  0  0  0  0  0  0
  161.4940  208.2320  148.3080 N   0  0  0  0  0  2  0  0  0  0  0  0
  161.3860  203.8490  151.9930 C   0  0  0  0  0  0  0  0  0  0  0  0
  160.8270  204.0070  153.1120 O   0  0  0  0  0  1  0  0  0  0  0  0
  161.9280  202.6100  151.6730 O   0  0  0  0  0  0  0  0  0  0  0  0
  1  5  1  0  0  0  0
  1  6  2  0  0  0  0
  2  8  1  0  0  0  0
  2  7  1  1  0  0  0
  4  8  1  0  0  0  0
  5  3  1  6  0  0  0
  5  4  1  0  0  0  0
  6  2  1  0  0  0  0
  8 10  1  1  0  0  0
 10  9  1  6  0  0  0
 10 11  1  0  0  0  0
 11 12  1  0  0  0  0
 14 13  1  0  0  0  0
 14 12  1  0  0  0  0
 15 14  2  0  0  0  0
 16  1  1  0  0  0  0
 18 26  2  0  0  0  0
 18 19  1  0  0  0  0
 19 21  2  0  0  0  0
 20 17  1  0  0  0  0
 20 24  1  0  0  0  0
 20 16  1  1  0  0  0
 21 24  1  0  0  0  0
 21 28  1  0  0  0  0
 23 22  1  6  0  0  0
 23 17  1  0  0  0  0
 25 23  1  0  0  0  0
 26 20  1  0  0  0  0
 27 25  1  0  0  0  0
 27 26  1  0  0  0  0
 28 29  1  0  0  0  0
 30 28  2  0  0  0  0
M  END
>  <MODEL>
8

>  <REMARK>
 VINA RESULT:      -5.5      2.505      7.332
  Name = 
  7 active torsions:
  status: ('A' for Active; 'I' for Inactive)
    1  A    between atoms: N_1  and  C_11
    2  A    between atoms: N_1  and  C_19
    3  A    between atoms: C_2  and  C_15
    4  A    between atoms: C_6  and  C_9
    5  A    between atoms: C_9  and  C_13
    6  A    between atoms: C_11  and  C_14
    7  A    between atoms: C_19  and  C_30
                            x       y       z     vdW  Elec       q    Type
                         _______ _______ _______ _____ _____    ______ ____

>  <TORSDO>
F 7

$$$$
=
 OpenBabel11072411013D

 30 32  0  0  1  0  0  0  0  0999 V2000
  161.5390  209.6810  152.2930 C   0  0  0  0  0  0  0  0  0  0  0  0
  162.0310  209.6310  149.8270 C   0  0  2  0  0  3  0  0  0  0  0  0
  161.3170  207.5640  153.3870 O   0  0  0  0  0  1  0  0  0  0  0  0
  161.4520  207.5130  151.0110 C   0  0  0  0  0  2  0  0  0  0  0  0
  160.9770  208.2800  152.2390 C   0  0  2  0  0  3  0  0  0  0  0  0
  161.9240  210.3090  151.1690 C   0  0  0  0  0  3  0  0  0  0  0  0
  161.6150  210.6320  148.7650 C   0  0  0  0  0  1  0  0  0  0  0  0
  161.2030  208.3330  149.7450 C   0  0  2  0  0  3  0  0  0  0  0  0
  162.9130  207.0600  148.6200 O   0  0  0  0  0  1  0  0  0  0  0  0
  161.5890  207.4940  148.5180 C   0  0  1  0  0  3  0  0  0  0  0  0
  160.7230  206.3320  148.3970 N   0  0  0  0  0  2  0  0  0  0  0  0
  161.5630  205.2140  148.0010 C   0  0  0  0  0  2  0  0  0  0  0  0
  160.8750  204.1410  150.0110 O   0  0  0  0  0  1  0  0  0  0  0  0
  161.2070  204.0140  148.8030 C   0  0  0  0  0  0  0  0  0  0  0  0
  161.2140  202.7560  148.2140 O   0  0  0  0  0  0  0  0  0  0  0  0
  161.3970  210.4780  153.5640 C   0  0  0  0  0  2  0  0  0  0  0  0
  159.1080  211.0740  152.9060 O   0  0  0  0  0  0  0  0  0  0  0  0
  160.1740  211.5750  156.3430 C   0  0  0  0  0  3  0  0  0  0  0  0
  160.3220  210.1830  156.8010 C   0  0  0  0  0  3  0  0  0  0  0  0
  159.9350  210.7300  154.0100 C   0  0  1  0  0  0  0  0  0  0  0  0
  159.9930  209.1620  156.0000 C   0  0  0  0  0  0  0  0  0  0  0  0
  158.8650  212.5240  151.1450 O   0  0  0  0  0  1  0  0  0  0  0  0
  159.5020  212.3220  152.3680 C   0  0  1  0  0  3  0  0  0  0  0  0
  159.3720  209.4460  154.6510 C   0  0  0  0  0  2  0  0  0  0  0  0
  159.1350  213.4500  153.3260 C   0  0  0  0  0  2  0  0  0  0  0  0
  159.9220  211.8390  155.0570 C   0  0  0  0  0  0  0  0  0  0  0  0
  159.7100  213.1860  154.6360 N   0  0  0  0  0  2  0  0  0  0  0  0
  160.1480  207.7760  156.4630 C   0  0  0  0  0  0  0  0  0  0  0  0
  159.3040  206.8990  156.1350 O   0  0  0  0  0  0  0  0  0  0  0  0
  161.2280  207.4150  157.2590 O   0  0  0  0  0  1  0  0  0  0  0  0
  1 16  1  0  0  0  0
  2  7  1  6  0  0  0
  2  6  1  0  0  0  0
  4  5  1  0  0  0  0
  5  1  1  0  0  0  0
  5  3  1  1  0  0  0
  6  1  2  0  0  0  0
  8 10  1  6  0  0  0
  8  2  1  0  0  0  0
  8  4  1  0  0  0  0
 10  9  1  1  0  0  0
 11 10  1  0  0  0  0
 12 11  1  0  0  0  0
 12 14  1  0  0  0  0
 14 13  1  0  0  0  0
 15 14  2  0  0  0  0
 17 20  1  0  0  0  0
 18 19  1  0  0  0  0
 20 16  1  6  0  0  0
 20 24  1  0  0  0  0
 20 26  1  0  0  0  0
 21 28  1  0  0  0  0
 21 19  2  0  0  0  0
 23 22  1  6  0  0  0
 23 17  1  0  0  0  0
 23 25  1  0  0  0  0
 24 21  1  0  0  0  0
 25 27  1  0  0  0  0
 26 18  2  0  0  0  0
 27 26  1  0  0  0  0
 28 30  1  0  0  0  0
 29 28  2  0  0  0  0
M  END
>  <MODEL>
9

>  <REMARK>
 VINA RESULT:      -5.5      1.470      2.426
  Name = 
  7 active torsions:
  status: ('A' for Active; 'I' for Inactive)
    1  A    between atoms: N_1  and  C_11
    2  A    between atoms: N_1  and  C_19
    3  A    between atoms: C_2  and  C_15
    4  A    between atoms: C_6  and  C_9
    5  A    between atoms: C_9  and  C_13
    6  A    between atoms: C_11  and  C_14
    7  A    between atoms: C_19  and  C_30
                            x       y       z     vdW  Elec       q    Type
                         _______ _______ _______ _____ _____    ______ ____

>  <TORSDO>
F 7

$$$$
