=
 OpenBabel11072414583D

 65 71  0  0  1  0  0  0  0  0999 V2000
  157.8970  213.8580  143.0440 C   0  0  0  0  0  0  0  0  0  0  0  0
  158.7620  210.6870  138.9430 C   0  0  0  0  0  2  0  0  0  0  0  0
  156.8750  214.0280  142.1050 N   0  0  0  0  0  0  0  0  0  0  0  0
  158.8220  212.9220  142.5870 N   0  0  0  0  0  0  0  0  0  0  0  0
  161.4070  208.2980  140.4230 C   0  0  1  0  0  3  0  0  0  0  0  0
  160.3480  212.3780  138.0490 C   0  0  0  0  0  3  0  0  0  0  0  0
  161.6970  204.9190  144.6960 C   0  0  0  0  0  2  0  0  0  0  0  0
  162.1510  207.5470  150.6380 C   0  0  1  0  0  3  0  0  0  0  0  0
  157.9480  214.4370  144.1630 O   0  0  0  0  0  0  0  0  0  0  0  0
  162.1760  206.2410  149.8400 C   0  0  0  0  0  2  0  0  0  0  0  0
  162.6060  207.9530  139.6970 N   0  0  0  0  0  2  0  0  0  0  0  0
  162.3620  208.3160  138.3560 N   0  0  0  0  0  2  0  0  0  0  0  0
  161.1960  205.2100  147.1620 C   0  0  0  0  0  2  0  0  0  0  0  0
  161.9010  209.5840  147.1060 C   0  0  0  0  0  2  0  0  0  0  0  0
  162.5500  209.7920  142.1570 C   0  0  0  0  0  2  0  0  0  0  0  0
  159.4700  212.0050  139.0730 C   0  0  0  0  0  0  0  0  0  0  0  0
  160.7600  205.9470  144.0740 C   0  0  0  0  0  2  0  0  0  0  0  0
  160.0050  211.9290  145.8370 C   0  0  1  0  0  3  0  0  0  0  0  0
  161.6720  208.5690  141.9110 C   0  0  2  0  0  3  0  0  0  0  0  0
  159.3690  209.5840  139.8130 C   0  0  0  0  0  2  0  0  0  0  0  0
  162.7850  206.3850  148.4460 C   0  0  2  0  0  3  0  0  0  0  0  0
  161.8070  210.7730  143.0080 C   0  0  0  0  0  3  0  0  0  0  0  0
  161.0260  213.5970  138.1020 C   0  0  0  0  0  0  0  0  0  0  0  0
  159.8780  212.2870  143.3830 C   0  0  2  0  0  3  0  0  0  0  0  0
  160.8870  209.4800  139.6910 C   0  0  2  0  0  3  0  0  0  0  0  0
  162.5610  205.1730  147.6740 N   0  0  0  0  0  2  0  0  0  0  0  0
  161.3060  209.2580  138.3220 N   0  0  0  0  0  2  0  0  0  0  0  0
  162.2350  207.3460  142.6240 C   0  0  0  0  0  2  0  0  0  0  0  0
  159.4310  213.0790  146.3800 O   0  0  0  0  0  1  0  0  0  0  0  0
  162.6620  209.2610  148.2400 O   0  0  0  0  0  0  0  0  0  0  0  0
  161.1800  210.8760  147.3860 C   0  0  2  0  0  3  0  0  0  0  0  0
  160.8350  214.4530  139.1880 C   0  0  0  0  0  3  0  0  0  0  0  0
  161.0180  210.8750  148.8730 C   0  0  1  0  0  3  0  0  0  0  0  0
  163.4390  208.0280  150.9060 O   0  0  0  0  0  1  0  0  0  0  0  0
  159.9600  214.0930  140.2150 C   0  0  0  0  0  3  0  0  0  0  0  0
  159.2800  212.8640  140.1780 C   0  0  0  0  0  0  0  0  0  0  0  0
  161.1940  206.2380  142.6510 C   0  0  0  0  0  2  0  0  0  0  0  0
  159.9300  210.8820  146.7600 O   0  0  0  0  0  0  0  0  0  0  0  0
  160.6900  211.3420  142.5530 C   0  0  0  0  0  3  0  0  0  0  0  0
  161.2000  208.6170  150.0710 C   0  0  2  0  0  3  0  0  0  0  0  0
  157.0700  213.2160  141.0250 O   0  0  0  0  0  0  0  0  0  0  0  0
  159.2710  211.5450  144.5660 C   0  0  0  0  0  2  0  0  0  0  0  0
  161.9470  209.7600  149.3460 C   0  0  1  0  0  3  0  0  0  0  0  0
  158.3020  212.5230  141.2720 C   0  0  2  0  0  3  0  0  0  0  0  0
  164.1610  206.6040  148.5530 O   0  0  0  0  0  1  0  0  0  0  0  0
  161.0370  204.3170  145.9320 C   0  0  2  0  0  3  0  0  0  0  0  0
  160.8830  208.6740  152.5510 C   0  0  0  0  0  2  0  0  0  0  0  0
  160.3430  209.1540  151.2170 C   0  0  0  0  0  3  0  0  0  0  0  0
  161.1740  210.0800  152.0880 C   0  0  0  0  0  2  0  0  0  0  0  0
  161.4860  212.2190  149.4130 C   0  0  0  0  0  2  0  0  0  0  0  0
  160.3270  212.9980  150.0000 C   0  0  0  0  0  2  0  0  0  0  0  0
  160.4370  213.0110  151.3910 O   0  0  0  0  0  1  0  0  0  0  0  0
  161.4140  202.8480  146.1890 C   0  0  1  0  0  3  0  0  0  0  0  0
  159.8840  202.5720  148.1440 O   0  0  0  0  0  0  0  0  0  0  0  0
  162.1190  202.0940  148.3570 O   0  0  0  0  0  1  0  0  0  0  0  0
  161.1670  202.4580  147.6140 C   0  0  0  0  0  0  0  0  0  0  0  0
  159.4150  202.4450  144.7410 C   0  0  0  0  0  1  0  0  0  0  0  0
  160.7330  201.8780  145.2280 C   0  0  0  0  0  2  0  0  0  0  0  0
  155.5400  214.4530  142.4970 C   0  0  0  0  0  2  0  0  0  0  0  0
  154.5090  213.5620  141.8850 C   0  0  0  0  0  3  0  0  0  0  0  0
  153.7870  213.9770  140.8480 C   0  0  0  0  0  2  0  0  0  0  0  0
  161.9730  213.9660  137.0140 C   0  0  0  0  0  2  0  0  0  0  0  0
  163.2340  213.4280  137.2810 O   0  0  0  0  0  0  0  0  0  0  0  0
  163.7420  214.2170  138.2580 N   0  0  0  0  0  2  0  0  0  0  0  0
  163.9970  213.3570  139.4010 C   0  0  0  0  0  1  0  0  0  0  0  0
  1  9  2  0  0  0  0
  2 16  1  0  0  0  0
  2 20  1  0  0  0  0
  3 59  1  0  0  0  0
  3  1  1  0  0  0  0
  4  1  1  0  0  0  0
  4 24  1  0  0  0  0
  5 11  1  6  0  0  0
  5 19  1  0  0  0  0
  6 23  2  0  0  0  0
  6 16  1  0  0  0  0
  7 46  1  0  0  0  0
  8 34  1  6  0  0  0
 10  8  1  0  0  0  0
 12 11  1  0  0  0  0
 13 26  1  0  0  0  0
 14 30  1  0  0  0  0
 15 22  1  0  0  0  0
 16 36  2  0  0  0  0
 17  7  1  0  0  0  0
 18 29  1  1  0  0  0
 18 38  1  0  0  0  0
 19 15  1  6  0  0  0
 19 28  1  0  0  0  0
 21 45  1  1  0  0  0
 21 10  1  0  0  0  0
 23 32  1  0  0  0  0
 24 39  1  6  0  0  0
 24 42  1  0  0  0  0
 25 20  1  6  0  0  0
 25  5  1  0  0  0  0
 26 21  1  0  0  0  0
 27 12  1  0  0  0  0
 27 25  1  0  0  0  0
 28 37  1  0  0  0  0
 31 14  1  6  0  0  0
 31 33  1  0  0  0  0
 32 35  2  0  0  0  0
 33 43  1  0  0  0  0
 33 50  1  1  0  0  0
 36 35  1  0  0  0  0
 37 17  1  0  0  0  0
 38 31  1  0  0  0  0
 39 22  2  0  0  0  0
 40  8  1  0  0  0  0
 40 48  1  1  0  0  0
 41 44  1  0  0  0  0
 41  3  1  0  0  0  0
 42 18  1  0  0  0  0
 43 30  1  6  0  0  0
 43 40  1  0  0  0  0
 44 36  1  6  0  0  0
 44  4  1  0  0  0  0
 46 53  1  1  0  0  0
 46 13  1  0  0  0  0
 48 49  1  0  0  0  0
 48 47  1  0  0  0  0
 49 47  1  0  0  0  0
 50 51  1  0  0  0  0
 51 52  1  0  0  0  0
 53 58  1  6  0  0  0
 53 56  1  0  0  0  0
 56 54  2  0  0  0  0
 56 55  1  0  0  0  0
 57 58  1  0  0  0  0
 60 59  1  0  0  0  0
 61 60  2  0  0  0  0
 62 63  1  0  0  0  0
 62 23  1  0  0  0  0
 63 64  1  0  0  0  0
 64 65  1  0  0  0  0
M  END
>  <MODEL>
1

>  <REMARK>
 VINA RESULT:      22.2      0.000      0.000
  Name = 
  11 active torsions:
  status: ('A' for Active; 'I' for Inactive)
    1  A    between atoms: C_1  and  C_8
    2  A    between atoms: C_1  and  C_47
    3  A    between atoms: C_2  and  C_44
    4  A    between atoms: C_2  and  C_53
    5  A    between atoms: C_2  and  C_65
    6  A    between atoms: N_6  and  C_21
    7  A    between atoms: C_11  and  C_21
    8  A    between atoms: O_15  and  N_18
    9  A    between atoms: O_15  and  C_22
   10  A    between atoms: C_22  and  C_34
   11  A    between atoms: C_54  and  C_57
                            x       y       z     vdW  Elec       q    Type
                         _______ _______ _______ _____ _____    ______ ____

>  <TORSDO>
F 11

$$$$
