=
 OpenBabel11072414093D

 57 64  0  0  1  0  0  0  0  0999 V2000
  159.8920  213.5890  149.5860 C   0  0  0  0  0  2  0  0  0  0  0  0
  161.6700  212.1460  148.6420 N   0  0  2  0  0  0  0  0  0  0  0  0
  161.3850  211.2420  149.7900 C   0  0  2  0  0  3  0  0  0  0  0  0
  162.2260  214.4530  149.5010 C   0  0  0  0  0  1  0  0  0  0  0  0
  160.0650  213.0140  151.0030 C   0  0  2  0  0  3  0  0  0  0  0  0
  162.1630  212.9710  145.9560 C   0  0  1  0  0  3  0  0  0  0  0  0
  161.1990  211.9840  151.1100 C   0  0  0  0  0  2  0  0  0  0  0  0
  163.0650  212.0900  148.1840 C   0  0  0  0  0  2  0  0  0  0  0  0
  160.9210  214.1360  147.4030 C   0  0  0  0  0  2  0  0  0  0  0  0
  161.2010  213.5530  148.7930 C   0  0  2  0  0  0  0  0  0  0  0  0
  163.1280  212.0110  146.6580 C   0  0  0  0  0  2  0  0  0  0  0  0
  162.0940  214.1980  146.6320 O   0  0  0  0  0  0  0  0  0  0  0  0
  162.5790  213.2400  142.3040 C   0  0  0  0  0  3  0  0  0  0  0  0
  162.1520  213.1200  140.9880 C   0  0  0  0  0  0  0  0  0  0  0  0
  159.8180  212.2220  141.2640 C   0  0  0  0  0  3  0  0  0  0  0  0
  161.9310  212.9550  143.5050 C   0  0  0  0  0  0  0  0  0  0  0  0
  162.4830  213.3150  138.7450 C   0  0  0  0  0  3  0  0  0  0  0  0
  160.9210  212.7160  138.8650 S   0  0  0  0  0  0  0  0  0  0  0  0
  159.6970  212.1280  142.6390 C   0  0  0  0  0  3  0  0  0  0  0  0
  162.6230  213.1820  144.5840 N   0  0  0  0  0  0  0  0  0  0  0  0
  163.0030  213.4740  139.9850 N   0  0  0  0  0  0  0  0  0  0  0  0
  160.9120  212.6630  140.5440 C   0  0  0  0  0  0  0  0  0  0  0  0
  160.6280  212.4510  143.6180 C   0  0  0  0  0  3  0  0  0  0  0  0
  157.7110  212.7500  150.9660 O   0  0  0  0  0  0  0  0  0  0  0  0
  158.7680  212.4670  151.5140 C   0  0  0  0  0  0  0  0  0  0  0  0
  158.7780  211.5450  152.6910 C   0  0  0  0  0  2  0  0  0  0  0  0
  159.7660  212.0400  153.7370 C   0  0  0  0  0  2  0  0  0  0  0  0
  159.0550  212.4260  154.9930 C   0  0  0  0  0  0  0  0  0  0  0  0
  157.6840  212.0720  155.1570 N   0  0  0  0  0  2  0  0  0  0  0  0
  159.6510  213.1000  155.8760 O   0  0  0  0  0  0  0  0  0  0  0  0
  155.9990  214.1660  155.0690 O   0  0  0  0  0  1  0  0  0  0  0  0
  156.9420  212.3740  156.3770 C   0  0  1  0  0  3  0  0  0  0  0  0
  156.3820  213.7920  156.3640 C   0  0  2  0  0  3  0  0  0  0  0  0
  154.6940  212.2740  157.2600 C   0  0  0  0  0  2  0  0  0  0  0  0
  155.7380  211.4640  156.5150 C   0  0  0  0  0  2  0  0  0  0  0  0
  155.1460  213.7250  157.2380 C   0  0  0  0  0  2  0  0  0  0  0  0
  162.3580  210.2040  149.9310 O   0  0  0  0  0  0  0  0  0  0  0  0
  162.8040  207.8400  150.3780 C   0  0  0  0  0  3  0  0  0  0  0  0
  162.1170  209.0320  150.6560 C   0  0  0  0  0  0  0  0  0  0  0  0
  161.6650  206.7330  152.2110 C   0  0  0  0  0  0  0  0  0  0  0  0
  162.5750  206.6970  151.1500 C   0  0  0  0  0  3  0  0  0  0  0  0
  161.1880  209.0600  151.6990 C   0  0  0  0  0  3  0  0  0  0  0  0
  160.9660  207.9210  152.4770 C   0  0  0  0  0  3  0  0  0  0  0  0
  161.4860  205.5850  152.9940 O   0  0  0  0  0  0  0  0  0  0  0  0
  161.3820  204.2750  152.4410 C   0  0  0  0  0  2  0  0  0  0  0  0
  160.1320  204.1570  151.5850 C   0  0  0  0  0  2  0  0  0  0  0  0
  161.3930  203.4440  147.5420 C   0  0  0  0  0  0  0  0  0  0  0  0
  161.4640  205.5820  145.7050 N   0  0  0  0  0  2  0  0  0  0  0  0
  160.7760  204.9910  149.3170 C   0  0  0  0  0  3  0  0  0  0  0  0
  160.5180  203.9110  150.1670 C   0  0  0  0  0  0  0  0  0  0  0  0
  161.5270  205.9390  147.1260 C   0  0  0  0  0  2  0  0  0  0  0  0
  161.1250  202.3640  148.4030 C   0  0  0  0  0  0  0  0  0  0  0  0
  161.1900  204.7650  148.0030 C   0  0  0  0  0  0  0  0  0  0  0  0
  161.8150  203.1980  146.1130 C   0  0  0  0  0  2  0  0  0  0  0  0
  160.6930  202.6030  149.7090 C   0  0  0  0  0  3  0  0  0  0  0  0
  162.3790  204.4640  145.4700 C   0  0  0  0  0  2  0  0  0  0  0  0
  161.3290  200.6940  147.8750 Cl  0  0  0  0  0  0  0  0  0  0  0  0
  1  5  1  0  0  0  0
  2  8  1  1  0  0  0
  2 10  1  0  0  0  0
  2  3  1  0  0  0  0
  3 37  1  1  0  0  0
  3  7  1  0  0  0  0
  5  7  1  0  0  0  0
  5 25  1  6  0  0  0
  6 20  1  6  0  0  0
  6 12  1  0  0  0  0
  6 11  1  0  0  0  0
  9 10  1  0  0  0  0
 10  4  1  1  0  0  0
 10  1  1  0  0  0  0
 11  8  1  0  0  0  0
 12  9  1  0  0  0  0
 13 16  1  0  0  0  0
 14 13  2  0  0  0  0
 15 19  1  0  0  0  0
 16 23  1  0  0  0  0
 16 20  2  0  0  0  0
 17 18  1  0  0  0  0
 17 21  2  0  0  0  0
 18 22  1  0  0  0  0
 19 23  2  0  0  0  0
 21 14  1  0  0  0  0
 22 14  1  0  0  0  0
 22 15  2  0  0  0  0
 24 25  2  0  0  0  0
 25 26  1  0  0  0  0
 26 27  1  0  0  0  0
 27 28  1  0  0  0  0
 28 29  1  0  0  0  0
 28 30  2  0  0  0  0
 32 29  1  6  0  0  0
 32 35  1  0  0  0  0
 33 31  1  6  0  0  0
 33 32  1  0  0  0  0
 33 36  1  0  0  0  0
 35 34  1  0  0  0  0
 36 34  1  0  0  0  0
 37 39  1  0  0  0  0
 38 39  2  0  0  0  0
 38 41  1  0  0  0  0
 39 42  1  0  0  0  0
 40 43  1  0  0  0  0
 40 44  1  0  0  0  0
 41 40  2  0  0  0  0
 42 43  2  0  0  0  0
 45 44  1  0  0  0  0
 46 45  1  0  0  0  0
 47 53  2  0  0  0  0
 47 52  1  0  0  0  0
 48 51  1  0  0  0  0
 49 50  2  0  0  0  0
 50 46  1  0  0  0  0
 51 53  1  0  0  0  0
 52 55  2  0  0  0  0
 53 49  1  0  0  0  0
 54 47  1  0  0  0  0
 55 50  1  0  0  0  0
 56 48  1  0  0  0  0
 56 54  1  0  0  0  0
 57 52  1  0  0  0  0
M  END
>  <MODEL>
1

>  <REMARK>
 VINA RESULT:      -7.9      0.000      0.000
  Name = 
  12 active torsions:
  status: ('A' for Active; 'I' for Inactive)
    1  A    between atoms: C_6  and  N_26
    2  A    between atoms: C_10  and  C_22
    3  A    between atoms: C_10  and  C_56
    4  A    between atoms: C_11  and  C_47
    5  A    between atoms: O_13  and  C_16
    6  A    between atoms: O_13  and  C_34
    7  A    between atoms: C_14  and  O_27
    8  A    between atoms: C_16  and  C_17
    9  A    between atoms: C_17  and  C_28
   10  A    between atoms: C_25  and  O_27
   11  A    between atoms: C_29  and  N_49
   12  A    between atoms: C_47  and  C_56
                            x       y       z     vdW  Elec       q    Type
                         _______ _______ _______ _____ _____    ______ ____

>  <TORSDO>
F 12

$$$$
=
 OpenBabel11072414093D

 57 64  0  0  1  0  0  0  0  0999 V2000
  158.8890  213.4920  150.3780 C   0  0  0  0  0  2  0  0  0  0  0  0
  160.5940  211.9610  149.4370 N   0  0  2  0  0  0  0  0  0  0  0  0
  160.6980  211.4150  150.8180 C   0  0  2  0  0  3  0  0  0  0  0  0
  161.0050  214.4510  149.4810 C   0  0  0  0  0  1  0  0  0  0  0  0
  159.4490  213.3700  151.8060 C   0  0  2  0  0  3  0  0  0  0  0  0
  160.3620  211.9980  146.5940 C   0  0  1  0  0  3  0  0  0  0  0  0
  160.7090  212.4960  151.8950 C   0  0  0  0  0  2  0  0  0  0  0  0
  161.8460  211.8690  148.6750 C   0  0  0  0  0  2  0  0  0  0  0  0
  159.3240  213.4470  147.9420 C   0  0  0  0  0  2  0  0  0  0  0  0
  159.9820  213.3150  149.3200 C   0  0  2  0  0  0  0  0  0  0  0  0
  161.5810  211.3520  147.2610 C   0  0  0  0  0  2  0  0  0  0  0  0
  160.2770  213.3610  146.9130 O   0  0  0  0  0  0  0  0  0  0  0  0
  161.1980  212.1580  143.0090 C   0  0  0  0  0  3  0  0  0  0  0  0
  161.8840  212.6580  141.9090 C   0  0  0  0  0  0  0  0  0  0  0  0
  163.3500  214.4190  142.9490 C   0  0  0  0  0  3  0  0  0  0  0  0
  161.2620  212.5010  144.3580 C   0  0  0  0  0  0  0  0  0  0  0  0
  162.3470  212.6970  139.6820 C   0  0  0  0  0  3  0  0  0  0  0  0
  163.3480  213.8840  140.3160 S   0  0  0  0  0  0  0  0  0  0  0  0
  163.0080  214.3360  144.2870 C   0  0  0  0  0  3  0  0  0  0  0  0
  160.4720  211.8290  145.1460 N   0  0  0  0  0  0  0  0  0  0  0  0
  161.6230  212.1350  140.6780 N   0  0  0  0  0  0  0  0  0  0  0  0
  162.8430  213.6690  141.9030 C   0  0  0  0  0  0  0  0  0  0  0  0
  162.0910  213.4920  144.9000 C   0  0  0  0  0  3  0  0  0  0  0  0
  157.8690  211.8060  152.6240 O   0  0  0  0  0  0  0  0  0  0  0  0
  158.3860  212.9080  152.7530 C   0  0  0  0  0  0  0  0  0  0  0  0
  157.9760  213.8000  153.8800 C   0  0  0  0  0  2  0  0  0  0  0  0
  159.2040  214.3230  154.6100 C   0  0  0  0  0  2  0  0  0  0  0  0
  159.5720  213.4170  155.7390 C   0  0  0  0  0  0  0  0  0  0  0  0
  160.2940  212.2190  155.4670 N   0  0  0  0  0  2  0  0  0  0  0  0
  159.2030  213.6880  156.9140 O   0  0  0  0  0  0  0  0  0  0  0  0
  159.2930  209.7240  155.4200 O   0  0  0  0  0  1  0  0  0  0  0  0
  160.7280  211.3130  156.5260 C   0  0  1  0  0  3  0  0  0  0  0  0
  159.7940  210.1170  156.6680 C   0  0  2  0  0  3  0  0  0  0  0  0
  162.1040  209.3520  156.8480 C   0  0  0  0  0  2  0  0  0  0  0  0
  162.0900  210.7280  156.2100 C   0  0  0  0  0  2  0  0  0  0  0  0
  160.6690  209.0070  157.2140 C   0  0  0  0  0  2  0  0  0  0  0  0
  161.8100  210.5320  150.9820 O   0  0  0  0  0  0  0  0  0  0  0  0
  162.1710  208.1450  150.5860 C   0  0  0  0  0  3  0  0  0  0  0  0
  161.6670  209.1950  151.3680 C   0  0  0  0  0  0  0  0  0  0  0  0
  161.4410  206.5330  152.2450 C   0  0  0  0  0  0  0  0  0  0  0  0
  162.0540  206.8220  151.0220 C   0  0  0  0  0  3  0  0  0  0  0  0
  161.0310  208.9050  152.5780 C   0  0  0  0  0  3  0  0  0  0  0  0
  160.9230  207.5830  153.0180 C   0  0  0  0  0  3  0  0  0  0  0  0
  161.3750  205.2020  152.6760 O   0  0  0  0  0  0  0  0  0  0  0  0
  162.0120  204.1290  151.9860 C   0  0  0  0  0  2  0  0  0  0  0  0
  160.9790  203.1380  151.4770 C   0  0  0  0  0  2  0  0  0  0  0  0
  161.0170  202.9670  147.1850 C   0  0  0  0  0  0  0  0  0  0  0  0
  160.9940  200.4630  145.8890 N   0  0  0  0  0  2  0  0  0  0  0  0
  160.8030  201.8530  149.3380 C   0  0  0  0  0  3  0  0  0  0  0  0
  161.0450  203.0660  149.9890 C   0  0  0  0  0  0  0  0  0  0  0  0
  160.4820  200.4930  147.2620 C   0  0  0  0  0  2  0  0  0  0  0  0
  161.2660  204.1830  147.8490 C   0  0  0  0  0  0  0  0  0  0  0  0
  160.8100  201.7930  147.9440 C   0  0  0  0  0  0  0  0  0  0  0  0
  161.0530  202.8980  145.6770 C   0  0  0  0  0  2  0  0  0  0  0  0
  161.2740  204.2260  149.2450 C   0  0  0  0  0  3  0  0  0  0  0  0
  160.4280  201.6010  145.1610 C   0  0  0  0  0  2  0  0  0  0  0  0
  161.5620  205.6740  146.9580 Cl  0  0  0  0  0  0  0  0  0  0  0  0
  1  5  1  0  0  0  0
  2  8  1  1  0  0  0
  2  3  1  0  0  0  0
  3 37  1  6  0  0  0
  3  7  1  0  0  0  0
  5  7  1  0  0  0  0
  5 25  1  1  0  0  0
  6 20  1  6  0  0  0
  6 12  1  0  0  0  0
  6 11  1  0  0  0  0
  9 10  1  0  0  0  0
 10  2  1  0  0  0  0
 10  4  1  1  0  0  0
 10  1  1  0  0  0  0
 11  8  1  0  0  0  0
 12  9  1  0  0  0  0
 13 16  1  0  0  0  0
 14 13  2  0  0  0  0
 15 19  1  0  0  0  0
 16 23  1  0  0  0  0
 16 20  2  0  0  0  0
 17 18  1  0  0  0  0
 17 21  2  0  0  0  0
 18 22  1  0  0  0  0
 19 23  2  0  0  0  0
 21 14  1  0  0  0  0
 22 14  1  0  0  0  0
 22 15  2  0  0  0  0
 24 25  2  0  0  0  0
 25 26  1  0  0  0  0
 26 27  1  0  0  0  0
 27 28  1  0  0  0  0
 28 30  2  0  0  0  0
 29 28  1  0  0  0  0
 32 29  1  6  0  0  0
 32 33  1  0  0  0  0
 33 31  1  6  0  0  0
 33 36  1  0  0  0  0
 34 36  1  0  0  0  0
 35 32  1  0  0  0  0
 35 34  1  0  0  0  0
 37 39  1  0  0  0  0
 38 41  2  0  0  0  0
 38 39  1  0  0  0  0
 39 42  2  0  0  0  0
 40 44  1  0  0  0  0
 40 43  2  0  0  0  0
 41 40  1  0  0  0  0
 42 43  1  0  0  0  0
 45 44  1  0  0  0  0
 46 45  1  0  0  0  0
 47 52  2  0  0  0  0
 47 53  1  0  0  0  0
 48 51  1  0  0  0  0
 49 50  1  0  0  0  0
 50 46  1  0  0  0  0
 51 53  1  0  0  0  0
 52 55  1  0  0  0  0
 53 49  2  0  0  0  0
 54 47  1  0  0  0  0
 55 50  2  0  0  0  0
 56 54  1  0  0  0  0
 56 48  1  0  0  0  0
 57 52  1  0  0  0  0
M  END
>  <MODEL>
2

>  <REMARK>
 VINA RESULT:      -7.8      2.060      2.943
  Name = 
  12 active torsions:
  status: ('A' for Active; 'I' for Inactive)
    1  A    between atoms: C_6  and  N_26
    2  A    between atoms: C_10  and  C_22
    3  A    between atoms: C_10  and  C_56
    4  A    between atoms: C_11  and  C_47
    5  A    between atoms: O_13  and  C_16
    6  A    between atoms: O_13  and  C_34
    7  A    between atoms: C_14  and  O_27
    8  A    between atoms: C_16  and  C_17
    9  A    between atoms: C_17  and  C_28
   10  A    between atoms: C_25  and  O_27
   11  A    between atoms: C_29  and  N_49
   12  A    between atoms: C_47  and  C_56
                            x       y       z     vdW  Elec       q    Type
                         _______ _______ _______ _____ _____    ______ ____

>  <TORSDO>
F 12

$$$$
=
 OpenBabel11072414093D

 57 64  0  0  1  0  0  0  0  0999 V2000
  161.2910  212.1680  146.7750 C   0  0  0  0  0  2  0  0  0  0  0  0
  161.0080  212.2050  149.2350 N   0  0  2  0  0  0  0  0  0  0  0  0
  160.4570  213.5740  149.0350 C   0  0  2  0  0  3  0  0  0  0  0  0
  163.3150  212.0660  148.2210 C   0  0  0  0  0  1  0  0  0  0  0  0
  161.3340  213.7030  146.6750 C   0  0  2  0  0  3  0  0  0  0  0  0
  161.2140  209.5290  150.2020 C   0  0  1  0  0  3  0  0  0  0  0  0
  161.2590  214.4060  148.0380 C   0  0  0  0  0  2  0  0  0  0  0  0
  161.6750  212.0250  150.5310 C   0  0  0  0  0  2  0  0  0  0  0  0
  161.7400  210.1380  148.1170 C   0  0  0  0  0  2  0  0  0  0  0  0
  161.8330  211.6680  148.1160 C   0  0  2  0  0  0  0  0  0  0  0  0
  161.2480  210.7080  151.1800 C   0  0  0  0  0  2  0  0  0  0  0  0
  162.2820  209.5970  149.2950 O   0  0  0  0  0  0  0  0  0  0  0  0
  161.2760  206.0430  151.3970 C   0  0  0  0  0  3  0  0  0  0  0  0
  161.2010  204.6660  151.2300 C   0  0  1  0  0  3  0  0  0  0  0  0
  160.8010  204.4480  148.7550 C   0  0  0  0  0  3  0  0  0  0  0  0
  161.1660  207.0820  150.4730 C   0  0  0  0  0  0  0  0  0  0  0  0
  161.2530  202.5410  152.0420 C   0  0  0  0  0  3  0  0  0  0  0  0
  160.9850  202.3320  150.4000 S   0  0  0  0  0  0  0  0  0  0  0  0
  160.7780  205.7680  148.3410 C   0  0  0  0  0  3  0  0  0  0  0  0
  161.2840  208.2830  150.9630 N   0  0  0  0  0  2  0  0  0  0  0  0
  161.3440  203.8630  152.3210 N   0  0  0  0  0  0  0  0  0  0  0  0
  160.9890  203.9720  150.0400 C   0  0  0  0  0  0  0  0  0  0  0  0
  160.9380  206.9200  149.1000 C   0  0  0  0  0  3  0  0  0  0  0  0
  159.1520  214.4510  146.1350 O   0  0  0  0  0  0  0  0  0  0  0  0
  160.2820  214.2020  145.7340 C   0  0  0  0  0  0  0  0  0  0  0  0
  160.6310  214.4190  144.2970 C   0  0  0  0  0  2  0  0  0  0  0  0
  160.3220  213.1700  143.4860 C   0  0  0  0  0  2  0  0  0  0  0  0
  161.4850  212.7990  142.6250 C   0  0  0  0  0  0  0  0  0  0  0  0
  161.2710  211.9940  141.4690 N   0  0  0  0  0  2  0  0  0  0  0  0
  162.6510  213.1550  142.9490 O   0  0  0  0  0  0  0  0  0  0  0  0
  160.5650  210.9780  139.0820 O   0  0  0  0  0  1  0  0  0  0  0  0
  162.3540  211.6350  140.5580 C   0  0  1  0  0  3  0  0  0  0  0  0
  161.8810  210.6860  139.4620 C   0  0  2  0  0  3  0  0  0  0  0  0
  163.3580  212.3640  138.4840 C   0  0  0  0  0  2  0  0  0  0  0  0
  162.8780  212.8590  139.8350 C   0  0  0  0  0  2  0  0  0  0  0  0
  162.8010  210.9630  138.2910 C   0  0  0  0  0  2  0  0  0  0  0  0
  160.2880  214.2870  150.2620 O   0  0  0  0  0  0  0  0  0  0  0  0
  157.8540  214.2710  150.5130 C   0  0  0  0  0  3  0  0  0  0  0  0
  159.1440  214.1670  151.0580 C   0  0  0  0  0  0  0  0  0  0  0  0
  156.8800  213.8160  152.6880 C   0  0  0  0  0  0  0  0  0  0  0  0
  156.7300  214.1000  151.3270 C   0  0  0  0  0  3  0  0  0  0  0  0
  159.2940  213.9100  152.4220 C   0  0  0  0  0  3  0  0  0  0  0  0
  158.1700  213.7290  153.2340 C   0  0  0  0  0  3  0  0  0  0  0  0
  155.7360  213.6090  153.4700 O   0  0  0  0  0  0  0  0  0  0  0  0
  155.7160  213.7940  154.8830 C   0  0  0  0  0  2  0  0  0  0  0  0
  155.8380  212.4580  155.5960 C   0  0  0  0  0  2  0  0  0  0  0  0
  159.9870  211.7800  156.4720 C   0  0  0  0  0  0  0  0  0  0  0  0
  160.9920  209.1460  156.5120 N   0  0  0  0  0  2  0  0  0  0  0  0
  157.8210  210.9410  155.7480 C   0  0  0  0  0  3  0  0  0  0  0  0
  157.2640  212.2080  155.9500 C   0  0  0  0  0  0  0  0  0  0  0  0
  159.7650  209.3650  155.7410 C   0  0  0  0  0  2  0  0  0  0  0  0
  159.4170  213.0500  156.6780 C   0  0  0  0  0  0  0  0  0  0  0  0
  159.1690  210.7170  156.0280 C   0  0  0  0  0  0  0  0  0  0  0  0
  161.4400  211.5320  156.8000 C   0  0  0  0  0  2  0  0  0  0  0  0
  158.0620  213.2570  156.4120 C   0  0  0  0  0  3  0  0  0  0  0  0
  161.9350  210.2190  156.1920 C   0  0  0  0  0  2  0  0  0  0  0  0
  160.3790  214.4070  157.2600 Cl  0  0  0  0  0  0  0  0  0  0  0  0
  1 10  1  0  0  0  0
  2  8  1  1  0  0  0
  3  2  1  0  0  0  0
  3 37  1  1  0  0  0
  5 25  1  6  0  0  0
  5  1  1  0  0  0  0
  5  7  1  0  0  0  0
  6 20  1  1  0  0  0
  6 11  1  0  0  0  0
  7  3  1  0  0  0  0
  8 11  1  0  0  0  0
  9 12  1  0  0  0  0
 10  9  1  0  0  0  0
 10  4  1  1  0  0  0
 10  2  1  0  0  0  0
 12  6  1  0  0  0  0
 14 13  1  1  0  0  0
 14 21  1  0  0  0  0
 15 22  2  0  0  0  0
 16 20  1  0  0  0  0
 16 13  2  0  0  0  0
 17 21  2  0  0  0  0
 18 17  1  0  0  0  0
 19 15  1  0  0  0  0
 19 23  2  0  0  0  0
 22 18  1  0  0  0  0
 22 14  1  0  0  0  0
 23 16  1  0  0  0  0
 25 24  2  0  0  0  0
 26 25  1  0  0  0  0
 27 26  1  0  0  0  0
 28 30  2  0  0  0  0
 28 27  1  0  0  0  0
 29 28  1  0  0  0  0
 32 29  1  1  0  0  0
 33 31  1  6  0  0  0
 33 32  1  0  0  0  0
 34 35  1  0  0  0  0
 35 32  1  0  0  0  0
 36 34  1  0  0  0  0
 36 33  1  0  0  0  0
 37 39  1  0  0  0  0
 38 39  2  0  0  0  0
 38 41  1  0  0  0  0
 39 42  1  0  0  0  0
 40 43  1  0  0  0  0
 40 44  1  0  0  0  0
 41 40  2  0  0  0  0
 42 43  2  0  0  0  0
 44 45  1  0  0  0  0
 45 46  1  0  0  0  0
 46 50  1  0  0  0  0
 47 52  1  0  0  0  0
 47 54  1  0  0  0  0
 49 50  2  0  0  0  0
 49 53  1  0  0  0  0
 50 55  1  0  0  0  0
 51 53  1  0  0  0  0
 51 48  1  0  0  0  0
 52 57  1  0  0  0  0
 53 47  2  0  0  0  0
 55 52  2  0  0  0  0
 56 48  1  0  0  0  0
 56 54  1  0  0  0  0
M  END
>  <MODEL>
3

>  <REMARK>
 VINA RESULT:      -6.8      3.885     11.102
  Name = 
  12 active torsions:
  status: ('A' for Active; 'I' for Inactive)
    1  A    between atoms: C_6  and  N_26
    2  A    between atoms: C_10  and  C_22
    3  A    between atoms: C_10  and  C_56
    4  A    between atoms: C_11  and  C_47
    5  A    between atoms: O_13  and  C_16
    6  A    between atoms: O_13  and  C_34
    7  A    between atoms: C_14  and  O_27
    8  A    between atoms: C_16  and  C_17
    9  A    between atoms: C_17  and  C_28
   10  A    between atoms: C_25  and  O_27
   11  A    between atoms: C_29  and  N_49
   12  A    between atoms: C_47  and  C_56
                            x       y       z     vdW  Elec       q    Type
                         _______ _______ _______ _____ _____    ______ ____

>  <TORSDO>
F 12

$$$$
=
 OpenBabel11072414093D

 57 64  0  0  1  0  0  0  0  0999 V2000
  161.3160  206.9780  149.5110 C   0  0  0  0  0  2  0  0  0  0  0  0
  161.5800  209.3430  150.2010 N   0  0  2  0  0  0  0  0  0  0  0  0
  162.0710  209.5710  148.8130 C   0  0  2  0  0  3  0  0  0  0  0  0
  162.9590  207.5360  151.2970 C   0  0  0  0  0  1  0  0  0  0  0  0
  162.3620  207.1030  148.3900 C   0  0  2  0  0  3  0  0  0  0  0  0
  160.1010  209.7470  152.6070 C   0  0  1  0  0  3  0  0  0  0  0  0
  163.0270  208.4860  148.3260 C   0  0  0  0  0  2  0  0  0  0  0  0
  162.1710  210.2540  151.1880 C   0  0  0  0  0  2  0  0  0  0  0  0
  160.5130  207.7340  151.7270 C   0  0  0  0  0  2  0  0  0  0  0  0
  161.6100  207.9300  150.6740 C   0  0  2  0  0  0  0  0  0  0  0  0
  161.0950  210.8080  152.1230 C   0  0  0  0  0  2  0  0  0  0  0  0
  160.7500  208.5290  152.8610 O   0  0  0  0  0  0  0  0  0  0  0  0
  158.1380  211.5170  155.1740 C   0  0  0  0  0  3  0  0  0  0  0  0
  157.2730  212.5090  155.6190 C   0  0  2  0  0  3  0  0  0  0  0  0
  156.7970  213.7900  153.5060 C   0  0  0  0  0  3  0  0  0  0  0  0
  158.6460  211.2510  153.9030 C   0  0  0  0  0  0  0  0  0  0  0  0
  156.0870  213.5480  157.2580 C   0  0  0  0  0  3  0  0  0  0  0  0
  155.7320  214.4420  155.8840 S   0  0  0  0  0  0  0  0  0  0  0  0
  157.5500  213.1060  152.5680 C   0  0  0  0  0  3  0  0  0  0  0  0
  159.4500  210.2300  153.8220 N   0  0  0  0  0  2  0  0  0  0  0  0
  156.9340  212.5420  156.9370 N   0  0  0  0  0  0  0  0  0  0  0  0
  156.6830  213.5150  154.8570 C   0  0  0  0  0  0  0  0  0  0  0  0
  158.3600  211.9920  152.7490 C   0  0  0  0  0  3  0  0  0  0  0  0
  160.6970  207.1600  146.7070 O   0  0  0  0  0  0  0  0  0  0  0  0
  161.7740  206.7080  147.0710 C   0  0  0  0  0  0  0  0  0  0  0  0
  162.5300  205.7700  146.1870 C   0  0  0  0  0  2  0  0  0  0  0  0
  161.5680  204.8470  145.4540 C   0  0  0  0  0  2  0  0  0  0  0  0
  161.3430  203.5930  146.2340 C   0  0  0  0  0  0  0  0  0  0  0  0
  161.6770  203.5620  147.6190 N   0  0  0  0  0  2  0  0  0  0  0  0
  160.9060  202.5600  145.6580 O   0  0  0  0  0  0  0  0  0  0  0  0
  160.8410  204.0050  150.1360 O   0  0  0  0  0  1  0  0  0  0  0  0
  161.4380  202.3870  148.4520 C   0  0  1  0  0  3  0  0  0  0  0  0
  161.4090  202.7400  149.9350 C   0  0  2  0  0  3  0  0  0  0  0  0
  159.6150  201.1570  149.4540 C   0  0  0  0  0  2  0  0  0  0  0  0
  160.0820  201.7810  148.1530 C   0  0  0  0  0  2  0  0  0  0  0  0
  160.5070  201.6950  150.5610 C   0  0  0  0  0  2  0  0  0  0  0  0
  162.6500  210.8650  148.6370 O   0  0  0  0  0  0  0  0  0  0  0  0
  162.9460  212.8950  147.3020 C   0  0  0  0  0  3  0  0  0  0  0  0
  162.1800  211.7850  147.6940 C   0  0  0  0  0  0  0  0  0  0  0  0
  161.2280  213.5450  145.7190 C   0  0  0  0  0  0  0  0  0  0  0  0
  162.4690  213.7700  146.3220 C   0  0  0  0  0  3  0  0  0  0  0  0
  160.9290  211.5750  147.1100 C   0  0  0  0  0  3  0  0  0  0  0  0
  160.4560  212.4450  146.1230 C   0  0  0  0  0  3  0  0  0  0  0  0
  160.7940  214.4160  144.7110 O   0  0  0  0  0  0  0  0  0  0  0  0
  160.7590  214.0540  143.3320 C   0  0  0  0  0  2  0  0  0  0  0  0
  159.9060  212.8130  143.1310 C   0  0  0  0  0  2  0  0  0  0  0  0
  160.4000  211.1920  139.1840 C   0  0  0  0  0  0  0  0  0  0  0  0
  162.9940  210.7720  138.1630 N   0  0  0  0  0  2  0  0  0  0  0  0
  161.3510  211.8760  141.3170 C   0  0  0  0  0  3  0  0  0  0  0  0
  160.0890  212.3000  141.7430 C   0  0  0  0  0  0  0  0  0  0  0  0
  162.8680  210.8320  139.6220 C   0  0  0  0  0  2  0  0  0  0  0  0
  159.1340  211.6280  139.6190 C   0  0  0  0  0  0  0  0  0  0  0  0
  161.5160  211.3440  140.0370 C   0  0  0  0  0  0  0  0  0  0  0  0
  160.5820  210.6430  137.7890 C   0  0  0  0  0  2  0  0  0  0  0  0
  158.9860  212.1750  140.8950 C   0  0  0  0  0  3  0  0  0  0  0  0
  161.9220  209.9220  137.6420 C   0  0  0  0  0  2  0  0  0  0  0  0
  157.7110  211.4930  138.5880 Cl  0  0  0  0  0  0  0  0  0  0  0  0
  1 10  1  0  0  0  0
  2 10  1  0  0  0  0
  2  8  1  1  0  0  0
  3 37  1  1  0  0  0
  3  2  1  0  0  0  0
  5 25  1  6  0  0  0
  5  1  1  0  0  0  0
  6 12  1  0  0  0  0
  6 20  1  1  0  0  0
  7  5  1  0  0  0  0
  7  3  1  0  0  0  0
  8 11  1  0  0  0  0
  9 12  1  0  0  0  0
 10  4  1  1  0  0  0
 10  9  1  0  0  0  0
 11  6  1  0  0  0  0
 14 13  1  6  0  0  0
 14 21  1  0  0  0  0
 15 22  2  0  0  0  0
 16 13  2  0  0  0  0
 18 17  1  0  0  0  0
 19 23  2  0  0  0  0
 19 15  1  0  0  0  0
 20 16  1  0  0  0  0
 21 17  2  0  0  0  0
 22 14  1  0  0  0  0
 22 18  1  0  0  0  0
 23 16  1  0  0  0  0
 24 25  2  0  0  0  0
 26 25  1  0  0  0  0
 27 26  1  0  0  0  0
 27 28  1  0  0  0  0
 28 29  1  0  0  0  0
 30 28  2  0  0  0  0
 32 29  1  6  0  0  0
 32 33  1  0  0  0  0
 33 31  1  6  0  0  0
 33 36  1  0  0  0  0
 34 36  1  0  0  0  0
 35 32  1  0  0  0  0
 35 34  1  0  0  0  0
 38 39  1  0  0  0  0
 39 37  1  0  0  0  0
 40 43  2  0  0  0  0
 40 41  1  0  0  0  0
 41 38  2  0  0  0  0
 42 39  2  0  0  0  0
 43 42  1  0  0  0  0
 44 40  1  0  0  0  0
 45 44  1  0  0  0  0
 46 45  1  0  0  0  0
 47 52  2  0  0  0  0
 47 53  1  0  0  0  0
 48 51  1  0  0  0  0
 49 50  1  0  0  0  0
 50 46  1  0  0  0  0
 51 53  1  0  0  0  0
 52 55  1  0  0  0  0
 53 49  2  0  0  0  0
 54 47  1  0  0  0  0
 55 50  2  0  0  0  0
 56 54  1  0  0  0  0
 56 48  1  0  0  0  0
 57 52  1  0  0  0  0
M  END
>  <MODEL>
4

>  <REMARK>
 VINA RESULT:      -6.8      3.910     11.012
  Name = 
  12 active torsions:
  status: ('A' for Active; 'I' for Inactive)
    1  A    between atoms: C_6  and  N_26
    2  A    between atoms: C_10  and  C_22
    3  A    between atoms: C_10  and  C_56
    4  A    between atoms: C_11  and  C_47
    5  A    between atoms: O_13  and  C_16
    6  A    between atoms: O_13  and  C_34
    7  A    between atoms: C_14  and  O_27
    8  A    between atoms: C_16  and  C_17
    9  A    between atoms: C_17  and  C_28
   10  A    between atoms: C_25  and  O_27
   11  A    between atoms: C_29  and  N_49
   12  A    between atoms: C_47  and  C_56
                            x       y       z     vdW  Elec       q    Type
                         _______ _______ _______ _____ _____    ______ ____

>  <TORSDO>
F 12

$$$$
=
 OpenBabel11072414093D

 57 64  0  0  1  0  0  0  0  0999 V2000
  159.3130  213.8480  148.2280 C   0  0  0  0  0  2  0  0  0  0  0  0
  160.5110  212.0550  147.0100 N   0  0  2  0  0  0  0  0  0  0  0  0
  160.8590  211.5310  148.3600 C   0  0  2  0  0  3  0  0  0  0  0  0
  161.2710  214.4530  146.8130 C   0  0  0  0  0  1  0  0  0  0  0  0
  160.1720  213.6750  149.4920 C   0  0  2  0  0  3  0  0  0  0  0  0
  159.6190  212.0600  144.3000 C   0  0  1  0  0  3  0  0  0  0  0  0
  161.2790  212.6230  149.3400 C   0  0  0  0  0  2  0  0  0  0  0  0
  161.5200  211.7550  145.9870 C   0  0  0  0  0  2  0  0  0  0  0  0
  159.1470  213.6810  145.7640 C   0  0  0  0  0  2  0  0  0  0  0  0
  160.0870  213.4830  146.9590 C   0  0  2  0  0  0  0  0  0  0  0  0
  160.8560  211.2520  144.7050 C   0  0  0  0  0  2  0  0  0  0  0  0
  159.8070  213.4270  144.5500 O   0  0  0  0  0  0  0  0  0  0  0  0
  159.7560  211.6520  140.6400 C   0  0  0  0  0  3  0  0  0  0  0  0
  160.4020  211.6340  139.4110 C   0  0  0  0  0  0  0  0  0  0  0  0
  162.7740  212.1870  140.0450 C   0  0  0  0  0  3  0  0  0  0  0  0
  160.2410  211.9040  141.9230 C   0  0  0  0  0  0  0  0  0  0  0  0
  160.4080  211.3650  137.1520 C   0  0  0  0  0  3  0  0  0  0  0  0
  162.0050  211.7290  137.5120 S   0  0  0  0  0  0  0  0  0  0  0  0
  162.6860  212.3380  141.4180 C   0  0  0  0  0  3  0  0  0  0  0  0
  159.3580  211.8430  142.8780 N   0  0  0  0  0  0  0  0  0  0  0  0
  159.6780  211.3550  138.2920 N   0  0  0  0  0  0  0  0  0  0  0  0
  161.7530  211.8740  139.1660 C   0  0  0  0  0  0  0  0  0  0  0  0
  161.5710  212.2130  142.2360 C   0  0  0  0  0  3  0  0  0  0  0  0
  158.3460  212.6520  150.6020 O   0  0  0  0  0  0  0  0  0  0  0  0
  159.3080  213.4030  150.6850 C   0  0  0  0  0  0  0  0  0  0  0  0
  159.6480  214.0420  151.9930 C   0  0  0  0  0  2  0  0  0  0  0  0
  158.3830  214.2930  152.8000 C   0  0  0  0  0  2  0  0  0  0  0  0
  158.4940  213.6810  154.1590 C   0  0  0  0  0  0  0  0  0  0  0  0
  159.0300  212.3670  154.2920 N   0  0  0  0  0  2  0  0  0  0  0  0
  158.0720  214.3050  155.1700 O   0  0  0  0  0  0  0  0  0  0  0  0
  160.0670  209.8860  154.2930 O   0  0  0  0  0  1  0  0  0  0  0  0
  159.2120  211.7270  155.5920 C   0  0  1  0  0  3  0  0  0  0  0  0
  159.3720  210.2170  155.4630 C   0  0  2  0  0  3  0  0  0  0  0  0
  160.9740  211.0540  157.1020 C   0  0  0  0  0  2  0  0  0  0  0  0
  160.4830  212.2140  156.2580 C   0  0  0  0  0  2  0  0  0  0  0  0
  160.2110  209.8160  156.6590 C   0  0  0  0  0  2  0  0  0  0  0  0
  161.8410  210.4930  148.3140 O   0  0  0  0  0  0  0  0  0  0  0  0
  162.1100  208.1230  148.8570 C   0  0  0  0  0  3  0  0  0  0  0  0
  161.8900  209.4530  149.2480 C   0  0  0  0  0  0  0  0  0  0  0  0
  162.0800  207.4170  151.1770 C   0  0  0  0  0  0  0  0  0  0  0  0
  162.2010  207.1120  149.8180 C   0  0  0  0  0  3  0  0  0  0  0  0
  161.7430  209.7540  150.6040 C   0  0  0  0  0  3  0  0  0  0  0  0
  161.8430  208.7450  151.5650 C   0  0  0  0  0  3  0  0  0  0  0  0
  162.2160  206.3890  152.1200 O   0  0  0  0  0  0  0  0  0  0  0  0
  162.2690  205.0100  151.7650 C   0  0  0  0  0  2  0  0  0  0  0  0
  160.8920  204.5140  151.3570 C   0  0  0  0  0  2  0  0  0  0  0  0
  161.1420  203.2060  147.2730 C   0  0  0  0  0  0  0  0  0  0  0  0
  160.7270  205.0580  145.1880 N   0  0  0  0  0  2  0  0  0  0  0  0
  160.9500  205.0020  148.9040 C   0  0  0  0  0  3  0  0  0  0  0  0
  160.9240  204.0600  149.9370 C   0  0  0  0  0  0  0  0  0  0  0  0
  161.1280  205.6130  146.4840 C   0  0  0  0  0  2  0  0  0  0  0  0
  161.1090  202.2650  148.3190 C   0  0  0  0  0  0  0  0  0  0  0  0
  161.0350  204.5830  147.5760 C   0  0  0  0  0  0  0  0  0  0  0  0
  161.2060  202.7500  145.8350 C   0  0  0  0  0  2  0  0  0  0  0  0
  161.0050  202.6970  149.6430 C   0  0  0  0  0  3  0  0  0  0  0  0
  161.5760  203.9010  144.8990 C   0  0  0  0  0  2  0  0  0  0  0  0
  161.2060  200.5340  148.0020 Cl  0  0  0  0  0  0  0  0  0  0  0  0
  1  5  1  0  0  0  0
  2  8  1  6  0  0  0
  2  3  1  0  0  0  0
  3 37  1  6  0  0  0
  3  7  1  0  0  0  0
  5 25  1  1  0  0  0
  6 20  1  6  0  0  0
  6 12  1  0  0  0  0
  6 11  1  0  0  0  0
  7  5  1  0  0  0  0
  9 10  1  0  0  0  0
 10  4  1  6  0  0  0
 10  2  1  0  0  0  0
 10  1  1  0  0  0  0
 11  8  1  0  0  0  0
 12  9  1  0  0  0  0
 13 16  1  0  0  0  0
 14 13  2  0  0  0  0
 15 19  1  0  0  0  0
 16 23  1  0  0  0  0
 16 20  2  0  0  0  0
 17 18  1  0  0  0  0
 17 21  2  0  0  0  0
 18 22  1  0  0  0  0
 19 23  2  0  0  0  0
 21 14  1  0  0  0  0
 22 14  1  0  0  0  0
 22 15  2  0  0  0  0
 24 25  2  0  0  0  0
 25 26  1  0  0  0  0
 26 27  1  0  0  0  0
 27 28  1  0  0  0  0
 28 29  1  0  0  0  0
 28 30  2  0  0  0  0
 32 29  1  6  0  0  0
 32 35  1  0  0  0  0
 33 31  1  6  0  0  0
 33 32  1  0  0  0  0
 33 36  1  0  0  0  0
 35 34  1  0  0  0  0
 36 34  1  0  0  0  0
 37 39  1  0  0  0  0
 38 39  2  0  0  0  0
 38 41  1  0  0  0  0
 39 42  1  0  0  0  0
 40 43  1  0  0  0  0
 40 44  1  0  0  0  0
 41 40  2  0  0  0  0
 42 43  2  0  0  0  0
 45 44  1  0  0  0  0
 46 45  1  0  0  0  0
 47 53  2  0  0  0  0
 47 52  1  0  0  0  0
 48 51  1  0  0  0  0
 49 50  2  0  0  0  0
 50 46  1  0  0  0  0
 51 53  1  0  0  0  0
 52 55  2  0  0  0  0
 53 49  1  0  0  0  0
 54 47  1  0  0  0  0
 55 50  1  0  0  0  0
 56 48  1  0  0  0  0
 56 54  1  0  0  0  0
 57 52  1  0  0  0  0
M  END
>  <MODEL>
5

>  <REMARK>
 VINA RESULT:      -5.5      1.878      2.635
  Name = 
  12 active torsions:
  status: ('A' for Active; 'I' for Inactive)
    1  A    between atoms: C_6  and  N_26
    2  A    between atoms: C_10  and  C_22
    3  A    between atoms: C_10  and  C_56
    4  A    between atoms: C_11  and  C_47
    5  A    between atoms: O_13  and  C_16
    6  A    between atoms: O_13  and  C_34
    7  A    between atoms: C_14  and  O_27
    8  A    between atoms: C_16  and  C_17
    9  A    between atoms: C_17  and  C_28
   10  A    between atoms: C_25  and  O_27
   11  A    between atoms: C_29  and  N_49
   12  A    between atoms: C_47  and  C_56
                            x       y       z     vdW  Elec       q    Type
                         _______ _______ _______ _____ _____    ______ ____

>  <TORSDO>
F 12

$$$$
