=
 OpenBabel11072411533D

 32 35  0  0  1  0  0  0  0  0999 V2000
  161.0550  208.5620  150.0810 N   0  0  0  0  0  2  0  0  0  0  0  0
  161.5420  202.8900  146.8670 C   0  0  0  0  0  2  0  0  0  0  0  0
  161.0870  206.1540  149.6230 C   0  0  0  0  0  0  0  0  0  0  0  0
  161.9460  205.9050  152.6200 C   0  0  2  0  0  3  0  0  0  0  0  0
  160.3310  204.8580  149.8730 C   0  0  1  0  0  3  0  0  0  0  0  0
  162.9900  205.8610  153.5410 O   0  0  0  0  0  1  0  0  0  0  0  0
  161.8760  206.3040  148.5430 C   0  0  0  0  0  3  0  0  0  0  0  0
  162.0480  205.2310  147.5490 C   0  0  0  0  0  3  0  0  0  0  0  0
  160.1200  202.4930  148.8590 C   0  0  0  0  0  2  0  0  0  0  0  0
  160.7010  201.8360  147.5970 C   0  0  2  0  0  3  0  0  0  0  0  0
  160.7400  203.8000  148.9460 N   0  0  0  0  0  0  0  0  0  0  0  0
  161.5850  200.6710  147.9950 C   0  0  0  0  0  1  0  0  0  0  0  0
  161.4910  204.0480  147.7790 C   0  0  0  0  0  0  0  0  0  0  0  0
  161.0280  207.2250  150.6740 C   0  0  1  0  0  3  0  0  0  0  0  0
  160.4320  204.3740  151.3290 C   0  0  0  0  0  2  0  0  0  0  0  0
  161.8270  204.5470  151.9290 C   0  0  0  0  0  2  0  0  0  0  0  0
  162.1970  207.0480  151.6340 C   0  0  0  0  0  2  0  0  0  0  0  0
  161.7900  209.5110  150.9280 C   0  0  2  0  0  3  0  0  0  0  0  0
  160.9560  210.0250  152.1120 C   0  0  2  0  0  3  0  0  0  0  0  0
  160.2180  211.3220  151.7890 C   0  0  2  0  0  3  0  0  0  0  0  0
  159.9340  212.0890  153.0240 C   0  0  0  0  0  2  0  0  0  0  0  0
  158.9530  211.2970  152.4070 O   0  0  0  0  0  0  0  0  0  0  0  0
  161.5920  209.6910  154.5110 C   0  0  0  0  0  3  0  0  0  0  0  0
  161.8440  210.2260  153.3090 C   0  0  0  0  0  3  0  0  0  0  0  0
  159.4580  209.5770  155.5310 O   0  0  0  0  0  1  0  0  0  0  0  0
  160.8160  207.6320  155.6030 C   0  0  0  0  0  1  0  0  0  0  0  0
  160.3930  208.8430  154.8010 C   0  0  2  0  0  3  0  0  0  0  0  0
  162.4000  210.5910  150.1560 N   0  0  0  0  0  2  0  0  0  0  0  0
  162.0280  210.3910  148.7650 C   0  0  0  0  0  2  0  0  0  0  0  0
  161.7730  211.7330  148.1000 C   0  0  0  0  0  2  0  0  0  0  0  0
  163.0740  212.4820  147.8700 C   0  0  0  0  0  2  0  0  0  0  0  0
  162.8220  213.8500  147.7640 O   0  0  0  0  0  1  0  0  0  0  0  0
  2 10  1  0  0  0  0
  2 13  1  0  0  0  0
  3  5  1  0  0  0  0
  3 14  1  0  0  0  0
  4  6  1  1  0  0  0
  5 15  1  1  0  0  0
  7  3  2  0  0  0  0
  8 13  2  0  0  0  0
  8  7  1  0  0  0  0
  9 11  1  0  0  0  0
 10 12  1  1  0  0  0
 10  9  1  0  0  0  0
 11  5  1  0  0  0  0
 13 11  1  0  0  0  0
 14  1  1  6  0  0  0
 14 17  1  0  0  0  0
 15 16  1  0  0  0  0
 16  4  1  0  0  0  0
 17  4  1  0  0  0  0
 18  1  1  6  0  0  0
 18 19  1  0  0  0  0
 19 24  1  1  0  0  0
 20 19  1  1  0  0  0
 20 22  1  0  0  0  0
 20 21  1  0  0  0  0
 22 21  1  0  0  0  0
 23 27  1  0  0  0  0
 24 23  2  0  0  0  0
 27 25  1  0  0  0  0
 27 26  1  1  0  0  0
 28 18  1  0  0  0  0
 29 28  1  0  0  0  0
 30 29  1  0  0  0  0
 31 30  1  0  0  0  0
 32 31  1  0  0  0  0
M  END
>  <MODEL>
1

>  <REMARK>
 VINA RESULT:      -6.2      0.000      0.000
  Name = 
  10 active torsions:
  status: ('A' for Active; 'I' for Inactive)
    1  A    between atoms: C_3  and  C_13
    2  A    between atoms: C_4  and  C_13
    3  A    between atoms: C_4  and  N_21
    4  A    between atoms: C_4  and  N_30
    5  A    between atoms: C_6  and  C_8
    6  A    between atoms: C_6  and  C_18
    7  A    between atoms: C_13  and  C_28
    8  A    between atoms: C_18  and  N_30
    9  A    between atoms: C_19  and  C_32
   10  A    between atoms: N_21  and  C_26
                            x       y       z     vdW  Elec       q    Type
                         _______ _______ _______ _____ _____    ______ ____

>  <TORSDO>
F 10

$$$$
=
 OpenBabel11072411533D

 32 35  0  0  1  0  0  0  0  0999 V2000
  161.8440  209.5270  152.0920 N   0  0  0  0  0  2  0  0  0  0  0  0
  159.1140  212.4540  157.2610 C   0  0  0  0  0  2  0  0  0  0  0  0
  160.3390  210.9120  153.4430 C   0  0  0  0  0  0  0  0  0  0  0  0
  160.0150  212.5810  150.8180 C   0  0  2  0  0  3  0  0  0  0  0  0
  158.8730  211.2460  153.6740 C   0  0  1  0  0  3  0  0  0  0  0  0
  160.4750  213.6380  150.0350 O   0  0  0  0  0  1  0  0  0  0  0  0
  161.2520  211.0690  154.4190 C   0  0  0  0  0  3  0  0  0  0  0  0
  160.8870  211.5660  155.7560 C   0  0  0  0  0  3  0  0  0  0  0  0
  157.3690  212.2650  155.5090 C   0  0  0  0  0  2  0  0  0  0  0  0
  157.6350  212.7190  156.9530 C   0  0  2  0  0  3  0  0  0  0  0  0
  158.6640  211.9260  154.9560 N   0  0  0  0  0  0  0  0  0  0  0  0
  157.3500  214.2020  157.0770 C   0  0  0  0  0  1  0  0  0  0  0  0
  159.6410  211.9670  155.9720 C   0  0  0  0  0  0  0  0  0  0  0  0
  160.7670  210.5150  152.0590 C   0  0  1  0  0  3  0  0  0  0  0  0
  158.2510  212.0550  152.5240 C   0  0  0  0  0  2  0  0  0  0  0  0
  159.1800  213.1350  151.9710 C   0  0  0  0  0  2  0  0  0  0  0  0
  161.2120  211.7580  151.2990 C   0  0  0  0  0  2  0  0  0  0  0  0
  161.4780  208.3080  151.3590 C   0  0  2  0  0  3  0  0  0  0  0  0
  161.3700  207.0740  152.2690 C   0  0  2  0  0  3  0  0  0  0  0  0
  161.4450  207.4310  153.7510 C   0  0  2  0  0  3  0  0  0  0  0  0
  160.7190  206.4340  154.5720 C   0  0  0  0  0  2  0  0  0  0  0  0
  160.1440  207.6700  154.2330 O   0  0  0  0  0  0  0  0  0  0  0  0
  162.2120  204.8380  151.5170 C   0  0  0  0  0  3  0  0  0  0  0  0
  162.4550  206.0910  151.9230 C   0  0  0  0  0  3  0  0  0  0  0  0
  160.5620  203.4090  152.4340 O   0  0  0  0  0  1  0  0  0  0  0  0
  160.7390  203.5070  150.0700 C   0  0  0  0  0  1  0  0  0  0  0  0
  160.8340  204.2720  151.3720 C   0  0  2  0  0  3  0  0  0  0  0  0
  162.3320  208.0780  150.1960 N   0  0  0  0  0  2  0  0  0  0  0  0
  161.5020  208.2370  149.0140 C   0  0  0  0  0  2  0  0  0  0  0  0
  160.8970  206.8990  148.6220 C   0  0  0  0  0  2  0  0  0  0  0  0
  161.2840  206.5230  147.2020 C   0  0  0  0  0  2  0  0  0  0  0  0
  162.2870  205.5540  147.2250 O   0  0  0  0  0  1  0  0  0  0  0  0
  3  5  1  0  0  0  0
  3  7  2  0  0  0  0
  4  6  1  1  0  0  0
  4 17  1  0  0  0  0
  4 16  1  0  0  0  0
  5 15  1  6  0  0  0
  5 11  1  0  0  0  0
  7  8  1  0  0  0  0
  8 13  2  0  0  0  0
  9 10  1  0  0  0  0
 10 12  1  6  0  0  0
 10  2  1  0  0  0  0
 11  9  1  0  0  0  0
 11 13  1  0  0  0  0
 13  2  1  0  0  0  0
 14  1  1  1  0  0  0
 14  3  1  0  0  0  0
 16 15  1  0  0  0  0
 17 14  1  0  0  0  0
 18 28  1  6  0  0  0
 18  1  1  0  0  0  0
 18 19  1  0  0  0  0
 19 24  1  6  0  0  0
 20 19  1  6  0  0  0
 20 22  1  0  0  0  0
 20 21  1  0  0  0  0
 22 21  1  0  0  0  0
 23 24  2  0  0  0  0
 27 26  1  6  0  0  0
 27 23  1  0  0  0  0
 27 25  1  0  0  0  0
 29 28  1  0  0  0  0
 30 29  1  0  0  0  0
 31 32  1  0  0  0  0
 31 30  1  0  0  0  0
M  END
>  <MODEL>
2

>  <REMARK>
 VINA RESULT:      -6.1      2.777      8.064
  Name = 
  10 active torsions:
  status: ('A' for Active; 'I' for Inactive)
    1  A    between atoms: C_3  and  C_13
    2  A    between atoms: C_4  and  C_13
    3  A    between atoms: C_4  and  N_21
    4  A    between atoms: C_4  and  N_30
    5  A    between atoms: C_6  and  C_8
    6  A    between atoms: C_6  and  C_18
    7  A    between atoms: C_13  and  C_28
    8  A    between atoms: C_18  and  N_30
    9  A    between atoms: C_19  and  C_32
   10  A    between atoms: N_21  and  C_26
                            x       y       z     vdW  Elec       q    Type
                         _______ _______ _______ _____ _____    ______ ____

>  <TORSDO>
F 10

$$$$
=
 OpenBabel11072411533D

 32 35  0  0  1  0  0  0  0  0999 V2000
  161.7620  206.5800  149.3970 N   0  0  0  0  0  2  0  0  0  0  0  0
  161.3560  207.0910  155.9020 C   0  0  0  0  0  2  0  0  0  0  0  0
  161.3490  207.5110  151.6260 C   0  0  0  0  0  0  0  0  0  0  0  0
  161.9050  210.2610  150.2460 C   0  0  2  0  0  3  0  0  0  0  0  0
  160.3320  208.2850  152.4520 C   0  0  1  0  0  3  0  0  0  0  0  0
  162.8440  211.2260  149.8900 O   0  0  0  0  0  1  0  0  0  0  0  0
  162.2330  206.6810  152.2090 C   0  0  0  0  0  3  0  0  0  0  0  0
  162.2650  206.4750  153.6670 C   0  0  0  0  0  3  0  0  0  0  0  0
  159.7330  208.6940  154.9300 C   0  0  0  0  0  2  0  0  0  0  0  0
  160.2680  208.1140  156.2490 C   0  0  2  0  0  3  0  0  0  0  0  0
  160.5930  208.1670  153.8890 N   0  0  0  0  0  0  0  0  0  0  0  0
  160.8670  209.2270  157.0840 C   0  0  0  0  0  1  0  0  0  0  0  0
  161.4670  207.2050  154.4360 C   0  0  0  0  0  0  0  0  0  0  0  0
  161.4230  207.7850  150.1520 C   0  0  1  0  0  3  0  0  0  0  0  0
  160.2210  209.7620  152.0400 C   0  0  0  0  0  2  0  0  0  0  0  0
  161.5710  210.4070  151.7300 C   0  0  0  0  0  2  0  0  0  0  0  0
  162.4550  208.8760  149.8990 C   0  0  0  0  0  2  0  0  0  0  0  0
  160.5680  205.7800  149.0930 C   0  0  2  0  0  3  0  0  0  0  0  0
  160.8580  204.2730  149.0370 C   0  0  2  0  0  3  0  0  0  0  0  0
  161.3290  203.7160  150.3780 C   0  0  2  0  0  3  0  0  0  0  0  0
  160.4800  202.5790  150.8060 C   0  0  0  0  0  2  0  0  0  0  0  0
  160.3000  203.8710  151.3270 O   0  0  0  0  0  0  0  0  0  0  0  0
  161.8220  202.9430  147.1450 C   0  0  0  0  0  3  0  0  0  0  0  0
  161.8860  203.9920  147.9760 C   0  0  0  0  0  3  0  0  0  0  0  0
  161.1440  200.8050  147.9030 O   0  0  0  0  0  1  0  0  0  0  0  0
  160.3670  201.5130  145.7760 C   0  0  0  0  0  1  0  0  0  0  0  0
  160.7240  201.9260  147.1880 C   0  0  2  0  0  3  0  0  0  0  0  0
  159.8580  206.2640  147.9110 N   0  0  0  0  0  2  0  0  0  0  0  0
  160.8540  206.5140  146.8830 C   0  0  0  0  0  2  0  0  0  0  0  0
  160.2890  206.1590  145.5180 C   0  0  0  0  0  2  0  0  0  0  0  0
  161.3790  205.6350  144.5980 C   0  0  0  0  0  2  0  0  0  0  0  0
  162.6240  205.7760  145.2090 O   0  0  0  0  0  1  0  0  0  0  0  0
  2 10  1  0  0  0  0
  3  7  2  0  0  0  0
  3  5  1  0  0  0  0
  4  6  1  1  0  0  0
  4 16  1  0  0  0  0
  5 15  1  6  0  0  0
  5 11  1  0  0  0  0
  7  8  1  0  0  0  0
  8 13  2  0  0  0  0
  9 10  1  0  0  0  0
 10 12  1  1  0  0  0
 11 13  1  0  0  0  0
 11  9  1  0  0  0  0
 13  2  1  0  0  0  0
 14  1  1  6  0  0  0
 14  3  1  0  0  0  0
 16 15  1  0  0  0  0
 17 14  1  0  0  0  0
 17  4  1  0  0  0  0
 18 28  1  6  0  0  0
 18  1  1  0  0  0  0
 19 24  1  6  0  0  0
 19 18  1  0  0  0  0
 20 19  1  6  0  0  0
 20 21  1  0  0  0  0
 20 22  1  0  0  0  0
 21 22  1  0  0  0  0
 23 27  1  0  0  0  0
 23 24  2  0  0  0  0
 27 26  1  6  0  0  0
 27 25  1  0  0  0  0
 29 28  1  0  0  0  0
 30 29  1  0  0  0  0
 31 32  1  0  0  0  0
 31 30  1  0  0  0  0
M  END
>  <MODEL>
3

>  <REMARK>
 VINA RESULT:      -5.9      2.729      7.515
  Name = 
  10 active torsions:
  status: ('A' for Active; 'I' for Inactive)
    1  A    between atoms: C_3  and  C_13
    2  A    between atoms: C_4  and  C_13
    3  A    between atoms: C_4  and  N_21
    4  A    between atoms: C_4  and  N_30
    5  A    between atoms: C_6  and  C_8
    6  A    between atoms: C_6  and  C_18
    7  A    between atoms: C_13  and  C_28
    8  A    between atoms: C_18  and  N_30
    9  A    between atoms: C_19  and  C_32
   10  A    between atoms: N_21  and  C_26
                            x       y       z     vdW  Elec       q    Type
                         _______ _______ _______ _____ _____    ______ ____

>  <TORSDO>
F 10

$$$$
=
 OpenBabel11072411533D

 32 35  0  0  1  0  0  0  0  0999 V2000
  160.5800  209.7640  152.0080 N   0  0  0  0  0  2  0  0  0  0  0  0
  162.4790  206.4210  146.7200 C   0  0  0  0  0  2  0  0  0  0  0  0
  161.0500  207.8940  150.4940 C   0  0  0  0  0  0  0  0  0  0  0  0
  161.3700  206.2400  153.1290 C   0  0  2  0  0  3  0  0  0  0  0  0
  160.4590  206.6130  149.9230 C   0  0  1  0  0  3  0  0  0  0  0  0
  162.2210  205.7910  154.1360 O   0  0  0  0  0  1  0  0  0  0  0  0
  161.9930  208.5840  149.8270 C   0  0  0  0  0  3  0  0  0  0  0  0
  162.5020  208.1440  148.5180 C   0  0  0  0  0  3  0  0  0  0  0  0
  160.7890  205.0430  147.9000 C   0  0  0  0  0  2  0  0  0  0  0  0
  161.6830  205.1130  146.6520 C   0  0  2  0  0  3  0  0  0  0  0  0
  161.1830  206.1630  148.7320 N   0  0  0  0  0  0  0  0  0  0  0  0
  162.6400  203.9370  146.6490 C   0  0  0  0  0  1  0  0  0  0  0  0
  162.0920  206.9800  148.0290 C   0  0  0  0  0  0  0  0  0  0  0  0
  160.6410  208.3090  151.8790 C   0  0  1  0  0  3  0  0  0  0  0  0
  160.3620  205.4820  150.9590 C   0  0  0  0  0  2  0  0  0  0  0  0
  161.5810  205.3920  151.8760 C   0  0  0  0  0  2  0  0  0  0  0  0
  161.6270  207.7290  152.8850 C   0  0  0  0  0  2  0  0  0  0  0  0
  160.4190  210.1740  153.4090 C   0  0  2  0  0  3  0  0  0  0  0  0
  159.2280  211.1210  153.6200 C   0  0  2  0  0  3  0  0  0  0  0  0
  159.5260  212.5480  153.1630 C   0  0  2  0  0  3  0  0  0  0  0  0
  158.5250  213.0030  152.1690 C   0  0  0  0  0  2  0  0  0  0  0  0
  159.7930  212.5400  151.7800 O   0  0  0  0  0  0  0  0  0  0  0  0
  157.5560  211.1490  155.4850 C   0  0  0  0  0  3  0  0  0  0  0  0
  158.8300  211.1220  155.0700 C   0  0  0  0  0  3  0  0  0  0  0  0
  155.8670  212.4880  154.5060 O   0  0  0  0  0  1  0  0  0  0  0  0
  155.3170  210.2410  155.0400 C   0  0  0  0  0  1  0  0  0  0  0  0
  156.3870  211.1940  154.5520 C   0  0  2  0  0  3  0  0  0  0  0  0
  161.6590  210.6880  153.9860 N   0  0  0  0  0  2  0  0  0  0  0  0
  161.5250  210.6120  155.4320 C   0  0  0  0  0  2  0  0  0  0  0  0
  161.9670  209.2420  155.9200 C   0  0  0  0  0  2  0  0  0  0  0  0
  160.9100  208.6160  156.8140 C   0  0  0  0  0  2  0  0  0  0  0  0
  160.0030  207.8920  156.0400 O   0  0  0  0  0  1  0  0  0  0  0  0
  2 13  1  0  0  0  0
  3 14  1  0  0  0  0
  4  6  1  1  0  0  0
  5  3  1  0  0  0  0
  5 15  1  1  0  0  0
  7  3  2  0  0  0  0
  8  7  1  0  0  0  0
  9 11  1  0  0  0  0
 10 12  1  1  0  0  0
 10  2  1  0  0  0  0
 10  9  1  0  0  0  0
 11  5  1  0  0  0  0
 13  8  2  0  0  0  0
 13 11  1  0  0  0  0
 14  1  1  6  0  0  0
 14 17  1  0  0  0  0
 15 16  1  0  0  0  0
 16  4  1  0  0  0  0
 17  4  1  0  0  0  0
 18  1  1  6  0  0  0
 18 19  1  0  0  0  0
 18 28  1  0  0  0  0
 19 24  1  1  0  0  0
 20 19  1  6  0  0  0
 21 20  1  0  0  0  0
 22 21  1  0  0  0  0
 22 20  1  0  0  0  0
 24 23  2  0  0  0  0
 25 27  1  0  0  0  0
 27 26  1  1  0  0  0
 27 23  1  0  0  0  0
 28 29  1  0  0  0  0
 29 30  1  0  0  0  0
 30 31  1  0  0  0  0
 32 31  1  0  0  0  0
M  END
>  <MODEL>
4

>  <REMARK>
 VINA RESULT:      -5.6      2.178      4.249
  Name = 
  10 active torsions:
  status: ('A' for Active; 'I' for Inactive)
    1  A    between atoms: C_3  and  C_13
    2  A    between atoms: C_4  and  C_13
    3  A    between atoms: C_4  and  N_21
    4  A    between atoms: C_4  and  N_30
    5  A    between atoms: C_6  and  C_8
    6  A    between atoms: C_6  and  C_18
    7  A    between atoms: C_13  and  C_28
    8  A    between atoms: C_18  and  N_30
    9  A    between atoms: C_19  and  C_32
   10  A    between atoms: N_21  and  C_26
                            x       y       z     vdW  Elec       q    Type
                         _______ _______ _______ _____ _____    ______ ____

>  <TORSDO>
F 10

$$$$
=
 OpenBabel11072411533D

 32 35  0  0  1  0  0  0  0  0999 V2000
  161.3110  206.8600  151.7540 N   0  0  0  0  0  2  0  0  0  0  0  0
  160.2960  210.2740  157.2360 C   0  0  0  0  0  2  0  0  0  0  0  0
  160.6970  208.6920  153.2620 C   0  0  0  0  0  0  0  0  0  0  0  0
  161.4070  210.5250  150.8300 C   0  0  2  0  0  3  0  0  0  0  0  0
  159.6140  209.7220  153.5470 C   0  0  1  0  0  3  0  0  0  0  0  0
  162.3860  211.2530  150.1560 O   0  0  0  0  0  1  0  0  0  0  0  0
  161.5140  208.2520  154.2370 C   0  0  0  0  0  3  0  0  0  0  0  0
  161.4060  208.7360  155.6230 C   0  0  0  0  0  3  0  0  0  0  0  0
  158.7870  211.1980  155.4980 C   0  0  0  0  0  2  0  0  0  0  0  0
  159.1890  211.3030  156.9780 C   0  0  2  0  0  3  0  0  0  0  0  0
  159.7360  210.2830  154.8950 N   0  0  0  0  0  0  0  0  0  0  0  0
  159.7180  212.6950  157.2600 C   0  0  0  0  0  1  0  0  0  0  0  0
  160.5460  209.7090  155.8970 C   0  0  0  0  0  0  0  0  0  0  0  0
  160.9130  208.2650  151.8390 C   0  0  1  0  0  3  0  0  0  0  0  0
  159.5570  210.8430  152.4960 C   0  0  0  0  0  2  0  0  0  0  0  0
  160.9360  211.3220  152.0460 C   0  0  0  0  0  2  0  0  0  0  0  0
  161.9750  209.1550  151.2060 C   0  0  0  0  0  2  0  0  0  0  0  0
  160.9880  206.2880  150.4410 C   0  0  2  0  0  3  0  0  0  0  0  0
  160.8480  204.7580  150.4750 C   0  0  2  0  0  3  0  0  0  0  0  0
  161.6570  204.1210  151.6020 C   0  0  2  0  0  3  0  0  0  0  0  0
  160.7840  203.3150  152.4880 C   0  0  0  0  0  2  0  0  0  0  0  0
  161.1920  204.6130  152.8370 O   0  0  0  0  0  0  0  0  0  0  0  0
  161.0360  202.9090  148.7950 C   0  0  0  0  0  3  0  0  0  0  0  0
  161.2700  204.1790  149.1520 C   0  0  0  0  0  3  0  0  0  0  0  0
  161.2190  200.8980  150.0310 O   0  0  0  0  0  1  0  0  0  0  0  0
  159.1590  201.3300  148.9350 C   0  0  0  0  0  1  0  0  0  0  0  0
  160.3390  201.9210  149.6770 C   0  0  2  0  0  3  0  0  0  0  0  0
  161.8940  206.7480  149.3920 N   0  0  0  0  0  2  0  0  0  0  0  0
  161.0740  207.2520  148.3030 C   0  0  0  0  0  2  0  0  0  0  0  0
  161.6130  206.7490  146.9740 C   0  0  0  0  0  2  0  0  0  0  0  0
  160.4900  206.2300  146.0930 C   0  0  0  0  0  2  0  0  0  0  0  0
  161.0030  205.8180  144.8640 O   0  0  0  0  0  1  0  0  0  0  0  0
  3  5  1  0  0  0  0
  3  7  2  0  0  0  0
  4  6  1  1  0  0  0
  4 17  1  0  0  0  0
  4 16  1  0  0  0  0
  5 15  1  6  0  0  0
  5 11  1  0  0  0  0
  7  8  1  0  0  0  0
  8 13  2  0  0  0  0
  9 10  1  0  0  0  0
 10  2  1  0  0  0  0
 10 12  1  6  0  0  0
 11  9  1  0  0  0  0
 11 13  1  0  0  0  0
 13  2  1  0  0  0  0
 14  1  1  1  0  0  0
 14  3  1  0  0  0  0
 16 15  1  0  0  0  0
 17 14  1  0  0  0  0
 18 28  1  6  0  0  0
 18 19  1  0  0  0  0
 18  1  1  0  0  0  0
 19 24  1  6  0  0  0
 20 19  1  6  0  0  0
 20 21  1  0  0  0  0
 20 22  1  0  0  0  0
 21 22  1  0  0  0  0
 23 24  2  0  0  0  0
 23 27  1  0  0  0  0
 27 26  1  6  0  0  0
 27 25  1  0  0  0  0
 29 28  1  0  0  0  0
 30 29  1  0  0  0  0
 31 30  1  0  0  0  0
 32 31  1  0  0  0  0
M  END
>  <MODEL>
5

>  <REMARK>
 VINA RESULT:      -5.5      2.829      7.948
  Name = 
  10 active torsions:
  status: ('A' for Active; 'I' for Inactive)
    1  A    between atoms: C_3  and  C_13
    2  A    between atoms: C_4  and  C_13
    3  A    between atoms: C_4  and  N_21
    4  A    between atoms: C_4  and  N_30
    5  A    between atoms: C_6  and  C_8
    6  A    between atoms: C_6  and  C_18
    7  A    between atoms: C_13  and  C_28
    8  A    between atoms: C_18  and  N_30
    9  A    between atoms: C_19  and  C_32
   10  A    between atoms: N_21  and  C_26
                            x       y       z     vdW  Elec       q    Type
                         _______ _______ _______ _____ _____    ______ ____

>  <TORSDO>
F 10

$$$$
=
 OpenBabel11072411533D

 32 35  0  0  1  0  0  0  0  0999 V2000
  160.8840  208.2140  152.0140 N   0  0  0  0  0  2  0  0  0  0  0  0
  158.4410  213.6340  154.7320 C   0  0  0  0  0  2  0  0  0  0  0  0
  160.3560  209.9370  153.6750 C   0  0  0  0  0  0  0  0  0  0  0  0
  160.6940  207.6140  155.7420 C   0  0  2  0  0  3  0  0  0  0  0  0
  160.9700  210.8080  154.7610 C   0  0  1  0  0  3  0  0  0  0  0  0
  160.0900  206.5780  156.4520 O   0  0  0  0  0  1  0  0  0  0  0  0
  159.2390  210.3140  153.0260 C   0  0  0  0  0  3  0  0  0  0  0  0
  158.5550  211.5830  153.3250 C   0  0  0  0  0  3  0  0  0  0  0  0
  160.4550  212.9960  156.0320 C   0  0  0  0  0  2  0  0  0  0  0  0
  159.3490  214.0550  155.8940 C   0  0  2  0  0  3  0  0  0  0  0  0
  160.0970  211.9300  155.1170 N   0  0  0  0  0  0  0  0  0  0  0  0
  158.5400  214.1120  157.1740 C   0  0  0  0  0  1  0  0  0  0  0  0
  158.9940  212.3260  154.3330 C   0  0  0  0  0  0  0  0  0  0  0  0
  160.9590  208.5830  153.4270 C   0  0  1  0  0  3  0  0  0  0  0  0
  161.3730  210.0150  156.0140 C   0  0  0  0  0  2  0  0  0  0  0  0
  160.3550  208.9460  156.4090 C   0  0  0  0  0  2  0  0  0  0  0  0
  160.2370  207.5510  154.2830 C   0  0  0  0  0  2  0  0  0  0  0  0
  162.1620  207.6740  151.5310 C   0  0  2  0  0  3  0  0  0  0  0  0
  162.1370  207.3320  150.0330 C   0  0  2  0  0  3  0  0  0  0  0  0
  162.6650  208.4720  149.1630 C   0  0  2  0  0  3  0  0  0  0  0  0
  162.1280  209.7760  149.6180 C   0  0  0  0  0  2  0  0  0  0  0  0
  161.5810  209.0970  148.5170 O   0  0  0  0  0  0  0  0  0  0  0  0
  160.4560  206.0830  148.6580 C   0  0  0  0  0  3  0  0  0  0  0  0
  160.7360  206.9780  149.6150 C   0  0  0  0  0  3  0  0  0  0  0  0
  161.4520  205.7100  146.5430 O   0  0  0  0  0  1  0  0  0  0  0  0
  161.2680  203.8560  148.0130 C   0  0  0  0  0  1  0  0  0  0  0  0
  161.5070  205.3450  147.8880 C   0  0  2  0  0  3  0  0  0  0  0  0
  162.6480  206.5690  152.3530 N   0  0  0  0  0  2  0  0  0  0  0  0
  162.3350  205.3370  151.6490 C   0  0  0  0  0  2  0  0  0  0  0  0
  161.2410  204.5830  152.3860 C   0  0  0  0  0  2  0  0  0  0  0  0
  160.6720  203.4700  151.5230 C   0  0  0  0  0  2  0  0  0  0  0  0
  161.4960  202.3460  151.5930 O   0  0  0  0  0  1  0  0  0  0  0  0
  2 10  1  0  0  0  0
  3  5  1  0  0  0  0
  4 16  1  0  0  0  0
  4  6  1  1  0  0  0
  5 11  1  0  0  0  0
  5 15  1  1  0  0  0
  7  8  1  0  0  0  0
  7  3  2  0  0  0  0
  8 13  2  0  0  0  0
 10  9  1  0  0  0  0
 10 12  1  1  0  0  0
 11  9  1  0  0  0  0
 13  2  1  0  0  0  0
 13 11  1  0  0  0  0
 14  1  1  6  0  0  0
 14  3  1  0  0  0  0
 14 17  1  0  0  0  0
 15 16  1  0  0  0  0
 17  4  1  0  0  0  0
 18  1  1  1  0  0  0
 18 28  1  0  0  0  0
 19 24  1  6  0  0  0
 19 18  1  0  0  0  0
 20 21  1  0  0  0  0
 20 19  1  1  0  0  0
 22 20  1  0  0  0  0
 22 21  1  0  0  0  0
 23 24  2  0  0  0  0
 25 27  1  0  0  0  0
 27 26  1  6  0  0  0
 27 23  1  0  0  0  0
 29 28  1  0  0  0  0
 29 30  1  0  0  0  0
 31 32  1  0  0  0  0
 31 30  1  0  0  0  0
M  END
>  <MODEL>
6

>  <REMARK>
 VINA RESULT:      -5.5      2.736      8.301
  Name = 
  10 active torsions:
  status: ('A' for Active; 'I' for Inactive)
    1  A    between atoms: C_3  and  C_13
    2  A    between atoms: C_4  and  C_13
    3  A    between atoms: C_4  and  N_21
    4  A    between atoms: C_4  and  N_30
    5  A    between atoms: C_6  and  C_8
    6  A    between atoms: C_6  and  C_18
    7  A    between atoms: C_13  and  C_28
    8  A    between atoms: C_18  and  N_30
    9  A    between atoms: C_19  and  C_32
   10  A    between atoms: N_21  and  C_26
                            x       y       z     vdW  Elec       q    Type
                         _______ _______ _______ _____ _____    ______ ____

>  <TORSDO>
F 10

$$$$
=
 OpenBabel11072411533D

 32 35  0  0  1  0  0  0  0  0999 V2000
  160.4870  209.1800  151.4150 N   0  0  0  0  0  2  0  0  0  0  0  0
  162.2890  205.8520  146.0850 C   0  0  0  0  0  2  0  0  0  0  0  0
  161.0170  207.3120  149.9190 C   0  0  0  0  0  0  0  0  0  0  0  0
  161.6930  205.7860  152.5640 C   0  0  2  0  0  3  0  0  0  0  0  0
  160.5100  205.9640  149.4310 C   0  0  1  0  0  3  0  0  0  0  0  0
  162.6570  205.4530  153.5120 O   0  0  0  0  0  1  0  0  0  0  0  0
  161.8360  208.0640  149.1620 C   0  0  0  0  0  3  0  0  0  0  0  0
  162.2840  207.6290  147.8290 C   0  0  0  0  0  3  0  0  0  0  0  0
  160.8330  204.3630  147.4310 C   0  0  0  0  0  2  0  0  0  0  0  0
  161.6180  204.4730  146.1150 C   0  0  2  0  0  3  0  0  0  0  0  0
  161.1810  205.5420  148.1990 N   0  0  0  0  0  0  0  0  0  0  0  0
  162.6800  203.3930  146.0670 C   0  0  0  0  0  1  0  0  0  0  0  0
  161.9510  206.4160  147.4050 C   0  0  0  0  0  0  0  0  0  0  0  0
  160.6770  207.7340  151.3200 C   0  0  1  0  0  3  0  0  0  0  0  0
  160.5990  204.8630  150.5010 C   0  0  0  0  0  2  0  0  0  0  0  0
  161.8880  204.9190  151.3210 C   0  0  0  0  0  2  0  0  0  0  0  0
  161.7870  207.2830  152.2600 C   0  0  0  0  0  2  0  0  0  0  0  0
  161.5470  209.8110  152.2120 C   0  0  2  0  0  3  0  0  0  0  0  0
  161.0050  210.5690  153.4330 C   0  0  2  0  0  3  0  0  0  0  0  0
  161.5460  210.0200  154.7520 C   0  0  2  0  0  3  0  0  0  0  0  0
  161.5790  211.0770  155.7900 C   0  0  0  0  0  2  0  0  0  0  0  0
  162.7320  210.7030  155.0810 O   0  0  0  0  0  0  0  0  0  0  0  0
  158.7270  211.5800  153.1750 C   0  0  0  0  0  3  0  0  0  0  0  0
  159.5020  210.5190  153.4370 C   0  0  0  0  0  3  0  0  0  0  0  0
  158.9350  213.8310  153.8810 O   0  0  0  0  0  1  0  0  0  0  0  0
  158.6830  213.4270  151.5560 C   0  0  0  0  0  1  0  0  0  0  0  0
  159.2720  212.9390  152.8620 C   0  0  2  0  0  3  0  0  0  0  0  0
  162.4490  210.6230  151.3990 N   0  0  0  0  0  2  0  0  0  0  0  0
  161.6280  211.3780  150.4670 C   0  0  0  0  0  2  0  0  0  0  0  0
  162.3210  211.4590  149.1170 C   0  0  0  0  0  2  0  0  0  0  0  0
  161.8020  212.6380  148.3100 C   0  0  0  0  0  2  0  0  0  0  0  0
  161.2130  212.1830  147.1310 O   0  0  0  0  0  1  0  0  0  0  0  0
  1 18  1  0  0  0  0
  2 10  1  0  0  0  0
  2 13  1  0  0  0  0
  3 14  1  0  0  0  0
  4  6  1  1  0  0  0
  5  3  1  0  0  0  0
  5 15  1  1  0  0  0
  7  3  2  0  0  0  0
  8  7  1  0  0  0  0
  9 11  1  0  0  0  0
 10 12  1  1  0  0  0
 10  9  1  0  0  0  0
 11  5  1  0  0  0  0
 13  8  2  0  0  0  0
 13 11  1  0  0  0  0
 14  1  1  6  0  0  0
 14 17  1  0  0  0  0
 15 16  1  0  0  0  0
 16  4  1  0  0  0  0
 17  4  1  0  0  0  0
 18 28  1  6  0  0  0
 18 19  1  0  0  0  0
 19 24  1  1  0  0  0
 20 19  1  6  0  0  0
 20 22  1  0  0  0  0
 20 21  1  0  0  0  0
 22 21  1  0  0  0  0
 23 24  2  0  0  0  0
 27 26  1  6  0  0  0
 27 23  1  0  0  0  0
 27 25  1  0  0  0  0
 29 28  1  0  0  0  0
 30 29  1  0  0  0  0
 31 30  1  0  0  0  0
 32 31  1  0  0  0  0
M  END
>  <MODEL>
7

>  <REMARK>
 VINA RESULT:      -5.4      1.682      2.775
  Name = 
  10 active torsions:
  status: ('A' for Active; 'I' for Inactive)
    1  A    between atoms: C_3  and  C_13
    2  A    between atoms: C_4  and  C_13
    3  A    between atoms: C_4  and  N_21
    4  A    between atoms: C_4  and  N_30
    5  A    between atoms: C_6  and  C_8
    6  A    between atoms: C_6  and  C_18
    7  A    between atoms: C_13  and  C_28
    8  A    between atoms: C_18  and  N_30
    9  A    between atoms: C_19  and  C_32
   10  A    between atoms: N_21  and  C_26
                            x       y       z     vdW  Elec       q    Type
                         _______ _______ _______ _____ _____    ______ ____

>  <TORSDO>
F 10

$$$$
=
 OpenBabel11072411533D

 32 35  0  0  1  0  0  0  0  0999 V2000
  161.9950  207.4340  152.3770 N   0  0  0  0  0  2  0  0  0  0  0  0
  162.2510  206.3220  145.9400 C   0  0  0  0  0  2  0  0  0  0  0  0
  161.5760  206.4290  150.1810 C   0  0  0  0  0  0  0  0  0  0  0  0
  161.0130  203.8250  151.8200 C   0  0  2  0  0  3  0  0  0  0  0  0
  160.4700  205.9270  149.2640 C   0  0  1  0  0  3  0  0  0  0  0  0
  161.5280  202.6600  152.3850 O   0  0  0  0  0  1  0  0  0  0  0  0
  162.7500  206.8610  149.6860 C   0  0  0  0  0  3  0  0  0  0  0  0
  163.0290  206.8740  148.2400 C   0  0  0  0  0  3  0  0  0  0  0  0
  160.0810  205.4430  146.7580 C   0  0  0  0  0  2  0  0  0  0  0  0
  160.9370  205.6650  145.5010 C   0  0  2  0  0  3  0  0  0  0  0  0
  160.9310  205.7880  147.8800 N   0  0  0  0  0  0  0  0  0  0  0  0
  161.2330  204.3300  144.8480 C   0  0  0  0  0  1  0  0  0  0  0  0
  162.1350  206.3510  147.4100 C   0  0  0  0  0  0  0  0  0  0  0  0
  161.3720  206.3190  151.6650 C   0  0  1  0  0  3  0  0  0  0  0  0
  159.8260  204.6210  149.7570 C   0  0  0  0  0  2  0  0  0  0  0  0
  160.8370  203.6210  150.3160 C   0  0  0  0  0  2  0  0  0  0  0  0
  161.9440  204.9940  152.1510 C   0  0  0  0  0  2  0  0  0  0  0  0
  161.0000  208.2320  153.1060 C   0  0  2  0  0  3  0  0  0  0  0  0
  160.9030  209.6770  152.5930 C   0  0  2  0  0  3  0  0  0  0  0  0
  162.0210  210.0280  151.6140 C   0  0  2  0  0  3  0  0  0  0  0  0
  161.6020  211.1180  150.7020 C   0  0  0  0  0  2  0  0  0  0  0  0
  161.5800  209.7720  150.3020 O   0  0  0  0  0  0  0  0  0  0  0  0
  159.8890  211.4210  154.0790 C   0  0  0  0  0  3  0  0  0  0  0  0
  160.9220  210.6310  153.7560 C   0  0  0  0  0  3  0  0  0  0  0  0
  158.6700  212.4240  152.3150 O   0  0  0  0  0  1  0  0  0  0  0  0
  157.4650  211.7750  154.2530 C   0  0  0  0  0  1  0  0  0  0  0  0
  158.6050  211.4510  153.3120 C   0  0  2  0  0  3  0  0  0  0  0  0
  161.1760  208.1570  154.5540 N   0  0  0  0  0  2  0  0  0  0  0  0
  160.1040  207.3260  155.0760 C   0  0  0  0  0  2  0  0  0  0  0  0
  160.1290  207.3440  156.5950 C   0  0  0  0  0  2  0  0  0  0  0  0
  160.9200  208.5340  157.1120 C   0  0  0  0  0  2  0  0  0  0  0  0
  160.0770  209.6350  157.2610 O   0  0  0  0  0  1  0  0  0  0  0  0
  2 13  1  0  0  0  0
  3 14  1  0  0  0  0
  4 17  1  0  0  0  0
  4  6  1  6  0  0  0
  5 15  1  1  0  0  0
  5  3  1  0  0  0  0
  7  3  2  0  0  0  0
  8  7  1  0  0  0  0
  9 11  1  0  0  0  0
 10 12  1  1  0  0  0
 10  2  1  0  0  0  0
 10  9  1  0  0  0  0
 11  5  1  0  0  0  0
 13 11  1  0  0  0  0
 13  8  2  0  0  0  0
 14 17  1  0  0  0  0
 14  1  1  1  0  0  0
 15 16  1  0  0  0  0
 16  4  1  0  0  0  0
 18  1  1  6  0  0  0
 18 28  1  0  0  0  0
 19 18  1  0  0  0  0
 19 24  1  1  0  0  0
 20 19  1  1  0  0  0
 21 20  1  0  0  0  0
 22 21  1  0  0  0  0
 22 20  1  0  0  0  0
 24 23  2  0  0  0  0
 25 27  1  0  0  0  0
 27 23  1  0  0  0  0
 27 26  1  1  0  0  0
 28 29  1  0  0  0  0
 29 30  1  0  0  0  0
 30 31  1  0  0  0  0
 31 32  1  0  0  0  0
M  END
>  <MODEL>
8

>  <REMARK>
 VINA RESULT:      -5.3      2.202      4.430
  Name = 
  10 active torsions:
  status: ('A' for Active; 'I' for Inactive)
    1  A    between atoms: C_3  and  C_13
    2  A    between atoms: C_4  and  C_13
    3  A    between atoms: C_4  and  N_21
    4  A    between atoms: C_4  and  N_30
    5  A    between atoms: C_6  and  C_8
    6  A    between atoms: C_6  and  C_18
    7  A    between atoms: C_13  and  C_28
    8  A    between atoms: C_18  and  N_30
    9  A    between atoms: C_19  and  C_32
   10  A    between atoms: N_21  and  C_26
                            x       y       z     vdW  Elec       q    Type
                         _______ _______ _______ _____ _____    ______ ____

>  <TORSDO>
F 10

$$$$
=
 OpenBabel11072411533D

 32 35  0  0  1  0  0  0  0  0999 V2000
  162.5440  208.9940  151.2880 N   0  0  0  0  0  2  0  0  0  0  0  0
  160.7050  211.5350  157.0240 C   0  0  0  0  0  2  0  0  0  0  0  0
  161.2680  210.2480  152.9650 C   0  0  0  0  0  0  0  0  0  0  0  0
  160.4320  212.0410  150.5430 C   0  0  2  0  0  3  0  0  0  0  0  0
  159.8590  210.5130  153.4720 C   0  0  1  0  0  3  0  0  0  0  0  0
  160.7150  213.1550  149.7550 O   0  0  0  0  0  1  0  0  0  0  0  0
  162.3370  210.3860  153.7710 C   0  0  0  0  0  3  0  0  0  0  0  0
  162.2040  210.7970  155.1780 C   0  0  0  0  0  3  0  0  0  0  0  0
  158.6800  211.3740  155.6020 C   0  0  0  0  0  2  0  0  0  0  0  0
  159.1880  211.7600  157.0000 C   0  0  2  0  0  3  0  0  0  0  0  0
  159.8640  211.1140  154.8090 N   0  0  0  0  0  0  0  0  0  0  0  0
  158.8890  213.2230  157.2610 C   0  0  0  0  0  1  0  0  0  0  0  0
  161.0060  211.1380  155.6360 C   0  0  0  0  0  0  0  0  0  0  0  0
  161.4510  209.9420  151.5060 C   0  0  1  0  0  3  0  0  0  0  0  0
  159.0180  211.3580  152.5010 C   0  0  0  0  0  2  0  0  0  0  0  0
  159.8020  212.5000  151.8570 C   0  0  0  0  0  2  0  0  0  0  0  0
  161.7190  211.2390  150.7540 C   0  0  0  0  0  2  0  0  0  0  0  0
  162.0910  207.6060  151.4460 C   0  0  2  0  0  3  0  0  0  0  0  0
  162.0670  206.8320  150.1190 C   0  0  2  0  0  3  0  0  0  0  0  0
  162.6600  207.6340  148.9620 C   0  0  2  0  0  3  0  0  0  0  0  0
  161.5900  208.2410  148.1370 C   0  0  0  0  0  2  0  0  0  0  0  0
  162.2430  207.0620  147.7450 O   0  0  0  0  0  0  0  0  0  0  0  0
  160.2960  205.1700  149.5070 C   0  0  0  0  0  3  0  0  0  0  0  0
  160.6560  206.4290  149.7910 C   0  0  0  0  0  3  0  0  0  0  0  0
  161.6690  203.7900  148.1590 O   0  0  0  0  0  1  0  0  0  0  0  0
  160.5870  202.7840  150.0170 C   0  0  0  0  0  1  0  0  0  0  0  0
  161.2600  204.0260  149.4720 C   0  0  2  0  0  3  0  0  0  0  0  0
  160.8320  207.5080  152.1790 N   0  0  0  0  0  2  0  0  0  0  0  0
  160.9800  206.4390  153.1520 C   0  0  0  0  0  2  0  0  0  0  0  0
  161.2320  207.0260  154.5310 C   0  0  0  0  0  2  0  0  0  0  0  0
  159.9270  207.2270  155.2830 C   0  0  0  0  0  2  0  0  0  0  0  0
  160.1480  208.0110  156.4150 O   0  0  0  0  0  1  0  0  0  0  0  0
  3  5  1  0  0  0  0
  3  7  2  0  0  0  0
  4  6  1  6  0  0  0
  4 17  1  0  0  0  0
  4 16  1  0  0  0  0
  5 15  1  6  0  0  0
  5 11  1  0  0  0  0
  7  8  1  0  0  0  0
  8 13  2  0  0  0  0
  9 10  1  0  0  0  0
 10  2  1  0  0  0  0
 10 12  1  6  0  0  0
 11  9  1  0  0  0  0
 11 13  1  0  0  0  0
 13  2  1  0  0  0  0
 14  1  1  1  0  0  0
 14  3  1  0  0  0  0
 16 15  1  0  0  0  0
 17 14  1  0  0  0  0
 18  1  1  6  0  0  0
 18 28  1  0  0  0  0
 19 24  1  6  0  0  0
 19 18  1  0  0  0  0
 20 19  1  1  0  0  0
 21 20  1  0  0  0  0
 22 21  1  0  0  0  0
 22 20  1  0  0  0  0
 23 24  2  0  0  0  0
 25 27  1  0  0  0  0
 27 23  1  0  0  0  0
 27 26  1  6  0  0  0
 28 29  1  0  0  0  0
 29 30  1  0  0  0  0
 30 31  1  0  0  0  0
 31 32  1  0  0  0  0
M  END
>  <MODEL>
9

>  <REMARK>
 VINA RESULT:      -5.2      2.563      8.212
  Name = 
  10 active torsions:
  status: ('A' for Active; 'I' for Inactive)
    1  A    between atoms: C_3  and  C_13
    2  A    between atoms: C_4  and  C_13
    3  A    between atoms: C_4  and  N_21
    4  A    between atoms: C_4  and  N_30
    5  A    between atoms: C_6  and  C_8
    6  A    between atoms: C_6  and  C_18
    7  A    between atoms: C_13  and  C_28
    8  A    between atoms: C_18  and  N_30
    9  A    between atoms: C_19  and  C_32
   10  A    between atoms: N_21  and  C_26
                            x       y       z     vdW  Elec       q    Type
                         _______ _______ _______ _____ _____    ______ ____

>  <TORSDO>
F 10

$$$$
