=
 OpenBabel11072410263D

 68 75  0  0  1  0  0  0  0  0999 V2000
  164.3050  205.2410  151.7540 O   0  0  0  0  0  0  0  0  0  0  0  0
  162.2520  210.0460  154.5400 C   0  0  2  0  0  3  0  0  0  0  0  0
  160.6540  204.3140  153.5440 O   0  0  0  0  0  0  0  0  0  0  0  0
  161.8640  210.5620  153.1690 C   0  0  1  0  0  3  0  0  0  0  0  0
  162.2040  203.9280  151.7650 C   0  0  0  0  0  0  0  0  0  0  0  0
  159.6200  210.2240  154.5460 C   0  0  2  0  0  3  0  0  0  0  0  0
  160.1540  205.5830  153.1640 C   0  0  1  0  0  3  0  0  0  0  0  0
  159.9910  206.5240  154.3590 C   0  0  2  0  0  3  0  0  0  0  0  0
  160.3070  208.4340  152.5750 C   0  0  1  0  0  3  0  0  0  0  0  0
  160.9400  206.2450  152.0250 C   0  0  2  0  0  3  0  0  0  0  0  0
  159.6360  208.8490  154.9300 O   0  0  0  0  0  0  0  0  0  0  0  0
  160.3710  207.9920  154.0690 C   0  0  1  0  0  3  0  0  0  0  0  0
  162.3240  206.4110  152.3110 O   0  0  0  0  0  0  0  0  0  0  0  0
  162.5340  203.2780  150.7460 O   0  0  0  0  0  0  0  0  0  0  0  0
  162.9700  205.1570  152.2080 C   0  0  2  0  0  0  0  0  0  0  0  0
  161.3150  209.5420  152.1650 C   0  0  1  0  0  3  0  0  0  0  0  0
  164.1060  204.9550  153.1310 C   0  0  0  0  0  2  0  0  0  0  0  0
  160.6780  206.0610  155.4860 O   0  0  0  0  0  1  0  0  0  0  0  0
  161.0150  210.9370  154.3910 C   0  0  1  0  0  0  0  0  0  0  0  0
  160.3210  207.4190  151.5860 O   0  0  0  0  0  0  0  0  0  0  0  0
  161.0110  203.6150  152.4430 O   0  0  0  0  0  0  0  0  0  0  0  0
  164.5500  210.9750  154.4890 C   0  0  0  0  0  3  0  0  0  0  0  0
  165.5920  211.7330  155.0520 C   0  0  0  0  0  0  0  0  0  0  0  0
  165.4490  212.2820  156.2870 N   0  0  0  0  0  0  0  0  0  0  0  0
  164.3130  212.1170  157.0260 C   0  0  0  0  0  3  0  0  0  0  0  0
  166.7940  211.9460  154.3100 N   0  0  0  0  0  1  0  0  0  0  0  0
  163.2520  211.3680  156.5080 C   0  0  0  0  0  0  0  0  0  0  0  0
  162.1290  211.1880  157.2520 F   0  0  0  0  0  0  0  0  0  0  0  0
  163.3730  210.7810  155.2260 C   0  0  0  0  0  0  0  0  0  0  0  0
  158.7730  210.9680  155.4850 N   0  0  0  0  0  2  0  0  0  0  0  0
  157.3780  211.2450  155.2310 C   0  0  0  0  0  0  0  0  0  0  0  0
  156.9490  211.3220  154.0370 O   0  0  0  0  0  0  0  0  0  0  0  0
  156.3920  211.2990  156.3550 C   0  0  0  0  0  2  0  0  0  0  0  0
  155.2260  213.6020  155.7410 O   0  0  0  0  0  1  0  0  0  0  0  0
  156.0460  213.0130  156.8880 S   0  0  0  0  0  3  0  0  0  0  0  0
  157.5700  213.7960  156.7010 O   0  0  0  0  0  1  0  0  0  0  0  0
  160.7440  210.3590  151.0220 C   0  0  0  0  0  2  0  0  0  0  0  0
  161.3540  209.9820  149.7150 C   0  0  0  0  0  3  0  0  0  0  0  0
  161.3900  208.7140  149.2960 C   0  0  0  0  0  3  0  0  0  0  0  0
  162.0200  208.3910  147.9770 C   0  0  0  0  0  2  0  0  0  0  0  0
  161.1600  207.3750  147.2080 C   0  0  2  0  0  3  0  0  0  0  0  0
  160.4680  206.5440  148.1170 O   0  0  0  0  0  0  0  0  0  0  0  0
  161.4780  205.9660  148.9140 C   0  0  0  0  0  1  0  0  0  0  0  0
  161.9700  206.5460  146.2070 C   0  0  1  0  0  3  0  0  0  0  0  0
  162.4900  205.3980  146.8810 O   0  0  0  0  0  0  0  0  0  0  0  0
  163.7540  203.9210  145.6590 O   0  0  0  0  0  0  0  0  0  0  0  0
  162.6760  204.1490  146.2700 C   0  0  0  0  0  0  0  0  0  0  0  0
  161.7190  202.2570  147.3980 C   0  0  0  0  0  3  0  0  0  0  0  0
  160.2610  200.4770  145.3810 C   0  0  0  0  0  3  0  0  0  0  0  0
  160.6970  202.9570  145.2370 C   0  0  0  0  0  3  0  0  0  0  0  0
  161.6630  203.0860  146.3560 C   0  0  0  0  0  0  0  0  0  0  0  0
  160.7330  201.1970  147.7300 C   0  0  0  0  0  2  0  0  0  0  0  0
  160.5880  200.1930  146.6430 C   0  0  0  0  0  3  0  0  0  0  0  0
  160.0920  201.8340  144.8260 C   0  0  0  0  0  3  0  0  0  0  0  0
  161.1750  206.1520  144.9680 C   0  0  0  0  0  2  0  0  0  0  0  0
  163.2710  205.9980  143.8320 O   0  0  0  0  0  0  0  0  0  0  0  0
  162.0150  206.2080  143.7380 C   0  0  0  0  0  0  0  0  0  0  0  0
  161.4430  206.5980  142.4780 N   0  0  0  0  0  2  0  0  0  0  0  0
  160.7810  208.3930  138.3810 N   0  0  0  0  0  1  0  0  0  0  0  0
  161.8090  206.3730  139.1050 N   0  0  0  0  0  0  0  0  0  0  0  0
  162.3060  206.9410  141.3470 C   0  0  2  0  0  3  0  0  0  0  0  0
  161.7020  207.9980  140.6310 O   0  0  0  0  0  0  0  0  0  0  0  0
  162.3600  205.7970  140.3300 C   0  0  0  0  0  2  0  0  0  0  0  0
  161.4450  207.5850  139.3480 C   0  0  0  0  0  0  0  0  0  0  0  0
  161.0760  212.4810  154.5010 C   0  0  0  0  0  2  0  0  0  0  0  0
  159.9770  213.1370  153.6840 C   0  0  0  0  0  0  0  0  0  0  0  0
  159.1710  213.9400  154.2190 O   0  0  0  0  0  1  0  0  0  0  0  0
  159.7930  212.7810  152.3480 O   0  0  0  0  0  0  0  0  0  0  0  0
  1 15  1  0  0  0  0
  1 17  1  0  0  0  0
  2 29  1  1  0  0  0
  4 19  1  0  0  0  0
  4  2  1  0  0  0  0
  5 15  1  0  0  0  0
  5 21  1  0  0  0  0
  6 11  1  0  0  0  0
  6 30  1  0  0  0  0
  7  3  1  0  0  0  0
  7  8  1  0  0  0  0
  8 18  1  0  0  0  0
  9 12  1  0  0  0  0
 10 13  1  0  0  0  0
 10  7  1  0  0  0  0
 12  8  1  0  0  0  0
 12 11  1  0  0  0  0
 14  5  2  0  0  0  0
 15 13  1  0  0  0  0
 15 17  1  0  0  0  0
 16  9  1  0  0  0  0
 16  4  1  0  0  0  0
 19 65  1  0  0  0  0
 19  2  1  0  0  0  0
 19  6  1  0  0  0  0
 20 10  1  0  0  0  0
 20  9  1  0  0  0  0
 21  3  1  0  0  0  0
 22 23  2  0  0  0  0
 22 29  1  0  0  0  0
 23 24  1  0  0  0  0
 24 25  2  0  0  0  0
 26 23  1  0  0  0  0
 27 25  1  0  0  0  0
 27 28  1  0  0  0  0
 29 27  2  0  0  0  0
 31 30  1  0  0  0  0
 31 33  1  0  0  0  0
 32 31  2  0  0  0  0
 33 35  1  0  0  0  0
 34 35  1  0  0  0  0
 36 35  1  0  0  0  0
 37 16  1  0  0  0  0
 38 37  1  0  0  0  0
 39 38  2  0  0  0  0
 40 39  1  0  0  0  0
 41 40  1  0  0  0  0
 41 42  1  0  0  0  0
 42 43  1  0  0  0  0
 44 45  1  0  0  0  0
 44 41  1  0  0  0  0
 46 47  2  0  0  0  0
 47 51  1  0  0  0  0
 47 45  1  0  0  0  0
 48 52  1  0  0  0  0
 49 53  2  0  0  0  0
 50 51  1  0  0  0  0
 51 48  2  0  0  0  0
 53 52  1  0  0  0  0
 54 50  2  0  0  0  0
 54 49  1  0  0  0  0
 55 44  1  0  0  0  0
 57 56  2  0  0  0  0
 57 55  1  0  0  0  0
 58 57  1  0  0  0  0
 59 64  1  0  0  0  0
 60 64  2  0  0  0  0
 60 63  1  0  0  0  0
 61 58  1  0  0  0  0
 62 61  1  0  0  0  0
 63 61  1  0  0  0  0
 64 62  1  0  0  0  0
 66 67  1  0  0  0  0
 66 65  1  0  0  0  0
 68 66  2  0  0  0  0
M  END
>  <MODEL>
1

>  <REMARK>
 VINA RESULT:       9.0      0.000      0.000
  Name = 
  18 active torsions:
  status: ('A' for Active; 'I' for Inactive)
    1  A    between atoms: C_6  and  C_29
    2  A    between atoms: C_7  and  C_40
    3  A    between atoms: C_7  and  O_43
    4  A    between atoms: C_7  and  C_51
    5  A    between atoms: C_9  and  C_40
    6  A    between atoms: C_12  and  C_68
    7  A    between atoms: C_14  and  C_36
    8  A    between atoms: S_17  and  C_47
    9  A    between atoms: C_20  and  N_33
   10  A    between atoms: C_25  and  C_61
   11  A    between atoms: C_29  and  C_53
   12  A    between atoms: C_31  and  N_58
   13  A    between atoms: C_36  and  C_64
   14  A    between atoms: C_46  and  C_48
   15  A    between atoms: C_46  and  O_59
   16  A    between atoms: C_47  and  C_60
   17  A    between atoms: C_51  and  O_59
   18  A    between atoms: C_51  and  C_61
                            x       y       z     vdW  Elec       q    Type
                         _______ _______ _______ _____ _____    ______ ____

>  <TORSDO>
F 18

$$$$
=
 OpenBabel11072410263D

 68 75  0  0  1  0  0  0  0  0999 V2000
  158.5760  212.3260  146.8550 O   0  0  0  0  0  0  0  0  0  0  0  0
  160.0140  211.4380  152.5300 C   0  0  2  0  0  3  0  0  0  0  0  0
  162.6470  213.0770  147.3550 O   0  0  0  0  0  0  0  0  0  0  0  0
  159.9530  209.9560  152.2170 C   0  0  1  0  0  3  0  0  0  0  0  0
  160.8740  212.3450  145.9290 C   0  0  0  0  0  0  0  0  0  0  0  0
  162.4630  210.5210  152.8710 C   0  0  2  0  0  3  0  0  0  0  0  0
  162.7380  211.9660  148.2270 C   0  0  1  0  0  3  0  0  0  0  0  0
  162.9390  212.3850  149.6840 C   0  0  2  0  0  3  0  0  0  0  0  0
  161.7930  210.0820  150.2400 C   0  0  1  0  0  3  0  0  0  0  0  0
  161.5840  210.9650  148.0790 C   0  0  2  0  0  3  0  0  0  0  0  0
  162.8570  211.5380  151.9490 O   0  0  0  0  0  0  0  0  0  0  0  0
  162.1700  211.5220  150.7070 C   0  0  1  0  0  3  0  0  0  0  0  0
  160.3000  211.5450  148.2760 O   0  0  0  0  0  0  0  0  0  0  0  0
  160.4860  211.9690  144.7990 O   0  0  0  0  0  0  0  0  0  0  0  0
  159.9600  212.3100  147.1360 C   0  0  2  0  0  0  0  0  0  0  0  0
  160.4880  209.5040  150.8530 C   0  0  1  0  0  3  0  0  0  0  0  0
  159.1390  213.5090  147.4030 C   0  0  0  0  0  2  0  0  0  0  0  0
  162.6490  213.7400  149.8820 O   0  0  0  0  0  1  0  0  0  0  0  0
  160.9430  210.4710  153.2720 C   0  0  1  0  0  0  0  0  0  0  0  0
  161.7970  209.8170  148.8480 O   0  0  0  0  0  0  0  0  0  0  0  0
  162.2270  212.6700  146.1360 O   0  0  0  0  0  0  0  0  0  0  0  0
  158.0100  211.0290  153.9300 C   0  0  0  0  0  3  0  0  0  0  0  0
  157.0360  211.4530  154.8530 C   0  0  0  0  0  0  0  0  0  0  0  0
  157.0080  212.7450  155.2730 N   0  0  0  0  0  0  0  0  0  0  0  0
  157.8990  213.6750  154.8180 C   0  0  0  0  0  3  0  0  0  0  0  0
  156.0930  210.5130  155.3680 N   0  0  0  0  0  1  0  0  0  0  0  0
  158.8810  213.3000  153.8980 C   0  0  0  0  0  0  0  0  0  0  0  0
  159.7560  214.2300  153.4310 F   0  0  0  0  0  0  0  0  0  0  0  0
  158.9350  211.9620  153.4390 C   0  0  0  0  0  0  0  0  0  0  0  0
  163.3000  210.6210  154.0710 N   0  0  0  0  0  2  0  0  0  0  0  0
  164.6650  211.0940  154.0380 C   0  0  0  0  0  0  0  0  0  0  0  0
  165.3600  210.9660  152.9820 O   0  0  0  0  0  0  0  0  0  0  0  0
  165.2340  211.8680  155.1850 C   0  0  0  0  0  2  0  0  0  0  0  0
  167.6900  211.9200  156.1900 O   0  0  0  0  0  1  0  0  0  0  0  0
  166.9780  212.3390  154.9040 S   0  0  0  0  0  3  0  0  0  0  0  0
  166.9450  214.0570  155.0360 O   0  0  0  0  0  1  0  0  0  0  0  0
  160.5810  207.9930  150.9300 C   0  0  0  0  0  2  0  0  0  0  0  0
  160.7210  207.3780  149.5790 C   0  0  0  0  0  3  0  0  0  0  0  0
  159.8930  206.4210  149.1540 C   0  0  0  0  0  3  0  0  0  0  0  0
  160.0830  205.8340  147.7900 C   0  0  0  0  0  2  0  0  0  0  0  0
  160.7740  204.4640  147.8890 C   0  0  2  0  0  3  0  0  0  0  0  0
  159.9790  203.5780  148.6490 O   0  0  0  0  0  0  0  0  0  0  0  0
  160.0710  202.3440  147.9720 C   0  0  0  0  0  1  0  0  0  0  0  0
  162.1960  204.5530  148.4510 C   0  0  1  0  0  3  0  0  0  0  0  0
  162.4240  203.4220  149.2930 O   0  0  0  0  0  0  0  0  0  0  0  0
  161.7310  202.1660  151.0850 O   0  0  0  0  0  0  0  0  0  0  0  0
  161.9410  203.3110  150.6060 C   0  0  0  0  0  0  0  0  0  0  0  0
  162.7070  205.3690  151.5790 C   0  0  0  0  0  3  0  0  0  0  0  0
  161.1690  205.9280  154.1640 C   0  0  0  0  0  3  0  0  0  0  0  0
  160.4130  204.5940  152.1610 C   0  0  0  0  0  3  0  0  0  0  0  0
  161.7090  204.4940  151.4480 C   0  0  0  0  0  0  0  0  0  0  0  0
  162.6430  206.6740  152.2840 C   0  0  0  0  0  2  0  0  0  0  0  0
  162.2740  206.5290  153.7180 C   0  0  0  0  0  3  0  0  0  0  0  0
  160.1840  205.2180  153.3250 C   0  0  0  0  0  3  0  0  0  0  0  0
  163.2640  204.6690  147.3710 C   0  0  0  0  0  2  0  0  0  0  0  0
  163.1110  204.7630  144.9890 O   0  0  0  0  0  0  0  0  0  0  0  0
  162.7760  204.1540  146.0610 C   0  0  0  0  0  0  0  0  0  0  0  0
  161.8550  203.0520  146.0040 N   0  0  0  0  0  2  0  0  0  0  0  0
  157.7330  203.9220  144.3610 N   0  0  0  0  0  1  0  0  0  0  0  0
  158.9390  201.8980  144.6880 N   0  0  0  0  0  0  0  0  0  0  0  0
  161.1490  202.7390  144.7610 C   0  0  2  0  0  3  0  0  0  0  0  0
  160.1840  203.7440  144.5320 O   0  0  0  0  0  0  0  0  0  0  0  0
  160.3160  201.4620  144.9080 C   0  0  0  0  0  2  0  0  0  0  0  0
  158.9360  203.1740  144.5090 C   0  0  0  0  0  0  0  0  0  0  0  0
  160.5470  209.7870  154.6040 C   0  0  0  0  0  2  0  0  0  0  0  0
  161.2220  210.4530  155.7890 C   0  0  0  0  0  0  0  0  0  0  0  0
  161.9660  209.7930  156.5600 O   0  0  0  0  0  1  0  0  0  0  0  0
  160.9470  211.7870  156.0910 O   0  0  0  0  0  0  0  0  0  0  0  0
  1 15  1  0  0  0  0
  1 17  1  0  0  0  0
  2 19  1  0  0  0  0
  2 29  1  1  0  0  0
  3  7  1  0  0  0  0
  4  2  1  0  0  0  0
  4 19  1  0  0  0  0
  5 21  1  0  0  0  0
  5 15  1  0  0  0  0
  6 19  1  0  0  0  0
  6 30  1  0  0  0  0
  7  8  1  0  0  0  0
  8 18  1  0  0  0  0
  8 12  1  0  0  0  0
  9 12  1  0  0  0  0
  9 16  1  0  0  0  0
 10  7  1  0  0  0  0
 10 13  1  0  0  0  0
 10 20  1  0  0  0  0
 11  6  1  0  0  0  0
 12 11  1  0  0  0  0
 14  5  2  0  0  0  0
 15 17  1  0  0  0  0
 15 13  1  0  0  0  0
 16 37  1  0  0  0  0
 16  4  1  0  0  0  0
 19 65  1  0  0  0  0
 20  9  1  0  0  0  0
 21  3  1  0  0  0  0
 22 23  1  0  0  0  0
 23 24  2  0  0  0  0
 23 26  1  0  0  0  0
 25 24  1  0  0  0  0
 27 25  2  0  0  0  0
 28 27  1  0  0  0  0
 29 27  1  0  0  0  0
 29 22  2  0  0  0  0
 31 30  1  0  0  0  0
 31 33  1  0  0  0  0
 32 31  2  0  0  0  0
 35 36  1  0  0  0  0
 35 33  1  0  0  0  0
 35 34  1  0  0  0  0
 38 37  1  0  0  0  0
 39 38  2  0  0  0  0
 40 41  1  0  0  0  0
 40 39  1  0  0  0  0
 41 44  1  0  0  0  0
 41 42  1  0  0  0  0
 43 42  1  0  0  0  0
 44 45  1  0  0  0  0
 45 47  1  0  0  0  0
 47 46  2  0  0  0  0
 47 51  1  0  0  0  0
 48 52  1  0  0  0  0
 50 54  2  0  0  0  0
 51 48  2  0  0  0  0
 51 50  1  0  0  0  0
 52 53  1  0  0  0  0
 53 49  2  0  0  0  0
 54 49  1  0  0  0  0
 55 44  1  0  0  0  0
 56 57  2  0  0  0  0
 57 55  1  0  0  0  0
 58 57  1  0  0  0  0
 59 64  1  0  0  0  0
 60 63  1  0  0  0  0
 61 63  1  0  0  0  0
 61 58  1  0  0  0  0
 62 61  1  0  0  0  0
 64 62  1  0  0  0  0
 64 60  2  0  0  0  0
 65 66  1  0  0  0  0
 66 68  2  0  0  0  0
 66 67  1  0  0  0  0
M  END
>  <MODEL>
2

>  <REMARK>
 VINA RESULT:       9.2      3.476      6.908
  Name = 
  18 active torsions:
  status: ('A' for Active; 'I' for Inactive)
    1  A    between atoms: C_6  and  C_29
    2  A    between atoms: C_7  and  C_40
    3  A    between atoms: C_7  and  O_43
    4  A    between atoms: C_7  and  C_51
    5  A    between atoms: C_9  and  C_40
    6  A    between atoms: C_12  and  C_68
    7  A    between atoms: C_14  and  C_36
    8  A    between atoms: S_17  and  C_47
    9  A    between atoms: C_20  and  N_33
   10  A    between atoms: C_25  and  C_61
   11  A    between atoms: C_29  and  C_53
   12  A    between atoms: C_31  and  N_58
   13  A    between atoms: C_36  and  C_64
   14  A    between atoms: C_46  and  C_48
   15  A    between atoms: C_46  and  O_59
   16  A    between atoms: C_47  and  C_60
   17  A    between atoms: C_51  and  O_59
   18  A    between atoms: C_51  and  C_61
                            x       y       z     vdW  Elec       q    Type
                         _______ _______ _______ _____ _____    ______ ____

>  <TORSDO>
F 18

$$$$
=
 OpenBabel11072410263D

 68 75  0  0  1  0  0  0  0  0999 V2000
  158.5370  211.8250  147.0330 O   0  0  0  0  0  0  0  0  0  0  0  0
  160.0080  211.1080  152.7240 C   0  0  2  0  0  3  0  0  0  0  0  0
  162.5190  212.9460  147.5560 O   0  0  0  0  0  0  0  0  0  0  0  0
  160.0830  209.6240  152.4220 C   0  0  1  0  0  3  0  0  0  0  0  0
  160.8310  212.0470  146.1240 C   0  0  0  0  0  0  0  0  0  0  0  0
  162.5270  210.4180  153.0890 C   0  0  2  0  0  3  0  0  0  0  0  0
  162.7040  211.8530  148.4370 C   0  0  1  0  0  3  0  0  0  0  0  0
  162.8560  212.2980  149.8920 C   0  0  2  0  0  3  0  0  0  0  0  0
  161.9180  209.9030  150.4570 C   0  0  1  0  0  3  0  0  0  0  0  0
  161.6470  210.7510  148.2880 C   0  0  2  0  0  3  0  0  0  0  0  0
  162.8340  211.4610  152.1620 O   0  0  0  0  0  0  0  0  0  0  0  0
  162.1600  211.3750  150.9160 C   0  0  1  0  0  3  0  0  0  0  0  0
  160.3140  211.2130  148.4720 O   0  0  0  0  0  0  0  0  0  0  0  0
  160.4870  211.6300  144.9930 O   0  0  0  0  0  0  0  0  0  0  0  0
  159.9150  211.9360  147.3250 C   0  0  2  0  0  0  0  0  0  0  0  0
  160.6670  209.2140  151.0650 C   0  0  1  0  0  3  0  0  0  0  0  0
  158.9870  213.0590  147.5770 C   0  0  0  0  0  2  0  0  0  0  0  0
  162.4430  213.6220  150.0780 O   0  0  0  0  0  1  0  0  0  0  0  0
  161.0140  210.2340  153.4800 C   0  0  1  0  0  0  0  0  0  0  0  0
  161.9570  209.6320  149.0670 O   0  0  0  0  0  0  0  0  0  0  0  0
  162.1470  212.4950  146.3380 O   0  0  0  0  0  0  0  0  0  0  0  0
  157.7910  210.6600  153.7400 C   0  0  0  0  0  3  0  0  0  0  0  0
  156.7520  210.9750  154.6350 C   0  0  0  0  0  0  0  0  0  0  0  0
  156.8150  212.1060  155.3860 N   0  0  0  0  0  0  0  0  0  0  0  0
  157.8640  212.9760  155.2990 C   0  0  0  0  0  3  0  0  0  0  0  0
  155.6420  210.0870  154.7720 N   0  0  0  0  0  1  0  0  0  0  0  0
  158.9170  212.7060  154.4200 C   0  0  0  0  0  0  0  0  0  0  0  0
  159.9510  213.5830  154.3200 F   0  0  0  0  0  0  0  0  0  0  0  0
  158.8780  211.5370  153.6230 C   0  0  0  0  0  0  0  0  0  0  0  0
  163.3430  210.6010  154.2940 N   0  0  0  0  0  2  0  0  0  0  0  0
  164.6720  211.1660  154.2630 C   0  0  0  0  0  0  0  0  0  0  0  0
  165.3850  211.0640  153.2160 O   0  0  0  0  0  0  0  0  0  0  0  0
  165.1750  212.0020  155.3980 C   0  0  0  0  0  2  0  0  0  0  0  0
  167.5430  212.3640  156.5400 O   0  0  0  0  0  1  0  0  0  0  0  0
  166.9110  212.5210  155.1570 S   0  0  0  0  0  3  0  0  0  0  0  0
  166.7880  214.2330  154.9940 O   0  0  0  0  0  1  0  0  0  0  0  0
  160.8950  207.7180  151.1530 C   0  0  0  0  0  2  0  0  0  0  0  0
  160.5480  207.0300  149.8770 C   0  0  0  0  0  3  0  0  0  0  0  0
  160.5330  205.6980  149.7790 C   0  0  0  0  0  3  0  0  0  0  0  0
  160.1830  205.0580  148.4710 C   0  0  0  0  0  2  0  0  0  0  0  0
  159.9330  203.5540  148.6620 C   0  0  2  0  0  3  0  0  0  0  0  0
  159.3670  203.3160  149.9340 O   0  0  0  0  0  0  0  0  0  0  0  0
  158.7350  202.0610  149.8160 C   0  0  0  0  0  1  0  0  0  0  0  0
  161.1930  202.7090  148.4510 C   0  0  1  0  0  3  0  0  0  0  0  0
  162.3130  203.5870  148.3180 O   0  0  0  0  0  0  0  0  0  0  0  0
  163.8180  204.7790  147.0590 O   0  0  0  0  0  0  0  0  0  0  0  0
  162.7260  204.1530  147.1030 C   0  0  0  0  0  0  0  0  0  0  0  0
  161.7310  205.0910  145.1290 C   0  0  0  0  0  3  0  0  0  0  0  0
  159.3160  203.4110  144.2870 C   0  0  0  0  0  3  0  0  0  0  0  0
  161.3510  202.6720  145.5800 C   0  0  0  0  0  3  0  0  0  0  0  0
  161.9360  204.0030  145.8710 C   0  0  0  0  0  0  0  0  0  0  0  0
  161.0630  205.1360  143.8030 C   0  0  0  0  0  2  0  0  0  0  0  0
  159.6680  204.6220  143.8500 C   0  0  0  0  0  3  0  0  0  0  0  0
  160.2280  202.4220  144.8930 C   0  0  0  0  0  3  0  0  0  0  0  0
  161.4190  201.6800  149.5510 C   0  0  0  0  0  2  0  0  0  0  0  0
  162.8530  201.5280  151.4550 O   0  0  0  0  0  0  0  0  0  0  0  0
  162.1220  202.2760  150.7220 C   0  0  0  0  0  0  0  0  0  0  0  0
  161.8980  203.6470  151.0910 N   0  0  0  0  0  2  0  0  0  0  0  0
  160.1400  206.3760  154.2390 N   0  0  0  0  0  1  0  0  0  0  0  0
  162.1950  206.4170  153.0410 N   0  0  0  0  0  0  0  0  0  0  0  0
  162.3430  204.1460  152.3930 C   0  0  2  0  0  3  0  0  0  0  0  0
  161.2010  204.4240  153.1760 O   0  0  0  0  0  0  0  0  0  0  0  0
  163.0270  205.5100  152.2540 C   0  0  0  0  0  2  0  0  0  0  0  0
  161.1920  205.7560  153.5040 C   0  0  0  0  0  0  0  0  0  0  0  0
  160.6720  209.5250  154.8140 C   0  0  0  0  0  2  0  0  0  0  0  0
  161.2350  210.2830  156.0020 C   0  0  0  0  0  0  0  0  0  0  0  0
  161.5790  209.6750  157.0490 O   0  0  0  0  0  1  0  0  0  0  0  0
  161.2880  211.6770  155.9810 O   0  0  0  0  0  0  0  0  0  0  0  0
  1 15  1  0  0  0  0
  1 17  1  0  0  0  0
  2 19  1  0  0  0  0
  2 29  1  1  0  0  0
  3  7  1  0  0  0  0
  4  2  1  0  0  0  0
  4 19  1  0  0  0  0
  5 21  1  0  0  0  0
  5 15  1  0  0  0  0
  6 19  1  0  0  0  0
  6 30  1  0  0  0  0
  7  8  1  0  0  0  0
  8 18  1  0  0  0  0
  8 12  1  0  0  0  0
  9 12  1  0  0  0  0
  9 16  1  0  0  0  0
 10  7  1  0  0  0  0
 10 13  1  0  0  0  0
 10 20  1  0  0  0  0
 11  6  1  0  0  0  0
 12 11  1  0  0  0  0
 14  5  2  0  0  0  0
 15 17  1  0  0  0  0
 15 13  1  0  0  0  0
 16 37  1  0  0  0  0
 16  4  1  0  0  0  0
 19 65  1  0  0  0  0
 20  9  1  0  0  0  0
 21  3  1  0  0  0  0
 22 23  1  0  0  0  0
 23 26  1  0  0  0  0
 23 24  2  0  0  0  0
 25 24  1  0  0  0  0
 27 25  2  0  0  0  0
 28 27  1  0  0  0  0
 29 22  2  0  0  0  0
 29 27  1  0  0  0  0
 31 30  1  0  0  0  0
 31 33  1  0  0  0  0
 32 31  2  0  0  0  0
 35 33  1  0  0  0  0
 35 34  1  0  0  0  0
 36 35  1  0  0  0  0
 38 37  1  0  0  0  0
 39 38  2  0  0  0  0
 40 41  1  0  0  0  0
 40 39  1  0  0  0  0
 41 42  1  0  0  0  0
 43 42  1  0  0  0  0
 44 41  1  0  0  0  0
 44 55  1  0  0  0  0
 45 44  1  0  0  0  0
 46 47  2  0  0  0  0
 47 45  1  0  0  0  0
 48 51  2  0  0  0  0
 49 54  1  0  0  0  0
 50 51  1  0  0  0  0
 51 47  1  0  0  0  0
 52 53  1  0  0  0  0
 52 48  1  0  0  0  0
 53 49  2  0  0  0  0
 54 50  2  0  0  0  0
 55 57  1  0  0  0  0
 57 58  1  0  0  0  0
 57 56  2  0  0  0  0
 58 61  1  0  0  0  0
 60 64  2  0  0  0  0
 61 62  1  0  0  0  0
 62 64  1  0  0  0  0
 63 61  1  0  0  0  0
 63 60  1  0  0  0  0
 64 59  1  0  0  0  0
 65 66  1  0  0  0  0
 66 67  1  0  0  0  0
 68 66  2  0  0  0  0
M  END
>  <MODEL>
3

>  <REMARK>
 VINA RESULT:      10.0      3.743      7.490
  Name = 
  18 active torsions:
  status: ('A' for Active; 'I' for Inactive)
    1  A    between atoms: C_6  and  C_29
    2  A    between atoms: C_7  and  C_40
    3  A    between atoms: C_7  and  O_43
    4  A    between atoms: C_7  and  C_51
    5  A    between atoms: C_9  and  C_40
    6  A    between atoms: C_12  and  C_68
    7  A    between atoms: C_14  and  C_36
    8  A    between atoms: S_17  and  C_47
    9  A    between atoms: C_20  and  N_33
   10  A    between atoms: C_25  and  C_61
   11  A    between atoms: C_29  and  C_53
   12  A    between atoms: C_31  and  N_58
   13  A    between atoms: C_36  and  C_64
   14  A    between atoms: C_46  and  C_48
   15  A    between atoms: C_46  and  O_59
   16  A    between atoms: C_47  and  C_60
   17  A    between atoms: C_51  and  O_59
   18  A    between atoms: C_51  and  C_61
                            x       y       z     vdW  Elec       q    Type
                         _______ _______ _______ _____ _____    ______ ____

>  <TORSDO>
F 18

$$$$
=
 OpenBabel11072410263D

 68 75  0  0  1  0  0  0  0  0999 V2000
  158.7500  212.5990  147.2330 O   0  0  0  0  0  0  0  0  0  0  0  0
  160.3190  211.6270  152.8590 C   0  0  2  0  0  3  0  0  0  0  0  0
  162.9070  212.7460  147.5260 O   0  0  0  0  0  0  0  0  0  0  0  0
  160.0240  210.1650  152.5920 C   0  0  1  0  0  3  0  0  0  0  0  0
  160.9770  212.2560  146.2030 C   0  0  0  0  0  0  0  0  0  0  0  0
  162.6190  210.3630  153.1150 C   0  0  2  0  0  3  0  0  0  0  0  0
  162.8750  211.6520  148.4240 C   0  0  1  0  0  3  0  0  0  0  0  0
  163.2070  212.0670  149.8580 C   0  0  2  0  0  3  0  0  0  0  0  0
  161.7620  209.9730  150.5310 C   0  0  1  0  0  3  0  0  0  0  0  0
  161.5800  210.8310  148.3570 C   0  0  2  0  0  3  0  0  0  0  0  0
  163.1120  211.2900  152.1470 O   0  0  0  0  0  0  0  0  0  0  0  0
  162.3700  211.3500  150.9380 C   0  0  1  0  0  3  0  0  0  0  0  0
  160.4070  211.6010  148.5960 O   0  0  0  0  0  0  0  0  0  0  0  0
  160.4820  211.9180  145.1030 O   0  0  0  0  0  0  0  0  0  0  0  0
  160.1280  212.3830  147.4510 C   0  0  2  0  0  0  0  0  0  0  0  0
  160.4170  209.6090  151.2180 C   0  0  1  0  0  3  0  0  0  0  0  0
  159.5080  213.6970  147.7210 C   0  0  0  0  0  2  0  0  0  0  0  0
  163.1320  213.4540  150.0300 O   0  0  0  0  0  1  0  0  0  0  0  0
  161.1290  210.5490  153.5860 C   0  0  1  0  0  0  0  0  0  0  0  0
  161.6580  209.6810  149.1480 O   0  0  0  0  0  0  0  0  0  0  0  0
  162.3720  212.3800  146.3390 O   0  0  0  0  0  0  0  0  0  0  0  0
  159.9180  212.8180  154.9970 C   0  0  0  0  0  3  0  0  0  0  0  0
  159.0970  213.5540  155.8690 C   0  0  0  0  0  0  0  0  0  0  0  0
  157.8000  213.7990  155.5450 N   0  0  0  0  0  0  0  0  0  0  0  0
  157.2440  213.3400  154.3860 C   0  0  0  0  0  3  0  0  0  0  0  0
  159.6390  214.0690  157.0860 N   0  0  0  0  0  1  0  0  0  0  0  0
  158.0210  212.5990  153.4900 C   0  0  0  0  0  0  0  0  0  0  0  0
  157.4610  212.1250  152.3460 F   0  0  0  0  0  0  0  0  0  0  0  0
  159.3750  212.3260  153.8020 C   0  0  0  0  0  0  0  0  0  0  0  0
  163.5190  210.3620  154.2720 N   0  0  0  0  0  2  0  0  0  0  0  0
  164.7760  211.0760  154.2890 C   0  0  0  0  0  0  0  0  0  0  0  0
  165.3950  211.3030  153.2030 O   0  0  0  0  0  0  0  0  0  0  0  0
  165.2930  211.6840  155.5540 C   0  0  0  0  0  2  0  0  0  0  0  0
  167.7020  211.6550  154.4410 O   0  0  0  0  0  1  0  0  0  0  0  0
  166.8540  212.5990  155.2930 S   0  0  0  0  0  3  0  0  0  0  0  0
  167.6230  212.5060  156.8330 O   0  0  0  0  0  1  0  0  0  0  0  0
  160.2900  208.1040  151.3340 C   0  0  0  0  0  2  0  0  0  0  0  0
  160.8340  207.4090  150.1320 C   0  0  0  0  0  3  0  0  0  0  0  0
  160.0500  206.6970  149.3180 C   0  0  0  0  0  3  0  0  0  0  0  0
  160.6510  206.0140  148.1280 C   0  0  0  0  0  2  0  0  0  0  0  0
  161.9160  205.2430  148.5370 C   0  0  2  0  0  3  0  0  0  0  0  0
  162.9950  205.6100  147.7010 O   0  0  0  0  0  0  0  0  0  0  0  0
  162.8670  207.0060  147.5440 C   0  0  0  0  0  1  0  0  0  0  0  0
  161.7130  203.7250  148.5430 C   0  0  1  0  0  3  0  0  0  0  0  0
  162.5960  203.1430  147.5810 O   0  0  0  0  0  0  0  0  0  0  0  0
  163.6090  203.9610  145.6910 O   0  0  0  0  0  0  0  0  0  0  0  0
  162.5800  203.4560  146.2140 C   0  0  0  0  0  0  0  0  0  0  0  0
  160.7870  204.2120  144.8080 C   0  0  0  0  0  3  0  0  0  0  0  0
  158.4960  202.1850  144.8710 C   0  0  0  0  0  3  0  0  0  0  0  0
  160.9520  201.7690  145.2630 C   0  0  0  0  0  3  0  0  0  0  0  0
  161.4100  203.1760  145.3680 C   0  0  0  0  0  0  0  0  0  0  0  0
  159.6650  204.1400  143.8370 C   0  0  0  0  0  2  0  0  0  0  0  0
  158.4810  203.4280  144.3870 C   0  0  0  0  0  3  0  0  0  0  0  0
  159.6990  201.3480  145.0420 C   0  0  0  0  0  3  0  0  0  0  0  0
  161.8980  203.0980  149.9200 C   0  0  0  0  0  2  0  0  0  0  0  0
  159.9480  203.7030  151.1580 O   0  0  0  0  0  0  0  0  0  0  0  0
  161.1990  203.8820  150.9770 C   0  0  0  0  0  0  0  0  0  0  0  0
  161.8930  204.9050  151.7110 N   0  0  0  0  0  2  0  0  0  0  0  0
  162.5570  206.8880  155.7200 N   0  0  0  0  0  1  0  0  0  0  0  0
  160.7630  205.5950  154.8430 N   0  0  0  0  0  0  0  0  0  0  0  0
  161.1500  205.8670  152.5250 C   0  0  2  0  0  3  0  0  0  0  0  0
  162.0710  206.5780  153.3250 O   0  0  0  0  0  0  0  0  0  0  0  0
  160.2590  205.1520  153.5450 C   0  0  0  0  0  2  0  0  0  0  0  0
  161.7780  206.3630  154.6480 C   0  0  0  0  0  0  0  0  0  0  0  0
  160.7030  209.9600  154.9530 C   0  0  0  0  0  2  0  0  0  0  0  0
  161.6430  210.3990  156.0610 C   0  0  0  0  0  0  0  0  0  0  0  0
  162.1930  209.5510  156.8110 O   0  0  0  0  0  1  0  0  0  0  0  0
  161.8330  211.7570  156.3190 O   0  0  0  0  0  0  0  0  0  0  0  0
  1 15  1  0  0  0  0
  1 17  1  0  0  0  0
  2 19  1  0  0  0  0
  2 29  1  1  0  0  0
  3  7  1  0  0  0  0
  4  2  1  0  0  0  0
  4 19  1  0  0  0  0
  5 21  1  0  0  0  0
  5 15  1  0  0  0  0
  6 19  1  0  0  0  0
  6 30  1  0  0  0  0
  7  8  1  0  0  0  0
  8 18  1  0  0  0  0
  8 12  1  0  0  0  0
  9 12  1  0  0  0  0
  9 16  1  0  0  0  0
 10  7  1  0  0  0  0
 10 13  1  0  0  0  0
 10 20  1  0  0  0  0
 11  6  1  0  0  0  0
 12 11  1  0  0  0  0
 14  5  2  0  0  0  0
 15 17  1  0  0  0  0
 15 13  1  0  0  0  0
 16 37  1  0  0  0  0
 16  4  1  0  0  0  0
 19 65  1  0  0  0  0
 20  9  1  0  0  0  0
 21  3  1  0  0  0  0
 22 23  1  0  0  0  0
 23 26  1  0  0  0  0
 24 23  2  0  0  0  0
 25 24  1  0  0  0  0
 27 29  1  0  0  0  0
 27 25  2  0  0  0  0
 28 27  1  0  0  0  0
 29 22  2  0  0  0  0
 30 31  1  0  0  0  0
 31 33  1  0  0  0  0
 32 31  2  0  0  0  0
 34 35  1  0  0  0  0
 35 33  1  0  0  0  0
 35 36  1  0  0  0  0
 38 37  1  0  0  0  0
 39 38  2  0  0  0  0
 40 41  1  0  0  0  0
 40 39  1  0  0  0  0
 41 44  1  0  0  0  0
 42 41  1  0  0  0  0
 43 42  1  0  0  0  0
 44 55  1  0  0  0  0
 45 44  1  0  0  0  0
 46 47  2  0  0  0  0
 47 45  1  0  0  0  0
 48 51  2  0  0  0  0
 49 54  1  0  0  0  0
 50 51  1  0  0  0  0
 51 47  1  0  0  0  0
 52 53  1  0  0  0  0
 52 48  1  0  0  0  0
 53 49  2  0  0  0  0
 54 50  2  0  0  0  0
 55 57  1  0  0  0  0
 57 56  2  0  0  0  0
 57 58  1  0  0  0  0
 58 61  1  0  0  0  0
 61 62  1  0  0  0  0
 61 63  1  0  0  0  0
 62 64  1  0  0  0  0
 63 60  1  0  0  0  0
 64 60  2  0  0  0  0
 64 59  1  0  0  0  0
 65 66  1  0  0  0  0
 66 68  2  0  0  0  0
 66 67  1  0  0  0  0
M  END
>  <MODEL>
4

>  <REMARK>
 VINA RESULT:      11.7      3.935      7.524
  Name = 
  18 active torsions:
  status: ('A' for Active; 'I' for Inactive)
    1  A    between atoms: C_6  and  C_29
    2  A    between atoms: C_7  and  C_40
    3  A    between atoms: C_7  and  O_43
    4  A    between atoms: C_7  and  C_51
    5  A    between atoms: C_9  and  C_40
    6  A    between atoms: C_12  and  C_68
    7  A    between atoms: C_14  and  C_36
    8  A    between atoms: S_17  and  C_47
    9  A    between atoms: C_20  and  N_33
   10  A    between atoms: C_25  and  C_61
   11  A    between atoms: C_29  and  C_53
   12  A    between atoms: C_31  and  N_58
   13  A    between atoms: C_36  and  C_64
   14  A    between atoms: C_46  and  C_48
   15  A    between atoms: C_46  and  O_59
   16  A    between atoms: C_47  and  C_60
   17  A    between atoms: C_51  and  O_59
   18  A    between atoms: C_51  and  C_61
                            x       y       z     vdW  Elec       q    Type
                         _______ _______ _______ _____ _____    ______ ____

>  <TORSDO>
F 18

$$$$
