=
 OpenBabel11072413053D

 37 40  0  0  1  0  0  0  0  0999 V2000
  160.6830  209.2450  152.1190 C   0  0  1  0  0  3  0  0  0  0  0  0
  161.7810  210.2290  151.7600 C   0  0  1  0  0  3  0  0  0  0  0  0
  162.1050  208.7400  151.9640 C   0  0  2  0  0  3  0  0  0  0  0  0
  161.4340  205.3740  151.7930 C   0  0  0  0  0  0  0  0  0  0  0  0
  162.8370  205.8870  151.9300 C   0  0  0  0  0  2  0  0  0  0  0  0
  162.1780  207.8540  150.7140 C   0  0  2  0  0  3  0  0  0  0  0  0
  160.9570  203.9460  152.6780 Cl  0  0  0  0  0  0  0  0  0  0  0  0
  160.8050  207.2520  150.4030 C   0  0  2  0  0  3  0  0  0  0  0  0
  163.1800  206.7920  150.8390 N   0  0  0  0  0  2  0  0  0  0  0  0
  160.5360  206.0460  151.1610 N   0  0  0  0  0  0  0  0  0  0  0  0
  160.6680  206.9710  148.9090 C   0  0  0  0  0  2  0  0  0  0  0  0
  161.6590  207.6750  148.2080 O   0  0  0  0  0  0  0  0  0  0  0  0
  162.1930  206.7500  147.3070 C   0  0  0  0  0  2  0  0  0  0  0  0
  161.1500  205.7070  146.9410 C   0  0  0  0  0  2  0  0  0  0  0  0
  161.7830  204.4080  146.5390 C   0  0  0  0  0  0  0  0  0  0  0  0
  162.6790  204.3820  145.6200 N   0  0  0  0  0  2  0  0  0  0  0  0
  161.3630  203.1420  147.2220 C   0  0  0  0  0  2  0  0  0  0  0  0
  160.4650  202.1370  149.3460 C   0  0  0  0  0  1  0  0  0  0  0  0
  161.1530  203.3470  148.7190 C   0  0  0  0  0  2  0  0  0  0  0  0
  161.6960  210.6560  150.2970 C   0  0  0  0  0  3  0  0  0  0  0  0
  160.8800  211.7780  150.1730 O   0  0  0  0  0  1  0  0  0  0  0  0
  162.9730  210.9600  149.8220 O   0  0  0  0  0  1  0  0  0  0  0  0
  160.3570  209.3110  153.6050 C   0  0  0  0  0  2  0  0  0  0  0  0
  158.6380  214.1570  153.9010 C   0  0  0  0  0  2  0  0  0  0  0  0
  158.3830  213.4120  155.1780 C   0  0  0  0  0  3  0  0  0  0  0  0
  160.7940  210.9660  155.5120 N   0  0  0  0  0  0  0  0  0  0  0  0
  158.4010  211.8340  152.6940 C   0  0  0  0  0  2  0  0  0  0  0  0
  159.8560  210.5380  156.5650 C   0  0  0  0  0  2  0  0  0  0  0  0
  158.5980  211.4330  156.5890 C   0  0  0  0  0  2  0  0  0  0  0  0
  158.3330  213.3340  152.6790 C   0  0  0  0  0  0  0  0  0  0  0  0
  160.2210  210.7430  154.1560 C   0  0  2  0  0  3  0  0  0  0  0  0
  158.7630  211.2300  154.0570 C   0  0  1  0  0  3  0  0  0  0  0  0
  158.4100  212.0760  155.2500 C   0  0  0  0  0  0  0  0  0  0  0  0
  158.0540  213.9030  151.6360 O   0  0  0  0  0  0  0  0  0  0  0  0
  162.0800  210.2890  155.6840 C   0  0  0  0  0  2  0  0  0  0  0  0
  162.0290  208.0670  156.5530 O   0  0  0  0  0  1  0  0  0  0  0  0
  162.0460  209.4070  156.9250 C   0  0  0  0  0  2  0  0  0  0  0  0
  1 23  1  1  0  0  0
  2 20  1  6  0  0  0
  2  3  1  0  0  0  0
  2  1  1  0  0  0  0
  3  6  1  6  0  0  0
  3  1  1  0  0  0  0
  4  5  1  0  0  0  0
  4  7  1  0  0  0  0
  6  9  1  1  0  0  0
  8 11  1  6  0  0  0
  8  6  1  0  0  0  0
  8 10  1  0  0  0  0
  9  5  1  0  0  0  0
 10  4  2  0  0  0  0
 12 11  1  0  0  0  0
 13 12  1  0  0  0  0
 14 13  1  0  0  0  0
 15 14  1  0  0  0  0
 15 17  1  0  0  0  0
 16 15  2  0  0  0  0
 17 19  1  0  0  0  0
 19 18  1  0  0  0  0
 21 20  1  0  0  0  0
 22 20  1  0  0  0  0
 24 25  1  0  0  0  0
 25 33  2  0  0  0  0
 26 35  1  0  0  0  0
 26 28  1  0  0  0  0
 28 29  1  0  0  0  0
 30 27  1  0  0  0  0
 30 24  1  0  0  0  0
 31 23  1  1  0  0  0
 31 26  1  0  0  0  0
 32 27  1  6  0  0  0
 32 31  1  0  0  0  0
 32 33  1  0  0  0  0
 33 29  1  0  0  0  0
 34 30  2  0  0  0  0
 35 37  1  0  0  0  0
 36 37  1  0  0  0  0
M  END
>  <MODEL>
1

>  <REMARK>
 VINA RESULT:      -5.8      0.000      0.000
  Name = 
  13 active torsions:
  status: ('A' for Active; 'I' for Inactive)
    1  A    between atoms: C_3  and  C_21
    2  A    between atoms: C_3  and  O_37
    3  A    between atoms: C_5  and  C_23
    4  A    between atoms: C_6  and  C_29
    5  A    between atoms: C_6  and  C_34
    6  A    between atoms: N_9  and  C_18
    7  A    between atoms: C_10  and  C_34
    8  A    between atoms: C_10  and  O_37
    9  A    between atoms: C_11  and  C_24
   10  A    between atoms: C_15  and  C_36
   11  A    between atoms: C_16  and  C_18
   12  A    between atoms: C_24  and  C_28
   13  A    between atoms: C_29  and  C_30
                            x       y       z     vdW  Elec       q    Type
                         _______ _______ _______ _____ _____    ______ ____

>  <TORSDO>
F 13

$$$$
=
 OpenBabel11072413053D

 37 40  0  0  1  0  0  0  0  0999 V2000
  159.6300  211.0690  153.4200 C   0  0  1  0  0  3  0  0  0  0  0  0
  159.6860  210.2430  154.6910 C   0  0  1  0  0  3  0  0  0  0  0  0
  159.7860  209.5640  153.3160 C   0  0  2  0  0  3  0  0  0  0  0  0
  161.1060  206.4490  152.7110 C   0  0  0  0  0  0  0  0  0  0  0  0
  161.3810  207.1810  153.9900 C   0  0  0  0  0  2  0  0  0  0  0  0
  161.1910  209.2520  152.7830 C   0  0  2  0  0  3  0  0  0  0  0  0
  160.8280  204.7250  152.7570 Cl  0  0  0  0  0  0  0  0  0  0  0  0
  161.1030  208.5110  151.4460 C   0  0  2  0  0  3  0  0  0  0  0  0
  161.9920  208.4810  153.7380 N   0  0  0  0  0  2  0  0  0  0  0  0
  160.9180  207.0820  151.6060 N   0  0  0  0  0  0  0  0  0  0  0  0
  162.3430  208.7860  150.5980 C   0  0  0  0  0  2  0  0  0  0  0  0
  161.9680  208.9240  149.2520 O   0  0  0  0  0  0  0  0  0  0  0  0
  162.2670  207.6930  148.6640 C   0  0  0  0  0  2  0  0  0  0  0  0
  160.9920  206.9960  148.2180 C   0  0  0  0  0  2  0  0  0  0  0  0
  161.2600  205.9800  147.1500 C   0  0  0  0  0  0  0  0  0  0  0  0
  160.8650  206.1860  145.9460 N   0  0  0  0  0  2  0  0  0  0  0  0
  161.9960  204.7220  147.4980 C   0  0  0  0  0  2  0  0  0  0  0  0
  161.1310  202.4400  148.1080 C   0  0  0  0  0  1  0  0  0  0  0  0
  161.2490  203.8980  148.5430 C   0  0  0  0  0  2  0  0  0  0  0  0
  161.0230  210.4070  155.4080 C   0  0  0  0  0  3  0  0  0  0  0  0
  161.3320  211.7590  155.5430 O   0  0  0  0  0  1  0  0  0  0  0  0
  160.9510  209.8240  156.6740 O   0  0  0  0  0  1  0  0  0  0  0  0
  158.1930  211.4270  153.0650 C   0  0  0  0  0  2  0  0  0  0  0  0
  155.5980  213.2630  157.1170 C   0  0  0  0  0  2  0  0  0  0  0  0
  156.9830  213.8370  157.0550 C   0  0  0  0  0  3  0  0  0  0  0  0
  157.9950  213.8870  153.7560 N   0  0  0  0  0  0  0  0  0  0  0  0
  156.6110  211.1270  155.9670 C   0  0  0  0  0  2  0  0  0  0  0  0
  159.2820  214.1670  154.4160 C   0  0  0  0  0  2  0  0  0  0  0  0
  159.1420  214.1210  155.9530 C   0  0  0  0  0  2  0  0  0  0  0  0
  155.5670  211.7890  156.8210 C   0  0  0  0  0  0  0  0  0  0  0  0
  157.5610  212.4820  153.9920 C   0  0  2  0  0  3  0  0  0  0  0  0
  157.7130  212.0710  155.4690 C   0  0  1  0  0  3  0  0  0  0  0  0
  157.9600  213.2820  156.3280 C   0  0  0  0  0  0  0  0  0  0  0  0
  154.6480  211.1160  157.2610 O   0  0  0  0  0  0  0  0  0  0  0  0
  158.0870  214.2020  152.3300 C   0  0  0  0  0  2  0  0  0  0  0  0
  156.7690  214.1060  150.3430 O   0  0  0  0  0  1  0  0  0  0  0  0
  156.6950  214.2860  151.7200 C   0  0  0  0  0  2  0  0  0  0  0  0
  1 23  1  6  0  0  0
  1  2  1  0  0  0  0
  2 20  1  1  0  0  0
  3  6  1  1  0  0  0
  3  1  1  0  0  0  0
  3  2  1  0  0  0  0
  4  7  1  0  0  0  0
  4  5  1  0  0  0  0
  6  9  1  1  0  0  0
  8 11  1  1  0  0  0
  8 10  1  0  0  0  0
  8  6  1  0  0  0  0
  9  5  1  0  0  0  0
 10  4  2  0  0  0  0
 12 11  1  0  0  0  0
 13 12  1  0  0  0  0
 14 13  1  0  0  0  0
 15 17  1  0  0  0  0
 15 14  1  0  0  0  0
 16 15  2  0  0  0  0
 17 19  1  0  0  0  0
 18 19  1  0  0  0  0
 20 21  1  0  0  0  0
 20 22  1  0  0  0  0
 25 24  1  0  0  0  0
 26 31  1  0  0  0  0
 26 28  1  0  0  0  0
 27 30  1  0  0  0  0
 28 29  1  0  0  0  0
 29 33  1  0  0  0  0
 30 24  1  0  0  0  0
 30 34  2  0  0  0  0
 31 23  1  6  0  0  0
 31 32  1  0  0  0  0
 32 27  1  1  0  0  0
 32 33  1  0  0  0  0
 33 25  2  0  0  0  0
 35 26  1  0  0  0  0
 36 37  1  0  0  0  0
 37 35  1  0  0  0  0
M  END
>  <MODEL>
2

>  <REMARK>
 VINA RESULT:      -4.2      2.201      4.086
  Name = 
  13 active torsions:
  status: ('A' for Active; 'I' for Inactive)
    1  A    between atoms: C_3  and  C_21
    2  A    between atoms: C_3  and  O_37
    3  A    between atoms: C_5  and  C_23
    4  A    between atoms: C_6  and  C_29
    5  A    between atoms: C_6  and  C_34
    6  A    between atoms: N_9  and  C_18
    7  A    between atoms: C_10  and  C_34
    8  A    between atoms: C_10  and  O_37
    9  A    between atoms: C_11  and  C_24
   10  A    between atoms: C_15  and  C_36
   11  A    between atoms: C_16  and  C_18
   12  A    between atoms: C_24  and  C_28
   13  A    between atoms: C_29  and  C_30
                            x       y       z     vdW  Elec       q    Type
                         _______ _______ _______ _____ _____    ______ ____

>  <TORSDO>
F 13

$$$$
=
 OpenBabel11072413053D

 37 40  0  0  1  0  0  0  0  0999 V2000
  161.3860  209.8580  151.4570 C   0  0  1  0  0  3  0  0  0  0  0  0
  162.3520  210.1480  150.3230 C   0  0  1  0  0  3  0  0  0  0  0  0
  162.6530  209.0320  151.3370 C   0  0  2  0  0  3  0  0  0  0  0  0
  161.0190  206.7370  153.3050 C   0  0  0  0  0  0  0  0  0  0  0  0
  162.5130  206.7370  153.1780 C   0  0  0  0  0  2  0  0  0  0  0  0
  162.2700  207.5990  150.9460 C   0  0  2  0  0  3  0  0  0  0  0  0
  160.2940  206.4190  154.8620 Cl  0  0  0  0  0  0  0  0  0  0  0  0
  160.7500  207.4180  150.9990 C   0  0  2  0  0  3  0  0  0  0  0  0
  162.9280  206.5950  151.7870 N   0  0  0  0  0  2  0  0  0  0  0  0
  160.2660  207.1130  152.3300 N   0  0  0  0  0  0  0  0  0  0  0  0
  160.3050  206.3330  150.0200 C   0  0  0  0  0  2  0  0  0  0  0  0
  160.2980  205.0900  150.6720 O   0  0  0  0  0  0  0  0  0  0  0  0
  160.9500  204.2170  149.7970 C   0  0  0  0  0  2  0  0  0  0  0  0
  161.3380  204.9430  148.5190 C   0  0  0  0  0  2  0  0  0  0  0  0
  161.6890  203.9840  147.4220 C   0  0  0  0  0  0  0  0  0  0  0  0
  161.2590  202.7740  147.4580 N   0  0  0  0  0  2  0  0  0  0  0  0
  162.5430  204.4490  146.2820 C   0  0  0  0  0  2  0  0  0  0  0  0
  161.2010  205.4770  144.4200 C   0  0  0  0  0  1  0  0  0  0  0  0
  162.0230  205.7490  145.6760 C   0  0  0  0  0  2  0  0  0  0  0  0
  161.8140  209.6490  148.9850 C   0  0  0  0  0  3  0  0  0  0  0  0
  161.5670  210.7260  148.1360 O   0  0  0  0  0  1  0  0  0  0  0  0
  162.7470  208.7980  148.3910 O   0  0  0  0  0  1  0  0  0  0  0  0
  161.5670  210.8520  152.5950 C   0  0  0  0  0  2  0  0  0  0  0  0
  160.0100  209.3240  157.2610 C   0  0  0  0  0  2  0  0  0  0  0  0
  159.7970  210.7980  157.0740 C   0  0  0  0  0  3  0  0  0  0  0  0
  159.3290  211.4130  153.7110 N   0  0  0  0  0  0  0  0  0  0  0  0
  162.0500  209.5800  155.6230 C   0  0  0  0  0  2  0  0  0  0  0  0
  159.5170  212.7930  154.1930 C   0  0  0  0  0  2  0  0  0  0  0  0
  159.8400  212.8170  155.7030 C   0  0  0  0  0  2  0  0  0  0  0  0
  161.3380  208.8580  156.7310 C   0  0  0  0  0  0  0  0  0  0  0  0
  160.6000  210.6400  153.7750 C   0  0  2  0  0  3  0  0  0  0  0  0
  161.3280  210.8360  155.1190 C   0  0  1  0  0  3  0  0  0  0  0  0
  160.4180  211.4990  156.1170 C   0  0  0  0  0  0  0  0  0  0  0  0
  161.8380  207.8450  157.1940 O   0  0  0  0  0  0  0  0  0  0  0  0
  158.7630  211.4300  152.3610 C   0  0  0  0  0  2  0  0  0  0  0  0
  157.9160  212.8780  150.6650 O   0  0  0  0  0  1  0  0  0  0  0  0
  158.3260  212.8410  151.9930 C   0  0  0  0  0  2  0  0  0  0  0  0
  1 23  1  1  0  0  0
  2 20  1  6  0  0  0
  2  3  1  0  0  0  0
  2  1  1  0  0  0  0
  3  6  1  6  0  0  0
  3  1  1  0  0  0  0
  4  7  1  0  0  0  0
  5  4  1  0  0  0  0
  6  8  1  0  0  0  0
  6  9  1  1  0  0  0
  8 11  1  6  0  0  0
  8 10  1  0  0  0  0
  9  5  1  0  0  0  0
 10  4  2  0  0  0  0
 11 12  1  0  0  0  0
 13 12  1  0  0  0  0
 14 13  1  0  0  0  0
 15 16  2  0  0  0  0
 15 14  1  0  0  0  0
 17 15  1  0  0  0  0
 18 19  1  0  0  0  0
 19 17  1  0  0  0  0
 21 20  1  0  0  0  0
 22 20  1  0  0  0  0
 25 24  1  0  0  0  0
 26 31  1  0  0  0  0
 26 28  1  0  0  0  0
 27 30  1  0  0  0  0
 28 29  1  0  0  0  0
 29 33  1  0  0  0  0
 30 34  2  0  0  0  0
 30 24  1  0  0  0  0
 31 23  1  6  0  0  0
 31 32  1  0  0  0  0
 32 27  1  1  0  0  0
 32 33  1  0  0  0  0
 33 25  2  0  0  0  0
 35 26  1  0  0  0  0
 36 37  1  0  0  0  0
 37 35  1  0  0  0  0
M  END
>  <MODEL>
3

>  <REMARK>
 VINA RESULT:      -3.8      1.599      3.786
  Name = 
  13 active torsions:
  status: ('A' for Active; 'I' for Inactive)
    1  A    between atoms: C_3  and  C_21
    2  A    between atoms: C_3  and  O_37
    3  A    between atoms: C_5  and  C_23
    4  A    between atoms: C_6  and  C_29
    5  A    between atoms: C_6  and  C_34
    6  A    between atoms: N_9  and  C_18
    7  A    between atoms: C_10  and  C_34
    8  A    between atoms: C_10  and  O_37
    9  A    between atoms: C_11  and  C_24
   10  A    between atoms: C_15  and  C_36
   11  A    between atoms: C_16  and  C_18
   12  A    between atoms: C_24  and  C_28
   13  A    between atoms: C_29  and  C_30
                            x       y       z     vdW  Elec       q    Type
                         _______ _______ _______ _____ _____    ______ ____

>  <TORSDO>
F 13

$$$$
=
 OpenBabel11072413053D

 37 40  0  0  1  0  0  0  0  0999 V2000
  159.6800  211.1130  153.0540 C   0  0  1  0  0  3  0  0  0  0  0  0
  160.1040  210.1150  154.1160 C   0  0  1  0  0  3  0  0  0  0  0  0
  160.2060  209.7560  152.6250 C   0  0  2  0  0  3  0  0  0  0  0  0
  161.6500  207.6820  150.2960 C   0  0  0  0  0  0  0  0  0  0  0  0
  162.0070  207.5960  151.7500 C   0  0  0  0  0  2  0  0  0  0  0  0
  161.5670  209.9510  151.9420 C   0  0  2  0  0  3  0  0  0  0  0  0
  161.4870  206.2110  149.3680 Cl  0  0  0  0  0  0  0  0  0  0  0  0
  161.3920  210.0840  150.4270 C   0  0  2  0  0  3  0  0  0  0  0  0
  162.5070  208.8700  152.2510 N   0  0  0  0  0  2  0  0  0  0  0  0
  161.3130  208.8010  149.7560 N   0  0  0  0  0  0  0  0  0  0  0  0
  162.5200  210.9190  149.8270 C   0  0  0  0  0  2  0  0  0  0  0  0
  162.1410  211.3710  148.5530 O   0  0  0  0  0  0  0  0  0  0  0  0
  163.1870  212.1980  148.1350 C   0  0  0  0  0  2  0  0  0  0  0  0
  162.6650  213.5880  147.8100 C   0  0  0  0  0  2  0  0  0  0  0  0
  161.8080  213.5840  146.5800 C   0  0  0  0  0  0  0  0  0  0  0  0
  162.3250  213.3280  145.4320 N   0  0  0  0  0  2  0  0  0  0  0  0
  160.3440  213.8790  146.7010 C   0  0  0  0  0  2  0  0  0  0  0  0
  158.6220  212.5740  145.4130 C   0  0  0  0  0  1  0  0  0  0  0  0
  159.5030  212.6070  146.6580 C   0  0  0  0  0  2  0  0  0  0  0  0
  161.4310  210.5090  154.7570 C   0  0  0  0  0  3  0  0  0  0  0  0
  161.2720  211.6670  155.5150 O   0  0  0  0  0  1  0  0  0  0  0  0
  161.8780  209.4770  155.5840 O   0  0  0  0  0  1  0  0  0  0  0  0
  158.1670  211.1150  152.8820 C   0  0  0  0  0  2  0  0  0  0  0  0
  155.5240  213.4670  156.6260 C   0  0  0  0  0  2  0  0  0  0  0  0
  156.8350  214.1540  156.3730 C   0  0  0  0  0  2  0  0  0  0  0  0
  157.7200  213.6310  153.0790 N   0  0  0  0  0  0  0  0  0  0  0  0
  156.7290  211.2560  155.8710 C   0  0  0  0  0  2  0  0  0  0  0  0
  158.9900  214.1710  153.5960 C   0  0  0  0  0  2  0  0  0  0  0  0
  158.9090  214.4260  155.1170 C   0  0  0  0  0  2  0  0  0  0  0  0
  155.6470  211.9680  156.6320 C   0  0  0  0  0  0  0  0  0  0  0  0
  157.4530  212.2680  153.6150 C   0  0  2  0  0  3  0  0  0  0  0  0
  157.7010  212.1850  155.1330 C   0  0  1  0  0  3  0  0  0  0  0  0
  157.8420  213.5650  155.7180 C   0  0  2  0  0  3  0  0  0  0  0  0
  154.8250  211.3090  157.2490 O   0  0  0  0  0  0  0  0  0  0  0  0
  157.7270  213.6560  151.6160 C   0  0  0  0  0  2  0  0  0  0  0  0
  159.7310  213.4330  150.3400 O   0  0  0  0  0  1  0  0  0  0  0  0
  158.9960  214.3280  151.1080 C   0  0  0  0  0  2  0  0  0  0  0  0
  1 23  1  1  0  0  0
  1  2  1  0  0  0  0
  2 20  1  6  0  0  0
  3  6  1  6  0  0  0
  3  1  1  0  0  0  0
  3  2  1  0  0  0  0
  4  5  1  0  0  0  0
  5  9  1  0  0  0  0
  6  9  1  6  0  0  0
  7  4  1  0  0  0  0
  8 11  1  6  0  0  0
  8  6  1  0  0  0  0
 10  4  2  0  0  0  0
 10  8  1  0  0  0  0
 12 11  1  0  0  0  0
 13 12  1  0  0  0  0
 14 13  1  0  0  0  0
 15 17  1  0  0  0  0
 15 14  1  0  0  0  0
 16 15  2  0  0  0  0
 18 19  1  0  0  0  0
 19 17  1  0  0  0  0
 20 21  1  0  0  0  0
 20 22  1  0  0  0  0
 24 30  1  0  0  0  0
 25 24  1  0  0  0  0
 26 28  1  0  0  0  0
 26 31  1  0  0  0  0
 27 30  1  0  0  0  0
 28 29  1  0  0  0  0
 30 34  2  0  0  0  0
 31 23  1  6  0  0  0
 31 32  1  0  0  0  0
 32 33  1  0  0  0  0
 32 27  1  1  0  0  0
 33 29  1  6  0  0  0
 33 25  1  0  0  0  0
 35 26  1  0  0  0  0
 36 37  1  0  0  0  0
 37 35  1  0  0  0  0
M  END
>  <MODEL>
4

>  <REMARK>
 VINA RESULT:      -3.8      3.191      5.628
  Name = 
  13 active torsions:
  status: ('A' for Active; 'I' for Inactive)
    1  A    between atoms: C_3  and  C_21
    2  A    between atoms: C_3  and  O_37
    3  A    between atoms: C_5  and  C_23
    4  A    between atoms: C_6  and  C_29
    5  A    between atoms: C_6  and  C_34
    6  A    between atoms: N_9  and  C_18
    7  A    between atoms: C_10  and  C_34
    8  A    between atoms: C_10  and  O_37
    9  A    between atoms: C_11  and  C_24
   10  A    between atoms: C_15  and  C_36
   11  A    between atoms: C_16  and  C_18
   12  A    between atoms: C_24  and  C_28
   13  A    between atoms: C_29  and  C_30
                            x       y       z     vdW  Elec       q    Type
                         _______ _______ _______ _____ _____    ______ ____

>  <TORSDO>
F 13

$$$$
=
 OpenBabel11072413053D

 37 40  0  0  1  0  0  0  0  0999 V2000
  161.7020  209.2210  153.2170 C   0  0  1  0  0  3  0  0  0  0  0  0
  160.4790  208.8950  154.0550 C   0  0  1  0  0  3  0  0  0  0  0  0
  160.5080  208.5580  152.5560 C   0  0  2  0  0  3  0  0  0  0  0  0
  162.1430  207.5960  149.6900 C   0  0  0  0  0  0  0  0  0  0  0  0
  160.6490  207.5250  149.8010 C   0  0  0  0  0  2  0  0  0  0  0  0
  160.8970  207.1280  152.1600 C   0  0  2  0  0  3  0  0  0  0  0  0
  162.8640  208.1210  148.1890 Cl  0  0  0  0  0  0  0  0  0  0  0  0
  162.4170  207.0050  152.0210 C   0  0  2  0  0  3  0  0  0  0  0  0
  160.2390  206.6910  150.9250 N   0  0  0  0  0  2  0  0  0  0  0  0
  162.8980  207.4260  150.7200 N   0  0  0  0  0  0  0  0  0  0  0  0
  162.8690  205.5750  152.3080 C   0  0  0  0  0  2  0  0  0  0  0  0
  161.7430  204.7470  152.4410 O   0  0  0  0  0  0  0  0  0  0  0  0
  161.9800  203.6710  151.5820 C   0  0  0  0  0  2  0  0  0  0  0  0
  160.6660  203.1140  151.0580 C   0  0  0  0  0  2  0  0  0  0  0  0
  160.6940  202.9370  149.5690 C   0  0  0  0  0  0  0  0  0  0  0  0
  160.3500  201.8160  149.0450 N   0  0  0  0  0  2  0  0  0  0  0  0
  161.1240  204.0790  148.7000 C   0  0  0  0  0  2  0  0  0  0  0  0
  162.4820  204.6980  146.6750 C   0  0  0  0  0  1  0  0  0  0  0  0
  161.6820  203.5960  147.3640 C   0  0  0  0  0  2  0  0  0  0  0  0
  160.7290  207.7000  154.9700 C   0  0  0  0  0  3  0  0  0  0  0  0
  161.7420  207.9960  155.8800 O   0  0  0  0  0  1  0  0  0  0  0  0
  159.5600  207.3900  155.6680 O   0  0  0  0  0  1  0  0  0  0  0  0
  161.7150  210.6900  152.8200 C   0  0  0  0  0  2  0  0  0  0  0  0
  156.8630  212.2600  153.5420 C   0  0  0  0  0  2  0  0  0  0  0  0
  157.7030  213.3510  152.9460 C   0  0  0  0  0  3  0  0  0  0  0  0
  160.2360  211.8970  151.1090 N   0  0  0  0  0  0  0  0  0  0  0  0
  159.0710  211.4160  154.6910 C   0  0  0  0  0  2  0  0  0  0  0  0
  160.7220  213.2870  151.1490 C   0  0  0  0  0  2  0  0  0  0  0  0
  159.7970  214.1780  152.0060 C   0  0  0  0  0  2  0  0  0  0  0  0
  157.5730  211.5130  154.6380 C   0  0  0  0  0  0  0  0  0  0  0  0
  160.3300  211.2530  152.4490 C   0  0  2  0  0  3  0  0  0  0  0  0
  159.7960  212.1680  153.5680 C   0  0  1  0  0  3  0  0  0  0  0  0
  159.0410  213.3300  152.9800 C   0  0  0  0  0  0  0  0  0  0  0  0
  156.9120  210.9440  155.4920 O   0  0  0  0  0  0  0  0  0  0  0  0
  160.9610  211.1440  150.0850 C   0  0  0  0  0  2  0  0  0  0  0  0
  162.5190  211.4280  148.3010 O   0  0  0  0  0  1  0  0  0  0  0  0
  161.5680  212.0960  149.0650 C   0  0  0  0  0  2  0  0  0  0  0  0
  1 23  1  6  0  0  0
  1  2  1  0  0  0  0
  2 20  1  1  0  0  0
  3  6  1  1  0  0  0
  3  1  1  0  0  0  0
  3  2  1  0  0  0  0
  4  5  1  0  0  0  0
  4 10  2  0  0  0  0
  5  9  1  0  0  0  0
  6  9  1  6  0  0  0
  7  4  1  0  0  0  0
  8  6  1  0  0  0  0
  8 11  1  6  0  0  0
 10  8  1  0  0  0  0
 11 12  1  0  0  0  0
 13 12  1  0  0  0  0
 14 13  1  0  0  0  0
 15 14  1  0  0  0  0
 16 15  2  0  0  0  0
 17 15  1  0  0  0  0
 18 19  1  0  0  0  0
 19 17  1  0  0  0  0
 20 22  1  0  0  0  0
 20 21  1  0  0  0  0
 24 30  1  0  0  0  0
 25 33  2  0  0  0  0
 25 24  1  0  0  0  0
 26 28  1  0  0  0  0
 26 31  1  0  0  0  0
 28 29  1  0  0  0  0
 29 33  1  0  0  0  0
 30 27  1  0  0  0  0
 30 34  2  0  0  0  0
 31 23  1  1  0  0  0
 31 32  1  0  0  0  0
 32 27  1  1  0  0  0
 33 32  1  0  0  0  0
 35 26  1  0  0  0  0
 36 37  1  0  0  0  0
 37 35  1  0  0  0  0
M  END
>  <MODEL>
5

>  <REMARK>
 VINA RESULT:      -3.6      2.322      4.452
  Name = 
  13 active torsions:
  status: ('A' for Active; 'I' for Inactive)
    1  A    between atoms: C_3  and  C_21
    2  A    between atoms: C_3  and  O_37
    3  A    between atoms: C_5  and  C_23
    4  A    between atoms: C_6  and  C_29
    5  A    between atoms: C_6  and  C_34
    6  A    between atoms: N_9  and  C_18
    7  A    between atoms: C_10  and  C_34
    8  A    between atoms: C_10  and  O_37
    9  A    between atoms: C_11  and  C_24
   10  A    between atoms: C_15  and  C_36
   11  A    between atoms: C_16  and  C_18
   12  A    between atoms: C_24  and  C_28
   13  A    between atoms: C_29  and  C_30
                            x       y       z     vdW  Elec       q    Type
                         _______ _______ _______ _____ _____    ______ ____

>  <TORSDO>
F 13

$$$$
=
 OpenBabel11072413053D

 37 40  0  0  1  0  0  0  0  0999 V2000
  160.8300  207.4140  151.6790 C   0  0  1  0  0  3  0  0  0  0  0  0
  162.2260  206.8810  151.9440 C   0  0  1  0  0  3  0  0  0  0  0  0
  161.9490  208.3930  151.9830 C   0  0  2  0  0  3  0  0  0  0  0  0
  159.7570  210.9480  152.6740 C   0  0  0  0  0  0  0  0  0  0  0  0
  161.2180  211.2070  152.4520 C   0  0  0  0  0  2  0  0  0  0  0  0
  161.6860  209.0280  153.3550 C   0  0  2  0  0  3  0  0  0  0  0  0
  158.5840  212.0660  152.0210 Cl  0  0  0  0  0  0  0  0  0  0  0  0
  160.2220  208.8370  153.7610 C   0  0  2  0  0  3  0  0  0  0  0  0
  162.0400  210.4500  153.3890 N   0  0  0  0  0  2  0  0  0  0  0  0
  159.3460  209.8470  153.1990 N   0  0  0  0  0  0  0  0  0  0  0  0
  160.0860  208.8160  155.2820 C   0  0  0  0  0  2  0  0  0  0  0  0
  159.0900  209.7240  155.6750 O   0  0  0  0  0  0  0  0  0  0  0  0
  159.6900  210.5160  156.6580 C   0  0  0  0  0  2  0  0  0  0  0  0
  158.6940  211.5280  157.2010 C   0  0  0  0  0  2  0  0  0  0  0  0
  158.3020  212.5330  156.1600 C   0  0  0  0  0  0  0  0  0  0  0  0
  159.1970  213.0820  155.4210 N   0  0  0  0  0  2  0  0  0  0  0  0
  156.8570  212.8880  155.9860 C   0  0  0  0  0  2  0  0  0  0  0  0
  155.8260  210.7900  155.0570 C   0  0  0  0  0  1  0  0  0  0  0  0
  156.2530  212.2230  154.7530 C   0  0  0  0  0  2  0  0  0  0  0  0
  162.3250  206.2270  153.3190 C   0  0  0  0  0  3  0  0  0  0  0  0
  161.2090  205.4250  153.5500 O   0  0  0  0  0  1  0  0  0  0  0  0
  163.4760  205.4410  153.3830 O   0  0  0  0  0  1  0  0  0  0  0  0
  160.5410  207.4660  150.1850 C   0  0  0  0  0  2  0  0  0  0  0  0
  161.9720  202.8460  148.4120 C   0  0  0  0  0  2  0  0  0  0  0  0
  161.5530  203.7520  147.2910 C   0  0  0  0  0  3  0  0  0  0  0  0
  162.1520  207.0140  148.2430 N   0  0  0  0  0  0  0  0  0  0  0  0
  160.2560  204.1710  149.9000 C   0  0  0  0  0  2  0  0  0  0  0  0
  161.3280  207.2510  147.0450 C   0  0  0  0  0  2  0  0  0  0  0  0
  160.8300  205.9210  146.4390 C   0  0  0  0  0  2  0  0  0  0  0  0
  161.0550  202.9350  149.6020 C   0  0  0  0  0  0  0  0  0  0  0  0
  161.3400  206.4440  149.3540 C   0  0  2  0  0  3  0  0  0  0  0  0
  160.4280  205.2990  148.8750 C   0  0  1  0  0  3  0  0  0  0  0  0
  160.8240  204.8560  147.4920 C   0  0  0  0  0  0  0  0  0  0  0  0
  160.9830  201.9850  150.3660 O   0  0  0  0  0  0  0  0  0  0  0  0
  162.8290  208.2510  148.6350 C   0  0  0  0  0  2  0  0  0  0  0  0
  162.3400  210.5440  149.0770 O   0  0  0  0  0  1  0  0  0  0  0  0
  161.9560  209.4540  148.3040 C   0  0  0  0  0  2  0  0  0  0  0  0
  1 23  1  6  0  0  0
  1  2  1  0  0  0  0
  1  3  1  0  0  0  0
  2  3  1  0  0  0  0
  2 20  1  1  0  0  0
  3  6  1  1  0  0  0
  4 10  2  0  0  0  0
  5  4  1  0  0  0  0
  5  9  1  0  0  0  0
  6  9  1  6  0  0  0
  6  8  1  0  0  0  0
  7  4  1  0  0  0  0
  8 11  1  1  0  0  0
 10  8  1  0  0  0  0
 11 12  1  0  0  0  0
 12 13  1  0  0  0  0
 13 14  1  0  0  0  0
 15 14  1  0  0  0  0
 16 15  2  0  0  0  0
 17 15  1  0  0  0  0
 19 18  1  0  0  0  0
 19 17  1  0  0  0  0
 20 22  1  0  0  0  0
 20 21  1  0  0  0  0
 24 30  1  0  0  0  0
 25 33  2  0  0  0  0
 25 24  1  0  0  0  0
 26 35  1  0  0  0  0
 26 31  1  0  0  0  0
 28 26  1  0  0  0  0
 29 28  1  0  0  0  0
 29 33  1  0  0  0  0
 30 27  1  0  0  0  0
 30 34  2  0  0  0  0
 31 23  1  6  0  0  0
 32 31  1  0  0  0  0
 32 27  1  1  0  0  0
 33 32  1  0  0  0  0
 37 35  1  0  0  0  0
 37 36  1  0  0  0  0
M  END
>  <MODEL>
6

>  <REMARK>
 VINA RESULT:      -2.9      2.563      8.923
  Name = 
  13 active torsions:
  status: ('A' for Active; 'I' for Inactive)
    1  A    between atoms: C_3  and  C_21
    2  A    between atoms: C_3  and  O_37
    3  A    between atoms: C_5  and  C_23
    4  A    between atoms: C_6  and  C_29
    5  A    between atoms: C_6  and  C_34
    6  A    between atoms: N_9  and  C_18
    7  A    between atoms: C_10  and  C_34
    8  A    between atoms: C_10  and  O_37
    9  A    between atoms: C_11  and  C_24
   10  A    between atoms: C_15  and  C_36
   11  A    between atoms: C_16  and  C_18
   12  A    between atoms: C_24  and  C_28
   13  A    between atoms: C_29  and  C_30
                            x       y       z     vdW  Elec       q    Type
                         _______ _______ _______ _____ _____    ______ ____

>  <TORSDO>
F 13

$$$$
=
 OpenBabel11072413053D

 37 40  0  0  1  0  0  0  0  0999 V2000
  161.8280  205.3200  148.7460 C   0  0  1  0  0  3  0  0  0  0  0  0
  160.6230  205.6170  147.8730 C   0  0  1  0  0  3  0  0  0  0  0  0
  160.5670  205.8680  149.3890 C   0  0  2  0  0  3  0  0  0  0  0  0
  161.9430  206.7670  152.4070 C   0  0  0  0  0  0  0  0  0  0  0  0
  160.4590  206.7640  152.1920 C   0  0  0  0  0  2  0  0  0  0  0  0
  160.8470  207.2950  149.8790 C   0  0  2  0  0  3  0  0  0  0  0  0
  162.5860  206.2030  153.9300 Cl  0  0  0  0  0  0  0  0  0  0  0  0
  162.3440  207.4900  150.1330 C   0  0  2  0  0  3  0  0  0  0  0  0
  160.0810  207.6320  151.0830 N   0  0  0  0  0  2  0  0  0  0  0  0
  162.7570  207.0290  151.4440 N   0  0  0  0  0  0  0  0  0  0  0  0
  162.7330  208.9550  149.9480 C   0  0  0  0  0  2  0  0  0  0  0  0
  161.9570  209.5190  148.9240 O   0  0  0  0  0  0  0  0  0  0  0  0
  161.8940  210.8820  149.2250 C   0  0  0  0  0  2  0  0  0  0  0  0
  162.6680  211.6870  148.1930 C   0  0  0  0  0  2  0  0  0  0  0  0
  161.7580  212.5370  147.3580 C   0  0  0  0  0  0  0  0  0  0  0  0
  160.5160  212.2310  147.2380 N   0  0  0  0  0  2  0  0  0  0  0  0
  162.3080  213.7480  146.6690 C   0  0  0  0  0  2  0  0  0  0  0  0
  163.2620  213.3280  144.3790 C   0  0  0  0  0  1  0  0  0  0  0  0
  162.0200  213.7290  145.1710 C   0  0  0  0  0  2  0  0  0  0  0  0
  160.8320  206.8760  147.0370 C   0  0  0  0  0  3  0  0  0  0  0  0
  162.1870  207.0470  146.7600 O   0  0  0  0  0  1  0  0  0  0  0  0
  160.1280  206.7650  145.8370 O   0  0  0  0  0  1  0  0  0  0  0  0
  161.9190  203.8330  149.0630 C   0  0  0  0  0  2  0  0  0  0  0  0
  159.5350  202.0150  144.8740 C   0  0  0  0  0  2  0  0  0  0  0  0
  160.2450  200.9190  145.6140 C   0  0  0  0  0  3  0  0  0  0  0  0
  160.3940  201.7760  148.9530 N   0  0  0  0  0  0  0  0  0  0  0  0
  161.4080  203.6170  145.7900 C   0  0  0  0  0  2  0  0  0  0  0  0
  161.3380  200.6440  148.9430 C   0  0  0  0  0  2  0  0  0  0  0  0
  161.5380  200.0980  147.5130 C   0  0  0  0  0  2  0  0  0  0  0  0
  160.3550  203.2730  144.7760 C   0  0  0  0  0  0  0  0  0  0  0  0
  160.9570  202.9560  148.2390 C   0  0  2  0  0  3  0  0  0  0  0  0
  161.5940  202.5660  146.8920 C   0  0  1  0  0  3  0  0  0  0  0  0
  161.2050  201.1620  146.5140 C   0  0  0  0  0  0  0  0  0  0  0  0
  160.1360  204.0530  143.8630 O   0  0  0  0  0  0  0  0  0  0  0  0
  160.0140  202.0960  150.3290 C   0  0  0  0  0  2  0  0  0  0  0  0
  161.1930  202.8950  152.2440 O   0  0  0  0  0  1  0  0  0  0  0  0
  161.2060  201.9140  151.2590 C   0  0  0  0  0  2  0  0  0  0  0  0
  1 23  1  1  0  0  0
  1  3  1  0  0  0  0
  2 20  1  6  0  0  0
  2  1  1  0  0  0  0
  2  3  1  0  0  0  0
  3  6  1  6  0  0  0
  4  7  1  0  0  0  0
  5  4  1  0  0  0  0
  6  8  1  0  0  0  0
  6  9  1  1  0  0  0
  8 11  1  1  0  0  0
  8 10  1  0  0  0  0
  9  5  1  0  0  0  0
 10  4  2  0  0  0  0
 12 13  1  0  0  0  0
 12 11  1  0  0  0  0
 14 13  1  0  0  0  0
 15 14  1  0  0  0  0
 16 15  2  0  0  0  0
 17 15  1  0  0  0  0
 18 19  1  0  0  0  0
 19 17  1  0  0  0  0
 21 20  1  0  0  0  0
 22 20  1  0  0  0  0
 24 25  1  0  0  0  0
 25 33  2  0  0  0  0
 26 35  1  0  0  0  0
 28 26  1  0  0  0  0
 29 28  1  0  0  0  0
 30 24  1  0  0  0  0
 30 27  1  0  0  0  0
 31 26  1  0  0  0  0
 31 23  1  1  0  0  0
 32 27  1  6  0  0  0
 32 31  1  0  0  0  0
 33 32  1  0  0  0  0
 33 29  1  0  0  0  0
 34 30  2  0  0  0  0
 35 37  1  0  0  0  0
 37 36  1  0  0  0  0
M  END
>  <MODEL>
7

>  <REMARK>
 VINA RESULT:      -2.8      3.952      8.989
  Name = 
  13 active torsions:
  status: ('A' for Active; 'I' for Inactive)
    1  A    between atoms: C_3  and  C_21
    2  A    between atoms: C_3  and  O_37
    3  A    between atoms: C_5  and  C_23
    4  A    between atoms: C_6  and  C_29
    5  A    between atoms: C_6  and  C_34
    6  A    between atoms: N_9  and  C_18
    7  A    between atoms: C_10  and  C_34
    8  A    between atoms: C_10  and  O_37
    9  A    between atoms: C_11  and  C_24
   10  A    between atoms: C_15  and  C_36
   11  A    between atoms: C_16  and  C_18
   12  A    between atoms: C_24  and  C_28
   13  A    between atoms: C_29  and  C_30
                            x       y       z     vdW  Elec       q    Type
                         _______ _______ _______ _____ _____    ______ ____

>  <TORSDO>
F 13

$$$$
