=
 OpenBabel11072410183D

 33 35  0  0  1  0  0  0  0  0999 V2000
  160.0600  212.6330  151.7620 C   0  0  0  0  0  2  0  0  0  0  0  0
  161.6550  205.8930  152.3600 C   0  0  0  0  0  0  0  0  0  0  0  0
  160.4220  211.2410  151.2830 C   0  0  0  0  0  2  0  0  0  0  0  0
  161.7540  206.3090  154.7190 O   0  0  0  0  0  0  0  0  0  0  0  0
  161.5480  206.7750  151.1520 C   0  0  2  0  0  3  0  0  0  0  0  0
  160.1230  212.2040  154.4640 S   0  0  0  0  0  0  0  0  0  0  0  0
  161.7030  211.2950  150.4710 C   0  0  0  0  0  2  0  0  0  0  0  0
  162.5890  209.0650  151.2190 C   0  0  0  0  0  2  0  0  0  0  0  0
  158.2350  210.6180  155.5900 C   0  0  0  0  0  2  0  0  0  0  0  0
  162.1360  209.9030  150.0320 C   0  0  0  0  0  2  0  0  0  0  0  0
  161.1530  209.1400  154.1130 C   0  0  0  0  0  2  0  0  0  0  0  0
  161.5220  208.0830  153.1820 N   0  0  0  0  0  0  0  0  0  0  0  0
  159.6600  209.4120  154.0210 C   0  0  0  0  0  2  0  0  0  0  0  0
  159.2920  210.6440  154.7830 C   0  0  0  0  0  0  0  0  0  0  0  0
  161.4390  208.2100  151.7310 C   0  0  2  0  0  3  0  0  0  0  0  0
  162.2090  204.7260  152.3320 N   0  0  0  0  0  2  0  0  0  0  0  0
  159.1430  212.5480  152.9680 C   0  0  0  0  0  2  0  0  0  0  0  0
  161.6480  206.7220  153.5340 C   0  0  0  0  0  0  0  0  0  0  0  0
  160.2960  206.4180  150.3330 C   0  0  2  0  0  3  0  0  0  0  0  0
  160.1780  204.9040  150.1100 C   0  0  0  0  0  2  0  0  0  0  0  0
  161.1790  204.4200  149.0610 C   0  0  0  0  0  2  0  0  0  0  0  0
  160.2870  207.1100  148.9610 C   0  0  0  0  0  2  0  0  0  0  0  0
  161.3640  206.6600  148.1740 O   0  0  0  0  0  0  0  0  0  0  0  0
  161.0880  205.3240  147.8250 C   0  0  1  0  0  3  0  0  0  0  0  0
  162.7430  205.9420  146.2180 F   0  0  0  0  0  0  0  0  0  0  0  0
  162.8890  203.9360  147.2130 F   0  0  0  0  0  0  0  0  0  0  0  0
  162.0080  204.8650  146.6850 C   0  0  0  0  0  0  0  0  0  0  0  0
  161.6350  204.7440  144.3000 O   0  0  0  0  0  1  0  0  0  0  0  0
  161.2170  204.2260  145.5280 C   0  0  1  0  0  3  0  0  0  0  0  0
  161.3730  202.7080  145.4990 C   0  0  0  0  0  2  0  0  0  0  0  0
  160.6340  202.1050  146.5510 O   0  0  0  0  0  0  0  0  0  0  0  0
  160.9540  200.9510  148.5400 N   0  0  0  0  0  2  0  0  0  0  0  0
  161.1640  201.0400  147.2710 C   0  0  0  0  0  3  0  0  0  0  0  0
  1 17  1  0  0  0  0
  2 18  1  0  0  0  0
  3  1  1  0  0  0  0
  5 15  1  0  0  0  0
  5  2  1  1  0  0  0
  6 14  1  0  0  0  0
  7  3  1  0  0  0  0
 10  7  1  0  0  0  0
 10  8  1  0  0  0  0
 12 18  1  0  0  0  0
 12 11  1  0  0  0  0
 13 11  1  0  0  0  0
 13 14  1  0  0  0  0
 14  9  2  0  0  0  0
 15  8  1  6  0  0  0
 15 12  1  0  0  0  0
 16  2  2  0  0  0  0
 17  6  1  0  0  0  0
 18  4  2  0  0  0  0
 19 22  1  6  0  0  0
 19  5  1  0  0  0  0
 20 19  1  0  0  0  0
 21 20  1  0  0  0  0
 23 22  1  0  0  0  0
 24 27  1  6  0  0  0
 24 23  1  0  0  0  0
 24 21  1  0  0  0  0
 25 27  1  0  0  0  0
 27 26  1  0  0  0  0
 29 28  1  6  0  0  0
 29 27  1  0  0  0  0
 30 29  1  0  0  0  0
 30 31  1  0  0  0  0
 31 33  1  0  0  0  0
 33 32  2  0  0  0  0
M  END
>  <MODEL>
1

>  <REMARK>
 VINA RESULT:      -5.3      0.000      0.000
  Name = 
  6 active torsions:
  status: ('A' for Active; 'I' for Inactive)
    1  A    between atoms: O_3  and  C_11
    2  A    between atoms: O_3  and  C_32
    3  A    between atoms: C_4  and  C_10
    4  A    between atoms: C_19  and  C_20
    5  A    between atoms: C_19  and  C_31
    6  A    between atoms: C_20  and  C_32
                            x       y       z     vdW  Elec       q    Type
                         _______ _______ _______ _____ _____    ______ ____

>  <TORSDO>
F 6

$$$$
=
 OpenBabel11072410183D

 33 35  0  0  1  0  0  0  0  0999 V2000
  161.0900  203.1650  149.7180 C   0  0  0  0  0  2  0  0  0  0  0  0
  162.0020  209.9660  150.8370 C   0  0  0  0  0  0  0  0  0  0  0  0
  161.1760  204.4430  150.5300 C   0  0  0  0  0  2  0  0  0  0  0  0
  162.6690  210.0730  148.5370 O   0  0  0  0  0  0  0  0  0  0  0  0
  161.7300  208.8400  151.7900 C   0  0  2  0  0  3  0  0  0  0  0  0
  161.7020  204.1680  147.2470 S   0  0  0  0  0  0  0  0  0  0  0  0
  162.2420  204.2990  151.6000 C   0  0  0  0  0  2  0  0  0  0  0  0
  163.0130  206.6910  151.5350 C   0  0  0  0  0  2  0  0  0  0  0  0
  159.9450  205.8320  146.0280 C   0  0  0  0  0  2  0  0  0  0  0  0
  162.4050  205.5890  152.3910 C   0  0  0  0  0  2  0  0  0  0  0  0
  162.2740  207.1450  148.4210 C   0  0  0  0  0  2  0  0  0  0  0  0
  162.3040  208.0000  149.6000 N   0  0  0  0  0  0  0  0  0  0  0  0
  160.8390  206.7630  148.0960 C   0  0  0  0  0  2  0  0  0  0  0  0
  160.7920  205.7020  147.0450 C   0  0  0  0  0  0  0  0  0  0  0  0
  161.9160  207.5590  150.9360 C   0  0  2  0  0  3  0  0  0  0  0  0
  162.4000  211.1330  151.2230 N   0  0  0  0  0  2  0  0  0  0  0  0
  160.4600  203.4480  148.3660 C   0  0  0  0  0  2  0  0  0  0  0  0
  162.3500  209.4090  149.5590 C   0  0  0  0  0  0  0  0  0  0  0  0
  160.2950  208.9310  152.3370 C   0  0  2  0  0  3  0  0  0  0  0  0
  159.8710  210.3860  152.5740 C   0  0  0  0  0  2  0  0  0  0  0  0
  160.5370  210.9600  153.8240 C   0  0  0  0  0  2  0  0  0  0  0  0
  160.1290  208.1590  153.6540 C   0  0  0  0  0  2  0  0  0  0  0  0
  160.9280  208.7280  154.6640 O   0  0  0  0  0  0  0  0  0  0  0  0
  160.3570  209.9740  154.9860 C   0  0  1  0  0  3  0  0  0  0  0  0
  161.2130  209.4410  157.1510 F   0  0  0  0  0  0  0  0  0  0  0  0
  162.1200  211.1490  156.0140 F   0  0  0  0  0  0  0  0  0  0  0  0
  160.9310  210.5030  156.3070 C   0  0  0  0  0  0  0  0  0  0  0  0
  160.3160  212.8060  156.7120 O   0  0  0  0  0  1  0  0  0  0  0  0
  159.9690  211.4850  157.0020 C   0  0  1  0  0  3  0  0  0  0  0  0
  158.5190  211.2550  156.5840 C   0  0  0  0  0  2  0  0  0  0  0  0
  157.9910  212.4060  155.9410 O   0  0  0  0  0  0  0  0  0  0  0  0
  156.4330  211.2000  154.7130 N   0  0  0  0  0  2  0  0  0  0  0  0
  157.1210  212.2800  154.8640 C   0  0  0  0  0  3  0  0  0  0  0  0
  1  3  1  0  0  0  0
  2 16  2  0  0  0  0
  3  7  1  0  0  0  0
  4 18  2  0  0  0  0
  5  2  1  6  0  0  0
  5 19  1  0  0  0  0
  6 17  1  0  0  0  0
  7 10  1  0  0  0  0
  8 10  1  0  0  0  0
  9 14  2  0  0  0  0
 11 12  1  0  0  0  0
 12 15  1  0  0  0  0
 13 11  1  0  0  0  0
 14  6  1  0  0  0  0
 14 13  1  0  0  0  0
 15  8  1  1  0  0  0
 15  5  1  0  0  0  0
 17  1  1  0  0  0  0
 18 12  1  0  0  0  0
 18  2  1  0  0  0  0
 19 20  1  1  0  0  0
 19 22  1  0  0  0  0
 20 21  1  0  0  0  0
 21 24  1  0  0  0  0
 22 23  1  0  0  0  0
 23 24  1  0  0  0  0
 24 27  1  1  0  0  0
 26 27  1  0  0  0  0
 27 29  1  0  0  0  0
 27 25  1  0  0  0  0
 29 28  1  6  0  0  0
 30 29  1  0  0  0  0
 31 30  1  0  0  0  0
 32 33  2  0  0  0  0
 33 31  1  0  0  0  0
M  END
>  <MODEL>
2

>  <REMARK>
 VINA RESULT:      -4.9      4.468      9.065
  Name = 
  6 active torsions:
  status: ('A' for Active; 'I' for Inactive)
    1  A    between atoms: O_3  and  C_11
    2  A    between atoms: O_3  and  C_32
    3  A    between atoms: C_4  and  C_10
    4  A    between atoms: C_19  and  C_20
    5  A    between atoms: C_19  and  C_31
    6  A    between atoms: C_20  and  C_32
                            x       y       z     vdW  Elec       q    Type
                         _______ _______ _______ _____ _____    ______ ____

>  <TORSDO>
F 6

$$$$
=
 OpenBabel11072410183D

 33 35  0  0  1  0  0  0  0  0999 V2000
  160.4270  212.2330  151.4550 C   0  0  0  0  0  2  0  0  0  0  0  0
  161.6560  205.4190  152.0810 C   0  0  0  0  0  0  0  0  0  0  0  0
  160.6980  210.8180  150.9820 C   0  0  0  0  0  2  0  0  0  0  0  0
  161.8380  205.8490  154.4330 O   0  0  0  0  0  0  0  0  0  0  0  0
  161.5680  206.2950  150.8670 C   0  0  2  0  0  3  0  0  0  0  0  0
  160.5340  211.8240  154.1580 S   0  0  0  0  0  0  0  0  0  0  0  0
  161.9590  210.7940  150.1380 C   0  0  0  0  0  2  0  0  0  0  0  0
  162.7380  208.5230  150.8850 C   0  0  0  0  0  2  0  0  0  0  0  0
  158.5890  210.3570  155.3470 C   0  0  0  0  0  2  0  0  0  0  0  0
  162.3020  209.3760  149.7020 C   0  0  0  0  0  2  0  0  0  0  0  0
  161.3810  208.7040  153.8130 C   0  0  0  0  0  2  0  0  0  0  0  0
  161.6660  207.6200  152.8850 N   0  0  0  0  0  0  0  0  0  0  0  0
  159.9040  209.0590  153.7550 C   0  0  0  0  0  2  0  0  0  0  0  0
  159.6250  210.3160  154.5140 C   0  0  0  0  0  0  0  0  0  0  0  0
  161.5540  207.7390  151.4340 C   0  0  2  0  0  3  0  0  0  0  0  0
  162.1430  204.2230  152.0510 N   0  0  0  0  0  2  0  0  0  0  0  0
  159.5370  212.2090  152.6850 C   0  0  0  0  0  2  0  0  0  0  0  0
  161.7250  206.2580  153.2460 C   0  0  0  0  0  0  0  0  0  0  0  0
  160.2780  206.0020  150.0830 C   0  0  2  0  0  3  0  0  0  0  0  0
  160.1770  204.5220  149.6920 C   0  0  0  0  0  2  0  0  0  0  0  0
  161.1240  204.1880  148.5400 C   0  0  0  0  0  2  0  0  0  0  0  0
  160.1760  206.8470  148.8040 C   0  0  0  0  0  2  0  0  0  0  0  0
  161.2130  206.5190  147.9110 O   0  0  0  0  0  0  0  0  0  0  0  0
  160.9440  205.2250  147.4250 C   0  0  1  0  0  3  0  0  0  0  0  0
  162.9770  205.6610  146.2500 F   0  0  0  0  0  0  0  0  0  0  0  0
  162.1350  203.5810  146.2320 F   0  0  0  0  0  0  0  0  0  0  0  0
  161.8050  204.9250  146.1900 C   0  0  0  0  0  0  0  0  0  0  0  0
  160.3260  206.4150  144.9920 O   0  0  0  0  0  1  0  0  0  0  0  0
  161.0580  205.2320  144.8780 C   0  0  1  0  0  3  0  0  0  0  0  0
  162.0130  205.3580  143.6940 C   0  0  0  0  0  2  0  0  0  0  0  0
  161.4050  206.0750  142.6300 O   0  0  0  0  0  0  0  0  0  0  0  0
  161.8680  207.2680  140.6930 N   0  0  0  0  0  2  0  0  0  0  0  0
  162.0490  206.2080  141.4050 C   0  0  0  0  0  3  0  0  0  0  0  0
  1 17  1  0  0  0  0
  2 18  1  0  0  0  0
  3  1  1  0  0  0  0
  5 15  1  0  0  0  0
  5  2  1  1  0  0  0
  6 14  1  0  0  0  0
  7  3  1  0  0  0  0
 10  7  1  0  0  0  0
 10  8  1  0  0  0  0
 12 18  1  0  0  0  0
 12 11  1  0  0  0  0
 13 11  1  0  0  0  0
 13 14  1  0  0  0  0
 14  9  2  0  0  0  0
 15  8  1  6  0  0  0
 15 12  1  0  0  0  0
 16  2  2  0  0  0  0
 17  6  1  0  0  0  0
 18  4  2  0  0  0  0
 19 22  1  6  0  0  0
 19  5  1  0  0  0  0
 20 19  1  0  0  0  0
 21 20  1  0  0  0  0
 23 22  1  0  0  0  0
 24 27  1  6  0  0  0
 24 23  1  0  0  0  0
 24 21  1  0  0  0  0
 27 26  1  0  0  0  0
 27 25  1  0  0  0  0
 29 28  1  1  0  0  0
 29 27  1  0  0  0  0
 30 29  1  0  0  0  0
 31 30  1  0  0  0  0
 32 33  2  0  0  0  0
 33 31  1  0  0  0  0
M  END
>  <MODEL>
3

>  <REMARK>
 VINA RESULT:      -4.1      2.130      2.597
  Name = 
  6 active torsions:
  status: ('A' for Active; 'I' for Inactive)
    1  A    between atoms: O_3  and  C_11
    2  A    between atoms: O_3  and  C_32
    3  A    between atoms: C_4  and  C_10
    4  A    between atoms: C_19  and  C_20
    5  A    between atoms: C_19  and  C_31
    6  A    between atoms: C_20  and  C_32
                            x       y       z     vdW  Elec       q    Type
                         _______ _______ _______ _____ _____    ______ ____

>  <TORSDO>
F 6

$$$$
=
 OpenBabel11072410183D

 33 35  0  0  1  0  0  0  0  0999 V2000
  160.1600  212.9310  150.2220 C   0  0  0  0  0  2  0  0  0  0  0  0
  161.3390  206.3980  152.2860 C   0  0  0  0  0  0  0  0  0  0  0  0
  160.5020  211.4620  150.0650 C   0  0  0  0  0  2  0  0  0  0  0  0
  161.2000  207.2670  154.5160 O   0  0  0  0  0  0  0  0  0  0  0  0
  161.4100  207.0280  150.9260 C   0  0  2  0  0  3  0  0  0  0  0  0
  159.9050  213.0390  152.9440 S   0  0  0  0  0  0  0  0  0  0  0  0
  161.8660  211.3200  149.4140 C   0  0  0  0  0  2  0  0  0  0  0  0
  162.5510  209.2560  150.6740 C   0  0  0  0  0  2  0  0  0  0  0  0
  157.8280  211.7600  154.1240 C   0  0  0  0  0  2  0  0  0  0  0  0
  162.2730  209.8580  149.3040 C   0  0  0  0  0  2  0  0  0  0  0  0
  160.8120  209.9390  153.3110 C   0  0  0  0  0  2  0  0  0  0  0  0
  161.2270  208.7090  152.6510 N   0  0  0  0  0  0  0  0  0  0  0  0
  159.3540  210.2290  152.9940 C   0  0  0  0  0  2  0  0  0  0  0  0
  158.9670  211.5970  153.4570 C   0  0  0  0  0  0  0  0  0  0  0  0
  161.3100  208.5510  151.2020 C   0  0  2  0  0  3  0  0  0  0  0  0
  161.8340  205.2340  152.5480 N   0  0  0  0  0  2  0  0  0  0  0  0
  159.1130  213.1100  151.3060 C   0  0  0  0  0  2  0  0  0  0  0  0
  161.2450  207.4420  153.2690 C   0  0  0  0  0  0  0  0  0  0  0  0
  160.2390  206.5520  150.0500 C   0  0  2  0  0  3  0  0  0  0  0  0
  159.8430  205.1050  150.3720 C   0  0  0  0  0  2  0  0  0  0  0  0
  160.8590  204.1140  149.8040 C   0  0  0  0  0  2  0  0  0  0  0  0
  160.5660  206.6410  148.5510 C   0  0  0  0  0  2  0  0  0  0  0  0
  161.6260  205.7750  148.2250 O   0  0  0  0  0  0  0  0  0  0  0  0
  161.1320  204.4610  148.3350 C   0  0  1  0  0  3  0  0  0  0  0  0
  163.1630  204.1540  147.1160 F   0  0  0  0  0  0  0  0  0  0  0  0
  162.5670  202.6190  148.6420 F   0  0  0  0  0  0  0  0  0  0  0  0
  162.0880  203.4680  147.6590 C   0  0  0  0  0  0  0  0  0  0  0  0
  160.0140  202.5530  146.8190 O   0  0  0  0  0  1  0  0  0  0  0  0
  161.3840  202.6440  146.5640 C   0  0  1  0  0  3  0  0  0  0  0  0
  161.5850  203.2480  145.1770 C   0  0  0  0  0  2  0  0  0  0  0  0
  160.5900  204.2230  144.9020 O   0  0  0  0  0  0  0  0  0  0  0  0
  160.1180  206.4830  145.1460 N   0  0  0  0  0  2  0  0  0  0  0  0
  160.9320  205.5630  144.7540 C   0  0  0  0  0  3  0  0  0  0  0  0
  1 17  1  0  0  0  0
  2 16  2  0  0  0  0
  2 18  1  0  0  0  0
  3  1  1  0  0  0  0
  5 15  1  0  0  0  0
  5  2  1  1  0  0  0
  6 14  1  0  0  0  0
  7  3  1  0  0  0  0
 10  7  1  0  0  0  0
 10  8  1  0  0  0  0
 12 18  1  0  0  0  0
 12 11  1  0  0  0  0
 13 11  1  0  0  0  0
 13 14  1  0  0  0  0
 14  9  2  0  0  0  0
 15  8  1  1  0  0  0
 15 12  1  0  0  0  0
 17  6  1  0  0  0  0
 18  4  2  0  0  0  0
 19 22  1  6  0  0  0
 19 20  1  0  0  0  0
 19  5  1  0  0  0  0
 21 20  1  0  0  0  0
 23 24  1  0  0  0  0
 23 22  1  0  0  0  0
 24 27  1  1  0  0  0
 24 21  1  0  0  0  0
 25 27  1  0  0  0  0
 27 26  1  0  0  0  0
 29 28  1  1  0  0  0
 29 27  1  0  0  0  0
 30 29  1  0  0  0  0
 31 30  1  0  0  0  0
 33 31  1  0  0  0  0
 33 32  2  0  0  0  0
M  END
>  <MODEL>
4

>  <REMARK>
 VINA RESULT:      -3.5      1.573      2.022
  Name = 
  6 active torsions:
  status: ('A' for Active; 'I' for Inactive)
    1  A    between atoms: O_3  and  C_11
    2  A    between atoms: O_3  and  C_32
    3  A    between atoms: C_4  and  C_10
    4  A    between atoms: C_19  and  C_20
    5  A    between atoms: C_19  and  C_31
    6  A    between atoms: C_20  and  C_32
                            x       y       z     vdW  Elec       q    Type
                         _______ _______ _______ _____ _____    ______ ____

>  <TORSDO>
F 6

$$$$
=
 OpenBabel11072410183D

 33 35  0  0  1  0  0  0  0  0999 V2000
  161.4210  202.6750  147.7740 C   0  0  0  0  0  2  0  0  0  0  0  0
  161.0010  207.7200  152.5390 C   0  0  0  0  0  0  0  0  0  0  0  0
  161.3960  204.0990  148.2950 C   0  0  0  0  0  2  0  0  0  0  0  0
  160.4640  205.9690  154.0860 O   0  0  0  0  0  0  0  0  0  0  0  0
  161.1330  207.7850  151.0460 C   0  0  2  0  0  3  0  0  0  0  0  0
  161.0190  201.3350  150.1250 S   0  0  0  0  0  0  0  0  0  0  0  0
  160.2680  204.8670  147.6320 C   0  0  0  0  0  2  0  0  0  0  0  0
  159.6960  206.2810  149.6300 C   0  0  0  0  0  2  0  0  0  0  0  0
  162.9650  201.3700  152.0110 C   0  0  0  0  0  2  0  0  0  0  0  0
  160.1680  206.2830  148.1830 C   0  0  0  0  0  2  0  0  0  0  0  0
  160.6290  204.0870  151.8110 C   0  0  0  0  0  2  0  0  0  0  0  0
  160.6060  205.5420  151.7710 N   0  0  0  0  0  0  0  0  0  0  0  0
  162.0430  203.5850  151.5710 C   0  0  0  0  0  2  0  0  0  0  0  0
  162.0590  202.1040  151.3710 C   0  0  0  0  0  0  0  0  0  0  0  0
  160.8890  206.3280  150.5740 C   0  0  2  0  0  3  0  0  0  0  0  0
  160.6790  208.7410  153.2610 N   0  0  0  0  0  2  0  0  0  0  0  0
  162.1400  201.7720  148.7590 C   0  0  0  0  0  2  0  0  0  0  0  0
  160.6760  206.3700  152.9110 C   0  0  0  0  0  0  0  0  0  0  0  0
  162.5400  208.2620  150.6490 C   0  0  2  0  0  3  0  0  0  0  0  0
  162.8930  209.5990  151.3130 C   0  0  0  0  0  2  0  0  0  0  0  0
  162.1560  210.7600  150.6470 C   0  0  0  0  0  2  0  0  0  0  0  0
  162.6860  208.4250  149.1280 C   0  0  0  0  0  2  0  0  0  0  0  0
  161.8260  209.4330  148.6550 O   0  0  0  0  0  0  0  0  0  0  0  0
  162.3310  210.6600  149.1260 C   0  0  1  0  0  3  0  0  0  0  0  0
  160.9540  211.3510  147.3010 F   0  0  0  0  0  0  0  0  0  0  0  0
  160.8080  212.4520  149.2510 F   0  0  0  0  0  0  0  0  0  0  0  0
  161.6840  211.8320  148.3760 C   0  0  0  0  0  0  0  0  0  0  0  0
  163.8900  212.2000  147.4580 O   0  0  0  0  0  1  0  0  0  0  0  0
  162.7310  212.8510  147.8860 C   0  0  1  0  0  3  0  0  0  0  0  0
  162.1990  213.7090  146.7420 C   0  0  0  0  0  2  0  0  0  0  0  0
  162.7180  213.2670  145.4960 O   0  0  0  0  0  0  0  0  0  0  0  0
  162.3310  212.5780  143.3130 N   0  0  0  0  0  2  0  0  0  0  0  0
  161.8880  213.1350  144.3890 C   0  0  0  0  0  3  0  0  0  0  0  0
  1  3  1  0  0  0  0
  1 17  1  0  0  0  0
  2 18  1  0  0  0  0
  2 16  2  0  0  0  0
  5  2  1  1  0  0  0
  6 14  1  0  0  0  0
  7 10  1  0  0  0  0
  7  3  1  0  0  0  0
 10  8  1  0  0  0  0
 12 11  1  0  0  0  0
 12 18  1  0  0  0  0
 13 11  1  0  0  0  0
 14 13  1  0  0  0  0
 14  9  2  0  0  0  0
 15  8  1  6  0  0  0
 15  5  1  0  0  0  0
 15 12  1  0  0  0  0
 17  6  1  0  0  0  0
 18  4  2  0  0  0  0
 19 22  1  6  0  0  0
 19  5  1  0  0  0  0
 19 20  1  0  0  0  0
 21 20  1  0  0  0  0
 23 24  1  0  0  0  0
 23 22  1  0  0  0  0
 24 27  1  6  0  0  0
 24 21  1  0  0  0  0
 25 27  1  0  0  0  0
 27 26  1  0  0  0  0
 29 28  1  6  0  0  0
 29 27  1  0  0  0  0
 30 29  1  0  0  0  0
 31 30  1  0  0  0  0
 32 33  2  0  0  0  0
 33 31  1  0  0  0  0
M  END
>  <MODEL>
5

>  <REMARK>
 VINA RESULT:      -2.7      4.224      7.594
  Name = 
  6 active torsions:
  status: ('A' for Active; 'I' for Inactive)
    1  A    between atoms: O_3  and  C_11
    2  A    between atoms: O_3  and  C_32
    3  A    between atoms: C_4  and  C_10
    4  A    between atoms: C_19  and  C_20
    5  A    between atoms: C_19  and  C_31
    6  A    between atoms: C_20  and  C_32
                            x       y       z     vdW  Elec       q    Type
                         _______ _______ _______ _____ _____    ______ ____

>  <TORSDO>
F 6

$$$$
=
 OpenBabel11072410183D

 33 35  0  0  1  0  0  0  0  0999 V2000
  161.4250  202.8440  147.7390 C   0  0  0  0  0  2  0  0  0  0  0  0
  160.9840  207.9500  152.4380 C   0  0  0  0  0  0  0  0  0  0  0  0
  161.4090  204.2740  148.2440 C   0  0  0  0  0  2  0  0  0  0  0  0
  160.4000  206.2230  153.9950 O   0  0  0  0  0  0  0  0  0  0  0  0
  161.1420  207.9950  150.9460 C   0  0  2  0  0  3  0  0  0  0  0  0
  160.9670  201.5360  150.0990 S   0  0  0  0  0  0  0  0  0  0  0  0
  160.3010  205.0470  147.5520 C   0  0  0  0  0  2  0  0  0  0  0  0
  159.7120  206.4920  149.5230 C   0  0  0  0  0  2  0  0  0  0  0  0
  162.8800  201.5710  152.0170 C   0  0  0  0  0  2  0  0  0  0  0  0
  160.2090  206.4700  148.0850 C   0  0  0  0  0  2  0  0  0  0  0  0
  160.5800  204.3120  151.7460 C   0  0  0  0  0  2  0  0  0  0  0  0
  160.5760  205.7670  151.6880 N   0  0  0  0  0  0  0  0  0  0  0  0
  161.9930  203.7910  151.5370 C   0  0  0  0  0  2  0  0  0  0  0  0
  161.9940  202.3070  151.3530 C   0  0  0  0  0  0  0  0  0  0  0  0
  160.8880  206.5360  150.4870 C   0  0  2  0  0  3  0  0  0  0  0  0
  160.6610  208.9830  153.1420 N   0  0  0  0  0  2  0  0  0  0  0  0
  162.1170  201.9440  148.7470 C   0  0  0  0  0  2  0  0  0  0  0  0
  160.6360  206.6080  152.8190 C   0  0  0  0  0  0  0  0  0  0  0  0
  162.5610  208.4510  150.5680 C   0  0  2  0  0  3  0  0  0  0  0  0
  162.8860  209.8330  151.1490 C   0  0  0  0  0  2  0  0  0  0  0  0
  162.1700  210.9400  150.3760 C   0  0  0  0  0  2  0  0  0  0  0  0
  162.7630  208.5070  149.0460 C   0  0  0  0  0  2  0  0  0  0  0  0
  161.9180  209.4740  148.4720 O   0  0  0  0  0  0  0  0  0  0  0  0
  162.4020  210.7340  148.8740 C   0  0  1  0  0  3  0  0  0  0  0  0
  162.6900  212.2630  147.0610 F   0  0  0  0  0  0  0  0  0  0  0  0
  160.6830  211.3070  147.3690 F   0  0  0  0  0  0  0  0  0  0  0  0
  161.7790  211.8470  148.0190 C   0  0  0  0  0  0  0  0  0  0  0  0
  162.1240  214.1660  148.6080 O   0  0  0  0  0  1  0  0  0  0  0  0
  161.3320  213.0480  148.8740 C   0  0  1  0  0  3  0  0  0  0  0  0
  159.8710  213.4120  148.6270 C   0  0  0  0  0  2  0  0  0  0  0  0
  159.1290  213.3760  149.8370 O   0  0  0  0  0  0  0  0  0  0  0  0
  159.6700  212.9640  152.0570 N   0  0  0  0  0  2  0  0  0  0  0  0
  159.7150  213.7550  151.0390 C   0  0  0  0  0  3  0  0  0  0  0  0
  1  3  1  0  0  0  0
  1 17  1  0  0  0  0
  2 18  1  0  0  0  0
  2 16  2  0  0  0  0
  5  2  1  1  0  0  0
  6 14  1  0  0  0  0
  7 10  1  0  0  0  0
  7  3  1  0  0  0  0
 10  8  1  0  0  0  0
 12 11  1  0  0  0  0
 12 18  1  0  0  0  0
 13 11  1  0  0  0  0
 14 13  1  0  0  0  0
 14  9  2  0  0  0  0
 15  8  1  6  0  0  0
 15  5  1  0  0  0  0
 15 12  1  0  0  0  0
 17  6  1  0  0  0  0
 18  4  2  0  0  0  0
 19 22  1  6  0  0  0
 19  5  1  0  0  0  0
 19 20  1  0  0  0  0
 21 20  1  0  0  0  0
 23 24  1  0  0  0  0
 23 22  1  0  0  0  0
 24 27  1  6  0  0  0
 24 21  1  0  0  0  0
 25 27  1  0  0  0  0
 26 27  1  0  0  0  0
 27 29  1  0  0  0  0
 29 28  1  6  0  0  0
 30 29  1  0  0  0  0
 30 31  1  0  0  0  0
 31 33  1  0  0  0  0
 33 32  2  0  0  0  0
M  END
>  <MODEL>
6

>  <REMARK>
 VINA RESULT:      -2.6      3.770      7.666
  Name = 
  6 active torsions:
  status: ('A' for Active; 'I' for Inactive)
    1  A    between atoms: O_3  and  C_11
    2  A    between atoms: O_3  and  C_32
    3  A    between atoms: C_4  and  C_10
    4  A    between atoms: C_19  and  C_20
    5  A    between atoms: C_19  and  C_31
    6  A    between atoms: C_20  and  C_32
                            x       y       z     vdW  Elec       q    Type
                         _______ _______ _______ _____ _____    ______ ____

>  <TORSDO>
F 6

$$$$
