=
 OpenBabel11072413333D

 36 39  0  0  1  0  0  0  0  0999 V2000
  161.2740  207.7320  153.6840 C   0  0  0  0  0  0  0  0  0  0  0  0
  161.1100  206.2610  150.8410 C   0  0  2  0  0  3  0  0  0  0  0  0
  161.4260  208.2830  152.3110 C   0  0  2  0  0  3  0  0  0  0  0  0
  161.2270  206.4680  153.9920 N   0  0  0  0  0  0  0  0  0  0  0  0
  161.0560  209.7450  152.4940 C   0  0  1  0  0  3  0  0  0  0  0  0
  161.1760  205.3530  153.0380 C   0  0  0  0  0  2  0  0  0  0  0  0
  161.1750  208.7440  154.6650 N   0  0  0  0  0  2  0  0  0  0  0  0
  160.4980  207.5870  151.3260 C   0  0  0  0  0  2  0  0  0  0  0  0
  161.2010  210.0420  154.0070 C   0  0  1  0  0  0  0  0  0  0  0  0
  161.9740  205.6320  151.8480 N   0  0  0  0  0  2  0  0  0  0  0  0
  162.4170  210.6770  154.2870 O   0  0  0  0  0  1  0  0  0  0  0  0
  161.7420  205.5950  148.4840 N   0  0  0  0  0  2  0  0  0  0  0  0
  161.8830  206.4940  149.5870 C   0  0  0  0  0  0  0  0  0  0  0  0
  162.6800  207.4690  149.5220 O   0  0  0  0  0  0  0  0  0  0  0  0
  160.8570  204.2460  145.4500 O   0  0  0  0  0  0  0  0  0  0  0  0
  163.7800  204.4510  145.6710 F   0  0  0  0  0  0  0  0  0  0  0  0
  162.9240  204.3350  146.7510 C   0  0  2  0  0  3  0  0  0  0  0  0
  161.6890  203.5260  146.3590 C   0  0  0  0  0  2  0  0  0  0  0  0
  159.7580  206.1810  144.8860 O   0  0  0  0  0  0  0  0  0  0  0  0
  162.5160  205.7200  147.2560 C   0  0  1  0  0  3  0  0  0  0  0  0
  161.7260  206.4930  146.1960 C   0  0  0  0  0  2  0  0  0  0  0  0
  160.7060  205.6350  145.5060 C   0  0  0  0  0  0  0  0  0  0  0  0
  160.0200  210.8990  154.4660 C   0  0  0  0  0  2  0  0  0  0  0  0
  159.2750  210.2990  155.6560 C   0  0  0  0  0  2  0  0  0  0  0  0
  157.5160  211.7390  154.6170 C   0  0  0  0  0  1  0  0  0  0  0  0
  157.9250  210.9720  155.8630 C   0  0  0  0  0  2  0  0  0  0  0  0
  161.9130  210.6310  151.5940 C   0  0  0  0  0  2  0  0  0  0  0  0
  160.6620  212.5800  150.6660 C   0  0  2  0  0  3  0  0  0  0  0  0
  161.1100  211.1270  150.4050 C   0  0  1  0  0  3  0  0  0  0  0  0
  159.0660  212.5940  151.4550 Cl  0  0  0  0  0  0  0  0  0  0  0  0
  163.2860  211.9860  147.4690 F   0  0  0  0  0  0  0  0  0  0  0  0
  161.9210  210.9270  149.1080 C   0  0  0  0  0  2  0  0  0  0  0  0
  162.6080  212.2130  148.6530 C   0  0  2  0  0  3  0  0  0  0  0  0
  160.6260  213.4300  149.4240 C   0  0  0  0  0  3  0  0  0  0  0  0
  161.4960  214.2750  147.0320 Cl  0  0  0  0  0  0  0  0  0  0  0  0
  161.5650  213.2850  148.4830 C   0  0  0  0  0  0  0  0  0  0  0  0
  1  4  2  0  0  0  0
  1  7  1  0  0  0  0
  2 13  1  6  0  0  0
  2  8  1  0  0  0  0
  2 10  1  0  0  0  0
  3  8  1  6  0  0  0
  3  5  1  0  0  0  0
  3  1  1  0  0  0  0
  5 27  1  6  0  0  0
  5  9  1  0  0  0  0
  6  4  1  0  0  0  0
  9 11  1  1  0  0  0
  9 23  1  0  0  0  0
  9  7  1  0  0  0  0
 10  6  1  0  0  0  0
 12 13  1  0  0  0  0
 14 13  2  0  0  0  0
 15 22  1  0  0  0  0
 15 18  1  0  0  0  0
 17 16  1  6  0  0  0
 17 20  1  0  0  0  0
 18 17  1  0  0  0  0
 19 22  2  0  0  0  0
 20 12  1  1  0  0  0
 21 20  1  0  0  0  0
 22 21  1  0  0  0  0
 23 24  1  0  0  0  0
 24 26  1  0  0  0  0
 25 26  1  0  0  0  0
 28 30  1  6  0  0  0
 29 28  1  0  0  0  0
 29 27  1  1  0  0  0
 32 29  1  0  0  0  0
 33 31  1  6  0  0  0
 33 32  1  0  0  0  0
 34 28  1  0  0  0  0
 35 36  1  0  0  0  0
 36 33  1  0  0  0  0
 36 34  2  0  0  0  0
M  END
>  <MODEL>
1

>  <REMARK>
 VINA RESULT:      -6.4      0.000      0.000
  Name = 
  7 active torsions:
  status: ('A' for Active; 'I' for Inactive)
    1  A    between atoms: C_3  and  C_16
    2  A    between atoms: C_6  and  C_23
    3  A    between atoms: C_6  and  C_28
    4  A    between atoms: N_8  and  C_20
    5  A    between atoms: C_9  and  C_31
    6  A    between atoms: C_18  and  C_31
    7  A    between atoms: C_28  and  C_30
                            x       y       z     vdW  Elec       q    Type
                         _______ _______ _______ _____ _____    ______ ____

>  <TORSDO>
F 7

$$$$
=
 OpenBabel11072413333D

 36 39  0  0  1  0  0  0  0  0999 V2000
  161.2790  206.5170  152.4230 C   0  0  0  0  0  0  0  0  0  0  0  0
  162.3490  209.0380  150.7580 C   0  0  2  0  0  3  0  0  0  0  0  0
  161.3480  206.7340  150.9540 C   0  0  2  0  0  3  0  0  0  0  0  0
  161.4810  207.4260  153.3340 N   0  0  0  0  0  0  0  0  0  0  0  0
  161.3980  205.3170  150.4090 C   0  0  1  0  0  3  0  0  0  0  0  0
  161.9480  208.7970  153.0890 C   0  0  0  0  0  2  0  0  0  0  0  0
  160.9680  205.1800  152.7590 N   0  0  0  0  0  2  0  0  0  0  0  0
  162.5860  207.5300  150.5660 C   0  0  0  0  0  2  0  0  0  0  0  0
  160.8610  204.4000  151.5350 C   0  0  1  0  0  0  0  0  0  0  0  0
  161.4060  209.3310  151.8440 N   0  0  0  0  0  2  0  0  0  0  0  0
  159.5190  204.0620  151.3210 O   0  0  0  0  0  1  0  0  0  0  0  0
  161.8970  211.0520  149.2950 N   0  0  0  0  0  2  0  0  0  0  0  0
  161.8530  209.6350  149.4840 C   0  0  0  0  0  0  0  0  0  0  0  0
  161.3710  208.8830  148.5930 O   0  0  0  0  0  0  0  0  0  0  0  0
  161.7140  214.4530  148.8410 O   0  0  0  0  0  0  0  0  0  0  0  0
  159.5760  213.0990  147.3470 F   0  0  0  0  0  0  0  0  0  0  0  0
  160.1730  212.5890  148.4850 C   0  0  2  0  0  3  0  0  0  0  0  0
  160.6200  213.7270  149.4010 C   0  0  0  0  0  2  0  0  0  0  0  0
  163.7830  214.4530  147.8480 O   0  0  0  0  0  0  0  0  0  0  0  0
  161.3670  211.7090  148.1080 C   0  0  1  0  0  3  0  0  0  0  0  0
  162.4610  212.5180  147.4060 C   0  0  0  0  0  2  0  0  0  0  0  0
  162.7070  213.8420  148.0690 C   0  0  0  0  0  0  0  0  0  0  0  0
  161.7320  203.1470  151.6210 C   0  0  0  0  0  2  0  0  0  0  0  0
  160.9320  201.8540  151.4870 C   0  0  0  0  0  2  0  0  0  0  0  0
  159.7430  201.3480  149.3470 C   0  0  0  0  0  1  0  0  0  0  0  0
  161.0650  201.2600  150.0920 C   0  0  0  0  0  2  0  0  0  0  0  0
  160.6240  205.2210  149.0960 C   0  0  0  0  0  2  0  0  0  0  0  0
  161.3920  203.8740  147.1420 C   0  0  2  0  0  3  0  0  0  0  0  0
  161.5730  205.1990  147.9110 C   0  0  1  0  0  3  0  0  0  0  0  0
  162.5170  202.6450  147.7700 Cl  0  0  0  0  0  0  0  0  0  0  0  0
  160.3880  207.3720  145.0900 F   0  0  0  0  0  0  0  0  0  0  0  0
  161.3750  206.4700  147.0600 C   0  0  0  0  0  2  0  0  0  0  0  0
  160.5010  206.2130  145.8350 C   0  0  2  0  0  3  0  0  0  0  0  0
  161.5690  204.0150  145.6540 C   0  0  0  0  0  3  0  0  0  0  0  0
  161.3480  205.2600  143.2870 Cl  0  0  0  0  0  0  0  0  0  0  0  0
  161.1170  205.1060  145.0240 C   0  0  0  0  0  0  0  0  0  0  0  0
  1  7  1  0  0  0  0
  1  4  2  0  0  0  0
  2 13  1  6  0  0  0
  2 10  1  0  0  0  0
  3  8  1  1  0  0  0
  3  1  1  0  0  0  0
  5 27  1  6  0  0  0
  5  3  1  0  0  0  0
  5  9  1  0  0  0  0
  6  4  1  0  0  0  0
  8  2  1  0  0  0  0
  9 11  1  6  0  0  0
  9 23  1  0  0  0  0
  9  7  1  0  0  0  0
 10  6  1  0  0  0  0
 12 13  1  0  0  0  0
 14 13  2  0  0  0  0
 15 18  1  0  0  0  0
 17 16  1  6  0  0  0
 17 18  1  0  0  0  0
 19 22  2  0  0  0  0
 20 17  1  0  0  0  0
 20 12  1  1  0  0  0
 21 22  1  0  0  0  0
 21 20  1  0  0  0  0
 22 15  1  0  0  0  0
 24 23  1  0  0  0  0
 25 26  1  0  0  0  0
 26 24  1  0  0  0  0
 28 30  1  1  0  0  0
 28 29  1  0  0  0  0
 29 27  1  1  0  0  0
 32 29  1  0  0  0  0
 33 31  1  6  0  0  0
 33 32  1  0  0  0  0
 34 28  1  0  0  0  0
 35 36  1  0  0  0  0
 36 34  2  0  0  0  0
 36 33  1  0  0  0  0
M  END
>  <MODEL>
2

>  <REMARK>
 VINA RESULT:      -6.0      3.779      7.463
  Name = 
  7 active torsions:
  status: ('A' for Active; 'I' for Inactive)
    1  A    between atoms: C_3  and  C_16
    2  A    between atoms: C_6  and  C_23
    3  A    between atoms: C_6  and  C_28
    4  A    between atoms: N_8  and  C_20
    5  A    between atoms: C_9  and  C_31
    6  A    between atoms: C_18  and  C_31
    7  A    between atoms: C_28  and  C_30
                            x       y       z     vdW  Elec       q    Type
                         _______ _______ _______ _____ _____    ______ ____

>  <TORSDO>
F 7

$$$$
=
 OpenBabel11072413333D

 36 39  0  0  1  0  0  0  0  0999 V2000
  161.8290  205.1820  149.0860 C   0  0  0  0  0  0  0  0  0  0  0  0
  161.3480  208.2250  148.2030 C   0  0  2  0  0  3  0  0  0  0  0  0
  161.6890  206.4080  149.9150 C   0  0  2  0  0  3  0  0  0  0  0  0
  161.9670  205.1540  147.7910 N   0  0  0  0  0  0  0  0  0  0  0  0
  161.2030  205.8600  151.2450 C   0  0  1  0  0  3  0  0  0  0  0  0
  161.8760  206.3120  146.8930 C   0  0  0  0  0  2  0  0  0  0  0  0
  161.7880  203.9990  149.8580 N   0  0  0  0  0  2  0  0  0  0  0  0
  160.6890  207.3810  149.3080 C   0  0  0  0  0  2  0  0  0  0  0  0
  161.5660  204.3550  151.2520 C   0  0  1  0  0  0  0  0  0  0  0  0
  162.4300  207.5130  147.5120 N   0  0  0  0  0  2  0  0  0  0  0  0
  162.7380  204.1160  151.9800 O   0  0  0  0  0  1  0  0  0  0  0  0
  161.5820  210.7440  148.1550 N   0  0  0  0  0  2  0  0  0  0  0  0
  161.8720  209.4950  148.7870 C   0  0  0  0  0  0  0  0  0  0  0  0
  162.5940  209.4500  149.8200 O   0  0  0  0  0  0  0  0  0  0  0  0
  160.8370  213.8190  146.8130 O   0  0  0  0  0  0  0  0  0  0  0  0
  163.5300  213.8350  147.9890 F   0  0  0  0  0  0  0  0  0  0  0  0
  162.8980  212.7030  147.5070 C   0  0  2  0  0  3  0  0  0  0  0  0
  161.9640  213.0710  146.3560 C   0  0  0  0  0  2  0  0  0  0  0  0
  159.0980  214.0660  148.2910 O   0  0  0  0  0  0  0  0  0  0  0  0
  162.1160  212.0140  148.6270 C   0  0  1  0  0  3  0  0  0  0  0  0
  160.9940  212.9080  149.1590 C   0  0  0  0  0  2  0  0  0  0  0  0
  160.2410  213.5970  148.0590 C   0  0  0  0  0  0  0  0  0  0  0  0
  160.3950  203.5570  151.8280 C   0  0  0  0  0  2  0  0  0  0  0  0
  160.4790  202.0650  151.5180 C   0  0  0  0  0  2  0  0  0  0  0  0
  161.0370  200.9020  149.3770 C   0  0  0  0  0  1  0  0  0  0  0  0
  160.0160  201.7650  150.0990 C   0  0  0  0  0  2  0  0  0  0  0  0
  161.7990  206.6560  152.4030 C   0  0  0  0  0  2  0  0  0  0  0  0
  161.0940  207.7420  154.5360 C   0  0  2  0  0  3  0  0  0  0  0  0
  160.7460  207.5420  153.0460 C   0  0  1  0  0  3  0  0  0  0  0  0
  160.3050  206.4860  155.5210 Cl  0  0  0  0  0  0  0  0  0  0  0  0
  161.1680  211.1570  152.1300 F   0  0  0  0  0  0  0  0  0  0  0  0
  160.6000  208.8480  152.2380 C   0  0  0  0  0  2  0  0  0  0  0  0
  161.3650  210.0070  152.8720 C   0  0  2  0  0  3  0  0  0  0  0  0
  160.7290  209.1060  155.0590 C   0  0  0  0  0  3  0  0  0  0  0  0
  160.4410  211.7690  154.9110 Cl  0  0  0  0  0  0  0  0  0  0  0  0
  160.8880  210.1860  154.2880 C   0  0  0  0  0  0  0  0  0  0  0  0
  1  7  1  0  0  0  0
  1  3  1  0  0  0  0
  2 13  1  1  0  0  0
  2  8  1  0  0  0  0
  3  8  1  6  0  0  0
  3  5  1  0  0  0  0
  4  1  2  0  0  0  0
  5  9  1  0  0  0  0
  5 27  1  1  0  0  0
  6 10  1  0  0  0  0
  6  4  1  0  0  0  0
  7  9  1  0  0  0  0
  9 23  1  0  0  0  0
  9 11  1  1  0  0  0
 10  2  1  0  0  0  0
 12 13  1  0  0  0  0
 13 14  2  0  0  0  0
 15 22  1  0  0  0  0
 17 16  1  1  0  0  0
 17 20  1  0  0  0  0
 18 15  1  0  0  0  0
 18 17  1  0  0  0  0
 20 12  1  6  0  0  0
 20 21  1  0  0  0  0
 22 19  2  0  0  0  0
 22 21  1  0  0  0  0
 24 23  1  0  0  0  0
 25 26  1  0  0  0  0
 26 24  1  0  0  0  0
 28 34  1  0  0  0  0
 28 30  1  1  0  0  0
 29 27  1  6  0  0  0
 29 28  1  0  0  0  0
 32 33  1  0  0  0  0
 32 29  1  0  0  0  0
 33 31  1  6  0  0  0
 33 36  1  0  0  0  0
 36 35  1  0  0  0  0
 36 34  2  0  0  0  0
M  END
>  <MODEL>
3

>  <REMARK>
 VINA RESULT:      -5.9      3.506      6.911
  Name = 
  7 active torsions:
  status: ('A' for Active; 'I' for Inactive)
    1  A    between atoms: C_3  and  C_16
    2  A    between atoms: C_6  and  C_23
    3  A    between atoms: C_6  and  C_28
    4  A    between atoms: N_8  and  C_20
    5  A    between atoms: C_9  and  C_31
    6  A    between atoms: C_18  and  C_31
    7  A    between atoms: C_28  and  C_30
                            x       y       z     vdW  Elec       q    Type
                         _______ _______ _______ _____ _____    ______ ____

>  <TORSDO>
F 7

$$$$
=
 OpenBabel11072413333D

 36 39  0  0  1  0  0  0  0  0999 V2000
  160.6670  207.0530  154.8180 C   0  0  0  0  0  0  0  0  0  0  0  0
  160.8160  210.1480  155.6380 C   0  0  2  0  0  3  0  0  0  0  0  0
  160.7780  208.2650  153.9640 C   0  0  2  0  0  3  0  0  0  0  0  0
  160.4160  207.0470  156.0960 N   0  0  0  0  0  0  0  0  0  0  0  0
  161.4240  207.7250  152.6990 C   0  0  1  0  0  3  0  0  0  0  0  0
  160.3320  208.2310  156.9590 C   0  0  0  0  0  2  0  0  0  0  0  0
  160.8720  205.8580  154.0910 N   0  0  0  0  0  2  0  0  0  0  0  0
  161.6380  209.3330  154.6230 C   0  0  0  0  0  2  0  0  0  0  0  0
  161.1870  206.1950  152.7110 C   0  0  1  0  0  0  0  0  0  0  0  0
  159.7390  209.3640  156.2560 N   0  0  0  0  0  2  0  0  0  0  0  0
  160.1080  205.8400  151.8920 O   0  0  0  0  0  1  0  0  0  0  0  0
  159.0380  211.9390  155.4660 N   0  0  0  0  0  2  0  0  0  0  0  0
  160.2440  211.3520  154.9690 C   0  0  0  0  0  0  0  0  0  0  0  0
  160.8160  211.8280  153.9510 O   0  0  0  0  0  0  0  0  0  0  0  0
  155.6390  212.4210  155.3010 O   0  0  0  0  0  0  0  0  0  0  0  0
  156.9670  213.6560  152.9890 F   0  0  0  0  0  0  0  0  0  0  0  0
  157.4760  212.5820  153.6960 C   0  0  2  0  0  3  0  0  0  0  0  0
  156.3360  211.7360  154.2600 C   0  0  0  0  0  2  0  0  0  0  0  0
  155.6950  213.6300  157.2510 O   0  0  0  0  0  0  0  0  0  0  0  0
  158.3840  213.0710  154.8250 C   0  0  1  0  0  3  0  0  0  0  0  0
  157.6070  213.8990  155.8520 C   0  0  0  0  0  2  0  0  0  0  0  0
  156.2810  213.2850  156.1930 C   0  0  0  0  0  0  0  0  0  0  0  0
  162.4660  205.4850  152.2650 C   0  0  0  0  0  2  0  0  0  0  0  0
  162.2300  204.4810  151.1400 C   0  0  0  0  0  2  0  0  0  0  0  0
  160.7770  202.5370  150.5440 C   0  0  0  0  0  1  0  0  0  0  0  0
  161.5600  203.2150  151.6560 C   0  0  0  0  0  2  0  0  0  0  0  0
  160.8700  208.4380  151.4680 C   0  0  0  0  0  2  0  0  0  0  0  0
  161.8140  208.7460  149.1790 C   0  0  2  0  0  3  0  0  0  0  0  0
  161.9890  209.0880  150.6730 C   0  0  1  0  0  3  0  0  0  0  0  0
  162.7120  207.2590  148.7850 Cl  0  0  0  0  0  0  0  0  0  0  0  0
  161.4640  212.7770  150.2210 F   0  0  0  0  0  0  0  0  0  0  0  0
  162.0420  210.5980  150.9860 C   0  0  0  0  0  2  0  0  0  0  0  0
  161.3530  211.4340  149.9100 C   0  0  2  0  0  3  0  0  0  0  0  0
  162.2360  209.8580  148.2560 C   0  0  0  0  0  3  0  0  0  0  0  0
  162.5030  212.4160  147.4960 Cl  0  0  0  0  0  0  0  0  0  0  0  0
  161.9890  211.1310  148.5800 C   0  0  0  0  0  0  0  0  0  0  0  0
  1  4  2  0  0  0  0
  2 13  1  6  0  0  0
  2 10  1  0  0  0  0
  3  8  1  1  0  0  0
  3  1  1  0  0  0  0
  4  6  1  0  0  0  0
  5 27  1  6  0  0  0
  5  9  1  0  0  0  0
  5  3  1  0  0  0  0
  7  1  1  0  0  0  0
  8  2  1  0  0  0  0
  9 11  1  6  0  0  0
  9  7  1  0  0  0  0
 10  6  1  0  0  0  0
 13 12  1  0  0  0  0
 14 13  2  0  0  0  0
 15 22  1  0  0  0  0
 17 16  1  1  0  0  0
 17 18  1  0  0  0  0
 17 20  1  0  0  0  0
 18 15  1  0  0  0  0
 20 12  1  1  0  0  0
 20 21  1  0  0  0  0
 21 22  1  0  0  0  0
 22 19  2  0  0  0  0
 23  9  1  0  0  0  0
 24 26  1  0  0  0  0
 24 23  1  0  0  0  0
 25 26  1  0  0  0  0
 28 30  1  6  0  0  0
 28 29  1  0  0  0  0
 29 32  1  0  0  0  0
 29 27  1  1  0  0  0
 33 31  1  1  0  0  0
 33 32  1  0  0  0  0
 34 36  2  0  0  0  0
 34 28  1  0  0  0  0
 35 36  1  0  0  0  0
 36 33  1  0  0  0  0
M  END
>  <MODEL>
4

>  <REMARK>
 VINA RESULT:      -5.3      3.444      7.825
  Name = 
  7 active torsions:
  status: ('A' for Active; 'I' for Inactive)
    1  A    between atoms: C_3  and  C_16
    2  A    between atoms: C_6  and  C_23
    3  A    between atoms: C_6  and  C_28
    4  A    between atoms: N_8  and  C_20
    5  A    between atoms: C_9  and  C_31
    6  A    between atoms: C_18  and  C_31
    7  A    between atoms: C_28  and  C_30
                            x       y       z     vdW  Elec       q    Type
                         _______ _______ _______ _____ _____    ______ ____

>  <TORSDO>
F 7

$$$$
=
 OpenBabel11072413333D

 36 39  0  0  1  0  0  0  0  0999 V2000
  160.9950  205.3200  152.7290 C   0  0  0  0  0  0  0  0  0  0  0  0
  161.6990  208.4320  153.0330 C   0  0  2  0  0  3  0  0  0  0  0  0
  160.8820  206.4280  151.7430 C   0  0  2  0  0  3  0  0  0  0  0  0
  161.2390  205.4590  154.0000 N   0  0  0  0  0  0  0  0  0  0  0  0
  160.9630  205.7010  150.4120 C   0  0  1  0  0  3  0  0  0  0  0  0
  161.5820  206.7170  154.6760 C   0  0  0  0  0  2  0  0  0  0  0  0
  160.8140  204.0500  152.1370 N   0  0  0  0  0  2  0  0  0  0  0  0
  162.0120  207.4340  151.9050 C   0  0  0  0  0  2  0  0  0  0  0  0
  160.6200  204.2200  150.7050 C   0  0  1  0  0  0  0  0  0  0  0  0
  160.8680  207.8480  154.0940 N   0  0  0  0  0  2  0  0  0  0  0  0
  159.2890  203.9320  150.3830 O   0  0  0  0  0  1  0  0  0  0  0  0
  160.3810  210.5700  153.3390 N   0  0  0  0  0  2  0  0  0  0  0  0
  161.0220  209.6350  152.4670 C   0  0  0  0  0  0  0  0  0  0  0  0
  160.9970  209.8020  151.2180 O   0  0  0  0  0  0  0  0  0  0  0  0
  158.0730  212.3440  155.1660 O   0  0  0  0  0  0  0  0  0  0  0  0
  157.4410  212.4810  152.3000 F   0  0  0  0  0  0  0  0  0  0  0  0
  158.1400  211.4460  152.8940 C   0  0  2  0  0  3  0  0  0  0  0  0
  157.6720  211.2550  154.3360 C   0  0  0  0  0  2  0  0  0  0  0  0
  159.7170  213.7700  155.8970 O   0  0  0  0  0  0  0  0  0  0  0  0
  159.6430  211.7280  152.8540 C   0  0  1  0  0  3  0  0  0  0  0  0
  160.0000  212.9750  153.6660 C   0  0  0  0  0  2  0  0  0  0  0  0
  159.2810  213.0260  154.9820 C   0  0  0  0  0  0  0  0  0  0  0  0
  161.5770  203.3190  149.9240 C   0  0  0  0  0  2  0  0  0  0  0  0
  161.2130  201.8390  150.0180 C   0  0  0  0  0  2  0  0  0  0  0  0
  161.5820  200.5720  147.8950 C   0  0  0  0  0  1  0  0  0  0  0  0
  160.5720  201.3420  148.7290 C   0  0  0  0  0  2  0  0  0  0  0  0
  160.0530  206.3660  149.3820 C   0  0  0  0  0  2  0  0  0  0  0  0
  162.2980  206.7210  148.3530 C   0  0  2  0  0  3  0  0  0  0  0  0
  160.7880  206.5770  148.0700 C   0  0  1  0  0  3  0  0  0  0  0  0
  162.7140  208.4350  148.5930 Cl  0  0  0  0  0  0  0  0  0  0  0  0
  161.1320  203.4010  146.0990 F   0  0  0  0  0  0  0  0  0  0  0  0
  160.4230  205.4510  147.0810 C   0  0  0  0  0  2  0  0  0  0  0  0
  161.4910  204.3620  147.0260 C   0  0  2  0  0  3  0  0  0  0  0  0
  163.1690  206.1300  147.2760 C   0  0  0  0  0  3  0  0  0  0  0  0
  163.8310  204.3280  145.4020 Cl  0  0  0  0  0  0  0  0  0  0  0  0
  162.8090  204.9940  146.6690 C   0  0  0  0  0  0  0  0  0  0  0  0
  1  4  2  0  0  0  0
  2 13  1  6  0  0  0
  2 10  1  0  0  0  0
  3  8  1  1  0  0  0
  3  1  1  0  0  0  0
  4  6  1  0  0  0  0
  5 27  1  6  0  0  0
  5  9  1  0  0  0  0
  5  3  1  0  0  0  0
  7  1  1  0  0  0  0
  8  2  1  0  0  0  0
  9 11  1  6  0  0  0
  9  7  1  0  0  0  0
 10  6  1  0  0  0  0
 13 12  1  0  0  0  0
 14 13  2  0  0  0  0
 17 16  1  1  0  0  0
 17 18  1  0  0  0  0
 18 15  1  0  0  0  0
 20 17  1  0  0  0  0
 20 12  1  1  0  0  0
 20 21  1  0  0  0  0
 21 22  1  0  0  0  0
 22 15  1  0  0  0  0
 22 19  2  0  0  0  0
 23 24  1  0  0  0  0
 23  9  1  0  0  0  0
 25 26  1  0  0  0  0
 26 24  1  0  0  0  0
 28 30  1  6  0  0  0
 29 28  1  0  0  0  0
 29 27  1  1  0  0  0
 32 29  1  0  0  0  0
 33 31  1  6  0  0  0
 33 32  1  0  0  0  0
 34 28  1  0  0  0  0
 35 36  1  0  0  0  0
 36 33  1  0  0  0  0
 36 34  2  0  0  0  0
M  END
>  <MODEL>
5

>  <REMARK>
 VINA RESULT:      -5.1      3.292      8.233
  Name = 
  7 active torsions:
  status: ('A' for Active; 'I' for Inactive)
    1  A    between atoms: C_3  and  C_16
    2  A    between atoms: C_6  and  C_23
    3  A    between atoms: C_6  and  C_28
    4  A    between atoms: N_8  and  C_20
    5  A    between atoms: C_9  and  C_31
    6  A    between atoms: C_18  and  C_31
    7  A    between atoms: C_28  and  C_30
                            x       y       z     vdW  Elec       q    Type
                         _______ _______ _______ _____ _____    ______ ____

>  <TORSDO>
F 7

$$$$
=
 OpenBabel11072413333D

 36 39  0  0  1  0  0  0  0  0999 V2000
  160.2570  212.6430  149.9380 C   0  0  0  0  0  0  0  0  0  0  0  0
  162.4160  210.3720  149.2660 C   0  0  2  0  0  3  0  0  0  0  0  0
  160.6080  211.4050  150.6840 C   0  0  2  0  0  3  0  0  0  0  0  0
  160.6550  212.9410  148.7350 N   0  0  0  0  0  0  0  0  0  0  0  0
  160.1980  211.7440  152.1070 C   0  0  1  0  0  3  0  0  0  0  0  0
  161.6310  212.1840  147.9410 C   0  0  0  0  0  2  0  0  0  0  0  0
  159.4240  213.5060  150.6850 N   0  0  0  0  0  2  0  0  0  0  0  0
  162.0950  211.0970  150.5840 C   0  0  0  0  0  2  0  0  0  0  0  0
  159.2050  212.9270  152.0020 C   0  0  1  0  0  0  0  0  0  0  0  0
  161.5090  210.7480  148.1750 N   0  0  0  0  0  2  0  0  0  0  0  0
  157.8790  212.4880  152.0970 O   0  0  0  0  0  1  0  0  0  0  0  0
  162.2910  208.0150  148.3550 N   0  0  0  0  0  2  0  0  0  0  0  0
  162.3640  208.8960  149.4790 C   0  0  0  0  0  0  0  0  0  0  0  0
  162.3560  208.4390  150.6550 O   0  0  0  0  0  0  0  0  0  0  0  0
  160.5430  205.9790  146.2080 O   0  0  0  0  0  0  0  0  0  0  0  0
  160.5820  204.8300  148.9130 F   0  0  0  0  0  0  0  0  0  0  0  0
  160.6960  206.1810  148.6400 C   0  0  2  0  0  3  0  0  0  0  0  0
  159.9210  206.5290  147.3690 C   0  0  0  0  0  2  0  0  0  0  0  0
  162.4350  205.6450  144.9520 O   0  0  0  0  0  0  0  0  0  0  0  0
  162.1680  206.5690  148.4890 C   0  0  1  0  0  3  0  0  0  0  0  0
  162.8160  205.8600  147.2970 C   0  0  0  0  0  2  0  0  0  0  0  0
  161.9320  205.8570  146.0840 C   0  0  0  0  0  0  0  0  0  0  0  0
  159.5210  213.9470  153.0960 C   0  0  0  0  0  2  0  0  0  0  0  0
  158.2750  214.4520  153.8190 C   0  0  0  0  0  2  0  0  0  0  0  0
  156.8100  212.8560  155.0660 C   0  0  0  0  0  1  0  0  0  0  0  0
  158.0600  213.7170  155.1340 C   0  0  0  0  0  2  0  0  0  0  0  0
  159.6370  210.5110  152.8110 C   0  0  0  0  0  2  0  0  0  0  0  0
  159.9510  210.3640  155.2820 C   0  0  2  0  0  3  0  0  0  0  0  0
  160.5770  210.0430  153.9080 C   0  0  1  0  0  3  0  0  0  0  0  0
  160.4810  211.9710  155.8340 Cl  0  0  0  0  0  0  0  0  0  0  0  0
  160.4860  206.3200  154.3760 F   0  0  0  0  0  0  0  0  0  0  0  0
  160.9310  208.5570  153.6930 C   0  0  0  0  0  2  0  0  0  0  0  0
  160.1020  207.6320  154.5810 C   0  0  2  0  0  3  0  0  0  0  0  0
  160.2590  209.3340  156.3360 C   0  0  0  0  0  3  0  0  0  0  0  0
  160.6740  206.8500  157.2600 Cl  0  0  0  0  0  0  0  0  0  0  0  0
  160.2970  208.0360  156.0170 C   0  0  0  0  0  0  0  0  0  0  0  0
  1  3  1  0  0  0  0
  1  7  1  0  0  0  0
  2 13  1  1  0  0  0
  2  8  1  0  0  0  0
  3  8  1  1  0  0  0
  3  5  1  0  0  0  0
  4  1  2  0  0  0  0
  5 27  1  6  0  0  0
  6 10  1  0  0  0  0
  6  4  1  0  0  0  0
  7  9  1  0  0  0  0
  9 11  1  1  0  0  0
  9  5  1  0  0  0  0
  9 23  1  0  0  0  0
 10  2  1  0  0  0  0
 12 13  1  0  0  0  0
 13 14  2  0  0  0  0
 15 18  1  0  0  0  0
 17 16  1  6  0  0  0
 18 17  1  0  0  0  0
 19 22  2  0  0  0  0
 20 12  1  6  0  0  0
 20 17  1  0  0  0  0
 21 20  1  0  0  0  0
 22 15  1  0  0  0  0
 22 21  1  0  0  0  0
 23 24  1  0  0  0  0
 24 26  1  0  0  0  0
 25 26  1  0  0  0  0
 28 30  1  1  0  0  0
 28 34  1  0  0  0  0
 29 27  1  6  0  0  0
 29 28  1  0  0  0  0
 32 29  1  0  0  0  0
 32 33  1  0  0  0  0
 33 31  1  1  0  0  0
 33 36  1  0  0  0  0
 36 34  2  0  0  0  0
 36 35  1  0  0  0  0
M  END
>  <MODEL>
6

>  <REMARK>
 VINA RESULT:      -4.5      3.452      5.380
  Name = 
  7 active torsions:
  status: ('A' for Active; 'I' for Inactive)
    1  A    between atoms: C_3  and  C_16
    2  A    between atoms: C_6  and  C_23
    3  A    between atoms: C_6  and  C_28
    4  A    between atoms: N_8  and  C_20
    5  A    between atoms: C_9  and  C_31
    6  A    between atoms: C_18  and  C_31
    7  A    between atoms: C_28  and  C_30
                            x       y       z     vdW  Elec       q    Type
                         _______ _______ _______ _____ _____    ______ ____

>  <TORSDO>
F 7

$$$$
=
 OpenBabel11072413333D

 36 39  0  0  1  0  0  0  0  0999 V2000
  161.0190  205.1030  153.2310 C   0  0  0  0  0  0  0  0  0  0  0  0
  160.7010  204.5350  150.0930 C   0  0  2  0  0  3  0  0  0  0  0  0
  161.1610  206.0240  152.0720 C   0  0  2  0  0  3  0  0  0  0  0  0
  160.9150  203.8070  153.1600 N   0  0  0  0  0  0  0  0  0  0  0  0
  160.8720  207.3830  152.6870 C   0  0  1  0  0  3  0  0  0  0  0  0
  160.7810  203.0230  151.9260 C   0  0  0  0  0  2  0  0  0  0  0  0
  161.0000  205.7880  154.4670 N   0  0  0  0  0  2  0  0  0  0  0  0
  160.1710  205.6850  150.9670 C   0  0  0  0  0  2  0  0  0  0  0  0
  161.0730  207.2190  154.2140 C   0  0  1  0  0  0  0  0  0  0  0  0
  161.5590  203.6040  150.8370 N   0  0  0  0  0  2  0  0  0  0  0  0
  162.3280  207.6930  154.6160 O   0  0  0  0  0  1  0  0  0  0  0  0
  161.8570  204.2300  147.8630 N   0  0  0  0  0  2  0  0  0  0  0  0
  161.4500  205.0920  148.9290 C   0  0  0  0  0  0  0  0  0  0  0  0
  161.7450  206.3180  148.9110 O   0  0  0  0  0  0  0  0  0  0  0  0
  160.7390  204.4210  144.6190 O   0  0  0  0  0  0  0  0  0  0  0  0
  163.6390  203.9530  144.6820 F   0  0  0  0  0  0  0  0  0  0  0  0
  162.7690  203.5770  145.6880 C   0  0  2  0  0  3  0  0  0  0  0  0
  161.3960  203.2490  145.1020 C   0  0  0  0  0  2  0  0  0  0  0  0
  160.0680  206.5900  144.9560 O   0  0  0  0  0  0  0  0  0  0  0  0
  162.6500  204.6890  146.7310 C   0  0  1  0  0  3  0  0  0  0  0  0
  162.0460  205.9610  146.1290 C   0  0  0  0  0  2  0  0  0  0  0  0
  160.8780  205.6700  145.2340 C   0  0  0  0  0  0  0  0  0  0  0  0
  159.9520  207.9520  154.9500 C   0  0  0  0  0  2  0  0  0  0  0  0
  160.4000  208.5410  156.2850 C   0  0  0  0  0  2  0  0  0  0  0  0
  161.7030  210.6740  156.2900 C   0  0  0  0  0  1  0  0  0  0  0  0
  160.3130  210.0610  156.2790 C   0  0  0  0  0  2  0  0  0  0  0  0
  161.7480  208.4570  152.0480 C   0  0  0  0  0  2  0  0  0  0  0  0
  160.7350  210.7290  151.8550 C   0  0  2  0  0  3  0  0  0  0  0  0
  160.9210  209.3660  151.1560 C   0  0  1  0  0  3  0  0  0  0  0  0
  159.2450  210.7170  152.8290 Cl  0  0  0  0  0  0  0  0  0  0  0  0
  162.9100  210.7460  148.2870 F   0  0  0  0  0  0  0  0  0  0  0  0
  161.5610  209.4430  149.7550 C   0  0  0  0  0  2  0  0  0  0  0  0
  162.3940  210.7100  149.5690 C   0  0  2  0  0  3  0  0  0  0  0  0
  160.7130  211.8940  150.9010 C   0  0  0  0  0  3  0  0  0  0  0  0
  161.4690  213.2680  148.7250 Cl  0  0  0  0  0  0  0  0  0  0  0  0
  161.5210  211.9060  149.8360 C   0  0  0  0  0  0  0  0  0  0  0  0
  1  7  1  0  0  0  0
  2 13  1  6  0  0  0
  2 10  1  0  0  0  0
  2  8  1  0  0  0  0
  3  8  1  6  0  0  0
  3  5  1  0  0  0  0
  3  1  1  0  0  0  0
  4  1  2  0  0  0  0
  5 27  1  6  0  0  0
  5  9  1  0  0  0  0
  6  4  1  0  0  0  0
  9  7  1  0  0  0  0
  9 11  1  1  0  0  0
  9 23  1  0  0  0  0
 10  6  1  0  0  0  0
 12 13  1  0  0  0  0
 14 13  2  0  0  0  0
 15 18  1  0  0  0  0
 15 22  1  0  0  0  0
 17 16  1  6  0  0  0
 17 20  1  0  0  0  0
 18 17  1  0  0  0  0
 19 22  2  0  0  0  0
 20 12  1  1  0  0  0
 21 20  1  0  0  0  0
 22 21  1  0  0  0  0
 23 24  1  0  0  0  0
 26 24  1  0  0  0  0
 26 25  1  0  0  0  0
 28 30  1  6  0  0  0
 29 28  1  0  0  0  0
 29 27  1  1  0  0  0
 32 29  1  0  0  0  0
 33 31  1  6  0  0  0
 33 32  1  0  0  0  0
 33 36  1  0  0  0  0
 34 28  1  0  0  0  0
 35 36  1  0  0  0  0
 36 34  2  0  0  0  0
M  END
>  <MODEL>
7

>  <REMARK>
 VINA RESULT:      -4.0      1.656      2.158
  Name = 
  7 active torsions:
  status: ('A' for Active; 'I' for Inactive)
    1  A    between atoms: C_3  and  C_16
    2  A    between atoms: C_6  and  C_23
    3  A    between atoms: C_6  and  C_28
    4  A    between atoms: N_8  and  C_20
    5  A    between atoms: C_9  and  C_31
    6  A    between atoms: C_18  and  C_31
    7  A    between atoms: C_28  and  C_30
                            x       y       z     vdW  Elec       q    Type
                         _______ _______ _______ _____ _____    ______ ____

>  <TORSDO>
F 7

$$$$
=
 OpenBabel11072413333D

 36 39  0  0  1  0  0  0  0  0999 V2000
  160.3850  212.4150  150.5770 C   0  0  0  0  0  0  0  0  0  0  0  0
  162.4610  210.0380  150.0170 C   0  0  2  0  0  3  0  0  0  0  0  0
  160.5360  211.0980  151.2500 C   0  0  2  0  0  3  0  0  0  0  0  0
  160.9780  212.7750  149.4750 N   0  0  0  0  0  0  0  0  0  0  0  0
  159.9430  211.3540  152.6240 C   0  0  1  0  0  3  0  0  0  0  0  0
  162.0070  212.0070  148.7630 C   0  0  0  0  0  2  0  0  0  0  0  0
  159.5110  213.2810  151.2720 N   0  0  0  0  0  2  0  0  0  0  0  0
  161.9960  210.6800  151.3360 C   0  0  0  0  0  2  0  0  0  0  0  0
  159.0590  212.6180  152.4860 C   0  0  1  0  0  0  0  0  0  0  0  0
  161.7540  210.5720  148.8450 N   0  0  0  0  0  2  0  0  0  0  0  0
  157.7070  212.2810  152.3510 O   0  0  0  0  0  1  0  0  0  0  0  0
  162.2540  207.7860  148.8830 N   0  0  0  0  0  2  0  0  0  0  0  0
  162.2770  208.5590  150.0860 C   0  0  0  0  0  0  0  0  0  0  0  0
  162.1130  208.0060  151.2070 O   0  0  0  0  0  0  0  0  0  0  0  0
  160.6810  206.0780  146.3490 O   0  0  0  0  0  0  0  0  0  0  0  0
  160.2600  204.7200  148.9210 F   0  0  0  0  0  0  0  0  0  0  0  0
  160.5070  206.0740  148.7870 C   0  0  2  0  0  3  0  0  0  0  0  0
  159.9440  206.5840  147.4620 C   0  0  0  0  0  2  0  0  0  0  0  0
  162.7000  205.6870  145.3300 O   0  0  0  0  0  0  0  0  0  0  0  0
  162.0100  206.3500  148.8680 C   0  0  1  0  0  3  0  0  0  0  0  0
  162.7650  205.6850  147.7140 C   0  0  0  0  0  2  0  0  0  0  0  0
  162.0600  205.8510  146.4000 C   0  0  0  0  0  0  0  0  0  0  0  0
  159.2780  213.5200  153.7020 C   0  0  0  0  0  2  0  0  0  0  0  0
  157.9990  214.2080  154.1720 C   0  0  0  0  0  2  0  0  0  0  0  0
  156.4960  212.9170  155.6960 C   0  0  0  0  0  1  0  0  0  0  0  0
  157.6820  213.8630  155.6200 C   0  0  0  0  0  2  0  0  0  0  0  0
  159.2000  210.1180  153.1270 C   0  0  0  0  0  2  0  0  0  0  0  0
  161.0940  208.9530  154.2580 C   0  0  2  0  0  3  0  0  0  0  0  0
  159.7460  209.6720  154.4720 C   0  0  1  0  0  3  0  0  0  0  0  0
  160.8270  207.2050  154.0480 Cl  0  0  0  0  0  0  0  0  0  0  0  0
  161.2080  212.5170  156.4350 F   0  0  0  0  0  0  0  0  0  0  0  0
  159.8040  210.8750  155.4360 C   0  0  0  0  0  2  0  0  0  0  0  0
  161.2060  211.4710  155.5320 C   0  0  2  0  0  3  0  0  0  0  0  0
  162.0820  209.1890  155.3690 C   0  0  0  0  0  3  0  0  0  0  0  0
  163.3140  210.6400  157.2590 Cl  0  0  0  0  0  0  0  0  0  0  0  0
  162.1650  210.3890  155.9520 C   0  0  0  0  0  0  0  0  0  0  0  0
  1  3  1  0  0  0  0
  1  7  1  0  0  0  0
  2 13  1  1  0  0  0
  2  8  1  0  0  0  0
  3  8  1  1  0  0  0
  3  5  1  0  0  0  0
  4  1  2  0  0  0  0
  5 27  1  6  0  0  0
  6 10  1  0  0  0  0
  6  4  1  0  0  0  0
  7  9  1  0  0  0  0
  9 11  1  6  0  0  0
  9  5  1  0  0  0  0
  9 23  1  0  0  0  0
 10  2  1  0  0  0  0
 12 13  1  0  0  0  0
 13 14  2  0  0  0  0
 15 22  1  0  0  0  0
 15 18  1  0  0  0  0
 17 20  1  0  0  0  0
 17 16  1  6  0  0  0
 18 17  1  0  0  0  0
 19 22  2  0  0  0  0
 20 12  1  6  0  0  0
 21 20  1  0  0  0  0
 22 21  1  0  0  0  0
 23 24  1  0  0  0  0
 24 26  1  0  0  0  0
 26 25  1  0  0  0  0
 28 30  1  1  0  0  0
 28 29  1  0  0  0  0
 28 34  1  0  0  0  0
 29 27  1  6  0  0  0
 29 32  1  0  0  0  0
 32 33  1  0  0  0  0
 33 36  1  0  0  0  0
 33 31  1  1  0  0  0
 34 36  2  0  0  0  0
 36 35  1  0  0  0  0
M  END
>  <MODEL>
8

>  <REMARK>
 VINA RESULT:      -3.9      3.408      5.137
  Name = 
  7 active torsions:
  status: ('A' for Active; 'I' for Inactive)
    1  A    between atoms: C_3  and  C_16
    2  A    between atoms: C_6  and  C_23
    3  A    between atoms: C_6  and  C_28
    4  A    between atoms: N_8  and  C_20
    5  A    between atoms: C_9  and  C_31
    6  A    between atoms: C_18  and  C_31
    7  A    between atoms: C_28  and  C_30
                            x       y       z     vdW  Elec       q    Type
                         _______ _______ _______ _____ _____    ______ ____

>  <TORSDO>
F 7

$$$$
=
 OpenBabel11072413333D

 36 39  0  0  1  0  0  0  0  0999 V2000
  161.9290  206.3340  150.4490 C   0  0  0  0  0  0  0  0  0  0  0  0
  161.4820  208.7100  148.3450 C   0  0  2  0  0  3  0  0  0  0  0  0
  161.7850  207.7970  150.6740 C   0  0  2  0  0  3  0  0  0  0  0  0
  162.0870  205.7570  149.2930 N   0  0  0  0  0  0  0  0  0  0  0  0
  161.2750  207.8670  152.1030 C   0  0  1  0  0  3  0  0  0  0  0  0
  162.0180  206.4210  147.9850 C   0  0  0  0  0  2  0  0  0  0  0  0
  161.8690  205.5930  151.6520 N   0  0  0  0  0  2  0  0  0  0  0  0
  160.8010  208.4170  149.6930 C   0  0  0  0  0  2  0  0  0  0  0  0
  161.6280  206.5090  152.7570 C   0  0  1  0  0  0  0  0  0  0  0  0
  162.5700  207.7710  148.0420 N   0  0  0  0  0  2  0  0  0  0  0  0
  162.7870  206.6050  153.5370 O   0  0  0  0  0  1  0  0  0  0  0  0
  161.1410  211.1930  147.9980 N   0  0  0  0  0  2  0  0  0  0  0  0
  162.0060  210.1070  148.3410 C   0  0  0  0  0  0  0  0  0  0  0  0
  163.2200  210.3150  148.6120 O   0  0  0  0  0  0  0  0  0  0  0  0
  159.1210  213.9050  147.3870 O   0  0  0  0  0  0  0  0  0  0  0  0
  161.8350  214.3960  146.3750 F   0  0  0  0  0  0  0  0  0  0  0  0
  161.2750  213.1400  146.5220 C   0  0  2  0  0  3  0  0  0  0  0  0
  159.7620  213.2110  146.3180 C   0  0  0  0  0  2  0  0  0  0  0  0
  158.8220  214.2160  149.6420 O   0  0  0  0  0  0  0  0  0  0  0  0
  161.5990  212.5720  147.9050 C   0  0  1  0  0  3  0  0  0  0  0  0
  160.9830  213.4220  149.0190 C   0  0  0  0  0  2  0  0  0  0  0  0
  159.5740  213.8350  148.7090 C   0  0  0  0  0  0  0  0  0  0  0  0
  160.4430  206.0330  153.5980 C   0  0  0  0  0  2  0  0  0  0  0  0
  160.6890  206.1580  155.0990 C   0  0  0  0  0  2  0  0  0  0  0  0
  160.0750  207.3560  157.2050 C   0  0  0  0  0  1  0  0  0  0  0  0
  159.7390  207.1630  155.7360 C   0  0  0  0  0  2  0  0  0  0  0  0
  161.8590  209.0820  152.8200 C   0  0  0  0  0  2  0  0  0  0  0  0
  161.5200  210.7800  154.6170 C   0  0  2  0  0  3  0  0  0  0  0  0
  160.8350  209.6970  153.7580 C   0  0  1  0  0  3  0  0  0  0  0  0
  162.1310  210.0640  156.1290 Cl  0  0  0  0  0  0  0  0  0  0  0  0
  158.5410  212.0900  151.9960 F   0  0  0  0  0  0  0  0  0  0  0  0
  159.6180  210.1920  152.9490 C   0  0  0  0  0  2  0  0  0  0  0  0
  159.6710  211.6960  152.6890 C   0  0  2  0  0  3  0  0  0  0  0  0
  160.6280  211.9510  154.9300 C   0  0  0  0  0  3  0  0  0  0  0  0
  158.7290  213.7700  154.3990 Cl  0  0  0  0  0  0  0  0  0  0  0  0
  159.7740  212.4110  154.0090 C   0  0  0  0  0  0  0  0  0  0  0  0
  1  3  1  0  0  0  0
  1  7  1  0  0  0  0
  2 13  1  1  0  0  0
  2  8  1  0  0  0  0
  3  8  1  6  0  0  0
  3  5  1  0  0  0  0
  4  1  2  0  0  0  0
  5  9  1  0  0  0  0
  5 27  1  1  0  0  0
  6 10  1  0  0  0  0
  6  4  1  0  0  0  0
  7  9  1  0  0  0  0
  9 11  1  1  0  0  0
  9 23  1  0  0  0  0
 10  2  1  0  0  0  0
 12 13  1  0  0  0  0
 13 14  2  0  0  0  0
 15 22  1  0  0  0  0
 17 16  1  1  0  0  0
 17 20  1  0  0  0  0
 18 17  1  0  0  0  0
 18 15  1  0  0  0  0
 20 12  1  6  0  0  0
 20 21  1  0  0  0  0
 22 21  1  0  0  0  0
 22 19  2  0  0  0  0
 23 24  1  0  0  0  0
 24 26  1  0  0  0  0
 26 25  1  0  0  0  0
 28 34  1  0  0  0  0
 28 30  1  1  0  0  0
 29 27  1  6  0  0  0
 29 28  1  0  0  0  0
 32 29  1  0  0  0  0
 33 31  1  1  0  0  0
 33 32  1  0  0  0  0
 33 36  1  0  0  0  0
 36 35  1  0  0  0  0
 36 34  2  0  0  0  0
M  END
>  <MODEL>
9

>  <REMARK>
 VINA RESULT:      -3.7      3.382      5.897
  Name = 
  7 active torsions:
  status: ('A' for Active; 'I' for Inactive)
    1  A    between atoms: C_3  and  C_16
    2  A    between atoms: C_6  and  C_23
    3  A    between atoms: C_6  and  C_28
    4  A    between atoms: N_8  and  C_20
    5  A    between atoms: C_9  and  C_31
    6  A    between atoms: C_18  and  C_31
    7  A    between atoms: C_28  and  C_30
                            x       y       z     vdW  Elec       q    Type
                         _______ _______ _______ _____ _____    ______ ____

>  <TORSDO>
F 7

$$$$
