=
 OpenBabel11072412393D

 31 34  0  0  1  0  0  0  0  0999 V2000
  161.0630  209.4260  151.4600 C   0  0  0  0  0  0  0  0  0  0  0  0
  162.3920  210.5480  149.7940 C   0  0  2  0  0  3  0  0  0  0  0  0
  162.2590  208.8130  149.2060 S   0  0  0  0  0  0  0  0  0  0  0  0
  161.2830  208.4070  150.6500 C   0  0  0  0  0  0  0  0  0  0  0  0
  161.6470  210.6500  151.0410 N   0  0  0  0  0  2  0  0  0  0  0  0
  161.1360  208.9360  153.8590 C   0  0  1  0  0  3  0  0  0  0  0  0
  161.2620  207.7760  154.4010 N   0  0  0  0  0  2  0  0  0  0  0  0
  160.2120  210.8450  154.5910 N   0  0  0  0  0  0  0  0  0  0  0  0
  160.2690  209.3120  152.7240 C   0  0  1  0  0  3  0  0  0  0  0  0
  161.2810  209.3230  156.1080 N   0  0  0  0  0  0  0  0  0  0  0  0
  161.0630  209.9170  154.8460 C   0  0  0  0  0  0  0  0  0  0  0  0
  159.7780  210.7060  153.1940 C   0  0  0  0  0  2  0  0  0  0  0  0
  161.4320  208.0640  155.8040 C   0  0  0  0  0  3  0  0  0  0  0  0
  161.8190  211.5080  148.7570 C   0  0  2  0  0  3  0  0  0  0  0  0
  162.8530  212.1010  148.0320 O   0  0  0  0  0  1  0  0  0  0  0  0
  161.0120  212.5990  149.4370 C   0  0  0  0  0  1  0  0  0  0  0  0
  160.7790  207.0960  150.9110 N   0  0  0  0  0  2  0  0  0  0  0  0
  161.6490  205.9990  151.2990 C   0  0  0  0  0  2  0  0  0  0  0  0
  161.4530  204.8200  150.3590 C   0  0  1  0  0  3  0  0  0  0  0  0
  160.5440  203.7760  150.9950 C   0  0  0  0  0  2  0  0  0  0  0  0
  160.7560  203.7340  152.3720 O   0  0  0  0  0  1  0  0  0  0  0  0
  160.8900  205.2980  149.0240 C   0  0  0  0  0  2  0  0  0  0  0  0
  161.6630  204.8220  147.9590 O   0  0  0  0  0  0  0  0  0  0  0  0
  163.3350  204.4570  145.9260 O   0  0  0  0  0  1  0  0  0  0  0  0
  160.5190  206.4880  146.7240 C   0  0  0  0  0  2  0  0  0  0  0  0
  160.1020  205.8850  145.5180 O   0  0  0  0  0  0  0  0  0  0  0  0
  161.8630  205.9350  147.1360 C   0  0  2  0  0  3  0  0  0  0  0  0
  160.8880  203.7030  144.9640 C   0  0  0  0  0  1  0  0  0  0  0  0
  161.2050  205.1930  144.9760 C   0  0  0  0  0  0  0  0  0  0  0  0
  161.4350  205.6550  143.5510 C   0  0  0  0  0  1  0  0  0  0  0  0
  162.4340  205.5230  145.8120 C   0  0  2  0  0  3  0  0  0  0  0  0
  2 14  1  6  0  0  0
  2  5  1  0  0  0  0
  3  2  1  0  0  0  0
  3  4  1  0  0  0  0
  4 17  1  0  0  0  0
  4  1  2  0  0  0  0
  5  1  1  0  0  0  0
  6  7  1  1  0  0  0
  6 11  1  0  0  0  0
  7 13  1  0  0  0  0
  8 11  2  0  0  0  0
  9  1  1  6  0  0  0
  9 12  1  0  0  0  0
  9  6  1  0  0  0  0
 11 10  1  0  0  0  0
 12  8  1  0  0  0  0
 13 10  2  0  0  0  0
 14 16  1  1  0  0  0
 15 14  1  0  0  0  0
 17 18  1  0  0  0  0
 19 22  1  6  0  0  0
 19 20  1  0  0  0  0
 19 18  1  0  0  0  0
 20 21  1  0  0  0  0
 23 22  1  0  0  0  0
 25 27  1  0  0  0  0
 26 25  1  0  0  0  0
 27 23  1  1  0  0  0
 28 29  1  0  0  0  0
 29 26  1  0  0  0  0
 29 31  1  0  0  0  0
 30 29  1  0  0  0  0
 31 24  1  1  0  0  0
 31 27  1  0  0  0  0
M  END
>  <MODEL>
1

>  <REMARK>
 VINA RESULT:      -6.9      0.000      0.000
  Name = 
  9 active torsions:
  status: ('A' for Active; 'I' for Inactive)
    1  A    between atoms: C_2  and  C_10
    2  A    between atoms: C_3  and  C_4
    3  A    between atoms: C_3  and  C_18
    4  A    between atoms: C_3  and  C_19
    5  A    between atoms: C_4  and  N_17
    6  A    between atoms: C_8  and  C_25
    7  A    between atoms: C_13  and  O_15
    8  A    between atoms: O_15  and  C_18
    9  A    between atoms: N_17  and  C_30
                            x       y       z     vdW  Elec       q    Type
                         _______ _______ _______ _____ _____    ______ ____

>  <TORSDO>
F 9

$$$$
=
 OpenBabel11072412393D

 31 34  0  0  1  0  0  0  0  0999 V2000
  160.2310  210.5370  154.0900 C   0  0  0  0  0  0  0  0  0  0  0  0
  159.8990  208.5910  155.4690 C   0  0  2  0  0  3  0  0  0  0  0  0
  160.8810  207.9950  154.0360 S   0  0  0  0  0  0  0  0  0  0  0  0
  160.8650  209.6480  153.3490 C   0  0  0  0  0  0  0  0  0  0  0  0
  159.6740  210.0180  155.2880 N   0  0  0  0  0  2  0  0  0  0  0  0
  158.9170  212.1890  152.8470 C   0  0  1  0  0  3  0  0  0  0  0  0
  158.8930  212.3450  151.5700 N   0  0  0  0  0  2  0  0  0  0  0  0
  158.5170  213.6030  154.5430 N   0  0  0  0  0  0  0  0  0  0  0  0
  160.1000  211.9790  153.7080 C   0  0  1  0  0  3  0  0  0  0  0  0
  157.3450  213.8030  152.4560 N   0  0  0  0  0  0  0  0  0  0  0  0
  158.0550  213.0990  153.4550 C   0  0  0  0  0  0  0  0  0  0  0  0
  159.7100  212.8410  154.9350 C   0  0  0  0  0  2  0  0  0  0  0  0
  157.8390  213.3060  151.3570 C   0  0  0  0  0  3  0  0  0  0  0  0
  160.6470  208.3360  156.7730 C   0  0  2  0  0  3  0  0  0  0  0  0
  162.0180  208.5020  156.5770 O   0  0  0  0  0  1  0  0  0  0  0  0
  160.3920  206.9210  157.2610 C   0  0  0  0  0  1  0  0  0  0  0  0
  161.4850  209.9850  152.1070 N   0  0  0  0  0  2  0  0  0  0  0  0
  162.2890  209.0310  151.3630 C   0  0  0  0  0  2  0  0  0  0  0  0
  161.4960  208.4890  150.1840 C   0  0  1  0  0  3  0  0  0  0  0  0
  162.0360  209.0480  148.8740 C   0  0  0  0  0  2  0  0  0  0  0  0
  162.1540  210.4350  148.9590 O   0  0  0  0  0  1  0  0  0  0  0  0
  161.5260  206.9640  150.1830 C   0  0  0  0  0  2  0  0  0  0  0  0
  161.8930  206.4740  148.9250 O   0  0  0  0  0  0  0  0  0  0  0  0
  161.0630  206.7080  146.4110 O   0  0  0  0  0  1  0  0  0  0  0  0
  161.2090  204.2060  148.9430 C   0  0  0  0  0  2  0  0  0  0  0  0
  161.8800  203.5710  147.8760 O   0  0  0  0  0  0  0  0  0  0  0  0
  160.8490  205.6210  148.5530 C   0  0  2  0  0  3  0  0  0  0  0  0
  163.1010  204.8870  146.3080 C   0  0  0  0  0  1  0  0  0  0  0  0
  161.7290  204.3760  146.7290 C   0  0  0  0  0  0  0  0  0  0  0  0
  161.1520  203.5410  145.6030 C   0  0  0  0  0  1  0  0  0  0  0  0
  160.7610  205.5040  147.0610 C   0  0  2  0  0  3  0  0  0  0  0  0
  1  5  1  0  0  0  0
  2 14  1  1  0  0  0
  3  2  1  0  0  0  0
  4  3  1  0  0  0  0
  4  1  2  0  0  0  0
  5  2  1  0  0  0  0
  6  7  1  6  0  0  0
  6 11  1  0  0  0  0
  6  9  1  0  0  0  0
  8 12  1  0  0  0  0
  9  1  1  1  0  0  0
  9 12  1  0  0  0  0
 10 11  1  0  0  0  0
 11  8  2  0  0  0  0
 13  7  1  0  0  0  0
 13 10  2  0  0  0  0
 14 16  1  6  0  0  0
 15 14  1  0  0  0  0
 17  4  1  0  0  0  0
 18 17  1  0  0  0  0
 19 20  1  6  0  0  0
 19 18  1  0  0  0  0
 20 21  1  0  0  0  0
 22 19  1  0  0  0  0
 23 22  1  0  0  0  0
 26 25  1  0  0  0  0
 27 23  1  6  0  0  0
 27 25  1  0  0  0  0
 28 29  1  0  0  0  0
 29 31  1  0  0  0  0
 29 26  1  0  0  0  0
 30 29  1  0  0  0  0
 31 24  1  6  0  0  0
 31 27  1  0  0  0  0
M  END
>  <MODEL>
2

>  <REMARK>
 VINA RESULT:      -6.5      2.449      4.984
  Name = 
  9 active torsions:
  status: ('A' for Active; 'I' for Inactive)
    1  A    between atoms: C_2  and  C_10
    2  A    between atoms: C_3  and  C_4
    3  A    between atoms: C_3  and  C_18
    4  A    between atoms: C_3  and  C_19
    5  A    between atoms: C_4  and  N_17
    6  A    between atoms: C_8  and  C_25
    7  A    between atoms: C_13  and  O_15
    8  A    between atoms: O_15  and  C_18
    9  A    between atoms: N_17  and  C_30
                            x       y       z     vdW  Elec       q    Type
                         _______ _______ _______ _____ _____    ______ ____

>  <TORSDO>
F 9

$$$$
=
 OpenBabel11072412393D

 31 34  0  0  1  0  0  0  0  0999 V2000
  159.7950  210.4910  154.1450 C   0  0  0  0  0  0  0  0  0  0  0  0
  160.6680  209.9240  156.3170 C   0  0  2  0  0  3  0  0  0  0  0  0
  161.3470  208.6480  155.1840 S   0  0  0  0  0  0  0  0  0  0  0  0
  160.4850  209.4150  153.8160 C   0  0  0  0  0  0  0  0  0  0  0  0
  159.8580  210.8360  155.5200 N   0  0  0  0  0  2  0  0  0  0  0  0
  158.1270  212.2590  153.8460 C   0  0  1  0  0  3  0  0  0  0  0  0
  156.8610  212.1630  154.0570 N   0  0  0  0  0  2  0  0  0  0  0  0
  159.3290  213.5920  152.5000 N   0  0  0  0  0  0  0  0  0  0  0  0
  159.0030  211.2900  153.1570 C   0  0  1  0  0  3  0  0  0  0  0  0
  157.2850  214.3580  153.5020 N   0  0  0  0  0  0  0  0  0  0  0  0
  158.4420  213.5510  153.4290 C   0  0  0  0  0  0  0  0  0  0  0  0
  159.9220  212.2550  152.3650 C   0  0  0  0  0  2  0  0  0  0  0  0
  156.3790  213.5140  153.9110 C   0  0  0  0  0  3  0  0  0  0  0  0
  161.7980  210.6850  157.0030 C   0  0  2  0  0  3  0  0  0  0  0  0
  161.4150  212.0080  157.2280 O   0  0  0  0  0  1  0  0  0  0  0  0
  163.0420  210.6790  156.1330 C   0  0  0  0  0  1  0  0  0  0  0  0
  160.5350  208.9140  152.4790 N   0  0  0  0  0  2  0  0  0  0  0  0
  161.7850  208.7970  151.7470 C   0  0  0  0  0  2  0  0  0  0  0  0
  161.8790  207.4270  151.0930 C   0  0  1  0  0  3  0  0  0  0  0  0
  161.2770  206.3610  151.9980 C   0  0  0  0  0  2  0  0  0  0  0  0
  162.2420  205.8870  152.8860 O   0  0  0  0  0  1  0  0  0  0  0  0
  161.1910  207.4440  149.7320 C   0  0  0  0  0  2  0  0  0  0  0  0
  161.8090  206.5490  148.8510 O   0  0  0  0  0  0  0  0  0  0  0  0
  161.1240  206.7180  146.2890 O   0  0  0  0  0  1  0  0  0  0  0  0
  161.1260  204.2820  148.8880 C   0  0  0  0  0  2  0  0  0  0  0  0
  161.8570  203.6200  147.8780 O   0  0  0  0  0  0  0  0  0  0  0  0
  160.7880  205.6850  148.4420 C   0  0  2  0  0  3  0  0  0  0  0  0
  163.1660  204.8980  146.3490 C   0  0  0  0  0  1  0  0  0  0  0  0
  161.7720  204.3960  146.7040 C   0  0  0  0  0  0  0  0  0  0  0  0
  161.2610  203.5310  145.5680 C   0  0  0  0  0  1  0  0  0  0  0  0
  160.7870  205.5300  146.9500 C   0  0  2  0  0  3  0  0  0  0  0  0
  1  5  1  0  0  0  0
  2 14  1  6  0  0  0
  3  2  1  0  0  0  0
  4  1  2  0  0  0  0
  4  3  1  0  0  0  0
  5  2  1  0  0  0  0
  6 11  1  6  0  0  0
  6  7  1  0  0  0  0
  8 11  2  0  0  0  0
  9  6  1  0  0  0  0
  9  1  1  1  0  0  0
 10 13  2  0  0  0  0
 11 10  1  0  0  0  0
 12  8  1  0  0  0  0
 12  9  1  0  0  0  0
 13  7  1  0  0  0  0
 14 16  1  6  0  0  0
 14 15  1  0  0  0  0
 17  4  1  0  0  0  0
 18 17  1  0  0  0  0
 19 22  1  6  0  0  0
 19 18  1  0  0  0  0
 19 20  1  0  0  0  0
 20 21  1  0  0  0  0
 23 22  1  0  0  0  0
 26 25  1  0  0  0  0
 27 23  1  6  0  0  0
 27 25  1  0  0  0  0
 28 29  1  0  0  0  0
 29 31  1  0  0  0  0
 29 26  1  0  0  0  0
 30 29  1  0  0  0  0
 31 24  1  6  0  0  0
 31 27  1  0  0  0  0
M  END
>  <MODEL>
3

>  <REMARK>
 VINA RESULT:      -6.4      2.895      4.587
  Name = 
  9 active torsions:
  status: ('A' for Active; 'I' for Inactive)
    1  A    between atoms: C_2  and  C_10
    2  A    between atoms: C_3  and  C_4
    3  A    between atoms: C_3  and  C_18
    4  A    between atoms: C_3  and  C_19
    5  A    between atoms: C_4  and  N_17
    6  A    between atoms: C_8  and  C_25
    7  A    between atoms: C_13  and  O_15
    8  A    between atoms: O_15  and  C_18
    9  A    between atoms: N_17  and  C_30
                            x       y       z     vdW  Elec       q    Type
                         _______ _______ _______ _____ _____    ______ ____

>  <TORSDO>
F 9

$$$$
=
 OpenBabel11072412393D

 31 34  0  0  1  0  0  0  0  0999 V2000
  160.8550  204.7480  149.9250 C   0  0  0  0  0  0  0  0  0  0  0  0
  161.6560  202.4780  150.0010 C   0  0  2  0  0  3  0  0  0  0  0  0
  161.3850  202.9440  151.7560 S   0  0  0  0  0  0  0  0  0  0  0  0
  160.8530  204.5710  151.2330 C   0  0  2  0  0  3  0  0  0  0  0  0
  161.2850  203.6210  149.1780 N   0  0  0  0  0  0  0  0  0  0  0  0
  161.4710  207.0740  149.4660 C   0  0  1  0  0  3  0  0  0  0  0  0
  161.4480  208.0520  150.3020 N   0  0  0  0  0  2  0  0  0  0  0  0
  161.2990  207.0020  147.2310 N   0  0  0  0  0  0  0  0  0  0  0  0
  160.4440  206.0300  149.2710 C   0  0  1  0  0  3  0  0  0  0  0  0
  162.3330  208.8660  148.3360 N   0  0  0  0  0  0  0  0  0  0  0  0
  161.9260  207.5170  148.2260 C   0  0  0  0  0  0  0  0  0  0  0  0
  160.4720  205.8950  147.7270 C   0  0  0  0  0  2  0  0  0  0  0  0
  162.0710  209.1370  149.5840 C   0  0  0  0  0  3  0  0  0  0  0  0
  160.8070  201.2660  149.6330 C   0  0  2  0  0  3  0  0  0  0  0  0
  161.3920  200.5780  148.5700 O   0  0  0  0  0  1  0  0  0  0  0  0
  159.4120  201.7030  149.2220 C   0  0  0  0  0  1  0  0  0  0  0  0
  160.4560  205.5960  152.1460 N   0  0  0  0  0  2  0  0  0  0  0  0
  161.3170  206.0380  153.2300 C   0  0  0  0  0  2  0  0  0  0  0  0
  160.6700  207.1990  153.9690 C   0  0  1  0  0  3  0  0  0  0  0  0
  160.6930  206.9530  155.4720 C   0  0  0  0  0  2  0  0  0  0  0  0
  159.7410  207.7550  156.1020 O   0  0  0  0  0  1  0  0  0  0  0  0
  161.3710  208.5060  153.6170 C   0  0  0  0  0  2  0  0  0  0  0  0
  160.4450  209.4740  153.2100 O   0  0  0  0  0  0  0  0  0  0  0  0
  158.9600  211.6350  152.7790 O   0  0  0  0  0  1  0  0  0  0  0  0
  161.7310  210.6690  154.8000 C   0  0  0  0  0  2  0  0  0  0  0  0
  160.8280  211.1570  155.7700 O   0  0  0  0  0  0  0  0  0  0  0  0
  161.0830  210.6980  153.4350 C   0  0  2  0  0  3  0  0  0  0  0  0
  158.4820  210.9670  155.3880 C   0  0  0  0  0  1  0  0  0  0  0  0
  159.7490  211.7600  155.0910 C   0  0  0  0  0  0  0  0  0  0  0  0
  159.5680  213.1770  155.5980 C   0  0  0  0  0  1  0  0  0  0  0  0
  160.0800  211.7990  153.6050 C   0  0  2  0  0  3  0  0  0  0  0  0
  1  4  1  0  0  0  0
  2 14  1  6  0  0  0
  2  3  1  0  0  0  0
  4  3  1  0  0  0  0
  4 17  1  6  0  0  0
  5  1  2  0  0  0  0
  5  2  1  0  0  0  0
  6 11  1  6  0  0  0
  6  7  1  0  0  0  0
  8 12  1  0  0  0  0
  8 11  2  0  0  0  0
  9  6  1  0  0  0  0
  9  1  1  1  0  0  0
 10 13  2  0  0  0  0
 11 10  1  0  0  0  0
 12  9  1  0  0  0  0
 13  7  1  0  0  0  0
 14 16  1  6  0  0  0
 15 14  1  0  0  0  0
 17 18  1  0  0  0  0
 19 18  1  6  0  0  0
 19 20  1  0  0  0  0
 20 21  1  0  0  0  0
 22 19  1  0  0  0  0
 23 22  1  0  0  0  0
 25 26  1  0  0  0  0
 27 23  1  1  0  0  0
 27 31  1  0  0  0  0
 27 25  1  0  0  0  0
 29 28  1  0  0  0  0
 29 30  1  0  0  0  0
 29 26  1  0  0  0  0
 31 24  1  6  0  0  0
 31 29  1  0  0  0  0
M  END
>  <MODEL>
4

>  <REMARK>
 VINA RESULT:      -6.3      3.394      8.223
  Name = 
  9 active torsions:
  status: ('A' for Active; 'I' for Inactive)
    1  A    between atoms: C_2  and  C_10
    2  A    between atoms: C_3  and  C_4
    3  A    between atoms: C_3  and  C_18
    4  A    between atoms: C_3  and  C_19
    5  A    between atoms: C_4  and  N_17
    6  A    between atoms: C_8  and  C_25
    7  A    between atoms: C_13  and  O_15
    8  A    between atoms: O_15  and  C_18
    9  A    between atoms: N_17  and  C_30
                            x       y       z     vdW  Elec       q    Type
                         _______ _______ _______ _____ _____    ______ ____

>  <TORSDO>
F 9

$$$$
=
 OpenBabel11072412393D

 31 34  0  0  1  0  0  0  0  0999 V2000
  160.9340  205.4670  149.2660 C   0  0  0  0  0  0  0  0  0  0  0  0
  161.2690  206.5080  147.1210 C   0  0  2  0  0  3  0  0  0  0  0  0
  162.1100  207.6140  148.3220 S   0  0  0  0  0  0  0  0  0  0  0  0
  161.6170  206.5260  149.6550 C   0  0  2  0  0  3  0  0  0  0  0  0
  160.7090  205.3900  147.8670 N   0  0  0  0  0  0  0  0  0  0  0  0
  160.6970  203.0670  149.6990 C   0  0  1  0  0  3  0  0  0  0  0  0
  159.8680  202.2640  149.1310 N   0  0  0  0  0  2  0  0  0  0  0  0
  161.7070  203.0150  151.7020 N   0  0  0  0  0  0  0  0  0  0  0  0
  160.4260  204.4250  150.2150 C   0  0  1  0  0  3  0  0  0  0  0  0
  161.1970  200.9900  150.5160 N   0  0  0  0  0  0  0  0  0  0  0  0
  161.4840  202.3700  150.6130 C   0  0  0  0  0  0  0  0  0  0  0  0
  161.2710  204.4050  151.5150 C   0  0  0  0  0  2  0  0  0  0  0  0
  160.2650  200.9610  149.6050 C   0  0  0  0  0  3  0  0  0  0  0  0
  162.2600  206.0020  146.0770 C   0  0  2  0  0  3  0  0  0  0  0  0
  161.6020  205.7630  144.8710 O   0  0  0  0  0  1  0  0  0  0  0  0
  162.9050  204.7090  146.5450 C   0  0  0  0  0  1  0  0  0  0  0  0
  161.9350  206.7750  151.0260 N   0  0  0  0  0  2  0  0  0  0  0  0
  161.8650  208.1060  151.6040 C   0  0  0  0  0  2  0  0  0  0  0  0
  160.8840  208.1200  152.7650 C   0  0  1  0  0  3  0  0  0  0  0  0
  161.2020  207.0000  153.7470 C   0  0  0  0  0  2  0  0  0  0  0  0
  160.3610  207.0840  154.8560 O   0  0  0  0  0  1  0  0  0  0  0  0
  160.9040  209.4790  153.4580 C   0  0  0  0  0  2  0  0  0  0  0  0
  159.9740  210.3480  152.8770 O   0  0  0  0  0  0  0  0  0  0  0  0
  158.4710  212.3530  151.9930 O   0  0  0  0  0  1  0  0  0  0  0  0
  160.6090  211.6460  154.7530 C   0  0  0  0  0  2  0  0  0  0  0  0
  159.4170  212.0270  155.4070 O   0  0  0  0  0  0  0  0  0  0  0  0
  160.3910  211.6270  153.2580 C   0  0  2  0  0  3  0  0  0  0  0  0
  157.3180  211.6050  154.3580 C   0  0  0  0  0  1  0  0  0  0  0  0
  158.5300  212.5260  154.4320 C   0  0  0  0  0  0  0  0  0  0  0  0
  158.0660  213.9110  154.8390 C   0  0  0  0  0  1  0  0  0  0  0  0
  159.2760  212.6180  153.1080 C   0  0  2  0  0  3  0  0  0  0  0  0
  1  4  1  0  0  0  0
  2 14  1  6  0  0  0
  2  5  1  0  0  0  0
  2  3  1  0  0  0  0
  3  4  1  0  0  0  0
  4 17  1  6  0  0  0
  5  1  2  0  0  0  0
  6  7  1  1  0  0  0
  6  9  1  0  0  0  0
  6 11  1  0  0  0  0
  7 13  1  0  0  0  0
  9  1  1  6  0  0  0
  9 12  1  0  0  0  0
 10 11  1  0  0  0  0
 11  8  2  0  0  0  0
 12  8  1  0  0  0  0
 13 10  2  0  0  0  0
 14 16  1  1  0  0  0
 15 14  1  0  0  0  0
 17 18  1  0  0  0  0
 19 18  1  6  0  0  0
 19 22  1  0  0  0  0
 19 20  1  0  0  0  0
 20 21  1  0  0  0  0
 23 22  1  0  0  0  0
 25 26  1  0  0  0  0
 27 23  1  1  0  0  0
 27 25  1  0  0  0  0
 28 29  1  0  0  0  0
 29 30  1  0  0  0  0
 29 26  1  0  0  0  0
 31 24  1  6  0  0  0
 31 27  1  0  0  0  0
 31 29  1  0  0  0  0
M  END
>  <MODEL>
5

>  <REMARK>
 VINA RESULT:      -6.1      3.232      8.010
  Name = 
  9 active torsions:
  status: ('A' for Active; 'I' for Inactive)
    1  A    between atoms: C_2  and  C_10
    2  A    between atoms: C_3  and  C_4
    3  A    between atoms: C_3  and  C_18
    4  A    between atoms: C_3  and  C_19
    5  A    between atoms: C_4  and  N_17
    6  A    between atoms: C_8  and  C_25
    7  A    between atoms: C_13  and  O_15
    8  A    between atoms: O_15  and  C_18
    9  A    between atoms: N_17  and  C_30
                            x       y       z     vdW  Elec       q    Type
                         _______ _______ _______ _____ _____    ______ ____

>  <TORSDO>
F 9

$$$$
=
 OpenBabel11072412393D

 31 34  0  0  1  0  0  0  0  0999 V2000
  160.8480  211.3240  151.1200 C   0  0  0  0  0  0  0  0  0  0  0  0
  161.1760  212.9770  149.4010 C   0  0  2  0  0  3  0  0  0  0  0  0
  162.2810  211.5850  148.9380 S   0  0  0  0  0  0  0  0  0  0  0  0
  161.7450  210.6880  150.3910 C   0  0  0  0  0  0  0  0  0  0  0  0
  160.4810  212.6020  150.6240 N   0  0  0  0  0  2  0  0  0  0  0  0
  161.0980  211.0910  153.5460 C   0  0  1  0  0  3  0  0  0  0  0  0
  161.9300  210.3260  154.1610 N   0  0  0  0  0  2  0  0  0  0  0  0
  159.1040  211.9300  154.1430 N   0  0  0  0  0  0  0  0  0  0  0  0
  160.2610  210.7560  152.3760 C   0  0  1  0  0  3  0  0  0  0  0  0
  160.8300  211.5550  155.7700 N   0  0  0  0  0  0  0  0  0  0  0  0
  160.3410  211.8100  154.4690 C   0  0  0  0  0  0  0  0  0  0  0  0
  158.9480  211.4890  152.7510 C   0  0  0  0  0  2  0  0  0  0  0  0
  161.7920  210.7030  155.5460 C   0  0  0  0  0  3  0  0  0  0  0  0
  160.1700  213.2540  148.2870 C   0  0  2  0  0  3  0  0  0  0  0  0
  158.8700  213.1690  148.7850 O   0  0  0  0  0  1  0  0  0  0  0  0
  160.3310  212.2420  147.1670 C   0  0  0  0  0  1  0  0  0  0  0  0
  162.2390  209.3930  150.7370 N   0  0  0  0  0  2  0  0  0  0  0  0
  161.5940  208.1740  150.2790 C   0  0  0  0  0  2  0  0  0  0  0  0
  161.8230  207.0550  151.2830 C   0  0  1  0  0  3  0  0  0  0  0  0
  160.9140  207.2290  152.4930 C   0  0  0  0  0  2  0  0  0  0  0  0
  161.5250  206.6990  153.6290 O   0  0  0  0  0  1  0  0  0  0  0  0
  161.6010  205.6990  150.6210 C   0  0  0  0  0  2  0  0  0  0  0  0
  161.8960  205.7570  149.2550 O   0  0  0  0  0  0  0  0  0  0  0  0
  161.2460  206.6670  146.8440 O   0  0  0  0  0  1  0  0  0  0  0  0
  161.0840  203.6110  148.6680 C   0  0  0  0  0  2  0  0  0  0  0  0
  161.7850  203.2140  147.5090 O   0  0  0  0  0  0  0  0  0  0  0  0
  160.8310  205.1000  148.6290 C   0  0  2  0  0  3  0  0  0  0  0  0
  163.1790  204.7870  146.3850 C   0  0  0  0  0  1  0  0  0  0  0  0
  161.7560  204.2880  146.5960 C   0  0  0  0  0  0  0  0  0  0  0  0
  161.2070  203.8020  145.2690 C   0  0  0  0  0  1  0  0  0  0  0  0
  160.8350  205.3650  147.1530 C   0  0  2  0  0  3  0  0  0  0  0  0
  2 14  1  6  0  0  0
  2  5  1  0  0  0  0
  3  2  1  0  0  0  0
  3  4  1  0  0  0  0
  4 17  1  0  0  0  0
  4  1  2  0  0  0  0
  5  1  1  0  0  0  0
  6  7  1  1  0  0  0
  6 11  1  0  0  0  0
  7 13  1  0  0  0  0
  8 11  2  0  0  0  0
  9  1  1  6  0  0  0
  9 12  1  0  0  0  0
  9  6  1  0  0  0  0
 11 10  1  0  0  0  0
 12  8  1  0  0  0  0
 13 10  2  0  0  0  0
 14 16  1  6  0  0  0
 14 15  1  0  0  0  0
 18 17  1  0  0  0  0
 19 18  1  6  0  0  0
 19 20  1  0  0  0  0
 20 21  1  0  0  0  0
 22 19  1  0  0  0  0
 23 22  1  0  0  0  0
 26 25  1  0  0  0  0
 27 25  1  0  0  0  0
 27 23  1  1  0  0  0
 28 29  1  0  0  0  0
 29 31  1  0  0  0  0
 29 26  1  0  0  0  0
 30 29  1  0  0  0  0
 31 24  1  1  0  0  0
 31 27  1  0  0  0  0
M  END
>  <MODEL>
6

>  <REMARK>
 VINA RESULT:      -6.1      1.940      2.588
  Name = 
  9 active torsions:
  status: ('A' for Active; 'I' for Inactive)
    1  A    between atoms: C_2  and  C_10
    2  A    between atoms: C_3  and  C_4
    3  A    between atoms: C_3  and  C_18
    4  A    between atoms: C_3  and  C_19
    5  A    between atoms: C_4  and  N_17
    6  A    between atoms: C_8  and  C_25
    7  A    between atoms: C_13  and  O_15
    8  A    between atoms: O_15  and  C_18
    9  A    between atoms: N_17  and  C_30
                            x       y       z     vdW  Elec       q    Type
                         _______ _______ _______ _____ _____    ______ ____

>  <TORSDO>
F 9

$$$$
=
 OpenBabel11072412393D

 31 34  0  0  1  0  0  0  0  0999 V2000
  161.4600  204.8290  148.9910 C   0  0  0  0  0  0  0  0  0  0  0  0
  161.2550  202.6530  150.0030 C   0  0  2  0  0  3  0  0  0  0  0  0
  160.8710  203.8410  151.3500 S   0  0  0  0  0  0  0  0  0  0  0  0
  161.1430  205.2000  150.2170 C   0  0  2  0  0  3  0  0  0  0  0  0
  161.5340  203.4240  148.7990 N   0  0  0  0  0  0  0  0  0  0  0  0
  161.9640  205.0940  146.6090 C   0  0  1  0  0  3  0  0  0  0  0  0
  163.0930  204.8680  146.0340 N   0  0  0  0  0  2  0  0  0  0  0  0
  160.2530  206.4460  146.0810 N   0  0  0  0  0  0  0  0  0  0  0  0
  161.7270  205.8010  147.8840 C   0  0  1  0  0  3  0  0  0  0  0  0
  161.5910  205.4140  144.3750 N   0  0  0  0  0  0  0  0  0  0  0  0
  161.0250  205.5060  145.6660 C   0  0  0  0  0  0  0  0  0  0  0  0
  160.4450  206.5970  147.5290 C   0  0  0  0  0  2  0  0  0  0  0  0
  162.8010  204.9990  144.6290 C   0  0  0  0  0  3  0  0  0  0  0  0
  160.0770  201.7140  149.7660 C   0  0  2  0  0  3  0  0  0  0  0  0
  160.2280  200.5560  150.5280 O   0  0  0  0  0  1  0  0  0  0  0  0
  159.9970  201.3270  148.3000 C   0  0  0  0  0  1  0  0  0  0  0  0
  161.0270  206.5720  150.5990 N   0  0  0  0  0  2  0  0  0  0  0  0
  161.7850  207.1300  151.7060 C   0  0  0  0  0  2  0  0  0  0  0  0
  160.8400  207.5890  152.8060 C   0  0  1  0  0  3  0  0  0  0  0  0
  160.8540  206.6030  153.9670 C   0  0  0  0  0  2  0  0  0  0  0  0
  160.4370  207.2370  155.1360 O   0  0  0  0  0  1  0  0  0  0  0  0
  161.2150  208.9910  153.2730 C   0  0  0  0  0  2  0  0  0  0  0  0
  160.2170  209.9120  152.9360 O   0  0  0  0  0  0  0  0  0  0  0  0
  158.6440  211.9990  152.4550 O   0  0  0  0  0  1  0  0  0  0  0  0
  161.1980  211.0670  154.7560 C   0  0  0  0  0  2  0  0  0  0  0  0
  160.1460  211.4220  155.6280 O   0  0  0  0  0  0  0  0  0  0  0  0
  160.7290  211.1540  153.3220 C   0  0  2  0  0  3  0  0  0  0  0  0
  157.8880  211.1090  154.9280 C   0  0  0  0  0  1  0  0  0  0  0  0
  159.1210  212.0020  154.8540 C   0  0  0  0  0  0  0  0  0  0  0  0
  158.7720  213.3630  155.4230 C   0  0  0  0  0  1  0  0  0  0  0  0
  159.6340  212.1730  153.4300 C   0  0  2  0  0  3  0  0  0  0  0  0
  1  4  1  0  0  0  0
  2 14  1  6  0  0  0
  2  3  1  0  0  0  0
  4 17  1  6  0  0  0
  4  3  1  0  0  0  0
  5  1  2  0  0  0  0
  5  2  1  0  0  0  0
  6 11  1  6  0  0  0
  6  9  1  0  0  0  0
  7  6  1  0  0  0  0
  8 12  1  0  0  0  0
  9  1  1  1  0  0  0
 10 13  2  0  0  0  0
 10 11  1  0  0  0  0
 11  8  2  0  0  0  0
 12  9  1  0  0  0  0
 13  7  1  0  0  0  0
 14 16  1  6  0  0  0
 14 15  1  0  0  0  0
 17 18  1  0  0  0  0
 19 18  1  6  0  0  0
 19 22  1  0  0  0  0
 19 20  1  0  0  0  0
 20 21  1  0  0  0  0
 23 22  1  0  0  0  0
 25 26  1  0  0  0  0
 27 23  1  1  0  0  0
 27 31  1  0  0  0  0
 27 25  1  0  0  0  0
 29 28  1  0  0  0  0
 29 30  1  0  0  0  0
 29 26  1  0  0  0  0
 31 24  1  6  0  0  0
 31 29  1  0  0  0  0
M  END
>  <MODEL>
7

>  <REMARK>
 VINA RESULT:      -5.8      3.593      8.910
  Name = 
  9 active torsions:
  status: ('A' for Active; 'I' for Inactive)
    1  A    between atoms: C_2  and  C_10
    2  A    between atoms: C_3  and  C_4
    3  A    between atoms: C_3  and  C_18
    4  A    between atoms: C_3  and  C_19
    5  A    between atoms: C_4  and  N_17
    6  A    between atoms: C_8  and  C_25
    7  A    between atoms: C_13  and  O_15
    8  A    between atoms: O_15  and  C_18
    9  A    between atoms: N_17  and  C_30
                            x       y       z     vdW  Elec       q    Type
                         _______ _______ _______ _____ _____    ______ ____

>  <TORSDO>
F 9

$$$$
=
 OpenBabel11072412393D

 31 34  0  0  1  0  0  0  0  0999 V2000
  160.8630  205.4380  149.0140 C   0  0  0  0  0  0  0  0  0  0  0  0
  161.2180  206.1810  146.7510 C   0  0  2  0  0  3  0  0  0  0  0  0
  161.7100  207.6050  147.8010 S   0  0  0  0  0  0  0  0  0  0  0  0
  161.2940  206.6600  149.2630 C   0  0  2  0  0  3  0  0  0  0  0  0
  160.8010  205.1020  147.6370 N   0  0  0  0  0  0  0  0  0  0  0  0
  160.6490  203.0800  149.6420 C   0  0  1  0  0  3  0  0  0  0  0  0
  159.7450  202.2580  149.2380 N   0  0  0  0  0  2  0  0  0  0  0  0
  161.9000  203.1420  151.5030 N   0  0  0  0  0  0  0  0  0  0  0  0
  160.4640  204.4750  150.0890 C   0  0  1  0  0  3  0  0  0  0  0  0
  161.2180  201.0530  150.5350 N   0  0  0  0  0  0  0  0  0  0  0  0
  161.5340  202.4290  150.4980 C   0  0  0  0  0  0  0  0  0  0  0  0
  161.4640  204.5250  151.2730 C   0  0  0  0  0  2  0  0  0  0  0  0
  160.1790  200.9820  149.7500 C   0  0  0  0  0  3  0  0  0  0  0  0
  162.3870  205.7280  145.8830 C   0  0  2  0  0  3  0  0  0  0  0  0
  161.9370  205.4190  144.5990 O   0  0  0  0  0  1  0  0  0  0  0  0
  163.0410  204.4950  146.4800 C   0  0  0  0  0  1  0  0  0  0  0  0
  161.4180  207.1760  150.5900 N   0  0  0  0  0  2  0  0  0  0  0  0
  162.5320  208.0200  150.9880 C   0  0  0  0  0  2  0  0  0  0  0  0
  162.0560  209.0850  151.9630 C   0  0  1  0  0  3  0  0  0  0  0  0
  161.7070  210.3700  151.2240 C   0  0  0  0  0  2  0  0  0  0  0  0
  162.0840  210.2680  149.8850 O   0  0  0  0  0  1  0  0  0  0  0  0
  160.8630  208.5720  152.7640 C   0  0  0  0  0  2  0  0  0  0  0  0
  161.2180  208.3510  154.1000 O   0  0  0  0  0  0  0  0  0  0  0  0
  161.5810  208.3730  156.7320 O   0  0  0  0  0  1  0  0  0  0  0  0
  159.8620  210.2860  154.2670 C   0  0  0  0  0  2  0  0  0  0  0  0
  160.6420  211.2760  154.9020 O   0  0  0  0  0  0  0  0  0  0  0  0
  160.1850  208.9280  154.8450 C   0  0  2  0  0  3  0  0  0  0  0  0
  162.7490  210.6820  155.8450 C   0  0  0  0  0  1  0  0  0  0  0  0
  161.2380  210.6940  156.0390 C   0  0  0  0  0  0  0  0  0  0  0  0
  160.9090  211.5290  157.2600 C   0  0  0  0  0  1  0  0  0  0  0  0
  160.6600  209.2960  156.2190 C   0  0  2  0  0  3  0  0  0  0  0  0
  1  4  1  0  0  0  0
  2 14  1  1  0  0  0
  2  5  1  0  0  0  0
  2  3  1  0  0  0  0
  3  4  1  0  0  0  0
  4 17  1  1  0  0  0
  5  1  2  0  0  0  0
  6  7  1  1  0  0  0
  6  9  1  0  0  0  0
  6 11  1  0  0  0  0
  7 13  1  0  0  0  0
  9  1  1  6  0  0  0
  9 12  1  0  0  0  0
 11 10  1  0  0  0  0
 11  8  2  0  0  0  0
 12  8  1  0  0  0  0
 13 10  2  0  0  0  0
 14 16  1  1  0  0  0
 15 14  1  0  0  0  0
 17 18  1  0  0  0  0
 19 18  1  6  0  0  0
 19 22  1  0  0  0  0
 20 19  1  0  0  0  0
 21 20  1  0  0  0  0
 22 23  1  0  0  0  0
 25 27  1  0  0  0  0
 25 26  1  0  0  0  0
 26 29  1  0  0  0  0
 27 23  1  6  0  0  0
 27 31  1  0  0  0  0
 28 29  1  0  0  0  0
 29 31  1  0  0  0  0
 29 30  1  0  0  0  0
 31 24  1  6  0  0  0
M  END
>  <MODEL>
8

>  <REMARK>
 VINA RESULT:      -5.6      2.994      8.166
  Name = 
  9 active torsions:
  status: ('A' for Active; 'I' for Inactive)
    1  A    between atoms: C_2  and  C_10
    2  A    between atoms: C_3  and  C_4
    3  A    between atoms: C_3  and  C_18
    4  A    between atoms: C_3  and  C_19
    5  A    between atoms: C_4  and  N_17
    6  A    between atoms: C_8  and  C_25
    7  A    between atoms: C_13  and  O_15
    8  A    between atoms: O_15  and  C_18
    9  A    between atoms: N_17  and  C_30
                            x       y       z     vdW  Elec       q    Type
                         _______ _______ _______ _____ _____    ______ ____

>  <TORSDO>
F 9

$$$$
=
 OpenBabel11072412393D

 31 34  0  0  1  0  0  0  0  0999 V2000
  161.3450  204.9480  148.5930 C   0  0  0  0  0  0  0  0  0  0  0  0
  161.2450  202.7910  149.6580 C   0  0  2  0  0  3  0  0  0  0  0  0
  160.8820  203.9980  150.9940 S   0  0  0  0  0  0  0  0  0  0  0  0
  161.0680  205.3380  149.8230 C   0  0  2  0  0  3  0  0  0  0  0  0
  161.4520  203.5420  148.4280 N   0  0  0  0  0  0  0  0  0  0  0  0
  161.9000  205.1800  146.2180 C   0  0  1  0  0  3  0  0  0  0  0  0
  163.0670  205.0640  145.6880 N   0  0  0  0  0  2  0  0  0  0  0  0
  160.0650  206.3040  145.5820 N   0  0  0  0  0  0  0  0  0  0  0  0
  161.5380  205.9020  147.4550 C   0  0  1  0  0  3  0  0  0  0  0  0
  161.5720  205.3690  143.9620 N   0  0  0  0  0  0  0  0  0  0  0  0
  160.9530  205.4450  145.2300 C   0  0  0  0  0  0  0  0  0  0  0  0
  160.1870  206.5310  147.0280 C   0  0  0  0  0  2  0  0  0  0  0  0
  162.8110  205.1070  144.2700 C   0  0  0  0  0  3  0  0  0  0  0  0
  160.0850  201.8150  149.4910 C   0  0  2  0  0  3  0  0  0  0  0  0
  160.1260  200.8470  150.4950 O   0  0  0  0  0  1  0  0  0  0  0  0
  160.1690  201.1220  148.1430 C   0  0  0  0  0  1  0  0  0  0  0  0
  160.9290  206.7140  150.1800 N   0  0  0  0  0  2  0  0  0  0  0  0
  161.8280  207.3610  151.1200 C   0  0  0  0  0  2  0  0  0  0  0  0
  162.3300  208.6750  150.5410 C   0  0  1  0  0  3  0  0  0  0  0  0
  161.7580  208.8980  149.1470 C   0  0  0  0  0  2  0  0  0  0  0  0
  162.1340  210.1530  148.6720 O   0  0  0  0  0  1  0  0  0  0  0  0
  161.9760  209.8310  151.4710 C   0  0  0  0  0  2  0  0  0  0  0  0
  161.9430  209.4070  152.8040 O   0  0  0  0  0  0  0  0  0  0  0  0
  161.1460  208.0840  154.9660 O   0  0  0  0  0  1  0  0  0  0  0  0
  160.4790  211.1870  153.3480 C   0  0  0  0  0  2  0  0  0  0  0  0
  160.8230  211.6130  154.6490 O   0  0  0  0  0  0  0  0  0  0  0  0
  160.6440  209.6890  153.2380 C   0  0  2  0  0  3  0  0  0  0  0  0
  162.3710  210.3320  155.9320 C   0  0  0  0  0  1  0  0  0  0  0  0
  160.9270  210.4690  155.4660 C   0  0  0  0  0  0  0  0  0  0  0  0
  160.0360  210.6380  156.6800 C   0  0  0  0  0  1  0  0  0  0  0  0
  160.4540  209.2640  154.6630 C   0  0  2  0  0  3  0  0  0  0  0  0
  1  4  1  0  0  0  0
  2 14  1  6  0  0  0
  2  3  1  0  0  0  0
  4 17  1  6  0  0  0
  4  3  1  0  0  0  0
  5  1  2  0  0  0  0
  5  2  1  0  0  0  0
  6 11  1  6  0  0  0
  6  9  1  0  0  0  0
  7  6  1  0  0  0  0
  8 12  1  0  0  0  0
  9  1  1  1  0  0  0
 10 13  2  0  0  0  0
 10 11  1  0  0  0  0
 11  8  2  0  0  0  0
 12  9  1  0  0  0  0
 13  7  1  0  0  0  0
 14 16  1  6  0  0  0
 14 15  1  0  0  0  0
 17 18  1  0  0  0  0
 19 20  1  6  0  0  0
 19 18  1  0  0  0  0
 19 22  1  0  0  0  0
 21 20  1  0  0  0  0
 22 23  1  0  0  0  0
 25 26  1  0  0  0  0
 26 29  1  0  0  0  0
 27 23  1  1  0  0  0
 27 25  1  0  0  0  0
 27 31  1  0  0  0  0
 29 28  1  0  0  0  0
 29 30  1  0  0  0  0
 31 24  1  1  0  0  0
 31 29  1  0  0  0  0
M  END
>  <MODEL>
9

>  <REMARK>
 VINA RESULT:      -5.6      3.289      8.887
  Name = 
  9 active torsions:
  status: ('A' for Active; 'I' for Inactive)
    1  A    between atoms: C_2  and  C_10
    2  A    between atoms: C_3  and  C_4
    3  A    between atoms: C_3  and  C_18
    4  A    between atoms: C_3  and  C_19
    5  A    between atoms: C_4  and  N_17
    6  A    between atoms: C_8  and  C_25
    7  A    between atoms: C_13  and  O_15
    8  A    between atoms: O_15  and  C_18
    9  A    between atoms: N_17  and  C_30
                            x       y       z     vdW  Elec       q    Type
                         _______ _______ _______ _____ _____    ______ ____

>  <TORSDO>
F 9

$$$$
