=
 OpenBabel11072415003D

 39 45  0  0  1  0  0  0  0  0999 V2000
  160.9450  210.4020  150.5860 O   0  0  0  0  0  0  0  0  0  0  0  0
  162.1040  208.4720  149.4650 C   0  0  0  0  0  2  0  0  0  0  0  0
  158.6930  212.3830  154.6620 N   0  0  0  0  0  0  0  0  0  0  0  0
  161.6880  208.6480  151.8790 C   0  0  1  0  0  3  0  0  0  0  0  0
  157.6860  212.8000  155.5780 C   0  0  0  0  0  0  0  0  0  0  0  0
  161.1480  209.0040  150.5170 C   0  0  1  0  0  3  0  0  0  0  0  0
  161.6490  206.3950  150.8300 N   0  0  0  0  0  0  0  0  0  0  0  0
  159.1780  212.0310  153.2300 C   0  0  1  0  0  0  0  0  0  0  0  0
  159.9950  211.8840  154.3840 C   0  0  1  0  0  0  0  0  0  0  0  0
  160.4560  212.0540  152.5090 C   0  0  1  0  0  0  0  0  0  0  0  0
  160.0340  210.5220  154.7850 O   0  0  0  0  0  0  0  0  0  0  0  0
  160.7720  210.7070  151.9310 C   0  0  0  0  0  0  0  0  0  0  0  0
  157.9390  212.8370  156.8120 O   0  0  0  0  0  0  0  0  0  0  0  0
  161.0400  209.6820  152.7350 C   0  0  0  0  0  0  0  0  0  0  0  0
  162.5840  207.0580  149.8900 C   0  0  0  0  0  2  0  0  0  0  0  0
  161.4460  207.1570  152.0890 C   0  0  0  0  0  2  0  0  0  0  0  0
  160.3210  213.5940  150.5080 O   0  0  0  0  0  0  0  0  0  0  0  0
  158.8300  213.2720  152.5210 N   0  0  0  0  0  2  0  0  0  0  0  0
  159.9410  213.0680  151.5860 C   0  0  0  0  0  0  0  0  0  0  0  0
  161.1790  209.8900  154.2350 C   0  0  2  0  0  3  0  0  0  0  0  0
  162.7680  209.4040  156.9740 C   0  0  0  0  0  1  0  0  0  0  0  0
  160.5970  207.4250  154.5190 C   0  0  0  0  0  2  0  0  0  0  0  0
  161.1510  207.5400  157.2610 C   0  0  0  0  0  2  0  0  0  0  0  0
  161.4910  208.5930  154.9840 C   0  0  2  0  0  3  0  0  0  0  0  0
  159.3780  207.2610  155.4220 C   0  0  0  0  0  2  0  0  0  0  0  0
  161.4450  208.8310  156.5020 C   0  0  2  0  0  3  0  0  0  0  0  0
  159.7860  206.9570  156.8700 C   0  0  0  0  0  2  0  0  0  0  0  0
  155.7050  211.9700  154.3680 C   0  0  0  0  0  1  0  0  0  0  0  0
  156.3300  213.1580  155.0700 C   0  0  1  0  0  3  0  0  0  0  0  0
  155.5120  213.5640  156.1270 O   0  0  0  0  0  1  0  0  0  0  0  0
  162.2510  205.1260  151.2000 C   0  0  0  0  0  2  0  0  0  0  0  0
  160.1160  204.0720  151.1460 O   0  0  0  0  0  1  0  0  0  0  0  0
  161.4200  203.9770  150.6570 C   0  0  1  0  0  3  0  0  0  0  0  0
  161.4030  204.0430  149.2040 N   0  0  0  0  0  2  0  0  0  0  0  0
  161.0870  201.7480  148.9080 O   0  0  0  0  0  0  0  0  0  0  0  0
  161.2270  202.8860  148.3820 C   0  0  0  0  0  0  0  0  0  0  0  0
  160.8320  202.0640  146.2000 O   0  0  0  0  0  0  0  0  0  0  0  0
  161.2110  203.0230  146.9220 C   0  0  0  0  0  0  0  0  0  0  0  0
  161.6250  204.2410  146.3100 N   0  0  0  0  0  1  0  0  0  0  0  0
  1 12  1  0  0  0  0
  2 15  1  0  0  0  0
  3  5  1  0  0  0  0
  4 16  1  1  0  0  0
  4 14  1  0  0  0  0
  5 13  2  0  0  0  0
  6  2  1  6  0  0  0
  6  1  1  0  0  0  0
  6  4  1  0  0  0  0
  7 31  1  0  0  0  0
  7 16  1  0  0  0  0
  8 18  1  1  0  0  0
  8  9  1  0  0  0  0
  8  3  1  0  0  0  0
  9  3  1  0  0  0  0
  9 11  1  1  0  0  0
 10 19  1  6  0  0  0
 10  8  1  0  0  0  0
 10  9  1  0  0  0  0
 12 10  1  0  0  0  0
 12 14  2  0  0  0  0
 15  7  1  0  0  0  0
 17 19  2  0  0  0  0
 19 18  1  0  0  0  0
 20 14  1  6  0  0  0
 20 11  1  0  0  0  0
 20 24  1  0  0  0  0
 22 25  1  0  0  0  0
 24 22  1  1  0  0  0
 24 26  1  0  0  0  0
 25 27  1  0  0  0  0
 26 21  1  1  0  0  0
 26 23  1  0  0  0  0
 27 23  1  0  0  0  0
 29 28  1  1  0  0  0
 29  5  1  0  0  0  0
 29 30  1  0  0  0  0
 33 32  1  1  0  0  0
 33 31  1  0  0  0  0
 34 33  1  0  0  0  0
 36 35  2  0  0  0  0
 36 34  1  0  0  0  0
 37 38  2  0  0  0  0
 38 36  1  0  0  0  0
 39 38  1  0  0  0  0
M  END
>  <MODEL>
1

>  <REMARK>
 VINA RESULT:      -6.6      0.000      0.000
  Name = 
  6 active torsions:
  status: ('A' for Active; 'I' for Inactive)
    1  A    between atoms: C_9  and  N_12
    2  A    between atoms: C_9  and  C_13
    3  A    between atoms: C_10  and  C_29
    4  A    between atoms: C_13  and  N_15
    5  A    between atoms: C_14  and  C_21
    6  A    between atoms: C_24  and  C_38
                            x       y       z     vdW  Elec       q    Type
                         _______ _______ _______ _____ _____    ______ ____

>  <TORSDO>
F 6

$$$$
=
 OpenBabel11072415003D

 39 45  0  0  1  0  0  0  0  0999 V2000
  160.9880  208.9470  152.8250 O   0  0  0  0  0  0  0  0  0  0  0  0
  160.2940  210.8730  154.2870 C   0  0  0  0  0  2  0  0  0  0  0  0
  161.9790  207.0800  148.2280 N   0  0  0  0  0  0  0  0  0  0  0  0
  160.9620  211.0690  151.9320 C   0  0  1  0  0  3  0  0  0  0  0  0
  161.8220  206.4130  146.9800 C   0  0  0  0  0  0  0  0  0  0  0  0
  160.2900  210.1720  152.9410 C   0  0  1  0  0  3  0  0  0  0  0  0
  159.2350  212.6260  152.8090 N   0  0  0  0  0  0  0  0  0  0  0  0
  161.6100  207.2920  149.7210 C   0  0  1  0  0  0  0  0  0  0  0  0
  162.5320  208.1210  149.0240 C   0  0  1  0  0  0  0  0  0  0  0  0
  162.2920  207.7950  150.9190 C   0  0  1  0  0  0  0  0  0  0  0  0
  161.9040  209.3380  148.6440 O   0  0  0  0  0  0  0  0  0  0  0  0
  161.5240  208.9210  151.5430 C   0  0  0  0  0  0  0  0  0  0  0  0
  162.4700  206.8080  145.9740 O   0  0  0  0  0  0  0  0  0  0  0  0
  161.4060  210.0820  150.9070 C   0  0  0  0  0  0  0  0  0  0  0  0
  159.9650  212.3750  154.0740 C   0  0  0  0  0  2  0  0  0  0  0  0
  159.9860  212.1930  151.6030 C   0  0  0  0  0  2  0  0  0  0  0  0
  162.3800  206.0090  152.7070 O   0  0  0  0  0  0  0  0  0  0  0  0
  161.8320  205.9350  150.2430 N   0  0  0  0  0  2  0  0  0  0  0  0
  162.1820  206.4810  151.5580 C   0  0  0  0  0  0  0  0  0  0  0  0
  162.1670  210.3380  149.6160 C   0  0  2  0  0  3  0  0  0  0  0  0
  164.2040  212.5650  148.5390 C   0  0  0  0  0  1  0  0  0  0  0  0
  160.4330  211.9060  148.6010 C   0  0  0  0  0  2  0  0  0  0  0  0
  162.3650  213.0860  146.9530 C   0  0  0  0  0  2  0  0  0  0  0  0
  161.9020  211.7300  149.0400 C   0  0  2  0  0  3  0  0  0  0  0  0
  160.2580  211.6240  147.1120 C   0  0  0  0  0  2  0  0  0  0  0  0
  162.9150  212.0500  147.9290 C   0  0  2  0  0  3  0  0  0  0  0  0
  161.0950  212.5820  146.2540 C   0  0  0  0  0  2  0  0  0  0  0  0
  160.4100  205.1150  145.4310 C   0  0  0  0  0  1  0  0  0  0  0  0
  160.8660  205.2740  146.8670 C   0  0  1  0  0  3  0  0  0  0  0  0
  161.4700  204.0930  147.3020 O   0  0  0  0  0  1  0  0  0  0  0  0
  159.0600  214.0640  152.7010 C   0  0  0  0  0  2  0  0  0  0  0  0
  157.0960  214.4500  151.4110 O   0  0  0  0  0  1  0  0  0  0  0  0
  157.5830  214.4120  152.7190 C   0  0  1  0  0  3  0  0  0  0  0  0
  156.8620  213.4030  153.4790 N   0  0  0  0  0  2  0  0  0  0  0  0
  157.1740  214.4530  155.5420 O   0  0  0  0  0  0  0  0  0  0  0  0
  156.6880  213.4850  154.8970 C   0  0  0  0  0  0  0  0  0  0  0  0
  155.2170  212.7300  156.5880 O   0  0  0  0  0  0  0  0  0  0  0  0
  155.9430  212.4360  155.6020 C   0  0  0  0  0  0  0  0  0  0  0  0
  156.0340  211.0800  155.1780 N   0  0  0  0  0  1  0  0  0  0  0  0
  1  6  1  0  0  0  0
  3  9  1  0  0  0  0
  3  8  1  0  0  0  0
  4 16  1  6  0  0  0
  4  6  1  0  0  0  0
  5  3  1  0  0  0  0
  6  2  1  1  0  0  0
  7 15  1  0  0  0  0
  8 18  1  1  0  0  0
  8 10  1  0  0  0  0
  9 11  1  6  0  0  0
  9  8  1  0  0  0  0
  9 10  1  0  0  0  0
 10 12  1  1  0  0  0
 10 19  1  0  0  0  0
 12  1  1  0  0  0  0
 13  5  2  0  0  0  0
 14 12  2  0  0  0  0
 14  4  1  0  0  0  0
 15  2  1  0  0  0  0
 16  7  1  0  0  0  0
 18 19  1  0  0  0  0
 19 17  2  0  0  0  0
 20 11  1  6  0  0  0
 20 14  1  0  0  0  0
 23 26  1  0  0  0  0
 24 22  1  6  0  0  0
 24 20  1  0  0  0  0
 25 22  1  0  0  0  0
 26 21  1  1  0  0  0
 26 24  1  0  0  0  0
 27 23  1  0  0  0  0
 27 25  1  0  0  0  0
 29 28  1  6  0  0  0
 29  5  1  0  0  0  0
 29 30  1  0  0  0  0
 31 33  1  0  0  0  0
 31  7  1  0  0  0  0
 33 32  1  6  0  0  0
 33 34  1  0  0  0  0
 34 36  1  0  0  0  0
 36 35  2  0  0  0  0
 36 38  1  0  0  0  0
 38 37  2  0  0  0  0
 39 38  1  0  0  0  0
M  END
>  <MODEL>
2

>  <REMARK>
 VINA RESULT:      -5.5      2.655      9.535
  Name = 
  6 active torsions:
  status: ('A' for Active; 'I' for Inactive)
    1  A    between atoms: C_9  and  N_12
    2  A    between atoms: C_9  and  C_13
    3  A    between atoms: C_10  and  C_29
    4  A    between atoms: C_13  and  N_15
    5  A    between atoms: C_14  and  C_21
    6  A    between atoms: C_24  and  C_38
                            x       y       z     vdW  Elec       q    Type
                         _______ _______ _______ _____ _____    ______ ____

>  <TORSDO>
F 6

$$$$
=
 OpenBabel11072415003D

 39 45  0  0  1  0  0  0  0  0999 V2000
  161.6270  209.9600  149.9420 O   0  0  0  0  0  0  0  0  0  0  0  0
  162.8030  207.7380  150.0480 C   0  0  0  0  0  2  0  0  0  0  0  0
  158.3460  213.2710  151.9110 N   0  0  0  0  0  0  0  0  0  0  0  0
  161.5380  208.7460  151.8960 C   0  0  1  0  0  3  0  0  0  0  0  0
  157.1470  213.9980  152.1570 C   0  0  0  0  0  0  0  0  0  0  0  0
  161.6170  208.6200  150.3960 C   0  0  1  0  0  3  0  0  0  0  0  0
  161.5430  206.2710  151.6720 N   0  0  0  0  0  0  0  0  0  0  0  0
  159.2740  212.4360  150.9880 C   0  0  1  0  0  0  0  0  0  0  0  0
  159.5590  212.6800  152.3590 C   0  0  1  0  0  0  0  0  0  0  0  0
  160.7160  212.1830  150.8850 C   0  0  1  0  0  0  0  0  0  0  0  0
  159.2270  211.5400  153.1380 O   0  0  0  0  0  0  0  0  0  0  0  0
  161.0090  210.7140  150.9330 C   0  0  0  0  0  0  0  0  0  0  0  0
  156.9170  214.4530  153.3090 O   0  0  0  0  0  0  0  0  0  0  0  0
  160.7870  210.0240  152.0480 C   0  0  0  0  0  0  0  0  0  0  0  0
  162.8560  206.5490  151.0440 C   0  0  0  0  0  2  0  0  0  0  0  0
  161.0010  207.4240  152.4350 C   0  0  0  0  0  2  0  0  0  0  0  0
  161.5940  212.9400  148.6380 O   0  0  0  0  0  0  0  0  0  0  0  0
  159.4210  213.3630  149.8550 N   0  0  0  0  0  2  0  0  0  0  0  0
  160.7560  212.8260  149.5700 C   0  0  0  0  0  0  0  0  0  0  0  0
  160.3790  210.7350  153.3290 C   0  0  2  0  0  3  0  0  0  0  0  0
  162.4470  209.6810  155.5380 C   0  0  0  0  0  1  0  0  0  0  0  0
  158.6830  209.5850  154.8450 C   0  0  0  0  0  2  0  0  0  0  0  0
  160.4490  209.6890  157.0140 C   0  0  0  0  0  2  0  0  0  0  0  0
  160.1750  209.7710  154.4990 C   0  0  2  0  0  3  0  0  0  0  0  0
  158.2510  210.5180  155.9730 C   0  0  0  0  0  2  0  0  0  0  0  0
  161.0320  210.2020  155.7000 C   0  0  2  0  0  3  0  0  0  0  0  0
  159.0410  210.2480  157.2610 C   0  0  0  0  0  2  0  0  0  0  0  0
  156.4930  213.2730  149.8930 C   0  0  0  0  0  1  0  0  0  0  0  0
  156.1590  214.1860  151.0560 C   0  0  1  0  0  3  0  0  0  0  0  0
  154.8690  213.9100  151.5140 O   0  0  0  0  0  1  0  0  0  0  0  0
  161.7510  205.1960  152.6260 C   0  0  0  0  0  2  0  0  0  0  0  0
  160.1700  203.4890  152.1150 O   0  0  0  0  0  1  0  0  0  0  0  0
  161.5090  203.8530  151.9600 C   0  0  1  0  0  3  0  0  0  0  0  0
  161.8260  203.9570  150.5440 N   0  0  0  0  0  2  0  0  0  0  0  0
  159.8990  202.8480  149.8300 O   0  0  0  0  0  0  0  0  0  0  0  0
  160.9720  203.4350  149.5230 C   0  0  0  0  0  0  0  0  0  0  0  0
  161.4650  202.5630  147.3800 O   0  0  0  0  0  0  0  0  0  0  0  0
  161.3480  203.5800  148.1120 C   0  0  0  0  0  0  0  0  0  0  0  0
  161.5840  204.8720  147.5610 N   0  0  0  0  0  1  0  0  0  0  0  0
  1  6  1  0  0  0  0
  1 12  1  0  0  0  0
  2 15  1  0  0  0  0
  3  5  1  0  0  0  0
  3  9  1  0  0  0  0
  4 14  1  0  0  0  0
  4 16  1  6  0  0  0
  5 13  2  0  0  0  0
  6  2  1  1  0  0  0
  6  4  1  0  0  0  0
  7 16  1  0  0  0  0
  7 31  1  0  0  0  0
  8 18  1  1  0  0  0
  8  3  1  0  0  0  0
  8  9  1  0  0  0  0
  9 11  1  1  0  0  0
 10 19  1  6  0  0  0
 10 12  1  0  0  0  0
 10  8  1  0  0  0  0
 10  9  1  0  0  0  0
 11 20  1  0  0  0  0
 12 14  2  0  0  0  0
 15  7  1  0  0  0  0
 17 19  2  0  0  0  0
 19 18  1  0  0  0  0
 20 14  1  6  0  0  0
 20 24  1  0  0  0  0
 22 25  1  0  0  0  0
 23 27  1  0  0  0  0
 24 22  1  1  0  0  0
 24 26  1  0  0  0  0
 25 27  1  0  0  0  0
 26 21  1  6  0  0  0
 26 23  1  0  0  0  0
 29 28  1  6  0  0  0
 29 30  1  0  0  0  0
 29  5  1  0  0  0  0
 33 32  1  6  0  0  0
 33 31  1  0  0  0  0
 34 33  1  0  0  0  0
 36 35  2  0  0  0  0
 36 34  1  0  0  0  0
 37 38  2  0  0  0  0
 38 36  1  0  0  0  0
 39 38  1  0  0  0  0
M  END
>  <MODEL>
3

>  <REMARK>
 VINA RESULT:      -3.8      1.973      2.307
  Name = 
  6 active torsions:
  status: ('A' for Active; 'I' for Inactive)
    1  A    between atoms: C_9  and  N_12
    2  A    between atoms: C_9  and  C_13
    3  A    between atoms: C_10  and  C_29
    4  A    between atoms: C_13  and  N_15
    5  A    between atoms: C_14  and  C_21
    6  A    between atoms: C_24  and  C_38
                            x       y       z     vdW  Elec       q    Type
                         _______ _______ _______ _____ _____    ______ ____

>  <TORSDO>
F 6

$$$$
