=
 OpenBabel11072411523D

 32 34  0  0  1  0  0  0  0  0999 V2000
  161.3970  206.7690  150.0200 C   0  0  0  0  0  0  0  0  0  0  0  0
  162.0170  207.2440  151.1020 C   0  0  0  0  0  3  0  0  0  0  0  0
  161.4510  207.5340  148.7260 C   0  0  1  0  0  3  0  0  0  0  0  0
  162.1790  208.7170  148.8700 O   0  0  0  0  0  1  0  0  0  0  0  0
  161.9720  206.7040  147.5560 C   0  0  0  0  0  2  0  0  0  0  0  0
  160.9000  206.3600  146.6370 N   0  0  0  0  0  1  0  0  0  0  0  0
  161.9870  206.5370  152.4150 C   0  0  0  0  0  2  0  0  0  0  0  0
  160.8180  207.0500  153.2390 C   0  0  0  0  0  2  0  0  0  0  0  0
  161.1260  209.1370  156.6640 S   0  0  0  0  0  0  0  0  0  0  0  0
  161.2930  208.1220  154.2020 C   0  0  1  0  0  3  0  0  0  0  0  0
  160.4690  209.3850  154.0190 C   0  0  1  0  0  3  0  0  0  0  0  0
  161.0940  207.6600  155.6250 C   0  0  0  0  0  2  0  0  0  0  0  0
  160.3240  210.1100  155.3560 C   0  0  1  0  0  3  0  0  0  0  0  0
  162.3450  210.2190  152.8040 O   0  0  0  0  0  1  0  0  0  0  0  0
  160.3300  211.1800  152.2750 O   0  0  0  0  0  0  0  0  0  0  0  0
  161.1020  210.2800  153.0020 C   0  0  0  0  0  0  0  0  0  0  0  0
  158.2110  211.5030  155.4620 C   0  0  0  0  0  0  0  0  0  0  0  0
  158.9140  210.2790  155.6780 N   0  0  0  0  0  2  0  0  0  0  0  0
  158.8100  212.5160  155.0140 O   0  0  0  0  0  0  0  0  0  0  0  0
  156.0270  210.7900  154.9530 O   0  0  0  0  0  1  0  0  0  0  0  0
  156.7710  211.5940  155.8170 C   0  0  0  0  0  2  0  0  0  0  0  0
  160.6790  205.5310  150.0910 N   0  0  0  0  0  2  0  0  0  0  0  0
  160.8840  202.0700  148.7070 N   0  0  0  0  0  0  0  0  0  0  0  0
  160.2720  203.3400  149.1370 C   0  0  1  0  0  3  0  0  0  0  0  0
  161.1420  201.8690  150.1380 C   0  0  0  0  0  2  0  0  0  0  0  0
  160.5850  203.1690  150.5810 C   0  0  1  0  0  3  0  0  0  0  0  0
  161.2920  204.2460  149.7940 C   0  0  2  0  0  3  0  0  0  0  0  0
  161.5210  200.1180  147.5060 C   0  0  0  0  0  2  0  0  0  0  0  0
  161.1110  201.3800  147.4750 C   0  0  0  0  0  0  0  0  0  0  0  0
  161.4460  203.1190  145.8990 O   0  0  0  0  0  1  0  0  0  0  0  0
  159.9890  201.4770  145.2590 O   0  0  0  0  0  0  0  0  0  0  0  0
  160.8610  202.0420  146.1830 C   0  0  0  0  0  0  0  0  0  0  0  0
  1 22  1  0  0  0  0
  1  2  2  0  0  0  0
  2  7  1  0  0  0  0
  3  4  1  1  0  0  0
  3  1  1  0  0  0  0
  5  3  1  0  0  0  0
  6  5  1  0  0  0  0
  7  8  1  0  0  0  0
 10  8  1  6  0  0  0
 10 12  1  0  0  0  0
 11 16  1  6  0  0  0
 11 10  1  0  0  0  0
 11 13  1  0  0  0  0
 12  9  1  0  0  0  0
 13 18  1  1  0  0  0
 13  9  1  0  0  0  0
 14 16  1  0  0  0  0
 15 16  2  0  0  0  0
 17 18  1  0  0  0  0
 17 21  1  0  0  0  0
 19 17  2  0  0  0  0
 20 21  1  0  0  0  0
 23 25  1  0  0  0  0
 24 23  1  6  0  0  0
 24 27  1  0  0  0  0
 24 26  1  0  0  0  0
 26 25  1  6  0  0  0
 27 22  1  1  0  0  0
 27 26  1  0  0  0  0
 29 28  2  0  0  0  0
 29 23  1  0  0  0  0
 30 32  1  0  0  0  0
 31 32  2  0  0  0  0
 32 29  1  0  0  0  0
M  END
>  <MODEL>
1

>  <REMARK>
 VINA RESULT:      -7.0      0.000      0.000
  Name = 
  12 active torsions:
  status: ('A' for Active; 'I' for Inactive)
    1  A    between atoms: C_2  and  C_8
    2  A    between atoms: C_2  and  C_31
    3  A    between atoms: C_5  and  C_13
    4  A    between atoms: C_7  and  C_13
    5  A    between atoms: C_7  and  N_29
    6  A    between atoms: C_10  and  C_11
    7  A    between atoms: C_12  and  C_31
    8  A    between atoms: C_15  and  C_16
    9  A    between atoms: N_17  and  C_23
   10  A    between atoms: N_20  and  C_26
   11  A    between atoms: C_23  and  C_24
   12  A    between atoms: N_29  and  C_32
                            x       y       z     vdW  Elec       q    Type
                         _______ _______ _______ _____ _____    ______ ____

>  <TORSDO>
F 12

$$$$
=
 OpenBabel11072411523D

 32 34  0  0  1  0  0  0  0  0999 V2000
  161.0720  203.5840  150.7950 C   0  0  0  0  0  0  0  0  0  0  0  0
  161.0660  204.0320  152.0520 C   0  0  0  0  0  3  0  0  0  0  0  0
  160.4180  202.2700  150.4620 C   0  0  1  0  0  3  0  0  0  0  0  0
  159.4460  202.4280  149.4720 O   0  0  0  0  0  1  0  0  0  0  0  0
  161.4160  201.1780  150.0870 C   0  0  0  0  0  2  0  0  0  0  0  0
  161.2470  200.7640  148.7040 N   0  0  0  0  0  1  0  0  0  0  0  0
  161.7080  205.3200  152.4430 C   0  0  0  0  0  2  0  0  0  0  0  0
  160.6990  206.1850  153.1780 C   0  0  0  0  0  2  0  0  0  0  0  0
  161.4630  209.1680  155.7670 S   0  0  0  0  0  0  0  0  0  0  0  0
  161.3890  207.4000  153.7710 C   0  0  1  0  0  3  0  0  0  0  0  0
  160.8280  208.6680  153.1520 C   0  0  1  0  0  3  0  0  0  0  0  0
  161.1250  207.4690  155.2540 C   0  0  0  0  0  2  0  0  0  0  0  0
  160.8480  209.8000  154.1780 C   0  0  1  0  0  3  0  0  0  0  0  0
  161.3580  208.4930  150.8330 O   0  0  0  0  0  0  0  0  0  0  0  0
  162.6130  210.0090  152.0120 O   0  0  0  0  0  1  0  0  0  0  0  0
  161.6100  209.0480  151.9350 C   0  0  0  0  0  0  0  0  0  0  0  0
  159.0460  211.5170  153.7090 C   0  0  0  0  0  0  0  0  0  0  0  0
  159.5050  210.3310  154.3580 N   0  0  0  0  0  2  0  0  0  0  0  0
  159.8190  212.1850  152.9750 O   0  0  0  0  0  0  0  0  0  0  0  0
  157.5260  212.4020  155.2720 O   0  0  0  0  0  1  0  0  0  0  0  0
  157.6580  211.9920  153.9460 C   0  0  0  0  0  2  0  0  0  0  0  0
  161.7020  204.3530  149.7620 N   0  0  0  0  0  2  0  0  0  0  0  0
  161.2180  205.3200  146.1900 N   0  0  0  0  0  0  0  0  0  0  0  0
  161.9310  204.9390  147.4210 C   0  0  1  0  0  3  0  0  0  0  0  0
  160.9190  206.5630  146.9120 C   0  0  0  0  0  2  0  0  0  0  0  0
  161.5800  206.1700  148.1780 C   0  0  1  0  0  3  0  0  0  0  0  0
  160.9840  204.8490  148.5990 C   0  0  2  0  0  3  0  0  0  0  0  0
  161.2900  205.4060  143.8130 C   0  0  0  0  0  2  0  0  0  0  0  0
  160.9510  204.7400  144.9100 C   0  0  0  0  0  0  0  0  0  0  0  0
  159.3100  203.2330  144.0990 O   0  0  0  0  0  0  0  0  0  0  0  0
  160.9030  202.3160  145.4590 O   0  0  0  0  0  1  0  0  0  0  0  0
  160.3410  203.4040  144.8010 C   0  0  0  0  0  0  0  0  0  0  0  0
  1  2  2  0  0  0  0
  2  7  1  0  0  0  0
  3  4  1  6  0  0  0
  3  1  1  0  0  0  0
  5  3  1  0  0  0  0
  6  5  1  0  0  0  0
  7  8  1  0  0  0  0
 10  8  1  6  0  0  0
 10 12  1  0  0  0  0
 11 16  1  6  0  0  0
 11 10  1  0  0  0  0
 11 13  1  0  0  0  0
 12  9  1  0  0  0  0
 13 18  1  1  0  0  0
 13  9  1  0  0  0  0
 14 16  2  0  0  0  0
 16 15  1  0  0  0  0
 17 21  1  0  0  0  0
 17 18  1  0  0  0  0
 19 17  2  0  0  0  0
 21 20  1  0  0  0  0
 22  1  1  0  0  0  0
 23 25  1  0  0  0  0
 24 23  1  6  0  0  0
 24 26  1  0  0  0  0
 24 27  1  0  0  0  0
 26 25  1  6  0  0  0
 26 27  1  0  0  0  0
 27 22  1  1  0  0  0
 28 29  2  0  0  0  0
 29 23  1  0  0  0  0
 30 32  2  0  0  0  0
 32 29  1  0  0  0  0
 32 31  1  0  0  0  0
M  END
>  <MODEL>
2

>  <REMARK>
 VINA RESULT:      -6.3      1.739      3.406
  Name = 
  12 active torsions:
  status: ('A' for Active; 'I' for Inactive)
    1  A    between atoms: C_2  and  C_8
    2  A    between atoms: C_2  and  C_31
    3  A    between atoms: C_5  and  C_13
    4  A    between atoms: C_7  and  C_13
    5  A    between atoms: C_7  and  N_29
    6  A    between atoms: C_10  and  C_11
    7  A    between atoms: C_12  and  C_31
    8  A    between atoms: C_15  and  C_16
    9  A    between atoms: N_17  and  C_23
   10  A    between atoms: N_20  and  C_26
   11  A    between atoms: C_23  and  C_24
   12  A    between atoms: N_29  and  C_32
                            x       y       z     vdW  Elec       q    Type
                         _______ _______ _______ _____ _____    ______ ____

>  <TORSDO>
F 12

$$$$
=
 OpenBabel11072411523D

 32 34  0  0  1  0  0  0  0  0999 V2000
  161.2970  207.0050  151.9580 C   0  0  0  0  0  0  0  0  0  0  0  0
  160.7760  207.8970  152.8040 C   0  0  0  0  0  3  0  0  0  0  0  0
  161.6020  205.6100  152.4300 C   0  0  1  0  0  3  0  0  0  0  0  0
  161.4360  205.4980  153.8120 O   0  0  0  0  0  1  0  0  0  0  0  0
  160.8090  204.5360  151.6900 C   0  0  0  0  0  2  0  0  0  0  0  0
  161.5490  203.2870  151.6240 N   0  0  0  0  0  1  0  0  0  0  0  0
  160.4660  209.2970  152.3970 C   0  0  0  0  0  2  0  0  0  0  0  0
  161.6040  210.2100  152.8200 C   0  0  0  0  0  2  0  0  0  0  0  0
  160.1630  211.4990  156.3480 S   0  0  0  0  0  0  0  0  0  0  0  0
  161.1210  211.1860  153.8780 C   0  0  1  0  0  3  0  0  0  0  0  0
  159.6520  211.5020  153.6600 C   0  0  1  0  0  3  0  0  0  0  0  0
  161.2480  210.5640  155.2470 C   0  0  0  0  0  2  0  0  0  0  0  0
  158.9690  211.7540  155.0030 C   0  0  1  0  0  3  0  0  0  0  0  0
  158.9320  213.7280  153.1930 O   0  0  0  0  0  1  0  0  0  0  0  0
  159.9770  212.6520  151.4560 O   0  0  0  0  0  0  0  0  0  0  0  0
  159.4990  212.6880  152.7620 C   0  0  0  0  0  0  0  0  0  0  0  0
  156.4880  211.2470  155.0550 C   0  0  0  0  0  0  0  0  0  0  0  0
  157.8510  210.8370  155.1710 N   0  0  0  0  0  2  0  0  0  0  0  0
  156.1970  212.4530  154.8410 O   0  0  0  0  0  0  0  0  0  0  0  0
  154.7610  210.4780  156.4570 O   0  0  0  0  0  1  0  0  0  0  0  0
  155.4040  210.2470  155.2410 C   0  0  0  0  0  2  0  0  0  0  0  0
  161.5680  207.3780  150.6010 N   0  0  0  0  0  2  0  0  0  0  0  0
  161.3910  205.3490  147.4730 N   0  0  0  0  0  0  0  0  0  0  0  0
  161.9950  206.1220  148.5720 C   0  0  1  0  0  3  0  0  0  0  0  0
  160.8210  206.6390  147.0620 C   0  0  0  0  0  2  0  0  0  0  0  0
  161.3720  207.4190  148.1950 C   0  0  1  0  0  3  0  0  0  0  0  0
  160.9330  206.7300  149.4640 C   0  0  2  0  0  3  0  0  0  0  0  0
  161.3710  203.0150  147.9340 C   0  0  0  0  0  2  0  0  0  0  0  0
  161.3750  203.9890  147.0320 C   0  0  0  0  0  0  0  0  0  0  0  0
  160.8300  202.5720  145.2110 O   0  0  0  0  0  1  0  0  0  0  0  0
  161.8120  204.5600  144.6530 O   0  0  0  0  0  0  0  0  0  0  0  0
  161.3260  203.6630  145.5970 C   0  0  0  0  0  0  0  0  0  0  0  0
  1  3  1  0  0  0  0
  1  2  2  0  0  0  0
  3  4  1  1  0  0  0
  5  3  1  0  0  0  0
  6  5  1  0  0  0  0
  7  2  1  0  0  0  0
  7  8  1  0  0  0  0
 10  8  1  6  0  0  0
 10 12  1  0  0  0  0
 11 16  1  6  0  0  0
 11 10  1  0  0  0  0
 11 13  1  0  0  0  0
 12  9  1  0  0  0  0
 13 18  1  1  0  0  0
 13  9  1  0  0  0  0
 15 16  2  0  0  0  0
 16 14  1  0  0  0  0
 17 18  1  0  0  0  0
 17 21  1  0  0  0  0
 19 17  2  0  0  0  0
 21 20  1  0  0  0  0
 22  1  1  0  0  0  0
 24 23  1  6  0  0  0
 24 27  1  0  0  0  0
 25 23  1  0  0  0  0
 26 25  1  6  0  0  0
 26 24  1  0  0  0  0
 26 27  1  0  0  0  0
 27 22  1  1  0  0  0
 29 23  1  0  0  0  0
 29 28  2  0  0  0  0
 30 32  1  0  0  0  0
 31 32  2  0  0  0  0
 32 29  1  0  0  0  0
M  END
>  <MODEL>
3

>  <REMARK>
 VINA RESULT:      -6.2      2.025      3.327
  Name = 
  12 active torsions:
  status: ('A' for Active; 'I' for Inactive)
    1  A    between atoms: C_2  and  C_8
    2  A    between atoms: C_2  and  C_31
    3  A    between atoms: C_5  and  C_13
    4  A    between atoms: C_7  and  C_13
    5  A    between atoms: C_7  and  N_29
    6  A    between atoms: C_10  and  C_11
    7  A    between atoms: C_12  and  C_31
    8  A    between atoms: C_15  and  C_16
    9  A    between atoms: N_17  and  C_23
   10  A    between atoms: N_20  and  C_26
   11  A    between atoms: C_23  and  C_24
   12  A    between atoms: N_29  and  C_32
                            x       y       z     vdW  Elec       q    Type
                         _______ _______ _______ _____ _____    ______ ____

>  <TORSDO>
F 12

$$$$
=
 OpenBabel11072411523D

 32 34  0  0  1  0  0  0  0  0999 V2000
  161.5230  205.0330  151.8850 C   0  0  0  0  0  0  0  0  0  0  0  0
  161.3460  205.3420  153.1720 C   0  0  0  0  0  3  0  0  0  0  0  0
  161.2530  203.6330  151.4040 C   0  0  1  0  0  3  0  0  0  0  0  0
  160.7560  202.8330  152.4350 O   0  0  0  0  0  1  0  0  0  0  0  0
  160.3460  203.5810  150.1780 C   0  0  0  0  0  2  0  0  0  0  0  0
  160.9170  202.7410  149.1380 N   0  0  0  0  0  1  0  0  0  0  0  0
  161.6090  206.7080  153.7080 C   0  0  0  0  0  2  0  0  0  0  0  0
  160.4760  207.1140  154.6350 C   0  0  0  0  0  2  0  0  0  0  0  0
  160.2340  210.1520  157.2610 S   0  0  0  0  0  0  0  0  0  0  0  0
  160.7860  208.4520  155.2800 C   0  0  1  0  0  3  0  0  0  0  0  0
  159.9890  209.5520  154.6020 C   0  0  1  0  0  3  0  0  0  0  0  0
  160.3760  208.4300  156.7320 C   0  0  0  0  0  2  0  0  0  0  0  0
  159.6330  210.6380  155.6160 C   0  0  1  0  0  3  0  0  0  0  0  0
  162.0080  210.2880  153.5670 O   0  0  0  0  0  1  0  0  0  0  0  0
  160.1170  210.5030  152.2860 O   0  0  0  0  0  0  0  0  0  0  0  0
  160.7620  210.1330  153.4610 C   0  0  0  0  0  0  0  0  0  0  0  0
  157.5000  211.7830  154.8700 C   0  0  0  0  0  0  0  0  0  0  0  0
  158.1890  210.8170  155.6650 N   0  0  0  0  0  2  0  0  0  0  0  0
  158.1370  212.5610  154.1130 O   0  0  0  0  0  0  0  0  0  0  0  0
  155.4790  210.6610  155.3060 O   0  0  0  0  0  1  0  0  0  0  0  0
  156.0230  211.9020  154.9780 C   0  0  0  0  0  2  0  0  0  0  0  0
  161.9710  206.0340  150.9620 N   0  0  0  0  0  2  0  0  0  0  0  0
  161.5020  206.5240  147.2920 N   0  0  0  0  0  0  0  0  0  0  0  0
  162.2110  206.3240  148.5680 C   0  0  1  0  0  3  0  0  0  0  0  0
  161.1590  207.8390  147.8470 C   0  0  0  0  0  2  0  0  0  0  0  0
  161.8160  207.6310  149.1580 C   0  0  1  0  0  3  0  0  0  0  0  0
  161.2530  206.3570  149.7400 C   0  0  2  0  0  3  0  0  0  0  0  0
  160.3390  206.1950  145.2420 C   0  0  0  0  0  2  0  0  0  0  0  0
  161.2680  205.7780  146.0940 C   0  0  0  0  0  0  0  0  0  0  0  0
  163.3190  204.6680  145.6680 O   0  0  0  0  0  1  0  0  0  0  0  0
  161.4550  203.3440  145.6290 O   0  0  0  0  0  0  0  0  0  0  0  0
  162.0680  204.5820  145.7830 C   0  0  0  0  0  0  0  0  0  0  0  0
  1  2  2  0  0  0  0
  2  7  1  0  0  0  0
  3  1  1  0  0  0  0
  3  4  1  1  0  0  0
  5  3  1  0  0  0  0
  6  5  1  0  0  0  0
  7  8  1  0  0  0  0
 10  8  1  6  0  0  0
 10 12  1  0  0  0  0
 11 16  1  6  0  0  0
 11 10  1  0  0  0  0
 11 13  1  0  0  0  0
 12  9  1  0  0  0  0
 13 18  1  1  0  0  0
 13  9  1  0  0  0  0
 15 16  2  0  0  0  0
 16 14  1  0  0  0  0
 17 21  1  0  0  0  0
 17 18  1  0  0  0  0
 19 17  2  0  0  0  0
 21 20  1  0  0  0  0
 22  1  1  0  0  0  0
 23 25  1  0  0  0  0
 24 23  1  6  0  0  0
 24 26  1  0  0  0  0
 24 27  1  0  0  0  0
 26 25  1  6  0  0  0
 26 27  1  0  0  0  0
 27 22  1  1  0  0  0
 28 29  2  0  0  0  0
 29 23  1  0  0  0  0
 30 32  1  0  0  0  0
 31 32  2  0  0  0  0
 32 29  1  0  0  0  0
M  END
>  <MODEL>
4

>  <REMARK>
 VINA RESULT:      -6.2      1.753      3.232
  Name = 
  12 active torsions:
  status: ('A' for Active; 'I' for Inactive)
    1  A    between atoms: C_2  and  C_8
    2  A    between atoms: C_2  and  C_31
    3  A    between atoms: C_5  and  C_13
    4  A    between atoms: C_7  and  C_13
    5  A    between atoms: C_7  and  N_29
    6  A    between atoms: C_10  and  C_11
    7  A    between atoms: C_12  and  C_31
    8  A    between atoms: C_15  and  C_16
    9  A    between atoms: N_17  and  C_23
   10  A    between atoms: N_20  and  C_26
   11  A    between atoms: C_23  and  C_24
   12  A    between atoms: N_29  and  C_32
                            x       y       z     vdW  Elec       q    Type
                         _______ _______ _______ _____ _____    ______ ____

>  <TORSDO>
F 12

$$$$
=
 OpenBabel11072411523D

 32 34  0  0  1  0  0  0  0  0999 V2000
  161.6340  208.6360  150.8910 C   0  0  0  0  0  0  0  0  0  0  0  0
  161.8560  209.2200  152.0700 C   0  0  0  0  0  3  0  0  0  0  0  0
  162.1800  209.2540  149.6320 C   0  0  1  0  0  3  0  0  0  0  0  0
  161.5960  208.6850  148.4980 O   0  0  0  0  0  1  0  0  0  0  0  0
  162.0660  210.7750  149.6080 C   0  0  0  0  0  2  0  0  0  0  0  0
  162.0280  211.2780  148.2450 N   0  0  0  0  0  1  0  0  0  0  0  0
  161.3300  208.6620  153.3490 C   0  0  0  0  0  2  0  0  0  0  0  0
  160.0360  209.3690  153.7140 C   0  0  0  0  0  2  0  0  0  0  0  0
  160.4380  212.2910  156.4500 S   0  0  0  0  0  0  0  0  0  0  0  0
  160.3370  210.7460  154.2770 C   0  0  1  0  0  3  0  0  0  0  0  0
  159.1170  211.6400  154.1440 C   0  0  1  0  0  3  0  0  0  0  0  0
  160.6580  210.6410  155.7480 C   0  0  0  0  0  2  0  0  0  0  0  0
  159.0620  212.6240  155.3110 C   0  0  1  0  0  3  0  0  0  0  0  0
  160.2220  212.4560  152.1930 O   0  0  0  0  0  0  0  0  0  0  0  0
  157.9880  212.9590  152.3360 O   0  0  0  0  0  1  0  0  0  0  0  0
  159.1430  212.3710  152.8400 C   0  0  0  0  0  0  0  0  0  0  0  0
  156.7240  213.4070  155.8860 C   0  0  0  0  0  0  0  0  0  0  0  0
  157.8010  212.4800  156.0230 N   0  0  0  0  0  2  0  0  0  0  0  0
  156.8450  214.4280  155.1600 O   0  0  0  0  0  0  0  0  0  0  0  0
  154.5570  214.2000  156.3480 O   0  0  0  0  0  1  0  0  0  0  0  0
  155.4670  213.1880  156.6500 C   0  0  0  0  0  2  0  0  0  0  0  0
  160.8750  207.4220  150.8230 N   0  0  0  0  0  2  0  0  0  0  0  0
  160.9760  203.7340  150.2580 N   0  0  0  0  0  0  0  0  0  0  0  0
  160.4130  205.0540  150.5900 C   0  0  1  0  0  3  0  0  0  0  0  0
  161.7360  203.8980  151.5040 C   0  0  0  0  0  2  0  0  0  0  0  0
  161.2240  205.2520  151.8200 C   0  0  1  0  0  3  0  0  0  0  0  0
  161.4880  206.1200  150.6140 C   0  0  2  0  0  3  0  0  0  0  0  0
  160.2540  201.6060  149.4760 C   0  0  0  0  0  2  0  0  0  0  0  0
  160.8390  202.7680  149.2120 C   0  0  0  0  0  0  0  0  0  0  0  0
  161.0670  202.2610  146.9080 O   0  0  0  0  0  0  0  0  0  0  0  0
  161.9980  204.2390  147.5780 O   0  0  0  0  0  1  0  0  0  0  0  0
  161.3050  203.0640  147.8470 C   0  0  0  0  0  0  0  0  0  0  0  0
  1  2  2  0  0  0  0
  2  7  1  0  0  0  0
  3  4  1  6  0  0  0
  3  1  1  0  0  0  0
  5  3  1  0  0  0  0
  6  5  1  0  0  0  0
  7  8  1  0  0  0  0
 10  8  1  1  0  0  0
 10 12  1  0  0  0  0
 11 16  1  6  0  0  0
 11 10  1  0  0  0  0
 11 13  1  0  0  0  0
 12  9  1  0  0  0  0
 13 18  1  1  0  0  0
 13  9  1  0  0  0  0
 14 16  2  0  0  0  0
 15 16  1  0  0  0  0
 17 18  1  0  0  0  0
 17 21  1  0  0  0  0
 19 17  2  0  0  0  0
 20 21  1  0  0  0  0
 22  1  1  0  0  0  0
 23 25  1  0  0  0  0
 24 23  1  6  0  0  0
 24 27  1  0  0  0  0
 24 26  1  0  0  0  0
 26 25  1  6  0  0  0
 27 22  1  1  0  0  0
 27 26  1  0  0  0  0
 29 28  2  0  0  0  0
 29 23  1  0  0  0  0
 30 32  2  0  0  0  0
 31 32  1  0  0  0  0
 32 29  1  0  0  0  0
M  END
>  <MODEL>
5

>  <REMARK>
 VINA RESULT:      -6.0      2.165      2.801
  Name = 
  12 active torsions:
  status: ('A' for Active; 'I' for Inactive)
    1  A    between atoms: C_2  and  C_8
    2  A    between atoms: C_2  and  C_31
    3  A    between atoms: C_5  and  C_13
    4  A    between atoms: C_7  and  C_13
    5  A    between atoms: C_7  and  N_29
    6  A    between atoms: C_10  and  C_11
    7  A    between atoms: C_12  and  C_31
    8  A    between atoms: C_15  and  C_16
    9  A    between atoms: N_17  and  C_23
   10  A    between atoms: N_20  and  C_26
   11  A    between atoms: C_23  and  C_24
   12  A    between atoms: N_29  and  C_32
                            x       y       z     vdW  Elec       q    Type
                         _______ _______ _______ _____ _____    ______ ____

>  <TORSDO>
F 12

$$$$
=
 OpenBabel11072411523D

 32 34  0  0  1  0  0  0  0  0999 V2000
  161.5890  208.4520  150.2170 C   0  0  0  0  0  0  0  0  0  0  0  0
  161.5990  209.0670  151.4010 C   0  0  0  0  0  3  0  0  0  0  0  0
  162.3740  209.0210  149.0660 C   0  0  1  0  0  3  0  0  0  0  0  0
  162.6510  208.0400  148.1120 O   0  0  0  0  0  1  0  0  0  0  0  0
  161.7130  210.2400  148.4300 C   0  0  0  0  0  2  0  0  0  0  0  0
  162.3300  211.4730  148.8910 N   0  0  0  0  0  1  0  0  0  0  0  0
  160.8310  208.5580  152.5720 C   0  0  0  0  0  2  0  0  0  0  0  0
  161.6890  207.5750  153.3510 C   0  0  0  0  0  2  0  0  0  0  0  0
  159.7540  207.5110  156.8770 S   0  0  0  0  0  0  0  0  0  0  0  0
  161.4600  207.7530  154.8410 C   0  0  1  0  0  3  0  0  0  0  0  0
  161.0400  209.1830  155.1340 C   0  0  1  0  0  3  0  0  0  0  0  0
  160.3400  206.8530  155.3000 C   0  0  0  0  0  2  0  0  0  0  0  0
  160.0820  209.2100  156.3240 C   0  0  1  0  0  3  0  0  0  0  0  0
  162.7530  210.7030  154.4690 O   0  0  0  0  0  0  0  0  0  0  0  0
  162.7890  210.0960  156.6810 O   0  0  0  0  0  1  0  0  0  0  0  0
  162.2390  210.0350  155.4050 C   0  0  0  0  0  0  0  0  0  0  0  0
  158.5950  211.2440  156.0670 C   0  0  0  0  0  0  0  0  0  0  0  0
  158.8290  209.8410  155.9380 N   0  0  0  0  0  2  0  0  0  0  0  0
  159.4700  211.9950  156.5710 O   0  0  0  0  0  0  0  0  0  0  0  0
  156.3960  210.7730  155.3780 O   0  0  0  0  0  1  0  0  0  0  0  0
  157.2870  211.8110  155.6480 C   0  0  0  0  0  2  0  0  0  0  0  0
  160.8290  207.2500  150.0400 N   0  0  0  0  0  2  0  0  0  0  0  0
  161.0240  203.6260  149.1660 N   0  0  0  0  0  0  0  0  0  0  0  0
  160.4130  204.9410  149.4290 C   0  0  1  0  0  3  0  0  0  0  0  0
  161.3330  203.6360  150.6020 C   0  0  0  0  0  2  0  0  0  0  0  0
  160.7780  204.9830  150.8700 C   0  0  1  0  0  3  0  0  0  0  0  0
  161.4450  205.9390  149.9120 C   0  0  2  0  0  3  0  0  0  0  0  0
  161.0310  201.4590  148.1840 C   0  0  0  0  0  2  0  0  0  0  0  0
  161.2170  202.7650  148.0410 C   0  0  0  0  0  0  0  0  0  0  0  0
  161.1890  202.7530  145.6700 O   0  0  0  0  0  0  0  0  0  0  0  0
  162.3490  204.4720  146.6320 O   0  0  0  0  0  1  0  0  0  0  0  0
  161.5810  203.3170  146.7240 C   0  0  0  0  0  0  0  0  0  0  0  0
  1  2  2  0  0  0  0
  2  7  1  0  0  0  0
  3  4  1  6  0  0  0
  3  1  1  0  0  0  0
  5  6  1  0  0  0  0
  5  3  1  0  0  0  0
  7  8  1  0  0  0  0
 10  8  1  6  0  0  0
 10 11  1  0  0  0  0
 10 12  1  0  0  0  0
 11 16  1  1  0  0  0
 11 13  1  0  0  0  0
 12  9  1  0  0  0  0
 13 18  1  6  0  0  0
 13  9  1  0  0  0  0
 14 16  2  0  0  0  0
 16 15  1  0  0  0  0
 17 19  2  0  0  0  0
 18 17  1  0  0  0  0
 20 21  1  0  0  0  0
 21 17  1  0  0  0  0
 22  1  1  0  0  0  0
 23 25  1  0  0  0  0
 24 23  1  6  0  0  0
 24 27  1  0  0  0  0
 24 26  1  0  0  0  0
 26 25  1  6  0  0  0
 27 22  1  1  0  0  0
 27 26  1  0  0  0  0
 29 28  2  0  0  0  0
 29 23  1  0  0  0  0
 30 32  2  0  0  0  0
 31 32  1  0  0  0  0
 32 29  1  0  0  0  0
M  END
>  <MODEL>
6

>  <REMARK>
 VINA RESULT:      -5.9      1.858      2.217
  Name = 
  12 active torsions:
  status: ('A' for Active; 'I' for Inactive)
    1  A    between atoms: C_2  and  C_8
    2  A    between atoms: C_2  and  C_31
    3  A    between atoms: C_5  and  C_13
    4  A    between atoms: C_7  and  C_13
    5  A    between atoms: C_7  and  N_29
    6  A    between atoms: C_10  and  C_11
    7  A    between atoms: C_12  and  C_31
    8  A    between atoms: C_15  and  C_16
    9  A    between atoms: N_17  and  C_23
   10  A    between atoms: N_20  and  C_26
   11  A    between atoms: C_23  and  C_24
   12  A    between atoms: N_29  and  C_32
                            x       y       z     vdW  Elec       q    Type
                         _______ _______ _______ _____ _____    ______ ____

>  <TORSDO>
F 12

$$$$
=
 OpenBabel11072411523D

 32 34  0  0  1  0  0  0  0  0999 V2000
  160.8670  208.1820  152.6400 C   0  0  0  0  0  0  0  0  0  0  0  0
  160.9090  207.3350  151.6100 C   0  0  0  0  0  3  0  0  0  0  0  0
  160.7060  207.6560  154.0410 C   0  0  1  0  0  3  0  0  0  0  0  0
  160.9720  206.2870  154.0980 O   0  0  0  0  0  1  0  0  0  0  0  0
  161.5300  208.4230  155.0710 C   0  0  0  0  0  2  0  0  0  0  0  0
  160.6790  209.2310  155.9290 N   0  0  0  0  0  1  0  0  0  0  0  0
  161.0540  207.7980  150.2000 C   0  0  0  0  0  2  0  0  0  0  0  0
  160.5450  206.7200  149.2590 C   0  0  0  0  0  2  0  0  0  0  0  0
  163.2350  205.0460  146.7800 S   0  0  0  0  0  0  0  0  0  0  0  0
  161.6950  205.8370  148.8100 C   0  0  1  0  0  3  0  0  0  0  0  0
  161.1840  204.4430  148.4890 C   0  0  1  0  0  3  0  0  0  0  0  0
  162.3070  206.3930  147.5480 C   0  0  0  0  0  2  0  0  0  0  0  0
  162.0100  203.8340  147.3570 C   0  0  1  0  0  3  0  0  0  0  0  0
  160.7960  202.3940  149.6450 O   0  0  0  0  0  0  0  0  0  0  0  0
  161.7620  204.0570  150.8970 O   0  0  0  0  0  1  0  0  0  0  0  0
  161.2350  203.5740  149.7040 C   0  0  0  0  0  0  0  0  0  0  0  0
  160.6680  202.1320  146.0470 C   0  0  0  0  0  0  0  0  0  0  0  0
  161.1400  203.4650  146.2500 N   0  0  0  0  0  2  0  0  0  0  0  0
  161.0310  201.2010  146.8110 O   0  0  0  0  0  0  0  0  0  0  0  0
  159.2860  203.0320  144.3690 O   0  0  0  0  0  1  0  0  0  0  0  0
  159.7810  201.8380  144.8910 C   0  0  0  0  0  2  0  0  0  0  0  0
  160.9730  209.5940  152.4130 N   0  0  0  0  0  2  0  0  0  0  0  0
  159.0940  212.7880  151.9690 N   0  0  0  0  0  0  0  0  0  0  0  0
  160.2480  211.8750  152.0290 C   0  0  1  0  0  3  0  0  0  0  0  0
  159.0080  212.5520  153.4160 C   0  0  0  0  0  2  0  0  0  0  0  0
  160.1280  211.5860  153.4830 C   0  0  1  0  0  3  0  0  0  0  0  0
  159.8320  210.4920  152.4860 C   0  0  2  0  0  3  0  0  0  0  0  0
  157.2650  214.1490  151.2860 C   0  0  0  0  0  2  0  0  0  0  0  0
  158.3990  213.5360  150.9680 C   0  0  0  0  0  0  0  0  0  0  0  0
  160.1110  214.1080  149.4300 O   0  0  0  0  0  1  0  0  0  0  0  0
  158.1920  213.2780  148.5040 O   0  0  0  0  0  0  0  0  0  0  0  0
  158.9470  213.6620  149.6070 C   0  0  0  0  0  0  0  0  0  0  0  0
  1  3  1  0  0  0  0
  2  1  2  0  0  0  0
  3  4  1  6  0  0  0
  3  5  1  0  0  0  0
  5  6  1  0  0  0  0
  7  2  1  0  0  0  0
  8  7  1  0  0  0  0
  9 13  1  0  0  0  0
  9 12  1  0  0  0  0
 10  8  1  6  0  0  0
 11 10  1  0  0  0  0
 11 16  1  1  0  0  0
 12 10  1  0  0  0  0
 13 18  1  6  0  0  0
 13 11  1  0  0  0  0
 14 16  2  0  0  0  0
 16 15  1  0  0  0  0
 17 18  1  0  0  0  0
 17 19  2  0  0  0  0
 20 21  1  0  0  0  0
 21 17  1  0  0  0  0
 22  1  1  0  0  0  0
 23 25  1  0  0  0  0
 24 23  1  6  0  0  0
 24 27  1  0  0  0  0
 24 26  1  0  0  0  0
 26 25  1  6  0  0  0
 27 22  1  1  0  0  0
 27 26  1  0  0  0  0
 29 28  2  0  0  0  0
 29 23  1  0  0  0  0
 30 32  1  0  0  0  0
 31 32  2  0  0  0  0
 32 29  1  0  0  0  0
M  END
>  <MODEL>
7

>  <REMARK>
 VINA RESULT:      -5.8      3.466      9.800
  Name = 
  12 active torsions:
  status: ('A' for Active; 'I' for Inactive)
    1  A    between atoms: C_2  and  C_8
    2  A    between atoms: C_2  and  C_31
    3  A    between atoms: C_5  and  C_13
    4  A    between atoms: C_7  and  C_13
    5  A    between atoms: C_7  and  N_29
    6  A    between atoms: C_10  and  C_11
    7  A    between atoms: C_12  and  C_31
    8  A    between atoms: C_15  and  C_16
    9  A    between atoms: N_17  and  C_23
   10  A    between atoms: N_20  and  C_26
   11  A    between atoms: C_23  and  C_24
   12  A    between atoms: N_29  and  C_32
                            x       y       z     vdW  Elec       q    Type
                         _______ _______ _______ _____ _____    ______ ____

>  <TORSDO>
F 12

$$$$
=
 OpenBabel11072411523D

 32 34  0  0  1  0  0  0  0  0999 V2000
  162.0610  210.1310  149.8450 C   0  0  0  0  0  0  0  0  0  0  0  0
  161.5800  209.1320  149.1030 C   0  0  0  0  0  3  0  0  0  0  0  0
  162.3180  211.4760  149.2210 C   0  0  1  0  0  3  0  0  0  0  0  0
  163.1830  211.3680  148.1300 O   0  0  0  0  0  1  0  0  0  0  0  0
  161.0400  212.2180  148.8400 C   0  0  0  0  0  2  0  0  0  0  0  0
  160.8150  212.1740  147.4050 N   0  0  0  0  0  1  0  0  0  0  0  0
  161.3190  207.7750  149.6630 C   0  0  0  0  0  2  0  0  0  0  0  0
  160.8140  206.8610  148.5600 C   0  0  0  0  0  2  0  0  0  0  0  0
  163.3400  204.6960  146.2990 S   0  0  0  0  0  0  0  0  0  0  0  0
  161.8710  205.8280  148.2160 C   0  0  1  0  0  3  0  0  0  0  0  0
  161.2230  204.4690  148.0180 C   0  0  1  0  0  3  0  0  0  0  0  0
  162.5480  206.1960  146.9190 C   0  0  0  0  0  2  0  0  0  0  0  0
  161.9930  203.6740  146.9650 C   0  0  1  0  0  3  0  0  0  0  0  0
  160.7590  202.5290  149.3260 O   0  0  0  0  0  0  0  0  0  0  0  0
  161.5840  204.3240  150.4950 O   0  0  0  0  0  1  0  0  0  0  0  0
  161.1750  203.7180  149.3110 C   0  0  0  0  0  0  0  0  0  0  0  0
  160.6060  201.9600  145.7180 C   0  0  0  0  0  0  0  0  0  0  0  0
  161.0990  203.2910  145.8820 N   0  0  0  0  0  2  0  0  0  0  0  0
  160.9700  201.0420  146.4980 O   0  0  0  0  0  0  0  0  0  0  0  0
  159.0960  202.8260  144.1350 O   0  0  0  0  0  1  0  0  0  0  0  0
  159.6950  201.6500  144.5850 C   0  0  0  0  0  2  0  0  0  0  0  0
  162.3340  209.9240  151.2370 N   0  0  0  0  0  2  0  0  0  0  0  0
  160.9900  210.5420  154.6640 N   0  0  0  0  0  0  0  0  0  0  0  0
  161.5600  209.7930  153.5300 C   0  0  1  0  0  3  0  0  0  0  0  0
  159.7940  210.6410  153.8170 C   0  0  0  0  0  2  0  0  0  0  0  0
  160.3740  209.9430  152.6460 C   0  0  1  0  0  3  0  0  0  0  0  0
  161.6550  210.6590  152.2910 C   0  0  2  0  0  3  0  0  0  0  0  0
  160.7050  211.8810  156.6100 C   0  0  0  0  0  2  0  0  0  0  0  0
  161.4140  210.9640  155.9620 C   0  0  0  0  0  0  0  0  0  0  0  0
  162.5480  209.2040  157.0750 O   0  0  0  0  0  1  0  0  0  0  0  0
  163.7960  211.0760  156.6640 O   0  0  0  0  0  0  0  0  0  0  0  0
  162.6010  210.3680  156.5970 C   0  0  0  0  0  0  0  0  0  0  0  0
  1 22  1  0  0  0  0
  2  7  1  0  0  0  0
  2  1  2  0  0  0  0
  3  4  1  6  0  0  0
  3  1  1  0  0  0  0
  5  3  1  0  0  0  0
  6  5  1  0  0  0  0
  8  7  1  0  0  0  0
  9 12  1  0  0  0  0
  9 13  1  0  0  0  0
 10  8  1  6  0  0  0
 11 10  1  0  0  0  0
 11 16  1  1  0  0  0
 12 10  1  0  0  0  0
 13 18  1  6  0  0  0
 13 11  1  0  0  0  0
 16 14  2  0  0  0  0
 16 15  1  0  0  0  0
 17 18  1  0  0  0  0
 17 19  2  0  0  0  0
 20 21  1  0  0  0  0
 21 17  1  0  0  0  0
 23 29  1  0  0  0  0
 24 23  1  1  0  0  0
 25 23  1  0  0  0  0
 26 24  1  0  0  0  0
 26 25  1  1  0  0  0
 27 22  1  6  0  0  0
 27 26  1  0  0  0  0
 27 24  1  0  0  0  0
 29 32  1  0  0  0  0
 29 28  2  0  0  0  0
 32 31  2  0  0  0  0
 32 30  1  0  0  0  0
M  END
>  <MODEL>
8

>  <REMARK>
 VINA RESULT:      -5.7      3.526      9.807
  Name = 
  12 active torsions:
  status: ('A' for Active; 'I' for Inactive)
    1  A    between atoms: C_2  and  C_8
    2  A    between atoms: C_2  and  C_31
    3  A    between atoms: C_5  and  C_13
    4  A    between atoms: C_7  and  C_13
    5  A    between atoms: C_7  and  N_29
    6  A    between atoms: C_10  and  C_11
    7  A    between atoms: C_12  and  C_31
    8  A    between atoms: C_15  and  C_16
    9  A    between atoms: N_17  and  C_23
   10  A    between atoms: N_20  and  C_26
   11  A    between atoms: C_23  and  C_24
   12  A    between atoms: N_29  and  C_32
                            x       y       z     vdW  Elec       q    Type
                         _______ _______ _______ _____ _____    ______ ____

>  <TORSDO>
F 12

$$$$
=
 OpenBabel11072411523D

 32 34  0  0  1  0  0  0  0  0999 V2000
  161.7610  207.2050  149.3900 C   0  0  0  0  0  0  0  0  0  0  0  0
  161.5900  206.6110  150.5720 C   0  0  0  0  0  3  0  0  0  0  0  0
  161.3310  206.5070  148.1280 C   0  0  1  0  0  3  0  0  0  0  0  0
  162.3080  206.6120  147.1360 O   0  0  0  0  0  1  0  0  0  0  0  0
  160.9260  205.0530  148.3520 C   0  0  0  0  0  2  0  0  0  0  0  0
  161.7360  204.1520  147.5490 N   0  0  0  0  0  1  0  0  0  0  0  0
  162.0080  207.2480  151.8540 C   0  0  0  0  0  2  0  0  0  0  0  0
  160.8270  207.2840  152.8090 C   0  0  0  0  0  2  0  0  0  0  0  0
  160.6950  208.4960  156.6430 S   0  0  0  0  0  0  0  0  0  0  0  0
  161.1920  208.0670  154.0570 C   0  0  1  0  0  3  0  0  0  0  0  0
  160.4550  209.3960  154.0690 C   0  0  1  0  0  3  0  0  0  0  0  0
  160.7630  207.3050  155.2860 C   0  0  0  0  0  2  0  0  0  0  0  0
  160.1370  209.8010  155.5080 C   0  0  1  0  0  3  0  0  0  0  0  0
  160.6910  211.4190  152.8290 O   0  0  0  0  0  0  0  0  0  0  0  0
  162.6580  210.3750  153.3820 O   0  0  0  0  0  1  0  0  0  0  0  0
  161.2690  210.4520  153.3930 C   0  0  0  0  0  0  0  0  0  0  0  0
  158.0820  211.2780  155.5920 C   0  0  0  0  0  0  0  0  0  0  0  0
  158.7030  209.9940  155.6640 N   0  0  0  0  0  2  0  0  0  0  0  0
  158.7740  212.3170  155.4310 O   0  0  0  0  0  0  0  0  0  0  0  0
  156.0600  212.0270  154.6500 O   0  0  0  0  0  1  0  0  0  0  0  0
  156.6090  211.3900  155.7620 C   0  0  0  0  0  2  0  0  0  0  0  0
  162.3540  208.5080  149.3210 N   0  0  0  0  0  2  0  0  0  0  0  0
  161.5880  211.8880  147.9360 N   0  0  0  0  0  0  0  0  0  0  0  0
  162.3840  210.6980  148.2810 C   0  0  1  0  0  3  0  0  0  0  0  0
  161.5410  212.1080  149.3870 C   0  0  0  0  0  2  0  0  0  0  0  0
  162.2880  210.8820  149.7540 C   0  0  1  0  0  3  0  0  0  0  0  0
  161.5770  209.7180  149.1070 C   0  0  2  0  0  3  0  0  0  0  0  0
  159.8150  212.4010  146.4340 C   0  0  0  0  0  2  0  0  0  0  0  0
  161.1000  212.5160  146.7470 C   0  0  0  0  0  0  0  0  0  0  0  0
  162.6970  214.2320  146.3930 O   0  0  0  0  0  1  0  0  0  0  0  0
  162.0940  213.0490  144.5310 O   0  0  0  0  0  0  0  0  0  0  0  0
  161.9980  213.3120  145.8930 C   0  0  0  0  0  0  0  0  0  0  0  0
  1  2  2  0  0  0  0
  2  7  1  0  0  0  0
  3  4  1  6  0  0  0
  3  5  1  0  0  0  0
  3  1  1  0  0  0  0
  6  5  1  0  0  0  0
  7  8  1  0  0  0  0
 10  8  1  6  0  0  0
 10 11  1  0  0  0  0
 10 12  1  0  0  0  0
 11 16  1  1  0  0  0
 11 13  1  0  0  0  0
 12  9  1  0  0  0  0
 13 18  1  6  0  0  0
 13  9  1  0  0  0  0
 14 16  2  0  0  0  0
 15 16  1  0  0  0  0
 17 18  1  0  0  0  0
 17 21  1  0  0  0  0
 19 17  2  0  0  0  0
 20 21  1  0  0  0  0
 22  1  1  0  0  0  0
 23 25  1  0  0  0  0
 24 23  1  6  0  0  0
 24 27  1  0  0  0  0
 24 26  1  0  0  0  0
 26 25  1  6  0  0  0
 27 22  1  1  0  0  0
 27 26  1  0  0  0  0
 28 29  2  0  0  0  0
 29 23  1  0  0  0  0
 31 32  2  0  0  0  0
 32 30  1  0  0  0  0
 32 29  1  0  0  0  0
M  END
>  <MODEL>
9

>  <REMARK>
 VINA RESULT:      -5.5      3.012      5.803
  Name = 
  12 active torsions:
  status: ('A' for Active; 'I' for Inactive)
    1  A    between atoms: C_2  and  C_8
    2  A    between atoms: C_2  and  C_31
    3  A    between atoms: C_5  and  C_13
    4  A    between atoms: C_7  and  C_13
    5  A    between atoms: C_7  and  N_29
    6  A    between atoms: C_10  and  C_11
    7  A    between atoms: C_12  and  C_31
    8  A    between atoms: C_15  and  C_16
    9  A    between atoms: N_17  and  C_23
   10  A    between atoms: N_20  and  C_26
   11  A    between atoms: C_23  and  C_24
   12  A    between atoms: N_29  and  C_32
                            x       y       z     vdW  Elec       q    Type
                         _______ _______ _______ _____ _____    ______ ____

>  <TORSDO>
F 12

$$$$
