=
 OpenBabel11072414123D

 28 29  0  0  1  0  0  0  0  0999 V2000
  162.3810  206.1000  152.2920 N   0  0  0  0  0  2  0  0  0  0  0  0
  160.9140  207.0570  154.2660 S   0  0  0  0  0  0  0  0  0  0  0  0
  161.4270  207.0810  152.7180 C   0  0  0  0  0  0  0  0  0  0  0  0
  160.8600  208.0440  151.8230 N   0  0  0  0  0  2  0  0  0  0  0  0
  161.1640  210.4310  152.0460 C   0  0  0  0  0  3  0  0  0  0  0  0
  161.4930  209.2740  151.4680 C   0  0  0  0  0  3  0  0  0  0  0  0
  159.6020  212.5250  154.5300 C   0  0  2  0  0  3  0  0  0  0  0  0
  160.1000  210.5990  153.0940 C   0  0  1  0  0  3  0  0  0  0  0  0
  160.6090  211.3830  154.3140 C   0  0  2  0  0  3  0  0  0  0  0  0
  158.9900  211.3690  152.5990 N   0  0  0  0  0  0  0  0  0  0  0  0
  158.8630  212.3600  155.7050 O   0  0  0  0  0  1  0  0  0  0  0  0
  157.6020  213.3080  153.0220 C   0  0  0  0  0  1  0  0  0  0  0  0
  158.7110  212.3670  153.3470 C   0  0  0  0  0  0  0  0  0  0  0  0
  162.3070  210.5630  155.6570 C   0  0  0  0  0  1  0  0  0  0  0  0
  160.9150  210.6130  155.4650 O   0  0  0  0  0  0  0  0  0  0  0  0
  162.1800  205.1760  151.1830 C   0  0  0  0  0  2  0  0  0  0  0  0
  160.7860  204.5620  151.2490 C   0  0  2  0  0  3  0  0  0  0  0  0
  161.6570  202.3750  151.7350 O   0  0  0  0  0  1  0  0  0  0  0  0
  160.7600  203.3510  152.1740 C   0  0  0  0  0  2  0  0  0  0  0  0
  160.3610  204.1980  149.9680 O   0  0  0  0  0  0  0  0  0  0  0  0
  161.3120  206.9690  147.6550 C   0  0  0  0  0  2  0  0  0  0  0  0
  161.5350  204.0490  147.8950 C   0  0  0  0  0  2  0  0  0  0  0  0
  161.7330  206.1150  146.4550 C   0  0  1  0  0  3  0  0  0  0  0  0
  160.4350  206.1730  148.6190 C   0  0  0  0  0  2  0  0  0  0  0  0
  161.1740  204.9230  149.0920 C   0  0  1  0  0  3  0  0  0  0  0  0
  162.4200  204.8270  146.9210 C   0  0  0  0  0  2  0  0  0  0  0  0
  160.6250  205.8150  145.6570 O   0  0  0  0  0  0  0  0  0  0  0  0
  161.1620  205.4270  144.4300 C   0  0  0  0  0  1  0  0  0  0  0  0
  1  3  1  0  0  0  0
  3  2  2  0  0  0  0
  4  3  1  0  0  0  0
  6  4  1  0  0  0  0
  6  5  2  0  0  0  0
  7 11  1  1  0  0  0
  8  5  1  6  0  0  0
  8  9  1  0  0  0  0
  9  7  1  0  0  0  0
  9 15  1  1  0  0  0
 10  8  1  0  0  0  0
 10 13  2  0  0  0  0
 12 13  1  0  0  0  0
 13  7  1  0  0  0  0
 15 14  1  0  0  0  0
 16  1  1  0  0  0  0
 17 16  1  6  0  0  0
 17 19  1  0  0  0  0
 18 19  1  0  0  0  0
 20 17  1  0  0  0  0
 21 24  1  0  0  0  0
 22 25  1  0  0  0  0
 23 27  1  1  0  0  0
 23 26  1  0  0  0  0
 23 21  1  0  0  0  0
 24 25  1  0  0  0  0
 25 20  1  1  0  0  0
 26 22  1  0  0  0  0
 28 27  1  0  0  0  0
M  END
>  <MODEL>
1

>  <REMARK>
 VINA RESULT:      -6.6      0.000      0.000
  Name = 
  11 active torsions:
  status: ('A' for Active; 'I' for Inactive)
    1  A    between atoms: C_1  and  C_11
    2  A    between atoms: C_1  and  N_21
    3  A    between atoms: C_4  and  C_22
    4  A    between atoms: O_5  and  C_13
    5  A    between atoms: O_6  and  C_8
    6  A    between atoms: C_11  and  C_15
    7  A    between atoms: C_11  and  O_19
    8  A    between atoms: O_19  and  C_20
    9  A    between atoms: N_21  and  C_24
   10  A    between atoms: N_23  and  C_24
   11  A    between atoms: N_23  and  C_26
                            x       y       z     vdW  Elec       q    Type
                         _______ _______ _______ _____ _____    ______ ____

>  <TORSDO>
F 11

$$$$
=
 OpenBabel11072414123D

 28 29  0  0  1  0  0  0  0  0999 V2000
  161.8950  210.2920  148.5880 N   0  0  0  0  0  2  0  0  0  0  0  0
  162.1890  209.5240  151.0960 S   0  0  0  0  0  0  0  0  0  0  0  0
  161.9880  209.1980  149.5100 C   0  0  0  0  0  0  0  0  0  0  0  0
  161.9710  207.8310  149.0880 N   0  0  0  0  0  2  0  0  0  0  0  0
  160.6900  205.9460  148.2850 C   0  0  0  0  0  3  0  0  0  0  0  0
  160.9440  207.2560  148.2790 C   0  0  0  0  0  3  0  0  0  0  0  0
  160.6400  203.4350  150.8710 C   0  0  2  0  0  3  0  0  0  0  0  0
  161.4390  204.9260  149.0940 C   0  0  1  0  0  3  0  0  0  0  0  0
  160.9840  204.9010  150.5620 C   0  0  2  0  0  3  0  0  0  0  0  0
  161.1990  203.5920  148.6120 N   0  0  0  0  0  0  0  0  0  0  0  0
  161.5400  202.8630  151.7740 O   0  0  0  0  0  1  0  0  0  0  0  0
  160.4770  201.3710  149.2580 C   0  0  0  0  0  1  0  0  0  0  0  0
  160.7960  202.8010  149.5330 C   0  0  0  0  0  0  0  0  0  0  0  0
  161.0940  206.2630  152.4320 C   0  0  0  0  0  1  0  0  0  0  0  0
  161.8460  205.5370  151.4910 O   0  0  0  0  0  0  0  0  0  0  0  0
  162.2660  211.6670  148.8950 C   0  0  0  0  0  2  0  0  0  0  0  0
  161.4430  212.6390  148.0570 C   0  0  2  0  0  3  0  0  0  0  0  0
  160.4240  212.9460  150.2120 O   0  0  0  0  0  1  0  0  0  0  0  0
  160.5410  213.4990  148.9340 C   0  0  0  0  0  2  0  0  0  0  0  0
  160.6760  211.9350  147.1230 O   0  0  0  0  0  0  0  0  0  0  0  0
  159.4340  213.1270  143.8110 C   0  0  0  0  0  2  0  0  0  0  0  0
  161.9020  213.0470  145.4020 C   0  0  0  0  0  2  0  0  0  0  0  0
  160.7900  213.4330  143.1680 C   0  0  1  0  0  3  0  0  0  0  0  0
  159.5890  212.1900  145.0070 C   0  0  0  0  0  2  0  0  0  0  0  0
  160.5360  212.8030  146.0360 C   0  0  1  0  0  3  0  0  0  0  0  0
  161.7690  213.9900  144.2070 C   0  0  0  0  0  2  0  0  0  0  0  0
  161.3170  212.2840  142.5690 O   0  0  0  0  0  0  0  0  0  0  0  0
  162.2570  212.7570  141.6540 C   0  0  0  0  0  1  0  0  0  0  0  0
  1 16  1  0  0  0  0
  1  3  1  0  0  0  0
  3  2  2  0  0  0  0
  4  3  1  0  0  0  0
  6  5  2  0  0  0  0
  6  4  1  0  0  0  0
  7 11  1  1  0  0  0
  8  5  1  6  0  0  0
  8  9  1  0  0  0  0
  9  7  1  0  0  0  0
  9 15  1  1  0  0  0
 10  8  1  0  0  0  0
 10 13  2  0  0  0  0
 12 13  1  0  0  0  0
 13  7  1  0  0  0  0
 15 14  1  0  0  0  0
 17 16  1  1  0  0  0
 17 19  1  0  0  0  0
 19 18  1  0  0  0  0
 20 17  1  0  0  0  0
 21 24  1  0  0  0  0
 22 25  1  0  0  0  0
 23 27  1  1  0  0  0
 23 21  1  0  0  0  0
 23 26  1  0  0  0  0
 24 25  1  0  0  0  0
 25 20  1  1  0  0  0
 26 22  1  0  0  0  0
 28 27  1  0  0  0  0
M  END
>  <MODEL>
2

>  <REMARK>
 VINA RESULT:      -6.2      4.745      8.073
  Name = 
  11 active torsions:
  status: ('A' for Active; 'I' for Inactive)
    1  A    between atoms: C_1  and  C_11
    2  A    between atoms: C_1  and  N_21
    3  A    between atoms: C_4  and  C_22
    4  A    between atoms: O_5  and  C_13
    5  A    between atoms: O_6  and  C_8
    6  A    between atoms: C_11  and  C_15
    7  A    between atoms: C_11  and  O_19
    8  A    between atoms: O_19  and  C_20
    9  A    between atoms: N_21  and  C_24
   10  A    between atoms: N_23  and  C_24
   11  A    between atoms: N_23  and  C_26
                            x       y       z     vdW  Elec       q    Type
                         _______ _______ _______ _____ _____    ______ ____

>  <TORSDO>
F 11

$$$$
=
 OpenBabel11072414123D

 28 29  0  0  1  0  0  0  0  0999 V2000
  161.2130  206.6550  152.4300 N   0  0  0  0  0  2  0  0  0  0  0  0
  161.9940  208.7750  151.0650 S   0  0  0  0  0  0  0  0  0  0  0  0
  161.3050  208.0850  152.3730 C   0  0  0  0  0  0  0  0  0  0  0  0
  160.8710  208.9280  153.4450 N   0  0  0  0  0  2  0  0  0  0  0  0
  160.8460  211.2990  153.9090 C   0  0  0  0  0  3  0  0  0  0  0  0
  161.5160  210.1490  153.8120 C   0  0  0  0  0  3  0  0  0  0  0  0
  158.0640  213.5220  153.3500 C   0  0  2  0  0  3  0  0  0  0  0  0
  159.3800  211.4710  153.6290 C   0  0  1  0  0  3  0  0  0  0  0  0
  158.7780  212.6560  154.4010 C   0  0  2  0  0  3  0  0  0  0  0  0
  159.1410  211.7730  152.2430 N   0  0  0  0  0  0  0  0  0  0  0  0
  156.6760  213.5000  153.5040 O   0  0  0  0  0  1  0  0  0  0  0  0
  158.0800  213.3420  150.7320 C   0  0  0  0  0  1  0  0  0  0  0  0
  158.4420  212.8330  152.0850 C   0  0  0  0  0  0  0  0  0  0  0  0
  157.7440  210.9460  155.5710 C   0  0  0  0  0  1  0  0  0  0  0  0
  158.0090  212.3260  155.5460 O   0  0  0  0  0  0  0  0  0  0  0  0
  161.7010  205.7520  151.3960 C   0  0  0  0  0  2  0  0  0  0  0  0
  160.8320  204.5010  151.3310 C   0  0  2  0  0  3  0  0  0  0  0  0
  161.0660  202.1320  150.9940 O   0  0  0  0  0  1  0  0  0  0  0  0
  161.6520  203.2450  151.6020 C   0  0  0  0  0  2  0  0  0  0  0  0
  160.2140  204.4110  150.0800 O   0  0  0  0  0  0  0  0  0  0  0  0
  161.3610  207.0110  147.6600 C   0  0  0  0  0  2  0  0  0  0  0  0
  161.4390  204.1010  148.0540 C   0  0  0  0  0  2  0  0  0  0  0  0
  161.7760  206.0780  146.5180 C   0  0  1  0  0  3  0  0  0  0  0  0
  160.4200  206.3070  148.6350 C   0  0  0  0  0  2  0  0  0  0  0  0
  161.0860  205.0510  149.1940 C   0  0  1  0  0  3  0  0  0  0  0  0
  162.3870  204.7860  147.0700 C   0  0  0  0  0  2  0  0  0  0  0  0
  160.6780  205.7870  145.7030 O   0  0  0  0  0  0  0  0  0  0  0  0
  161.2320  205.3870  144.4870 C   0  0  0  0  0  1  0  0  0  0  0  0
  2  3  2  0  0  0  0
  3  1  1  0  0  0  0
  3  4  1  0  0  0  0
  4  6  1  0  0  0  0
  6  5  2  0  0  0  0
  7 11  1  1  0  0  0
  7  9  1  0  0  0  0
  8  5  1  6  0  0  0
  8  9  1  0  0  0  0
  9 15  1  1  0  0  0
 10  8  1  0  0  0  0
 12 13  1  0  0  0  0
 13 10  2  0  0  0  0
 13  7  1  0  0  0  0
 15 14  1  0  0  0  0
 16  1  1  0  0  0  0
 17 16  1  6  0  0  0
 17 19  1  0  0  0  0
 18 19  1  0  0  0  0
 20 17  1  0  0  0  0
 21 24  1  0  0  0  0
 22 25  1  0  0  0  0
 23 27  1  1  0  0  0
 23 26  1  0  0  0  0
 23 21  1  0  0  0  0
 24 25  1  0  0  0  0
 25 20  1  1  0  0  0
 26 22  1  0  0  0  0
 28 27  1  0  0  0  0
M  END
>  <MODEL>
3

>  <REMARK>
 VINA RESULT:      -6.1      1.403      1.855
  Name = 
  11 active torsions:
  status: ('A' for Active; 'I' for Inactive)
    1  A    between atoms: C_1  and  C_11
    2  A    between atoms: C_1  and  N_21
    3  A    between atoms: C_4  and  C_22
    4  A    between atoms: O_5  and  C_13
    5  A    between atoms: O_6  and  C_8
    6  A    between atoms: C_11  and  C_15
    7  A    between atoms: C_11  and  O_19
    8  A    between atoms: O_19  and  C_20
    9  A    between atoms: N_21  and  C_24
   10  A    between atoms: N_23  and  C_24
   11  A    between atoms: N_23  and  C_26
                            x       y       z     vdW  Elec       q    Type
                         _______ _______ _______ _____ _____    ______ ____

>  <TORSDO>
F 11

$$$$
=
 OpenBabel11072414123D

 28 29  0  0  1  0  0  0  0  0999 V2000
  161.0130  208.1750  151.7920 N   0  0  0  0  0  2  0  0  0  0  0  0
  161.4040  206.1410  153.4260 S   0  0  0  0  0  0  0  0  0  0  0  0
  161.0360  207.7050  153.1460 C   0  0  0  0  0  0  0  0  0  0  0  0
  160.6900  208.5380  154.2570 N   0  0  0  0  0  2  0  0  0  0  0  0
  161.0810  210.9090  154.5050 C   0  0  0  0  0  3  0  0  0  0  0  0
  161.4730  209.6480  154.6980 C   0  0  0  0  0  3  0  0  0  0  0  0
  159.0330  213.5610  153.1770 C   0  0  2  0  0  3  0  0  0  0  0  0
  159.8220  211.3230  153.7990 C   0  0  1  0  0  3  0  0  0  0  0  0
  159.2330  212.6200  154.3760 C   0  0  2  0  0  3  0  0  0  0  0  0
  160.0680  211.6160  152.4120 N   0  0  0  0  0  0  0  0  0  0  0  0
  157.6820  213.7860  152.9040 O   0  0  0  0  0  1  0  0  0  0  0  0
  159.8060  213.2920  150.6830 C   0  0  0  0  0  1  0  0  0  0  0  0
  159.6480  212.7750  152.0720 C   0  0  0  0  0  0  0  0  0  0  0  0
  157.5060  211.2170  155.0140 C   0  0  0  0  0  1  0  0  0  0  0  0
  158.1100  212.4680  155.2280 O   0  0  0  0  0  0  0  0  0  0  0  0
  162.1410  208.7990  151.1120 C   0  0  0  0  0  2  0  0  0  0  0  0
  162.1100  208.4720  149.6230 C   0  0  2  0  0  3  0  0  0  0  0  0
  162.0900  210.8750  149.5820 O   0  0  0  0  0  1  0  0  0  0  0  0
  161.9680  209.7360  148.7830 C   0  0  0  0  0  2  0  0  0  0  0  0
  161.0610  207.5910  149.3470 O   0  0  0  0  0  0  0  0  0  0  0  0
  162.7340  205.3850  146.8440 C   0  0  0  0  0  2  0  0  0  0  0  0
  160.7030  205.2620  148.9640 C   0  0  0  0  0  2  0  0  0  0  0  0
  161.8080  204.1710  146.9720 C   0  0  1  0  0  3  0  0  0  0  0  0
  162.0700  206.6450  147.3950 C   0  0  0  0  0  2  0  0  0  0  0  0
  161.6730  206.4350  148.8550 C   0  0  1  0  0  3  0  0  0  0  0  0
  161.3520  203.9880  148.4240 C   0  0  0  0  0  2  0  0  0  0  0  0
  160.7030  204.3090  146.1280 O   0  0  0  0  0  0  0  0  0  0  0  0
  161.2290  204.2480  144.8380 C   0  0  0  0  0  1  0  0  0  0  0  0
  1  3  1  0  0  0  0
  3  2  2  0  0  0  0
  3  4  1  0  0  0  0
  4  6  1  0  0  0  0
  5  6  2  0  0  0  0
  7 11  1  6  0  0  0
  7  9  1  0  0  0  0
  8  9  1  0  0  0  0
  8  5  1  1  0  0  0
  9 15  1  6  0  0  0
 10  8  1  0  0  0  0
 12 13  1  0  0  0  0
 13 10  2  0  0  0  0
 13  7  1  0  0  0  0
 14 15  1  0  0  0  0
 16  1  1  0  0  0  0
 17 19  1  6  0  0  0
 17 16  1  0  0  0  0
 19 18  1  0  0  0  0
 20 17  1  0  0  0  0
 21 23  1  0  0  0  0
 21 24  1  0  0  0  0
 23 27  1  6  0  0  0
 23 26  1  0  0  0  0
 24 25  1  0  0  0  0
 25 22  1  0  0  0  0
 25 20  1  6  0  0  0
 26 22  1  0  0  0  0
 28 27  1  0  0  0  0
M  END
>  <MODEL>
4

>  <REMARK>
 VINA RESULT:      -6.1      2.036      3.296
  Name = 
  11 active torsions:
  status: ('A' for Active; 'I' for Inactive)
    1  A    between atoms: C_1  and  C_11
    2  A    between atoms: C_1  and  N_21
    3  A    between atoms: C_4  and  C_22
    4  A    between atoms: O_5  and  C_13
    5  A    between atoms: O_6  and  C_8
    6  A    between atoms: C_11  and  C_15
    7  A    between atoms: C_11  and  O_19
    8  A    between atoms: O_19  and  C_20
    9  A    between atoms: N_21  and  C_24
   10  A    between atoms: N_23  and  C_24
   11  A    between atoms: N_23  and  C_26
                            x       y       z     vdW  Elec       q    Type
                         _______ _______ _______ _____ _____    ______ ____

>  <TORSDO>
F 11

$$$$
=
 OpenBabel11072414123D

 28 29  0  0  1  0  0  0  0  0999 V2000
  160.7680  207.5590  152.6300 N   0  0  0  0  0  2  0  0  0  0  0  0
  162.2460  209.3180  151.3310 S   0  0  0  0  0  0  0  0  0  0  0  0
  161.5540  207.8470  151.4660 C   0  0  0  0  0  0  0  0  0  0  0  0
  161.7060  206.9160  150.3890 N   0  0  0  0  0  2  0  0  0  0  0  0
  160.6650  205.6810  148.5920 C   0  0  0  0  0  3  0  0  0  0  0  0
  160.8000  206.8110  149.2900 C   0  0  0  0  0  3  0  0  0  0  0  0
  160.6380  202.1700  149.4060 C   0  0  2  0  0  3  0  0  0  0  0  0
  161.4400  204.4180  148.8370 C   0  0  1  0  0  3  0  0  0  0  0  0
  160.8390  203.5820  149.9790 C   0  0  2  0  0  3  0  0  0  0  0  0
  161.4080  203.5500  147.6900 N   0  0  0  0  0  0  0  0  0  0  0  0
  161.4990  201.2380  149.9900 O   0  0  0  0  0  1  0  0  0  0  0  0
  160.8860  201.3060  146.9400 C   0  0  0  0  0  1  0  0  0  0  0  0
  161.0060  202.3700  147.9770 C   0  0  0  0  0  0  0  0  0  0  0  0
  160.6120  203.9350  152.2560 C   0  0  0  0  0  1  0  0  0  0  0  0
  161.5190  203.6470  151.2210 O   0  0  0  0  0  0  0  0  0  0  0  0
  161.3160  207.2990  153.9550 C   0  0  0  0  0  2  0  0  0  0  0  0
  161.1990  208.5410  154.8310 C   0  0  2  0  0  3  0  0  0  0  0  0
  162.4590  209.1510  156.7860 O   0  0  0  0  0  1  0  0  0  0  0  0
  161.5410  208.2260  156.2830 C   0  0  0  0  0  2  0  0  0  0  0  0
  159.9080  209.0690  154.7450 O   0  0  0  0  0  0  0  0  0  0  0  0
  159.5990  212.6920  155.5870 C   0  0  0  0  0  2  0  0  0  0  0  0
  159.4660  210.8920  153.2690 C   0  0  0  0  0  2  0  0  0  0  0  0
  159.0280  213.1770  154.2510 C   0  0  1  0  0  3  0  0  0  0  0  0
  159.4180  211.1840  155.7500 C   0  0  0  0  0  2  0  0  0  0  0  0
  160.0850  210.4470  154.5910 C   0  0  1  0  0  3  0  0  0  0  0  0
  159.6440  212.3990  153.0840 C   0  0  0  0  0  2  0  0  0  0  0  0
  157.6360  213.0500  154.2410 O   0  0  0  0  0  0  0  0  0  0  0  0
  157.1720  214.1340  154.9850 C   0  0  0  0  0  1  0  0  0  0  0  0
  1 16  1  0  0  0  0
  2  3  2  0  0  0  0
  3  1  1  0  0  0  0
  4  3  1  0  0  0  0
  5  6  2  0  0  0  0
  6  4  1  0  0  0  0
  7  9  1  0  0  0  0
  7 11  1  1  0  0  0
  8  5  1  6  0  0  0
  8  9  1  0  0  0  0
  9 15  1  1  0  0  0
 10 13  2  0  0  0  0
 10  8  1  0  0  0  0
 12 13  1  0  0  0  0
 13  7  1  0  0  0  0
 15 14  1  0  0  0  0
 17 16  1  6  0  0  0
 17 19  1  0  0  0  0
 19 18  1  0  0  0  0
 20 17  1  0  0  0  0
 21 24  1  0  0  0  0
 22 25  1  0  0  0  0
 23 27  1  1  0  0  0
 23 21  1  0  0  0  0
 25 20  1  1  0  0  0
 25 24  1  0  0  0  0
 26 22  1  0  0  0  0
 26 23  1  0  0  0  0
 27 28  1  0  0  0  0
M  END
>  <MODEL>
5

>  <REMARK>
 VINA RESULT:      -6.1      2.312      8.720
  Name = 
  11 active torsions:
  status: ('A' for Active; 'I' for Inactive)
    1  A    between atoms: C_1  and  C_11
    2  A    between atoms: C_1  and  N_21
    3  A    between atoms: C_4  and  C_22
    4  A    between atoms: O_5  and  C_13
    5  A    between atoms: O_6  and  C_8
    6  A    between atoms: C_11  and  C_15
    7  A    between atoms: C_11  and  O_19
    8  A    between atoms: O_19  and  C_20
    9  A    between atoms: N_21  and  C_24
   10  A    between atoms: N_23  and  C_24
   11  A    between atoms: N_23  and  C_26
                            x       y       z     vdW  Elec       q    Type
                         _______ _______ _______ _____ _____    ______ ____

>  <TORSDO>
F 11

$$$$
=
 OpenBabel11072414123D

 28 29  0  0  1  0  0  0  0  0999 V2000
  161.8360  207.7710  150.4860 N   0  0  0  0  0  2  0  0  0  0  0  0
  161.9590  209.6110  148.5980 S   0  0  0  0  0  0  0  0  0  0  0  0
  161.7160  208.0740  149.0900 C   0  0  0  0  0  0  0  0  0  0  0  0
  161.3320  207.0960  148.1190 N   0  0  0  0  0  2  0  0  0  0  0  0
  162.0990  204.9460  147.3260 C   0  0  0  0  0  3  0  0  0  0  0  0
  162.2550  206.2690  147.4090 C   0  0  0  0  0  3  0  0  0  0  0  0
  161.0790  202.1310  149.3340 C   0  0  2  0  0  3  0  0  0  0  0  0
  160.9860  204.1670  147.9680 C   0  0  1  0  0  3  0  0  0  0  0  0
  161.2240  202.6500  147.8940 C   0  0  2  0  0  3  0  0  0  0  0  0
  160.8830  204.4560  149.3730 N   0  0  0  0  0  0  0  0  0  0  0  0
  159.9440  201.3330  149.4950 O   0  0  0  0  0  1  0  0  0  0  0  0
  160.8330  203.4630  151.5830 C   0  0  0  0  0  1  0  0  0  0  0  0
  160.9150  203.4010  150.0960 C   0  0  0  0  0  0  0  0  0  0  0  0
  160.8040  202.4170  145.6300 C   0  0  0  0  0  1  0  0  0  0  0  0
  160.4760  201.9500  146.9140 O   0  0  0  0  0  0  0  0  0  0  0  0
  162.1210  208.7520  151.5250 C   0  0  0  0  0  2  0  0  0  0  0  0
  161.3440  208.4200  152.7950 C   0  0  2  0  0  3  0  0  0  0  0  0
  160.7050  206.6150  154.2480 O   0  0  0  0  0  1  0  0  0  0  0  0
  161.2010  206.9130  152.9770 C   0  0  0  0  0  2  0  0  0  0  0  0
  160.0830  209.0210  152.7570 O   0  0  0  0  0  0  0  0  0  0  0  0
  160.4430  211.6620  155.3700 C   0  0  0  0  0  2  0  0  0  0  0  0
  159.1700  211.2270  152.7590 C   0  0  0  0  0  2  0  0  0  0  0  0
  159.3780  212.6310  154.8480 C   0  0  1  0  0  3  0  0  0  0  0  0
  160.2430  210.2600  154.7970 C   0  0  0  0  0  2  0  0  0  0  0  0
  160.2740  210.3070  153.2710 C   0  0  1  0  0  3  0  0  0  0  0  0
  159.3580  212.6380  153.3160 C   0  0  0  0  0  2  0  0  0  0  0  0
  158.1190  212.2900  155.3500 O   0  0  0  0  0  0  0  0  0  0  0  0
  157.2720  213.3080  154.9130 C   0  0  0  0  0  1  0  0  0  0  0  0
  1 16  1  0  0  0  0
  2  3  2  0  0  0  0
  3  1  1  0  0  0  0
  4  3  1  0  0  0  0
  5  6  2  0  0  0  0
  6  4  1  0  0  0  0
  7 11  1  6  0  0  0
  7 13  1  0  0  0  0
  8  5  1  1  0  0  0
  8 10  1  0  0  0  0
  9 15  1  6  0  0  0
  9  8  1  0  0  0  0
  9  7  1  0  0  0  0
 10 13  2  0  0  0  0
 13 12  1  0  0  0  0
 14 15  1  0  0  0  0
 17 16  1  6  0  0  0
 17 19  1  0  0  0  0
 19 18  1  0  0  0  0
 20 17  1  0  0  0  0
 22 25  1  0  0  0  0
 22 26  1  0  0  0  0
 23 27  1  1  0  0  0
 23 21  1  0  0  0  0
 24 21  1  0  0  0  0
 25 20  1  6  0  0  0
 25 24  1  0  0  0  0
 26 23  1  0  0  0  0
 28 27  1  0  0  0  0
M  END
>  <MODEL>
6

>  <REMARK>
 VINA RESULT:      -5.9      2.385      8.760
  Name = 
  11 active torsions:
  status: ('A' for Active; 'I' for Inactive)
    1  A    between atoms: C_1  and  C_11
    2  A    between atoms: C_1  and  N_21
    3  A    between atoms: C_4  and  C_22
    4  A    between atoms: O_5  and  C_13
    5  A    between atoms: O_6  and  C_8
    6  A    between atoms: C_11  and  C_15
    7  A    between atoms: C_11  and  O_19
    8  A    between atoms: O_19  and  C_20
    9  A    between atoms: N_21  and  C_24
   10  A    between atoms: N_23  and  C_24
   11  A    between atoms: N_23  and  C_26
                            x       y       z     vdW  Elec       q    Type
                         _______ _______ _______ _____ _____    ______ ____

>  <TORSDO>
F 11

$$$$
=
 OpenBabel11072414123D

 28 29  0  0  1  0  0  0  0  0999 V2000
  162.0370  207.6040  150.8250 N   0  0  0  0  0  2  0  0  0  0  0  0
  161.9560  209.6330  149.1390 S   0  0  0  0  0  0  0  0  0  0  0  0
  161.9490  208.0340  149.4600 C   0  0  0  0  0  0  0  0  0  0  0  0
  161.7930  207.1170  148.3720 N   0  0  0  0  0  2  0  0  0  0  0  0
  162.7530  205.3940  146.9760 C   0  0  0  0  0  3  0  0  0  0  0  0
  162.8820  206.5380  147.6530 C   0  0  0  0  0  3  0  0  0  0  0  0
  161.1980  202.2140  146.2980 C   0  0  2  0  0  3  0  0  0  0  0  0
  161.4970  204.5720  146.9020 C   0  0  1  0  0  3  0  0  0  0  0  0
  161.5110  203.6000  145.7120 C   0  0  2  0  0  3  0  0  0  0  0  0
  161.3490  203.7330  148.0610 N   0  0  0  0  0  0  0  0  0  0  0  0
  159.9490  201.7400  145.8900 O   0  0  0  0  0  1  0  0  0  0  0  0
  161.0090  201.4520  148.8020 C   0  0  0  0  0  1  0  0  0  0  0  0
  161.1770  202.5030  147.7580 C   0  0  0  0  0  0  0  0  0  0  0  0
  160.5130  205.3690  144.6000 C   0  0  0  0  0  1  0  0  0  0  0  0
  160.7310  203.9810  144.5900 O   0  0  0  0  0  0  0  0  0  0  0  0
  162.2440  206.2250  151.2470 C   0  0  0  0  0  2  0  0  0  0  0  0
  161.6970  206.0120  152.6540 C   0  0  2  0  0  3  0  0  0  0  0  0
  161.4620  203.7890  151.7700 O   0  0  0  0  0  1  0  0  0  0  0  0
  161.0370  204.6450  152.7890 C   0  0  0  0  0  2  0  0  0  0  0  0
  160.7820  207.0210  152.9700 O   0  0  0  0  0  0  0  0  0  0  0  0
  160.5070  207.4360  156.6690 C   0  0  0  0  0  2  0  0  0  0  0  0
  161.1940  208.9820  154.2670 C   0  0  0  0  0  2  0  0  0  0  0  0
  160.6100  208.9630  156.7240 C   0  0  1  0  0  3  0  0  0  0  0  0
  160.1250  206.9580  155.2700 C   0  0  0  0  0  2  0  0  0  0  0  0
  161.1440  207.4570  154.2470 C   0  0  1  0  0  3  0  0  0  0  0  0
  161.5820  209.4800  155.6590 C   0  0  0  0  0  2  0  0  0  0  0  0
  159.3490  209.5430  156.5550 O   0  0  0  0  0  0  0  0  0  0  0  0
  159.6060  210.8910  156.3060 C   0  0  0  0  0  1  0  0  0  0  0  0
  1 16  1  0  0  0  0
  2  3  2  0  0  0  0
  3  1  1  0  0  0  0
  4  3  1  0  0  0  0
  5  6  2  0  0  0  0
  6  4  1  0  0  0  0
  7 11  1  6  0  0  0
  7 13  1  0  0  0  0
  8  5  1  1  0  0  0
  8 10  1  0  0  0  0
  9 15  1  6  0  0  0
  9  7  1  0  0  0  0
  9  8  1  0  0  0  0
 13 10  2  0  0  0  0
 13 12  1  0  0  0  0
 15 14  1  0  0  0  0
 17 16  1  6  0  0  0
 17 19  1  0  0  0  0
 17 20  1  0  0  0  0
 18 19  1  0  0  0  0
 21 23  1  0  0  0  0
 22 26  1  0  0  0  0
 23 27  1  6  0  0  0
 24 21  1  0  0  0  0
 25 20  1  6  0  0  0
 25 22  1  0  0  0  0
 25 24  1  0  0  0  0
 26 23  1  0  0  0  0
 28 27  1  0  0  0  0
M  END
>  <MODEL>
7

>  <REMARK>
 VINA RESULT:      -5.8      2.658      8.900
  Name = 
  11 active torsions:
  status: ('A' for Active; 'I' for Inactive)
    1  A    between atoms: C_1  and  C_11
    2  A    between atoms: C_1  and  N_21
    3  A    between atoms: C_4  and  C_22
    4  A    between atoms: O_5  and  C_13
    5  A    between atoms: O_6  and  C_8
    6  A    between atoms: C_11  and  C_15
    7  A    between atoms: C_11  and  O_19
    8  A    between atoms: O_19  and  C_20
    9  A    between atoms: N_21  and  C_24
   10  A    between atoms: N_23  and  C_24
   11  A    between atoms: N_23  and  C_26
                            x       y       z     vdW  Elec       q    Type
                         _______ _______ _______ _____ _____    ______ ____

>  <TORSDO>
F 11

$$$$
=
 OpenBabel11072414123D

 28 29  0  0  1  0  0  0  0  0999 V2000
  161.0710  207.6960  152.9880 N   0  0  0  0  0  2  0  0  0  0  0  0
  161.5780  205.2330  152.1890 S   0  0  0  0  0  0  0  0  0  0  0  0
  161.1510  206.7790  151.8900 C   0  0  0  0  0  0  0  0  0  0  0  0
  160.9310  207.1790  150.5330 N   0  0  0  0  0  2  0  0  0  0  0  0
  162.1140  207.2650  148.4280 C   0  0  0  0  0  3  0  0  0  0  0  0
  161.9500  207.7010  149.6790 C   0  0  0  0  0  3  0  0  0  0  0  0
  161.9660  203.9420  147.0410 C   0  0  2  0  0  3  0  0  0  0  0  0
  161.2990  206.1850  147.7770 C   0  0  1  0  0  3  0  0  0  0  0  0
  162.0910  205.4340  146.6940 C   0  0  2  0  0  3  0  0  0  0  0  0
  160.9170  205.1710  148.7230 N   0  0  0  0  0  0  0  0  0  0  0  0
  161.1990  203.2460  146.1040 O   0  0  0  0  0  1  0  0  0  0  0  0
  160.9560  202.7910  149.1730 C   0  0  0  0  0  1  0  0  0  0  0  0
  161.2460  203.9950  148.3430 C   0  0  0  0  0  0  0  0  0  0  0  0
  160.4530  206.2010  145.2490 C   0  0  0  0  0  1  0  0  0  0  0  0
  161.7890  205.7780  145.3520 O   0  0  0  0  0  0  0  0  0  0  0  0
  160.9400  207.3050  154.3860 C   0  0  0  0  0  2  0  0  0  0  0  0
  160.9520  208.5370  155.2850 C   0  0  2  0  0  3  0  0  0  0  0  0
  162.5630  209.3040  156.8960 O   0  0  0  0  0  1  0  0  0  0  0  0
  161.6870  208.2590  156.5910 C   0  0  0  0  0  2  0  0  0  0  0  0
  159.6430  208.9510  155.5480 O   0  0  0  0  0  0  0  0  0  0  0  0
  158.3990  212.4520  155.9080 C   0  0  0  0  0  2  0  0  0  0  0  0
  159.8200  210.7450  153.9840 C   0  0  0  0  0  2  0  0  0  0  0  0
  158.5880  212.8990  154.4550 C   0  0  1  0  0  3  0  0  0  0  0  0
  158.3810  210.9290  156.0190 C   0  0  0  0  0  2  0  0  0  0  0  0
  159.6720  210.3450  155.4490 C   0  0  1  0  0  3  0  0  0  0  0  0
  159.8480  212.2680  153.8530 C   0  0  0  0  0  2  0  0  0  0  0  0
  157.4640  212.5670  153.6920 O   0  0  0  0  0  0  0  0  0  0  0  0
  157.5170  213.4190  152.5900 C   0  0  0  0  0  1  0  0  0  0  0  0
  1 16  1  0  0  0  0
  3  2  2  0  0  0  0
  3  1  1  0  0  0  0
  4  3  1  0  0  0  0
  5  6  2  0  0  0  0
  6  4  1  0  0  0  0
  7 11  1  6  0  0  0
  7 13  1  0  0  0  0
  8  5  1  1  0  0  0
  8 10  1  0  0  0  0
  9 15  1  6  0  0  0
  9  7  1  0  0  0  0
  9  8  1  0  0  0  0
 13 10  2  0  0  0  0
 13 12  1  0  0  0  0
 14 15  1  0  0  0  0
 17 16  1  6  0  0  0
 17 20  1  0  0  0  0
 17 19  1  0  0  0  0
 19 18  1  0  0  0  0
 21 24  1  0  0  0  0
 22 25  1  0  0  0  0
 23 27  1  6  0  0  0
 23 21  1  0  0  0  0
 25 20  1  6  0  0  0
 25 24  1  0  0  0  0
 26 22  1  0  0  0  0
 26 23  1  0  0  0  0
 28 27  1  0  0  0  0
M  END
>  <MODEL>
8

>  <REMARK>
 VINA RESULT:      -5.8      2.252      8.704
  Name = 
  11 active torsions:
  status: ('A' for Active; 'I' for Inactive)
    1  A    between atoms: C_1  and  C_11
    2  A    between atoms: C_1  and  N_21
    3  A    between atoms: C_4  and  C_22
    4  A    between atoms: O_5  and  C_13
    5  A    between atoms: O_6  and  C_8
    6  A    between atoms: C_11  and  C_15
    7  A    between atoms: C_11  and  O_19
    8  A    between atoms: O_19  and  C_20
    9  A    between atoms: N_21  and  C_24
   10  A    between atoms: N_23  and  C_24
   11  A    between atoms: N_23  and  C_26
                            x       y       z     vdW  Elec       q    Type
                         _______ _______ _______ _____ _____    ______ ____

>  <TORSDO>
F 11

$$$$
=
 OpenBabel11072414123D

 28 29  0  0  1  0  0  0  0  0999 V2000
  161.1150  207.9880  151.5220 N   0  0  0  0  0  2  0  0  0  0  0  0
  161.4520  205.6790  152.7540 S   0  0  0  0  0  0  0  0  0  0  0  0
  161.1440  207.2810  152.7690 C   0  0  0  0  0  0  0  0  0  0  0  0
  160.8550  207.9130  154.0200 N   0  0  0  0  0  2  0  0  0  0  0  0
  160.1040  207.8210  156.3150 C   0  0  0  0  0  3  0  0  0  0  0  0
  160.5660  207.2030  155.2260 C   0  0  0  0  0  3  0  0  0  0  0  0
  160.7080  211.1440  155.0570 C   0  0  2  0  0  3  0  0  0  0  0  0
  159.8570  209.2980  156.4300 C   0  0  1  0  0  3  0  0  0  0  0  0
  161.1190  210.1220  156.1290 C   0  0  2  0  0  3  0  0  0  0  0  0
  158.8860  209.7460  155.4670 N   0  0  0  0  0  0  0  0  0  0  0  0
  160.7080  212.4520  155.5490 O   0  0  0  0  0  1  0  0  0  0  0  0
  158.4780  211.3380  153.6870 C   0  0  0  0  0  1  0  0  0  0  0  0
  159.3130  210.7190  154.7550 C   0  0  0  0  0  0  0  0  0  0  0  0
  163.1880  210.5480  157.0770 C   0  0  0  0  0  1  0  0  0  0  0  0
  161.7970  210.6540  157.2540 O   0  0  0  0  0  0  0  0  0  0  0  0
  162.2870  208.5420  150.8560 C   0  0  0  0  0  2  0  0  0  0  0  0
  162.1510  208.4060  149.3440 C   0  0  2  0  0  3  0  0  0  0  0  0
  162.0420  210.7920  149.6180 O   0  0  0  0  0  1  0  0  0  0  0  0
  161.9020  209.7590  148.6880 C   0  0  0  0  0  2  0  0  0  0  0  0
  161.1130  207.5230  149.0330 O   0  0  0  0  0  0  0  0  0  0  0  0
  162.9450  205.2090  146.7470 C   0  0  0  0  0  2  0  0  0  0  0  0
  160.7530  205.1860  148.7020 C   0  0  0  0  0  2  0  0  0  0  0  0
  161.9950  204.0120  146.8430 C   0  0  1  0  0  3  0  0  0  0  0  0
  162.2600  206.4960  147.2000 C   0  0  0  0  0  2  0  0  0  0  0  0
  161.7450  206.3430  148.6300 C   0  0  1  0  0  3  0  0  0  0  0  0
  161.4230  203.8860  148.2590 C   0  0  0  0  0  2  0  0  0  0  0  0
  160.9620  204.1330  145.9090 O   0  0  0  0  0  0  0  0  0  0  0  0
  160.8430  202.8650  145.3410 C   0  0  0  0  0  1  0  0  0  0  0  0
  1  3  1  0  0  0  0
  2  3  2  0  0  0  0
  3  4  1  0  0  0  0
  4  6  1  0  0  0  0
  6  5  2  0  0  0  0
  7 11  1  1  0  0  0
  7  9  1  0  0  0  0
  8  5  1  6  0  0  0
  9  8  1  0  0  0  0
  9 15  1  1  0  0  0
 10  8  1  0  0  0  0
 12 13  1  0  0  0  0
 13  7  1  0  0  0  0
 13 10  2  0  0  0  0
 14 15  1  0  0  0  0
 16  1  1  0  0  0  0
 17 19  1  6  0  0  0
 17 16  1  0  0  0  0
 19 18  1  0  0  0  0
 20 17  1  0  0  0  0
 21 23  1  0  0  0  0
 21 24  1  0  0  0  0
 23 27  1  6  0  0  0
 23 26  1  0  0  0  0
 24 25  1  0  0  0  0
 25 22  1  0  0  0  0
 25 20  1  6  0  0  0
 26 22  1  0  0  0  0
 28 27  1  0  0  0  0
M  END
>  <MODEL>
9

>  <REMARK>
 VINA RESULT:      -5.7      2.263      3.399
  Name = 
  11 active torsions:
  status: ('A' for Active; 'I' for Inactive)
    1  A    between atoms: C_1  and  C_11
    2  A    between atoms: C_1  and  N_21
    3  A    between atoms: C_4  and  C_22
    4  A    between atoms: O_5  and  C_13
    5  A    between atoms: O_6  and  C_8
    6  A    between atoms: C_11  and  C_15
    7  A    between atoms: C_11  and  O_19
    8  A    between atoms: O_19  and  C_20
    9  A    between atoms: N_21  and  C_24
   10  A    between atoms: N_23  and  C_24
   11  A    between atoms: N_23  and  C_26
                            x       y       z     vdW  Elec       q    Type
                         _______ _______ _______ _____ _____    ______ ____

>  <TORSDO>
F 11

$$$$
