=
 OpenBabel11072415233D

 25 26  0  0  1  0  0  0  0  0999 V2000
  158.3330  211.7420  153.1420 C   0  0  0  0  0  3  0  0  0  0  0  0
  161.2980  207.0510  151.8690 C   0  0  0  0  0  2  0  0  0  0  0  0
  160.3340  212.4620  151.6850 C   0  0  0  0  0  2  0  0  0  0  0  0
  158.4310  214.0190  152.1660 C   0  0  0  0  0  2  0  0  0  0  0  0
  160.4800  208.4560  154.3400 C   0  0  2  0  0  3  0  0  0  0  0  0
  161.1480  206.3270  153.1810 C   0  0  0  0  0  0  0  0  0  0  0  0
  161.7570  208.4880  152.0820 C   0  0  2  0  0  3  0  0  0  0  0  0
  159.6300  211.4320  152.5210 C   0  0  0  0  0  0  0  0  0  0  0  0
  159.3190  213.4280  151.0690 C   0  0  1  0  0  3  0  0  0  0  0  0
  157.7550  212.9310  152.9550 C   0  0  0  0  0  3  0  0  0  0  0  0
  160.7580  206.9740  154.2860 C   0  0  0  0  0  3  0  0  0  0  0  0
  160.8160  209.1660  153.0550 C   0  0  0  0  0  0  0  0  0  0  0  0
  160.2210  210.3020  152.7840 C   0  0  0  0  0  0  0  0  0  0  0  0
  161.9580  208.0990  156.5600 O   0  0  0  0  0  0  0  0  0  0  0  0
  161.3410  209.1880  155.7270 S   0  0  0  0  0  0  0  0  0  0  0  0
  162.4180  210.1050  155.2170 O   0  0  0  0  0  0  0  0  0  0  0  0
  159.9960  211.3870  156.4790 C   0  0  0  0  0  2  0  0  0  0  0  0
  160.2080  210.0970  156.7130 C   0  0  0  0  0  3  0  0  0  0  0  0
  161.8830  209.1670  150.7810 C   0  0  0  0  0  0  0  0  0  0  0  0
  161.9850  209.7230  149.7150 C   0  0  0  0  0  3  0  0  0  0  0  0
  161.2150  204.1020  152.1200 N   0  0  0  0  0  1  0  0  0  0  0  0
  161.3590  204.9170  153.2490 N   0  0  0  0  0  2  0  0  0  0  0  0
  159.9910  214.4530  150.4040 O   0  0  0  0  0  0  0  0  0  0  0  0
  159.8280  214.1660  149.0480 C   0  0  0  0  0  2  0  0  0  0  0  0
  161.1730  213.8370  148.4360 C   0  0  0  0  0  1  0  0  0  0  0  0
  2  7  1  0  0  0  0
  2  6  1  0  0  0  0
  3  8  1  0  0  0  0
  4 10  1  0  0  0  0
  5 15  1  1  0  0  0
  6 22  1  0  0  0  0
  6 11  2  0  0  0  0
  7 19  1  6  0  0  0
  7 12  1  0  0  0  0
  8 13  2  0  0  0  0
  8  1  1  0  0  0  0
  9 23  1  1  0  0  0
  9  3  1  0  0  0  0
  9  4  1  0  0  0  0
 10  1  2  0  0  0  0
 11  5  1  0  0  0  0
 12  5  1  0  0  0  0
 13 12  2  0  0  0  0
 15 14  2  0  0  0  0
 15 18  1  0  0  0  0
 16 15  2  0  0  0  0
 17 18  2  0  0  0  0
 20 19  3  0  0  0  0
 21 22  1  0  0  0  0
 24 23  1  0  0  0  0
 25 24  1  0  0  0  0
M  END
>  <MODEL>
1

>  <REMARK>
 VINA RESULT:      -5.5      0.000      0.000
  Name = 
  6 active torsions:
  status: ('A' for Active; 'I' for Inactive)
    1  A    between atoms: C_3  and  C_17
    2  A    between atoms: O_4  and  C_9
    3  A    between atoms: O_4  and  C_20
    4  A    between atoms: S_6  and  C_12
    5  A    between atoms: S_6  and  C_15
    6  A    between atoms: C_13  and  N_14
                            x       y       z     vdW  Elec       q    Type
                         _______ _______ _______ _____ _____    ______ ____

>  <TORSDO>
F 6

$$$$
=
 OpenBabel11072415233D

 25 26  0  0  1  0  0  0  0  0999 V2000
  159.6340  206.8360  154.8270 C   0  0  0  0  0  3  0  0  0  0  0  0
  161.0760  207.8190  149.4060 C   0  0  0  0  0  2  0  0  0  0  0  0
  161.8720  208.1170  154.8400 C   0  0  0  0  0  2  0  0  0  0  0  0
  160.5190  207.8130  156.9270 C   0  0  0  0  0  2  0  0  0  0  0  0
  160.5410  205.4370  151.0770 C   0  0  2  0  0  3  0  0  0  0  0  0
  160.6010  206.5210  148.8090 C   0  0  0  0  0  0  0  0  0  0  0  0
  161.9430  207.5750  150.6360 C   0  0  2  0  0  3  0  0  0  0  0  0
  160.8150  207.3400  154.1080 C   0  0  0  0  0  0  0  0  0  0  0  0
  161.2640  208.8250  156.0530 C   0  0  1  0  0  3  0  0  0  0  0  0
  159.4750  207.0800  156.1300 C   0  0  0  0  0  3  0  0  0  0  0  0
  160.3440  205.4580  149.5810 C   0  0  0  0  0  3  0  0  0  0  0  0
  161.1850  206.6910  151.6040 C   0  0  0  0  0  0  0  0  0  0  0  0
  160.9990  207.0190  152.8590 C   0  0  0  0  0  0  0  0  0  0  0  0
  162.8780  204.3840  151.8960 O   0  0  0  0  0  0  0  0  0  0  0  0
  161.4710  203.9840  151.5490 S   0  0  0  0  0  0  0  0  0  0  0  0
  160.8210  203.3420  152.7430 O   0  0  0  0  0  0  0  0  0  0  0  0
  160.7430  201.7610  150.2300 C   0  0  0  0  0  2  0  0  0  0  0  0
  161.5090  202.8460  150.2130 C   0  0  0  0  0  3  0  0  0  0  0  0
  162.3810  208.8630  151.1990 C   0  0  0  0  0  0  0  0  0  0  0  0
  162.7380  209.9190  151.6620 C   0  0  0  0  0  3  0  0  0  0  0  0
  161.3870  206.1630  146.4990 N   0  0  0  0  0  1  0  0  0  0  0  0
  160.3540  206.4260  147.4070 N   0  0  0  0  0  2  0  0  0  0  0  0
  162.2750  209.4340  156.7960 O   0  0  0  0  0  0  0  0  0  0  0  0
  162.5120  210.6480  156.1490 C   0  0  0  0  0  2  0  0  0  0  0  0
  161.2200  211.4340  156.0630 C   0  0  0  0  0  1  0  0  0  0  0  0
  1 10  2  0  0  0  0
  2  7  1  0  0  0  0
  3  9  1  0  0  0  0
  5 15  1  6  0  0  0
  5 12  1  0  0  0  0
  6  2  1  0  0  0  0
  6 11  2  0  0  0  0
  7 19  1  1  0  0  0
  7 12  1  0  0  0  0
  8  1  1  0  0  0  0
  8  3  1  0  0  0  0
  9 23  1  1  0  0  0
  9  4  1  0  0  0  0
 10  4  1  0  0  0  0
 11  5  1  0  0  0  0
 12 13  2  0  0  0  0
 13  8  2  0  0  0  0
 15 14  2  0  0  0  0
 15 16  2  0  0  0  0
 18 17  2  0  0  0  0
 18 15  1  0  0  0  0
 19 20  3  0  0  0  0
 21 22  1  0  0  0  0
 22  6  1  0  0  0  0
 24 23  1  0  0  0  0
 25 24  1  0  0  0  0
M  END
>  <MODEL>
2

>  <REMARK>
 VINA RESULT:      -5.2      3.961      6.273
  Name = 
  6 active torsions:
  status: ('A' for Active; 'I' for Inactive)
    1  A    between atoms: C_3  and  C_17
    2  A    between atoms: O_4  and  C_9
    3  A    between atoms: O_4  and  C_20
    4  A    between atoms: S_6  and  C_12
    5  A    between atoms: S_6  and  C_15
    6  A    between atoms: C_13  and  N_14
                            x       y       z     vdW  Elec       q    Type
                         _______ _______ _______ _____ _____    ______ ____

>  <TORSDO>
F 6

$$$$
=
 OpenBabel11072415233D

 25 26  0  0  1  0  0  0  0  0999 V2000
  161.7410  205.3610  152.5460 C   0  0  0  0  0  3  0  0  0  0  0  0
  162.7890  210.6460  154.3890 C   0  0  0  0  0  2  0  0  0  0  0  0
  160.5770  206.9930  150.9240 C   0  0  0  0  0  2  0  0  0  0  0  0
  160.8520  204.5650  150.3730 C   0  0  0  0  0  2  0  0  0  0  0  0
  161.4970  208.2190  155.4810 C   0  0  2  0  0  3  0  0  0  0  0  0
  162.7100  210.3870  155.8700 C   0  0  0  0  0  0  0  0  0  0  0  0
  161.5800  210.0690  153.6630 C   0  0  2  0  0  3  0  0  0  0  0  0
  161.2700  206.7190  152.2270 C   0  0  0  0  0  0  0  0  0  0  0  0
  161.0370  205.9950  149.8590 C   0  0  1  0  0  3  0  0  0  0  0  0
  161.5780  204.3630  151.6750 C   0  0  0  0  0  3  0  0  0  0  0  0
  162.1400  209.2750  156.3470 C   0  0  0  0  0  3  0  0  0  0  0  0
  161.4400  208.6060  154.0260 C   0  0  0  0  0  0  0  0  0  0  0  0
  161.3560  207.6610  153.1230 C   0  0  0  0  0  0  0  0  0  0  0  0
  159.0550  207.1880  155.0160 O   0  0  0  0  0  0  0  0  0  0  0  0
  159.8690  207.8230  156.1090 S   0  0  0  0  0  0  0  0  0  0  0  0
  160.0000  206.8660  157.2610 O   0  0  0  0  0  0  0  0  0  0  0  0
  158.7250  210.2290  155.7710 C   0  0  0  0  0  2  0  0  0  0  0  0
  159.0700  209.2900  156.6460 C   0  0  0  0  0  3  0  0  0  0  0  0
  161.6950  210.3320  152.2190 C   0  0  0  0  0  0  0  0  0  0  0  0
  161.7870  210.5480  151.0350 C   0  0  0  0  0  3  0  0  0  0  0  0
  164.6950  211.4540  156.8710 N   0  0  0  0  0  1  0  0  0  0  0  0
  163.3060  211.3020  156.7890 N   0  0  0  0  0  2  0  0  0  0  0  0
  160.2930  206.1760  148.6930 O   0  0  0  0  0  0  0  0  0  0  0  0
  161.1070  205.6860  147.6710 C   0  0  0  0  0  2  0  0  0  0  0  0
  162.3210  206.5790  147.5200 C   0  0  0  0  0  1  0  0  0  0  0  0
  2  6  1  0  0  0  0
  3  8  1  0  0  0  0
  4 10  1  0  0  0  0
  5 15  1  1  0  0  0
  5 11  1  0  0  0  0
  6 11  2  0  0  0  0
  6 22  1  0  0  0  0
  7 19  1  6  0  0  0
  7 12  1  0  0  0  0
  7  2  1  0  0  0  0
  8  1  1  0  0  0  0
  8 13  2  0  0  0  0
  9 23  1  6  0  0  0
  9  4  1  0  0  0  0
  9  3  1  0  0  0  0
 10  1  2  0  0  0  0
 12  5  1  0  0  0  0
 13 12  2  0  0  0  0
 14 15  2  0  0  0  0
 15 18  1  0  0  0  0
 15 16  2  0  0  0  0
 17 18  2  0  0  0  0
 20 19  3  0  0  0  0
 22 21  1  0  0  0  0
 24 23  1  0  0  0  0
 25 24  1  0  0  0  0
M  END
>  <MODEL>
3

>  <REMARK>
 VINA RESULT:      -4.4      3.856      5.755
  Name = 
  6 active torsions:
  status: ('A' for Active; 'I' for Inactive)
    1  A    between atoms: C_3  and  C_17
    2  A    between atoms: O_4  and  C_9
    3  A    between atoms: O_4  and  C_20
    4  A    between atoms: S_6  and  C_12
    5  A    between atoms: S_6  and  C_15
    6  A    between atoms: C_13  and  N_14
                            x       y       z     vdW  Elec       q    Type
                         _______ _______ _______ _____ _____    ______ ____

>  <TORSDO>
F 6

$$$$
=
 OpenBabel11072415233D

 25 26  0  0  1  0  0  0  0  0999 V2000
  160.0250  206.4640  147.8280 C   0  0  0  0  0  3  0  0  0  0  0  0
  160.5410  205.4770  153.4120 C   0  0  0  0  0  2  0  0  0  0  0  0
  161.7280  204.5510  148.1220 C   0  0  0  0  0  2  0  0  0  0  0  0
  160.7540  205.1100  145.8830 C   0  0  0  0  0  2  0  0  0  0  0  0
  160.9590  207.7790  151.6010 C   0  0  2  0  0  3  0  0  0  0  0  0
  160.4480  206.8980  153.9010 C   0  0  0  0  0  0  0  0  0  0  0  0
  161.5560  205.3480  152.2820 C   0  0  2  0  0  3  0  0  0  0  0  0
  160.9080  205.6700  148.6960 C   0  0  0  0  0  0  0  0  0  0  0  0
  161.0480  203.9820  146.8750 C   0  0  1  0  0  3  0  0  0  0  0  0
  159.9250  206.1880  146.5250 C   0  0  0  0  0  3  0  0  0  0  0  0
  160.6200  207.9290  153.0640 C   0  0  0  0  0  3  0  0  0  0  0  0
  161.2180  206.3500  151.2000 C   0  0  0  0  0  0  0  0  0  0  0  0
  161.0610  206.0070  149.9450 C   0  0  0  0  0  0  0  0  0  0  0  0
  162.7170  209.6600  152.3810 O   0  0  0  0  0  0  0  0  0  0  0  0
  162.3460  208.8290  151.1850 S   0  0  0  0  0  0  0  0  0  0  0  0
  163.5150  207.9740  150.7820 O   0  0  0  0  0  0  0  0  0  0  0  0
  161.9680  209.4640  148.6030 C   0  0  0  0  0  2  0  0  0  0  0  0
  161.9050  209.8920  149.8590 C   0  0  0  0  0  3  0  0  0  0  0  0
  161.6130  203.9490  151.8240 C   0  0  0  0  0  0  0  0  0  0  0  0
  161.6610  202.8040  151.4460 C   0  0  0  0  0  3  0  0  0  0  0  0
  160.0950  208.4720  155.7660 N   0  0  0  0  0  1  0  0  0  0  0  0
  160.1080  207.1670  155.2600 N   0  0  0  0  0  2  0  0  0  0  0  0
  161.8790  203.0340  146.2780 O   0  0  0  0  0  0  0  0  0  0  0  0
  161.0780  201.9010  146.1270 C   0  0  0  0  0  2  0  0  0  0  0  0
  161.0010  201.1580  147.4440 C   0  0  0  0  0  1  0  0  0  0  0  0
  1  8  1  0  0  0  0
  2  6  1  0  0  0  0
  3  8  1  0  0  0  0
  4 10  1  0  0  0  0
  4  9  1  0  0  0  0
  5 15  1  1  0  0  0
  5 11  1  0  0  0  0
  6 22  1  0  0  0  0
  7 19  1  6  0  0  0
  7  2  1  0  0  0  0
  8 13  2  0  0  0  0
  9 23  1  6  0  0  0
  9  3  1  0  0  0  0
 10  1  2  0  0  0  0
 11  6  2  0  0  0  0
 12  5  1  0  0  0  0
 12  7  1  0  0  0  0
 13 12  2  0  0  0  0
 15 14  2  0  0  0  0
 16 15  2  0  0  0  0
 17 18  2  0  0  0  0
 18 15  1  0  0  0  0
 20 19  3  0  0  0  0
 22 21  1  0  0  0  0
 24 23  1  0  0  0  0
 24 25  1  0  0  0  0
M  END
>  <MODEL>
4

>  <REMARK>
 VINA RESULT:      -4.4      4.545      7.379
  Name = 
  6 active torsions:
  status: ('A' for Active; 'I' for Inactive)
    1  A    between atoms: C_3  and  C_17
    2  A    between atoms: O_4  and  C_9
    3  A    between atoms: O_4  and  C_20
    4  A    between atoms: S_6  and  C_12
    5  A    between atoms: S_6  and  C_15
    6  A    between atoms: C_13  and  N_14
                            x       y       z     vdW  Elec       q    Type
                         _______ _______ _______ _____ _____    ______ ____

>  <TORSDO>
F 6

$$$$
=
 OpenBabel11072415233D

 25 26  0  0  1  0  0  0  0  0999 V2000
  162.9210  212.1380  148.3890 C   0  0  0  0  0  3  0  0  0  0  0  0
  160.7620  211.4530  153.6130 C   0  0  0  0  0  2  0  0  0  0  0  0
  160.3970  212.6470  148.2570 C   0  0  0  0  0  2  0  0  0  0  0  0
  161.9540  213.2230  146.3800 C   0  0  0  0  0  2  0  0  0  0  0  0
  162.1980  209.7630  151.6550 C   0  0  2  0  0  3  0  0  0  0  0  0
  161.5840  210.2660  154.0420 C   0  0  0  0  0  0  0  0  0  0  0  0
  160.1370  211.2250  152.2420 C   0  0  2  0  0  3  0  0  0  0  0  0
  161.5810  212.0930  148.9950 C   0  0  0  0  0  0  0  0  0  0  0  0
  160.8430  213.7490  147.2930 C   0  0  1  0  0  3  0  0  0  0  0  0
  163.1060  212.6910  147.1870 C   0  0  0  0  0  3  0  0  0  0  0  0
  162.2430  209.5230  153.1450 C   0  0  0  0  0  3  0  0  0  0  0  0
  161.2250  210.8430  151.2620 C   0  0  0  0  0  0  0  0  0  0  0  0
  161.4030  211.4720  150.1260 C   0  0  0  0  0  0  0  0  0  0  0  0
  162.8420  207.1870  151.2160 O   0  0  0  0  0  0  0  0  0  0  0  0
  161.8430  208.2310  150.8020 S   0  0  0  0  0  0  0  0  0  0  0  0
  160.4560  207.7730  151.1580 O   0  0  0  0  0  0  0  0  0  0  0  0
  162.2850  207.4770  148.2620 C   0  0  0  0  0  2  0  0  0  0  0  0
  161.9560  208.4810  149.0680 C   0  0  0  0  0  3  0  0  0  0  0  0
  159.3510  212.4080  151.8520 C   0  0  0  0  0  0  0  0  0  0  0  0
  158.7060  213.3770  151.5340 C   0  0  0  0  0  3  0  0  0  0  0  0
  162.6980  210.5700  156.2190 N   0  0  0  0  0  1  0  0  0  0  0  0
  161.7220  209.9540  155.4270 N   0  0  0  0  0  2  0  0  0  0  0  0
  159.7570  214.1650  146.5210 O   0  0  0  0  0  0  0  0  0  0  0  0
  159.8680  213.4450  145.3310 C   0  0  0  0  0  2  0  0  0  0  0  0
  158.5810  212.6890  145.0770 C   0  0  0  0  0  1  0  0  0  0  0  0
  1  8  1  0  0  0  0
  2  6  1  0  0  0  0
  3  8  1  0  0  0  0
  4 10  1  0  0  0  0
  4  9  1  0  0  0  0
  5 15  1  6  0  0  0
  5 11  1  0  0  0  0
  6 22  1  0  0  0  0
  7 19  1  6  0  0  0
  7  2  1  0  0  0  0
  8 13  2  0  0  0  0
  9 23  1  6  0  0  0
  9  3  1  0  0  0  0
 10  1  2  0  0  0  0
 11  6  2  0  0  0  0
 12  5  1  0  0  0  0
 12  7  1  0  0  0  0
 13 12  2  0  0  0  0
 15 16  2  0  0  0  0
 15 14  2  0  0  0  0
 17 18  2  0  0  0  0
 18 15  1  0  0  0  0
 20 19  3  0  0  0  0
 22 21  1  0  0  0  0
 24 23  1  0  0  0  0
 25 24  1  0  0  0  0
M  END
>  <MODEL>
5

>  <REMARK>
 VINA RESULT:      -4.2      3.138      5.305
  Name = 
  6 active torsions:
  status: ('A' for Active; 'I' for Inactive)
    1  A    between atoms: C_3  and  C_17
    2  A    between atoms: O_4  and  C_9
    3  A    between atoms: O_4  and  C_20
    4  A    between atoms: S_6  and  C_12
    5  A    between atoms: S_6  and  C_15
    6  A    between atoms: C_13  and  N_14
                            x       y       z     vdW  Elec       q    Type
                         _______ _______ _______ _____ _____    ______ ____

>  <TORSDO>
F 6

$$$$
=
 OpenBabel11072415233D

 25 26  0  0  1  0  0  0  0  0999 V2000
  162.3690  204.3190  151.8670 C   0  0  0  0  0  3  0  0  0  0  0  0
  162.1250  209.0090  148.6460 C   0  0  0  0  0  2  0  0  0  0  0  0
  160.3720  204.0520  150.2590 C   0  0  0  0  0  2  0  0  0  0  0  0
  161.2510  202.1230  151.5940 C   0  0  0  0  0  2  0  0  0  0  0  0
  161.9970  208.3920  151.5370 C   0  0  2  0  0  3  0  0  0  0  0  0
  162.5170  210.0190  149.6920 C   0  0  0  0  0  0  0  0  0  0  0  0
  161.0180  208.0930  149.1530 C   0  0  2  0  0  3  0  0  0  0  0  0
  161.4270  204.9050  150.9010 C   0  0  0  0  0  0  0  0  0  0  0  0
  160.8340  202.5940  150.1990 C   0  0  1  0  0  3  0  0  0  0  0  0
  162.3130  203.0190  152.1690 C   0  0  0  0  0  3  0  0  0  0  0  0
  162.4730  209.7180  150.9950 C   0  0  0  0  0  3  0  0  0  0  0  0
  161.4470  207.4830  150.4700 C   0  0  0  0  0  0  0  0  0  0  0  0
  161.4380  206.1900  150.6830 C   0  0  0  0  0  0  0  0  0  0  0  0
  159.6460  209.4570  152.2980 O   0  0  0  0  0  0  0  0  0  0  0  0
  160.7990  208.6600  152.8390 S   0  0  0  0  0  0  0  0  0  0  0  0
  160.3040  207.3320  153.3400 O   0  0  0  0  0  0  0  0  0  0  0  0
  161.2280  210.8180  154.3780 C   0  0  0  0  0  2  0  0  0  0  0  0
  161.5470  209.5480  154.1560 C   0  0  0  0  0  3  0  0  0  0  0  0
  160.6670  207.1130  148.1110 C   0  0  0  0  0  0  0  0  0  0  0  0
  160.3810  206.3120  147.2560 C   0  0  0  0  0  3  0  0  0  0  0  0
  162.3800  212.0470  148.2950 N   0  0  0  0  0  1  0  0  0  0  0  0
  163.0080  211.3000  149.3000 N   0  0  0  0  0  2  0  0  0  0  0  0
  159.7970  201.7920  149.7220 O   0  0  0  0  0  0  0  0  0  0  0  0
  160.1200  201.5480  148.3860 C   0  0  0  0  0  2  0  0  0  0  0  0
  161.3960  200.7370  148.3150 C   0  0  0  0  0  1  0  0  0  0  0  0
  1 10  2  0  0  0  0
  2  7  1  0  0  0  0
  2  6  1  0  0  0  0
  3  8  1  0  0  0  0
  4 10  1  0  0  0  0
  5 15  1  1  0  0  0
  6 11  2  0  0  0  0
  7 19  1  6  0  0  0
  7 12  1  0  0  0  0
  8  1  1  0  0  0  0
  9 23  1  1  0  0  0
  9  3  1  0  0  0  0
  9  4  1  0  0  0  0
 11  5  1  0  0  0  0
 12 13  2  0  0  0  0
 12  5  1  0  0  0  0
 13  8  2  0  0  0  0
 14 15  2  0  0  0  0
 15 16  2  0  0  0  0
 15 18  1  0  0  0  0
 18 17  2  0  0  0  0
 20 19  3  0  0  0  0
 21 22  1  0  0  0  0
 22  6  1  0  0  0  0
 24 23  1  0  0  0  0
 25 24  1  0  0  0  0
M  END
>  <MODEL>
6

>  <REMARK>
 VINA RESULT:      -3.6      4.438      7.559
  Name = 
  6 active torsions:
  status: ('A' for Active; 'I' for Inactive)
    1  A    between atoms: C_3  and  C_17
    2  A    between atoms: O_4  and  C_9
    3  A    between atoms: O_4  and  C_20
    4  A    between atoms: S_6  and  C_12
    5  A    between atoms: S_6  and  C_15
    6  A    between atoms: C_13  and  N_14
                            x       y       z     vdW  Elec       q    Type
                         _______ _______ _______ _____ _____    ______ ____

>  <TORSDO>
F 6

$$$$
=
 OpenBabel11072415233D

 25 26  0  0  1  0  0  0  0  0999 V2000
  162.7690  206.8400  148.2210 C   0  0  0  0  0  3  0  0  0  0  0  0
  161.2530  201.3630  148.5750 C   0  0  0  0  0  2  0  0  0  0  0  0
  160.7840  206.6900  149.8590 C   0  0  0  0  0  2  0  0  0  0  0  0
  162.1650  208.7690  149.6560 C   0  0  0  0  0  2  0  0  0  0  0  0
  161.4580  203.3890  146.4300 C   0  0  2  0  0  3  0  0  0  0  0  0
  161.4720  200.9750  147.1370 C   0  0  0  0  0  0  0  0  0  0  0  0
  160.4180  202.6330  148.6830 C   0  0  2  0  0  3  0  0  0  0  0  0
  161.6570  206.0730  148.8050 C   0  0  0  0  0  0  0  0  0  0  0  0
  161.5600  207.7570  150.6320 C   0  0  1  0  0  3  0  0  0  0  0  0
  163.0300  208.0820  148.6350 C   0  0  0  0  0  3  0  0  0  0  0  0
  161.5830  201.9050  146.1800 C   0  0  0  0  0  3  0  0  0  0  0  0
  161.0610  203.7170  147.8450 C   0  0  0  0  0  0  0  0  0  0  0  0
  161.3610  204.8970  148.3290 C   0  0  0  0  0  0  0  0  0  0  0  0
  159.5880  203.0150  144.5310 O   0  0  0  0  0  0  0  0  0  0  0  0
  160.3190  204.1110  145.2540 S   0  0  0  0  0  0  0  0  0  0  0  0
  159.3320  204.9780  145.9860 O   0  0  0  0  0  0  0  0  0  0  0  0
  162.2320  205.8280  144.4780 C   0  0  0  0  0  2  0  0  0  0  0  0
  161.2070  205.0790  144.0890 C   0  0  0  0  0  3  0  0  0  0  0  0
  160.2320  202.9860  150.1010 C   0  0  0  0  0  0  0  0  0  0  0  0
  160.0790  203.2740  151.2620 C   0  0  0  0  0  3  0  0  0  0  0  0
  161.1490  199.1020  145.5660 N   0  0  0  0  0  1  0  0  0  0  0  0
  161.6310  199.6030  146.7810 N   0  0  0  0  0  2  0  0  0  0  0  0
  160.7050  208.4120  151.5180 O   0  0  0  0  0  0  0  0  0  0  0  0
  161.3700  208.3820  152.7450 C   0  0  0  0  0  2  0  0  0  0  0  0
  161.0260  207.0990  153.4740 C   0  0  0  0  0  1  0  0  0  0  0  0
  1 10  2  0  0  0  0
  1  8  1  0  0  0  0
  2  7  1  0  0  0  0
  3  9  1  0  0  0  0
  4  9  1  0  0  0  0
  5 15  1  6  0  0  0
  5 12  1  0  0  0  0
  6  2  1  0  0  0  0
  7 19  1  1  0  0  0
  8  3  1  0  0  0  0
  9 23  1  1  0  0  0
 10  4  1  0  0  0  0
 11  5  1  0  0  0  0
 11  6  2  0  0  0  0
 12 13  2  0  0  0  0
 12  7  1  0  0  0  0
 13  8  2  0  0  0  0
 14 15  2  0  0  0  0
 15 16  2  0  0  0  0
 18 17  2  0  0  0  0
 18 15  1  0  0  0  0
 19 20  3  0  0  0  0
 21 22  1  0  0  0  0
 22  6  1  0  0  0  0
 23 24  1  0  0  0  0
 24 25  1  0  0  0  0
M  END
>  <MODEL>
7

>  <REMARK>
 VINA RESULT:      -3.4      6.307      8.800
  Name = 
  6 active torsions:
  status: ('A' for Active; 'I' for Inactive)
    1  A    between atoms: C_3  and  C_17
    2  A    between atoms: O_4  and  C_9
    3  A    between atoms: O_4  and  C_20
    4  A    between atoms: S_6  and  C_12
    5  A    between atoms: S_6  and  C_15
    6  A    between atoms: C_13  and  N_14
                            x       y       z     vdW  Elec       q    Type
                         _______ _______ _______ _____ _____    ______ ____

>  <TORSDO>
F 6

$$$$
=
 OpenBabel11072415233D

 25 26  0  0  1  0  0  0  0  0999 V2000
  163.4800  211.0900  148.2790 C   0  0  0  0  0  3  0  0  0  0  0  0
  161.5740  208.0610  152.7080 C   0  0  0  0  0  2  0  0  0  0  0  0
  161.2330  212.1190  149.0120 C   0  0  0  0  0  2  0  0  0  0  0  0
  162.7600  213.3000  147.4150 C   0  0  0  0  0  2  0  0  0  0  0  0
  162.2830  207.5110  149.8890 C   0  0  2  0  0  3  0  0  0  0  0  0
  162.0160  206.6960  152.2540 C   0  0  0  0  0  0  0  0  0  0  0  0
  160.8180  208.7910  151.6050 C   0  0  2  0  0  3  0  0  0  0  0  0
  162.2350  211.0030  149.0590 C   0  0  0  0  0  0  0  0  0  0  0  0
  161.9300  213.4440  148.6930 C   0  0  1  0  0  3  0  0  0  0  0  0
  163.7440  212.1690  147.5380 C   0  0  0  0  0  3  0  0  0  0  0  0
  162.3530  206.4680  150.9780 C   0  0  0  0  0  3  0  0  0  0  0  0
  161.6660  208.8040  150.3520 C   0  0  0  0  0  0  0  0  0  0  0  0
  161.9520  209.9080  149.7060 C   0  0  0  0  0  0  0  0  0  0  0  0
  160.0040  206.5170  148.8600 O   0  0  0  0  0  0  0  0  0  0  0  0
  161.4160  206.8530  148.4690 S   0  0  0  0  0  0  0  0  0  0  0  0
  161.4060  207.8800  147.3720 O   0  0  0  0  0  0  0  0  0  0  0  0
  161.9750  204.9150  146.6950 C   0  0  0  0  0  2  0  0  0  0  0  0
  162.2210  205.3970  147.9090 C   0  0  0  0  0  3  0  0  0  0  0  0
  160.4090  210.1240  152.0810 C   0  0  0  0  0  0  0  0  0  0  0  0
  160.0730  211.2160  152.4690 C   0  0  0  0  0  3  0  0  0  0  0  0
  161.3430  204.4900  153.1250 N   0  0  0  0  0  1  0  0  0  0  0  0
  162.1460  205.6340  153.1980 N   0  0  0  0  0  2  0  0  0  0  0  0
  160.9760  214.4480  148.5230 O   0  0  0  0  0  0  0  0  0  0  0  0
  159.7470  213.8000  148.6620 C   0  0  0  0  0  2  0  0  0  0  0  0
  159.0000  214.3810  149.8440 C   0  0  0  0  0  1  0  0  0  0  0  0
  1  8  1  0  0  0  0
  3  8  1  0  0  0  0
  4 10  1  0  0  0  0
  4  9  1  0  0  0  0
  5 15  1  6  0  0  0
  5 12  1  0  0  0  0
  5 11  1  0  0  0  0
  6  2  1  0  0  0  0
  6 22  1  0  0  0  0
  7 19  1  1  0  0  0
  7  2  1  0  0  0  0
  8 13  2  0  0  0  0
  9 23  1  6  0  0  0
  9  3  1  0  0  0  0
 10  1  2  0  0  0  0
 11  6  2  0  0  0  0
 12  7  1  0  0  0  0
 13 12  2  0  0  0  0
 15 14  2  0  0  0  0
 16 15  2  0  0  0  0
 17 18  2  0  0  0  0
 18 15  1  0  0  0  0
 19 20  3  0  0  0  0
 21 22  1  0  0  0  0
 23 24  1  0  0  0  0
 24 25  1  0  0  0  0
M  END
>  <MODEL>
8

>  <REMARK>
 VINA RESULT:      -3.4      3.264      5.403
  Name = 
  6 active torsions:
  status: ('A' for Active; 'I' for Inactive)
    1  A    between atoms: C_3  and  C_17
    2  A    between atoms: O_4  and  C_9
    3  A    between atoms: O_4  and  C_20
    4  A    between atoms: S_6  and  C_12
    5  A    between atoms: S_6  and  C_15
    6  A    between atoms: C_13  and  N_14
                            x       y       z     vdW  Elec       q    Type
                         _______ _______ _______ _____ _____    ______ ____

>  <TORSDO>
F 6

$$$$
=
 OpenBabel11072415233D

 25 26  0  0  1  0  0  0  0  0999 V2000
  160.1320  206.5830  148.3360 C   0  0  0  0  0  3  0  0  0  0  0  0
  160.1540  207.8180  153.8950 C   0  0  0  0  0  2  0  0  0  0  0  0
  161.6530  204.8610  149.5060 C   0  0  0  0  0  2  0  0  0  0  0  0
  160.8940  204.5500  147.1390 C   0  0  0  0  0  2  0  0  0  0  0  0
  160.8850  209.2160  151.3920 C   0  0  2  0  0  3  0  0  0  0  0  0
  160.1380  209.3200  153.7910 C   0  0  0  0  0  0  0  0  0  0  0  0
  161.2370  207.2160  153.0070 C   0  0  2  0  0  3  0  0  0  0  0  0
  160.8830  206.1500  149.5250 C   0  0  0  0  0  0  0  0  0  0  0  0
  161.0240  203.8830  148.5110 C   0  0  1  0  0  3  0  0  0  0  0  0
  160.1080  205.8280  147.2350 C   0  0  0  0  0  3  0  0  0  0  0  0
  160.4520  209.9370  152.6460 C   0  0  0  0  0  3  0  0  0  0  0  0
  161.0600  207.7340  151.5960 C   0  0  0  0  0  0  0  0  0  0  0  0
  160.9700  206.9380  150.5590 C   0  0  0  0  0  0  0  0  0  0  0  0
  163.2830  210.3320  151.8850 O   0  0  0  0  0  0  0  0  0  0  0  0
  162.3770  209.9610  150.7450 S   0  0  0  0  0  0  0  0  0  0  0  0
  163.0740  208.9780  149.8460 O   0  0  0  0  0  0  0  0  0  0  0  0
  161.6150  211.3240  148.5600 C   0  0  0  0  0  2  0  0  0  0  0  0
  161.9700  211.4080  149.8380 C   0  0  0  0  0  3  0  0  0  0  0  0
  161.2180  205.7480  153.1250 C   0  0  0  0  0  0  0  0  0  0  0  0
  161.2030  204.5460  153.2240 C   0  0  0  0  0  3  0  0  0  0  0  0
  158.4550  209.9460  155.4810 N   0  0  0  0  0  1  0  0  0  0  0  0
  159.7200  210.1090  154.9040 N   0  0  0  0  0  2  0  0  0  0  0  0
  161.8210  202.7430  148.4060 O   0  0  0  0  0  0  0  0  0  0  0  0
  160.9170  201.6820  148.3330 C   0  0  0  0  0  2  0  0  0  0  0  0
  160.1500  201.5810  149.6350 C   0  0  0  0  0  1  0  0  0  0  0  0
  1  8  1  0  0  0  0
  3  8  1  0  0  0  0
  4 10  1  0  0  0  0
  4  9  1  0  0  0  0
  5 15  1  1  0  0  0
  5 12  1  0  0  0  0
  5 11  1  0  0  0  0
  6  2  1  0  0  0  0
  6 22  1  0  0  0  0
  7 19  1  6  0  0  0
  7  2  1  0  0  0  0
  8 13  2  0  0  0  0
  9 23  1  6  0  0  0
  9  3  1  0  0  0  0
 10  1  2  0  0  0  0
 11  6  2  0  0  0  0
 12  7  1  0  0  0  0
 13 12  2  0  0  0  0
 15 14  2  0  0  0  0
 16 15  2  0  0  0  0
 17 18  2  0  0  0  0
 18 15  1  0  0  0  0
 19 20  3  0  0  0  0
 22 21  1  0  0  0  0
 24 23  1  0  0  0  0
 24 25  1  0  0  0  0
M  END
>  <MODEL>
9

>  <REMARK>
 VINA RESULT:      -3.4      4.173      7.287
  Name = 
  6 active torsions:
  status: ('A' for Active; 'I' for Inactive)
    1  A    between atoms: C_3  and  C_17
    2  A    between atoms: O_4  and  C_9
    3  A    between atoms: O_4  and  C_20
    4  A    between atoms: S_6  and  C_12
    5  A    between atoms: S_6  and  C_15
    6  A    between atoms: C_13  and  N_14
                            x       y       z     vdW  Elec       q    Type
                         _______ _______ _______ _____ _____    ______ ____

>  <TORSDO>
F 6

$$$$
