=
 OpenBabel11072412453D

 55 62  0  0  1  0  0  0  0  0999 V2000
  161.5820  206.6470  152.1110 C   0  0  1  0  0  3  0  0  0  0  0  0
  161.0450  209.6930  152.6960 C   0  0  0  0  0  0  0  0  0  0  0  0
  160.2930  208.4160  152.8410 C   0  0  2  0  0  3  0  0  0  0  0  0
  160.2660  207.6810  154.0530 O   0  0  0  0  0  0  0  0  0  0  0  0
  161.8580  209.8110  151.6120 C   0  0  0  0  0  3  0  0  0  0  0  0
  161.4430  207.5900  153.2850 C   0  0  1  0  0  3  0  0  0  0  0  0
  162.5130  207.3310  151.0620 C   0  0  0  0  0  2  0  0  0  0  0  0
  162.0300  208.7170  150.5490 C   0  0  0  0  0  2  0  0  0  0  0  0
  158.6020  210.5750  156.1410 C   0  0  0  0  0  2  0  0  0  0  0  0
  161.5690  210.8740  154.9070 C   0  0  0  0  0  0  0  0  0  0  0  0
  160.8040  210.8730  153.6050 C   0  0  2  0  0  3  0  0  0  0  0  0
  162.8670  210.6890  154.9890 C   0  0  0  0  0  3  0  0  0  0  0  0
  160.9980  211.2930  156.2370 C   0  0  2  0  0  3  0  0  0  0  0  0
  162.2220  211.2770  157.1450 C   0  0  0  0  0  2  0  0  0  0  0  0
  159.9790  210.2790  156.7260 C   0  0  0  0  0  2  0  0  0  0  0  0
  158.4940  210.1640  154.6780 C   0  0  0  0  0  2  0  0  0  0  0  0
  159.3050  211.0940  153.7760 C   0  0  1  0  0  3  0  0  0  0  0  0
  163.2880  210.8830  156.2880 O   0  0  0  0  0  0  0  0  0  0  0  0
  156.9260  212.3420  154.9740 C   0  0  0  0  0  3  0  0  0  0  0  0
  158.6930  212.3360  153.1830 C   0  0  0  0  0  0  0  0  0  0  0  0
  159.2640  212.9070  151.9370 C   0  0  0  0  0  0  0  0  0  0  0  0
  159.0410  214.2330  149.8610 C   0  0  0  0  0  1  0  0  0  0  0  0
  155.7150  214.4530  153.3590 C   0  0  0  0  0  3  0  0  0  0  0  0
  156.8040  213.8500  152.8700 C   0  0  1  0  0  3  0  0  0  0  0  0
  158.5340  213.7410  151.1670 C   0  0  0  0  0  0  0  0  0  0  0  0
  155.8270  213.2330  155.4960 C   0  0  0  0  0  3  0  0  0  0  0  0
  155.2520  214.1730  154.7360 C   0  0  0  0  0  3  0  0  0  0  0  0
  157.2670  214.1670  151.5920 O   0  0  0  0  0  0  0  0  0  0  0  0
  160.5770  212.5900  151.5710 O   0  0  0  0  0  1  0  0  0  0  0  0
  157.5340  212.8530  153.6790 C   0  0  0  0  0  0  0  0  0  0  0  0
  162.0960  205.2390  152.5240 C   0  0  0  0  0  0  0  0  0  0  0  0
  161.6480  204.9410  153.7890 F   0  0  0  0  0  0  0  0  0  0  0  0
  163.4880  205.2540  152.6110 F   0  0  0  0  0  0  0  0  0  0  0  0
  160.6410  203.3150  152.2410 F   0  0  0  0  0  0  0  0  0  0  0  0
  161.6340  204.0550  151.6210 C   0  0  1  0  0  3  0  0  0  0  0  0
  161.1470  204.4450  150.2180 C   0  0  0  0  0  2  0  0  0  0  0  0
  162.0370  203.8710  149.1090 C   0  0  0  0  0  2  0  0  0  0  0  0
  160.7980  205.3290  145.1370 C   0  0  2  0  0  3  0  0  0  0  0  0
  161.2600  203.6690  147.7980 C   0  0  2  0  0  3  0  0  0  0  0  0
  162.0410  205.3970  146.0430 C   0  0  2  0  0  3  0  0  0  0  0  0
  160.1270  201.9820  146.3590 O   0  0  0  0  0  0  0  0  0  0  0  0
  161.6230  203.2520  145.3230 C   0  0  1  0  0  3  0  0  0  0  0  0
  160.5050  202.3150  147.6730 C   0  0  1  0  0  3  0  0  0  0  0  0
  162.1320  203.9740  146.5590 C   0  0  2  0  0  3  0  0  0  0  0  0
  161.2310  201.9240  145.6290 O   0  0  0  0  0  0  0  0  0  0  0  0
  160.5470  203.9890  144.7930 O   0  0  0  0  0  0  0  0  0  0  0  0
  161.0090  206.1360  143.8560 C   0  0  0  0  0  2  0  0  0  0  0  0
  162.0940  205.6130  143.1560 O   0  0  0  0  0  1  0  0  0  0  0  0
  161.9730  206.4860  147.1250 C   0  0  0  0  0  2  0  0  0  0  0  0
  160.5530  207.0220  147.2550 C   0  0  0  0  0  2  0  0  0  0  0  0
  159.9690  206.5480  148.5870 C   0  0  0  0  0  1  0  0  0  0  0  0
  160.9110  201.1060  148.5380 C   0  0  0  0  0  2  0  0  0  0  0  0
  160.5630  200.8510  151.0020 O   0  0  0  0  0  1  0  0  0  0  0  0
  158.7630  200.9070  149.5770 O   0  0  0  0  0  0  0  0  0  0  0  0
  160.0210  200.9220  149.7190 C   0  0  0  0  0  0  0  0  0  0  0  0
  1 31  1  1  0  0  0
  1  6  1  0  0  0  0
  3  2  1  1  0  0  0
  3  6  1  0  0  0  0
  3  4  1  0  0  0  0
  5  2  2  0  0  0  0
  6  4  1  1  0  0  0
  7  1  1  0  0  0  0
  8  7  1  0  0  0  0
  8  5  1  0  0  0  0
  9 15  1  0  0  0  0
 10 12  2  0  0  0  0
 10 13  1  0  0  0  0
 11  2  1  1  0  0  0
 11 17  1  0  0  0  0
 11 10  1  0  0  0  0
 12 18  1  0  0  0  0
 13 15  1  1  0  0  0
 13 14  1  0  0  0  0
 16  9  1  0  0  0  0
 17 20  1  1  0  0  0
 17 16  1  0  0  0  0
 18 14  1  0  0  0  0
 19 26  2  0  0  0  0
 20 30  2  0  0  0  0
 21 20  1  0  0  0  0
 22 25  1  0  0  0  0
 23 27  2  0  0  0  0
 24 23  1  1  0  0  0
 24 30  1  0  0  0  0
 25 28  1  0  0  0  0
 25 21  2  0  0  0  0
 27 26  1  0  0  0  0
 28 24  1  0  0  0  0
 29 21  1  0  0  0  0
 30 19  1  0  0  0  0
 31 33  1  0  0  0  0
 31 32  1  0  0  0  0
 35 34  1  1  0  0  0
 35 31  1  0  0  0  0
 36 35  1  0  0  0  0
 37 36  1  0  0  0  0
 38 47  1  6  0  0  0
 38 40  1  0  0  0  0
 39 37  1  1  0  0  0
 40 44  1  0  0  0  0
 40 49  1  1  0  0  0
 41 43  1  0  0  0  0
 42 46  1  1  0  0  0
 42 45  1  0  0  0  0
 42 44  1  0  0  0  0
 43 39  1  0  0  0  0
 43 52  1  6  0  0  0
 44 39  1  0  0  0  0
 45 41  1  0  0  0  0
 46 38  1  0  0  0  0
 48 47  1  0  0  0  0
 49 50  1  0  0  0  0
 50 51  1  0  0  0  0
 52 55  1  0  0  0  0
 54 55  2  0  0  0  0
 55 53  1  0  0  0  0
M  END
>  <MODEL>
1

>  <REMARK>
 VINA RESULT:      -6.5      0.000      0.000
  Name = 
  12 active torsions:
  status: ('A' for Active; 'I' for Inactive)
    1  A    between atoms: C_1  and  C_3
    2  A    between atoms: C_1  and  C_25
    3  A    between atoms: C_4  and  C_27
    4  A    between atoms: C_5  and  C_45
    5  A    between atoms: C_6  and  C_28
    6  A    between atoms: C_6  and  C_48
    7  A    between atoms: C_13  and  C_19
    8  A    between atoms: C_13  and  C_31
    9  A    between atoms: C_17  and  C_22
   10  A    between atoms: C_25  and  C_48
   11  A    between atoms: C_34  and  C_39
   12  A    between atoms: C_39  and  C_47
                            x       y       z     vdW  Elec       q    Type
                         _______ _______ _______ _____ _____    ______ ____

>  <TORSDO>
F 12

$$$$
=
 OpenBabel11072412453D

 55 62  0  0  1  0  0  0  0  0999 V2000
  161.4920  206.8380  151.9670 C   0  0  1  0  0  3  0  0  0  0  0  0
  161.0370  209.8410  152.7940 C   0  0  0  0  0  0  0  0  0  0  0  0
  160.2500  208.5770  152.8370 C   0  0  2  0  0  3  0  0  0  0  0  0
  160.2020  207.7480  153.9860 O   0  0  0  0  0  0  0  0  0  0  0  0
  161.8540  210.0230  151.7230 C   0  0  0  0  0  3  0  0  0  0  0  0
  161.3770  207.6870  153.2130 C   0  0  1  0  0  3  0  0  0  0  0  0
  162.4420  207.5780  150.9760 C   0  0  0  0  0  2  0  0  0  0  0  0
  161.9980  209.0130  150.5760 C   0  0  0  0  0  2  0  0  0  0  0  0
  158.8010  210.4210  156.4390 C   0  0  0  0  0  2  0  0  0  0  0  0
  161.6740  210.8860  155.0440 C   0  0  0  0  0  0  0  0  0  0  0  0
  160.8270  210.9500  153.7950 C   0  0  2  0  0  3  0  0  0  0  0  0
  162.9790  210.7330  155.0310 C   0  0  0  0  0  3  0  0  0  0  0  0
  161.1800  211.1990  156.4330 C   0  0  2  0  0  3  0  0  0  0  0  0
  162.4600  211.1580  157.2590 C   0  0  0  0  0  2  0  0  0  0  0  0
  160.2200  210.1260  156.9150 C   0  0  0  0  0  2  0  0  0  0  0  0
  158.6080  210.1050  154.9610 C   0  0  0  0  0  2  0  0  0  0  0  0
  159.3370  211.1160  154.0750 C   0  0  1  0  0  3  0  0  0  0  0  0
  163.4780  210.8530  156.3110 O   0  0  0  0  0  0  0  0  0  0  0  0
  157.0750  212.2690  155.5600 C   0  0  0  0  0  3  0  0  0  0  0  0
  158.6570  212.3770  153.6080 C   0  0  0  0  0  0  0  0  0  0  0  0
  159.0990  213.0170  152.3430 C   0  0  0  0  0  0  0  0  0  0  0  0
  158.6600  214.4400  150.3680 C   0  0  0  0  0  1  0  0  0  0  0  0
  155.6910  214.4390  154.1790 C   0  0  0  0  0  3  0  0  0  0  0  0
  156.7330  213.8770  153.5570 C   0  0  1  0  0  3  0  0  0  0  0  0
  158.2880  213.8770  151.6900 C   0  0  0  0  0  0  0  0  0  0  0  0
  156.0230  213.1180  156.2310 C   0  0  0  0  0  3  0  0  0  0  0  0
  155.3680  214.0850  155.5800 C   0  0  0  0  0  3  0  0  0  0  0  0
  157.0660  214.2640  152.2580 O   0  0  0  0  0  0  0  0  0  0  0  0
  160.3720  212.7370  151.8350 O   0  0  0  0  0  1  0  0  0  0  0  0
  157.5480  212.8520  154.2390 C   0  0  0  0  0  0  0  0  0  0  0  0
  161.9670  205.3870  152.2660 C   0  0  0  0  0  0  0  0  0  0  0  0
  161.5030  204.9990  153.5010 F   0  0  0  0  0  0  0  0  0  0  0  0
  163.3580  205.3590  152.3590 F   0  0  0  0  0  0  0  0  0  0  0  0
  160.1010  204.1650  151.3050 F   0  0  0  0  0  0  0  0  0  0  0  0
  161.4790  204.2940  151.2670 C   0  0  1  0  0  3  0  0  0  0  0  0
  161.9090  204.4930  149.8070 C   0  0  0  0  0  2  0  0  0  0  0  0
  160.7720  204.2060  148.8180 C   0  0  0  0  0  2  0  0  0  0  0  0
  161.7780  200.3730  146.8860 C   0  0  2  0  0  3  0  0  0  0  0  0
  161.2640  203.4200  147.5910 C   0  0  2  0  0  3  0  0  0  0  0  0
  160.7480  200.9070  147.8980 C   0  0  2  0  0  3  0  0  0  0  0  0
  161.6640  203.5460  145.1370 O   0  0  0  0  0  0  0  0  0  0  0  0
  160.4450  201.8160  145.8060 C   0  0  1  0  0  3  0  0  0  0  0  0
  161.5870  204.2790  146.3360 C   0  0  1  0  0  3  0  0  0  0  0  0
  160.3410  202.2250  147.2650 C   0  0  2  0  0  3  0  0  0  0  0  0
  160.4930  202.9520  144.9580 O   0  0  0  0  0  0  0  0  0  0  0  0
  161.5950  201.0190  145.6510 O   0  0  0  0  0  0  0  0  0  0  0  0
  161.6160  198.8660  146.6830 C   0  0  0  0  0  2  0  0  0  0  0  0
  161.3050  198.6120  145.3500 O   0  0  0  0  0  1  0  0  0  0  0  0
  161.2720  201.0030  149.3400 C   0  0  0  0  0  2  0  0  0  0  0  0
  160.1200  200.9250  150.3320 C   0  0  0  0  0  2  0  0  0  0  0  0
  158.8280  201.3230  149.6180 C   0  0  0  0  0  1  0  0  0  0  0  0
  160.9920  205.6910  146.1750 C   0  0  0  0  0  2  0  0  0  0  0  0
  160.5560  207.2430  148.0890 O   0  0  0  0  0  1  0  0  0  0  0  0
  162.7070  206.8390  147.3900 O   0  0  0  0  0  0  0  0  0  0  0  0
  161.4680  206.6370  147.2230 C   0  0  0  0  0  0  0  0  0  0  0  0
  1 31  1  1  0  0  0
  1  6  1  0  0  0  0
  3  2  1  1  0  0  0
  3  6  1  0  0  0  0
  3  4  1  0  0  0  0
  5  2  2  0  0  0  0
  6  4  1  1  0  0  0
  7  1  1  0  0  0  0
  8  7  1  0  0  0  0
  8  5  1  0  0  0  0
  9 15  1  0  0  0  0
 10 13  1  0  0  0  0
 11  2  1  1  0  0  0
 11 17  1  0  0  0  0
 11 10  1  0  0  0  0
 12 10  2  0  0  0  0
 12 18  1  0  0  0  0
 13 15  1  1  0  0  0
 13 14  1  0  0  0  0
 16  9  1  0  0  0  0
 17 20  1  1  0  0  0
 17 16  1  0  0  0  0
 18 14  1  0  0  0  0
 19 26  2  0  0  0  0
 20 30  2  0  0  0  0
 21 20  1  0  0  0  0
 22 25  1  0  0  0  0
 23 27  2  0  0  0  0
 24 23  1  1  0  0  0
 24 30  1  0  0  0  0
 25 28  1  0  0  0  0
 25 21  2  0  0  0  0
 27 26  1  0  0  0  0
 28 24  1  0  0  0  0
 29 21  1  0  0  0  0
 30 19  1  0  0  0  0
 31 33  1  0  0  0  0
 31 32  1  0  0  0  0
 35 34  1  6  0  0  0
 35 31  1  0  0  0  0
 36 35  1  0  0  0  0
 37 36  1  0  0  0  0
 38 47  1  6  0  0  0
 38 40  1  0  0  0  0
 39 37  1  1  0  0  0
 40 49  1  1  0  0  0
 41 43  1  0  0  0  0
 42 45  1  6  0  0  0
 42 44  1  0  0  0  0
 43 52  1  6  0  0  0
 43 39  1  0  0  0  0
 44 39  1  0  0  0  0
 44 40  1  0  0  0  0
 45 41  1  0  0  0  0
 46 42  1  0  0  0  0
 46 38  1  0  0  0  0
 48 47  1  0  0  0  0
 49 50  1  0  0  0  0
 51 50  1  0  0  0  0
 52 55  1  0  0  0  0
 55 54  2  0  0  0  0
 55 53  1  0  0  0  0
M  END
>  <MODEL>
2

>  <REMARK>
 VINA RESULT:      -6.4      1.305      3.019
  Name = 
  12 active torsions:
  status: ('A' for Active; 'I' for Inactive)
    1  A    between atoms: C_1  and  C_3
    2  A    between atoms: C_1  and  C_25
    3  A    between atoms: C_4  and  C_27
    4  A    between atoms: C_5  and  C_45
    5  A    between atoms: C_6  and  C_28
    6  A    between atoms: C_6  and  C_48
    7  A    between atoms: C_13  and  C_19
    8  A    between atoms: C_13  and  C_31
    9  A    between atoms: C_17  and  C_22
   10  A    between atoms: C_25  and  C_48
   11  A    between atoms: C_34  and  C_39
   12  A    between atoms: C_39  and  C_47
                            x       y       z     vdW  Elec       q    Type
                         _______ _______ _______ _____ _____    ______ ____

>  <TORSDO>
F 12

$$$$
=
 OpenBabel11072412453D

 55 62  0  0  1  0  0  0  0  0999 V2000
  161.3380  208.2430  152.4150 C   0  0  1  0  0  3  0  0  0  0  0  0
  160.2450  210.9050  153.6920 C   0  0  0  0  0  0  0  0  0  0  0  0
  161.4340  210.4980  152.8920 C   0  0  2  0  0  3  0  0  0  0  0  0
  161.4820  210.6260  151.4810 O   0  0  0  0  0  0  0  0  0  0  0  0
  159.7790  210.0090  154.6020 C   0  0  0  0  0  3  0  0  0  0  0  0
  160.7210  209.5580  151.9930 C   0  0  1  0  0  3  0  0  0  0  0  0
  160.5020  207.6910  153.6110 C   0  0  0  0  0  2  0  0  0  0  0  0
  160.4080  208.6300  154.8460 C   0  0  0  0  0  2  0  0  0  0  0  0
  156.3750  212.7560  154.1530 C   0  0  0  0  0  2  0  0  0  0  0  0
  159.4920  213.0040  154.9500 C   0  0  0  0  0  0  0  0  0  0  0  0
  159.6750  212.2990  153.6270 C   0  0  2  0  0  3  0  0  0  0  0  0
  160.4370  213.1060  155.8570 C   0  0  0  0  0  3  0  0  0  0  0  0
  158.3010  213.8540  155.3130 C   0  0  2  0  0  3  0  0  0  0  0  0
  158.7150  214.4520  156.6530 C   0  0  0  0  0  2  0  0  0  0  0  0
  157.0640  212.9930  155.4930 C   0  0  0  0  0  2  0  0  0  0  0  0
  157.1120  211.7350  153.2950 C   0  0  0  0  0  2  0  0  0  0  0  0
  158.4240  212.3050  152.7540 C   0  0  1  0  0  3  0  0  0  0  0  0
  160.0140  213.9190  156.8880 O   0  0  0  0  0  0  0  0  0  0  0  0
  155.9750  213.3120  151.4750 C   0  0  0  0  0  3  0  0  0  0  0  0
  158.4750  213.0330  151.4370 C   0  0  0  0  0  0  0  0  0  0  0  0
  159.7770  213.1940  150.7420 C   0  0  0  0  0  0  0  0  0  0  0  0
  161.1070  213.5140  148.6810 C   0  0  0  0  0  1  0  0  0  0  0  0
  156.3360  214.2740  148.7410 C   0  0  0  0  0  3  0  0  0  0  0  0
  157.4150  213.8080  149.3790 C   0  0  1  0  0  3  0  0  0  0  0  0
  159.8200  213.4620  149.4190 C   0  0  0  0  0  0  0  0  0  0  0  0
  154.8920  214.0460  150.7230 C   0  0  0  0  0  3  0  0  0  0  0  0
  155.0530  214.4490  149.4580 C   0  0  0  0  0  3  0  0  0  0  0  0
  158.6360  213.7050  148.7090 O   0  0  0  0  0  0  0  0  0  0  0  0
  160.9670  213.0840  151.4700 O   0  0  0  0  0  1  0  0  0  0  0  0
  157.3310  213.4090  150.7980 C   0  0  0  0  0  0  0  0  0  0  0  0
  161.4410  207.2210  151.2470 C   0  0  0  0  0  0  0  0  0  0  0  0
  160.4690  206.2590  151.3930 F   0  0  0  0  0  0  0  0  0  0  0  0
  162.6580  206.5430  151.3230 F   0  0  0  0  0  0  0  0  0  0  0  0
  162.4030  208.4230  149.3690 F   0  0  0  0  0  0  0  0  0  0  0  0
  161.2470  207.8050  149.8150 C   0  0  1  0  0  3  0  0  0  0  0  0
  160.7890  206.8000  148.7480 C   0  0  0  0  0  2  0  0  0  0  0  0
  161.7910  205.6550  148.5550 C   0  0  0  0  0  2  0  0  0  0  0  0
  159.9640  202.6350  145.9130 C   0  0  2  0  0  3  0  0  0  0  0  0
  161.0860  204.3020  148.3640 C   0  0  2  0  0  3  0  0  0  0  0  0
  161.1370  203.6320  145.8700 C   0  0  2  0  0  3  0  0  0  0  0  0
  160.5660  202.1230  149.4500 O   0  0  0  0  0  0  0  0  0  0  0  0
  161.4760  201.9760  147.4320 C   0  0  1  0  0  3  0  0  0  0  0  0
  160.8530  203.4840  149.6660 C   0  0  1  0  0  3  0  0  0  0  0  0
  161.7450  203.4600  147.2490 C   0  0  2  0  0  3  0  0  0  0  0  0
  161.5910  201.5990  148.7940 O   0  0  0  0  0  0  0  0  0  0  0  0
  160.1890  201.6960  146.9340 O   0  0  0  0  0  0  0  0  0  0  0  0
  159.8270  201.8930  144.5830 C   0  0  0  0  0  2  0  0  0  0  0  0
  160.1090  200.5430  144.7780 O   0  0  0  0  0  1  0  0  0  0  0  0
  160.7310  205.0680  145.5030 C   0  0  0  0  0  2  0  0  0  0  0  0
  161.8700  205.7780  144.7840 C   0  0  0  0  0  2  0  0  0  0  0  0
  163.1330  204.9250  144.9030 C   0  0  0  0  0  1  0  0  0  0  0  0
  161.6930  203.7600  150.9280 C   0  0  0  0  0  2  0  0  0  0  0  0
  160.8950  201.9060  152.4060 O   0  0  0  0  0  0  0  0  0  0  0  0
  160.6630  204.0950  153.0630 O   0  0  0  0  0  1  0  0  0  0  0  0
  161.0330  203.2750  152.1720 C   0  0  0  0  0  0  0  0  0  0  0  0
  1 31  1  6  0  0  0
  1  7  1  0  0  0  0
  2  5  2  0  0  0  0
  3  4  1  6  0  0  0
  3  2  1  0  0  0  0
  5  8  1  0  0  0  0
  6  4  1  6  0  0  0
  6  1  1  0  0  0  0
  6  3  1  0  0  0  0
  7  8  1  0  0  0  0
  9 15  1  0  0  0  0
 10 13  1  0  0  0  0
 10 12  2  0  0  0  0
 11  2  1  1  0  0  0
 11 10  1  0  0  0  0
 12 18  1  0  0  0  0
 13 15  1  1  0  0  0
 13 14  1  0  0  0  0
 14 18  1  0  0  0  0
 16  9  1  0  0  0  0
 17 20  1  1  0  0  0
 17 16  1  0  0  0  0
 17 11  1  0  0  0  0
 21 20  1  0  0  0  0
 21 29  1  0  0  0  0
 22 25  1  0  0  0  0
 23 27  2  0  0  0  0
 24 23  1  1  0  0  0
 24 30  1  0  0  0  0
 25 21  2  0  0  0  0
 26 19  2  0  0  0  0
 27 26  1  0  0  0  0
 28 24  1  0  0  0  0
 28 25  1  0  0  0  0
 30 20  2  0  0  0  0
 30 19  1  0  0  0  0
 31 33  1  0  0  0  0
 31 32  1  0  0  0  0
 35 34  1  6  0  0  0
 35 31  1  0  0  0  0
 36 35  1  0  0  0  0
 37 36  1  0  0  0  0
 38 47  1  6  0  0  0
 38 46  1  0  0  0  0
 39 37  1  1  0  0  0
 39 43  1  0  0  0  0
 40 49  1  1  0  0  0
 40 38  1  0  0  0  0
 40 44  1  0  0  0  0
 41 43  1  0  0  0  0
 42 46  1  1  0  0  0
 42 45  1  0  0  0  0
 43 52  1  1  0  0  0
 44 42  1  0  0  0  0
 44 39  1  0  0  0  0
 45 41  1  0  0  0  0
 47 48  1  0  0  0  0
 50 51  1  0  0  0  0
 50 49  1  0  0  0  0
 52 55  1  0  0  0  0
 55 53  2  0  0  0  0
 55 54  1  0  0  0  0
M  END
>  <MODEL>
3

>  <REMARK>
 VINA RESULT:      -5.7      1.978      3.381
  Name = 
  12 active torsions:
  status: ('A' for Active; 'I' for Inactive)
    1  A    between atoms: C_1  and  C_3
    2  A    between atoms: C_1  and  C_25
    3  A    between atoms: C_4  and  C_27
    4  A    between atoms: C_5  and  C_45
    5  A    between atoms: C_6  and  C_28
    6  A    between atoms: C_6  and  C_48
    7  A    between atoms: C_13  and  C_19
    8  A    between atoms: C_13  and  C_31
    9  A    between atoms: C_17  and  C_22
   10  A    between atoms: C_25  and  C_48
   11  A    between atoms: C_34  and  C_39
   12  A    between atoms: C_39  and  C_47
                            x       y       z     vdW  Elec       q    Type
                         _______ _______ _______ _____ _____    ______ ____

>  <TORSDO>
F 12

$$$$
=
 OpenBabel11072412453D

 55 62  0  0  1  0  0  0  0  0999 V2000
  161.6670  208.5220  152.6440 C   0  0  1  0  0  3  0  0  0  0  0  0
  160.1860  210.9360  154.0170 C   0  0  0  0  0  0  0  0  0  0  0  0
  161.5450  210.6740  153.4670 C   0  0  2  0  0  3  0  0  0  0  0  0
  161.9110  211.0240  152.1430 O   0  0  0  0  0  0  0  0  0  0  0  0
  159.5640  209.9030  154.6450 C   0  0  0  0  0  3  0  0  0  0  0  0
  161.1030  209.8810  152.2930 C   0  0  1  0  0  3  0  0  0  0  0  0
  160.6050  207.7790  153.5110 C   0  0  0  0  0  2  0  0  0  0  0  0
  160.1850  208.5100  154.8170 C   0  0  0  0  0  2  0  0  0  0  0  0
  156.3470  212.6910  154.9130 C   0  0  0  0  0  2  0  0  0  0  0  0
  159.5250  213.0030  155.3780 C   0  0  0  0  0  0  0  0  0  0  0  0
  159.5810  212.3180  154.0330 C   0  0  2  0  0  3  0  0  0  0  0  0
  160.5600  213.1170  156.1800 C   0  0  0  0  0  3  0  0  0  0  0  0
  158.3620  213.8210  155.8770 C   0  0  2  0  0  3  0  0  0  0  0  0
  158.9030  214.4130  157.1730 C   0  0  0  0  0  2  0  0  0  0  0  0
  157.1700  212.9290  156.1750 C   0  0  0  0  0  2  0  0  0  0  0  0
  157.0110  211.6980  153.9680 C   0  0  0  0  0  2  0  0  0  0  0  0
  158.2440  212.3040  153.2990 C   0  0  1  0  0  3  0  0  0  0  0  0
  160.2310  213.9080  157.2610 O   0  0  0  0  0  0  0  0  0  0  0  0
  155.6560  213.2990  152.3180 C   0  0  0  0  0  3  0  0  0  0  0  0
  158.1380  213.0480  151.9930 C   0  0  0  0  0  0  0  0  0  0  0  0
  159.3510  213.2320  151.1570 C   0  0  0  0  0  0  0  0  0  0  0  0
  160.4350  213.5910  148.9630 C   0  0  0  0  0  1  0  0  0  0  0  0
  155.6950  214.2970  149.5740 C   0  0  0  0  0  3  0  0  0  0  0  0
  156.8440  213.8350  150.0790 C   0  0  1  0  0  3  0  0  0  0  0  0
  159.2410  213.5160  149.8420 C   0  0  0  0  0  0  0  0  0  0  0  0
  154.4870  214.0290  151.7040 C   0  0  0  0  0  3  0  0  0  0  0  0
  154.5000  214.4490  150.4340 C   0  0  0  0  0  3  0  0  0  0  0  0
  157.9810  213.7530  149.2740 O   0  0  0  0  0  0  0  0  0  0  0  0
  160.6170  213.1260  151.7440 O   0  0  0  0  0  1  0  0  0  0  0  0
  156.9260  213.4190  151.4940 C   0  0  0  0  0  0  0  0  0  0  0  0
  162.0850  207.6990  151.3910 C   0  0  0  0  0  0  0  0  0  0  0  0
  162.0780  206.3590  151.7010 F   0  0  0  0  0  0  0  0  0  0  0  0
  163.4030  208.0010  151.0500 F   0  0  0  0  0  0  0  0  0  0  0  0
  161.6610  208.8060  149.2710 F   0  0  0  0  0  0  0  0  0  0  0  0
  161.1640  207.8500  150.1420 C   0  0  1  0  0  3  0  0  0  0  0  0
  160.9050  206.5600  149.3520 C   0  0  0  0  0  2  0  0  0  0  0  0
  161.8880  206.3790  148.1880 C   0  0  0  0  0  2  0  0  0  0  0  0
  161.3630  202.0930  149.0770 C   0  0  2  0  0  3  0  0  0  0  0  0
  162.0130  204.9060  147.7680 C   0  0  2  0  0  3  0  0  0  0  0  0
  160.6360  203.4180  149.3700 C   0  0  2  0  0  3  0  0  0  0  0  0
  162.3360  203.3770  145.8290 O   0  0  0  0  0  0  0  0  0  0  0  0
  160.6010  202.8990  147.1280 C   0  0  1  0  0  3  0  0  0  0  0  0
  162.5760  204.6670  146.3380 C   0  0  1  0  0  3  0  0  0  0  0  0
  160.7090  204.1190  148.0260 C   0  0  2  0  0  3  0  0  0  0  0  0
  161.0230  203.1950  145.8080 O   0  0  0  0  0  0  0  0  0  0  0  0
  161.3780  201.8670  147.6900 O   0  0  0  0  0  0  0  0  0  0  0  0
  160.6590  200.9200  149.7590 C   0  0  0  0  0  2  0  0  0  0  0  0
  159.3170  200.9070  149.3850 O   0  0  0  0  0  1  0  0  0  0  0  0
  161.2150  204.2060  150.5550 C   0  0  0  0  0  2  0  0  0  0  0  0
  161.3480  203.3080  151.7790 C   0  0  0  0  0  2  0  0  0  0  0  0
  160.9400  204.1050  153.0190 C   0  0  0  0  0  1  0  0  0  0  0  0
  162.5260  205.7830  145.2770 C   0  0  0  0  0  2  0  0  0  0  0  0
  161.1370  205.1270  143.3030 O   0  0  0  0  0  0  0  0  0  0  0  0
  160.2160  206.3520  145.0140 O   0  0  0  0  0  1  0  0  0  0  0  0
  161.2430  205.7980  144.5220 C   0  0  0  0  0  0  0  0  0  0  0  0
  1 31  1  6  0  0  0
  1  7  1  0  0  0  0
  2  5  2  0  0  0  0
  3  4  1  6  0  0  0
  3  2  1  0  0  0  0
  5  8  1  0  0  0  0
  6  4  1  6  0  0  0
  6  1  1  0  0  0  0
  6  3  1  0  0  0  0
  7  8  1  0  0  0  0
  9 15  1  0  0  0  0
 10 13  1  0  0  0  0
 10 12  2  0  0  0  0
 11  2  1  1  0  0  0
 11 10  1  0  0  0  0
 12 18  1  0  0  0  0
 13 15  1  1  0  0  0
 13 14  1  0  0  0  0
 14 18  1  0  0  0  0
 16  9  1  0  0  0  0
 17 20  1  1  0  0  0
 17 16  1  0  0  0  0
 17 11  1  0  0  0  0
 21 29  1  0  0  0  0
 21 20  1  0  0  0  0
 22 25  1  0  0  0  0
 23 27  2  0  0  0  0
 24 23  1  1  0  0  0
 24 30  1  0  0  0  0
 25 21  2  0  0  0  0
 26 19  2  0  0  0  0
 27 26  1  0  0  0  0
 28 25  1  0  0  0  0
 28 24  1  0  0  0  0
 30 20  2  0  0  0  0
 30 19  1  0  0  0  0
 31 32  1  0  0  0  0
 33 31  1  0  0  0  0
 35 34  1  6  0  0  0
 35 31  1  0  0  0  0
 36 35  1  0  0  0  0
 37 36  1  0  0  0  0
 38 40  1  0  0  0  0
 38 47  1  1  0  0  0
 39 44  1  0  0  0  0
 39 37  1  6  0  0  0
 40 49  1  1  0  0  0
 41 43  1  0  0  0  0
 42 45  1  6  0  0  0
 42 46  1  0  0  0  0
 42 44  1  0  0  0  0
 43 52  1  6  0  0  0
 43 39  1  0  0  0  0
 44 40  1  0  0  0  0
 45 41  1  0  0  0  0
 46 38  1  0  0  0  0
 48 47  1  0  0  0  0
 49 50  1  0  0  0  0
 50 51  1  0  0  0  0
 53 55  2  0  0  0  0
 55 54  1  0  0  0  0
 55 52  1  0  0  0  0
M  END
>  <MODEL>
4

>  <REMARK>
 VINA RESULT:      -5.4      1.836      4.033
  Name = 
  12 active torsions:
  status: ('A' for Active; 'I' for Inactive)
    1  A    between atoms: C_1  and  C_3
    2  A    between atoms: C_1  and  C_25
    3  A    between atoms: C_4  and  C_27
    4  A    between atoms: C_5  and  C_45
    5  A    between atoms: C_6  and  C_28
    6  A    between atoms: C_6  and  C_48
    7  A    between atoms: C_13  and  C_19
    8  A    between atoms: C_13  and  C_31
    9  A    between atoms: C_17  and  C_22
   10  A    between atoms: C_25  and  C_48
   11  A    between atoms: C_34  and  C_39
   12  A    between atoms: C_39  and  C_47
                            x       y       z     vdW  Elec       q    Type
                         _______ _______ _______ _____ _____    ______ ____

>  <TORSDO>
F 12

$$$$
=
 OpenBabel11072412453D

 55 62  0  0  1  0  0  0  0  0999 V2000
  161.7730  207.8550  152.7950 C   0  0  1  0  0  3  0  0  0  0  0  0
  160.6130  210.4870  154.0740 C   0  0  0  0  0  0  0  0  0  0  0  0
  161.8990  210.0630  153.4530 C   0  0  2  0  0  3  0  0  0  0  0  0
  162.1930  210.2820  152.0830 O   0  0  0  0  0  0  0  0  0  0  0  0
  159.9550  209.5630  154.8220 C   0  0  0  0  0  3  0  0  0  0  0  0
  161.3030  209.2310  152.3780 C   0  0  1  0  0  3  0  0  0  0  0  0
  160.7200  207.2760  153.7890 C   0  0  0  0  0  2  0  0  0  0  0  0
  160.4640  208.1350  155.0600 C   0  0  0  0  0  2  0  0  0  0  0  0
  156.9080  212.5950  154.7400 C   0  0  0  0  0  2  0  0  0  0  0  0
  160.0770  212.6460  155.3440 C   0  0  0  0  0  0  0  0  0  0  0  0
  160.1320  211.9160  154.0230 C   0  0  2  0  0  3  0  0  0  0  0  0
  161.0810  212.6950  156.1900 C   0  0  0  0  0  3  0  0  0  0  0  0
  158.9690  213.5760  155.7650 C   0  0  2  0  0  3  0  0  0  0  0  0
  159.5020  214.1600  157.0680 C   0  0  0  0  0  2  0  0  0  0  0  0
  157.6910  212.8010  156.0320 C   0  0  0  0  0  2  0  0  0  0  0  0
  157.5230  211.5180  153.8540 C   0  0  0  0  0  2  0  0  0  0  0  0
  158.8330  211.9940  153.2270 C   0  0  1  0  0  3  0  0  0  0  0  0
  160.7750  213.5450  157.2320 O   0  0  0  0  0  0  0  0  0  0  0  0
  156.4030  213.2390  152.1330 C   0  0  0  0  0  3  0  0  0  0  0  0
  158.8500  212.7030  151.8980 C   0  0  0  0  0  0  0  0  0  0  0  0
  160.1010  212.7230  151.0980 C   0  0  0  0  0  0  0  0  0  0  0  0
  161.2840  212.8880  148.9320 C   0  0  0  0  0  1  0  0  0  0  0  0
  156.6360  214.1370  149.3630 C   0  0  0  0  0  3  0  0  0  0  0  0
  157.7110  213.5670  149.9200 C   0  0  1  0  0  3  0  0  0  0  0  0
  160.0630  212.9750  149.7720 C   0  0  0  0  0  0  0  0  0  0  0  0
  155.3430  214.0740  151.4590 C   0  0  0  0  0  3  0  0  0  0  0  0
  155.4410  214.4500  150.1780 C   0  0  0  0  0  3  0  0  0  0  0  0
  158.8550  213.3330  149.1560 O   0  0  0  0  0  0  0  0  0  0  0  0
  161.3280  212.4960  151.7300 O   0  0  0  0  0  1  0  0  0  0  0  0
  157.7030  213.1900  151.3480 C   0  0  0  0  0  0  0  0  0  0  0  0
  162.0230  206.9100  151.5850 C   0  0  0  0  0  0  0  0  0  0  0  0
  162.9010  205.9170  151.9530 F   0  0  0  0  0  0  0  0  0  0  0  0
  162.6580  207.6140  150.5620 F   0  0  0  0  0  0  0  0  0  0  0  0
  159.9870  207.0350  150.2660 F   0  0  0  0  0  0  0  0  0  0  0  0
  160.7660  206.1770  151.0250 C   0  0  1  0  0  3  0  0  0  0  0  0
  161.0490  204.9160  150.1980 C   0  0  0  0  0  2  0  0  0  0  0  0
  160.5160  205.0250  148.7630 C   0  0  0  0  0  2  0  0  0  0  0  0
  161.5180  201.0310  147.1880 C   0  0  2  0  0  3  0  0  0  0  0  0
  161.3060  204.1360  147.7890 C   0  0  2  0  0  3  0  0  0  0  0  0
  160.2830  201.7650  147.7410 C   0  0  2  0  0  3  0  0  0  0  0  0
  162.6570  204.1330  145.6970 O   0  0  0  0  0  0  0  0  0  0  0  0
  160.9920  202.6670  145.7460 C   0  0  1  0  0  3  0  0  0  0  0  0
  162.2430  204.8950  146.8060 C   0  0  1  0  0  3  0  0  0  0  0  0
  160.3940  203.1190  147.0670 C   0  0  2  0  0  3  0  0  0  0  0  0
  161.5670  203.7560  145.0440 O   0  0  0  0  0  0  0  0  0  0  0  0
  161.9520  201.6720  146.0140 O   0  0  0  0  0  0  0  0  0  0  0  0
  161.1900  199.5740  146.8610 C   0  0  0  0  0  2  0  0  0  0  0  0
  161.1680  199.4060  145.4790 O   0  0  0  0  0  1  0  0  0  0  0  0
  160.2040  201.7970  149.2750 C   0  0  0  0  0  2  0  0  0  0  0  0
  161.4340  201.1390  149.8870 C   0  0  0  0  0  2  0  0  0  0  0  0
  161.4830  201.4800  151.3780 C   0  0  0  0  0  1  0  0  0  0  0  0
  162.0140  206.3870  146.4970 C   0  0  0  0  0  2  0  0  0  0  0  0
  161.5320  208.3690  147.9460 O   0  0  0  0  0  0  0  0  0  0  0  0
  163.3000  206.9830  148.4270 O   0  0  0  0  0  1  0  0  0  0  0  0
  162.3390  207.2680  147.6540 C   0  0  0  0  0  0  0  0  0  0  0  0
  1 31  1  6  0  0  0
  1  7  1  0  0  0  0
  2  5  2  0  0  0  0
  3  4  1  6  0  0  0
  3  2  1  0  0  0  0
  5  8  1  0  0  0  0
  6  4  1  6  0  0  0
  6  1  1  0  0  0  0
  6  3  1  0  0  0  0
  7  8  1  0  0  0  0
  9 15  1  0  0  0  0
 10 13  1  0  0  0  0
 10 12  2  0  0  0  0
 11  2  1  1  0  0  0
 11 10  1  0  0  0  0
 12 18  1  0  0  0  0
 13 15  1  1  0  0  0
 13 14  1  0  0  0  0
 14 18  1  0  0  0  0
 16  9  1  0  0  0  0
 17 20  1  1  0  0  0
 17 16  1  0  0  0  0
 17 11  1  0  0  0  0
 21 29  1  0  0  0  0
 21 20  1  0  0  0  0
 22 25  1  0  0  0  0
 23 27  2  0  0  0  0
 24 23  1  1  0  0  0
 24 30  1  0  0  0  0
 25 21  2  0  0  0  0
 26 19  2  0  0  0  0
 27 26  1  0  0  0  0
 28 25  1  0  0  0  0
 28 24  1  0  0  0  0
 30 20  2  0  0  0  0
 30 19  1  0  0  0  0
 31 32  1  0  0  0  0
 33 31  1  0  0  0  0
 35 34  1  6  0  0  0
 35 31  1  0  0  0  0
 36 35  1  0  0  0  0
 37 36  1  0  0  0  0
 38 47  1  6  0  0  0
 38 40  1  0  0  0  0
 39 37  1  6  0  0  0
 40 49  1  1  0  0  0
 41 43  1  0  0  0  0
 42 45  1  1  0  0  0
 42 46  1  0  0  0  0
 42 44  1  0  0  0  0
 43 52  1  6  0  0  0
 43 39  1  0  0  0  0
 44 40  1  0  0  0  0
 44 39  1  0  0  0  0
 45 41  1  0  0  0  0
 46 38  1  0  0  0  0
 48 47  1  0  0  0  0
 49 50  1  0  0  0  0
 50 51  1  0  0  0  0
 52 55  1  0  0  0  0
 55 53  2  0  0  0  0
 55 54  1  0  0  0  0
M  END
>  <MODEL>
5

>  <REMARK>
 VINA RESULT:      -4.5      2.071      3.827
  Name = 
  12 active torsions:
  status: ('A' for Active; 'I' for Inactive)
    1  A    between atoms: C_1  and  C_3
    2  A    between atoms: C_1  and  C_25
    3  A    between atoms: C_4  and  C_27
    4  A    between atoms: C_5  and  C_45
    5  A    between atoms: C_6  and  C_28
    6  A    between atoms: C_6  and  C_48
    7  A    between atoms: C_13  and  C_19
    8  A    between atoms: C_13  and  C_31
    9  A    between atoms: C_17  and  C_22
   10  A    between atoms: C_25  and  C_48
   11  A    between atoms: C_34  and  C_39
   12  A    between atoms: C_39  and  C_47
                            x       y       z     vdW  Elec       q    Type
                         _______ _______ _______ _____ _____    ______ ____

>  <TORSDO>
F 12

$$$$
=
 OpenBabel11072412453D

 55 62  0  0  1  0  0  0  0  0999 V2000
  161.5340  208.1090  152.7270 C   0  0  1  0  0  3  0  0  0  0  0  0
  160.4640  210.7740  154.0150 C   0  0  0  0  0  0  0  0  0  0  0  0
  161.5760  210.3850  153.1040 C   0  0  2  0  0  3  0  0  0  0  0  0
  161.4640  210.4540  151.6930 O   0  0  0  0  0  0  0  0  0  0  0  0
  160.1420  209.9000  155.0050 C   0  0  0  0  0  3  0  0  0  0  0  0
  160.8140  209.3770  152.3260 C   0  0  1  0  0  3  0  0  0  0  0  0
  160.8600  207.5730  154.0280 C   0  0  0  0  0  2  0  0  0  0  0  0
  160.8580  208.5600  155.2290 C   0  0  0  0  0  2  0  0  0  0  0  0
  156.4940  212.4190  154.4060 C   0  0  0  0  0  2  0  0  0  0  0  0
  159.5730  212.8070  155.2930 C   0  0  0  0  0  0  0  0  0  0  0  0
  159.8250  212.1400  153.9620 C   0  0  2  0  0  3  0  0  0  0  0  0
  160.4880  212.9380  156.2270 C   0  0  0  0  0  3  0  0  0  0  0  0
  158.3310  213.5890  155.6390 C   0  0  2  0  0  3  0  0  0  0  0  0
  158.6790  214.1790  157.0010 C   0  0  0  0  0  2  0  0  0  0  0  0
  157.1350  212.6630  155.7690 C   0  0  0  0  0  2  0  0  0  0  0  0
  157.3050  211.4540  153.5500 C   0  0  0  0  0  2  0  0  0  0  0  0
  158.5990  212.1000  153.0560 C   0  0  1  0  0  3  0  0  0  0  0  0
  159.9970  213.7070  157.2610 O   0  0  0  0  0  0  0  0  0  0  0  0
  156.1620  213.2320  151.8600 C   0  0  0  0  0  3  0  0  0  0  0  0
  158.6470  212.8570  151.7540 C   0  0  0  0  0  0  0  0  0  0  0  0
  159.9380  212.9830  151.0310 C   0  0  0  0  0  0  0  0  0  0  0  0
  161.2300  213.3000  148.9460 C   0  0  0  0  0  1  0  0  0  0  0  0
  156.4960  214.2430  149.1410 C   0  0  0  0  0  3  0  0  0  0  0  0
  157.5700  213.7210  149.7410 C   0  0  1  0  0  3  0  0  0  0  0  0
  159.9600  213.2810  149.7140 C   0  0  0  0  0  0  0  0  0  0  0  0
  155.0910  214.0250  151.1530 C   0  0  0  0  0  3  0  0  0  0  0  0
  155.2380  214.4520  149.8930 C   0  0  0  0  0  3  0  0  0  0  0  0
  158.7700  213.5860  149.0390 O   0  0  0  0  0  0  0  0  0  0  0  0
  161.1390  212.8090  151.7270 O   0  0  0  0  0  1  0  0  0  0  0  0
  157.5050  213.2920  151.1530 C   0  0  0  0  0  0  0  0  0  0  0  0
  161.5570  207.0430  151.5940 C   0  0  0  0  0  0  0  0  0  0  0  0
  162.6000  207.3080  150.7370 F   0  0  0  0  0  0  0  0  0  0  0  0
  160.3990  207.1520  150.8240 F   0  0  0  0  0  0  0  0  0  0  0  0
  160.8090  205.2140  153.0060 F   0  0  0  0  0  0  0  0  0  0  0  0
  161.7520  205.5670  152.0550 C   0  0  1  0  0  3  0  0  0  0  0  0
  161.7300  204.5160  150.9360 C   0  0  0  0  0  2  0  0  0  0  0  0
  160.3260  204.3120  150.3520 C   0  0  0  0  0  2  0  0  0  0  0  0
  161.4040  205.0150  146.1360 C   0  0  2  0  0  3  0  0  0  0  0  0
  160.3770  203.8340  148.8920 C   0  0  2  0  0  3  0  0  0  0  0  0
  161.9650  205.3490  147.5300 C   0  0  2  0  0  3  0  0  0  0  0  0
  160.2040  201.8410  147.4100 O   0  0  0  0  0  0  0  0  0  0  0  0
  162.0140  203.0880  147.1050 C   0  0  1  0  0  3  0  0  0  0  0  0
  159.8150  202.4060  148.6390 C   0  0  1  0  0  3  0  0  0  0  0  0
  161.7750  204.0370  148.2670 C   0  0  2  0  0  3  0  0  0  0  0  0
  161.5280  201.7880  147.3970 O   0  0  0  0  0  0  0  0  0  0  0  0
  161.3860  203.6200  145.9630 O   0  0  0  0  0  0  0  0  0  0  0  0
  162.2650  205.6370  145.0350 C   0  0  0  0  0  2  0  0  0  0  0  0
  161.4540  205.9860  143.9580 O   0  0  0  0  0  1  0  0  0  0  0  0
  161.3200  206.5760  148.1920 C   0  0  0  0  0  2  0  0  0  0  0  0
  162.2270  207.7920  148.0610 C   0  0  0  0  0  2  0  0  0  0  0  0
  161.3560  209.0370  147.8840 C   0  0  0  0  0  1  0  0  0  0  0  0
  159.7010  201.3910  149.7920 C   0  0  0  0  0  2  0  0  0  0  0  0
  161.6350  201.3600  151.3780 O   0  0  0  0  0  1  0  0  0  0  0  0
  161.5720  199.9100  149.5980 O   0  0  0  0  0  0  0  0  0  0  0  0
  161.0250  200.8640  150.2260 C   0  0  0  0  0  0  0  0  0  0  0  0
  1 31  1  6  0  0  0
  1  7  1  0  0  0  0
  2  5  2  0  0  0  0
  3  4  1  6  0  0  0
  3  2  1  0  0  0  0
  5  8  1  0  0  0  0
  6  4  1  6  0  0  0
  6  1  1  0  0  0  0
  6  3  1  0  0  0  0
  7  8  1  0  0  0  0
  9 15  1  0  0  0  0
 10 13  1  0  0  0  0
 10 12  2  0  0  0  0
 11  2  1  1  0  0  0
 11 10  1  0  0  0  0
 12 18  1  0  0  0  0
 13 15  1  1  0  0  0
 13 14  1  0  0  0  0
 14 18  1  0  0  0  0
 16  9  1  0  0  0  0
 17 20  1  1  0  0  0
 17 16  1  0  0  0  0
 17 11  1  0  0  0  0
 21 29  1  0  0  0  0
 21 20  1  0  0  0  0
 22 25  1  0  0  0  0
 23 27  2  0  0  0  0
 24 23  1  1  0  0  0
 24 30  1  0  0  0  0
 25 21  2  0  0  0  0
 26 19  2  0  0  0  0
 27 26  1  0  0  0  0
 28 25  1  0  0  0  0
 28 24  1  0  0  0  0
 30 20  2  0  0  0  0
 30 19  1  0  0  0  0
 31 35  1  0  0  0  0
 32 31  1  0  0  0  0
 33 31  1  0  0  0  0
 35 34  1  1  0  0  0
 36 35  1  0  0  0  0
 37 36  1  0  0  0  0
 38 47  1  6  0  0  0
 38 40  1  0  0  0  0
 39 37  1  1  0  0  0
 40 49  1  1  0  0  0
 40 44  1  0  0  0  0
 41 43  1  0  0  0  0
 42 46  1  6  0  0  0
 42 45  1  0  0  0  0
 42 44  1  0  0  0  0
 43 39  1  0  0  0  0
 43 52  1  1  0  0  0
 44 39  1  0  0  0  0
 45 41  1  0  0  0  0
 46 38  1  0  0  0  0
 48 47  1  0  0  0  0
 50 49  1  0  0  0  0
 51 50  1  0  0  0  0
 52 55  1  0  0  0  0
 54 55  2  0  0  0  0
 55 53  1  0  0  0  0
M  END
>  <MODEL>
6

>  <REMARK>
 VINA RESULT:      -4.1      1.770      2.712
  Name = 
  12 active torsions:
  status: ('A' for Active; 'I' for Inactive)
    1  A    between atoms: C_1  and  C_3
    2  A    between atoms: C_1  and  C_25
    3  A    between atoms: C_4  and  C_27
    4  A    between atoms: C_5  and  C_45
    5  A    between atoms: C_6  and  C_28
    6  A    between atoms: C_6  and  C_48
    7  A    between atoms: C_13  and  C_19
    8  A    between atoms: C_13  and  C_31
    9  A    between atoms: C_17  and  C_22
   10  A    between atoms: C_25  and  C_48
   11  A    between atoms: C_34  and  C_39
   12  A    between atoms: C_39  and  C_47
                            x       y       z     vdW  Elec       q    Type
                         _______ _______ _______ _____ _____    ______ ____

>  <TORSDO>
F 12

$$$$
=
 OpenBabel11072412453D

 55 62  0  0  1  0  0  0  0  0999 V2000
  161.6720  208.0840  150.3050 C   0  0  1  0  0  3  0  0  0  0  0  0
  161.3240  209.4500  153.1190 C   0  0  0  0  0  0  0  0  0  0  0  0
  162.3300  209.4780  152.0210 C   0  0  2  0  0  3  0  0  0  0  0  0
  162.3200  210.4640  151.0030 O   0  0  0  0  0  0  0  0  0  0  0  0
  160.7150  208.2610  153.3680 C   0  0  0  0  0  3  0  0  0  0  0  0
  161.3600  209.4390  150.8990 C   0  0  1  0  0  3  0  0  0  0  0  0
  160.8050  207.0270  151.0550 C   0  0  0  0  0  2  0  0  0  0  0  0
  161.0130  206.9690  152.5940 C   0  0  0  0  0  2  0  0  0  0  0  0
  159.4070  210.1920  156.9130 C   0  0  0  0  0  2  0  0  0  0  0  0
  162.0640  210.7790  155.1790 C   0  0  0  0  0  0  0  0  0  0  0  0
  161.0970  210.6320  154.0280 C   0  0  2  0  0  3  0  0  0  0  0  0
  163.3700  210.7510  155.0400 C   0  0  0  0  0  3  0  0  0  0  0  0
  161.6780  211.1880  156.5780 C   0  0  2  0  0  3  0  0  0  0  0  0
  163.0310  211.3540  157.2610 C   0  0  0  0  0  2  0  0  0  0  0  0
  160.8880  210.0840  157.2580 C   0  0  0  0  0  2  0  0  0  0  0  0
  159.1040  209.7070  155.5000 C   0  0  0  0  0  2  0  0  0  0  0  0
  159.6320  210.6850  154.4510 C   0  0  1  0  0  3  0  0  0  0  0  0
  163.9770  211.0490  156.2420 O   0  0  0  0  0  0  0  0  0  0  0  0
  157.2460  211.5770  155.9200 C   0  0  0  0  0  3  0  0  0  0  0  0
  158.7820  211.8200  153.9430 C   0  0  0  0  0  0  0  0  0  0  0  0
  159.1200  212.4620  152.6480 C   0  0  0  0  0  0  0  0  0  0  0  0
  158.4740  213.7290  150.6240 C   0  0  0  0  0  1  0  0  0  0  0  0
  155.5650  213.4770  154.4730 C   0  0  0  0  0  3  0  0  0  0  0  0
  156.6690  213.0380  153.8600 C   0  0  1  0  0  3  0  0  0  0  0  0
  158.1940  213.1750  151.9720 C   0  0  0  0  0  0  0  0  0  0  0  0
  156.0930  212.2990  156.5710 C   0  0  0  0  0  3  0  0  0  0  0  0
  155.3050  213.1400  155.8910 C   0  0  0  0  0  3  0  0  0  0  0  0
  156.9350  213.4130  152.5410 O   0  0  0  0  0  0  0  0  0  0  0  0
  160.4160  212.3400  152.1340 O   0  0  0  0  0  1  0  0  0  0  0  0
  157.6230  212.1640  154.5710 C   0  0  0  0  0  0  0  0  0  0  0  0
  161.4580  208.0360  148.7650 C   0  0  0  0  0  0  0  0  0  0  0  0
  161.2150  209.3050  148.2960 F   0  0  0  0  0  0  0  0  0  0  0  0
  160.3100  207.2990  148.4730 F   0  0  0  0  0  0  0  0  0  0  0  0
  163.8440  207.6000  148.6380 F   0  0  0  0  0  0  0  0  0  0  0  0
  162.6600  207.4990  147.9290 C   0  0  1  0  0  3  0  0  0  0  0  0
  162.5190  206.0570  147.4200 C   0  0  0  0  0  2  0  0  0  0  0  0
  161.3710  205.3040  148.1050 C   0  0  0  0  0  2  0  0  0  0  0  0
  161.3550  201.1420  149.5570 C   0  0  2  0  0  3  0  0  0  0  0  0
  161.4280  203.7940  147.8230 C   0  0  2  0  0  3  0  0  0  0  0  0
  160.6950  202.4830  149.9250 C   0  0  2  0  0  3  0  0  0  0  0  0
  161.1970  202.0580  146.0530 O   0  0  0  0  0  0  0  0  0  0  0  0
  159.9820  201.7110  147.8780 C   0  0  1  0  0  3  0  0  0  0  0  0
  161.5240  203.4000  146.3220 C   0  0  1  0  0  3  0  0  0  0  0  0
  160.3090  203.0270  148.5630 C   0  0  2  0  0  3  0  0  0  0  0  0
  159.9540  201.8600  146.4680 O   0  0  0  0  0  0  0  0  0  0  0  0
  160.9440  200.7600  148.2680 O   0  0  0  0  0  0  0  0  0  0  0  0
  160.9570  200.0460  150.5470 C   0  0  0  0  0  2  0  0  0  0  0  0
  159.6730  200.3000  151.0230 O   0  0  0  0  0  1  0  0  0  0  0  0
  161.5790  203.4080  150.7770 C   0  0  0  0  0  2  0  0  0  0  0  0
  161.4750  203.0370  152.2500 C   0  0  0  0  0  2  0  0  0  0  0  0
  160.1130  203.4910  152.7760 C   0  0  0  0  0  1  0  0  0  0  0  0
  161.0910  204.3880  145.2210 C   0  0  0  0  0  2  0  0  0  0  0  0
  162.0610  205.8760  143.4600 O   0  0  0  0  0  0  0  0  0  0  0  0
  163.3770  204.3140  144.5120 O   0  0  0  0  0  1  0  0  0  0  0  0
  162.2290  204.8300  144.3670 C   0  0  0  0  0  0  0  0  0  0  0  0
  1 31  1  6  0  0  0
  1  6  1  0  0  0  0
  1  7  1  0  0  0  0
  2  5  2  0  0  0  0
  3  4  1  6  0  0  0
  3  2  1  0  0  0  0
  6  4  1  6  0  0  0
  6  3  1  0  0  0  0
  7  8  1  0  0  0  0
  8  5  1  0  0  0  0
  9 15  1  0  0  0  0
 10 13  1  0  0  0  0
 11  2  1  1  0  0  0
 11 17  1  0  0  0  0
 11 10  1  0  0  0  0
 12 10  2  0  0  0  0
 12 18  1  0  0  0  0
 13 15  1  1  0  0  0
 13 14  1  0  0  0  0
 16  9  1  0  0  0  0
 17 20  1  1  0  0  0
 17 16  1  0  0  0  0
 18 14  1  0  0  0  0
 19 26  2  0  0  0  0
 20 30  2  0  0  0  0
 21 20  1  0  0  0  0
 22 25  1  0  0  0  0
 23 27  2  0  0  0  0
 24 23  1  1  0  0  0
 24 30  1  0  0  0  0
 25 28  1  0  0  0  0
 25 21  2  0  0  0  0
 27 26  1  0  0  0  0
 28 24  1  0  0  0  0
 29 21  1  0  0  0  0
 30 19  1  0  0  0  0
 32 31  1  0  0  0  0
 33 31  1  0  0  0  0
 35 34  1  1  0  0  0
 35 31  1  0  0  0  0
 36 35  1  0  0  0  0
 36 37  1  0  0  0  0
 38 40  1  0  0  0  0
 38 47  1  1  0  0  0
 39 37  1  6  0  0  0
 39 44  1  0  0  0  0
 40 49  1  6  0  0  0
 41 43  1  0  0  0  0
 41 45  1  0  0  0  0
 42 45  1  6  0  0  0
 42 46  1  0  0  0  0
 42 44  1  0  0  0  0
 43 52  1  6  0  0  0
 43 39  1  0  0  0  0
 44 40  1  0  0  0  0
 46 38  1  0  0  0  0
 47 48  1  0  0  0  0
 49 50  1  0  0  0  0
 50 51  1  0  0  0  0
 53 55  2  0  0  0  0
 55 54  1  0  0  0  0
 55 52  1  0  0  0  0
M  END
>  <MODEL>
7

>  <REMARK>
 VINA RESULT:      -3.9      1.768      3.971
  Name = 
  12 active torsions:
  status: ('A' for Active; 'I' for Inactive)
    1  A    between atoms: C_1  and  C_3
    2  A    between atoms: C_1  and  C_25
    3  A    between atoms: C_4  and  C_27
    4  A    between atoms: C_5  and  C_45
    5  A    between atoms: C_6  and  C_28
    6  A    between atoms: C_6  and  C_48
    7  A    between atoms: C_13  and  C_19
    8  A    between atoms: C_13  and  C_31
    9  A    between atoms: C_17  and  C_22
   10  A    between atoms: C_25  and  C_48
   11  A    between atoms: C_34  and  C_39
   12  A    between atoms: C_39  and  C_47
                            x       y       z     vdW  Elec       q    Type
                         _______ _______ _______ _____ _____    ______ ____

>  <TORSDO>
F 12

$$$$
