=
 OpenBabel11072413463D

 29 31  0  0  1  0  0  0  0  0999 V2000
  162.6090  205.5870  146.6970 C   0  0  0  0  0  2  0  0  0  0  0  0
  160.8170  204.7850  150.4630 C   0  0  0  0  0  0  0  0  0  0  0  0
  161.0270  202.9770  148.7700 C   0  0  0  0  0  0  0  0  0  0  0  0
  160.8430  205.2590  149.1930 C   0  0  0  0  0  0  0  0  0  0  0  0
  160.8000  205.7600  151.5730 C   0  0  2  0  0  3  0  0  0  0  0  0
  160.9360  203.1110  150.4590 S   0  0  0  0  0  0  0  0  0  0  0  0
  162.2610  207.1520  148.4540 C   0  0  2  0  0  3  0  0  0  0  0  0
  162.5390  208.5510  148.7430 N   0  0  0  0  0  1  0  0  0  0  0  0
  162.2710  206.9700  147.0060 N   0  0  0  0  0  2  0  0  0  0  0  0
  160.6630  207.3960  150.7540 S   0  0  0  0  0  0  0  0  0  0  0  0
  160.9590  204.2640  148.2140 C   0  0  0  0  0  0  0  0  0  0  0  0
  160.9000  206.7350  149.0420 C   0  0  2  0  0  3  0  0  0  0  0  0
  161.0730  204.6440  146.4640 S   0  0  0  0  0  0  0  0  0  0  0  0
  160.1020  200.4100  144.5590 C   0  0  0  0  0  1  0  0  0  0  0  0
  161.7430  200.7190  148.6030 O   0  0  0  0  0  0  0  0  0  0  0  0
  161.2440  199.3400  146.3440 O   0  0  0  0  0  0  0  0  0  0  0  0
  160.6970  200.3920  145.9200 C   0  0  0  0  0  0  0  0  0  0  0  0
  161.1650  201.6950  148.0550 C   0  0  0  0  0  0  0  0  0  0  0  0
  160.6370  201.5720  146.7290 N   0  0  0  0  0  2  0  0  0  0  0  0
  162.1060  205.7110  152.3490 C   0  0  0  0  0  2  0  0  0  0  0  0
  162.0750  206.7000  153.5010 C   0  0  0  0  0  2  0  0  0  0  0  0
  160.4680  207.3800  155.3440 C   0  0  0  0  0  0  0  0  0  0  0  0
  159.4350  207.1110  156.0130 O   0  0  0  0  0  0  0  0  0  0  0  0
  160.8840  206.4840  154.3100 N   0  0  0  0  0  2  0  0  0  0  0  0
  162.0100  208.5110  156.8410 N   0  0  0  0  0  1  0  0  0  0  0  0
  161.2300  208.6420  155.6210 C   0  0  2  0  0  3  0  0  0  0  0  0
  159.9910  210.3450  156.9510 O   0  0  0  0  0  1  0  0  0  0  0  0
  160.3120  209.8170  155.7080 C   0  0  0  0  0  0  0  0  0  0  0  0
  159.8510  210.3510  154.6640 O   0  0  0  0  0  0  0  0  0  0  0  0
  1  9  1  0  0  0  0
  2  5  1  0  0  0  0
  3  6  1  0  0  0  0
  4  2  2  0  0  0  0
  5 20  1  6  0  0  0
  6  2  1  0  0  0  0
  7  8  1  6  0  0  0
  7 12  1  0  0  0  0
  9  7  1  0  0  0  0
 10  5  1  0  0  0  0
 11  3  2  0  0  0  0
 11  4  1  0  0  0  0
 12  4  1  1  0  0  0
 12 10  1  0  0  0  0
 13  1  1  0  0  0  0
 13 11  1  0  0  0  0
 14 17  1  0  0  0  0
 17 16  2  0  0  0  0
 17 19  1  0  0  0  0
 18 15  2  0  0  0  0
 18  3  1  0  0  0  0
 19 18  1  0  0  0  0
 20 21  1  0  0  0  0
 21 24  1  0  0  0  0
 22 26  1  0  0  0  0
 22 23  2  0  0  0  0
 24 22  1  0  0  0  0
 26 28  1  0  0  0  0
 26 25  1  1  0  0  0
 28 27  1  0  0  0  0
 29 28  2  0  0  0  0
M  END
>  <MODEL>
1

>  <REMARK>
 VINA RESULT:      -6.6      0.000      0.000
  Name = 
  6 active torsions:
  status: ('A' for Active; 'I' for Inactive)
    1  A    between atoms: C_4  and  C_24
    2  A    between atoms: CA_8  and  C_13
    3  A    between atoms: CA_8  and  C_21
    4  A    between atoms: C_9  and  C_12
    5  A    between atoms: C_12  and  C_17
    6  A    between atoms: C_17  and  N_26
                            x       y       z     vdW  Elec       q    Type
                         _______ _______ _______ _____ _____    ______ ____

>  <TORSDO>
F 6

$$$$
=
 OpenBabel11072413463D

 29 31  0  0  1  0  0  0  0  0999 V2000
  160.8030  206.7880  148.5090 C   0  0  0  0  0  2  0  0  0  0  0  0
  161.7990  208.3000  152.3520 C   0  0  0  0  0  0  0  0  0  0  0  0
  161.9580  209.7690  150.3530 C   0  0  0  0  0  0  0  0  0  0  0  0
  162.0270  207.6060  151.2090 C   0  0  0  0  0  0  0  0  0  0  0  0
  161.5790  207.5410  153.6000 C   0  0  2  0  0  3  0  0  0  0  0  0
  161.7020  209.9430  152.0210 S   0  0  0  0  0  0  0  0  0  0  0  0
  160.7690  205.5740  150.5540 C   0  0  2  0  0  3  0  0  0  0  0  0
  160.4230  204.2420  151.0290 N   0  0  0  0  0  1  0  0  0  0  0  0
  161.0560  205.4930  149.1250 N   0  0  0  0  0  2  0  0  0  0  0  0
  161.8620  205.7880  153.1350 S   0  0  0  0  0  0  0  0  0  0  0  0
  162.1240  208.4050  150.0630 C   0  0  0  0  0  0  0  0  0  0  0  0
  161.9860  206.1250  151.3200 C   0  0  2  0  0  3  0  0  0  0  0  0
  162.3650  207.7140  148.4250 S   0  0  0  0  0  0  0  0  0  0  0  0
  160.2310  214.3490  149.2490 C   0  0  0  0  0  1  0  0  0  0  0  0
  162.6980  210.8440  148.3690 O   0  0  0  0  0  0  0  0  0  0  0  0
  161.7680  213.3020  147.7750 O   0  0  0  0  0  0  0  0  0  0  0  0
  161.1070  213.2200  148.8430 C   0  0  0  0  0  0  0  0  0  0  0  0
  161.9820  210.8970  149.4040 C   0  0  0  0  0  0  0  0  0  0  0  0
  161.1830  212.0560  149.6730 N   0  0  0  0  0  2  0  0  0  0  0  0
  160.1440  207.6930  154.0730 C   0  0  0  0  0  2  0  0  0  0  0  0
  160.1100  208.1990  155.5050 C   0  0  0  0  0  2  0  0  0  0  0  0
  160.2310  210.7310  155.3770 C   0  0  0  0  0  0  0  0  0  0  0  0
  160.9350  211.7720  155.4660 O   0  0  0  0  0  0  0  0  0  0  0  0
  160.8370  209.4560  155.6060 N   0  0  0  0  0  2  0  0  0  0  0  0
  158.5770  211.3100  153.6960 N   0  0  0  0  0  1  0  0  0  0  0  0
  158.7700  210.8420  155.0590 C   0  0  2  0  0  3  0  0  0  0  0  0
  157.4030  212.8640  155.5580 O   0  0  0  0  0  0  0  0  0  0  0  0
  158.0750  211.7430  156.0270 C   0  0  0  0  0  0  0  0  0  0  0  0
  158.0690  211.4800  157.2590 O   0  0  0  0  0  1  0  0  0  0  0  0
  1  9  1  0  0  0  0
  2  5  1  0  0  0  0
  3  6  1  0  0  0  0
  4  2  2  0  0  0  0
  5 20  1  6  0  0  0
  6  2  1  0  0  0  0
  7  8  1  1  0  0  0
  7 12  1  0  0  0  0
  9  7  1  0  0  0  0
 10  5  1  0  0  0  0
 11  3  2  0  0  0  0
 11  4  1  0  0  0  0
 12  4  1  1  0  0  0
 12 10  1  0  0  0  0
 13  1  1  0  0  0  0
 13 11  1  0  0  0  0
 15 18  2  0  0  0  0
 16 17  2  0  0  0  0
 17 14  1  0  0  0  0
 17 19  1  0  0  0  0
 18 19  1  0  0  0  0
 18  3  1  0  0  0  0
 20 21  1  0  0  0  0
 21 24  1  0  0  0  0
 22 23  2  0  0  0  0
 22 24  1  0  0  0  0
 26 25  1  6  0  0  0
 26 22  1  0  0  0  0
 26 28  1  0  0  0  0
 27 28  2  0  0  0  0
 28 29  1  0  0  0  0
M  END
>  <MODEL>
2

>  <REMARK>
 VINA RESULT:      -6.0      4.273      6.646
  Name = 
  6 active torsions:
  status: ('A' for Active; 'I' for Inactive)
    1  A    between atoms: C_4  and  C_24
    2  A    between atoms: CA_8  and  C_13
    3  A    between atoms: CA_8  and  C_21
    4  A    between atoms: C_9  and  C_12
    5  A    between atoms: C_12  and  C_17
    6  A    between atoms: C_17  and  N_26
                            x       y       z     vdW  Elec       q    Type
                         _______ _______ _______ _____ _____    ______ ____

>  <TORSDO>
F 6

$$$$
=
 OpenBabel11072413463D

 29 31  0  0  1  0  0  0  0  0999 V2000
  160.8370  205.5520  152.7010 C   0  0  0  0  0  2  0  0  0  0  0  0
  161.4880  209.7260  152.2580 C   0  0  0  0  0  0  0  0  0  0  0  0
  161.9770  208.1790  150.3740 C   0  0  0  0  0  0  0  0  0  0  0  0
  161.7970  208.4740  152.6760 C   0  0  0  0  0  0  0  0  0  0  0  0
  161.0740  210.7200  153.2700 C   0  0  2  0  0  3  0  0  0  0  0  0
  161.5440  209.8060  150.5820 S   0  0  0  0  0  0  0  0  0  0  0  0
  160.4840  207.2180  154.3620 C   0  0  2  0  0  3  0  0  0  0  0  0
  159.9950  207.3120  155.7290 N   0  0  0  0  0  1  0  0  0  0  0  0
  160.9270  205.8470  154.1250 N   0  0  0  0  0  2  0  0  0  0  0  0
  161.2870  209.8620  154.8780 S   0  0  0  0  0  0  0  0  0  0  0  0
  162.0800  207.5770  151.6380 C   0  0  0  0  0  0  0  0  0  0  0  0
  161.6410  208.2080  154.1290 C   0  0  2  0  0  3  0  0  0  0  0  0
  162.4580  205.8480  151.9350 S   0  0  0  0  0  0  0  0  0  0  0  0
  161.3980  204.0630  147.5630 C   0  0  0  0  0  1  0  0  0  0  0  0
  162.7420  208.1890  148.1260 O   0  0  0  0  0  0  0  0  0  0  0  0
  162.4350  205.9780  146.6180 O   0  0  0  0  0  0  0  0  0  0  0  0
  161.8950  205.4610  147.6320 C   0  0  0  0  0  0  0  0  0  0  0  0
  162.1880  207.5480  149.0590 C   0  0  0  0  0  0  0  0  0  0  0  0
  161.7530  206.1980  148.8510 N   0  0  0  0  0  2  0  0  0  0  0  0
  159.6080  211.0790  153.0990 C   0  0  0  0  0  2  0  0  0  0  0  0
  159.1230  211.9000  154.2810 C   0  0  0  0  0  2  0  0  0  0  0  0
  156.6310  212.3800  154.3260 C   0  0  0  0  0  0  0  0  0  0  0  0
  155.6760  213.1010  153.9330 O   0  0  0  0  0  0  0  0  0  0  0  0
  157.9600  212.6870  153.8960 N   0  0  0  0  0  2  0  0  0  0  0  0
  155.2930  210.3980  154.7460 N   0  0  0  0  0  1  0  0  0  0  0  0
  156.3690  211.2330  155.2560 C   0  0  2  0  0  3  0  0  0  0  0  0
  154.8920  211.2830  157.2610 O   0  0  0  0  0  1  0  0  0  0  0  0
  156.0520  211.7160  156.6330 C   0  0  0  0  0  0  0  0  0  0  0  0
  156.8400  212.4900  157.2390 O   0  0  0  0  0  0  0  0  0  0  0  0
  1  9  1  0  0  0  0
  2  4  2  0  0  0  0
  2  5  1  0  0  0  0
  3  6  1  0  0  0  0
  3 11  2  0  0  0  0
  5 20  1  6  0  0  0
  5 10  1  0  0  0  0
  6  2  1  0  0  0  0
  7  8  1  1  0  0  0
  9  7  1  0  0  0  0
 11 13  1  0  0  0  0
 11  4  1  0  0  0  0
 12  4  1  6  0  0  0
 12  7  1  0  0  0  0
 12 10  1  0  0  0  0
 13  1  1  0  0  0  0
 14 17  1  0  0  0  0
 15 18  2  0  0  0  0
 16 17  2  0  0  0  0
 17 19  1  0  0  0  0
 18  3  1  0  0  0  0
 19 18  1  0  0  0  0
 20 21  1  0  0  0  0
 22 26  1  0  0  0  0
 23 22  2  0  0  0  0
 24 21  1  0  0  0  0
 24 22  1  0  0  0  0
 26 25  1  6  0  0  0
 26 28  1  0  0  0  0
 28 29  2  0  0  0  0
 28 27  1  0  0  0  0
M  END
>  <MODEL>
3

>  <REMARK>
 VINA RESULT:      -6.0      3.747      5.988
  Name = 
  6 active torsions:
  status: ('A' for Active; 'I' for Inactive)
    1  A    between atoms: C_4  and  C_24
    2  A    between atoms: CA_8  and  C_13
    3  A    between atoms: CA_8  and  C_21
    4  A    between atoms: C_9  and  C_12
    5  A    between atoms: C_12  and  C_17
    6  A    between atoms: C_17  and  N_26
                            x       y       z     vdW  Elec       q    Type
                         _______ _______ _______ _____ _____    ______ ____

>  <TORSDO>
F 6

$$$$
=
 OpenBabel11072413463D

 29 31  0  0  1  0  0  0  0  0999 V2000
  160.7420  206.0120  153.0990 C   0  0  0  0  0  2  0  0  0  0  0  0
  161.3860  210.1990  152.7850 C   0  0  0  0  0  0  0  0  0  0  0  0
  161.7820  208.7250  150.8240 C   0  0  0  0  0  0  0  0  0  0  0  0
  161.7100  208.9310  153.1410 C   0  0  0  0  0  0  0  0  0  0  0  0
  161.0220  211.1540  153.8520 C   0  0  2  0  0  3  0  0  0  0  0  0
  161.3640  210.3430  151.1130 S   0  0  0  0  0  0  0  0  0  0  0  0
  160.4720  207.6150  154.8370 C   0  0  2  0  0  3  0  0  0  0  0  0
  160.0470  207.6570  156.2280 N   0  0  0  0  0  1  0  0  0  0  0  0
  160.8980  206.2530  154.5270 N   0  0  0  0  0  2  0  0  0  0  0  0
  161.3060  210.2360  155.4160 S   0  0  0  0  0  0  0  0  0  0  0  0
  161.9410  208.0740  152.0580 C   0  0  0  0  0  0  0  0  0  0  0  0
  161.6200  208.6110  154.5890 C   0  0  2  0  0  3  0  0  0  0  0  0
  162.3270  206.3350  152.2710 S   0  0  0  0  0  0  0  0  0  0  0  0
  161.3420  204.6290  147.9580 C   0  0  0  0  0  1  0  0  0  0  0  0
  162.3330  208.8540  148.5170 O   0  0  0  0  0  0  0  0  0  0  0  0
  162.1000  206.6540  146.9790 O   0  0  0  0  0  0  0  0  0  0  0  0
  161.7080  206.0670  148.0220 C   0  0  0  0  0  0  0  0  0  0  0  0
  161.9300  208.1430  149.4770 C   0  0  0  0  0  0  0  0  0  0  0  0
  161.6090  206.7620  149.2700 N   0  0  0  0  0  2  0  0  0  0  0  0
  159.5510  211.5220  153.7630 C   0  0  0  0  0  2  0  0  0  0  0  0
  158.9330  211.5730  155.1490 C   0  0  0  0  0  2  0  0  0  0  0  0
  156.3960  211.5060  155.1680 C   0  0  0  0  0  0  0  0  0  0  0  0
  155.3470  210.8100  155.1940 O   0  0  0  0  0  0  0  0  0  0  0  0
  157.6680  210.8530  155.1570 N   0  0  0  0  0  2  0  0  0  0  0  0
  155.3360  213.4820  156.1010 N   0  0  0  0  0  1  0  0  0  0  0  0
  156.2990  213.0020  155.1220 C   0  0  2  0  0  3  0  0  0  0  0  0
  156.9450  213.7520  152.8370 O   0  0  0  0  0  0  0  0  0  0  0  0
  155.9390  213.4770  153.7530 C   0  0  0  0  0  0  0  0  0  0  0  0
  154.7320  213.6030  153.4140 O   0  0  0  0  0  1  0  0  0  0  0  0
  1  9  1  0  0  0  0
  2  4  2  0  0  0  0
  2  5  1  0  0  0  0
  3  6  1  0  0  0  0
  3 11  2  0  0  0  0
  5 20  1  6  0  0  0
  5 10  1  0  0  0  0
  6  2  1  0  0  0  0
  7  8  1  1  0  0  0
  9  7  1  0  0  0  0
 11 13  1  0  0  0  0
 11  4  1  0  0  0  0
 12  4  1  6  0  0  0
 12  7  1  0  0  0  0
 12 10  1  0  0  0  0
 13  1  1  0  0  0  0
 14 17  1  0  0  0  0
 15 18  2  0  0  0  0
 16 17  2  0  0  0  0
 17 19  1  0  0  0  0
 18  3  1  0  0  0  0
 19 18  1  0  0  0  0
 20 21  1  0  0  0  0
 21 24  1  0  0  0  0
 22 23  2  0  0  0  0
 24 22  1  0  0  0  0
 26 22  1  0  0  0  0
 26 25  1  1  0  0  0
 27 28  2  0  0  0  0
 28 26  1  0  0  0  0
 29 28  1  0  0  0  0
M  END
>  <MODEL>
4

>  <REMARK>
 VINA RESULT:      -5.9      3.954      6.437
  Name = 
  6 active torsions:
  status: ('A' for Active; 'I' for Inactive)
    1  A    between atoms: C_4  and  C_24
    2  A    between atoms: CA_8  and  C_13
    3  A    between atoms: CA_8  and  C_21
    4  A    between atoms: C_9  and  C_12
    5  A    between atoms: C_12  and  C_17
    6  A    between atoms: C_17  and  N_26
                            x       y       z     vdW  Elec       q    Type
                         _______ _______ _______ _____ _____    ______ ____

>  <TORSDO>
F 6

$$$$
=
 OpenBabel11072413463D

 29 31  0  0  1  0  0  0  0  0999 V2000
  160.9520  210.5750  151.5540 C   0  0  0  0  0  2  0  0  0  0  0  0
  161.4300  206.6860  153.1940 C   0  0  0  0  0  0  0  0  0  0  0  0
  160.5330  208.5310  154.5980 C   0  0  0  0  0  0  0  0  0  0  0  0
  161.8570  207.9070  152.7880 C   0  0  0  0  0  0  0  0  0  0  0  0
  161.8040  205.5080  152.3830 C   0  0  2  0  0  3  0  0  0  0  0  0
  160.4250  206.8390  154.5300 S   0  0  0  0  0  0  0  0  0  0  0  0
  161.8210  208.6680  150.4290 C   0  0  2  0  0  3  0  0  0  0  0  0
  162.3060  208.3060  149.1060 N   0  0  0  0  0  1  0  0  0  0  0  0
  161.9340  210.1150  150.5810 N   0  0  0  0  0  2  0  0  0  0  0  0
  162.9270  206.1700  151.0920 S   0  0  0  0  0  0  0  0  0  0  0  0
  161.3710  208.9690  153.5600 C   0  0  0  0  0  0  0  0  0  0  0  0
  162.6330  207.9450  151.5210 C   0  0  2  0  0  3  0  0  0  0  0  0
  161.7470  210.6830  153.1850 S   0  0  0  0  0  0  0  0  0  0  0  0
  157.3130  212.2940  155.4040 C   0  0  0  0  0  1  0  0  0  0  0  0
  160.0140  209.1600  156.8280 O   0  0  0  0  0  0  0  0  0  0  0  0
  158.2880  211.1820  157.2610 O   0  0  0  0  0  0  0  0  0  0  0  0
  158.2000  211.2660  156.0070 C   0  0  0  0  0  0  0  0  0  0  0  0
  159.8330  209.3580  155.5970 C   0  0  0  0  0  0  0  0  0  0  0  0
  158.9420  210.3890  155.1530 N   0  0  0  0  0  2  0  0  0  0  0  0
  160.5810  204.9130  151.7070 C   0  0  0  0  0  2  0  0  0  0  0  0
  160.9410  204.3880  150.3280 C   0  0  0  0  0  2  0  0  0  0  0  0
  160.9330  205.2950  147.9580 C   0  0  0  0  0  0  0  0  0  0  0  0
  160.4710  206.1300  147.1360 O   0  0  0  0  0  0  0  0  0  0  0  0
  160.4510  205.3000  149.3040 N   0  0  0  0  0  2  0  0  0  0  0  0
  162.9060  204.9070  146.5960 N   0  0  0  0  0  1  0  0  0  0  0  0
  161.9560  204.2930  147.5110 C   0  0  2  0  0  3  0  0  0  0  0  0
  160.8710  202.0580  147.6740 O   0  0  0  0  0  1  0  0  0  0  0  0
  161.3080  203.1070  146.8770 C   0  0  0  0  0  0  0  0  0  0  0  0
  161.1290  203.0620  145.6300 O   0  0  0  0  0  0  0  0  0  0  0  0
  1 13  1  0  0  0  0
  2  6  1  0  0  0  0
  3 18  1  0  0  0  0
  4  2  2  0  0  0  0
  4 11  1  0  0  0  0
  5 20  1  6  0  0  0
  5  2  1  0  0  0  0
  6  3  1  0  0  0  0
  7  8  1  6  0  0  0
  7  9  1  0  0  0  0
  7 12  1  0  0  0  0
  9  1  1  0  0  0  0
 10  5  1  0  0  0  0
 11  3  2  0  0  0  0
 12 10  1  6  0  0  0
 12  4  1  0  0  0  0
 13 11  1  0  0  0  0
 14 17  1  0  0  0  0
 17 16  2  0  0  0  0
 18 15  2  0  0  0  0
 19 18  1  0  0  0  0
 19 17  1  0  0  0  0
 21 20  1  0  0  0  0
 22 24  1  0  0  0  0
 23 22  2  0  0  0  0
 24 21  1  0  0  0  0
 26 25  1  6  0  0  0
 26 22  1  0  0  0  0
 28 26  1  0  0  0  0
 28 27  1  0  0  0  0
 29 28  2  0  0  0  0
M  END
>  <MODEL>
5

>  <REMARK>
 VINA RESULT:      -5.8      2.638      8.981
  Name = 
  6 active torsions:
  status: ('A' for Active; 'I' for Inactive)
    1  A    between atoms: C_4  and  C_24
    2  A    between atoms: CA_8  and  C_13
    3  A    between atoms: CA_8  and  C_21
    4  A    between atoms: C_9  and  C_12
    5  A    between atoms: C_12  and  C_17
    6  A    between atoms: C_17  and  N_26
                            x       y       z     vdW  Elec       q    Type
                         _______ _______ _______ _____ _____    ______ ____

>  <TORSDO>
F 6

$$$$
=
 OpenBabel11072413463D

 29 31  0  0  1  0  0  0  0  0999 V2000
  160.8540  205.6520  152.8220 C   0  0  0  0  0  2  0  0  0  0  0  0
  161.2810  209.8610  152.4420 C   0  0  0  0  0  0  0  0  0  0  0  0
  161.8080  208.3740  150.5210 C   0  0  0  0  0  0  0  0  0  0  0  0
  161.6620  208.6200  152.8310 C   0  0  0  0  0  0  0  0  0  0  0  0
  160.8380  210.8150  153.4800 C   0  0  2  0  0  3  0  0  0  0  0  0
  161.2960  209.9730  150.7670 S   0  0  0  0  0  0  0  0  0  0  0  0
  160.4520  207.2690  154.5200 C   0  0  2  0  0  3  0  0  0  0  0  0
  159.9880  207.3150  155.8980 N   0  0  0  0  0  1  0  0  0  0  0  0
  160.9590  205.9280  154.2490 N   0  0  0  0  0  2  0  0  0  0  0  0
  161.1280  209.9420  155.0680 S   0  0  0  0  0  0  0  0  0  0  0  0
  161.9690  207.7570  151.7710 C   0  0  0  0  0  0  0  0  0  0  0  0
  161.5510  208.3220  154.2820 C   0  0  2  0  0  3  0  0  0  0  0  0
  162.4420  206.0450  152.0290 S   0  0  0  0  0  0  0  0  0  0  0  0
  161.3550  204.2910  147.6400 C   0  0  0  0  0  1  0  0  0  0  0  0
  162.5350  208.4580  148.2620 O   0  0  0  0  0  0  0  0  0  0  0  0
  162.2940  206.2650  146.7160 O   0  0  0  0  0  0  0  0  0  0  0  0
  161.7940  205.7070  147.7280 C   0  0  0  0  0  0  0  0  0  0  0  0
  162.0230  207.7770  149.1900 C   0  0  0  0  0  0  0  0  0  0  0  0
  161.6420  206.4140  148.9630 N   0  0  0  0  0  2  0  0  0  0  0  0
  159.3520  211.1010  153.3450 C   0  0  0  0  0  2  0  0  0  0  0  0
  159.1260  212.5440  152.9310 C   0  0  0  0  0  2  0  0  0  0  0  0
  157.6710  213.5510  154.7520 C   0  0  0  0  0  0  0  0  0  0  0  0
  157.5890  214.3040  155.7580 O   0  0  0  0  0  0  0  0  0  0  0  0
  158.9380  213.3770  154.1110 N   0  0  0  0  0  2  0  0  0  0  0  0
  155.2880  213.6980  154.3110 N   0  0  0  0  0  1  0  0  0  0  0  0
  156.4530  212.8290  154.2570 C   0  0  2  0  0  3  0  0  0  0  0  0
  155.2050  210.7090  154.6460 O   0  0  0  0  0  0  0  0  0  0  0  0
  156.2130  211.5790  155.0380 C   0  0  0  0  0  0  0  0  0  0  0  0
  156.9350  211.2930  156.0310 O   0  0  0  0  0  1  0  0  0  0  0  0
  1  9  1  0  0  0  0
  2  4  2  0  0  0  0
  2  5  1  0  0  0  0
  3  6  1  0  0  0  0
  3 11  2  0  0  0  0
  5 20  1  6  0  0  0
  5 10  1  0  0  0  0
  6  2  1  0  0  0  0
  7  8  1  1  0  0  0
  9  7  1  0  0  0  0
 11 13  1  0  0  0  0
 11  4  1  0  0  0  0
 12  4  1  6  0  0  0
 12  7  1  0  0  0  0
 12 10  1  0  0  0  0
 13  1  1  0  0  0  0
 14 17  1  0  0  0  0
 15 18  2  0  0  0  0
 16 17  2  0  0  0  0
 17 19  1  0  0  0  0
 18  3  1  0  0  0  0
 19 18  1  0  0  0  0
 21 20  1  0  0  0  0
 21 24  1  0  0  0  0
 22 23  2  0  0  0  0
 24 22  1  0  0  0  0
 26 25  1  1  0  0  0
 26 22  1  0  0  0  0
 26 28  1  0  0  0  0
 27 28  2  0  0  0  0
 28 29  1  0  0  0  0
M  END
>  <MODEL>
6

>  <REMARK>
 VINA RESULT:      -5.8      3.897      6.235
  Name = 
  6 active torsions:
  status: ('A' for Active; 'I' for Inactive)
    1  A    between atoms: C_4  and  C_24
    2  A    between atoms: CA_8  and  C_13
    3  A    between atoms: CA_8  and  C_21
    4  A    between atoms: C_9  and  C_12
    5  A    between atoms: C_12  and  C_17
    6  A    between atoms: C_17  and  N_26
                            x       y       z     vdW  Elec       q    Type
                         _______ _______ _______ _____ _____    ______ ____

>  <TORSDO>
F 6

$$$$
=
 OpenBabel11072413463D

 29 31  0  0  1  0  0  0  0  0999 V2000
  158.0840  213.6240  150.1740 C   0  0  0  0  0  2  0  0  0  0  0  0
  161.5280  211.1480  150.3880 C   0  0  0  0  0  0  0  0  0  0  0  0
  160.2320  211.6640  152.4460 C   0  0  0  0  0  0  0  0  0  0  0  0
  160.8710  212.3310  150.3090 C   0  0  0  0  0  0  0  0  0  0  0  0
  162.2540  210.6680  149.1940 C   0  0  2  0  0  3  0  0  0  0  0  0
  161.2380  210.4240  151.8750 S   0  0  0  0  0  0  0  0  0  0  0  0
  159.5020  213.0220  148.3620 C   0  0  2  0  0  3  0  0  0  0  0  0
  159.5850  213.2280  146.9240 N   0  0  0  0  0  1  0  0  0  0  0  0
  158.6880  214.0910  148.9330 N   0  0  0  0  0  2  0  0  0  0  0  0
  162.1070  212.0370  147.9800 S   0  0  0  0  0  0  0  0  0  0  0  0
  160.1320  212.6530  151.4540 C   0  0  0  0  0  0  0  0  0  0  0  0
  160.9080  213.0170  148.9920 C   0  0  2  0  0  3  0  0  0  0  0  0
  159.1310  214.1380  151.5680 S   0  0  0  0  0  0  0  0  0  0  0  0
  155.9510  211.1420  155.0100 C   0  0  0  0  0  1  0  0  0  0  0  0
  160.2660  211.8380  154.8140 O   0  0  0  0  0  0  0  0  0  0  0  0
  157.9670  211.5610  156.1900 O   0  0  0  0  0  0  0  0  0  0  0  0
  157.4150  211.3880  155.0720 C   0  0  0  0  0  0  0  0  0  0  0  0
  159.5850  211.6520  153.7700 C   0  0  0  0  0  0  0  0  0  0  0  0
  158.1730  211.4240  153.8590 N   0  0  0  0  0  2  0  0  0  0  0  0
  161.5810  209.4330  148.6190 C   0  0  0  0  0  2  0  0  0  0  0  0
  162.5400  208.2560  148.6290 C   0  0  0  0  0  2  0  0  0  0  0  0
  161.4220  206.0080  148.2540 C   0  0  0  0  0  0  0  0  0  0  0  0
  160.8220  205.0180  148.7500 O   0  0  0  0  0  0  0  0  0  0  0  0
  161.8580  207.0630  149.1140 N   0  0  0  0  0  2  0  0  0  0  0  0
  160.4600  206.2660  146.0390 N   0  0  0  0  0  1  0  0  0  0  0  0
  161.6940  206.0550  146.7800 C   0  0  2  0  0  3  0  0  0  0  0  0
  161.6240  203.7700  145.7900 O   0  0  0  0  0  0  0  0  0  0  0  0
  162.3770  204.8100  146.3180 C   0  0  0  0  0  0  0  0  0  0  0  0
  163.6320  204.7060  146.3760 O   0  0  0  0  0  1  0  0  0  0  0  0
  1 13  1  0  0  0  0
  2  6  1  0  0  0  0
  3 18  1  0  0  0  0
  4  2  2  0  0  0  0
  4 11  1  0  0  0  0
  5 20  1  6  0  0  0
  5  2  1  0  0  0  0
  6  3  1  0  0  0  0
  7  8  1  6  0  0  0
  7  9  1  0  0  0  0
  7 12  1  0  0  0  0
  9  1  1  0  0  0  0
 10  5  1  0  0  0  0
 11 13  1  0  0  0  0
 11  3  2  0  0  0  0
 12 10  1  6  0  0  0
 12  4  1  0  0  0  0
 14 17  1  0  0  0  0
 17 16  2  0  0  0  0
 18 19  1  0  0  0  0
 18 15  2  0  0  0  0
 19 17  1  0  0  0  0
 20 21  1  0  0  0  0
 21 24  1  0  0  0  0
 22 23  2  0  0  0  0
 22 24  1  0  0  0  0
 26 25  1  6  0  0  0
 26 22  1  0  0  0  0
 27 28  2  0  0  0  0
 28 29  1  0  0  0  0
 28 26  1  0  0  0  0
M  END
>  <MODEL>
7

>  <REMARK>
 VINA RESULT:      -5.6      4.409      9.748
  Name = 
  6 active torsions:
  status: ('A' for Active; 'I' for Inactive)
    1  A    between atoms: C_4  and  C_24
    2  A    between atoms: CA_8  and  C_13
    3  A    between atoms: CA_8  and  C_21
    4  A    between atoms: C_9  and  C_12
    5  A    between atoms: C_12  and  C_17
    6  A    between atoms: C_17  and  N_26
                            x       y       z     vdW  Elec       q    Type
                         _______ _______ _______ _____ _____    ______ ____

>  <TORSDO>
F 6

$$$$
=
 OpenBabel11072413463D

 29 31  0  0  1  0  0  0  0  0999 V2000
  161.7680  205.8280  154.0320 C   0  0  0  0  0  2  0  0  0  0  0  0
  161.2060  208.4080  150.7050 C   0  0  0  0  0  0  0  0  0  0  0  0
  161.3630  209.3480  153.0000 C   0  0  0  0  0  0  0  0  0  0  0  0
  160.8060  207.5300  151.6580 C   0  0  0  0  0  0  0  0  0  0  0  0
  161.2620  207.9420  149.3040 C   0  0  2  0  0  3  0  0  0  0  0  0
  161.6770  209.8550  151.4130 S   0  0  0  0  0  0  0  0  0  0  0  0
  161.5500  205.1680  151.7580 C   0  0  2  0  0  3  0  0  0  0  0  0
  161.5840  203.9480  150.9660 N   0  0  0  0  0  1  0  0  0  0  0  0
  161.2310  204.8130  153.1370 N   0  0  0  0  0  2  0  0  0  0  0  0
  160.5730  206.2420  149.3500 S   0  0  0  0  0  0  0  0  0  0  0  0
  160.8810  208.0300  152.9640 C   0  0  0  0  0  0  0  0  0  0  0  0
  160.5050  206.1510  151.1960 C   0  0  2  0  0  3  0  0  0  0  0  0
  160.4630  207.0380  154.4000 S   0  0  0  0  0  0  0  0  0  0  0  0
  159.2960  211.6590  156.9460 C   0  0  0  0  0  1  0  0  0  0  0  0
  162.7470  210.5850  154.4810 O   0  0  0  0  0  0  0  0  0  0  0  0
  161.6380  211.8280  156.5980 O   0  0  0  0  0  0  0  0  0  0  0  0
  160.5400  211.3620  156.1910 C   0  0  0  0  0  0  0  0  0  0  0  0
  161.5870  210.1890  154.1900 C   0  0  0  0  0  0  0  0  0  0  0  0
  160.4710  210.5520  155.0130 N   0  0  0  0  0  2  0  0  0  0  0  0
  162.7010  207.8730  148.8200 C   0  0  0  0  0  2  0  0  0  0  0  0
  162.8930  206.6800  147.9000 C   0  0  0  0  0  2  0  0  0  0  0  0
  161.7160  205.6630  145.8940 C   0  0  0  0  0  0  0  0  0  0  0  0
  160.9030  205.8130  144.9440 O   0  0  0  0  0  0  0  0  0  0  0  0
  161.9550  206.7530  146.7880 N   0  0  0  0  0  2  0  0  0  0  0  0
  163.1160  203.9530  144.8860 N   0  0  0  0  0  1  0  0  0  0  0  0
  162.4000  204.3420  146.0910 C   0  0  2  0  0  3  0  0  0  0  0  0
  160.8300  202.4980  145.5080 O   0  0  0  0  0  0  0  0  0  0  0  0
  161.4240  203.2840  146.4870 C   0  0  0  0  0  0  0  0  0  0  0  0
  161.1570  203.0780  147.7010 O   0  0  0  0  0  1  0  0  0  0  0  0
  1 13  1  0  0  0  0
  2  6  1  0  0  0  0
  2  4  2  0  0  0  0
  3 18  1  0  0  0  0
  4 11  1  0  0  0  0
  5 20  1  1  0  0  0
  5 10  1  0  0  0  0
  5  2  1  0  0  0  0
  6  3  1  0  0  0  0
  7  8  1  6  0  0  0
  7  9  1  0  0  0  0
  9  1  1  0  0  0  0
 11  3  2  0  0  0  0
 11 13  1  0  0  0  0
 12 10  1  6  0  0  0
 12  4  1  0  0  0  0
 12  7  1  0  0  0  0
 17 16  2  0  0  0  0
 17 14  1  0  0  0  0
 18 15  2  0  0  0  0
 18 19  1  0  0  0  0
 19 17  1  0  0  0  0
 21 20  1  0  0  0  0
 22 26  1  0  0  0  0
 22 24  1  0  0  0  0
 23 22  2  0  0  0  0
 24 21  1  0  0  0  0
 26 25  1  6  0  0  0
 26 28  1  0  0  0  0
 27 28  2  0  0  0  0
 28 29  1  0  0  0  0
M  END
>  <MODEL>
8

>  <REMARK>
 VINA RESULT:      -5.2      2.546      9.438
  Name = 
  6 active torsions:
  status: ('A' for Active; 'I' for Inactive)
    1  A    between atoms: C_4  and  C_24
    2  A    between atoms: CA_8  and  C_13
    3  A    between atoms: CA_8  and  C_21
    4  A    between atoms: C_9  and  C_12
    5  A    between atoms: C_12  and  C_17
    6  A    between atoms: C_17  and  N_26
                            x       y       z     vdW  Elec       q    Type
                         _______ _______ _______ _____ _____    ______ ____

>  <TORSDO>
F 6

$$$$
=
 OpenBabel11072413463D

 29 31  0  0  1  0  0  0  0  0999 V2000
  160.7500  206.8220  148.3140 C   0  0  0  0  0  2  0  0  0  0  0  0
  162.0370  208.6850  151.9080 C   0  0  0  0  0  0  0  0  0  0  0  0
  162.1630  209.9140  149.7510 C   0  0  0  0  0  0  0  0  0  0  0  0
  162.1640  207.8580  150.8410 C   0  0  0  0  0  0  0  0  0  0  0  0
  161.8460  208.0820  153.2430 C   0  0  2  0  0  3  0  0  0  0  0  0
  162.0090  210.2840  151.3990 S   0  0  0  0  0  0  0  0  0  0  0  0
  160.7650  205.8440  150.4820 C   0  0  2  0  0  3  0  0  0  0  0  0
  160.3760  204.5950  151.1200 N   0  0  0  0  0  1  0  0  0  0  0  0
  160.9670  205.5900  149.0590 N   0  0  0  0  0  2  0  0  0  0  0  0
  162.0090  206.2750  152.9650 S   0  0  0  0  0  0  0  0  0  0  0  0
  162.2400  208.5190  149.6090 C   0  0  0  0  0  0  0  0  0  0  0  0
  162.0500  206.4030  151.1200 C   0  0  2  0  0  3  0  0  0  0  0  0
  162.3520  207.6400  148.0490 S   0  0  0  0  0  0  0  0  0  0  0  0
  159.5120  212.5720  146.4210 C   0  0  0  0  0  1  0  0  0  0  0  0
  163.2850  211.4530  148.3340 O   0  0  0  0  0  0  0  0  0  0  0  0
  161.8630  212.8780  146.5440 O   0  0  0  0  0  0  0  0  0  0  0  0
  160.8520  212.2770  146.9920 C   0  0  0  0  0  0  0  0  0  0  0  0
  162.1940  210.9280  148.6810 C   0  0  0  0  0  0  0  0  0  0  0  0
  160.9700  211.3110  148.0420 N   0  0  0  0  0  2  0  0  0  0  0  0
  160.4490  208.3700  153.7660 C   0  0  0  0  0  2  0  0  0  0  0  0
  160.3240  209.8300  154.1650 C   0  0  0  0  0  2  0  0  0  0  0  0
  158.4230  211.4860  154.4590 C   0  0  0  0  0  0  0  0  0  0  0  0
  157.2090  211.6800  154.7370 O   0  0  0  0  0  0  0  0  0  0  0  0
  158.9330  210.1500  154.4530 N   0  0  0  0  0  2  0  0  0  0  0  0
  159.1770  213.7000  155.1090 N   0  0  0  0  0  1  0  0  0  0  0  0
  159.3060  212.6480  154.1140 C   0  0  2  0  0  3  0  0  0  0  0  0
  158.4680  214.4500  152.6120 O   0  0  0  0  0  1  0  0  0  0  0  0
  158.9960  213.1730  152.7510 C   0  0  0  0  0  0  0  0  0  0  0  0
  159.2360  212.4810  151.7250 O   0  0  0  0  0  0  0  0  0  0  0  0
  1  9  1  0  0  0  0
  2  5  1  0  0  0  0
  3  6  1  0  0  0  0
  4  2  2  0  0  0  0
  5 20  1  6  0  0  0
  6  2  1  0  0  0  0
  7  8  1  1  0  0  0
  7 12  1  0  0  0  0
  9  7  1  0  0  0  0
 10  5  1  0  0  0  0
 11  3  2  0  0  0  0
 11  4  1  0  0  0  0
 12  4  1  1  0  0  0
 12 10  1  0  0  0  0
 13  1  1  0  0  0  0
 13 11  1  0  0  0  0
 14 17  1  0  0  0  0
 15 18  2  0  0  0  0
 16 17  2  0  0  0  0
 17 19  1  0  0  0  0
 18  3  1  0  0  0  0
 19 18  1  0  0  0  0
 20 21  1  0  0  0  0
 21 24  1  0  0  0  0
 22 23  2  0  0  0  0
 24 22  1  0  0  0  0
 26 22  1  0  0  0  0
 26 25  1  1  0  0  0
 27 28  1  0  0  0  0
 28 26  1  0  0  0  0
 29 28  2  0  0  0  0
M  END
>  <MODEL>
9

>  <REMARK>
 VINA RESULT:      -5.1      4.572      6.552
  Name = 
  6 active torsions:
  status: ('A' for Active; 'I' for Inactive)
    1  A    between atoms: C_4  and  C_24
    2  A    between atoms: CA_8  and  C_13
    3  A    between atoms: CA_8  and  C_21
    4  A    between atoms: C_9  and  C_12
    5  A    between atoms: C_12  and  C_17
    6  A    between atoms: C_17  and  N_26
                            x       y       z     vdW  Elec       q    Type
                         _______ _______ _______ _____ _____    ______ ____

>  <TORSDO>
F 6

$$$$
