=
 OpenBabel11072412583D

 48 52  0  0  1  0  0  0  0  0999 V2000
  160.6290  214.4530  145.1320 O   0  0  0  0  0  0  0  0  0  0  0  0
  158.5930  214.4520  149.5290 N   0  0  0  0  0  2  0  0  0  0  0  0
  158.8270  211.1220  147.5560 O   0  0  0  0  0  0  0  0  0  0  0  0
  162.1070  208.9450  148.9700 C   0  0  1  0  0  3  0  0  0  0  0  0
  159.0160  212.1320  152.6590 N   0  0  0  0  0  0  0  0  0  0  0  0
  162.9680  214.0410  147.8330 C   0  0  0  0  0  0  0  0  0  0  0  0
  161.2100  209.3960  147.8290 C   0  0  0  0  0  2  0  0  0  0  0  0
  157.8790  212.4780  152.1600 C   0  0  0  0  0  0  0  0  0  0  0  0
  162.4930  214.2240  146.5020 N   0  0  0  0  0  2  0  0  0  0  0  0
  160.0550  211.6730  146.8900 S   0  0  0  0  0  0  0  0  0  0  0  0
  161.5270  209.4140  150.2930 C   0  0  0  0  0  2  0  0  0  0  0  0
  160.2020  213.4210  147.2540 C   0  0  2  0  0  3  0  0  0  0  0  0
  161.0990  214.0740  146.2360 C   0  0  0  0  0  0  0  0  0  0  0  0
  161.5140  210.8390  147.4830 C   0  0  0  0  0  2  0  0  0  0  0  0
  161.0770  211.3090  151.7610 C   0  0  0  0  0  3  0  0  0  0  0  0
  159.7690  213.6570  149.8380 C   0  0  1  0  0  3  0  0  0  0  0  0
  157.5150  213.9250  150.2650 N   0  0  0  0  0  2  0  0  0  0  0  0
  159.9430  211.4600  145.4050 O   0  0  0  0  0  0  0  0  0  0  0  0
  159.2950  212.2910  150.2670 C   0  0  2  0  0  3  0  0  0  0  0  0
  160.7120  213.6390  148.6740 C   0  0  0  0  0  0  0  0  0  0  0  0
  161.9400  210.8400  150.6380 C   0  0  1  0  0  3  0  0  0  0  0  0
  164.2000  214.0780  148.0750 O   0  0  0  0  0  0  0  0  0  0  0  0
  157.8530  212.5630  150.6650 C   0  0  1  0  0  3  0  0  0  0  0  0
  162.0030  213.8740  148.9260 C   0  0  0  0  0  3  0  0  0  0  0  0
  159.9070  211.9220  151.5820 C   0  0  0  0  0  0  0  0  0  0  0  0
  156.6150  212.2230  154.2580 C   0  0  0  0  0  1  0  0  0  0  0  0
  156.7610  212.7530  152.9490 O   0  0  0  0  0  0  0  0  0  0  0  0
  163.2740  210.8480  151.0510 O   0  0  0  0  0  0  0  0  0  0  0  0
  163.3070  210.0520  152.0940 O   0  0  0  0  0  1  0  0  0  0  0  0
  162.1730  207.4290  148.9900 C   0  0  0  0  0  2  0  0  0  0  0  0
  160.7590  205.7750  150.0210 O   0  0  0  0  0  1  0  0  0  0  0  0
  160.7770  206.8040  149.0820 C   0  0  2  0  0  3  0  0  0  0  0  0
  160.2630  206.3790  147.8360 O   0  0  0  0  0  0  0  0  0  0  0  0
  161.2350  206.6010  146.8390 C   0  0  0  0  0  2  0  0  0  0  0  0
  159.8040  205.2770  145.5150 F   0  0  0  0  0  0  0  0  0  0  0  0
  161.1400  205.5650  145.7160 C   0  0  0  0  0  0  0  0  0  0  0  0
  161.6310  206.1180  144.5470 F   0  0  0  0  0  0  0  0  0  0  0  0
  161.8970  204.2540  146.0210 C   0  0  2  0  0  3  0  0  0  0  0  0
  162.0970  203.2390  148.2390 C   0  0  0  0  0  3  0  0  0  0  0  0
  161.0180  203.0500  146.1660 C   0  0  0  0  0  0  0  0  0  0  0  0
  162.6620  204.3360  147.3430 C   0  0  0  0  0  3  0  0  0  0  0  0
  161.1300  202.5130  147.3790 C   0  0  0  0  0  0  0  0  0  0  0  0
  159.5120  203.3350  144.2070 O   0  0  0  0  0  0  0  0  0  0  0  0
  160.1760  201.2440  144.8450 O   0  0  0  0  0  1  0  0  0  0  0  0
  160.2180  202.4880  145.0510 C   0  0  0  0  0  0  0  0  0  0  0  0
  160.4480  201.2580  147.8440 C   0  0  0  0  0  2  0  0  0  0  0  0
  159.2740  201.0040  150.0390 C   0  0  0  0  0  1  0  0  0  0  0  0
  160.6220  201.0550  149.3430 C   0  0  0  0  0  2  0  0  0  0  0  0
  1 13  2  0  0  0  0
  2 16  1  0  0  0  0
  2 17  1  0  0  0  0
  4 30  1  1  0  0  0
  4 11  1  0  0  0  0
  6 22  2  0  0  0  0
  6 24  1  0  0  0  0
  7  4  1  0  0  0  0
  8  5  2  0  0  0  0
  8 27  1  0  0  0  0
  9  6  1  0  0  0  0
 10 12  1  0  0  0  0
 10 14  1  0  0  0  0
 10  3  2  0  0  0  0
 11 21  1  0  0  0  0
 12 13  1  6  0  0  0
 12 20  1  0  0  0  0
 13  9  1  0  0  0  0
 14  7  1  0  0  0  0
 16 20  1  6  0  0  0
 16 19  1  0  0  0  0
 18 10  2  0  0  0  0
 19 23  1  0  0  0  0
 19 25  1  1  0  0  0
 20 24  2  0  0  0  0
 21 28  1  1  0  0  0
 21 15  1  0  0  0  0
 23 17  1  1  0  0  0
 23  8  1  0  0  0  0
 25 15  2  0  0  0  0
 25  5  1  0  0  0  0
 27 26  1  0  0  0  0
 28 29  1  0  0  0  0
 30 32  1  0  0  0  0
 32 31  1  1  0  0  0
 33 32  1  0  0  0  0
 34 33  1  0  0  0  0
 35 36  1  0  0  0  0
 36 34  1  0  0  0  0
 37 36  1  0  0  0  0
 38 36  1  1  0  0  0
 38 40  1  0  0  0  0
 38 41  1  0  0  0  0
 40 42  2  0  0  0  0
 41 39  2  0  0  0  0
 42 46  1  0  0  0  0
 42 39  1  0  0  0  0
 43 45  2  0  0  0  0
 44 45  1  0  0  0  0
 45 40  1  0  0  0  0
 46 48  1  0  0  0  0
 48 47  1  0  0  0  0
M  END
>  <MODEL>
1

>  <REMARK>
 VINA RESULT:       2.8      0.000      0.000
  Name = 
  11 active torsions:
  status: ('A' for Active; 'I' for Inactive)
    1  A    between atoms: O_3  and  C_9
    2  A    between atoms: O_3  and  C_44
    3  A    between atoms: C_5  and  C_42
    4  A    between atoms: C_8  and  C_36
    5  A    between atoms: C_9  and  C_36
    6  A    between atoms: C_13  and  O_17
    7  A    between atoms: O_23  and  C_38
    8  A    between atoms: C_32  and  C_48
    9  A    between atoms: C_34  and  C_37
   10  A    between atoms: C_34  and  C_46
   11  A    between atoms: C_42  and  C_44
                            x       y       z     vdW  Elec       q    Type
                         _______ _______ _______ _____ _____    ______ ____

>  <TORSDO>
F 11

$$$$
=
 OpenBabel11072412583D

 48 52  0  0  1  0  0  0  0  0999 V2000
  163.0200  211.4230  149.7700 O   0  0  0  0  0  0  0  0  0  0  0  0
  159.4660  212.3380  152.9350 N   0  0  0  0  0  2  0  0  0  0  0  0
  159.6150  208.8660  151.2150 O   0  0  0  0  0  0  0  0  0  0  0  0
  161.3810  206.1340  153.8440 C   0  0  1  0  0  3  0  0  0  0  0  0
  157.9950  210.3090  155.9470 N   0  0  0  0  0  0  0  0  0  0  0  0
  163.8920  210.7460  153.1930 C   0  0  0  0  0  0  0  0  0  0  0  0
  161.1640  206.6660  152.4370 C   0  0  0  0  0  2  0  0  0  0  0  0
  157.2820  210.8600  155.0250 C   0  0  0  0  0  0  0  0  0  0  0  0
  164.0540  210.9020  151.7860 N   0  0  0  0  0  2  0  0  0  0  0  0
  161.1030  209.0440  151.1180 S   0  0  0  0  0  0  0  0  0  0  0  0
  160.4600  206.8560  154.8120 C   0  0  0  0  0  2  0  0  0  0  0  0
  161.5310  210.7370  151.5210 C   0  0  2  0  0  3  0  0  0  0  0  0
  162.8950  211.0560  150.9670 C   0  0  0  0  0  0  0  0  0  0  0  0
  161.9370  207.9560  152.2550 C   0  0  0  0  0  2  0  0  0  0  0  0
  159.9590  208.9400  155.9750 C   0  0  0  0  0  3  0  0  0  0  0  0
  160.1760  211.3250  153.6970 C   0  0  1  0  0  3  0  0  0  0  0  0
  158.0890  212.1550  153.1570 N   0  0  0  0  0  2  0  0  0  0  0  0
  161.5440  208.7160  149.7180 O   0  0  0  0  0  0  0  0  0  0  0  0
  159.2380  210.1580  153.8840 C   0  0  2  0  0  3  0  0  0  0  0  0
  161.4670  210.9710  153.0260 C   0  0  0  0  0  0  0  0  0  0  0  0
  161.0490  208.1730  155.3050 C   0  0  1  0  0  3  0  0  0  0  0  0
  164.8890  210.5180  153.9210 O   0  0  0  0  0  0  0  0  0  0  0  0
  157.8790  210.7990  153.6530 C   0  0  1  0  0  3  0  0  0  0  0  0
  162.5630  210.9200  153.7890 C   0  0  0  0  0  3  0  0  0  0  0  0
  159.1570  209.7890  155.3320 C   0  0  0  0  0  0  0  0  0  0  0  0
  155.8230  212.2320  156.4570 C   0  0  0  0  0  1  0  0  0  0  0  0
  156.0520  211.4670  155.2840 O   0  0  0  0  0  0  0  0  0  0  0  0
  162.0600  207.9090  156.2320 O   0  0  0  0  0  0  0  0  0  0  0  0
  162.2710  209.0570  156.8340 O   0  0  0  0  0  1  0  0  0  0  0  0
  161.0450  204.6540  153.8800 C   0  0  0  0  0  2  0  0  0  0  0  0
  159.4140  204.2870  152.1470 O   0  0  0  0  0  1  0  0  0  0  0  0
  160.7550  204.1060  152.4800 C   0  0  2  0  0  3  0  0  0  0  0  0
  161.1580  202.7630  152.3020 O   0  0  0  0  0  0  0  0  0  0  0  0
  161.9280  202.6670  151.1250 C   0  0  0  0  0  2  0  0  0  0  0  0
  161.9970  201.0900  149.3760 F   0  0  0  0  0  0  0  0  0  0  0  0
  161.1510  201.9900  149.9940 C   0  0  0  0  0  0  0  0  0  0  0  0
  160.0990  201.2730  150.5350 F   0  0  0  0  0  0  0  0  0  0  0  0
  160.6090  202.9780  148.9380 C   0  0  2  0  0  3  0  0  0  0  0  0
  161.8200  204.9390  148.1100 C   0  0  0  0  0  3  0  0  0  0  0  0
  161.1430  202.7630  147.5560 C   0  0  0  0  0  0  0  0  0  0  0  0
  160.9800  204.4240  149.2750 C   0  0  0  0  0  3  0  0  0  0  0  0
  161.8060  203.8320  147.1210 C   0  0  0  0  0  0  0  0  0  0  0  0
  160.0300  201.6190  145.6480 O   0  0  0  0  0  0  0  0  0  0  0  0
  161.3790  200.4360  147.0620 O   0  0  0  0  0  1  0  0  0  0  0  0
  160.8620  201.5460  146.7570 C   0  0  0  0  0  0  0  0  0  0  0  0
  162.4080  203.9890  145.7540 C   0  0  0  0  0  2  0  0  0  0  0  0
  160.6050  205.4030  144.7490 C   0  0  0  0  0  1  0  0  0  0  0  0
  162.0680  205.3450  145.1500 C   0  0  0  0  0  2  0  0  0  0  0  0
  1 13  2  0  0  0  0
  2 17  1  0  0  0  0
  4 30  1  6  0  0  0
  4 11  1  0  0  0  0
  6 24  1  0  0  0  0
  6 22  2  0  0  0  0
  7  4  1  0  0  0  0
  8 27  1  0  0  0  0
  8  5  2  0  0  0  0
  9  6  1  0  0  0  0
 10  3  2  0  0  0  0
 10 12  1  0  0  0  0
 10 14  1  0  0  0  0
 11 21  1  0  0  0  0
 12 13  1  1  0  0  0
 12 20  1  0  0  0  0
 13  9  1  0  0  0  0
 14  7  1  0  0  0  0
 16  2  1  6  0  0  0
 16 19  1  0  0  0  0
 18 10  2  0  0  0  0
 19 25  1  1  0  0  0
 20 16  1  0  0  0  0
 20 24  2  0  0  0  0
 21 15  1  0  0  0  0
 21 28  1  1  0  0  0
 23 17  1  1  0  0  0
 23 19  1  0  0  0  0
 23  8  1  0  0  0  0
 25  5  1  0  0  0  0
 25 15  2  0  0  0  0
 27 26  1  0  0  0  0
 28 29  1  0  0  0  0
 32 31  1  1  0  0  0
 32 30  1  0  0  0  0
 33 32  1  0  0  0  0
 34 33  1  0  0  0  0
 35 36  1  0  0  0  0
 36 37  1  0  0  0  0
 36 34  1  0  0  0  0
 38 41  1  0  0  0  0
 38 36  1  1  0  0  0
 39 41  2  0  0  0  0
 40 38  1  0  0  0  0
 42 40  2  0  0  0  0
 42 39  1  0  0  0  0
 43 45  2  0  0  0  0
 45 44  1  0  0  0  0
 45 40  1  0  0  0  0
 46 42  1  0  0  0  0
 47 48  1  0  0  0  0
 48 46  1  0  0  0  0
M  END
>  <MODEL>
2

>  <REMARK>
 VINA RESULT:       3.4      3.395      4.868
  Name = 
  11 active torsions:
  status: ('A' for Active; 'I' for Inactive)
    1  A    between atoms: O_3  and  C_9
    2  A    between atoms: O_3  and  C_44
    3  A    between atoms: C_5  and  C_42
    4  A    between atoms: C_8  and  C_36
    5  A    between atoms: C_9  and  C_36
    6  A    between atoms: C_13  and  O_17
    7  A    between atoms: O_23  and  C_38
    8  A    between atoms: C_32  and  C_48
    9  A    between atoms: C_34  and  C_37
   10  A    between atoms: C_34  and  C_46
   11  A    between atoms: C_42  and  C_44
                            x       y       z     vdW  Elec       q    Type
                         _______ _______ _______ _____ _____    ______ ____

>  <TORSDO>
F 11

$$$$
=
 OpenBabel11072412583D

 48 52  0  0  1  0  0  0  0  0999 V2000
  162.8100  211.3400  149.7290 O   0  0  0  0  0  0  0  0  0  0  0  0
  159.4100  212.3620  153.0270 N   0  0  0  0  0  2  0  0  0  0  0  0
  159.4660  208.8430  151.4010 O   0  0  0  0  0  0  0  0  0  0  0  0
  161.3400  206.1760  154.0220 C   0  0  1  0  0  3  0  0  0  0  0  0
  158.0720  210.4260  156.1600 N   0  0  0  0  0  0  0  0  0  0  0  0
  163.8370  210.7550  153.1270 C   0  0  0  0  0  0  0  0  0  0  0  0
  161.0600  206.6690  152.6130 C   0  0  0  0  0  2  0  0  0  0  0  0
  157.3190  210.9550  155.2560 C   0  0  0  0  0  0  0  0  0  0  0  0
  163.9340  210.8700  151.7090 N   0  0  0  0  0  2  0  0  0  0  0  0
  160.9480  209.0100  151.2310 S   0  0  0  0  0  0  0  0  0  0  0  0
  160.4680  206.9300  155.0110 C   0  0  0  0  0  2  0  0  0  0  0  0
  161.4010  210.7110  151.5650 C   0  0  2  0  0  3  0  0  0  0  0  0
  162.7390  211.0070  150.9410 C   0  0  0  0  0  0  0  0  0  0  0  0
  161.8290  207.9490  152.3590 C   0  0  0  0  0  2  0  0  0  0  0  0
  160.0290  209.0480  156.1360 C   0  0  0  0  0  3  0  0  0  0  0  0
  160.1500  211.3670  153.7840 C   0  0  1  0  0  3  0  0  0  0  0  0
  158.0440  212.1920  153.3180 N   0  0  0  0  0  2  0  0  0  0  0  0
  161.3230  208.6400  149.8220 O   0  0  0  0  0  0  0  0  0  0  0  0
  159.2180  210.2110  154.0470 C   0  0  2  0  0  3  0  0  0  0  0  0
  161.4080  210.9870  153.0650 C   0  0  0  0  0  0  0  0  0  0  0  0
  161.0840  208.2570  155.4390 C   0  0  1  0  0  3  0  0  0  0  0  0
  164.8650  210.5420  153.8140 O   0  0  0  0  0  0  0  0  0  0  0  0
  157.8520  210.8520  153.8610 C   0  0  1  0  0  3  0  0  0  0  0  0
  162.5370  210.9520  153.7780 C   0  0  0  0  0  3  0  0  0  0  0  0
  159.2020  209.8830  155.5070 C   0  0  0  0  0  0  0  0  0  0  0  0
  156.0430  212.8570  156.1620 C   0  0  0  0  0  1  0  0  0  0  0  0
  156.1040  211.5760  155.5550 O   0  0  0  0  0  0  0  0  0  0  0  0
  162.1360  208.0140  156.3250 O   0  0  0  0  0  0  0  0  0  0  0  0
  162.3550  209.1690  156.9100 O   0  0  0  0  0  1  0  0  0  0  0  0
  161.0000  204.7000  154.1160 C   0  0  0  0  0  2  0  0  0  0  0  0
  160.0060  202.8780  152.8960 O   0  0  0  0  0  1  0  0  0  0  0  0
  160.6230  204.1190  152.7500 C   0  0  2  0  0  3  0  0  0  0  0  0
  161.7040  204.0580  151.8410 O   0  0  0  0  0  0  0  0  0  0  0  0
  161.5760  202.8940  151.0550 C   0  0  0  0  0  2  0  0  0  0  0  0
  159.7150  202.3290  149.7250 F   0  0  0  0  0  0  0  0  0  0  0  0
  160.8110  203.1690  149.7590 C   0  0  0  0  0  0  0  0  0  0  0  0
  160.3400  204.4700  149.7790 F   0  0  0  0  0  0  0  0  0  0  0  0
  161.6540  202.9480  148.4840 C   0  0  2  0  0  3  0  0  0  0  0  0
  160.8910  201.7380  146.4970 C   0  0  0  0  0  3  0  0  0  0  0  0
  161.3280  203.8770  147.3560 C   0  0  0  0  0  0  0  0  0  0  0  0
  161.4470  201.5470  147.9050 C   0  0  0  0  0  3  0  0  0  0  0  0
  160.9070  203.2070  146.2850 C   0  0  0  0  0  0  0  0  0  0  0  0
  160.4790  206.2140  147.3670 O   0  0  0  0  0  0  0  0  0  0  0  0
  162.7220  205.8110  147.5220 O   0  0  0  0  0  1  0  0  0  0  0  0
  161.5560  205.3400  147.4160 C   0  0  0  0  0  0  0  0  0  0  0  0
  160.5640  203.8150  144.9550 C   0  0  0  0  0  2  0  0  0  0  0  0
  161.2560  205.9240  143.7990 C   0  0  0  0  0  1  0  0  0  0  0  0
  161.7340  204.6110  144.3910 C   0  0  0  0  0  2  0  0  0  0  0  0
  1 13  2  0  0  0  0
  2 17  1  0  0  0  0
  4 30  1  6  0  0  0
  4 11  1  0  0  0  0
  6 24  1  0  0  0  0
  6 22  2  0  0  0  0
  7  4  1  0  0  0  0
  8 27  1  0  0  0  0
  8  5  2  0  0  0  0
  9  6  1  0  0  0  0
 10  3  2  0  0  0  0
 10 12  1  0  0  0  0
 10 14  1  0  0  0  0
 11 21  1  0  0  0  0
 12 13  1  1  0  0  0
 12 20  1  0  0  0  0
 13  9  1  0  0  0  0
 14  7  1  0  0  0  0
 16  2  1  6  0  0  0
 16 19  1  0  0  0  0
 18 10  2  0  0  0  0
 19 25  1  1  0  0  0
 20 24  2  0  0  0  0
 20 16  1  0  0  0  0
 21 15  1  0  0  0  0
 21 28  1  1  0  0  0
 23 17  1  1  0  0  0
 23 19  1  0  0  0  0
 23  8  1  0  0  0  0
 25 15  2  0  0  0  0
 25  5  1  0  0  0  0
 27 26  1  0  0  0  0
 28 29  1  0  0  0  0
 32 31  1  1  0  0  0
 32 30  1  0  0  0  0
 33 32  1  0  0  0  0
 34 33  1  0  0  0  0
 35 36  1  0  0  0  0
 36 37  1  0  0  0  0
 36 34  1  0  0  0  0
 38 36  1  1  0  0  0
 39 41  2  0  0  0  0
 40 45  1  0  0  0  0
 40 38  1  0  0  0  0
 41 38  1  0  0  0  0
 42 39  1  0  0  0  0
 42 40  2  0  0  0  0
 43 45  2  0  0  0  0
 45 44  1  0  0  0  0
 46 42  1  0  0  0  0
 47 48  1  0  0  0  0
 48 46  1  0  0  0  0
M  END
>  <MODEL>
3

>  <REMARK>
 VINA RESULT:       3.6      3.382      4.943
  Name = 
  11 active torsions:
  status: ('A' for Active; 'I' for Inactive)
    1  A    between atoms: O_3  and  C_9
    2  A    between atoms: O_3  and  C_44
    3  A    between atoms: C_5  and  C_42
    4  A    between atoms: C_8  and  C_36
    5  A    between atoms: C_9  and  C_36
    6  A    between atoms: C_13  and  O_17
    7  A    between atoms: O_23  and  C_38
    8  A    between atoms: C_32  and  C_48
    9  A    between atoms: C_34  and  C_37
   10  A    between atoms: C_34  and  C_46
   11  A    between atoms: C_42  and  C_44
                            x       y       z     vdW  Elec       q    Type
                         _______ _______ _______ _____ _____    ______ ____

>  <TORSDO>
F 11

$$$$
=
 OpenBabel11072412583D

 48 52  0  0  1  0  0  0  0  0999 V2000
  163.0790  211.4130  149.7990 O   0  0  0  0  0  0  0  0  0  0  0  0
  159.5230  212.4320  152.9290 N   0  0  0  0  0  2  0  0  0  0  0  0
  159.6500  208.9180  151.2940 O   0  0  0  0  0  0  0  0  0  0  0  0
  161.3860  206.2360  153.9940 C   0  0  1  0  0  3  0  0  0  0  0  0
  158.0260  210.4870  155.9840 N   0  0  0  0  0  0  0  0  0  0  0  0
  163.9350  210.8130  153.2410 C   0  0  0  0  0  0  0  0  0  0  0  0
  161.1780  206.7360  152.5740 C   0  0  0  0  0  2  0  0  0  0  0  0
  157.3200  211.0220  155.0460 C   0  0  0  0  0  0  0  0  0  0  0  0
  164.1030  210.9330  151.8310 N   0  0  0  0  0  2  0  0  0  0  0  0
  161.1400  209.0830  151.1980 S   0  0  0  0  0  0  0  0  0  0  0  0
  160.4680  206.9890  154.9410 C   0  0  0  0  0  2  0  0  0  0  0  0
  161.5800  210.7820  151.5610 C   0  0  2  0  0  3  0  0  0  0  0  0
  162.9480  211.0760  151.0050 C   0  0  0  0  0  0  0  0  0  0  0  0
  161.9610  208.0150  152.3640 C   0  0  0  0  0  2  0  0  0  0  0  0
  159.9790  209.1040  156.0520 C   0  0  0  0  0  3  0  0  0  0  0  0
  160.2220  211.4320  153.7180 C   0  0  1  0  0  3  0  0  0  0  0  0
  158.1430  212.2640  153.1510 N   0  0  0  0  0  2  0  0  0  0  0  0
  161.5830  208.7180  149.8080 O   0  0  0  0  0  0  0  0  0  0  0  0
  159.2750  210.2770  153.9300 C   0  0  2  0  0  3  0  0  0  0  0  0
  161.5130  211.0520  153.0600 C   0  0  0  0  0  0  0  0  0  0  0  0
  161.0650  208.3130  155.4040 C   0  0  1  0  0  3  0  0  0  0  0  0
  164.9280  210.5950  153.9780 O   0  0  0  0  0  0  0  0  0  0  0  0
  157.9220  210.9230  153.6790 C   0  0  1  0  0  3  0  0  0  0  0  0
  162.6050  211.0110  153.8280 C   0  0  0  0  0  3  0  0  0  0  0  0
  159.1860  209.9440  155.3860 C   0  0  0  0  0  0  0  0  0  0  0  0
  155.8720  212.4500  156.4340 C   0  0  0  0  0  1  0  0  0  0  0  0
  156.0940  211.6440  155.2870 O   0  0  0  0  0  0  0  0  0  0  0  0
  162.0720  208.0640  156.3410 O   0  0  0  0  0  0  0  0  0  0  0  0
  162.2680  209.2170  156.9360 O   0  0  0  0  0  1  0  0  0  0  0  0
  161.0390  204.7610  154.0650 C   0  0  0  0  0  2  0  0  0  0  0  0
  160.4460  202.8250  152.7620 O   0  0  0  0  0  1  0  0  0  0  0  0
  160.8170  204.1650  152.6720 C   0  0  2  0  0  3  0  0  0  0  0  0
  161.9140  204.3420  151.7970 O   0  0  0  0  0  0  0  0  0  0  0  0
  161.6510  203.6640  150.5900 C   0  0  0  0  0  2  0  0  0  0  0  0
  160.0080  205.2960  150.1520 F   0  0  0  0  0  0  0  0  0  0  0  0
  161.0300  204.5920  149.5430 C   0  0  0  0  0  0  0  0  0  0  0  0
  161.9810  205.5080  149.1310 F   0  0  0  0  0  0  0  0  0  0  0  0
  160.4660  203.8490  148.3140 C   0  0  2  0  0  3  0  0  0  0  0  0
  161.8200  202.9430  146.4870 C   0  0  0  0  0  3  0  0  0  0  0  0
  160.5770  202.3570  148.3860 C   0  0  0  0  0  0  0  0  0  0  0  0
  161.2090  204.2300  147.0320 C   0  0  0  0  0  3  0  0  0  0  0  0
  161.3230  201.8790  147.3930 C   0  0  0  0  0  0  0  0  0  0  0  0
  160.5340  200.9930  150.4660 O   0  0  0  0  0  1  0  0  0  0  0  0
  158.6130  201.3270  149.2770 O   0  0  0  0  0  0  0  0  0  0  0  0
  159.8520  201.5360  149.3850 C   0  0  0  0  0  0  0  0  0  0  0  0
  161.5830  200.4250  147.1190 C   0  0  0  0  0  2  0  0  0  0  0  0
  161.2340  198.5330  145.5180 C   0  0  0  0  0  1  0  0  0  0  0  0
  160.8310  199.9500  145.8820 C   0  0  0  0  0  2  0  0  0  0  0  0
  1 13  2  0  0  0  0
  2 17  1  0  0  0  0
  4 30  1  6  0  0  0
  4 11  1  0  0  0  0
  6 24  1  0  0  0  0
  6 22  2  0  0  0  0
  7  4  1  0  0  0  0
  8 27  1  0  0  0  0
  8  5  2  0  0  0  0
  9  6  1  0  0  0  0
 10  3  2  0  0  0  0
 10 12  1  0  0  0  0
 10 14  1  0  0  0  0
 11 21  1  0  0  0  0
 12 13  1  1  0  0  0
 12 20  1  0  0  0  0
 13  9  1  0  0  0  0
 14  7  1  0  0  0  0
 16  2  1  6  0  0  0
 16 19  1  0  0  0  0
 18 10  2  0  0  0  0
 19 25  1  1  0  0  0
 20 16  1  0  0  0  0
 20 24  2  0  0  0  0
 21 15  1  0  0  0  0
 21 28  1  1  0  0  0
 23 17  1  1  0  0  0
 23 19  1  0  0  0  0
 23  8  1  0  0  0  0
 25  5  1  0  0  0  0
 25 15  2  0  0  0  0
 27 26  1  0  0  0  0
 28 29  1  0  0  0  0
 32 31  1  1  0  0  0
 32 30  1  0  0  0  0
 33 32  1  0  0  0  0
 34 33  1  0  0  0  0
 36 35  1  0  0  0  0
 36 34  1  0  0  0  0
 37 36  1  0  0  0  0
 38 40  1  0  0  0  0
 38 36  1  1  0  0  0
 39 41  2  0  0  0  0
 39 42  1  0  0  0  0
 40 45  1  0  0  0  0
 41 38  1  0  0  0  0
 42 40  2  0  0  0  0
 44 45  2  0  0  0  0
 45 43  1  0  0  0  0
 46 42  1  0  0  0  0
 47 48  1  0  0  0  0
 48 46  1  0  0  0  0
M  END
>  <MODEL>
4

>  <REMARK>
 VINA RESULT:       4.4      3.418      4.712
  Name = 
  11 active torsions:
  status: ('A' for Active; 'I' for Inactive)
    1  A    between atoms: O_3  and  C_9
    2  A    between atoms: O_3  and  C_44
    3  A    between atoms: C_5  and  C_42
    4  A    between atoms: C_8  and  C_36
    5  A    between atoms: C_9  and  C_36
    6  A    between atoms: C_13  and  O_17
    7  A    between atoms: O_23  and  C_38
    8  A    between atoms: C_32  and  C_48
    9  A    between atoms: C_34  and  C_37
   10  A    between atoms: C_34  and  C_46
   11  A    between atoms: C_42  and  C_44
                            x       y       z     vdW  Elec       q    Type
                         _______ _______ _______ _____ _____    ______ ____

>  <TORSDO>
F 11

$$$$
=
 OpenBabel11072412583D

 48 52  0  0  1  0  0  0  0  0999 V2000
  161.7000  213.4910  144.7150 O   0  0  0  0  0  0  0  0  0  0  0  0
  158.3120  214.4520  148.0420 N   0  0  0  0  0  2  0  0  0  0  0  0
  159.2870  210.7630  147.3510 O   0  0  0  0  0  0  0  0  0  0  0  0
  161.9650  209.5000  150.3060 C   0  0  1  0  0  3  0  0  0  0  0  0
  157.7300  213.1660  151.6980 N   0  0  0  0  0  0  0  0  0  0  0  0
  163.0120  214.1470  147.9990 C   0  0  0  0  0  0  0  0  0  0  0  0
  161.4900  209.4990  148.8630 C   0  0  0  0  0  2  0  0  0  0  0  0
  156.8150  213.2130  150.7900 C   0  0  0  0  0  0  0  0  0  0  0  0
  163.0050  213.8910  146.5970 N   0  0  0  0  0  2  0  0  0  0  0  0
  160.6510  211.2590  146.9650 S   0  0  0  0  0  0  0  0  0  0  0  0
  160.9630  210.2410  151.1740 C   0  0  0  0  0  2  0  0  0  0  0  0
  160.6180  213.0440  146.8070 C   0  0  2  0  0  3  0  0  0  0  0  0
  161.7850  213.4960  145.9700 C   0  0  0  0  0  0  0  0  0  0  0  0
  161.8500  210.8150  148.2060 C   0  0  0  0  0  2  0  0  0  0  0  0
  159.9940  212.3950  151.7810 C   0  0  0  0  0  3  0  0  0  0  0  0
  159.3390  213.9300  148.9270 C   0  0  1  0  0  3  0  0  0  0  0  0
  157.0650  214.0170  148.5310 N   0  0  0  0  0  2  0  0  0  0  0  0
  161.0480  210.6290  145.6580 O   0  0  0  0  0  0  0  0  0  0  0  0
  158.7880  212.6880  149.5830 C   0  0  2  0  0  3  0  0  0  0  0  0
  160.6170  213.7110  148.1780 C   0  0  0  0  0  0  0  0  0  0  0  0
  161.1960  211.7470  151.1790 C   0  0  1  0  0  3  0  0  0  0  0  0
  164.0900  214.4060  148.5880 O   0  0  0  0  0  0  0  0  0  0  0  0
  157.2890  212.8750  149.4100 C   0  0  1  0  0  3  0  0  0  0  0  0
  161.7420  214.1680  148.7340 C   0  0  0  0  0  3  0  0  0  0  0  0
  158.9350  212.7800  151.0690 C   0  0  0  0  0  0  0  0  0  0  0  0
  155.0300  213.7520  152.3980 C   0  0  0  0  0  1  0  0  0  0  0  0
  155.4900  213.5510  151.0700 O   0  0  0  0  0  0  0  0  0  0  0  0
  162.3150  212.0400  151.9630 O   0  0  0  0  0  0  0  0  0  0  0  0
  162.7840  210.8690  152.3280 O   0  0  0  0  0  1  0  0  0  0  0  0
  162.0640  208.0710  150.8060 C   0  0  0  0  0  2  0  0  0  0  0  0
  161.4800  208.2650  153.1340 O   0  0  0  0  0  1  0  0  0  0  0  0
  161.0350  207.7840  151.9040 C   0  0  2  0  0  3  0  0  0  0  0  0
  160.6540  206.4250  151.9840 O   0  0  0  0  0  0  0  0  0  0  0  0
  161.5710  205.6480  151.2470 C   0  0  0  0  0  2  0  0  0  0  0  0
  161.9260  203.3860  150.6910 F   0  0  0  0  0  0  0  0  0  0  0  0
  160.9360  204.3490  150.7470 C   0  0  0  0  0  0  0  0  0  0  0  0
  159.9910  203.9250  151.6640 F   0  0  0  0  0  0  0  0  0  0  0  0
  160.2800  204.4770  149.3550 C   0  0  2  0  0  3  0  0  0  0  0  0
  161.2050  205.7620  147.4880 C   0  0  0  0  0  3  0  0  0  0  0  0
  160.8740  203.5890  148.3050 C   0  0  0  0  0  0  0  0  0  0  0  0
  160.4230  205.8920  148.7910 C   0  0  0  0  0  3  0  0  0  0  0  0
  161.3800  204.3010  147.3010 C   0  0  0  0  0  0  0  0  0  0  0  0
  160.0570  201.4840  149.3480 O   0  0  0  0  0  1  0  0  0  0  0  0
  161.3900  201.4000  147.4950 O   0  0  0  0  0  0  0  0  0  0  0  0
  160.7970  202.1100  148.3540 C   0  0  0  0  0  0  0  0  0  0  0  0
  161.9870  203.7340  146.0490 C   0  0  0  0  0  2  0  0  0  0  0  0
  160.0860  203.9320  144.4330 C   0  0  0  0  0  1  0  0  0  0  0  0
  161.4640  204.4450  144.8080 C   0  0  0  0  0  2  0  0  0  0  0  0
  1 13  2  0  0  0  0
  2 17  1  0  0  0  0
  4 30  1  1  0  0  0
  4 11  1  0  0  0  0
  6 22  2  0  0  0  0
  6 24  1  0  0  0  0
  7  4  1  0  0  0  0
  8 27  1  0  0  0  0
  8  5  2  0  0  0  0
  9  6  1  0  0  0  0
 10  3  2  0  0  0  0
 10 14  1  0  0  0  0
 11 21  1  0  0  0  0
 12 13  1  6  0  0  0
 12 10  1  0  0  0  0
 12 20  1  0  0  0  0
 13  9  1  0  0  0  0
 14  7  1  0  0  0  0
 16  2  1  6  0  0  0
 16 19  1  0  0  0  0
 18 10  2  0  0  0  0
 19 25  1  1  0  0  0
 20 24  2  0  0  0  0
 20 16  1  0  0  0  0
 21 15  1  0  0  0  0
 21 28  1  1  0  0  0
 23 17  1  6  0  0  0
 23 19  1  0  0  0  0
 23  8  1  0  0  0  0
 25  5  1  0  0  0  0
 25 15  2  0  0  0  0
 27 26  1  0  0  0  0
 28 29  1  0  0  0  0
 30 32  1  0  0  0  0
 32 33  1  0  0  0  0
 32 31  1  1  0  0  0
 34 33  1  0  0  0  0
 35 36  1  0  0  0  0
 36 34  1  0  0  0  0
 36 37  1  0  0  0  0
 38 36  1  1  0  0  0
 39 41  2  0  0  0  0
 40 45  1  0  0  0  0
 40 38  1  0  0  0  0
 41 38  1  0  0  0  0
 42 39  1  0  0  0  0
 42 40  2  0  0  0  0
 44 45  2  0  0  0  0
 45 43  1  0  0  0  0
 46 42  1  0  0  0  0
 47 48  1  0  0  0  0
 48 46  1  0  0  0  0
M  END
>  <MODEL>
5

>  <REMARK>
 VINA RESULT:       5.3      2.036      2.942
  Name = 
  11 active torsions:
  status: ('A' for Active; 'I' for Inactive)
    1  A    between atoms: O_3  and  C_9
    2  A    between atoms: O_3  and  C_44
    3  A    between atoms: C_5  and  C_42
    4  A    between atoms: C_8  and  C_36
    5  A    between atoms: C_9  and  C_36
    6  A    between atoms: C_13  and  O_17
    7  A    between atoms: O_23  and  C_38
    8  A    between atoms: C_32  and  C_48
    9  A    between atoms: C_34  and  C_37
   10  A    between atoms: C_34  and  C_46
   11  A    between atoms: C_42  and  C_44
                            x       y       z     vdW  Elec       q    Type
                         _______ _______ _______ _____ _____    ______ ____

>  <TORSDO>
F 11

$$$$
=
 OpenBabel11072412583D

 48 52  0  0  1  0  0  0  0  0999 V2000
  161.2130  214.2240  145.3160 O   0  0  0  0  0  0  0  0  0  0  0  0
  158.8620  214.4530  149.5470 N   0  0  0  0  0  2  0  0  0  0  0  0
  159.1110  211.0490  147.7080 O   0  0  0  0  0  0  0  0  0  0  0  0
  162.1920  208.8060  149.4330 C   0  0  1  0  0  3  0  0  0  0  0  0
  158.9660  212.2330  152.7750 N   0  0  0  0  0  0  0  0  0  0  0  0
  163.3310  213.8240  148.1970 C   0  0  0  0  0  0  0  0  0  0  0  0
  161.4000  209.2480  148.2150 C   0  0  0  0  0  2  0  0  0  0  0  0
  157.8820  212.6020  152.1810 C   0  0  0  0  0  0  0  0  0  0  0  0
  162.9620  213.9770  146.8280 N   0  0  0  0  0  2  0  0  0  0  0  0
  160.4050  211.5310  147.1170 S   0  0  0  0  0  0  0  0  0  0  0  0
  161.5350  209.3430  150.6930 C   0  0  0  0  0  2  0  0  0  0  0  0
  160.5920  213.2850  147.4340 C   0  0  2  0  0  3  0  0  0  0  0  0
  161.5860  213.8670  146.4640 C   0  0  0  0  0  0  0  0  0  0  0  0
  161.7830  210.6660  147.8440 C   0  0  0  0  0  2  0  0  0  0  0  0
  161.0530  211.3040  152.0610 C   0  0  0  0  0  3  0  0  0  0  0  0
  159.9810  213.6280  149.9690 C   0  0  1  0  0  3  0  0  0  0  0  0
  157.7140  213.9920  150.2180 N   0  0  0  0  0  2  0  0  0  0  0  0
  160.3930  211.2690  145.6360 O   0  0  0  0  0  0  0  0  0  0  0  0
  159.4240  212.2960  150.4060 C   0  0  2  0  0  3  0  0  0  0  0  0
  161.0050  213.5350  148.8800 C   0  0  0  0  0  0  0  0  0  0  0  0
  161.9770  210.7650  151.0210 C   0  0  1  0  0  3  0  0  0  0  0  0
  164.5420  213.8260  148.5280 O   0  0  0  0  0  0  0  0  0  0  0  0
  157.9690  212.6340  150.6870 C   0  0  1  0  0  3  0  0  0  0  0  0
  162.2830  213.7310  149.2190 C   0  0  0  0  0  3  0  0  0  0  0  0
  159.9240  211.9520  151.7740 C   0  0  0  0  0  0  0  0  0  0  0  0
  156.3020  212.2420  154.0350 C   0  0  0  0  0  1  0  0  0  0  0  0
  156.7210  212.9450  152.8760 O   0  0  0  0  0  0  0  0  0  0  0  0
  163.2770  210.7400  151.5310 O   0  0  0  0  0  0  0  0  0  0  0  0
  163.1300  210.4700  152.8080 O   0  0  0  0  0  1  0  0  0  0  0  0
  162.1980  207.2910  149.5080 C   0  0  0  0  0  2  0  0  0  0  0  0
  162.2210  206.6400  151.8260 O   0  0  0  0  0  1  0  0  0  0  0  0
  161.3980  206.7810  150.7110 C   0  0  2  0  0  3  0  0  0  0  0  0
  160.6700  205.5980  150.4490 O   0  0  0  0  0  0  0  0  0  0  0  0
  161.5690  204.5150  150.3720 C   0  0  0  0  0  2  0  0  0  0  0  0
  160.6190  202.4920  151.1200 F   0  0  0  0  0  0  0  0  0  0  0  0
  160.8600  203.2200  149.9700 C   0  0  0  0  0  0  0  0  0  0  0  0
  159.6350  203.5310  149.4070 F   0  0  0  0  0  0  0  0  0  0  0  0
  161.6720  202.3510  148.9850 C   0  0  2  0  0  3  0  0  0  0  0  0
  160.7680  200.4630  147.7160 C   0  0  0  0  0  3  0  0  0  0  0  0
  161.4690  202.6940  147.5420 C   0  0  0  0  0  0  0  0  0  0  0  0
  161.2910  200.8720  149.0890 C   0  0  0  0  0  3  0  0  0  0  0  0
  160.9690  201.6620  146.8660 C   0  0  0  0  0  0  0  0  0  0  0  0
  160.9350  204.9810  146.7240 O   0  0  0  0  0  1  0  0  0  0  0  0
  163.0850  204.2130  146.6520 O   0  0  0  0  0  0  0  0  0  0  0  0
  161.8800  203.9890  146.9490 C   0  0  0  0  0  0  0  0  0  0  0  0
  160.7100  201.6320  145.3860 C   0  0  0  0  0  2  0  0  0  0  0  0
  159.2240  203.3090  144.2720 C   0  0  0  0  0  1  0  0  0  0  0  0
  159.2710  202.0180  145.0670 C   0  0  0  0  0  2  0  0  0  0  0  0
  1 13  2  0  0  0  0
  2 16  1  0  0  0  0
  2 17  1  0  0  0  0
  4 30  1  1  0  0  0
  4 11  1  0  0  0  0
  6 22  2  0  0  0  0
  6 24  1  0  0  0  0
  7  4  1  0  0  0  0
  8  5  2  0  0  0  0
  8 27  1  0  0  0  0
  9  6  1  0  0  0  0
 10 12  1  0  0  0  0
 10  3  2  0  0  0  0
 10 14  1  0  0  0  0
 11 21  1  0  0  0  0
 12 13  1  6  0  0  0
 12 20  1  0  0  0  0
 13  9  1  0  0  0  0
 14  7  1  0  0  0  0
 16 20  1  6  0  0  0
 16 19  1  0  0  0  0
 18 10  2  0  0  0  0
 19 23  1  0  0  0  0
 19 25  1  1  0  0  0
 20 24  2  0  0  0  0
 21 28  1  1  0  0  0
 21 15  1  0  0  0  0
 23 17  1  1  0  0  0
 23  8  1  0  0  0  0
 25 15  2  0  0  0  0
 25  5  1  0  0  0  0
 27 26  1  0  0  0  0
 28 29  1  0  0  0  0
 30 32  1  0  0  0  0
 32 31  1  1  0  0  0
 33 32  1  0  0  0  0
 34 33  1  0  0  0  0
 36 34  1  0  0  0  0
 36 35  1  0  0  0  0
 37 36  1  0  0  0  0
 38 41  1  0  0  0  0
 38 36  1  1  0  0  0
 39 41  2  0  0  0  0
 40 38  1  0  0  0  0
 42 40  2  0  0  0  0
 42 39  1  0  0  0  0
 43 45  1  0  0  0  0
 44 45  2  0  0  0  0
 45 40  1  0  0  0  0
 46 42  1  0  0  0  0
 47 48  1  0  0  0  0
 48 46  1  0  0  0  0
M  END
>  <MODEL>
6

>  <REMARK>
 VINA RESULT:       5.4      1.570      2.440
  Name = 
  11 active torsions:
  status: ('A' for Active; 'I' for Inactive)
    1  A    between atoms: O_3  and  C_9
    2  A    between atoms: O_3  and  C_44
    3  A    between atoms: C_5  and  C_42
    4  A    between atoms: C_8  and  C_36
    5  A    between atoms: C_9  and  C_36
    6  A    between atoms: C_13  and  O_17
    7  A    between atoms: O_23  and  C_38
    8  A    between atoms: C_32  and  C_48
    9  A    between atoms: C_34  and  C_37
   10  A    between atoms: C_34  and  C_46
   11  A    between atoms: C_42  and  C_44
                            x       y       z     vdW  Elec       q    Type
                         _______ _______ _______ _____ _____    ______ ____

>  <TORSDO>
F 11

$$$$
