=
 OpenBabel11072410193D

 33 36  0  0  1  0  0  0  0  0999 V2000
  161.8630  208.2470  150.8730 C   0  0  0  0  0  0  0  0  0  0  0  0
  161.7410  207.3270  149.7850 N   0  0  0  0  0  2  0  0  0  0  0  0
  162.3380  209.3990  150.6750 O   0  0  0  0  0  0  0  0  0  0  0  0
  160.8780  206.5970  154.0680 N   0  0  0  0  0  0  0  0  0  0  0  0
  161.4290  207.8370  152.2190 C   0  0  0  0  0  0  0  0  0  0  0  0
  160.7550  207.8250  154.3640 N   0  0  0  0  0  2  0  0  0  0  0  0
  161.0840  208.6170  153.2340 C   0  0  0  0  0  0  0  0  0  0  0  0
  161.3100  206.4240  152.6860 C   0  0  0  0  0  3  0  0  0  0  0  0
  161.2740  210.6370  154.6310 C   0  0  0  0  0  0  0  0  0  0  0  0
  160.1600  211.3460  154.9920 C   0  0  0  0  0  0  0  0  0  0  0  0
  160.0460  211.9620  156.2370 C   0  0  0  0  0  3  0  0  0  0  0  0
  162.2760  211.1120  156.7590 C   0  0  0  0  0  3  0  0  0  0  0  0
  159.2500  211.2980  153.8700 C   0  0  0  0  0  0  0  0  0  0  0  0
  162.3610  210.5040  155.4950 C   0  0  0  0  0  3  0  0  0  0  0  0
  159.7580  210.6280  152.8830 N   0  0  0  0  0  0  0  0  0  0  0  0
  161.0870  210.1160  153.2430 C   0  0  2  0  0  3  0  0  0  0  0  0
  161.1240  211.8360  157.1280 C   0  0  0  0  0  3  0  0  0  0  0  0
  158.0910  213.3600  153.1910 C   0  0  0  0  0  1  0  0  0  0  0  0
  157.9270  211.9780  153.7940 C   0  0  0  0  0  2  0  0  0  0  0  0
  162.1190  207.6710  148.4230 C   0  0  0  0  0  2  0  0  0  0  0  0
  161.5180  206.7300  147.4950 N   0  0  0  0  0  2  0  0  0  0  0  0
  160.8290  205.7300  148.2950 C   0  0  0  0  0  2  0  0  0  0  0  0
  161.1030  204.3190  147.7730 C   0  0  2  0  0  3  0  0  0  0  0  0
  160.5500  201.7950  150.1850 C   0  0  0  0  0  2  0  0  0  0  0  0
  160.6550  202.1970  148.8570 O   0  0  0  0  0  0  0  0  0  0  0  0
  161.2990  203.9940  150.1470 O   0  0  0  0  0  0  0  0  0  0  0  0
  161.4490  203.3540  148.9090 C   0  0  0  0  0  3  0  0  0  0  0  0
  160.9760  202.9630  151.0260 C   0  0  0  0  0  2  0  0  0  0  0  0
  162.1520  204.3000  146.6610 C   0  0  0  0  0  2  0  0  0  0  0  0
  161.5680  203.7740  145.3590 C   0  0  1  0  0  3  0  0  0  0  0  0
  160.9050  202.4370  145.6190 C   0  0  0  0  0  1  0  0  0  0  0  0
  160.6220  204.6740  144.8640 O   0  0  0  0  0  0  0  0  0  0  0  0
  161.3600  205.6100  144.1390 C   0  0  0  0  0  1  0  0  0  0  0  0
  1  5  1  0  0  0  0
  2  1  1  0  0  0  0
  3  1  2  0  0  0  0
  4  6  1  0  0  0  0
  5  8  1  0  0  0  0
  5  7  2  0  0  0  0
  7  6  1  0  0  0  0
  8  4  2  0  0  0  0
  9 10  2  0  0  0  0
  9 14  1  0  0  0  0
 10 11  1  0  0  0  0
 11 17  2  0  0  0  0
 12 17  1  0  0  0  0
 13 10  1  0  0  0  0
 14 12  2  0  0  0  0
 15 16  1  0  0  0  0
 15 13  2  0  0  0  0
 16  7  1  1  0  0  0
 16  9  1  0  0  0  0
 18 19  1  0  0  0  0
 19 13  1  0  0  0  0
 20  2  1  0  0  0  0
 21 22  1  0  0  0  0
 21 20  1  0  0  0  0
 23 29  1  6  0  0  0
 23 22  1  0  0  0  0
 23 27  1  0  0  0  0
 24 28  1  0  0  0  0
 25 27  1  0  0  0  0
 25 24  1  0  0  0  0
 26 28  1  0  0  0  0
 27 26  1  0  0  0  0
 30 31  1  1  0  0  0
 30 29  1  0  0  0  0
 32 30  1  0  0  0  0
 33 32  1  0  0  0  0
M  END
>  <MODEL>
1

>  <REMARK>
 VINA RESULT:      -7.7      0.000      0.000
  Name = 
  11 active torsions:
  status: ('A' for Active; 'I' for Inactive)
    1  A    between atoms: C_1  and  C_6
    2  A    between atoms: C_1  and  C_28
    3  A    between atoms: C_1  and  C_32
    4  A    between atoms: C_4  and  C_6
    5  A    between atoms: C_4  and  O_20
    6  A    between atoms: N_5  and  C_21
    7  A    between atoms: N_5  and  C_32
    8  A    between atoms: C_11  and  C_16
    9  A    between atoms: C_14  and  C_19
   10  A    between atoms: N_17  and  C_21
   11  A    between atoms: C_26  and  C_29
                            x       y       z     vdW  Elec       q    Type
                         _______ _______ _______ _____ _____    ______ ____

>  <TORSDO>
F 11

$$$$
=
 OpenBabel11072410193D

 33 36  0  0  1  0  0  0  0  0999 V2000
  161.8880  207.4920  151.6230 C   0  0  0  0  0  0  0  0  0  0  0  0
  161.1830  208.2030  150.6010 N   0  0  0  0  0  2  0  0  0  0  0  0
  162.9970  206.9510  151.3640 O   0  0  0  0  0  0  0  0  0  0  0  0
  160.4630  206.6140  154.9540 N   0  0  0  0  0  0  0  0  0  0  0  0
  161.3070  207.4020  152.9740 C   0  0  0  0  0  0  0  0  0  0  0  0
  160.4860  207.8820  155.0110 N   0  0  0  0  0  2  0  0  0  0  0  0
  160.9980  208.3970  153.7930 C   0  0  0  0  0  0  0  0  0  0  0  0
  160.9670  206.1290  153.6750 C   0  0  0  0  0  3  0  0  0  0  0  0
  161.2700  210.6230  154.8130 C   0  0  0  0  0  0  0  0  0  0  0  0
  160.2240  211.5040  154.8610 C   0  0  0  0  0  0  0  0  0  0  0  0
  160.0290  212.3640  155.9400 C   0  0  0  0  0  3  0  0  0  0  0  0
  162.0350  211.4020  156.9500 C   0  0  0  0  0  3  0  0  0  0  0  0
  159.4740  211.3310  153.6380 C   0  0  0  0  0  0  0  0  0  0  0  0
  162.2050  210.5490  155.8460 C   0  0  0  0  0  3  0  0  0  0  0  0
  160.0140  210.4280  152.8800 N   0  0  0  0  0  0  0  0  0  0  0  0
  161.2020  209.8600  153.5300 C   0  0  2  0  0  3  0  0  0  0  0  0
  160.9520  212.3040  156.9970 C   0  0  0  0  0  3  0  0  0  0  0  0
  158.5160  212.7650  151.8830 C   0  0  0  0  0  1  0  0  0  0  0  0
  158.2770  212.1200  153.2330 C   0  0  0  0  0  2  0  0  0  0  0  0
  161.7080  208.3610  149.2540 C   0  0  0  0  0  2  0  0  0  0  0  0
  161.1820  207.3140  148.3970 N   0  0  0  0  0  2  0  0  0  0  0  0
  162.3240  206.6660  147.7730 C   0  0  0  0  0  2  0  0  0  0  0  0
  162.0910  205.1620  147.6200 C   0  0  2  0  0  3  0  0  0  0  0  0
  161.4300  205.4240  144.1580 C   0  0  0  0  0  2  0  0  0  0  0  0
  162.1070  205.8520  145.2960 O   0  0  0  0  0  0  0  0  0  0  0  0
  160.9590  203.9430  145.8840 O   0  0  0  0  0  0  0  0  0  0  0  0
  162.0830  204.7380  146.1500 C   0  0  0  0  0  3  0  0  0  0  0  0
  160.6870  204.1770  144.5390 C   0  0  0  0  0  2  0  0  0  0  0  0
  160.8440  204.6840  148.3650 C   0  0  0  0  0  2  0  0  0  0  0  0
  161.1690  203.5360  149.3080 C   0  0  1  0  0  3  0  0  0  0  0  0
  161.0100  204.0110  150.7380 C   0  0  0  0  0  1  0  0  0  0  0  0
  160.3000  202.4680  149.0740 O   0  0  0  0  0  0  0  0  0  0  0  0
  161.0780  201.5050  148.4290 C   0  0  0  0  0  1  0  0  0  0  0  0
  1  5  1  0  0  0  0
  2  1  1  0  0  0  0
  3  1  2  0  0  0  0
  4  6  1  0  0  0  0
  5  8  1  0  0  0  0
  5  7  2  0  0  0  0
  7  6  1  0  0  0  0
  8  4  2  0  0  0  0
  9 10  2  0  0  0  0
  9 14  1  0  0  0  0
 10 11  1  0  0  0  0
 11 17  2  0  0  0  0
 12 17  1  0  0  0  0
 13 10  1  0  0  0  0
 14 12  2  0  0  0  0
 15 16  1  0  0  0  0
 15 13  2  0  0  0  0
 16  7  1  1  0  0  0
 16  9  1  0  0  0  0
 18 19  1  0  0  0  0
 19 13  1  0  0  0  0
 20  2  1  0  0  0  0
 21 20  1  0  0  0  0
 22 21  1  0  0  0  0
 23 22  1  6  0  0  0
 23 29  1  0  0  0  0
 24 28  1  0  0  0  0
 24 25  1  0  0  0  0
 25 27  1  0  0  0  0
 26 27  1  0  0  0  0
 27 23  1  0  0  0  0
 28 26  1  0  0  0  0
 29 30  1  0  0  0  0
 30 31  1  1  0  0  0
 32 30  1  0  0  0  0
 33 32  1  0  0  0  0
M  END
>  <MODEL>
2

>  <REMARK>
 VINA RESULT:      -7.7      1.081      2.928
  Name = 
  11 active torsions:
  status: ('A' for Active; 'I' for Inactive)
    1  A    between atoms: C_1  and  C_6
    2  A    between atoms: C_1  and  C_28
    3  A    between atoms: C_1  and  C_32
    4  A    between atoms: C_4  and  C_6
    5  A    between atoms: C_4  and  O_20
    6  A    between atoms: N_5  and  C_21
    7  A    between atoms: N_5  and  C_32
    8  A    between atoms: C_11  and  C_16
    9  A    between atoms: C_14  and  C_19
   10  A    between atoms: N_17  and  C_21
   11  A    between atoms: C_26  and  C_29
                            x       y       z     vdW  Elec       q    Type
                         _______ _______ _______ _____ _____    ______ ____

>  <TORSDO>
F 11

$$$$
=
 OpenBabel11072410193D

 33 36  0  0  1  0  0  0  0  0999 V2000
  161.1820  206.7810  152.8770 C   0  0  0  0  0  0  0  0  0  0  0  0
  161.5180  205.6200  152.1120 N   0  0  0  0  0  2  0  0  0  0  0  0
  160.6130  206.6560  153.9950 O   0  0  0  0  0  0  0  0  0  0  0  0
  162.2620  209.8310  151.0250 N   0  0  0  0  0  0  0  0  0  0  0  0
  161.5070  208.1160  152.3460 C   0  0  0  0  0  0  0  0  0  0  0  0
  161.6820  210.3350  152.0350 N   0  0  0  0  0  2  0  0  0  0  0  0
  161.2100  209.2950  152.8750 C   0  0  0  0  0  0  0  0  0  0  0  0
  162.2430  208.3740  151.0730 C   0  0  0  0  0  3  0  0  0  0  0  0
  159.7180  210.8390  154.0810 C   0  0  0  0  0  0  0  0  0  0  0  0
  160.2050  211.6570  155.0650 C   0  0  0  0  0  0  0  0  0  0  0  0
  159.7160  212.9480  155.2640 C   0  0  0  0  0  3  0  0  0  0  0  0
  158.1830  212.5540  153.4020 C   0  0  0  0  0  3  0  0  0  0  0  0
  161.2270  210.9120  155.7620 C   0  0  0  0  0  0  0  0  0  0  0  0
  158.6950  211.2570  153.2280 C   0  0  0  0  0  3  0  0  0  0  0  0
  161.3600  209.7210  155.2670 N   0  0  0  0  0  0  0  0  0  0  0  0
  160.4380  209.5320  154.1390 C   0  0  2  0  0  3  0  0  0  0  0  0
  158.6910  213.3950  154.4140 C   0  0  0  0  0  3  0  0  0  0  0  0
  163.4060  210.8340  156.9030 C   0  0  0  0  0  1  0  0  0  0  0  0
  161.9960  211.3890  156.9460 C   0  0  0  0  0  2  0  0  0  0  0  0
  161.2570  204.2690  152.5840 C   0  0  0  0  0  2  0  0  0  0  0  0
  161.2930  203.3440  151.4660 N   0  0  0  0  0  2  0  0  0  0  0  0
  160.5410  203.9590  150.3850 C   0  0  0  0  0  2  0  0  0  0  0  0
  161.0470  203.4860  149.0210 C   0  0  2  0  0  3  0  0  0  0  0  0
  162.2890  206.1270  147.0270 C   0  0  0  0  0  2  0  0  0  0  0  0
  162.2520  204.7750  147.3590 O   0  0  0  0  0  0  0  0  0  0  0  0
  160.5970  205.8070  148.5850 O   0  0  0  0  0  0  0  0  0  0  0  0
  161.0060  204.6090  147.9830 C   0  0  0  0  0  3  0  0  0  0  0  0
  161.2070  206.7980  147.8200 C   0  0  0  0  0  2  0  0  0  0  0  0
  160.3310  202.2250  148.5360 C   0  0  0  0  0  2  0  0  0  0  0  0
  161.0460  201.6070  147.3450 C   0  0  1  0  0  3  0  0  0  0  0  0
  161.6190  200.2640  147.7540 C   0  0  0  0  0  1  0  0  0  0  0  0
  160.1470  201.4270  146.2910 O   0  0  0  0  0  0  0  0  0  0  0  0
  160.5990  202.2790  145.2830 C   0  0  0  0  0  1  0  0  0  0  0  0
  1  3  2  0  0  0  0
  2 20  1  0  0  0  0
  2  1  1  0  0  0  0
  4  8  2  0  0  0  0
  4  6  1  0  0  0  0
  5  7  2  0  0  0  0
  5  1  1  0  0  0  0
  6  7  1  0  0  0  0
  8  5  1  0  0  0  0
  9 16  1  0  0  0  0
  9 10  1  0  0  0  0
 10 11  2  0  0  0  0
 10 13  1  0  0  0  0
 12 17  2  0  0  0  0
 13 19  1  0  0  0  0
 14 12  1  0  0  0  0
 14  9  2  0  0  0  0
 15 13  2  0  0  0  0
 16  7  1  6  0  0  0
 16 15  1  0  0  0  0
 17 11  1  0  0  0  0
 18 19  1  0  0  0  0
 21 20  1  0  0  0  0
 22 21  1  0  0  0  0
 23 29  1  6  0  0  0
 23 22  1  0  0  0  0
 24 25  1  0  0  0  0
 24 28  1  0  0  0  0
 25 27  1  0  0  0  0
 27 26  1  0  0  0  0
 27 23  1  0  0  0  0
 28 26  1  0  0  0  0
 30 31  1  1  0  0  0
 30 29  1  0  0  0  0
 32 30  1  0  0  0  0
 33 32  1  0  0  0  0
M  END
>  <MODEL>
3

>  <REMARK>
 VINA RESULT:      -7.3      1.927      3.658
  Name = 
  11 active torsions:
  status: ('A' for Active; 'I' for Inactive)
    1  A    between atoms: C_1  and  C_6
    2  A    between atoms: C_1  and  C_28
    3  A    between atoms: C_1  and  C_32
    4  A    between atoms: C_4  and  C_6
    5  A    between atoms: C_4  and  O_20
    6  A    between atoms: N_5  and  C_21
    7  A    between atoms: N_5  and  C_32
    8  A    between atoms: C_11  and  C_16
    9  A    between atoms: C_14  and  C_19
   10  A    between atoms: N_17  and  C_21
   11  A    between atoms: C_26  and  C_29
                            x       y       z     vdW  Elec       q    Type
                         _______ _______ _______ _____ _____    ______ ____

>  <TORSDO>
F 11

$$$$
=
 OpenBabel11072410193D

 33 36  0  0  1  0  0  0  0  0999 V2000
  160.9250  208.4240  154.5500 C   0  0  0  0  0  0  0  0  0  0  0  0
  161.3300  208.4970  153.1800 N   0  0  0  0  0  2  0  0  0  0  0  0
  160.3950  207.3710  154.9960 O   0  0  0  0  0  0  0  0  0  0  0  0
  162.0390  211.0900  156.9060 N   0  0  0  0  0  0  0  0  0  0  0  0
  161.1360  209.5880  155.4290 C   0  0  0  0  0  0  0  0  0  0  0  0
  160.9180  211.5410  156.5190 N   0  0  0  0  0  2  0  0  0  0  0  0
  160.3320  210.6270  155.6080 C   0  0  0  0  0  0  0  0  0  0  0  0
  162.3380  209.8040  156.2880 C   0  0  0  0  0  3  0  0  0  0  0  0
  159.1790  211.8370  153.7990 C   0  0  0  0  0  0  0  0  0  0  0  0
  158.4290  212.9500  154.0680 C   0  0  0  0  0  0  0  0  0  0  0  0
  158.3710  214.0330  153.1930 C   0  0  0  0  0  3  0  0  0  0  0  0
  159.8840  212.8050  151.7190 C   0  0  0  0  0  3  0  0  0  0  0  0
  157.7850  212.7230  155.3420 C   0  0  0  0  0  0  0  0  0  0  0  0
  159.9210  211.7290  152.6210 C   0  0  0  0  0  3  0  0  0  0  0  0
  158.0940  211.5590  155.8230 N   0  0  0  0  0  0  0  0  0  0  0  0
  159.0210  210.8630  154.9200 C   0  0  2  0  0  3  0  0  0  0  0  0
  159.1140  213.9520  152.0040 C   0  0  0  0  0  3  0  0  0  0  0  0
  155.4660  213.5450  155.3530 C   0  0  0  0  0  1  0  0  0  0  0  0
  156.8280  213.6490  156.0090 C   0  0  0  0  0  2  0  0  0  0  0  0
  161.1830  207.3790  152.2600 C   0  0  0  0  0  2  0  0  0  0  0  0
  162.0680  207.5600  151.1240 N   0  0  0  0  0  2  0  0  0  0  0  0
  161.2340  207.5460  149.9330 C   0  0  0  0  0  2  0  0  0  0  0  0
  161.4880  206.2930  149.0940 C   0  0  2  0  0  3  0  0  0  0  0  0
  160.6850  206.0380  145.6610 C   0  0  0  0  0  2  0  0  0  0  0  0
  160.3330  206.3790  146.9640 O   0  0  0  0  0  0  0  0  0  0  0  0
  162.5800  205.8700  146.9940 O   0  0  0  0  0  0  0  0  0  0  0  0
  161.5620  206.6180  147.6010 C   0  0  0  0  0  3  0  0  0  0  0  0
  162.1500  205.7130  145.6790 C   0  0  0  0  0  2  0  0  0  0  0  0
  160.4890  205.1760  149.3920 C   0  0  0  0  0  2  0  0  0  0  0  0
  161.1890  203.9340  149.9230 C   0  0  1  0  0  3  0  0  0  0  0  0
  160.9840  203.8540  151.4230 C   0  0  0  0  0  1  0  0  0  0  0  0
  160.6560  202.7930  149.3190 O   0  0  0  0  0  0  0  0  0  0  0  0
  161.2090  202.7720  148.0380 C   0  0  0  0  0  1  0  0  0  0  0  0
  1  3  2  0  0  0  0
  1  5  1  0  0  0  0
  2  1  1  0  0  0  0
  5  7  2  0  0  0  0
  5  8  1  0  0  0  0
  6  4  1  0  0  0  0
  7  6  1  0  0  0  0
  8  4  2  0  0  0  0
  9 10  1  0  0  0  0
  9 16  1  0  0  0  0
 10 13  1  0  0  0  0
 11 10  2  0  0  0  0
 12 17  2  0  0  0  0
 12 14  1  0  0  0  0
 13 15  2  0  0  0  0
 13 19  1  0  0  0  0
 14  9  2  0  0  0  0
 16  7  1  1  0  0  0
 16 15  1  0  0  0  0
 17 11  1  0  0  0  0
 18 19  1  0  0  0  0
 20  2  1  0  0  0  0
 21 20  1  0  0  0  0
 22 21  1  0  0  0  0
 23 29  1  6  0  0  0
 23 22  1  0  0  0  0
 24 28  1  0  0  0  0
 24 25  1  0  0  0  0
 25 27  1  0  0  0  0
 26 27  1  0  0  0  0
 27 23  1  0  0  0  0
 28 26  1  0  0  0  0
 29 30  1  0  0  0  0
 30 31  1  1  0  0  0
 32 30  1  0  0  0  0
 33 32  1  0  0  0  0
M  END
>  <MODEL>
4

>  <REMARK>
 VINA RESULT:      -7.2      2.157      4.238
  Name = 
  11 active torsions:
  status: ('A' for Active; 'I' for Inactive)
    1  A    between atoms: C_1  and  C_6
    2  A    between atoms: C_1  and  C_28
    3  A    between atoms: C_1  and  C_32
    4  A    between atoms: C_4  and  C_6
    5  A    between atoms: C_4  and  O_20
    6  A    between atoms: N_5  and  C_21
    7  A    between atoms: N_5  and  C_32
    8  A    between atoms: C_11  and  C_16
    9  A    between atoms: C_14  and  C_19
   10  A    between atoms: N_17  and  C_21
   11  A    between atoms: C_26  and  C_29
                            x       y       z     vdW  Elec       q    Type
                         _______ _______ _______ _____ _____    ______ ____

>  <TORSDO>
F 11

$$$$
=
 OpenBabel11072410193D

 33 36  0  0  1  0  0  0  0  0999 V2000
  160.8880  207.8380  155.3870 C   0  0  0  0  0  0  0  0  0  0  0  0
  161.4160  207.5940  154.0810 N   0  0  0  0  0  2  0  0  0  0  0  0
  160.1970  206.9540  155.9640 O   0  0  0  0  0  0  0  0  0  0  0  0
  162.1310  210.8120  157.2610 N   0  0  0  0  0  0  0  0  0  0  0  0
  161.1590  209.1260  156.0480 C   0  0  0  0  0  0  0  0  0  0  0  0
  161.0530  211.2560  156.7600 N   0  0  0  0  0  0  0  0  0  0  0  0
  160.4250  210.2300  156.0090 C   0  0  0  0  0  0  0  0  0  0  0  0
  162.3530  209.4180  156.8950 C   0  0  0  0  0  2  0  0  0  0  0  0
  159.3890  211.2120  154.0020 C   0  0  0  0  0  0  0  0  0  0  0  0
  158.6860  212.3840  154.0790 C   0  0  0  0  0  0  0  0  0  0  0  0
  158.7080  213.3290  153.0550 C   0  0  0  0  0  3  0  0  0  0  0  0
  160.2050  211.8340  151.8320 C   0  0  0  0  0  3  0  0  0  0  0  0
  157.9930  212.3740  155.3470 C   0  0  0  0  0  0  0  0  0  0  0  0
  160.1610  210.9000  152.8820 C   0  0  0  0  0  3  0  0  0  0  0  0
  158.2300  211.2810  156.0030 N   0  0  0  0  0  0  0  0  0  0  0  0
  159.1490  210.4200  155.2460 C   0  0  2  0  0  3  0  0  0  0  0  0
  159.4830  213.0430  151.9200 C   0  0  0  0  0  3  0  0  0  0  0  0
  155.6990  213.2530  155.1960 C   0  0  0  0  0  1  0  0  0  0  0  0
  157.0620  213.4290  155.8370 C   0  0  0  0  0  2  0  0  0  0  0  0
  161.2170  206.3360  153.3790 C   0  0  0  0  0  2  0  0  0  0  0  0
  160.8370  206.5980  152.0020 N   0  0  0  0  0  2  0  0  0  0  0  0
  161.5950  205.6770  151.1720 C   0  0  0  0  0  2  0  0  0  0  0  0
  160.6970  204.9970  150.1380 C   0  0  2  0  0  3  0  0  0  0  0  0
  160.8120  201.9170  148.4070 C   0  0  0  0  0  2  0  0  0  0  0  0
  160.9700  203.3000  148.4280 O   0  0  0  0  0  0  0  0  0  0  0  0
  160.6000  202.6400  150.6040 O   0  0  0  0  0  0  0  0  0  0  0  0
  161.2050  203.5990  149.7790 C   0  0  0  0  0  3  0  0  0  0  0  0
  160.5780  201.4860  149.8250 C   0  0  0  0  0  2  0  0  0  0  0  0
  160.4710  205.8630  148.8990 C   0  0  0  0  0  2  0  0  0  0  0  0
  161.6720  206.7560  148.6220 C   0  0  1  0  0  3  0  0  0  0  0  0
  162.3780  206.2610  147.3750 C   0  0  0  0  0  1  0  0  0  0  0  0
  161.2500  208.0730  148.4250 O   0  0  0  0  0  0  0  0  0  0  0  0
  162.0380  208.8350  149.2880 C   0  0  0  0  0  1  0  0  0  0  0  0
  1  3  2  0  0  0  0
  1  5  1  0  0  0  0
  2  1  1  0  0  0  0
  5  8  1  0  0  0  0
  6  4  2  0  0  0  0
  7  5  2  0  0  0  0
  7  6  1  0  0  0  0
  8  4  1  0  0  0  0
  9 10  1  0  0  0  0
  9 16  1  0  0  0  0
 10 13  1  0  0  0  0
 11 10  2  0  0  0  0
 12 17  2  0  0  0  0
 12 14  1  0  0  0  0
 13 19  1  0  0  0  0
 13 15  2  0  0  0  0
 14  9  2  0  0  0  0
 16 15  1  0  0  0  0
 16  7  1  1  0  0  0
 17 11  1  0  0  0  0
 18 19  1  0  0  0  0
 20  2  1  0  0  0  0
 21 20  1  0  0  0  0
 22 21  1  0  0  0  0
 23 29  1  6  0  0  0
 23 22  1  0  0  0  0
 24 25  1  0  0  0  0
 24 28  1  0  0  0  0
 25 27  1  0  0  0  0
 27 23  1  0  0  0  0
 27 26  1  0  0  0  0
 28 26  1  0  0  0  0
 30 31  1  6  0  0  0
 30 29  1  0  0  0  0
 32 30  1  0  0  0  0
 32 33  1  0  0  0  0
M  END
>  <MODEL>
5

>  <REMARK>
 VINA RESULT:      -7.1      2.259      3.907
  Name = 
  11 active torsions:
  status: ('A' for Active; 'I' for Inactive)
    1  A    between atoms: C_1  and  C_6
    2  A    between atoms: C_1  and  C_28
    3  A    between atoms: C_1  and  C_32
    4  A    between atoms: C_4  and  C_6
    5  A    between atoms: C_4  and  O_20
    6  A    between atoms: N_5  and  C_21
    7  A    between atoms: N_5  and  C_32
    8  A    between atoms: C_11  and  C_16
    9  A    between atoms: C_14  and  C_19
   10  A    between atoms: N_17  and  C_21
   11  A    between atoms: C_26  and  C_29
                            x       y       z     vdW  Elec       q    Type
                         _______ _______ _______ _____ _____    ______ ____

>  <TORSDO>
F 11

$$$$
=
 OpenBabel11072410193D

 33 36  0  0  1  0  0  0  0  0999 V2000
  161.7880  205.8680  151.7510 C   0  0  0  0  0  0  0  0  0  0  0  0
  160.8320  206.6730  152.4460 N   0  0  0  0  0  2  0  0  0  0  0  0
  162.9610  206.2960  151.5710 O   0  0  0  0  0  0  0  0  0  0  0  0
  160.9680  202.2940  151.0780 N   0  0  0  0  0  0  0  0  0  0  0  0
  161.3890  204.5410  151.2510 C   0  0  0  0  0  0  0  0  0  0  0  0
  160.5900  202.8510  150.0030 N   0  0  0  0  0  0  0  0  0  0  0  0
  160.8460  204.2440  150.0800 C   0  0  0  0  0  0  0  0  0  0  0  0
  161.5270  203.2640  152.0120 C   0  0  0  0  0  2  0  0  0  0  0  0
  161.0930  204.8080  147.6950 C   0  0  0  0  0  0  0  0  0  0  0  0
  161.9700  205.7780  147.2920 C   0  0  0  0  0  0  0  0  0  0  0  0
  162.6880  205.6790  146.1010 C   0  0  0  0  0  3  0  0  0  0  0  0
  161.5760  203.5380  145.7160 C   0  0  0  0  0  3  0  0  0  0  0  0
  161.9480  206.8100  148.3030 C   0  0  0  0  0  0  0  0  0  0  0  0
  160.8660  203.6680  146.9220 C   0  0  0  0  0  3  0  0  0  0  0  0
  161.1150  206.5180  149.2530 N   0  0  0  0  0  0  0  0  0  0  0  0
  160.4840  205.2160  148.9960 C   0  0  2  0  0  3  0  0  0  0  0  0
  162.4830  204.5380  145.3090 C   0  0  0  0  0  3  0  0  0  0  0  0
  161.9560  209.1670  149.0090 C   0  0  0  0  0  1  0  0  0  0  0  0
  162.7110  208.0880  148.2580 C   0  0  0  0  0  2  0  0  0  0  0  0
  161.1600  207.9800  152.9950 C   0  0  0  0  0  2  0  0  0  0  0  0
  160.4530  209.0120  152.2600 N   0  0  0  0  0  2  0  0  0  0  0  0
  161.2360  210.2300  152.3830 C   0  0  0  0  0  2  0  0  0  0  0  0
  160.4800  211.2960  153.1770 C   0  0  2  0  0  3  0  0  0  0  0  0
  161.9440  210.0310  156.1350 C   0  0  0  0  0  2  0  0  0  0  0  0
  162.0560  210.7040  154.9220 O   0  0  0  0  0  0  0  0  0  0  0  0
  159.8070  210.3640  155.2890 O   0  0  0  0  0  0  0  0  0  0  0  0
  160.7610  211.1890  154.6770 C   0  0  0  0  0  3  0  0  0  0  0  0
  160.4790  209.8150  156.3780 C   0  0  0  0  0  2  0  0  0  0  0  0
  158.9820  211.3020  152.8710 C   0  0  0  0  0  2  0  0  0  0  0  0
  158.5870  212.5320  152.0690 C   0  0  1  0  0  3  0  0  0  0  0  0
  157.5390  213.3100  152.8410 C   0  0  0  0  0  1  0  0  0  0  0  0
  159.7050  213.3430  151.8580 O   0  0  0  0  0  0  0  0  0  0  0  0
  159.8190  213.4440  150.4710 C   0  0  0  0  0  1  0  0  0  0  0  0
  1  2  1  0  0  0  0
  2 20  1  0  0  0  0
  3  1  2  0  0  0  0
  4  8  1  0  0  0  0
  5  1  1  0  0  0  0
  5  8  1  0  0  0  0
  6  7  1  0  0  0  0
  6  4  2  0  0  0  0
  7  5  2  0  0  0  0
  9 16  1  0  0  0  0
 10  9  1  0  0  0  0
 10 13  1  0  0  0  0
 11 10  2  0  0  0  0
 12 14  1  0  0  0  0
 13 15  2  0  0  0  0
 14  9  2  0  0  0  0
 16 15  1  0  0  0  0
 16  7  1  1  0  0  0
 17 12  2  0  0  0  0
 17 11  1  0  0  0  0
 19 13  1  0  0  0  0
 19 18  1  0  0  0  0
 21 22  1  0  0  0  0
 21 20  1  0  0  0  0
 23 22  1  6  0  0  0
 23 27  1  0  0  0  0
 24 28  1  0  0  0  0
 25 24  1  0  0  0  0
 26 28  1  0  0  0  0
 27 25  1  0  0  0  0
 27 26  1  0  0  0  0
 29 23  1  0  0  0  0
 30 31  1  1  0  0  0
 30 29  1  0  0  0  0
 32 30  1  0  0  0  0
 33 32  1  0  0  0  0
M  END
>  <MODEL>
6

>  <REMARK>
 VINA RESULT:      -6.9      2.350      8.675
  Name = 
  11 active torsions:
  status: ('A' for Active; 'I' for Inactive)
    1  A    between atoms: C_1  and  C_6
    2  A    between atoms: C_1  and  C_28
    3  A    between atoms: C_1  and  C_32
    4  A    between atoms: C_4  and  C_6
    5  A    between atoms: C_4  and  O_20
    6  A    between atoms: N_5  and  C_21
    7  A    between atoms: N_5  and  C_32
    8  A    between atoms: C_11  and  C_16
    9  A    between atoms: C_14  and  C_19
   10  A    between atoms: N_17  and  C_21
   11  A    between atoms: C_26  and  C_29
                            x       y       z     vdW  Elec       q    Type
                         _______ _______ _______ _____ _____    ______ ____

>  <TORSDO>
F 11

$$$$
=
 OpenBabel11072410193D

 33 36  0  0  1  0  0  0  0  0999 V2000
  161.6940  206.5840  152.3930 C   0  0  0  0  0  0  0  0  0  0  0  0
  160.9280  205.6650  151.6080 N   0  0  0  0  0  2  0  0  0  0  0  0
  162.3300  206.1740  153.4020 O   0  0  0  0  0  0  0  0  0  0  0  0
  162.0790  209.9680  150.8760 N   0  0  0  0  0  0  0  0  0  0  0  0
  161.7320  208.0060  152.0110 C   0  0  0  0  0  0  0  0  0  0  0  0
  161.4630  210.2370  151.9530 N   0  0  0  0  0  2  0  0  0  0  0  0
  161.2410  209.0400  152.6800 C   0  0  0  0  0  0  0  0  0  0  0  0
  162.3410  208.5380  150.7570 C   0  0  0  0  0  3  0  0  0  0  0  0
  159.9070  210.3150  154.3110 C   0  0  0  0  0  0  0  0  0  0  0  0
  160.4730  210.7810  155.4670 C   0  0  0  0  0  0  0  0  0  0  0  0
  160.1080  212.0030  156.0290 C   0  0  0  0  0  3  0  0  0  0  0  0
  158.5360  212.2800  154.1800 C   0  0  0  0  0  3  0  0  0  0  0  0
  161.4250  209.7840  155.8990 C   0  0  0  0  0  0  0  0  0  0  0  0
  158.9230  211.0420  153.6390 C   0  0  0  0  0  3  0  0  0  0  0  0
  161.4420  208.7700  155.0910 N   0  0  0  0  0  0  0  0  0  0  0  0
  160.5020  208.9840  153.9830 C   0  0  2  0  0  3  0  0  0  0  0  0
  159.1260  212.7580  155.3680 C   0  0  0  0  0  3  0  0  0  0  0  0
  163.4580  210.7190  156.9230 C   0  0  0  0  0  1  0  0  0  0  0  0
  162.2410  209.8430  157.1440 C   0  0  0  0  0  2  0  0  0  0  0  0
  160.8690  204.2430  151.9050 C   0  0  0  0  0  2  0  0  0  0  0  0
  161.6110  203.5020  150.9010 N   0  0  0  0  0  2  0  0  0  0  0  0
  160.6770  202.5750  150.2830 C   0  0  0  0  0  2  0  0  0  0  0  0
  160.5670  202.8230  148.7780 C   0  0  2  0  0  3  0  0  0  0  0  0
  161.5910  199.8930  147.0880 C   0  0  0  0  0  2  0  0  0  0  0  0
  161.4680  200.6330  148.2600 O   0  0  0  0  0  0  0  0  0  0  0  0
  160.3190  201.7810  146.6260 O   0  0  0  0  0  0  0  0  0  0  0  0
  160.4080  201.5160  148.0000 C   0  0  0  0  0  3  0  0  0  0  0  0
  160.8380  200.6370  146.0240 C   0  0  0  0  0  2  0  0  0  0  0  0
  161.7140  203.6780  148.2400 C   0  0  0  0  0  2  0  0  0  0  0  0
  161.1920  204.8870  147.4770 C   0  0  1  0  0  3  0  0  0  0  0  0
  161.8410  206.1390  148.0330 C   0  0  0  0  0  1  0  0  0  0  0  0
  161.5040  204.7640  146.1210 O   0  0  0  0  0  0  0  0  0  0  0  0
  162.8980  204.7100  146.0760 C   0  0  0  0  0  1  0  0  0  0  0  0
  1  3  2  0  0  0  0
  2 20  1  0  0  0  0
  2  1  1  0  0  0  0
  4  6  1  0  0  0  0
  5  1  1  0  0  0  0
  5  7  2  0  0  0  0
  6  7  1  0  0  0  0
  8  4  2  0  0  0  0
  8  5  1  0  0  0  0
  9 10  1  0  0  0  0
 10 13  1  0  0  0  0
 10 11  2  0  0  0  0
 12 17  2  0  0  0  0
 13 19  1  0  0  0  0
 14 12  1  0  0  0  0
 14  9  2  0  0  0  0
 15 13  2  0  0  0  0
 16  7  1  6  0  0  0
 16  9  1  0  0  0  0
 16 15  1  0  0  0  0
 17 11  1  0  0  0  0
 18 19  1  0  0  0  0
 21 20  1  0  0  0  0
 22 21  1  0  0  0  0
 23 29  1  6  0  0  0
 23 22  1  0  0  0  0
 24 25  1  0  0  0  0
 26 27  1  0  0  0  0
 27 25  1  0  0  0  0
 27 23  1  0  0  0  0
 28 26  1  0  0  0  0
 28 24  1  0  0  0  0
 30 31  1  1  0  0  0
 30 29  1  0  0  0  0
 32 30  1  0  0  0  0
 33 32  1  0  0  0  0
M  END
>  <MODEL>
7

>  <REMARK>
 VINA RESULT:      -6.8      1.825      3.511
  Name = 
  11 active torsions:
  status: ('A' for Active; 'I' for Inactive)
    1  A    between atoms: C_1  and  C_6
    2  A    between atoms: C_1  and  C_28
    3  A    between atoms: C_1  and  C_32
    4  A    between atoms: C_4  and  C_6
    5  A    between atoms: C_4  and  O_20
    6  A    between atoms: N_5  and  C_21
    7  A    between atoms: N_5  and  C_32
    8  A    between atoms: C_11  and  C_16
    9  A    between atoms: C_14  and  C_19
   10  A    between atoms: N_17  and  C_21
   11  A    between atoms: C_26  and  C_29
                            x       y       z     vdW  Elec       q    Type
                         _______ _______ _______ _____ _____    ______ ____

>  <TORSDO>
F 11

$$$$
=
 OpenBabel11072410193D

 33 36  0  0  1  0  0  0  0  0999 V2000
  161.7960  209.0830  152.1510 C   0  0  0  0  0  0  0  0  0  0  0  0
  161.3830  208.5020  150.9110 N   0  0  0  0  0  2  0  0  0  0  0  0
  162.7080  209.9540  152.1670 O   0  0  0  0  0  0  0  0  0  0  0  0
  160.3440  207.3980  155.1440 N   0  0  0  0  0  0  0  0  0  0  0  0
  161.1450  208.6560  153.4020 C   0  0  0  0  0  0  0  0  0  0  0  0
  160.0810  208.6170  155.3820 N   0  0  0  0  0  2  0  0  0  0  0  0
  160.5600  209.4190  154.3150 C   0  0  0  0  0  0  0  0  0  0  0  0
  161.0410  207.2430  153.8730 C   0  0  0  0  0  3  0  0  0  0  0  0
  159.3180  211.3810  155.1370 C   0  0  0  0  0  0  0  0  0  0  0  0
  158.4000  212.0120  154.3410 C   0  0  0  0  0  0  0  0  0  0  0  0
  157.2290  212.5640  154.8570 C   0  0  0  0  0  3  0  0  0  0  0  0
  157.9560  211.8110  157.0650 C   0  0  0  0  0  3  0  0  0  0  0  0
  158.9130  211.9660  152.9910 C   0  0  0  0  0  0  0  0  0  0  0  0
  159.1280  211.2660  156.5140 C   0  0  0  0  0  3  0  0  0  0  0  0
  160.0640  211.3700  152.9470 N   0  0  0  0  0  0  0  0  0  0  0  0
  160.4550  210.9140  154.2870 C   0  0  2  0  0  3  0  0  0  0  0  0
  157.0100  212.4550  156.2400 C   0  0  0  0  0  3  0  0  0  0  0  0
  159.1550  213.6760  151.2370 C   0  0  0  0  0  1  0  0  0  0  0  0
  158.2700  212.5780  151.7950 C   0  0  0  0  0  2  0  0  0  0  0  0
  161.9560  208.8960  149.6330 C   0  0  0  0  0  2  0  0  0  0  0  0
  162.5570  207.7420  148.9900 N   0  0  0  0  0  2  0  0  0  0  0  0
  161.5500  207.1800  148.1050 C   0  0  0  0  0  2  0  0  0  0  0  0
  161.4580  205.6620  148.2660 C   0  0  2  0  0  3  0  0  0  0  0  0
  161.5810  203.8040  145.2610 C   0  0  0  0  0  2  0  0  0  0  0  0
  161.6930  203.8730  146.6460 O   0  0  0  0  0  0  0  0  0  0  0  0
  160.8860  205.9130  145.9440 O   0  0  0  0  0  0  0  0  0  0  0  0
  160.9210  204.9910  146.9990 C   0  0  0  0  0  3  0  0  0  0  0  0
  161.0490  205.1310  144.8030 C   0  0  0  0  0  2  0  0  0  0  0  0
  160.6730  205.2520  149.5120 C   0  0  0  0  0  2  0  0  0  0  0  0
  161.1770  203.9310  150.0730 C   0  0  1  0  0  3  0  0  0  0  0  0
  161.5490  204.1230  151.5300 C   0  0  0  0  0  1  0  0  0  0  0  0
  160.1780  202.9590  149.9730 O   0  0  0  0  0  0  0  0  0  0  0  0
  160.8340  201.8130  149.5250 C   0  0  0  0  0  1  0  0  0  0  0  0
  1  3  2  0  0  0  0
  1  5  1  0  0  0  0
  2  1  1  0  0  0  0
  4  6  1  0  0  0  0
  5  8  1  0  0  0  0
  5  7  2  0  0  0  0
  7  6  1  0  0  0  0
  8  4  2  0  0  0  0
  9 14  1  0  0  0  0
 10 11  1  0  0  0  0
 10  9  2  0  0  0  0
 11 17  2  0  0  0  0
 13 10  1  0  0  0  0
 14 12  2  0  0  0  0
 15 13  2  0  0  0  0
 15 16  1  0  0  0  0
 16  7  1  6  0  0  0
 16  9  1  0  0  0  0
 17 12  1  0  0  0  0
 18 19  1  0  0  0  0
 19 13  1  0  0  0  0
 20  2  1  0  0  0  0
 21 20  1  0  0  0  0
 22 21  1  0  0  0  0
 23 22  1  6  0  0  0
 23 29  1  0  0  0  0
 24 25  1  0  0  0  0
 25 27  1  0  0  0  0
 26 27  1  0  0  0  0
 27 23  1  0  0  0  0
 28 24  1  0  0  0  0
 28 26  1  0  0  0  0
 29 30  1  0  0  0  0
 30 31  1  1  0  0  0
 32 30  1  0  0  0  0
 33 32  1  0  0  0  0
M  END
>  <MODEL>
8

>  <REMARK>
 VINA RESULT:      -6.7      1.410      3.334
  Name = 
  11 active torsions:
  status: ('A' for Active; 'I' for Inactive)
    1  A    between atoms: C_1  and  C_6
    2  A    between atoms: C_1  and  C_28
    3  A    between atoms: C_1  and  C_32
    4  A    between atoms: C_4  and  C_6
    5  A    between atoms: C_4  and  O_20
    6  A    between atoms: N_5  and  C_21
    7  A    between atoms: N_5  and  C_32
    8  A    between atoms: C_11  and  C_16
    9  A    between atoms: C_14  and  C_19
   10  A    between atoms: N_17  and  C_21
   11  A    between atoms: C_26  and  C_29
                            x       y       z     vdW  Elec       q    Type
                         _______ _______ _______ _____ _____    ______ ____

>  <TORSDO>
F 11

$$$$
=
 OpenBabel11072410193D

 33 36  0  0  1  0  0  0  0  0999 V2000
  162.3280  207.6340  149.4680 C   0  0  0  0  0  0  0  0  0  0  0  0
  161.7570  208.9460  149.4670 N   0  0  0  0  0  2  0  0  0  0  0  0
  163.0330  207.2510  148.4950 O   0  0  0  0  0  0  0  0  0  0  0  0
  162.1060  205.7890  152.7000 N   0  0  0  0  0  0  0  0  0  0  0  0
  162.0870  206.7410  150.6150 C   0  0  0  0  0  0  0  0  0  0  0  0
  161.3310  205.1080  151.9620 N   0  0  0  0  0  0  0  0  0  0  0  0
  161.3050  205.6720  150.6610 C   0  0  0  0  0  0  0  0  0  0  0  0
  162.6950  206.9040  151.9680 C   0  0  0  0  0  2  0  0  0  0  0  0
  160.6640  203.6720  149.3730 C   0  0  0  0  0  0  0  0  0  0  0  0
  161.1940  203.4380  148.1330 C   0  0  0  0  0  0  0  0  0  0  0  0
  161.4880  202.1510  147.6850 C   0  0  0  0  0  3  0  0  0  0  0  0
  160.6680  201.3160  149.8300 C   0  0  0  0  0  3  0  0  0  0  0  0
  161.3400  204.7230  147.4900 C   0  0  0  0  0  0  0  0  0  0  0  0
  160.3810  202.6250  150.2520 C   0  0  0  0  0  3  0  0  0  0  0  0
  160.9220  205.6810  148.2570 N   0  0  0  0  0  0  0  0  0  0  0  0
  160.4590  205.1420  149.5420 C   0  0  2  0  0  3  0  0  0  0  0  0
  161.2200  201.0800  148.5530 C   0  0  0  0  0  3  0  0  0  0  0  0
  163.3260  204.7020  146.0370 C   0  0  0  0  0  1  0  0  0  0  0  0
  161.8320  204.9500  146.1020 C   0  0  0  0  0  2  0  0  0  0  0  0
  161.9780  209.8930  148.3850 C   0  0  0  0  0  2  0  0  0  0  0  0
  162.0460  211.2410  148.9220 N   0  0  0  0  0  2  0  0  0  0  0  0
  161.2460  212.0840  148.0480 C   0  0  0  0  0  2  0  0  0  0  0  0
  161.4890  213.5660  148.3360 C   0  0  2  0  0  3  0  0  0  0  0  0
  158.7600  214.1290  150.5100 C   0  0  0  0  0  2  0  0  0  0  0  0
  160.1300  214.1220  150.2640 O   0  0  0  0  0  0  0  0  0  0  0  0
  159.0910  213.7220  148.2470 O   0  0  0  0  0  0  0  0  0  0  0  0
  160.2310  214.2520  148.8700 C   0  0  0  0  0  3  0  0  0  0  0  0
  158.0830  213.8750  149.1950 C   0  0  0  0  0  2  0  0  0  0  0  0
  162.0830  214.3050  147.1360 C   0  0  0  0  0  2  0  0  0  0  0  0
  161.8370  213.5460  145.8410 C   0  0  1  0  0  3  0  0  0  0  0  0
  160.7130  214.2200  145.0800 C   0  0  0  0  0  1  0  0  0  0  0  0
  162.9950  213.5500  145.0600 O   0  0  0  0  0  0  0  0  0  0  0  0
  162.6180  212.9550  143.8560 C   0  0  0  0  0  1  0  0  0  0  0  0
  1  5  1  0  0  0  0
  2  1  1  0  0  0  0
  3  1  2  0  0  0  0
  5  7  2  0  0  0  0
  5  8  1  0  0  0  0
  6  4  2  0  0  0  0
  7  6  1  0  0  0  0
  8  4  1  0  0  0  0
  9 16  1  0  0  0  0
  9 14  1  0  0  0  0
 10  9  2  0  0  0  0
 11 10  1  0  0  0  0
 11 17  2  0  0  0  0
 12 14  2  0  0  0  0
 13 10  1  0  0  0  0
 13 15  2  0  0  0  0
 15 16  1  0  0  0  0
 16  7  1  1  0  0  0
 17 12  1  0  0  0  0
 18 19  1  0  0  0  0
 19 13  1  0  0  0  0
 20 21  1  0  0  0  0
 20  2  1  0  0  0  0
 22 23  1  0  0  0  0
 22 21  1  0  0  0  0
 23 29  1  6  0  0  0
 23 27  1  0  0  0  0
 25 24  1  0  0  0  0
 26 27  1  0  0  0  0
 26 28  1  0  0  0  0
 27 25  1  0  0  0  0
 28 24  1  0  0  0  0
 30 31  1  6  0  0  0
 30 29  1  0  0  0  0
 32 30  1  0  0  0  0
 33 32  1  0  0  0  0
M  END
>  <MODEL>
9

>  <REMARK>
 VINA RESULT:      -6.6      3.810      8.839
  Name = 
  11 active torsions:
  status: ('A' for Active; 'I' for Inactive)
    1  A    between atoms: C_1  and  C_6
    2  A    between atoms: C_1  and  C_28
    3  A    between atoms: C_1  and  C_32
    4  A    between atoms: C_4  and  C_6
    5  A    between atoms: C_4  and  O_20
    6  A    between atoms: N_5  and  C_21
    7  A    between atoms: N_5  and  C_32
    8  A    between atoms: C_11  and  C_16
    9  A    between atoms: C_14  and  C_19
   10  A    between atoms: N_17  and  C_21
   11  A    between atoms: C_26  and  C_29
                            x       y       z     vdW  Elec       q    Type
                         _______ _______ _______ _____ _____    ______ ____

>  <TORSDO>
F 11

$$$$
