=
 OpenBabel11072413213D

 44 46  0  0  1  0  0  0  0  0999 V2000
  161.7030  208.3590  150.7780 C   0  0  2  0  0  3  0  0  0  0  0  0
  162.8360  207.6010  150.4720 O   0  0  0  0  0  1  0  0  0  0  0  0
  162.0400  209.4530  151.7860 C   0  0  0  0  0  2  0  0  0  0  0  0
  160.8640  209.7670  152.7030 C   0  0  0  0  0  2  0  0  0  0  0  0
  161.2730  209.5880  154.1570 C   0  0  0  0  0  2  0  0  0  0  0  0
  161.6080  210.8730  154.7500 N   0  0  0  0  0  0  0  0  0  0  0  0
  162.7430  210.6630  155.6350 C   0  0  0  0  0  1  0  0  0  0  0  0
  160.7580  211.6480  157.1140 O   0  0  0  0  0  0  0  0  0  0  0  0
  159.2220  210.3060  155.7760 O   0  0  0  0  0  0  0  0  0  0  0  0
  160.2620  211.3940  155.7180 S   0  0  0  0  0  0  0  0  0  0  0  0
  158.3590  212.9360  154.2030 C   0  0  2  0  0  0  0  0  0  0  0  0
  159.6220  212.9630  155.0660 C   0  0  1  0  0  3  0  0  0  0  0  0
  158.2690  213.4030  155.6560 C   0  0  2  0  0  3  0  0  0  0  0  0
  157.6770  212.4250  156.4620 O   0  0  0  0  0  1  0  0  0  0  0  0
  157.7710  211.5890  153.7790 C   0  0  0  0  0  1  0  0  0  0  0  0
  158.3550  213.9660  153.2470 O   0  0  0  0  0  0  0  0  0  0  0  0
  161.1340  213.6150  149.5130 F   0  0  0  0  0  0  0  0  0  0  0  0
  157.3610  213.3620  149.7150 C   0  0  0  0  0  2  0  0  0  0  0  0
  159.7110  213.4660  151.3490 C   0  0  0  0  0  3  0  0  0  0  0  0
  158.7050  213.7240  149.0790 C   0  0  0  0  0  2  0  0  0  0  0  0
  157.2600  213.9690  151.1070 C   0  0  0  0  0  2  0  0  0  0  0  0
  159.8750  213.5460  150.0200 C   0  0  0  0  0  0  0  0  0  0  0  0
  158.3480  213.3560  151.9850 C   0  0  2  0  0  3  0  0  0  0  0  0
  160.6510  207.4920  151.2870 N   0  0  0  0  0  2  0  0  0  0  0  0
  161.2540  206.1800  151.4740 C   0  0  1  0  0  3  0  0  0  0  0  0
  161.2550  204.4940  153.1610 F   0  0  0  0  0  0  0  0  0  0  0  0
  162.6780  206.2170  153.3760 F   0  0  0  0  0  0  0  0  0  0  0  0
  161.4120  205.8520  152.9600 C   0  0  0  0  0  0  0  0  0  0  0  0
  160.4770  206.5360  153.7140 F   0  0  0  0  0  0  0  0  0  0  0  0
  160.4990  205.1310  150.7070 C   0  0  0  0  0  3  0  0  0  0  0  0
  160.8340  203.8410  150.7240 C   0  0  0  0  0  3  0  0  0  0  0  0
  160.0360  202.8570  149.9360 C   0  0  0  0  0  2  0  0  0  0  0  0
  160.7400  201.6590  149.8130 O   0  0  0  0  0  0  0  0  0  0  0  0
  161.6420  201.8870  148.7710 C   0  0  0  0  0  2  0  0  0  0  0  0
  160.9070  201.9140  147.4400 C   0  0  2  0  0  3  0  0  0  0  0  0
  161.0990  200.7030  146.7710 O   0  0  0  0  0  1  0  0  0  0  0  0
  160.5450  204.3280  144.5980 C   0  0  0  0  0  3  0  0  0  0  0  0
  161.3440  203.0680  146.5820 C   0  0  0  0  0  0  0  0  0  0  0  0
  162.2940  205.7670  145.4760 N   0  0  0  0  0  0  0  0  0  0  0  0
  160.7460  203.1730  145.2290 C   0  0  0  0  0  0  0  0  0  0  0  0
  162.9330  205.0100  146.3130 C   0  0  0  0  0  3  0  0  0  0  0  0
  160.8710  205.6550  145.1980 C   0  0  0  0  0  2  0  0  0  0  0  0
  162.3310  203.8680  147.0280 C   0  0  0  0  0  3  0  0  0  0  0  0
  160.3270  202.0390  144.6150 F   0  0  0  0  0  0  0  0  0  0  0  0
  1  2  1  1  0  0  0
  1 24  1  0  0  0  0
  1  3  1  0  0  0  0
  3  4  1  0  0  0  0
  4  5  1  0  0  0  0
  5  6  1  0  0  0  0
  6  7  1  0  0  0  0
  6 10  1  0  0  0  0
 10  9  2  0  0  0  0
 10  8  2  0  0  0  0
 11 15  1  6  0  0  0
 11 12  1  0  0  0  0
 11 13  1  0  0  0  0
 12 13  1  0  0  0  0
 12 10  1  1  0  0  0
 13 14  1  1  0  0  0
 16 11  1  0  0  0  0
 17 22  1  0  0  0  0
 18 21  1  0  0  0  0
 19 23  1  0  0  0  0
 20 18  1  0  0  0  0
 20 22  1  0  0  0  0
 21 23  1  0  0  0  0
 22 19  2  0  0  0  0
 23 16  1  1  0  0  0
 24 25  1  0  0  0  0
 25 30  1  1  0  0  0
 25 28  1  0  0  0  0
 28 26  1  0  0  0  0
 28 27  1  0  0  0  0
 28 29  1  0  0  0  0
 30 31  2  0  0  0  0
 32 31  1  0  0  0  0
 33 32  1  0  0  0  0
 34 33  1  0  0  0  0
 35 36  1  6  0  0  0
 35 34  1  0  0  0  0
 37 42  1  0  0  0  0
 37 40  2  0  0  0  0
 38 43  2  0  0  0  0
 38 35  1  0  0  0  0
 39 41  2  0  0  0  0
 40 38  1  0  0  0  0
 41 43  1  0  0  0  0
 42 39  1  0  0  0  0
 44 40  1  0  0  0  0
M  END
>  <MODEL>
1

>  <REMARK>
 VINA RESULT:      -7.4      0.000      0.000
  Name = 
  17 active torsions:
  status: ('A' for Active; 'I' for Inactive)
    1  A    between atoms: C_2  and  C_8
    2  A    between atoms: C_2  and  N_35
    3  A    between atoms: C_3  and  O_11
    4  A    between atoms: C_3  and  C_15
    5  A    between atoms: C_5  and  O_32
    6  A    between atoms: C_7  and  S_29
    7  A    between atoms: C_8  and  C_20
    8  A    between atoms: C_9  and  C_39
    9  A    between atoms: O_11  and  C_28
   10  A    between atoms: C_12  and  C_20
   11  A    between atoms: C_12  and  N_42
   12  A    between atoms: C_15  and  C_16
   13  A    between atoms: C_23  and  C_28
   14  A    between atoms: S_29  and  N_42
   15  A    between atoms: O_32  and  C_41
   16  A    between atoms: N_35  and  C_39
   17  A    between atoms: C_38  and  C_39
                            x       y       z     vdW  Elec       q    Type
                         _______ _______ _______ _____ _____    ______ ____

>  <TORSDO>
F 17

$$$$
=
 OpenBabel11072413213D

 44 46  0  0  1  0  0  0  0  0999 V2000
  161.7600  208.7710  151.8750 C   0  0  2  0  0  3  0  0  0  0  0  0
  161.9860  208.5210  153.2300 O   0  0  0  0  0  1  0  0  0  0  0  0
  161.4320  210.2430  151.6440 C   0  0  0  0  0  2  0  0  0  0  0  0
  160.4200  210.7670  152.6560 C   0  0  0  0  0  2  0  0  0  0  0  0
  160.0480  212.2050  152.3270 C   0  0  0  0  0  2  0  0  0  0  0  0
  158.6240  212.3090  152.0530 N   0  0  0  0  0  0  0  0  0  0  0  0
  158.4700  213.0810  150.8290 C   0  0  0  0  0  1  0  0  0  0  0  0
  156.5580  213.7180  152.8640 O   0  0  0  0  0  0  0  0  0  0  0  0
  158.7460  214.3820  153.7130 O   0  0  0  0  0  0  0  0  0  0  0  0
  157.8850  213.2020  153.3470 S   0  0  0  0  0  0  0  0  0  0  0  0
  158.5170  212.1260  155.9420 C   0  0  2  0  0  0  0  0  0  0  0  0
  157.5670  212.0870  154.7440 C   0  0  1  0  0  3  0  0  0  0  0  0
  157.1440  212.7900  156.0480 C   0  0  2  0  0  3  0  0  0  0  0  0
  157.2550  214.1830  155.9820 O   0  0  0  0  0  1  0  0  0  0  0  0
  159.7890  212.9710  155.8610 C   0  0  0  0  0  1  0  0  0  0  0  0
  158.6200  210.8720  156.5710 O   0  0  0  0  0  0  0  0  0  0  0  0
  160.4280  206.6590  155.6950 F   0  0  0  0  0  0  0  0  0  0  0  0
  162.1740  209.8150  156.8470 C   0  0  0  0  0  2  0  0  0  0  0  0
  159.6680  208.8530  155.8510 C   0  0  0  0  0  3  0  0  0  0  0  0
  161.9280  208.3080  156.7600 C   0  0  0  0  0  2  0  0  0  0  0  0
  160.8970  210.5320  157.2610 C   0  0  0  0  0  2  0  0  0  0  0  0
  160.6480  207.9560  156.0370 C   0  0  0  0  0  0  0  0  0  0  0  0
  159.8450  210.3150  156.1770 C   0  0  2  0  0  3  0  0  0  0  0  0
  160.6880  207.9190  151.3870 N   0  0  0  0  0  2  0  0  0  0  0  0
  161.3220  206.8610  150.6120 C   0  0  1  0  0  3  0  0  0  0  0  0
  162.3270  204.7790  151.1970 F   0  0  0  0  0  0  0  0  0  0  0  0
  160.8560  205.6910  152.6270 F   0  0  0  0  0  0  0  0  0  0  0  0
  161.1530  205.5010  151.2910 C   0  0  0  0  0  0  0  0  0  0  0  0
  160.1280  204.7850  150.7000 F   0  0  0  0  0  0  0  0  0  0  0  0
  160.8440  206.8820  149.1870 C   0  0  0  0  0  3  0  0  0  0  0  0
  161.6040  206.4970  148.1630 C   0  0  0  0  0  3  0  0  0  0  0  0
  161.0600  206.5450  146.7750 C   0  0  0  0  0  2  0  0  0  0  0  0
  162.0560  206.2090  145.8580 O   0  0  0  0  0  0  0  0  0  0  0  0
  162.5330  204.9710  146.2950 C   0  0  0  0  0  2  0  0  0  0  0  0
  161.7740  203.8460  145.6080 C   0  0  2  0  0  3  0  0  0  0  0  0
  160.6960  204.3730  144.8940 O   0  0  0  0  0  1  0  0  0  0  0  0
  160.9290  200.3540  146.6720 C   0  0  0  0  0  3  0  0  0  0  0  0
  161.3060  202.8080  146.5870 C   0  0  0  0  0  0  0  0  0  0  0  0
  160.8600  200.9870  149.0160 N   0  0  0  0  0  0  0  0  0  0  0  0
  160.8260  201.5180  146.0320 C   0  0  0  0  0  0  0  0  0  0  0  0
  160.7430  202.2790  148.9890 C   0  0  0  0  0  3  0  0  0  0  0  0
  161.5720  200.2120  148.0120 C   0  0  0  0  0  2  0  0  0  0  0  0
  161.2290  203.1350  147.8910 C   0  0  0  0  0  3  0  0  0  0  0  0
  160.3030  201.5040  144.7810 F   0  0  0  0  0  0  0  0  0  0  0  0
  1  2  1  1  0  0  0
  3  1  1  0  0  0  0
  3  4  1  0  0  0  0
  5  4  1  0  0  0  0
  6  5  1  0  0  0  0
  6 10  1  0  0  0  0
  7  6  1  0  0  0  0
  8 10  2  0  0  0  0
 10  9  2  0  0  0  0
 11 15  1  6  0  0  0
 11 13  1  0  0  0  0
 11 16  1  0  0  0  0
 12 10  1  6  0  0  0
 12 11  1  0  0  0  0
 12 13  1  0  0  0  0
 13 14  1  6  0  0  0
 17 22  1  0  0  0  0
 18 21  1  0  0  0  0
 19 22  2  0  0  0  0
 19 23  1  0  0  0  0
 20 18  1  0  0  0  0
 22 20  1  0  0  0  0
 23 16  1  1  0  0  0
 23 21  1  0  0  0  0
 24  1  1  0  0  0  0
 25 30  1  6  0  0  0
 25 28  1  0  0  0  0
 25 24  1  0  0  0  0
 26 28  1  0  0  0  0
 28 27  1  0  0  0  0
 29 28  1  0  0  0  0
 31 30  2  0  0  0  0
 32 31  1  0  0  0  0
 33 34  1  0  0  0  0
 33 32  1  0  0  0  0
 35 36  1  1  0  0  0
 35 34  1  0  0  0  0
 35 38  1  0  0  0  0
 37 42  1  0  0  0  0
 38 43  2  0  0  0  0
 40 38  1  0  0  0  0
 40 37  2  0  0  0  0
 41 39  2  0  0  0  0
 42 39  1  0  0  0  0
 43 41  1  0  0  0  0
 44 40  1  0  0  0  0
M  END
>  <MODEL>
2

>  <REMARK>
 VINA RESULT:      -7.4      2.484      4.661
  Name = 
  17 active torsions:
  status: ('A' for Active; 'I' for Inactive)
    1  A    between atoms: C_2  and  C_8
    2  A    between atoms: C_2  and  N_35
    3  A    between atoms: C_3  and  O_11
    4  A    between atoms: C_3  and  C_15
    5  A    between atoms: C_5  and  O_32
    6  A    between atoms: C_7  and  S_29
    7  A    between atoms: C_8  and  C_20
    8  A    between atoms: C_9  and  C_39
    9  A    between atoms: O_11  and  C_28
   10  A    between atoms: C_12  and  C_20
   11  A    between atoms: C_12  and  N_42
   12  A    between atoms: C_15  and  C_16
   13  A    between atoms: C_23  and  C_28
   14  A    between atoms: S_29  and  N_42
   15  A    between atoms: O_32  and  C_41
   16  A    between atoms: N_35  and  C_39
   17  A    between atoms: C_38  and  C_39
                            x       y       z     vdW  Elec       q    Type
                         _______ _______ _______ _____ _____    ______ ____

>  <TORSDO>
F 17

$$$$
=
 OpenBabel11072413213D

 44 46  0  0  1  0  0  0  0  0999 V2000
  161.7500  208.2070  151.9180 C   0  0  2  0  0  3  0  0  0  0  0  0
  162.1520  207.6400  153.1310 O   0  0  0  0  0  1  0  0  0  0  0  0
  161.3900  209.6770  152.1020 C   0  0  0  0  0  2  0  0  0  0  0  0
  160.1490  209.8570  152.9670 C   0  0  0  0  0  2  0  0  0  0  0  0
  160.5230  209.7980  154.4400 C   0  0  0  0  0  2  0  0  0  0  0  0
  161.1370  211.0480  154.8570 N   0  0  0  0  0  0  0  0  0  0  0  0
  162.3250  210.7140  155.6280 C   0  0  0  0  0  1  0  0  0  0  0  0
  160.7600  212.2320  157.1730 O   0  0  0  0  0  0  0  0  0  0  0  0
  158.8850  210.9620  156.2660 O   0  0  0  0  0  0  0  0  0  0  0  0
  160.0290  211.8740  155.9090 S   0  0  0  0  0  0  0  0  0  0  0  0
  158.2140  213.4120  154.2850 C   0  0  2  0  0  0  0  0  0  0  0  0
  159.4930  213.4220  155.1250 C   0  0  1  0  0  3  0  0  0  0  0  0
  158.1880  214.0130  155.6910 C   0  0  2  0  0  3  0  0  0  0  0  0
  157.5410  213.1590  156.5900 O   0  0  0  0  0  1  0  0  0  0  0  0
  157.5210  212.0800  153.9940 C   0  0  0  0  0  1  0  0  0  0  0  0
  158.2670  214.3490  153.2390 O   0  0  0  0  0  0  0  0  0  0  0  0
  160.9400  213.3990  149.5330 F   0  0  0  0  0  0  0  0  0  0  0  0
  157.1640  213.5250  149.7850 C   0  0  0  0  0  2  0  0  0  0  0  0
  159.5390  213.5520  151.3850 C   0  0  0  0  0  3  0  0  0  0  0  0
  158.5250  213.6980  149.1090 C   0  0  0  0  0  2  0  0  0  0  0  0
  157.1430  214.2620  151.1160 C   0  0  0  0  0  2  0  0  0  0  0  0
  159.6880  213.4960  150.0530 C   0  0  0  0  0  0  0  0  0  0  0  0
  158.1830  213.6300  152.0380 C   0  0  2  0  0  3  0  0  0  0  0  0
  160.6260  207.4620  151.3730 N   0  0  0  0  0  2  0  0  0  0  0  0
  161.1940  206.3890  150.5690 C   0  0  1  0  0  3  0  0  0  0  0  0
  162.1700  204.2900  151.1440 F   0  0  0  0  0  0  0  0  0  0  0  0
  160.7280  205.2260  152.5880 F   0  0  0  0  0  0  0  0  0  0  0  0
  161.0090  205.0310  151.2490 C   0  0  0  0  0  0  0  0  0  0  0  0
  159.9670  204.3320  150.6690 F   0  0  0  0  0  0  0  0  0  0  0  0
  160.6590  206.4320  149.1650 C   0  0  0  0  0  3  0  0  0  0  0  0
  161.4450  206.5370  148.0940 C   0  0  0  0  0  3  0  0  0  0  0  0
  160.8400  206.5740  146.7310 C   0  0  0  0  0  2  0  0  0  0  0  0
  161.7920  206.2180  145.7750 O   0  0  0  0  0  0  0  0  0  0  0  0
  162.3230  205.0130  146.2390 C   0  0  0  0  0  2  0  0  0  0  0  0
  161.6820  203.8430  145.5070 C   0  0  2  0  0  3  0  0  0  0  0  0
  160.5850  204.2940  144.7680 O   0  0  0  0  0  1  0  0  0  0  0  0
  160.9060  200.2930  146.4210 C   0  0  0  0  0  3  0  0  0  0  0  0
  161.2710  202.7500  146.4520 C   0  0  0  0  0  0  0  0  0  0  0  0
  160.9660  200.7950  148.7970 N   0  0  0  0  0  0  0  0  0  0  0  0
  160.7650  201.4900  145.8530 C   0  0  0  0  0  0  0  0  0  0  0  0
  160.8440  202.0850  148.8490 C   0  0  0  0  0  3  0  0  0  0  0  0
  161.6230  200.0810  147.7130 C   0  0  0  0  0  2  0  0  0  0  0  0
  161.2660  203.0040  147.7740 C   0  0  0  0  0  3  0  0  0  0  0  0
  160.1720  201.5430  144.6350 F   0  0  0  0  0  0  0  0  0  0  0  0
  1  3  1  0  0  0  0
  1  2  1  1  0  0  0
  3  4  1  0  0  0  0
  4  5  1  0  0  0  0
  5  6  1  0  0  0  0
  6  7  1  0  0  0  0
  6 10  1  0  0  0  0
 10  9  2  0  0  0  0
 10  8  2  0  0  0  0
 11 15  1  6  0  0  0
 11 12  1  0  0  0  0
 11 13  1  0  0  0  0
 12 13  1  0  0  0  0
 12 10  1  1  0  0  0
 13 14  1  1  0  0  0
 16 11  1  0  0  0  0
 17 22  1  0  0  0  0
 18 21  1  0  0  0  0
 19 23  1  0  0  0  0
 20 18  1  0  0  0  0
 20 22  1  0  0  0  0
 21 23  1  0  0  0  0
 22 19  2  0  0  0  0
 23 16  1  1  0  0  0
 24  1  1  0  0  0  0
 25 30  1  6  0  0  0
 25 28  1  0  0  0  0
 25 24  1  0  0  0  0
 26 28  1  0  0  0  0
 28 27  1  0  0  0  0
 29 28  1  0  0  0  0
 31 30  2  0  0  0  0
 32 31  1  0  0  0  0
 33 34  1  0  0  0  0
 33 32  1  0  0  0  0
 35 36  1  1  0  0  0
 35 34  1  0  0  0  0
 35 38  1  0  0  0  0
 37 42  1  0  0  0  0
 38 43  2  0  0  0  0
 39 41  2  0  0  0  0
 40 37  2  0  0  0  0
 40 38  1  0  0  0  0
 42 39  1  0  0  0  0
 43 41  1  0  0  0  0
 44 40  1  0  0  0  0
M  END
>  <MODEL>
3

>  <REMARK>
 VINA RESULT:      -7.1      1.783      2.560
  Name = 
  17 active torsions:
  status: ('A' for Active; 'I' for Inactive)
    1  A    between atoms: C_2  and  C_8
    2  A    between atoms: C_2  and  N_35
    3  A    between atoms: C_3  and  O_11
    4  A    between atoms: C_3  and  C_15
    5  A    between atoms: C_5  and  O_32
    6  A    between atoms: C_7  and  S_29
    7  A    between atoms: C_8  and  C_20
    8  A    between atoms: C_9  and  C_39
    9  A    between atoms: O_11  and  C_28
   10  A    between atoms: C_12  and  C_20
   11  A    between atoms: C_12  and  N_42
   12  A    between atoms: C_15  and  C_16
   13  A    between atoms: C_23  and  C_28
   14  A    between atoms: S_29  and  N_42
   15  A    between atoms: O_32  and  C_41
   16  A    between atoms: N_35  and  C_39
   17  A    between atoms: C_38  and  C_39
                            x       y       z     vdW  Elec       q    Type
                         _______ _______ _______ _____ _____    ______ ____

>  <TORSDO>
F 17

$$$$
=
 OpenBabel11072413213D

 44 46  0  0  1  0  0  0  0  0999 V2000
  161.7140  207.6230  150.4110 C   0  0  2  0  0  3  0  0  0  0  0  0
  161.8000  207.3050  149.0530 O   0  0  0  0  0  1  0  0  0  0  0  0
  161.6810  209.1350  150.6110 C   0  0  0  0  0  2  0  0  0  0  0  0
  162.0620  209.8870  149.3420 C   0  0  0  0  0  2  0  0  0  0  0  0
  161.6430  211.3450  149.4520 C   0  0  0  0  0  2  0  0  0  0  0  0
  161.8120  212.0180  148.1730 N   0  0  0  0  0  0  0  0  0  0  0  0
  163.2110  211.8900  147.7960 C   0  0  0  0  0  1  0  0  0  0  0  0
  162.7730  214.4530  148.4090 O   0  0  0  0  0  0  0  0  0  0  0  0
  160.7890  213.9190  149.7250 O   0  0  0  0  0  0  0  0  0  0  0  0
  161.4680  213.7060  148.3970 S   0  0  0  0  0  0  0  0  0  0  0  0
  159.7710  213.2980  146.1070 C   0  0  2  0  0  0  0  0  0  0  0  0
  160.4960  214.3150  146.9900 C   0  0  1  0  0  3  0  0  0  0  0  0
  158.9750  214.1180  147.1230 C   0  0  2  0  0  3  0  0  0  0  0  0
  158.6160  213.3370  148.2270 O   0  0  0  0  0  1  0  0  0  0  0  0
  160.0140  211.8040  146.3300 C   0  0  0  0  0  1  0  0  0  0  0  0
  159.6660  213.7380  144.7760 O   0  0  0  0  0  0  0  0  0  0  0  0
  163.7250  214.0390  142.4900 F   0  0  0  0  0  0  0  0  0  0  0  0
  160.7860  211.7390  141.8480 C   0  0  0  0  0  2  0  0  0  0  0  0
  161.8180  213.6090  143.7540 C   0  0  0  0  0  3  0  0  0  0  0  0
  161.9830  212.6150  141.4710 C   0  0  0  0  0  2  0  0  0  0  0  0
  159.8070  212.5300  142.7030 C   0  0  0  0  0  2  0  0  0  0  0  0
  162.5330  213.4030  142.6390 C   0  0  0  0  0  0  0  0  0  0  0  0
  160.5020  212.9180  144.0050 C   0  0  2  0  0  3  0  0  0  0  0  0
  162.8320  207.0300  151.1290 N   0  0  0  0  0  2  0  0  0  0  0  0
  162.2610  206.0580  152.0500 C   0  0  1  0  0  3  0  0  0  0  0  0
  160.1450  206.9980  152.6210 F   0  0  0  0  0  0  0  0  0  0  0  0
  161.2920  205.9090  154.2140 F   0  0  0  0  0  0  0  0  0  0  0  0
  161.4080  206.7430  153.1190 C   0  0  0  0  0  0  0  0  0  0  0  0
  161.9890  207.9320  153.5190 F   0  0  0  0  0  0  0  0  0  0  0  0
  161.5290  204.9790  151.3020 C   0  0  0  0  0  3  0  0  0  0  0  0
  161.4370  203.7260  151.7450 C   0  0  0  0  0  3  0  0  0  0  0  0
  160.6930  202.7090  150.9470 C   0  0  0  0  0  2  0  0  0  0  0  0
  160.6440  203.0950  149.6060 O   0  0  0  0  0  0  0  0  0  0  0  0
  161.2440  202.0400  148.9150 C   0  0  0  0  0  2  0  0  0  0  0  0
  160.7080  201.9750  147.4930 C   0  0  2  0  0  3  0  0  0  0  0  0
  161.0580  200.7530  146.9130 O   0  0  0  0  0  1  0  0  0  0  0  0
  160.5630  204.3320  144.5840 C   0  0  0  0  0  3  0  0  0  0  0  0
  161.2020  203.1200  146.6560 C   0  0  0  0  0  0  0  0  0  0  0  0
  162.2070  205.8140  145.5850 N   0  0  0  0  0  0  0  0  0  0  0  0
  160.7240  203.1910  145.2530 C   0  0  0  0  0  0  0  0  0  0  0  0
  162.7800  205.0820  146.4900 C   0  0  0  0  0  3  0  0  0  0  0  0
  160.8150  205.6750  145.1860 C   0  0  0  0  0  2  0  0  0  0  0  0
  162.1340  203.9440  147.1710 C   0  0  0  0  0  3  0  0  0  0  0  0
  160.3770  202.0400  144.6260 F   0  0  0  0  0  0  0  0  0  0  0  0
  1  2  1  6  0  0  0
  1  3  1  0  0  0  0
  1 24  1  0  0  0  0
  4  5  1  0  0  0  0
  4  3  1  0  0  0  0
  6 10  1  0  0  0  0
  6  5  1  0  0  0  0
  7  6  1  0  0  0  0
 10  8  2  0  0  0  0
 10  9  2  0  0  0  0
 11 15  1  1  0  0  0
 11 12  1  0  0  0  0
 11 13  1  0  0  0  0
 12 13  1  0  0  0  0
 12 10  1  1  0  0  0
 13 14  1  1  0  0  0
 16 11  1  0  0  0  0
 17 22  1  0  0  0  0
 18 21  1  0  0  0  0
 19 23  1  0  0  0  0
 20 18  1  0  0  0  0
 20 22  1  0  0  0  0
 21 23  1  0  0  0  0
 22 19  2  0  0  0  0
 23 16  1  6  0  0  0
 24 25  1  0  0  0  0
 25 30  1  6  0  0  0
 25 28  1  0  0  0  0
 26 28  1  0  0  0  0
 28 29  1  0  0  0  0
 28 27  1  0  0  0  0
 30 31  2  0  0  0  0
 32 31  1  0  0  0  0
 33 32  1  0  0  0  0
 34 33  1  0  0  0  0
 35 36  1  6  0  0  0
 35 34  1  0  0  0  0
 37 42  1  0  0  0  0
 37 40  2  0  0  0  0
 38 43  2  0  0  0  0
 38 35  1  0  0  0  0
 39 41  2  0  0  0  0
 40 38  1  0  0  0  0
 41 43  1  0  0  0  0
 42 39  1  0  0  0  0
 44 40  1  0  0  0  0
M  END
>  <MODEL>
4

>  <REMARK>
 VINA RESULT:      -6.4      3.929      5.366
  Name = 
  17 active torsions:
  status: ('A' for Active; 'I' for Inactive)
    1  A    between atoms: C_2  and  C_8
    2  A    between atoms: C_2  and  N_35
    3  A    between atoms: C_3  and  O_11
    4  A    between atoms: C_3  and  C_15
    5  A    between atoms: C_5  and  O_32
    6  A    between atoms: C_7  and  S_29
    7  A    between atoms: C_8  and  C_20
    8  A    between atoms: C_9  and  C_39
    9  A    between atoms: O_11  and  C_28
   10  A    between atoms: C_12  and  C_20
   11  A    between atoms: C_12  and  N_42
   12  A    between atoms: C_15  and  C_16
   13  A    between atoms: C_23  and  C_28
   14  A    between atoms: S_29  and  N_42
   15  A    between atoms: O_32  and  C_41
   16  A    between atoms: N_35  and  C_39
   17  A    between atoms: C_38  and  C_39
                            x       y       z     vdW  Elec       q    Type
                         _______ _______ _______ _____ _____    ______ ____

>  <TORSDO>
F 17

$$$$
=
 OpenBabel11072413213D

 44 46  0  0  1  0  0  0  0  0999 V2000
  161.9740  207.4130  148.2900 C   0  0  2  0  0  3  0  0  0  0  0  0
  160.5900  207.2200  148.2760 O   0  0  0  0  0  1  0  0  0  0  0  0
  162.3160  208.8870  148.0990 C   0  0  0  0  0  2  0  0  0  0  0  0
  161.5420  209.7820  149.0600 C   0  0  0  0  0  2  0  0  0  0  0  0
  162.2020  211.1500  149.1480 C   0  0  0  0  0  2  0  0  0  0  0  0
  162.3450  211.7280  147.8210 N   0  0  0  0  0  0  0  0  0  0  0  0
  163.6830  212.2950  147.7350 C   0  0  0  0  0  1  0  0  0  0  0  0
  161.5450  214.0780  148.6860 O   0  0  0  0  0  0  0  0  0  0  0  0
  159.8120  212.5230  147.9580 O   0  0  0  0  0  0  0  0  0  0  0  0
  161.2020  213.0270  147.6680 S   0  0  0  0  0  0  0  0  0  0  0  0
  160.5930  213.1570  144.8560 C   0  0  2  0  0  0  0  0  0  0  0  0
  161.3620  213.7800  146.0230 C   0  0  1  0  0  3  0  0  0  0  0  0
  160.0800  214.4490  145.4920 C   0  0  2  0  0  3  0  0  0  0  0  0
  158.9590  214.2030  146.2930 O   0  0  0  0  0  1  0  0  0  0  0  0
  159.8530  211.8360  145.0670 C   0  0  0  0  0  1  0  0  0  0  0  0
  161.2690  213.3260  143.6340 O   0  0  0  0  0  0  0  0  0  0  0  0
  162.4510  210.7040  139.9570 F   0  0  0  0  0  0  0  0  0  0  0  0
  159.1350  212.3500  140.7500 C   0  0  0  0  0  2  0  0  0  0  0  0
  161.6910  211.7510  141.8920 C   0  0  0  0  0  3  0  0  0  0  0  0
  160.2610  211.8410  139.8490 C   0  0  0  0  0  2  0  0  0  0  0  0
  159.6970  213.2780  141.8170 C   0  0  0  0  0  2  0  0  0  0  0  0
  161.4780  211.3840  140.6200 C   0  0  0  0  0  0  0  0  0  0  0  0
  160.6500  212.4800  142.7030 C   0  0  2  0  0  3  0  0  0  0  0  0
  162.5970  206.5990  147.2570 N   0  0  0  0  0  2  0  0  0  0  0  0
  161.5990  205.6220  146.8460 C   0  0  1  0  0  3  0  0  0  0  0  0
  162.5790  206.2280  144.7570 F   0  0  0  0  0  0  0  0  0  0  0  0
  161.9240  204.1010  145.0500 F   0  0  0  0  0  0  0  0  0  0  0  0
  161.6170  205.4180  145.3300 C   0  0  0  0  0  0  0  0  0  0  0  0
  160.3840  205.7180  144.7820 F   0  0  0  0  0  0  0  0  0  0  0  0
  161.7500  204.3440  147.6220 C   0  0  0  0  0  3  0  0  0  0  0  0
  160.8320  203.9080  148.4840 C   0  0  0  0  0  3  0  0  0  0  0  0
  161.0530  202.6280  149.2180 C   0  0  0  0  0  2  0  0  0  0  0  0
  160.6440  202.7620  150.5460 O   0  0  0  0  0  0  0  0  0  0  0  0
  160.8580  204.1090  150.8450 C   0  0  0  0  0  2  0  0  0  0  0  0
  161.3830  204.2530  152.2660 C   0  0  2  0  0  3  0  0  0  0  0  0
  160.5980  203.4930  153.1370 O   0  0  0  0  0  1  0  0  0  0  0  0
  161.9940  207.9150  151.7650 C   0  0  0  0  0  3  0  0  0  0  0  0
  161.4240  205.6880  152.7050 C   0  0  0  0  0  0  0  0  0  0  0  0
  160.8190  208.4850  153.8120 N   0  0  0  0  0  0  0  0  0  0  0  0
  162.2630  206.6190  151.9100 C   0  0  0  0  0  0  0  0  0  0  0  0
  160.7800  207.3700  154.4730 C   0  0  0  0  0  3  0  0  0  0  0  0
  160.7940  208.5730  152.3610 C   0  0  0  0  0  2  0  0  0  0  0  0
  160.8050  206.0330  153.8510 C   0  0  0  0  0  3  0  0  0  0  0  0
  163.3340  206.1190  151.2460 F   0  0  0  0  0  0  0  0  0  0  0  0
  1  2  1  6  0  0  0
  3  1  1  0  0  0  0
  3  4  1  0  0  0  0
  4  5  1  0  0  0  0
  6  5  1  0  0  0  0
  7  6  1  0  0  0  0
 10  6  1  0  0  0  0
 10  9  2  0  0  0  0
 10  8  2  0  0  0  0
 11 15  1  1  0  0  0
 11 13  1  0  0  0  0
 11 12  1  0  0  0  0
 12 10  1  1  0  0  0
 13 12  1  0  0  0  0
 13 14  1  1  0  0  0
 16 11  1  0  0  0  0
 17 22  1  0  0  0  0
 18 21  1  0  0  0  0
 19 23  1  0  0  0  0
 20 22  1  0  0  0  0
 20 18  1  0  0  0  0
 21 23  1  0  0  0  0
 22 19  2  0  0  0  0
 23 16  1  1  0  0  0
 24  1  1  0  0  0  0
 25 24  1  0  0  0  0
 25 30  1  1  0  0  0
 26 28  1  0  0  0  0
 27 28  1  0  0  0  0
 28 25  1  0  0  0  0
 29 28  1  0  0  0  0
 30 31  2  0  0  0  0
 31 32  1  0  0  0  0
 32 33  1  0  0  0  0
 33 34  1  0  0  0  0
 34 35  1  0  0  0  0
 35 38  1  0  0  0  0
 35 36  1  1  0  0  0
 37 40  2  0  0  0  0
 37 42  1  0  0  0  0
 38 43  2  0  0  0  0
 39 41  2  0  0  0  0
 40 38  1  0  0  0  0
 42 39  1  0  0  0  0
 43 41  1  0  0  0  0
 44 40  1  0  0  0  0
M  END
>  <MODEL>
5

>  <REMARK>
 VINA RESULT:      -6.3      4.689      7.654
  Name = 
  17 active torsions:
  status: ('A' for Active; 'I' for Inactive)
    1  A    between atoms: C_2  and  C_8
    2  A    between atoms: C_2  and  N_35
    3  A    between atoms: C_3  and  O_11
    4  A    between atoms: C_3  and  C_15
    5  A    between atoms: C_5  and  O_32
    6  A    between atoms: C_7  and  S_29
    7  A    between atoms: C_8  and  C_20
    8  A    between atoms: C_9  and  C_39
    9  A    between atoms: O_11  and  C_28
   10  A    between atoms: C_12  and  C_20
   11  A    between atoms: C_12  and  N_42
   12  A    between atoms: C_15  and  C_16
   13  A    between atoms: C_23  and  C_28
   14  A    between atoms: S_29  and  N_42
   15  A    between atoms: O_32  and  C_41
   16  A    between atoms: N_35  and  C_39
   17  A    between atoms: C_38  and  C_39
                            x       y       z     vdW  Elec       q    Type
                         _______ _______ _______ _____ _____    ______ ____

>  <TORSDO>
F 17

$$$$
=
 OpenBabel11072413213D

 44 46  0  0  1  0  0  0  0  0999 V2000
  161.9870  205.8370  151.8140 C   0  0  2  0  0  3  0  0  0  0  0  0
  162.1700  204.4710  151.5810 O   0  0  0  0  0  1  0  0  0  0  0  0
  162.1320  206.1570  153.2980 C   0  0  0  0  0  2  0  0  0  0  0  0
  160.7890  206.1450  154.0180 C   0  0  0  0  0  2  0  0  0  0  0  0
  160.4830  207.5250  154.5790 C   0  0  0  0  0  2  0  0  0  0  0  0
  161.2650  207.7680  155.7810 N   0  0  0  0  0  0  0  0  0  0  0  0
  160.6750  206.9800  156.8520 C   0  0  0  0  0  1  0  0  0  0  0  0
  162.4210  209.9130  156.7670 O   0  0  0  0  0  0  0  0  0  0  0  0
  160.0510  209.6130  157.2610 O   0  0  0  0  0  0  0  0  0  0  0  0
  161.1090  209.4460  156.2010 S   0  0  0  0  0  0  0  0  0  0  0  0
  159.3840  211.0140  154.5090 C   0  0  2  0  0  0  0  0  0  0  0  0
  160.7790  210.4160  154.7010 C   0  0  1  0  0  3  0  0  0  0  0  0
  160.5380  211.9170  154.9440 C   0  0  2  0  0  3  0  0  0  0  0  0
  160.4340  212.2460  156.3000 O   0  0  0  0  0  1  0  0  0  0  0  0
  158.2700  210.6450  155.4900 C   0  0  0  0  0  1  0  0  0  0  0  0
  159.0370  211.1070  153.1500 O   0  0  0  0  0  0  0  0  0  0  0  0
  155.4810  214.1120  152.8120 F   0  0  0  0  0  0  0  0  0  0  0  0
  158.8720  214.2250  151.1310 C   0  0  0  0  0  2  0  0  0  0  0  0
  157.4010  212.8440  153.1620 C   0  0  0  0  0  3  0  0  0  0  0  0
  157.3620  214.4410  151.2450 C   0  0  0  0  0  2  0  0  0  0  0  0
  159.2170  212.7730  151.4270 C   0  0  0  0  0  2  0  0  0  0  0  0
  156.7620  213.8040  152.4780 C   0  0  0  0  0  0  0  0  0  0  0  0
  158.8310  212.4660  152.8710 C   0  0  2  0  0  3  0  0  0  0  0  0
  160.6850  206.2530  151.3190 N   0  0  0  0  0  2  0  0  0  0  0  0
  160.9360  207.2080  150.2480 C   0  0  1  0  0  3  0  0  0  0  0  0
  160.7440  208.9660  151.8480 F   0  0  0  0  0  0  0  0  0  0  0  0
  162.7990  208.2850  151.2550 F   0  0  0  0  0  0  0  0  0  0  0  0
  161.5160  208.5130  150.7960 C   0  0  0  0  0  0  0  0  0  0  0  0
  161.5570  209.4810  149.8100 F   0  0  0  0  0  0  0  0  0  0  0  0
  161.7760  206.5890  149.1660 C   0  0  0  0  0  3  0  0  0  0  0  0
  162.2820  207.2890  148.1520 C   0  0  0  0  0  3  0  0  0  0  0  0
  163.1070  206.6040  147.1150 C   0  0  0  0  0  2  0  0  0  0  0  0
  162.2800  206.0380  146.1440 O   0  0  0  0  0  0  0  0  0  0  0  0
  162.7220  204.7180  146.0320 C   0  0  0  0  0  2  0  0  0  0  0  0
  161.5860  203.8240  145.5600 C   0  0  2  0  0  3  0  0  0  0  0  0
  160.4980  204.6100  145.1740 O   0  0  0  0  0  1  0  0  0  0  0  0
  161.0470  200.3710  146.9120 C   0  0  0  0  0  3  0  0  0  0  0  0
  161.1780  202.8330  146.6130 C   0  0  0  0  0  0  0  0  0  0  0  0
  160.8030  201.1990  149.1820 N   0  0  0  0  0  0  0  0  0  0  0  0
  160.8580  201.4560  146.1630 C   0  0  0  0  0  0  0  0  0  0  0  0
  160.5580  202.4640  149.0310 C   0  0  0  0  0  3  0  0  0  0  0  0
  161.6360  200.4170  148.2830 C   0  0  0  0  0  2  0  0  0  0  0  0
  161.0070  203.2660  147.8760 C   0  0  0  0  0  3  0  0  0  0  0  0
  160.3990  201.2770  144.8990 F   0  0  0  0  0  0  0  0  0  0  0  0
  1  2  1  1  0  0  0
  1  3  1  0  0  0  0
  3  4  1  0  0  0  0
  4  5  1  0  0  0  0
  5  6  1  0  0  0  0
  6 10  1  0  0  0  0
  6  7  1  0  0  0  0
 10  8  2  0  0  0  0
 10  9  2  0  0  0  0
 11 12  1  0  0  0  0
 11 13  1  0  0  0  0
 11 15  1  1  0  0  0
 12 13  1  0  0  0  0
 12 10  1  1  0  0  0
 13 14  1  1  0  0  0
 16 11  1  0  0  0  0
 18 20  1  0  0  0  0
 18 21  1  0  0  0  0
 20 22  1  0  0  0  0
 21 23  1  0  0  0  0
 22 17  1  0  0  0  0
 22 19  2  0  0  0  0
 23 16  1  6  0  0  0
 23 19  1  0  0  0  0
 24  1  1  0  0  0  0
 25 30  1  6  0  0  0
 25 28  1  0  0  0  0
 25 24  1  0  0  0  0
 28 27  1  0  0  0  0
 28 26  1  0  0  0  0
 29 28  1  0  0  0  0
 31 30  2  0  0  0  0
 32 31  1  0  0  0  0
 33 32  1  0  0  0  0
 34 33  1  0  0  0  0
 35 36  1  1  0  0  0
 35 34  1  0  0  0  0
 35 38  1  0  0  0  0
 37 42  1  0  0  0  0
 38 43  2  0  0  0  0
 40 38  1  0  0  0  0
 40 37  2  0  0  0  0
 41 39  2  0  0  0  0
 42 39  1  0  0  0  0
 43 41  1  0  0  0  0
 44 40  1  0  0  0  0
M  END
>  <MODEL>
6

>  <REMARK>
 VINA RESULT:      -6.1      2.500      3.550
  Name = 
  17 active torsions:
  status: ('A' for Active; 'I' for Inactive)
    1  A    between atoms: C_2  and  C_8
    2  A    between atoms: C_2  and  N_35
    3  A    between atoms: C_3  and  O_11
    4  A    between atoms: C_3  and  C_15
    5  A    between atoms: C_5  and  O_32
    6  A    between atoms: C_7  and  S_29
    7  A    between atoms: C_8  and  C_20
    8  A    between atoms: C_9  and  C_39
    9  A    between atoms: O_11  and  C_28
   10  A    between atoms: C_12  and  C_20
   11  A    between atoms: C_12  and  N_42
   12  A    between atoms: C_15  and  C_16
   13  A    between atoms: C_23  and  C_28
   14  A    between atoms: S_29  and  N_42
   15  A    between atoms: O_32  and  C_41
   16  A    between atoms: N_35  and  C_39
   17  A    between atoms: C_38  and  C_39
                            x       y       z     vdW  Elec       q    Type
                         _______ _______ _______ _____ _____    ______ ____

>  <TORSDO>
F 17

$$$$
=
 OpenBabel11072413213D

 44 46  0  0  1  0  0  0  0  0999 V2000
  161.8030  208.9890  150.1410 C   0  0  2  0  0  3  0  0  0  0  0  0
  161.5050  208.5520  148.8480 O   0  0  0  0  0  1  0  0  0  0  0  0
  162.3390  210.4160  150.1190 C   0  0  0  0  0  2  0  0  0  0  0  0
  161.4470  211.3490  149.3090 C   0  0  0  0  0  2  0  0  0  0  0  0
  162.0940  211.6600  147.9690 C   0  0  0  0  0  2  0  0  0  0  0  0
  161.9010  213.0600  147.6260 N   0  0  0  0  0  0  0  0  0  0  0  0
  161.6560  213.7820  148.8650 C   0  0  0  0  0  1  0  0  0  0  0  0
  159.4890  214.0670  147.3540 O   0  0  0  0  0  0  0  0  0  0  0  0
  159.8560  211.8270  146.4590 O   0  0  0  0  0  0  0  0  0  0  0  0
  160.4770  213.1880  146.6400 S   0  0  0  0  0  0  0  0  0  0  0  0
  160.5850  213.2670  143.7630 C   0  0  2  0  0  0  0  0  0  0  0  0
  160.9010  213.9960  145.0710 C   0  0  1  0  0  3  0  0  0  0  0  0
  159.6920  214.4220  144.2170 C   0  0  2  0  0  3  0  0  0  0  0  0
  158.4730  213.9480  144.7150 O   0  0  0  0  0  1  0  0  0  0  0  0
  160.0800  211.8240  143.8140 C   0  0  0  0  0  1  0  0  0  0  0  0
  161.5020  213.5900  142.7480 O   0  0  0  0  0  0  0  0  0  0  0  0
  163.5450  210.6850  139.7180 F   0  0  0  0  0  0  0  0  0  0  0  0
  160.5020  212.8860  139.2370 C   0  0  0  0  0  2  0  0  0  0  0  0
  162.2890  211.9090  141.2490 C   0  0  0  0  0  3  0  0  0  0  0  0
  161.7850  212.1660  138.8180 C   0  0  0  0  0  2  0  0  0  0  0  0
  160.7600  213.7440  140.4670 C   0  0  0  0  0  2  0  0  0  0  0  0
  162.5210  211.5390  139.9810 C   0  0  0  0  0  0  0  0  0  0  0  0
  161.1540  212.8280  141.6230 C   0  0  2  0  0  3  0  0  0  0  0  0
  162.7610  208.0850  150.7590 N   0  0  0  0  0  2  0  0  0  0  0  0
  162.0210  207.3150  151.7490 C   0  0  1  0  0  3  0  0  0  0  0  0
  161.8900  209.2690  153.1100 F   0  0  0  0  0  0  0  0  0  0  0  0
  160.1210  208.7390  151.8330 F   0  0  0  0  0  0  0  0  0  0  0  0
  161.1400  208.2220  152.6100 C   0  0  0  0  0  0  0  0  0  0  0  0
  160.5890  207.5130  153.6600 F   0  0  0  0  0  0  0  0  0  0  0  0
  161.2650  206.1920  151.0970 C   0  0  0  0  0  3  0  0  0  0  0  0
  161.2540  204.9500  151.5790 C   0  0  0  0  0  3  0  0  0  0  0  0
  160.4790  203.8870  150.8750 C   0  0  0  0  0  2  0  0  0  0  0  0
  160.7500  203.9230  149.5070 O   0  0  0  0  0  0  0  0  0  0  0  0
  161.2480  202.6510  149.2140 C   0  0  0  0  0  2  0  0  0  0  0  0
  160.8500  202.2460  147.8030 C   0  0  2  0  0  3  0  0  0  0  0  0
  161.3430  200.9690  147.5230 O   0  0  0  0  0  1  0  0  0  0  0  0
  160.6300  204.1270  144.5700 C   0  0  0  0  0  3  0  0  0  0  0  0
  161.3290  203.2360  146.7800 C   0  0  0  0  0  0  0  0  0  0  0  0
  162.3360  205.7080  145.2680 N   0  0  0  0  0  0  0  0  0  0  0  0
  160.7980  203.1000  145.4020 C   0  0  0  0  0  0  0  0  0  0  0  0
  162.9330  205.1120  146.2540 C   0  0  0  0  0  3  0  0  0  0  0  0
  160.9280  205.5400  144.9460 C   0  0  0  0  0  2  0  0  0  0  0  0
  162.2950  204.1080  147.1270 C   0  0  0  0  0  3  0  0  0  0  0  0
  160.4070  201.8740  144.9750 F   0  0  0  0  0  0  0  0  0  0  0  0
  1  2  1  6  0  0  0
  1 24  1  0  0  0  0
  3  1  1  0  0  0  0
  4  3  1  0  0  0  0
  5  4  1  0  0  0  0
  6  5  1  0  0  0  0
  6  7  1  0  0  0  0
  9 10  2  0  0  0  0
 10  8  2  0  0  0  0
 10  6  1  0  0  0  0
 11 15  1  1  0  0  0
 11 13  1  0  0  0  0
 11 12  1  0  0  0  0
 12 10  1  1  0  0  0
 13 14  1  1  0  0  0
 13 12  1  0  0  0  0
 16 11  1  0  0  0  0
 17 22  1  0  0  0  0
 18 21  1  0  0  0  0
 19 23  1  0  0  0  0
 20 18  1  0  0  0  0
 20 22  1  0  0  0  0
 21 23  1  0  0  0  0
 22 19  2  0  0  0  0
 23 16  1  1  0  0  0
 24 25  1  0  0  0  0
 25 30  1  6  0  0  0
 25 28  1  0  0  0  0
 27 28  1  0  0  0  0
 28 26  1  0  0  0  0
 28 29  1  0  0  0  0
 30 31  2  0  0  0  0
 32 31  1  0  0  0  0
 33 32  1  0  0  0  0
 34 33  1  0  0  0  0
 35 36  1  6  0  0  0
 35 34  1  0  0  0  0
 37 42  1  0  0  0  0
 37 40  2  0  0  0  0
 38 43  2  0  0  0  0
 38 35  1  0  0  0  0
 39 41  2  0  0  0  0
 40 38  1  0  0  0  0
 41 43  1  0  0  0  0
 42 39  1  0  0  0  0
 44 40  1  0  0  0  0
M  END
>  <MODEL>
7

>  <REMARK>
 VINA RESULT:      -6.1      5.018      6.829
  Name = 
  17 active torsions:
  status: ('A' for Active; 'I' for Inactive)
    1  A    between atoms: C_2  and  C_8
    2  A    between atoms: C_2  and  N_35
    3  A    between atoms: C_3  and  O_11
    4  A    between atoms: C_3  and  C_15
    5  A    between atoms: C_5  and  O_32
    6  A    between atoms: C_7  and  S_29
    7  A    between atoms: C_8  and  C_20
    8  A    between atoms: C_9  and  C_39
    9  A    between atoms: O_11  and  C_28
   10  A    between atoms: C_12  and  C_20
   11  A    between atoms: C_12  and  N_42
   12  A    between atoms: C_15  and  C_16
   13  A    between atoms: C_23  and  C_28
   14  A    between atoms: S_29  and  N_42
   15  A    between atoms: O_32  and  C_41
   16  A    between atoms: N_35  and  C_39
   17  A    between atoms: C_38  and  C_39
                            x       y       z     vdW  Elec       q    Type
                         _______ _______ _______ _____ _____    ______ ____

>  <TORSDO>
F 17

$$$$
=
 OpenBabel11072413213D

 44 46  0  0  1  0  0  0  0  0999 V2000
  160.3340  208.7690  156.0440 C   0  0  2  0  0  3  0  0  0  0  0  0
  159.7340  207.5120  156.1570 O   0  0  0  0  0  1  0  0  0  0  0  0
  159.3100  209.8220  155.6360 C   0  0  0  0  0  2  0  0  0  0  0  0
  159.5490  211.1540  156.3360 C   0  0  0  0  0  2  0  0  0  0  0  0
  159.5780  212.2840  155.3190 C   0  0  0  0  0  2  0  0  0  0  0  0
  158.7120  213.3710  155.7450 N   0  0  0  0  0  0  0  0  0  0  0  0
  158.1680  213.0110  157.0460 C   0  0  0  0  0  1  0  0  0  0  0  0
  156.2700  214.2320  155.2930 O   0  0  0  0  0  0  0  0  0  0  0  0
  156.8940  212.1060  154.2740 O   0  0  0  0  0  0  0  0  0  0  0  0
  157.3890  213.4850  154.6250 S   0  0  0  0  0  0  0  0  0  0  0  0
  158.2290  213.7050  151.8790 C   0  0  2  0  0  0  0  0  0  0  0  0
  157.9080  214.4490  153.1760 C   0  0  1  0  0  3  0  0  0  0  0  0
  156.9020  214.4530  152.0100 C   0  0  2  0  0  3  0  0  0  0  0  0
  155.8400  213.5620  152.1970 O   0  0  0  0  0  1  0  0  0  0  0  0
  158.2660  212.1760  151.8820 C   0  0  0  0  0  1  0  0  0  0  0  0
  159.2120  214.3680  151.1230 O   0  0  0  0  0  0  0  0  0  0  0  0
  162.6780  212.9400  148.3420 F   0  0  0  0  0  0  0  0  0  0  0  0
  159.0570  213.6370  147.4810 C   0  0  0  0  0  2  0  0  0  0  0  0
  160.8360  213.3450  149.7050 C   0  0  0  0  0  3  0  0  0  0  0  0
  160.5670  213.5890  147.2360 C   0  0  0  0  0  2  0  0  0  0  0  0
  158.7590  214.4010  148.7630 C   0  0  0  0  0  2  0  0  0  0  0  0
  161.3580  213.2360  148.4750 C   0  0  0  0  0  0  0  0  0  0  0  0
  159.3760  213.6410  149.9350 C   0  0  2  0  0  3  0  0  0  0  0  0
  161.4270  208.7100  155.0860 N   0  0  0  0  0  2  0  0  0  0  0  0
  160.8700  208.1590  153.8590 C   0  0  1  0  0  3  0  0  0  0  0  0
  160.2970  209.2250  151.8040 F   0  0  0  0  0  0  0  0  0  0  0  0
  161.9470  210.1130  153.0420 F   0  0  0  0  0  0  0  0  0  0  0  0
  161.3620  208.9290  152.6330 C   0  0  0  0  0  0  0  0  0  0  0  0
  162.2940  208.1870  151.9320 F   0  0  0  0  0  0  0  0  0  0  0  0
  161.1210  206.6790  153.7760 C   0  0  0  0  0  3  0  0  0  0  0  0
  161.0340  205.9930  152.6370 C   0  0  0  0  0  3  0  0  0  0  0  0
  161.2970  204.5250  152.6330 C   0  0  0  0  0  2  0  0  0  0  0  0
  162.3850  204.2360  151.8080 O   0  0  0  0  0  0  0  0  0  0  0  0
  161.9220  203.2330  150.9540 C   0  0  0  0  0  2  0  0  0  0  0  0
  160.6820  203.7090  150.2120 C   0  0  2  0  0  3  0  0  0  0  0  0
  159.8250  202.6290  149.9880 O   0  0  0  0  0  1  0  0  0  0  0  0
  161.4280  206.6840  148.0610 C   0  0  0  0  0  3  0  0  0  0  0  0
  161.0300  204.3870  148.9180 C   0  0  0  0  0  0  0  0  0  0  0  0
  162.2890  205.2880  146.2690 N   0  0  0  0  0  0  0  0  0  0  0  0
  160.7230  205.8350  148.8060 C   0  0  0  0  0  0  0  0  0  0  0  0
  161.8230  204.1070  146.5390 C   0  0  0  0  0  3  0  0  0  0  0  0
  162.6320  206.2780  147.2770 C   0  0  0  0  0  2  0  0  0  0  0  0
  161.4840  203.6380  147.8960 C   0  0  0  0  0  3  0  0  0  0  0  0
  159.7040  206.3400  149.5430 F   0  0  0  0  0  0  0  0  0  0  0  0
  1  2  1  6  0  0  0
  3  1  1  0  0  0  0
  3  4  1  0  0  0  0
  5  6  1  0  0  0  0
  5  4  1  0  0  0  0
  6  7  1  0  0  0  0
  9 10  2  0  0  0  0
 10  8  2  0  0  0  0
 10  6  1  0  0  0  0
 11 15  1  1  0  0  0
 11 13  1  0  0  0  0
 11 12  1  0  0  0  0
 12 10  1  1  0  0  0
 13 14  1  1  0  0  0
 13 12  1  0  0  0  0
 16 11  1  0  0  0  0
 17 22  1  0  0  0  0
 18 21  1  0  0  0  0
 19 23  1  0  0  0  0
 20 18  1  0  0  0  0
 20 22  1  0  0  0  0
 21 23  1  0  0  0  0
 22 19  2  0  0  0  0
 23 16  1  1  0  0  0
 24  1  1  0  0  0  0
 25 30  1  6  0  0  0
 25 24  1  0  0  0  0
 26 28  1  0  0  0  0
 28 27  1  0  0  0  0
 28 25  1  0  0  0  0
 29 28  1  0  0  0  0
 31 30  2  0  0  0  0
 32 31  1  0  0  0  0
 33 32  1  0  0  0  0
 34 33  1  0  0  0  0
 35 36  1  6  0  0  0
 35 34  1  0  0  0  0
 37 40  2  0  0  0  0
 38 35  1  0  0  0  0
 39 41  2  0  0  0  0
 39 42  1  0  0  0  0
 40 38  1  0  0  0  0
 40 44  1  0  0  0  0
 41 43  1  0  0  0  0
 42 37  1  0  0  0  0
 43 38  2  0  0  0  0
M  END
>  <MODEL>
8

>  <REMARK>
 VINA RESULT:      -6.1      2.391      3.667
  Name = 
  17 active torsions:
  status: ('A' for Active; 'I' for Inactive)
    1  A    between atoms: C_2  and  C_8
    2  A    between atoms: C_2  and  N_35
    3  A    between atoms: C_3  and  O_11
    4  A    between atoms: C_3  and  C_15
    5  A    between atoms: C_5  and  O_32
    6  A    between atoms: C_7  and  S_29
    7  A    between atoms: C_8  and  C_20
    8  A    between atoms: C_9  and  C_39
    9  A    between atoms: O_11  and  C_28
   10  A    between atoms: C_12  and  C_20
   11  A    between atoms: C_12  and  N_42
   12  A    between atoms: C_15  and  C_16
   13  A    between atoms: C_23  and  C_28
   14  A    between atoms: S_29  and  N_42
   15  A    between atoms: O_32  and  C_41
   16  A    between atoms: N_35  and  C_39
   17  A    between atoms: C_38  and  C_39
                            x       y       z     vdW  Elec       q    Type
                         _______ _______ _______ _____ _____    ______ ____

>  <TORSDO>
F 17

$$$$
=
 OpenBabel11072413213D

 44 46  0  0  1  0  0  0  0  0999 V2000
  161.5790  207.3800  148.8650 C   0  0  2  0  0  3  0  0  0  0  0  0
  160.8580  207.8310  149.9740 O   0  0  0  0  0  1  0  0  0  0  0  0
  162.1870  208.5530  148.1040 C   0  0  0  0  0  2  0  0  0  0  0  0
  162.3350  209.7890  148.9810 C   0  0  0  0  0  2  0  0  0  0  0  0
  161.4460  210.9090  148.4630 C   0  0  0  0  0  2  0  0  0  0  0  0
  162.1780  211.7430  147.5240 N   0  0  0  0  0  0  0  0  0  0  0  0
  163.2680  212.3710  148.2560 C   0  0  0  0  0  1  0  0  0  0  0  0
  161.3550  214.2240  147.8010 O   0  0  0  0  0  0  0  0  0  0  0  0
  159.6810  212.5730  147.1510 O   0  0  0  0  0  0  0  0  0  0  0  0
  161.1140  212.9970  146.9660 S   0  0  0  0  0  0  0  0  0  0  0  0
  160.6640  212.8180  144.1270 C   0  0  2  0  0  0  0  0  0  0  0  0
  161.5220  213.4130  145.2460 C   0  0  1  0  0  3  0  0  0  0  0  0
  160.4730  214.2810  144.5260 C   0  0  2  0  0  3  0  0  0  0  0  0
  159.2970  214.4500  145.2650 O   0  0  0  0  0  1  0  0  0  0  0  0
  159.6050  211.7710  144.4720 C   0  0  0  0  0  1  0  0  0  0  0  0
  161.4060  212.6160  142.9490 O   0  0  0  0  0  0  0  0  0  0  0  0
  161.7310  209.5740  139.4240 F   0  0  0  0  0  0  0  0  0  0  0  0
  159.1100  212.2340  140.0500 C   0  0  0  0  0  2  0  0  0  0  0  0
  161.3220  210.9040  141.2890 C   0  0  0  0  0  3  0  0  0  0  0  0
  160.0240  211.3460  139.2040 C   0  0  0  0  0  2  0  0  0  0  0  0
  159.9270  212.9850  141.0910 C   0  0  0  0  0  2  0  0  0  0  0  0
  161.0190  210.5620  140.0290 C   0  0  0  0  0  0  0  0  0  0  0  0
  160.5600  211.9680  142.0380 C   0  0  2  0  0  3  0  0  0  0  0  0
  160.7140  206.5930  148.0000 N   0  0  0  0  0  2  0  0  0  0  0  0
  160.8970  205.2020  148.3900 C   0  0  1  0  0  3  0  0  0  0  0  0
  161.8550  203.1200  147.7320 F   0  0  0  0  0  0  0  0  0  0  0  0
  160.9170  204.4080  146.1510 F   0  0  0  0  0  0  0  0  0  0  0  0
  161.6580  204.4220  147.3170 C   0  0  0  0  0  0  0  0  0  0  0  0
  162.8840  205.0110  147.0630 F   0  0  0  0  0  0  0  0  0  0  0  0
  161.5210  205.1070  149.7540 C   0  0  0  0  0  3  0  0  0  0  0  0
  160.8300  204.7840  150.8460 C   0  0  0  0  0  3  0  0  0  0  0  0
  161.5200  204.7090  152.1660 C   0  0  0  0  0  2  0  0  0  0  0  0
  161.9870  205.9720  152.5350 O   0  0  0  0  0  0  0  0  0  0  0  0
  160.8540  206.6440  152.9980 C   0  0  0  0  0  2  0  0  0  0  0  0
  161.1870  207.4190  154.2640 C   0  0  2  0  0  3  0  0  0  0  0  0
  160.4070  206.9490  155.3230 O   0  0  0  0  0  1  0  0  0  0  0  0
  160.8140  210.5440  152.2300 C   0  0  0  0  0  3  0  0  0  0  0  0
  160.9960  208.8980  154.0810 C   0  0  0  0  0  0  0  0  0  0  0  0
  160.0340  211.8110  154.1500 N   0  0  0  0  0  0  0  0  0  0  0  0
  161.3990  209.4790  152.7760 C   0  0  0  0  0  0  0  0  0  0  0  0
  160.4030  211.0970  155.1690 C   0  0  0  0  0  3  0  0  0  0  0  0
  159.6630  211.2570  152.8580 C   0  0  0  0  0  2  0  0  0  0  0  0
  160.5920  209.6330  155.1340 C   0  0  0  0  0  3  0  0  0  0  0  0
  162.3770  208.8640  152.0670 F   0  0  0  0  0  0  0  0  0  0  0  0
  1  2  1  1  0  0  0
  3  1  1  0  0  0  0
  3  4  1  0  0  0  0
  5  4  1  0  0  0  0
  6  7  1  0  0  0  0
  6  5  1  0  0  0  0
 10  9  2  0  0  0  0
 10  6  1  0  0  0  0
 10  8  2  0  0  0  0
 11 15  1  1  0  0  0
 11 13  1  0  0  0  0
 11 12  1  0  0  0  0
 12 10  1  1  0  0  0
 13 12  1  0  0  0  0
 13 14  1  1  0  0  0
 16 11  1  0  0  0  0
 17 22  1  0  0  0  0
 18 21  1  0  0  0  0
 19 23  1  0  0  0  0
 20 22  1  0  0  0  0
 20 18  1  0  0  0  0
 21 23  1  0  0  0  0
 22 19  2  0  0  0  0
 23 16  1  1  0  0  0
 24 25  1  0  0  0  0
 24  1  1  0  0  0  0
 25 30  1  1  0  0  0
 27 28  1  0  0  0  0
 28 26  1  0  0  0  0
 28 25  1  0  0  0  0
 29 28  1  0  0  0  0
 30 31  2  0  0  0  0
 31 32  1  0  0  0  0
 32 33  1  0  0  0  0
 33 34  1  0  0  0  0
 34 35  1  0  0  0  0
 35 36  1  1  0  0  0
 37 40  2  0  0  0  0
 37 42  1  0  0  0  0
 38 35  1  0  0  0  0
 38 43  2  0  0  0  0
 39 41  2  0  0  0  0
 40 38  1  0  0  0  0
 42 39  1  0  0  0  0
 43 41  1  0  0  0  0
 44 40  1  0  0  0  0
M  END
>  <MODEL>
9

>  <REMARK>
 VINA RESULT:      -5.9      4.871      8.478
  Name = 
  17 active torsions:
  status: ('A' for Active; 'I' for Inactive)
    1  A    between atoms: C_2  and  C_8
    2  A    between atoms: C_2  and  N_35
    3  A    between atoms: C_3  and  O_11
    4  A    between atoms: C_3  and  C_15
    5  A    between atoms: C_5  and  O_32
    6  A    between atoms: C_7  and  S_29
    7  A    between atoms: C_8  and  C_20
    8  A    between atoms: C_9  and  C_39
    9  A    between atoms: O_11  and  C_28
   10  A    between atoms: C_12  and  C_20
   11  A    between atoms: C_12  and  N_42
   12  A    between atoms: C_15  and  C_16
   13  A    between atoms: C_23  and  C_28
   14  A    between atoms: S_29  and  N_42
   15  A    between atoms: O_32  and  C_41
   16  A    between atoms: N_35  and  C_39
   17  A    between atoms: C_38  and  C_39
                            x       y       z     vdW  Elec       q    Type
                         _______ _______ _______ _____ _____    ______ ____

>  <TORSDO>
F 17

$$$$
