=
 OpenBabel11072415093D

 39 45  0  0  1  0  0  0  0  0999 V2000
  160.5490  202.8800  150.5580 C   0  0  0  0  0  2  0  0  0  0  0  0
  162.2050  206.2790  151.4160 C   0  0  0  0  0  2  0  0  0  0  0  0
  161.1200  212.6850  150.1690 C   0  0  1  0  0  3  0  0  0  0  0  0
  160.5620  210.5860  151.2580 C   0  0  1  0  0  3  0  0  0  0  0  0
  160.8510  207.5820  149.7220 C   0  0  1  0  0  3  0  0  0  0  0  0
  159.6590  213.6950  148.3620 C   0  0  0  0  0  0  0  0  0  0  0  0
  162.5080  210.6790  149.5610 C   0  0  2  0  0  3  0  0  0  0  0  0
  160.3630  202.1210  149.2390 C   0  0  2  0  0  3  0  0  0  0  0  0
  160.0990  200.7790  149.5060 O   0  0  0  0  0  1  0  0  0  0  0  0
  158.6770  213.0050  150.4530 N   0  0  0  0  0  0  0  0  0  0  0  0
  159.9770  212.9580  151.1420 C   0  0  1  0  0  3  0  0  0  0  0  0
  163.2220  212.3310  148.2240 C   0  0  0  0  0  2  0  0  0  0  0  0
  161.1010  211.1820  149.9430 C   0  0  2  0  0  3  0  0  0  0  0  0
  158.5140  213.3610  149.2140 C   0  0  0  0  0  3  0  0  0  0  0  0
  162.2940  208.7340  151.2320 C   0  0  1  0  0  3  0  0  0  0  0  0
  158.6800  206.9480  149.0050 O   0  0  0  0  0  0  0  0  0  0  0  0
  161.5070  204.7080  149.0630 C   0  0  2  0  0  3  0  0  0  0  0  0
  161.5400  204.0550  150.4580 C   0  0  1  0  0  3  0  0  0  0  0  0
  161.5930  202.2370  148.3460 C   0  0  0  0  0  2  0  0  0  0  0  0
  161.7890  208.3550  148.8210 C   0  0  1  0  0  3  0  0  0  0  0  0
  162.8040  210.9950  148.2270 O   0  0  0  0  0  0  0  0  0  0  0  0
  160.2310  205.2800  148.8030 O   0  0  0  0  0  0  0  0  0  0  0  0
  161.3100  205.0630  151.5870 C   0  0  1  0  0  3  0  0  0  0  0  0
  161.8510  203.6980  147.9570 C   0  0  0  0  0  2  0  0  0  0  0  0
  159.8720  206.5820  149.1690 C   0  0  0  0  0  0  0  0  0  0  0  0
  161.6120  204.4300  152.9340 C   0  0  0  0  0  1  0  0  0  0  0  0
  161.6390  209.8460  152.0560 C   0  0  0  0  0  2  0  0  0  0  0  0
  160.0400  211.7580  152.0850 C   0  0  1  0  0  3  0  0  0  0  0  0
  161.3740  207.5240  151.1450 C   0  0  2  0  0  3  0  0  0  0  0  0
  161.0570  213.5580  148.8950 C   0  0  2  0  0  3  0  0  0  0  0  0
  162.6530  209.1650  149.7880 C   0  0  1  0  0  3  0  0  0  0  0  0
  162.0620  213.2130  147.7790 C   0  0  0  0  0  2  0  0  0  0  0  0
  162.6840  207.4320  148.0160 C   0  0  0  0  0  1  0  0  0  0  0  0
  159.4530  214.1430  147.2030 O   0  0  0  0  0  0  0  0  0  0  0  0
  157.9700  212.5980  153.0170 O   0  0  0  0  0  1  0  0  0  0  0  0
  158.7140  211.4350  152.7920 C   0  0  2  0  0  3  0  0  0  0  0  0
  158.9170  210.7020  154.0450 N   0  0  0  0  0  2  0  0  0  0  0  0
  160.7600  210.5570  155.5360 N   0  0  0  0  0  1  0  0  0  0  0  0
  159.7920  211.4560  154.9360 C   0  0  0  0  0  2  0  0  0  0  0  0
  2 23  1  0  0  0  0
  3 11  1  0  0  0  0
  4 27  1  0  0  0  0
  4 28  1  0  0  0  0
  5 29  1  0  0  0  0
  6 30  1  0  0  0  0
  6 14  1  0  0  0  0
  7 31  1  0  0  0  0
  7 13  1  0  0  0  0
  8  9  1  0  0  0  0
  8  1  1  0  0  0  0
 10 11  1  0  0  0  0
 11 28  1  0  0  0  0
 12 21  1  0  0  0  0
 13  3  1  0  0  0  0
 13  4  1  0  0  0  0
 14 10  2  0  0  0  0
 15 27  1  0  0  0  0
 16 25  2  0  0  0  0
 17 18  1  0  0  0  0
 18  1  1  0  0  0  0
 18 23  1  0  0  0  0
 19  8  1  0  0  0  0
 20  5  1  0  0  0  0
 20 31  1  0  0  0  0
 21  7  1  0  0  0  0
 22 17  1  0  0  0  0
 22 25  1  0  0  0  0
 23 26  1  0  0  0  0
 24 19  1  0  0  0  0
 24 17  1  0  0  0  0
 25  5  1  0  0  0  0
 28 36  1  0  0  0  0
 29 15  1  0  0  0  0
 29  2  1  0  0  0  0
 30  3  1  0  0  0  0
 31 15  1  0  0  0  0
 32 12  1  0  0  0  0
 32 30  1  0  0  0  0
 33 20  1  0  0  0  0
 34  6  2  0  0  0  0
 36 35  1  0  0  0  0
 36 37  1  0  0  0  0
 37 39  1  0  0  0  0
 39 38  1  0  0  0  0
M  END
>  <MODEL>
1

>  <REMARK>
 VINA RESULT:      -1.4      0.000      0.000
  Name = 
  3 active torsions:
  status: ('A' for Active; 'I' for Inactive)
    1  A    between atoms: N_8  and  C_30
    2  A    between atoms: N_8  and  C_38
    3  A    between atoms: C_30  and  C_32
                            x       y       z     vdW  Elec       q    Type
                         _______ _______ _______ _____ _____    ______ ____

>  <TORSDO>
F 3

$$$$
