=
 OpenBabel11072411263D

 35 40  0  0  1  0  0  0  0  0999 V2000
  161.3760  204.5100  148.5400 N   0  0  0  0  0  0  0  0  0  0  0  0
  161.6090  208.1430  149.6670 C   0  0  0  0  0  0  0  0  0  0  0  0
  162.3320  210.3610  154.1640 C   0  0  0  0  0  2  0  0  0  0  0  0
  161.3230  209.2980  152.1330 C   0  0  0  0  0  0  0  0  0  0  0  0
  161.6400  210.0850  151.0640 N   0  0  0  0  0  0  0  0  0  0  0  0
  160.8500  203.6220  150.7140 C   0  0  0  0  0  0  0  0  0  0  0  0
  160.5780  202.5550  151.5010 F   0  0  0  0  0  0  0  0  0  0  0  0
  160.8960  204.9110  151.2700 C   0  0  0  0  0  3  0  0  0  0  0  0
  161.0070  208.2150  155.4420 N   0  0  0  0  0  0  0  0  0  0  0  0
  162.3160  210.3010  155.7090 C   0  0  0  0  0  2  0  0  0  0  0  0
  161.0940  203.4410  149.3390 C   0  0  0  0  0  3  0  0  0  0  0  0
  161.1420  207.9350  152.0090 C   0  0  0  0  0  0  0  0  0  0  0  0
  160.8540  207.2980  153.2430 N   0  0  0  0  0  2  0  0  0  0  0  0
  161.4140  205.7540  149.0770 C   0  0  0  0  0  0  0  0  0  0  0  0
  161.0880  209.7330  153.5340 C   0  0  1  0  0  3  0  0  0  0  0  0
  161.2290  209.3770  156.2980 C   0  0  0  0  0  2  0  0  0  0  0  0
  160.8680  208.3880  154.1660 C   0  0  0  0  0  0  0  0  0  0  0  0
  161.1800  205.9830  150.4260 C   0  0  0  0  0  0  0  0  0  0  0  0
  161.2860  207.3340  150.7600 C   0  0  0  0  0  0  0  0  0  0  0  0
  161.7950  209.5320  149.8210 C   0  0  0  0  0  0  0  0  0  0  0  0
  161.7590  207.1950  148.2700 S   0  0  0  0  0  0  0  0  0  0  0  0
  162.1820  210.4090  148.6720 C   0  0  0  0  0  2  0  0  0  0  0  0
  161.8890  211.8760  148.9630 C   0  0  0  0  0  2  0  0  0  0  0  0
  162.0160  212.6440  147.8030 O   0  0  0  0  0  0  0  0  0  0  0  0
  161.4470  213.8740  148.1380 C   0  0  0  0  0  2  0  0  0  0  0  0
  160.4230  213.6860  149.2450 C   0  0  0  0  0  2  0  0  0  0  0  0
  159.1100  214.3660  148.8850 C   0  0  1  0  0  3  0  0  0  0  0  0
  157.4610  212.8220  147.3420 S   0  0  0  0  0  0  0  0  0  0  0  0
  158.7570  214.1000  147.4250 C   0  0  0  0  0  2  0  0  0  0  0  0
  157.1200  213.0710  149.0700 C   0  0  0  0  0  2  0  0  0  0  0  0
  158.0060  213.8110  149.7110 C   0  0  2  0  0  3  0  0  0  0  0  0
  158.0580  213.6820  153.5340 N   0  0  0  0  0  1  0  0  0  0  0  0
  158.7390  212.0950  151.9890 O   0  0  0  0  0  0  0  0  0  0  0  0
  157.9190  214.1120  151.1100 N   0  0  0  0  0  2  0  0  0  0  0  0
  158.2610  213.2410  152.1970 C   0  0  0  0  0  0  0  0  0  0  0  0
  1 14  2  0  0  0  0
  1 11  1  0  0  0  0
  2 20  2  0  0  0  0
  2 19  1  0  0  0  0
  3 10  1  0  0  0  0
  4 15  1  0  0  0  0
  5  4  2  0  0  0  0
  6  8  1  0  0  0  0
  6  7  1  0  0  0  0
  9 16  1  0  0  0  0
 10 16  1  0  0  0  0
 11  6  2  0  0  0  0
 12  4  1  0  0  0  0
 12 13  1  0  0  0  0
 13 17  1  0  0  0  0
 14 18  1  0  0  0  0
 15  3  1  1  0  0  0
 15 17  1  0  0  0  0
 17  9  2  0  0  0  0
 18 19  1  0  0  0  0
 18  8  2  0  0  0  0
 19 12  2  0  0  0  0
 20  5  1  0  0  0  0
 21 14  1  0  0  0  0
 21  2  1  0  0  0  0
 22 23  1  0  0  0  0
 22 20  1  0  0  0  0
 24 25  1  0  0  0  0
 24 23  1  0  0  0  0
 25 26  1  0  0  0  0
 27 26  1  1  0  0  0
 27 31  1  0  0  0  0
 28 29  1  0  0  0  0
 28 30  1  0  0  0  0
 29 27  1  0  0  0  0
 30 31  1  0  0  0  0
 31 34  1  6  0  0  0
 33 35  2  0  0  0  0
 34 35  1  0  0  0  0
 35 32  1  0  0  0  0
M  END
>  <MODEL>
1

>  <REMARK>
 VINA RESULT:      -8.1      0.000      0.000
  Name = 
  7 active torsions:
  status: ('A' for Active; 'I' for Inactive)
    1  A    between atoms: C_11  and  C_35
    2  A    between atoms: C_13  and  C_20
    3  A    between atoms: C_13  and  O_26
    4  A    between atoms: C_19  and  O_26
    5  A    between atoms: C_19  and  C_35
    6  A    between atoms: C_20  and  C_32
    7  A    between atoms: N_25  and  C_34
                            x       y       z     vdW  Elec       q    Type
                         _______ _______ _______ _____ _____    ______ ____

>  <TORSDO>
F 7

$$$$
=
 OpenBabel11072411263D

 35 40  0  0  1  0  0  0  0  0999 V2000
  161.4250  204.4240  148.3220 N   0  0  0  0  0  0  0  0  0  0  0  0
  161.6420  208.0490  149.4780 C   0  0  0  0  0  0  0  0  0  0  0  0
  162.2850  210.2360  154.0010 C   0  0  0  0  0  2  0  0  0  0  0  0
  161.3120  209.1880  151.9450 C   0  0  0  0  0  0  0  0  0  0  0  0
  161.6510  209.9820  150.8870 N   0  0  0  0  0  0  0  0  0  0  0  0
  160.8570  203.5230  150.4800 C   0  0  0  0  0  0  0  0  0  0  0  0
  160.5690  202.4500  151.2550 F   0  0  0  0  0  0  0  0  0  0  0  0
  160.8950  204.8070  151.0460 C   0  0  0  0  0  3  0  0  0  0  0  0
  160.9330  208.0840  155.2400 N   0  0  0  0  0  0  0  0  0  0  0  0
  162.2390  210.1660  155.5450 C   0  0  0  0  0  2  0  0  0  0  0  0
  161.1260  203.3500  149.1090 C   0  0  0  0  0  3  0  0  0  0  0  0
  161.1320  207.8260  151.8080 C   0  0  0  0  0  0  0  0  0  0  0  0
  160.8190  207.1820  153.0330 N   0  0  0  0  0  2  0  0  0  0  0  0
  161.4550  205.6640  148.8680 C   0  0  0  0  0  0  0  0  0  0  0  0
  161.0520  209.6150  153.3440 C   0  0  1  0  0  3  0  0  0  0  0  0
  161.1410  209.2400  156.1080 C   0  0  0  0  0  2  0  0  0  0  0  0
  160.8180  208.2660  153.9630 C   0  0  0  0  0  0  0  0  0  0  0  0
  161.1960  205.8840  150.2140 C   0  0  0  0  0  0  0  0  0  0  0  0
  161.2980  207.2340  150.5590 C   0  0  0  0  0  0  0  0  0  0  0  0
  161.8280  209.4370  149.6440 C   0  0  0  0  0  0  0  0  0  0  0  0
  161.8160  207.1090  148.0770 S   0  0  0  0  0  0  0  0  0  0  0  0
  162.2370  210.3210  148.5080 C   0  0  0  0  0  2  0  0  0  0  0  0
  161.9540  211.7870  148.8090 C   0  0  0  0  0  2  0  0  0  0  0  0
  162.5390  212.6110  147.8440 O   0  0  0  0  0  0  0  0  0  0  0  0
  161.4710  213.3400  147.3170 C   0  0  0  0  0  2  0  0  0  0  0  0
  161.3710  213.1000  145.8200 C   0  0  0  0  0  2  0  0  0  0  0  0
  160.0290  212.4760  145.4630 C   0  0  1  0  0  3  0  0  0  0  0  0
  158.0430  214.3100  145.0450 S   0  0  0  0  0  0  0  0  0  0  0  0
  158.9000  213.1900  146.1990 C   0  0  0  0  0  2  0  0  0  0  0  0
  158.8030  213.4640  143.6770 C   0  0  0  0  0  2  0  0  0  0  0  0
  159.7690  212.6270  144.0080 C   0  0  2  0  0  3  0  0  0  0  0  0
  162.1670  211.4640  141.2640 N   0  0  0  0  0  1  0  0  0  0  0  0
  161.9740  213.5370  142.2810 O   0  0  0  0  0  0  0  0  0  0  0  0
  160.5150  211.8650  143.0490 N   0  0  0  0  0  2  0  0  0  0  0  0
  161.5680  212.3470  142.2040 C   0  0  0  0  0  0  0  0  0  0  0  0
  1 14  2  0  0  0  0
  1 11  1  0  0  0  0
  2 20  2  0  0  0  0
  2 19  1  0  0  0  0
  3 10  1  0  0  0  0
  4 15  1  0  0  0  0
  5  4  2  0  0  0  0
  6  8  1  0  0  0  0
  6  7  1  0  0  0  0
  9 16  1  0  0  0  0
 10 16  1  0  0  0  0
 11  6  2  0  0  0  0
 12  4  1  0  0  0  0
 12 13  1  0  0  0  0
 13 17  1  0  0  0  0
 14 18  1  0  0  0  0
 15 17  1  0  0  0  0
 15  3  1  1  0  0  0
 17  9  2  0  0  0  0
 18 19  1  0  0  0  0
 18  8  2  0  0  0  0
 19 12  2  0  0  0  0
 20  5  1  0  0  0  0
 21 14  1  0  0  0  0
 21  2  1  0  0  0  0
 22 23  1  0  0  0  0
 22 20  1  0  0  0  0
 24 23  1  0  0  0  0
 25 24  1  0  0  0  0
 26 25  1  0  0  0  0
 27 26  1  6  0  0  0
 27 29  1  0  0  0  0
 28 29  1  0  0  0  0
 30 31  1  0  0  0  0
 30 28  1  0  0  0  0
 31 34  1  1  0  0  0
 31 27  1  0  0  0  0
 32 35  1  0  0  0  0
 35 33  2  0  0  0  0
 35 34  1  0  0  0  0
M  END
>  <MODEL>
2

>  <REMARK>
 VINA RESULT:      -8.0      2.887      4.065
  Name = 
  7 active torsions:
  status: ('A' for Active; 'I' for Inactive)
    1  A    between atoms: C_11  and  C_35
    2  A    between atoms: C_13  and  C_20
    3  A    between atoms: C_13  and  O_26
    4  A    between atoms: C_19  and  O_26
    5  A    between atoms: C_19  and  C_35
    6  A    between atoms: C_20  and  C_32
    7  A    between atoms: N_25  and  C_34
                            x       y       z     vdW  Elec       q    Type
                         _______ _______ _______ _____ _____    ______ ____

>  <TORSDO>
F 7

$$$$
=
 OpenBabel11072411263D

 35 40  0  0  1  0  0  0  0  0999 V2000
  161.0720  203.1000  148.5440 N   0  0  0  0  0  0  0  0  0  0  0  0
  161.3560  205.8310  151.1870 C   0  0  0  0  0  0  0  0  0  0  0  0
  160.9560  210.8790  151.0440 C   0  0  0  0  0  2  0  0  0  0  0  0
  161.8040  208.5230  150.9710 C   0  0  0  0  0  0  0  0  0  0  0  0
  161.6010  207.9810  152.2070 N   0  0  0  0  0  0  0  0  0  0  0  0
  161.4680  204.5500  146.6640 C   0  0  0  0  0  0  0  0  0  0  0  0
  161.5870  204.7140  145.3250 F   0  0  0  0  0  0  0  0  0  0  0  0
  161.6050  205.6530  147.5220 C   0  0  0  0  0  3  0  0  0  0  0  0
  161.9650  210.8900  148.4030 N   0  0  0  0  0  0  0  0  0  0  0  0
  160.9650  212.2040  150.2490 C   0  0  0  0  0  2  0  0  0  0  0  0
  161.2010  203.2740  147.1970 C   0  0  0  0  0  3  0  0  0  0  0  0
  161.7900  207.7540  149.8250 C   0  0  0  0  0  0  0  0  0  0  0  0
  161.9860  208.5150  148.6430 N   0  0  0  0  0  2  0  0  0  0  0  0
  161.2110  204.1650  149.3710 C   0  0  0  0  0  0  0  0  0  0  0  0
  162.0990  209.9430  150.6480 C   0  0  1  0  0  3  0  0  0  0  0  0
  161.9100  212.2080  149.0290 C   0  0  0  0  0  2  0  0  0  0  0  0
  162.1270  209.8430  149.1490 C   0  0  0  0  0  0  0  0  0  0  0  0
  161.4750  205.4410  148.8930 C   0  0  0  0  0  0  0  0  0  0  0  0
  161.5620  206.3840  149.9200 C   0  0  0  0  0  0  0  0  0  0  0  0
  161.3680  206.6390  152.3430 C   0  0  0  0  0  0  0  0  0  0  0  0
  161.0730  204.1650  151.0520 S   0  0  0  0  0  0  0  0  0  0  0  0
  161.1090  206.0730  153.7040 C   0  0  0  0  0  2  0  0  0  0  0  0
  160.6940  207.1570  154.6910 C   0  0  0  0  0  2  0  0  0  0  0  0
  160.4760  206.6130  155.9590 O   0  0  0  0  0  0  0  0  0  0  0  0
  160.2420  207.7200  156.7760 C   0  0  0  0  0  2  0  0  0  0  0  0
  159.4640  208.7750  156.0060 C   0  0  0  0  0  2  0  0  0  0  0  0
  159.9580  210.1710  156.3580 C   0  0  1  0  0  3  0  0  0  0  0  0
  162.6700  210.4610  156.1370 S   0  0  0  0  0  0  0  0  0  0  0  0
  161.2320  210.0880  157.1920 C   0  0  0  0  0  2  0  0  0  0  0  0
  161.5780  211.1530  154.9140 C   0  0  0  0  0  2  0  0  0  0  0  0
  160.2940  210.9180  155.1180 C   0  0  2  0  0  3  0  0  0  0  0  0
  157.3590  212.7620  153.4980 N   0  0  0  0  0  1  0  0  0  0  0  0
  158.4760  213.2060  155.4790 O   0  0  0  0  0  0  0  0  0  0  0  0
  159.2590  211.3740  154.2370 N   0  0  0  0  0  2  0  0  0  0  0  0
  158.3730  212.4800  154.4560 C   0  0  0  0  0  0  0  0  0  0  0  0
  1 14  1  0  0  0  0
  2 20  1  0  0  0  0
  4  5  1  0  0  0  0
  5 20  2  0  0  0  0
  6 11  1  0  0  0  0
  6  8  2  0  0  0  0
  7  6  1  0  0  0  0
  8 18  1  0  0  0  0
  9 16  1  0  0  0  0
  9 17  2  0  0  0  0
 10  3  1  0  0  0  0
 11  1  2  0  0  0  0
 12 19  1  0  0  0  0
 12  4  2  0  0  0  0
 13 17  1  0  0  0  0
 13 12  1  0  0  0  0
 14 21  1  0  0  0  0
 15  4  1  0  0  0  0
 15  3  1  6  0  0  0
 16 10  1  0  0  0  0
 17 15  1  0  0  0  0
 18 14  2  0  0  0  0
 18 19  1  0  0  0  0
 19  2  2  0  0  0  0
 20 22  1  0  0  0  0
 21  2  1  0  0  0  0
 22 23  1  0  0  0  0
 23 24  1  0  0  0  0
 24 25  1  0  0  0  0
 26 25  1  0  0  0  0
 27 26  1  6  0  0  0
 27 29  1  0  0  0  0
 28 29  1  0  0  0  0
 30 31  1  0  0  0  0
 30 28  1  0  0  0  0
 31 34  1  1  0  0  0
 31 27  1  0  0  0  0
 32 35  1  0  0  0  0
 34 35  1  0  0  0  0
 35 33  2  0  0  0  0
M  END
>  <MODEL>
3

>  <REMARK>
 VINA RESULT:      -7.8      3.243      5.869
  Name = 
  7 active torsions:
  status: ('A' for Active; 'I' for Inactive)
    1  A    between atoms: C_11  and  C_35
    2  A    between atoms: C_13  and  C_20
    3  A    between atoms: C_13  and  O_26
    4  A    between atoms: C_19  and  O_26
    5  A    between atoms: C_19  and  C_35
    6  A    between atoms: C_20  and  C_32
    7  A    between atoms: N_25  and  C_34
                            x       y       z     vdW  Elec       q    Type
                         _______ _______ _______ _____ _____    ______ ____

>  <TORSDO>
F 7

$$$$
=
 OpenBabel11072411263D

 35 40  0  0  1  0  0  0  0  0999 V2000
  160.4910  209.7310  154.7050 N   0  0  0  0  0  0  0  0  0  0  0  0
  161.4270  208.3200  151.2910 C   0  0  0  0  0  0  0  0  0  0  0  0
  160.7550  203.8140  149.0740 C   0  0  0  0  0  2  0  0  0  0  0  0
  161.6550  205.7430  150.3950 C   0  0  0  0  0  0  0  0  0  0  0  0
  161.8630  206.7710  149.5210 N   0  0  0  0  0  0  0  0  0  0  0  0
  160.2270  207.5930  155.7790 C   0  0  0  0  0  0  0  0  0  0  0  0
  159.9270  206.8760  156.8880 F   0  0  0  0  0  0  0  0  0  0  0  0
  160.5630  206.9330  154.5860 C   0  0  0  0  0  3  0  0  0  0  0  0
  160.9150  202.5440  151.5950 N   0  0  0  0  0  0  0  0  0  0  0  0
  160.4570  202.3010  149.1730 C   0  0  0  0  0  2  0  0  0  0  0  0
  160.1970  209.0000  155.8190 C   0  0  0  0  0  3  0  0  0  0  0  0
  161.3330  205.9640  151.7190 C   0  0  0  0  0  0  0  0  0  0  0  0
  161.1240  204.7640  152.4470 N   0  0  0  0  0  2  0  0  0  0  0  0
  160.8210  209.0920  153.5550 C   0  0  0  0  0  0  0  0  0  0  0  0
  161.7680  204.2880  150.1170 C   0  0  1  0  0  3  0  0  0  0  0  0
  160.9860  201.6310  150.4580 C   0  0  0  0  0  2  0  0  0  0  0  0
  161.3460  203.7580  151.4590 C   0  0  0  0  0  0  0  0  0  0  0  0
  160.8650  207.7080  153.4670 C   0  0  0  0  0  0  0  0  0  0  0  0
  161.2120  207.2690  152.1880 C   0  0  0  0  0  0  0  0  0  0  0  0
  161.7490  208.0680  149.9410 C   0  0  0  0  0  0  0  0  0  0  0  0
  161.1990  209.8060  152.0750 S   0  0  0  0  0  0  0  0  0  0  0  0
  161.9420  209.1780  148.9560 C   0  0  0  0  0  2  0  0  0  0  0  0
  162.2640  210.4950  149.6510 C   0  0  0  0  0  2  0  0  0  0  0  0
  162.7060  211.4450  148.7270 O   0  0  0  0  0  0  0  0  0  0  0  0
  161.5370  212.0600  148.2770 C   0  0  0  0  0  2  0  0  0  0  0  0
  160.9530  212.9310  149.3770 C   0  0  0  0  0  2  0  0  0  0  0  0
  160.0160  213.9780  148.7950 C   0  0  1  0  0  3  0  0  0  0  0  0
  158.1000  212.9380  147.1420 S   0  0  0  0  0  0  0  0  0  0  0  0
  159.7490  213.6920  147.3210 C   0  0  0  0  0  2  0  0  0  0  0  0
  157.6870  213.4780  148.7860 C   0  0  0  0  0  2  0  0  0  0  0  0
  158.7050  213.9330  149.4940 C   0  0  2  0  0  3  0  0  0  0  0  0
  158.3190  214.2150  153.2900 N   0  0  0  0  0  1  0  0  0  0  0  0
  158.5790  212.3320  151.9630 O   0  0  0  0  0  0  0  0  0  0  0  0
  158.5810  214.3970  150.8450 N   0  0  0  0  0  2  0  0  0  0  0  0
  158.4970  213.5880  152.0250 C   0  0  0  0  0  0  0  0  0  0  0  0
  1 11  1  0  0  0  0
  2 21  1  0  0  0  0
  2 19  1  0  0  0  0
  3 10  1  0  0  0  0
  4 12  1  0  0  0  0
  5 20  1  0  0  0  0
  5  4  2  0  0  0  0
  6 11  2  0  0  0  0
  6  7  1  0  0  0  0
  8  6  1  0  0  0  0
 10 16  1  0  0  0  0
 12 19  2  0  0  0  0
 12 13  1  0  0  0  0
 14  1  2  0  0  0  0
 15  3  1  6  0  0  0
 15  4  1  0  0  0  0
 15 17  1  0  0  0  0
 16  9  1  0  0  0  0
 17  9  2  0  0  0  0
 17 13  1  0  0  0  0
 18 14  1  0  0  0  0
 18  8  2  0  0  0  0
 19 18  1  0  0  0  0
 20  2  2  0  0  0  0
 21 14  1  0  0  0  0
 22 23  1  0  0  0  0
 22 20  1  0  0  0  0
 24 23  1  0  0  0  0
 25 24  1  0  0  0  0
 25 26  1  0  0  0  0
 27 26  1  1  0  0  0
 27 31  1  0  0  0  0
 28 29  1  0  0  0  0
 28 30  1  0  0  0  0
 29 27  1  0  0  0  0
 30 31  1  0  0  0  0
 31 34  1  6  0  0  0
 33 35  2  0  0  0  0
 34 35  1  0  0  0  0
 35 32  1  0  0  0  0
M  END
>  <MODEL>
4

>  <REMARK>
 VINA RESULT:      -7.6      1.958      4.681
  Name = 
  7 active torsions:
  status: ('A' for Active; 'I' for Inactive)
    1  A    between atoms: C_11  and  C_35
    2  A    between atoms: C_13  and  C_20
    3  A    between atoms: C_13  and  O_26
    4  A    between atoms: C_19  and  O_26
    5  A    between atoms: C_19  and  C_35
    6  A    between atoms: C_20  and  C_32
    7  A    between atoms: N_25  and  C_34
                            x       y       z     vdW  Elec       q    Type
                         _______ _______ _______ _____ _____    ______ ____

>  <TORSDO>
F 7

$$$$
=
 OpenBabel11072411263D

 35 40  0  0  1  0  0  0  0  0999 V2000
  161.0900  203.2220  148.7640 N   0  0  0  0  0  0  0  0  0  0  0  0
  161.2700  206.0670  151.2920 C   0  0  0  0  0  0  0  0  0  0  0  0
  160.9040  211.1050  150.9060 C   0  0  0  0  0  2  0  0  0  0  0  0
  161.7420  208.7460  150.9760 C   0  0  0  0  0  0  0  0  0  0  0  0
  161.4800  208.2600  152.2250 N   0  0  0  0  0  0  0  0  0  0  0  0
  161.5770  204.5840  146.8400 C   0  0  0  0  0  0  0  0  0  0  0  0
  161.7560  204.6880  145.5020 F   0  0  0  0  0  0  0  0  0  0  0  0
  161.6820  205.7240  147.6530 C   0  0  0  0  0  3  0  0  0  0  0  0
  162.0300  210.9940  148.3150 N   0  0  0  0  0  0  0  0  0  0  0  0
  160.9560  212.3930  150.0540 C   0  0  0  0  0  2  0  0  0  0  0  0
  161.2790  203.3350  147.4170 C   0  0  0  0  0  3  0  0  0  0  0  0
  161.7740  207.9260  149.8660 C   0  0  0  0  0  0  0  0  0  0  0  0
  162.0270  208.6330  148.6620 N   0  0  0  0  0  2  0  0  0  0  0  0
  161.1970  204.3220  149.5480 C   0  0  0  0  0  0  0  0  0  0  0  0
  162.0580  210.1480  150.6040 C   0  0  1  0  0  3  0  0  0  0  0  0
  161.9540  212.3400  148.8790 C   0  0  0  0  0  2  0  0  0  0  0  0
  162.1530  209.9810  149.1130 C   0  0  0  0  0  0  0  0  0  0  0  0
  161.4890  205.5750  149.0260 C   0  0  0  0  0  0  0  0  0  0  0  0
  161.5350  206.5620  150.0120 C   0  0  0  0  0  0  0  0  0  0  0  0
  161.2350  206.9260  152.4100 C   0  0  0  0  0  0  0  0  0  0  0  0
  160.9840  204.3980  151.2190 S   0  0  0  0  0  0  0  0  0  0  0  0
  160.9120  206.4230  153.7820 C   0  0  0  0  0  2  0  0  0  0  0  0
  161.1030  207.5080  154.8350 C   0  0  0  0  0  2  0  0  0  0  0  0
  159.9130  207.7340  155.5310 O   0  0  0  0  0  0  0  0  0  0  0  0
  159.9770  209.0790  155.9000 C   0  0  0  0  0  2  0  0  0  0  0  0
  159.2430  209.9300  154.8770 C   0  0  0  0  0  2  0  0  0  0  0  0
  159.1510  211.3750  155.3450 C   0  0  1  0  0  3  0  0  0  0  0  0
  158.8970  213.1760  153.3020 S   0  0  0  0  0  0  0  0  0  0  0  0
  159.9910  212.2790  154.4490 C   0  0  0  0  0  2  0  0  0  0  0  0
  157.5010  212.7540  154.3210 C   0  0  0  0  0  2  0  0  0  0  0  0
  157.7460  211.8500  155.2530 C   0  0  2  0  0  3  0  0  0  0  0  0
  154.6080  210.3520  156.8480 N   0  0  0  0  0  1  0  0  0  0  0  0
  155.2190  210.4790  154.6160 O   0  0  0  0  0  0  0  0  0  0  0  0
  156.7490  211.3640  156.1620 N   0  0  0  0  0  2  0  0  0  0  0  0
  155.5140  210.7220  155.8160 C   0  0  0  0  0  0  0  0  0  0  0  0
  1 14  1  0  0  0  0
  2 20  1  0  0  0  0
  4  5  1  0  0  0  0
  5 20  2  0  0  0  0
  6 11  1  0  0  0  0
  6  8  2  0  0  0  0
  7  6  1  0  0  0  0
  8 18  1  0  0  0  0
  9 16  1  0  0  0  0
  9 17  2  0  0  0  0
 10  3  1  0  0  0  0
 11  1  2  0  0  0  0
 12 19  1  0  0  0  0
 12  4  2  0  0  0  0
 13 17  1  0  0  0  0
 13 12  1  0  0  0  0
 14 21  1  0  0  0  0
 15  3  1  6  0  0  0
 15  4  1  0  0  0  0
 16 10  1  0  0  0  0
 17 15  1  0  0  0  0
 18 14  2  0  0  0  0
 18 19  1  0  0  0  0
 19  2  2  0  0  0  0
 20 22  1  0  0  0  0
 21  2  1  0  0  0  0
 22 23  1  0  0  0  0
 23 24  1  0  0  0  0
 24 25  1  0  0  0  0
 26 25  1  0  0  0  0
 27 26  1  6  0  0  0
 28 30  1  0  0  0  0
 28 29  1  0  0  0  0
 29 27  1  0  0  0  0
 30 31  1  0  0  0  0
 31 27  1  0  0  0  0
 31 34  1  1  0  0  0
 33 35  2  0  0  0  0
 35 34  1  0  0  0  0
 35 32  1  0  0  0  0
M  END
>  <MODEL>
5

>  <REMARK>
 VINA RESULT:      -7.5      3.258      5.381
  Name = 
  7 active torsions:
  status: ('A' for Active; 'I' for Inactive)
    1  A    between atoms: C_11  and  C_35
    2  A    between atoms: C_13  and  C_20
    3  A    between atoms: C_13  and  O_26
    4  A    between atoms: C_19  and  O_26
    5  A    between atoms: C_19  and  C_35
    6  A    between atoms: C_20  and  C_32
    7  A    between atoms: N_25  and  C_34
                            x       y       z     vdW  Elec       q    Type
                         _______ _______ _______ _____ _____    ______ ____

>  <TORSDO>
F 7

$$$$
=
 OpenBabel11072411263D

 35 40  0  0  1  0  0  0  0  0999 V2000
  161.3480  204.1690  148.5000 N   0  0  0  0  0  0  0  0  0  0  0  0
  161.5010  207.8160  149.5950 C   0  0  0  0  0  0  0  0  0  0  0  0
  162.1950  210.0900  154.0680 C   0  0  0  0  0  2  0  0  0  0  0  0
  161.2000  208.9850  152.0510 C   0  0  0  0  0  0  0  0  0  0  0  0
  161.4930  209.7700  150.9740 N   0  0  0  0  0  0  0  0  0  0  0  0
  160.8550  203.2880  150.6850 C   0  0  0  0  0  0  0  0  0  0  0  0
  160.6130  202.2210  151.4830 F   0  0  0  0  0  0  0  0  0  0  0  0
  160.8740  204.5820  151.2300 C   0  0  0  0  0  3  0  0  0  0  0  0
  160.9280  207.9250  155.3720 N   0  0  0  0  0  0  0  0  0  0  0  0
  162.1880  210.0430  155.6130 C   0  0  0  0  0  2  0  0  0  0  0  0
  161.0960  203.1010  149.3110 C   0  0  0  0  0  3  0  0  0  0  0  0
  161.0520  207.6180  151.9400 C   0  0  0  0  0  0  0  0  0  0  0  0
  160.7850  206.9850  153.1820 N   0  0  0  0  0  2  0  0  0  0  0  0
  161.3600  205.4180  149.0260 C   0  0  0  0  0  0  0  0  0  0  0  0
  160.9620  209.4280  153.4500 C   0  0  1  0  0  3  0  0  0  0  0  0
  161.1270  209.1000  156.2160 C   0  0  0  0  0  2  0  0  0  0  0  0
  160.7780  208.0830  154.0940 C   0  0  0  0  0  0  0  0  0  0  0  0
  161.1280  205.6530  150.3740 C   0  0  0  0  0  0  0  0  0  0  0  0
  161.2030  207.0090  150.6960 C   0  0  0  0  0  0  0  0  0  0  0  0
  161.6550  209.2110  149.7350 C   0  0  0  0  0  0  0  0  0  0  0  0
  161.6650  206.8590  148.2050 S   0  0  0  0  0  0  0  0  0  0  0  0
  162.0140  210.0860  148.5760 C   0  0  0  0  0  2  0  0  0  0  0  0
  162.0580  211.5560  148.9770 C   0  0  0  0  0  2  0  0  0  0  0  0
  162.0770  212.3750  147.8460 O   0  0  0  0  0  0  0  0  0  0  0  0
  160.7400  212.7220  147.6460 C   0  0  0  0  0  2  0  0  0  0  0  0
  160.3770  212.5620  146.1790 C   0  0  0  0  0  2  0  0  0  0  0  0
  160.1170  213.9170  145.5380 C   0  0  1  0  0  3  0  0  0  0  0  0
  159.2790  213.7570  142.9380 S   0  0  0  0  0  0  0  0  0  0  0  0
  160.6600  213.9430  144.1120 C   0  0  0  0  0  2  0  0  0  0  0  0
  158.1330  214.1510  144.2420 C   0  0  0  0  0  2  0  0  0  0  0  0
  158.6550  214.1680  145.4540 C   0  0  2  0  0  3  0  0  0  0  0  0
  156.3760  213.9660  148.5210 N   0  0  0  0  0  1  0  0  0  0  0  0
  157.0950  212.2850  147.0960 O   0  0  0  0  0  0  0  0  0  0  0  0
  157.8930  214.4450  146.6370 N   0  0  0  0  0  2  0  0  0  0  0  0
  157.1220  213.5070  147.4000 C   0  0  0  0  0  0  0  0  0  0  0  0
  1 14  2  0  0  0  0
  1 11  1  0  0  0  0
  2 20  2  0  0  0  0
  2 19  1  0  0  0  0
  3 10  1  0  0  0  0
  4 15  1  0  0  0  0
  5  4  2  0  0  0  0
  6  8  1  0  0  0  0
  6  7  1  0  0  0  0
  9 16  1  0  0  0  0
 10 16  1  0  0  0  0
 11  6  2  0  0  0  0
 12  4  1  0  0  0  0
 12 13  1  0  0  0  0
 13 17  1  0  0  0  0
 14 18  1  0  0  0  0
 15  3  1  1  0  0  0
 15 17  1  0  0  0  0
 17  9  2  0  0  0  0
 18 19  1  0  0  0  0
 18  8  2  0  0  0  0
 19 12  2  0  0  0  0
 20  5  1  0  0  0  0
 21 14  1  0  0  0  0
 21  2  1  0  0  0  0
 22 23  1  0  0  0  0
 22 20  1  0  0  0  0
 24 23  1  0  0  0  0
 25 24  1  0  0  0  0
 26 25  1  0  0  0  0
 27 26  1  6  0  0  0
 28 29  1  0  0  0  0
 28 30  1  0  0  0  0
 29 27  1  0  0  0  0
 30 31  1  0  0  0  0
 31 27  1  0  0  0  0
 31 34  1  6  0  0  0
 33 35  2  0  0  0  0
 34 35  1  0  0  0  0
 35 32  1  0  0  0  0
M  END
>  <MODEL>
6

>  <REMARK>
 VINA RESULT:      -7.5      1.988      2.446
  Name = 
  7 active torsions:
  status: ('A' for Active; 'I' for Inactive)
    1  A    between atoms: C_11  and  C_35
    2  A    between atoms: C_13  and  C_20
    3  A    between atoms: C_13  and  O_26
    4  A    between atoms: C_19  and  O_26
    5  A    between atoms: C_19  and  C_35
    6  A    between atoms: C_20  and  C_32
    7  A    between atoms: N_25  and  C_34
                            x       y       z     vdW  Elec       q    Type
                         _______ _______ _______ _____ _____    ______ ____

>  <TORSDO>
F 7

$$$$
=
 OpenBabel11072411263D

 35 40  0  0  1  0  0  0  0  0999 V2000
  161.7460  208.7670  148.2110 N   0  0  0  0  0  0  0  0  0  0  0  0
  161.2060  206.6390  151.3260 C   0  0  0  0  0  0  0  0  0  0  0  0
  159.8960  207.7110  156.1010 C   0  0  0  0  0  2  0  0  0  0  0  0
  161.1690  207.2930  153.9840 C   0  0  0  0  0  0  0  0  0  0  0  0
  160.9260  206.0010  153.6150 N   0  0  0  0  0  0  0  0  0  0  0  0
  162.0830  210.8350  149.3950 C   0  0  0  0  0  0  0  0  0  0  0  0
  162.3250  212.1670  149.3660 F   0  0  0  0  0  0  0  0  0  0  0  0
  161.9110  210.1800  150.6250 C   0  0  0  0  0  3  0  0  0  0  0  0
  161.1870  210.2190  155.8980 N   0  0  0  0  0  0  0  0  0  0  0  0
  159.7510  208.7270  157.2570 C   0  0  0  0  0  2  0  0  0  0  0  0
  161.9960  210.1080  148.1930 C   0  0  0  0  0  3  0  0  0  0  0  0
  161.4320  208.2810  153.0570 C   0  0  0  0  0  0  0  0  0  0  0  0
  161.6200  209.5580  153.6450 N   0  0  0  0  0  2  0  0  0  0  0  0
  161.5860  208.1340  149.4000 C   0  0  0  0  0  0  0  0  0  0  0  0
  161.2300  207.8380  155.3650 C   0  0  1  0  0  3  0  0  0  0  0  0
  160.8150  209.8440  157.2600 C   0  0  0  0  0  2  0  0  0  0  0  0
  161.4520  209.2870  155.0370 C   0  0  0  0  0  0  0  0  0  0  0  0
  161.6630  208.8080  150.6110 C   0  0  0  0  0  0  0  0  0  0  0  0
  161.4520  207.9620  151.7020 C   0  0  0  0  0  0  0  0  0  0  0  0
  160.9330  205.6480  152.2920 C   0  0  0  0  0  0  0  0  0  0  0  0
  161.2560  206.4970  149.6380 S   0  0  0  0  0  0  0  0  0  0  0  0
  160.6260  204.2350  151.9090 C   0  0  0  0  0  2  0  0  0  0  0  0
  161.8970  203.4360  151.6500 C   0  0  0  0  0  2  0  0  0  0  0  0
  161.6930  202.4990  150.6350 O   0  0  0  0  0  0  0  0  0  0  0  0
  160.4630  202.8530  150.0780 C   0  0  0  0  0  2  0  0  0  0  0  0
  160.0990  201.8810  148.9670 C   0  0  0  0  0  2  0  0  0  0  0  0
  161.2770  201.6740  148.0260 C   0  0  1  0  0  3  0  0  0  0  0  0
  160.7230  200.0110  145.9260 S   0  0  0  0  0  0  0  0  0  0  0  0
  161.3770  200.2090  147.6150 C   0  0  0  0  0  2  0  0  0  0  0  0
  160.8380  201.7700  145.6870 C   0  0  0  0  0  2  0  0  0  0  0  0
  161.0810  202.4650  146.7840 C   0  0  2  0  0  3  0  0  0  0  0  0
  162.1470  206.1020  146.2610 N   0  0  0  0  0  1  0  0  0  0  0  0
  162.9670  204.1640  145.2910 O   0  0  0  0  0  0  0  0  0  0  0  0
  161.1910  203.8950  146.8030 N   0  0  0  0  0  2  0  0  0  0  0  0
  162.1410  204.6910  146.0820 C   0  0  0  0  0  0  0  0  0  0  0  0
  1 14  1  0  0  0  0
  2 19  2  0  0  0  0
  2 20  1  0  0  0  0
  3 10  1  0  0  0  0
  4 15  1  0  0  0  0
  5  4  1  0  0  0  0
  6  8  2  0  0  0  0
  7  6  1  0  0  0  0
  9 16  1  0  0  0  0
 10 16  1  0  0  0  0
 11  1  2  0  0  0  0
 11  6  1  0  0  0  0
 12 13  1  0  0  0  0
 12  4  2  0  0  0  0
 13 17  1  0  0  0  0
 14 21  1  0  0  0  0
 14 18  2  0  0  0  0
 15  3  1  6  0  0  0
 17 15  1  0  0  0  0
 17  9  2  0  0  0  0
 18  8  1  0  0  0  0
 18 19  1  0  0  0  0
 19 12  1  0  0  0  0
 20  5  2  0  0  0  0
 21  2  1  0  0  0  0
 22 20  1  0  0  0  0
 23 22  1  0  0  0  0
 24 23  1  0  0  0  0
 25 24  1  0  0  0  0
 26 25  1  0  0  0  0
 27 26  1  1  0  0  0
 28 29  1  0  0  0  0
 29 27  1  0  0  0  0
 30 28  1  0  0  0  0
 30 31  1  0  0  0  0
 31 34  1  6  0  0  0
 31 27  1  0  0  0  0
 33 35  2  0  0  0  0
 35 32  1  0  0  0  0
 35 34  1  0  0  0  0
M  END
>  <MODEL>
7

>  <REMARK>
 VINA RESULT:      -7.3      4.156      7.994
  Name = 
  7 active torsions:
  status: ('A' for Active; 'I' for Inactive)
    1  A    between atoms: C_11  and  C_35
    2  A    between atoms: C_13  and  C_20
    3  A    between atoms: C_13  and  O_26
    4  A    between atoms: C_19  and  O_26
    5  A    between atoms: C_19  and  C_35
    6  A    between atoms: C_20  and  C_32
    7  A    between atoms: N_25  and  C_34
                            x       y       z     vdW  Elec       q    Type
                         _______ _______ _______ _____ _____    ______ ____

>  <TORSDO>
F 7

$$$$
=
 OpenBabel11072411263D

 35 40  0  0  1  0  0  0  0  0999 V2000
  160.3390  209.7860  156.0570 N   0  0  0  0  0  0  0  0  0  0  0  0
  161.4550  209.5640  152.4200 C   0  0  0  0  0  0  0  0  0  0  0  0
  160.9870  206.0140  148.8370 C   0  0  0  0  0  2  0  0  0  0  0  0
  161.7830  207.4190  150.7520 C   0  0  0  0  0  0  0  0  0  0  0  0
  162.0030  208.6760  150.2680 N   0  0  0  0  0  0  0  0  0  0  0  0
  160.0800  207.4140  156.3680 C   0  0  0  0  0  0  0  0  0  0  0  0
  159.7490  206.3740  157.1700 F   0  0  0  0  0  0  0  0  0  0  0  0
  160.4830  207.1790  155.0440 C   0  0  0  0  0  3  0  0  0  0  0  0
  161.0690  203.9970  150.8170 N   0  0  0  0  0  0  0  0  0  0  0  0
  160.7220  204.5470  148.4270 C   0  0  0  0  0  2  0  0  0  0  0  0
  160.0140  208.7320  156.8590 C   0  0  0  0  0  3  0  0  0  0  0  0
  161.3980  207.1960  152.0590 C   0  0  0  0  0  0  0  0  0  0  0  0
  161.1870  205.8230  152.3500 N   0  0  0  0  0  2  0  0  0  0  0  0
  160.7330  209.5570  154.7800 C   0  0  0  0  0  0  0  0  0  0  0  0
  161.9430  206.1330  150.0250 C   0  0  1  0  0  3  0  0  0  0  0  0
  161.2120  203.5020  149.4510 C   0  0  0  0  0  2  0  0  0  0  0  0
  161.4760  205.1940  151.1010 C   0  0  0  0  0  0  0  0  0  0  0  0
  160.8140  208.2760  154.2520 C   0  0  0  0  0  0  0  0  0  0  0  0
  161.2260  208.2790  152.9180 C   0  0  0  0  0  0  0  0  0  0  0  0
  161.8400  209.7660  151.0780 C   0  0  0  0  0  0  0  0  0  0  0  0
  161.1580  210.7150  153.6290 S   0  0  0  0  0  0  0  0  0  0  0  0
  162.0500  211.1370  150.5150 C   0  0  0  0  0  2  0  0  0  0  0  0
  161.9460  211.1390  148.9950 C   0  0  0  0  0  2  0  0  0  0  0  0
  161.7510  212.4370  148.5150 O   0  0  0  0  0  0  0  0  0  0  0  0
  162.2610  212.4070  147.2160 C   0  0  0  0  0  2  0  0  0  0  0  0
  161.4760  213.3610  146.3310 C   0  0  0  0  0  2  0  0  0  0  0  0
  160.4050  212.6130  145.5510 C   0  0  1  0  0  3  0  0  0  0  0  0
  157.9510  213.8220  145.6240 S   0  0  0  0  0  0  0  0  0  0  0  0
  159.0950  212.5940  146.3330 C   0  0  0  0  0  2  0  0  0  0  0  0
  158.9630  213.9030  144.1620 C   0  0  0  0  0  2  0  0  0  0  0  0
  160.1360  213.3060  144.2640 C   0  0  2  0  0  3  0  0  0  0  0  0
  162.3430  212.3300  141.2950 N   0  0  0  0  0  1  0  0  0  0  0  0
  160.5570  211.2010  142.2480 O   0  0  0  0  0  0  0  0  0  0  0  0
  161.1010  213.2760  143.2030 N   0  0  0  0  0  2  0  0  0  0  0  0
  161.2960  212.2210  142.2520 C   0  0  0  0  0  0  0  0  0  0  0  0
  1 11  1  0  0  0  0
  2 19  1  0  0  0  0
  2 21  1  0  0  0  0
  4 12  1  0  0  0  0
  5  4  2  0  0  0  0
  5 20  1  0  0  0  0
  6 11  2  0  0  0  0
  6  7  1  0  0  0  0
  8  6  1  0  0  0  0
  9 17  2  0  0  0  0
 10  3  1  0  0  0  0
 10 16  1  0  0  0  0
 12 13  1  0  0  0  0
 12 19  2  0  0  0  0
 14  1  2  0  0  0  0
 15  3  1  6  0  0  0
 15  4  1  0  0  0  0
 15 17  1  0  0  0  0
 16  9  1  0  0  0  0
 17 13  1  0  0  0  0
 18 14  1  0  0  0  0
 18  8  2  0  0  0  0
 19 18  1  0  0  0  0
 20  2  2  0  0  0  0
 21 14  1  0  0  0  0
 22 20  1  0  0  0  0
 23 22  1  0  0  0  0
 24 23  1  0  0  0  0
 25 24  1  0  0  0  0
 26 25  1  0  0  0  0
 27 26  1  1  0  0  0
 27 29  1  0  0  0  0
 28 29  1  0  0  0  0
 30 31  1  0  0  0  0
 30 28  1  0  0  0  0
 31 34  1  6  0  0  0
 31 27  1  0  0  0  0
 32 35  1  0  0  0  0
 33 35  2  0  0  0  0
 35 34  1  0  0  0  0
M  END
>  <MODEL>
8

>  <REMARK>
 VINA RESULT:      -7.2      3.456      6.055
  Name = 
  7 active torsions:
  status: ('A' for Active; 'I' for Inactive)
    1  A    between atoms: C_11  and  C_35
    2  A    between atoms: C_13  and  C_20
    3  A    between atoms: C_13  and  O_26
    4  A    between atoms: C_19  and  O_26
    5  A    between atoms: C_19  and  C_35
    6  A    between atoms: C_20  and  C_32
    7  A    between atoms: N_25  and  C_34
                            x       y       z     vdW  Elec       q    Type
                         _______ _______ _______ _____ _____    ______ ____

>  <TORSDO>
F 7

$$$$
=
 OpenBabel11072411263D

 35 40  0  0  1  0  0  0  0  0999 V2000
  162.3510  210.0810  148.7710 N   0  0  0  0  0  0  0  0  0  0  0  0
  161.4610  208.9540  152.3010 C   0  0  0  0  0  0  0  0  0  0  0  0
  158.2400  210.6810  155.8080 C   0  0  0  0  0  2  0  0  0  0  0  0
  160.2520  210.2700  154.3740 C   0  0  0  0  0  0  0  0  0  0  0  0
  160.6030  208.9610  154.5330 N   0  0  0  0  0  0  0  0  0  0  0  0
  161.5310  212.3300  149.0290 C   0  0  0  0  0  0  0  0  0  0  0  0
  161.3110  213.5570  148.5000 F   0  0  0  0  0  0  0  0  0  0  0  0
  161.1550  212.0590  150.3540 C   0  0  0  0  0  3  0  0  0  0  0  0
  158.6070  213.3180  154.8550 N   0  0  0  0  0  0  0  0  0  0  0  0
  157.3600  211.8160  156.3790 C   0  0  0  0  0  2  0  0  0  0  0  0
  162.1310  211.3230  148.2490 C   0  0  0  0  0  3  0  0  0  0  0  0
  160.4890  210.9520  153.1970 C   0  0  0  0  0  0  0  0  0  0  0  0
  160.0170  212.2900  153.2250 N   0  0  0  0  0  2  0  0  0  0  0  0
  161.9920  209.8230  150.0530 C   0  0  0  0  0  0  0  0  0  0  0  0
  159.6270  211.1640  155.3820 C   0  0  1  0  0  3  0  0  0  0  0  0
  157.9160  213.2350  156.1390 C   0  0  0  0  0  2  0  0  0  0  0  0
  159.4580  212.3940  154.5350 C   0  0  0  0  0  0  0  0  0  0  0  0
  161.3990  210.7840  150.8600 C   0  0  0  0  0  0  0  0  0  0  0  0
  161.1020  210.2940  152.1340 C   0  0  0  0  0  0  0  0  0  0  0  0
  161.2030  208.2770  153.5110 C   0  0  0  0  0  0  0  0  0  0  0  0
  162.1610  208.3600  150.8750 S   0  0  0  0  0  0  0  0  0  0  0  0
  161.5420  206.8310  153.6950 C   0  0  0  0  0  2  0  0  0  0  0  0
  160.7640  205.9460  152.7290 C   0  0  0  0  0  2  0  0  0  0  0  0
  161.2120  204.6250  152.8020 O   0  0  0  0  0  0  0  0  0  0  0  0
  160.8720  204.0740  151.5650 C   0  0  0  0  0  2  0  0  0  0  0  0
  161.5180  204.8770  150.4480 C   0  0  0  0  0  2  0  0  0  0  0  0
  160.6930  204.7830  149.1720 C   0  0  1  0  0  3  0  0  0  0  0  0
  161.5730  206.4330  147.1740 S   0  0  0  0  0  0  0  0  0  0  0  0
  160.4550  206.1730  148.5900 C   0  0  0  0  0  2  0  0  0  0  0  0
  161.8780  204.6810  147.1090 C   0  0  0  0  0  2  0  0  0  0  0  0
  161.4300  203.9990  148.1470 C   0  0  2  0  0  3  0  0  0  0  0  0
  161.3790  200.2020  147.6810 N   0  0  0  0  0  1  0  0  0  0  0  0
  160.6760  201.8800  146.2460 O   0  0  0  0  0  0  0  0  0  0  0  0
  161.5940  202.5820  148.2900 N   0  0  0  0  0  2  0  0  0  0  0  0
  161.1910  201.5740  147.3540 C   0  0  0  0  0  0  0  0  0  0  0  0
  1 14  1  0  0  0  0
  2 20  1  0  0  0  0
  3 10  1  0  0  0  0
  4  5  1  0  0  0  0
  4 15  1  0  0  0  0
  6  8  2  0  0  0  0
  7  6  1  0  0  0  0
  8 18  1  0  0  0  0
  9 16  1  0  0  0  0
 11  1  2  0  0  0  0
 11  6  1  0  0  0  0
 12 13  1  0  0  0  0
 12  4  2  0  0  0  0
 13 17  1  0  0  0  0
 14 18  2  0  0  0  0
 14 21  1  0  0  0  0
 15  3  1  6  0  0  0
 16 10  1  0  0  0  0
 17  9  2  0  0  0  0
 17 15  1  0  0  0  0
 18 19  1  0  0  0  0
 19  2  2  0  0  0  0
 19 12  1  0  0  0  0
 20 22  1  0  0  0  0
 20  5  2  0  0  0  0
 21  2  1  0  0  0  0
 23 24  1  0  0  0  0
 23 22  1  0  0  0  0
 25 24  1  0  0  0  0
 26 25  1  0  0  0  0
 27 26  1  1  0  0  0
 28 29  1  0  0  0  0
 29 27  1  0  0  0  0
 30 28  1  0  0  0  0
 30 31  1  0  0  0  0
 31 34  1  6  0  0  0
 31 27  1  0  0  0  0
 33 35  2  0  0  0  0
 35 32  1  0  0  0  0
 35 34  1  0  0  0  0
M  END
>  <MODEL>
9

>  <REMARK>
 VINA RESULT:      -7.1      3.682      7.773
  Name = 
  7 active torsions:
  status: ('A' for Active; 'I' for Inactive)
    1  A    between atoms: C_11  and  C_35
    2  A    between atoms: C_13  and  C_20
    3  A    between atoms: C_13  and  O_26
    4  A    between atoms: C_19  and  O_26
    5  A    between atoms: C_19  and  C_35
    6  A    between atoms: C_20  and  C_32
    7  A    between atoms: N_25  and  C_34
                            x       y       z     vdW  Elec       q    Type
                         _______ _______ _______ _____ _____    ______ ____

>  <TORSDO>
F 7

$$$$
