=
 OpenBabel11072414433D

 60 66  0  0  1  0  0  0  0  0999 V2000
  159.1010  211.5610  152.4870 C   0  0  2  0  0  3  0  0  0  0  0  0
  161.3380  209.3380  153.4370 C   0  0  2  0  0  3  0  0  0  0  0  0
  160.5280  211.6450  155.4980 C   0  0  0  0  0  2  0  0  0  0  0  0
  163.1880  209.8490  151.4490 N   0  0  0  0  0  1  0  0  0  0  0  0
  161.9970  210.7410  148.8770 N   0  0  0  0  0  2  0  0  0  0  0  0
  159.3310  213.8870  153.3270 C   0  0  0  0  0  3  0  0  0  0  0  0
  160.2010  209.3570  154.4800 C   0  0  2  0  0  3  0  0  0  0  0  0
  159.1720  212.2080  155.0570 C   0  0  2  0  0  3  0  0  0  0  0  0
  158.2830  210.4680  152.7780 O   0  0  0  0  0  1  0  0  0  0  0  0
  160.8420  209.7320  152.0930 N   0  0  1  0  0  0  0  0  0  0  0  0
  160.5490  210.1380  155.7490 C   0  0  1  0  0  3  0  0  0  0  0  0
  161.4490  210.5910  150.0360 C   0  0  0  0  0  0  0  0  0  0  0  0
  160.5140  211.1770  152.0330 C   0  0  1  0  0  3  0  0  0  0  0  0
  160.7080  211.6090  150.6580 N   0  0  0  0  0  2  0  0  0  0  0  0
  161.8310  209.5530  151.0000 C   0  0  1  0  0  3  0  0  0  0  0  0
  158.0840  211.4070  155.4250 O   0  0  0  0  0  1  0  0  0  0  0  0
  159.1410  212.5870  153.6030 C   0  0  0  0  0  0  0  0  0  0  0  0
  161.7960  209.7600  156.2480 O   0  0  0  0  0  0  0  0  0  0  0  0
  162.5150  210.9470  156.3750 C   0  0  0  0  0  1  0  0  0  0  0  0
  159.7260  207.6830  156.1360 O   0  0  0  0  0  1  0  0  0  0  0  0
  159.5520  208.0080  154.7880 C   0  0  0  0  0  2  0  0  0  0  0  0
  159.4590  214.4080  151.9270 C   0  0  0  0  0  2  0  0  0  0  0  0
  158.3800  213.8350  150.9990 C   0  0  0  0  0  2  0  0  0  0  0  0
  158.4720  214.2940  149.6650 O   0  0  0  0  0  0  0  0  0  0  0  0
  160.0750  214.4520  147.9430 C   0  0  2  0  0  3  0  0  0  0  0  0
  159.4820  213.5590  149.0220 C   0  0  2  0  0  0  0  0  0  0  0  0
  159.2420  213.2510  147.5510 C   0  0  1  0  0  3  0  0  0  0  0  0
  160.8390  214.1970  149.2180 C   0  0  0  0  0  2  0  0  0  0  0  0
  157.9070  213.7320  146.9980 C   0  0  0  0  0  2  0  0  0  0  0  0
  157.8550  213.4360  145.5060 C   0  0  1  0  0  3  0  0  0  0  0  0
  157.1430  214.4390  144.8450 O   0  0  0  0  0  1  0  0  0  0  0  0
  159.2830  213.3030  144.9460 C   0  0  0  0  0  2  0  0  0  0  0  0
  159.4270  213.8720  143.6710 O   0  0  0  0  0  0  0  0  0  0  0  0
  159.4240  212.8140  142.7540 C   0  0  1  0  0  3  0  0  0  0  0  0
  160.6530  212.8450  141.1050 C   0  0  2  0  0  3  0  0  0  0  0  0
  159.2950  213.3160  141.3840 N   0  0  0  0  0  0  0  0  0  0  0  0
  160.8470  212.3440  142.5260 C   0  0  0  0  0  2  0  0  0  0  0  0
  161.5610  214.0290  140.7990 C   0  0  2  0  0  3  0  0  0  0  0  0
  161.3640  214.4320  139.4770 O   0  0  0  0  0  1  0  0  0  0  0  0
  163.0170  213.6390  140.9880 C   0  0  0  0  0  1  0  0  0  0  0  0
  158.2940  212.5260  140.6390 C   0  0  0  0  0  2  0  0  0  0  0  0
  158.8590  211.6370  139.5210 C   0  0  2  0  0  3  0  0  0  0  0  0
  159.1060  212.4270  138.2820 C   0  0  0  0  0  2  0  0  0  0  0  0
  157.8260  210.6790  139.0390 C   0  0  0  0  0  2  0  0  0  0  0  0
  158.1000  210.4540  137.6840 O   0  0  0  0  0  0  0  0  0  0  0  0
  158.5510  211.6450  137.1830 N   0  0  0  0  0  2  0  0  0  0  0  0
  162.1350  208.0120  153.4580 C   0  0  0  0  0  2  0  0  0  0  0  0
  161.1650  206.1750  151.7720 C   0  0  0  0  0  0  0  0  0  0  0  0
  161.5780  207.0050  152.5430 C   0  0  0  0  0  0  0  0  0  0  0  0
  161.2900  202.8700  149.8370 C   0  0  1  0  0  3  0  0  0  0  0  0
  160.8950  207.1140  149.1060 C   0  0  0  0  0  1  0  0  0  0  0  0
  160.7100  205.1500  150.8160 C   0  0  2  0  0  3  0  0  0  0  0  0
  160.9500  203.5560  148.5050 C   0  0  1  0  0  3  0  0  0  0  0  0
  161.4420  204.8720  148.4760 O   0  0  0  0  0  0  0  0  0  0  0  0
  161.6000  203.9070  150.9320 C   0  0  1  0  0  3  0  0  0  0  0  0
  161.4960  202.8260  147.4480 O   0  0  0  0  0  1  0  0  0  0  0  0
  161.5040  203.3340  152.2040 O   0  0  0  0  0  1  0  0  0  0  0  0
  160.6170  205.6300  149.3320 C   0  0  2  0  0  3  0  0  0  0  0  0
  160.7570  200.7560  150.2280 C   0  0  0  0  0  1  0  0  0  0  0  0
  160.2270  202.0460  150.2160 O   0  0  0  0  0  0  0  0  0  0  0  0
  1  9  1  1  0  0  0
  1 17  1  0  0  0  0
  2 47  1  6  0  0  0
  2  7  1  0  0  0  0
  3 11  1  0  0  0  0
  5 12  2  0  0  0  0
  6 17  2  0  0  0  0
  7 21  1  1  0  0  0
  7 11  1  0  0  0  0
  8 16  1  6  0  0  0
  8  3  1  0  0  0  0
 10  2  1  0  0  0  0
 11 18  1  0  0  0  0
 12 14  1  0  0  0  0
 12 15  1  0  0  0  0
 13 10  1  0  0  0  0
 13  1  1  0  0  0  0
 14 13  1  0  0  0  0
 15  4  1  0  0  0  0
 15 10  1  0  0  0  0
 17  8  1  0  0  0  0
 18 19  1  0  0  0  0
 21 20  1  0  0  0  0
 22  6  1  0  0  0  0
 23 22  1  0  0  0  0
 24 23  1  0  0  0  0
 25 26  1  0  0  0  0
 25 28  1  0  0  0  0
 26 28  1  0  0  0  0
 26 24  1  0  0  0  0
 27 25  1  0  0  0  0
 27 26  1  0  0  0  0
 29 27  1  0  0  0  0
 30 29  1  0  0  0  0
 31 30  1  0  0  0  0
 32 30  1  0  0  0  0
 33 32  1  0  0  0  0
 34 33  1  0  0  0  0
 35 36  1  0  0  0  0
 35 37  1  0  0  0  0
 36 34  1  0  0  0  0
 37 34  1  0  0  0  0
 38 40  1  0  0  0  0
 38 35  1  0  0  0  0
 39 38  1  0  0  0  0
 41 36  1  0  0  0  0
 42 41  1  0  0  0  0
 43 42  1  0  0  0  0
 44 42  1  0  0  0  0
 45 44  1  0  0  0  0
 46 45  1  0  0  0  0
 46 43  1  0  0  0  0
 48 49  3  0  0  0  0
 49 47  1  0  0  0  0
 50 60  1  0  0  0  0
 50 55  1  0  0  0  0
 51 58  1  0  0  0  0
 52 55  1  0  0  0  0
 52 48  1  0  0  0  0
 53 50  1  0  0  0  0
 54 53  1  0  0  0  0
 54 58  1  0  0  0  0
 55 57  1  0  0  0  0
 56 53  1  0  0  0  0
 58 52  1  0  0  0  0
 60 59  1  0  0  0  0
M  END
>  <MODEL>
1

>  <REMARK>
 VINA RESULT:      -4.6      0.000      0.000
  Name = 
  18 active torsions:
  status: ('A' for Active; 'I' for Inactive)
    1  A    between atoms: C_1  and  O_20
    2  A    between atoms: C_3  and  C_44
    3  A    between atoms: C_6  and  C_14
    4  A    between atoms: C_8  and  C_21
    5  A    between atoms: C_8  and  C_53
    6  A    between atoms: C_9  and  C_51
    7  A    between atoms: O_15  and  C_34
    8  A    between atoms: C_18  and  O_40
    9  A    between atoms: C_19  and  C_36
   10  A    between atoms: C_19  and  C_59
   11  A    between atoms: C_24  and  C_41
   12  A    between atoms: C_26  and  C_39
   13  A    between atoms: C_32  and  O_42
   14  A    between atoms: C_36  and  C_50
   15  A    between atoms: O_40  and  C_59
   16  A    between atoms: O_42  and  C_53
   17  A    between atoms: C_44  and  C_58
   18  A    between atoms: C_51  and  N_52
                            x       y       z     vdW  Elec       q    Type
                         _______ _______ _______ _____ _____    ______ ____

>  <TORSDO>
F 18

$$$$
=
 OpenBabel11072414433D

 60 66  0  0  1  0  0  0  0  0999 V2000
  159.1980  211.5660  152.2150 C   0  0  2  0  0  3  0  0  0  0  0  0
  161.1840  209.4280  153.7420 C   0  0  2  0  0  3  0  0  0  0  0  0
  160.1320  211.9580  155.3910 C   0  0  0  0  0  2  0  0  0  0  0  0
  163.3420  209.6900  152.0360 N   0  0  0  0  0  1  0  0  0  0  0  0
  162.6030  210.3130  149.2260 N   0  0  0  0  0  2  0  0  0  0  0  0
  159.3660  213.9670  152.8310 C   0  0  0  0  0  3  0  0  0  0  0  0
  159.8970  209.5770  154.5800 C   0  0  2  0  0  3  0  0  0  0  0  0
  158.8810  212.4890  154.6790 C   0  0  2  0  0  3  0  0  0  0  0  0
  158.3100  210.5240  152.4840 O   0  0  0  0  0  1  0  0  0  0  0  0
  160.9200  209.6790  152.3020 N   0  0  1  0  0  0  0  0  0  0  0  0
  160.0640  210.4870  155.7990 C   0  0  1  0  0  3  0  0  0  0  0  0
  161.8730  210.2990  150.2910 C   0  0  0  0  0  0  0  0  0  0  0  0
  160.6530  211.1140  152.0380 C   0  0  1  0  0  3  0  0  0  0  0  0
  161.0760  211.3900  150.6740 N   0  0  0  0  0  2  0  0  0  0  0  0
  162.0640  209.3670  151.4080 C   0  0  1  0  0  3  0  0  0  0  0  0
  157.7240  211.7490  154.9500 O   0  0  0  0  0  1  0  0  0  0  0  0
  159.0930  212.7070  153.2080 C   0  0  0  0  0  0  0  0  0  0  0  0
  161.2040  210.1480  156.5300 O   0  0  0  0  0  0  0  0  0  0  0  0
  161.7030  211.3570  157.0110 C   0  0  0  0  0  1  0  0  0  0  0  0
  160.0030  207.4250  155.6420 O   0  0  0  0  0  1  0  0  0  0  0  0
  159.1650  208.2790  154.9210 C   0  0  0  0  0  2  0  0  0  0  0  0
  159.7320  214.3280  151.4230 C   0  0  0  0  0  2  0  0  0  0  0  0
  158.6270  213.9540  150.4260 C   0  0  0  0  0  2  0  0  0  0  0  0
  158.9590  214.2200  149.0780 O   0  0  0  0  0  0  0  0  0  0  0  0
  160.9790  214.4160  147.8780 C   0  0  2  0  0  3  0  0  0  0  0  0
  160.1390  213.5200  148.7750 C   0  0  2  0  0  0  0  0  0  0  0  0
  160.3410  213.1680  147.3080 C   0  0  1  0  0  3  0  0  0  0  0  0
  161.3570  214.2260  149.3260 C   0  0  0  0  0  2  0  0  0  0  0  0
  159.2010  213.5730  146.3820 C   0  0  0  0  0  2  0  0  0  0  0  0
  159.1810  212.6330  145.1850 C   0  0  1  0  0  3  0  0  0  0  0  0
  158.0110  211.8720  145.1950 O   0  0  0  0  0  1  0  0  0  0  0  0
  159.3110  213.4400  143.8800 C   0  0  0  0  0  2  0  0  0  0  0  0
  160.0700  212.7800  142.9010 O   0  0  0  0  0  0  0  0  0  0  0  0
  160.0900  213.6140  141.7760 C   0  0  1  0  0  3  0  0  0  0  0  0
  159.2470  213.0080  140.0000 C   0  0  2  0  0  3  0  0  0  0  0  0
  160.5760  212.8870  140.6010 N   0  0  0  0  0  0  0  0  0  0  0  0
  158.6860  213.7300  141.2130 C   0  0  0  0  0  2  0  0  0  0  0  0
  158.6240  211.6270  139.8330 C   0  0  2  0  0  3  0  0  0  0  0  0
  159.5780  210.7520  139.3110 O   0  0  0  0  0  1  0  0  0  0  0  0
  157.4390  211.6950  138.8860 C   0  0  0  0  0  1  0  0  0  0  0  0
  161.5680  213.7000  139.8670 C   0  0  0  0  0  2  0  0  0  0  0  0
  163.0360  213.3210  140.1110 C   0  0  2  0  0  3  0  0  0  0  0  0
  163.9550  214.3210  139.4960 C   0  0  0  0  0  2  0  0  0  0  0  0
  163.3980  212.1000  139.3410 C   0  0  0  0  0  2  0  0  0  0  0  0
  164.7570  212.2250  139.0210 O   0  0  0  0  0  0  0  0  0  0  0  0
  164.9720  213.5550  138.7840 N   0  0  0  0  0  2  0  0  0  0  0  0
  161.9250  208.1010  154.0320 C   0  0  0  0  0  2  0  0  0  0  0  0
  161.8410  206.3850  151.9790 C   0  0  0  0  0  0  0  0  0  0  0  0
  161.8530  207.1570  152.9060 C   0  0  0  0  0  0  0  0  0  0  0  0
  160.7620  204.8510  148.6380 C   0  0  1  0  0  3  0  0  0  0  0  0
  161.4900  203.6710  152.7340 C   0  0  0  0  0  1  0  0  0  0  0  0
  161.8790  205.4380  150.8520 C   0  0  2  0  0  3  0  0  0  0  0  0
  160.8110  203.4220  149.1990 C   0  0  1  0  0  3  0  0  0  0  0  0
  160.5050  203.4080  150.5700 O   0  0  0  0  0  0  0  0  0  0  0  0
  160.9010  205.8930  149.7620 C   0  0  1  0  0  3  0  0  0  0  0  0
  159.9070  202.6150  148.5060 O   0  0  0  0  0  1  0  0  0  0  0  0
  161.2670  207.1400  149.2460 O   0  0  0  0  0  1  0  0  0  0  0  0
  161.6240  203.9450  151.2390 C   0  0  2  0  0  3  0  0  0  0  0  0
  161.1250  205.4970  146.5510 C   0  0  0  0  0  1  0  0  0  0  0  0
  161.7730  205.0070  147.6850 O   0  0  0  0  0  0  0  0  0  0  0  0
  1  9  1  1  0  0  0
  1 17  1  0  0  0  0
  2 47  1  6  0  0  0
  2  7  1  0  0  0  0
  3 11  1  0  0  0  0
  5 12  2  0  0  0  0
  6 17  2  0  0  0  0
  7 21  1  1  0  0  0
  7 11  1  0  0  0  0
  8 16  1  6  0  0  0
  8  3  1  0  0  0  0
 10  2  1  0  0  0  0
 11 18  1  0  0  0  0
 12 14  1  0  0  0  0
 12 15  1  0  0  0  0
 13  1  1  0  0  0  0
 13 10  1  0  0  0  0
 14 13  1  0  0  0  0
 15  4  1  0  0  0  0
 15 10  1  0  0  0  0
 17  8  1  0  0  0  0
 18 19  1  0  0  0  0
 21 20  1  0  0  0  0
 22  6  1  0  0  0  0
 23 22  1  0  0  0  0
 24 23  1  0  0  0  0
 25 26  1  0  0  0  0
 25 28  1  0  0  0  0
 26 24  1  0  0  0  0
 26 28  1  0  0  0  0
 27 25  1  0  0  0  0
 27 26  1  0  0  0  0
 29 27  1  0  0  0  0
 30 31  1  0  0  0  0
 30 29  1  0  0  0  0
 32 30  1  0  0  0  0
 33 32  1  0  0  0  0
 34 33  1  0  0  0  0
 35 36  1  0  0  0  0
 35 37  1  0  0  0  0
 36 34  1  0  0  0  0
 37 34  1  0  0  0  0
 38 35  1  0  0  0  0
 39 38  1  0  0  0  0
 40 38  1  0  0  0  0
 41 42  1  0  0  0  0
 41 36  1  0  0  0  0
 43 42  1  0  0  0  0
 44 42  1  0  0  0  0
 45 44  1  0  0  0  0
 46 45  1  0  0  0  0
 46 43  1  0  0  0  0
 48 49  3  0  0  0  0
 49 47  1  0  0  0  0
 50 53  1  0  0  0  0
 50 55  1  0  0  0  0
 52 58  1  0  0  0  0
 52 48  1  0  0  0  0
 53 54  1  0  0  0  0
 54 58  1  0  0  0  0
 55 52  1  0  0  0  0
 56 53  1  0  0  0  0
 57 55  1  0  0  0  0
 58 51  1  0  0  0  0
 59 60  1  0  0  0  0
 60 50  1  0  0  0  0
M  END
>  <MODEL>
2

>  <REMARK>
 VINA RESULT:      -3.1      1.478      2.711
  Name = 
  18 active torsions:
  status: ('A' for Active; 'I' for Inactive)
    1  A    between atoms: C_1  and  O_20
    2  A    between atoms: C_3  and  C_44
    3  A    between atoms: C_6  and  C_14
    4  A    between atoms: C_8  and  C_21
    5  A    between atoms: C_8  and  C_53
    6  A    between atoms: C_9  and  C_51
    7  A    between atoms: O_15  and  C_34
    8  A    between atoms: C_18  and  O_40
    9  A    between atoms: C_19  and  C_36
   10  A    between atoms: C_19  and  C_59
   11  A    between atoms: C_24  and  C_41
   12  A    between atoms: C_26  and  C_39
   13  A    between atoms: C_32  and  O_42
   14  A    between atoms: C_36  and  C_50
   15  A    between atoms: O_40  and  C_59
   16  A    between atoms: O_42  and  C_53
   17  A    between atoms: C_44  and  C_58
   18  A    between atoms: C_51  and  N_52
                            x       y       z     vdW  Elec       q    Type
                         _______ _______ _______ _____ _____    ______ ____

>  <TORSDO>
F 18

$$$$
=
 OpenBabel11072414433D

 60 66  0  0  1  0  0  0  0  0999 V2000
  160.9390  210.3950  154.5710 C   0  0  2  0  0  3  0  0  0  0  0  0
  159.0010  212.8100  153.4490 C   0  0  2  0  0  3  0  0  0  0  0  0
  157.7420  210.6760  155.4710 C   0  0  0  0  0  2  0  0  0  0  0  0
  159.2240  212.2040  150.7620 N   0  0  0  0  0  1  0  0  0  0  0  0
  161.8340  211.0070  149.9970 N   0  0  0  0  0  2  0  0  0  0  0  0
  159.9120  208.1760  155.0080 C   0  0  0  0  0  3  0  0  0  0  0  0
  158.9620  212.8350  154.9910 C   0  0  2  0  0  3  0  0  0  0  0  0
  158.9000  210.0050  156.2190 C   0  0  2  0  0  3  0  0  0  0  0  0
  161.3720  211.4690  155.3510 O   0  0  0  0  0  1  0  0  0  0  0  0
  160.2890  212.2640  152.9520 N   0  0  1  0  0  0  0  0  0  0  0  0
  157.7010  212.2000  155.5810 C   0  0  1  0  0  3  0  0  0  0  0  0
  161.3410  211.2410  151.1670 C   0  0  0  0  0  0  0  0  0  0  0  0
  160.3950  210.8050  153.1970 C   0  0  1  0  0  3  0  0  0  0  0  0
  161.2520  210.2520  152.1600 N   0  0  0  0  0  2  0  0  0  0  0  0
  160.4790  212.3860  151.4840 C   0  0  1  0  0  3  0  0  0  0  0  0
  159.4220  210.7820  157.2610 O   0  0  0  0  0  1  0  0  0  0  0  0
  159.9680  209.4860  155.2990 C   0  0  0  0  0  0  0  0  0  0  0  0
  156.5510  212.6870  154.9580 O   0  0  0  0  0  0  0  0  0  0  0  0
  155.5490  211.7700  155.2690 C   0  0  0  0  0  1  0  0  0  0  0  0
  159.8450  213.9660  156.9180 O   0  0  0  0  0  1  0  0  0  0  0  0
  159.2990  214.1740  155.6480 C   0  0  0  0  0  2  0  0  0  0  0  0
  160.8210  207.5300  154.0070 C   0  0  0  0  0  2  0  0  0  0  0  0
  160.8450  206.0030  154.1520 C   0  0  0  0  0  2  0  0  0  0  0  0
  161.6290  205.3480  153.1740 O   0  0  0  0  0  0  0  0  0  0  0  0
  161.6490  203.6200  151.5690 C   0  0  2  0  0  3  0  0  0  0  0  0
  160.7740  204.5500  152.3960 C   0  0  2  0  0  0  0  0  0  0  0  0
  160.8840  204.7350  150.8900 C   0  0  1  0  0  3  0  0  0  0  0  0
  160.8970  203.0870  152.7630 C   0  0  0  0  0  2  0  0  0  0  0  0
  161.8660  205.8090  150.4400 C   0  0  0  0  0  2  0  0  0  0  0  0
  161.3340  206.4650  149.1740 C   0  0  1  0  0  3  0  0  0  0  0  0
  161.7630  207.7920  149.1070 O   0  0  0  0  0  1  0  0  0  0  0  0
  161.7870  205.6690  147.9370 C   0  0  0  0  0  2  0  0  0  0  0  0
  161.8970  204.2910  148.1820 O   0  0  0  0  0  0  0  0  0  0  0  0
  160.7870  203.6840  147.5810 C   0  0  1  0  0  3  0  0  0  0  0  0
  160.6080  201.6360  147.5220 C   0  0  2  0  0  3  0  0  0  0  0  0
  161.2100  202.6410  146.6440 N   0  0  0  0  0  0  0  0  0  0  0  0
  160.1830  202.6790  148.5420 C   0  0  0  0  0  2  0  0  0  0  0  0
  161.6890  200.7170  148.0770 C   0  0  2  0  0  3  0  0  0  0  0  0
  161.5940  199.4690  147.4590 O   0  0  0  0  0  1  0  0  0  0  0  0
  161.5140  200.5450  149.5760 C   0  0  0  0  0  1  0  0  0  0  0  0
  160.4630  202.7550  145.3750 C   0  0  0  0  0  2  0  0  0  0  0  0
  160.8990  203.9080  144.4580 C   0  0  2  0  0  3  0  0  0  0  0  0
  162.3110  204.3020  144.7290 C   0  0  0  0  0  2  0  0  0  0  0  0
  160.1860  205.1640  144.8180 C   0  0  0  0  0  2  0  0  0  0  0  0
  161.0630  206.2150  144.5170 O   0  0  0  0  0  0  0  0  0  0  0  0
  162.3190  205.7580  144.8080 N   0  0  0  0  0  2  0  0  0  0  0  0
  158.6040  214.1710  152.8280 C   0  0  0  0  0  2  0  0  0  0  0  0
  158.8480  214.2420  150.1630 C   0  0  0  0  0  0  0  0  0  0  0  0
  158.7480  214.1860  151.3640 C   0  0  0  0  0  0  0  0  0  0  0  0
  158.3730  213.2090  146.5040 C   0  0  1  0  0  3  0  0  0  0  0  0
  161.5180  214.4160  149.2150 C   0  0  0  0  0  1  0  0  0  0  0  0
  158.9600  214.3630  148.6990 C   0  0  2  0  0  3  0  0  0  0  0  0
  159.8300  213.5420  146.1480 C   0  0  1  0  0  3  0  0  0  0  0  0
  160.6770  213.3410  147.2510 O   0  0  0  0  0  0  0  0  0  0  0  0
  158.1520  213.2470  148.0270 C   0  0  1  0  0  3  0  0  0  0  0  0
  160.2470  212.7440  145.0830 O   0  0  0  0  0  1  0  0  0  0  0  0
  156.7910  213.3560  148.3320 O   0  0  0  0  0  1  0  0  0  0  0  0
  160.4240  214.3960  148.1520 C   0  0  2  0  0  3  0  0  0  0  0  0
  158.0990  214.3050  144.5980 C   0  0  0  0  0  1  0  0  0  0  0  0
  157.5230  214.1090  145.8540 O   0  0  0  0  0  0  0  0  0  0  0  0
  1 17  1  0  0  0  0
  1  9  1  1  0  0  0
  2 47  1  6  0  0  0
  2  7  1  0  0  0  0
  3 11  1  0  0  0  0
  3  8  1  0  0  0  0
  4 15  1  0  0  0  0
  5 12  2  0  0  0  0
  6 17  2  0  0  0  0
  7 11  1  0  0  0  0
  7 21  1  6  0  0  0
  8 16  1  1  0  0  0
 10 13  1  0  0  0  0
 10  2  1  0  0  0  0
 12 15  1  0  0  0  0
 12 14  1  0  0  0  0
 13  1  1  0  0  0  0
 14 13  1  0  0  0  0
 15 10  1  0  0  0  0
 17  8  1  0  0  0  0
 18 19  1  0  0  0  0
 18 11  1  0  0  0  0
 21 20  1  0  0  0  0
 22 23  1  0  0  0  0
 22  6  1  0  0  0  0
 24 23  1  0  0  0  0
 25 26  1  0  0  0  0
 25 28  1  0  0  0  0
 26 28  1  0  0  0  0
 26 24  1  0  0  0  0
 27 25  1  0  0  0  0
 27 26  1  0  0  0  0
 29 27  1  0  0  0  0
 30 29  1  0  0  0  0
 31 30  1  0  0  0  0
 32 33  1  0  0  0  0
 32 30  1  0  0  0  0
 34 33  1  0  0  0  0
 34 37  1  0  0  0  0
 35 38  1  0  0  0  0
 35 37  1  0  0  0  0
 36 35  1  0  0  0  0
 36 34  1  0  0  0  0
 38 40  1  0  0  0  0
 39 38  1  0  0  0  0
 41 36  1  0  0  0  0
 42 43  1  0  0  0  0
 42 44  1  0  0  0  0
 42 41  1  0  0  0  0
 43 46  1  0  0  0  0
 45 46  1  0  0  0  0
 45 44  1  0  0  0  0
 48 49  3  0  0  0  0
 49 47  1  0  0  0  0
 50 55  1  0  0  0  0
 52 48  1  0  0  0  0
 53 50  1  0  0  0  0
 53 54  1  0  0  0  0
 54 58  1  0  0  0  0
 55 57  1  0  0  0  0
 55 52  1  0  0  0  0
 56 53  1  0  0  0  0
 58 52  1  0  0  0  0
 58 51  1  0  0  0  0
 59 60  1  0  0  0  0
 60 50  1  0  0  0  0
M  END
>  <MODEL>
3

>  <REMARK>
 VINA RESULT:      -2.7      3.294      8.975
  Name = 
  18 active torsions:
  status: ('A' for Active; 'I' for Inactive)
    1  A    between atoms: C_1  and  O_20
    2  A    between atoms: C_3  and  C_44
    3  A    between atoms: C_6  and  C_14
    4  A    between atoms: C_8  and  C_21
    5  A    between atoms: C_8  and  C_53
    6  A    between atoms: C_9  and  C_51
    7  A    between atoms: O_15  and  C_34
    8  A    between atoms: C_18  and  O_40
    9  A    between atoms: C_19  and  C_36
   10  A    between atoms: C_19  and  C_59
   11  A    between atoms: C_24  and  C_41
   12  A    between atoms: C_26  and  C_39
   13  A    between atoms: C_32  and  O_42
   14  A    between atoms: C_36  and  C_50
   15  A    between atoms: O_40  and  C_59
   16  A    between atoms: O_42  and  C_53
   17  A    between atoms: C_44  and  C_58
   18  A    between atoms: C_51  and  N_52
                            x       y       z     vdW  Elec       q    Type
                         _______ _______ _______ _____ _____    ______ ____

>  <TORSDO>
F 18

$$$$
=
 OpenBabel11072414433D

 60 66  0  0  1  0  0  0  0  0999 V2000
  159.5190  210.7810  151.9160 C   0  0  2  0  0  3  0  0  0  0  0  0
  161.5210  208.5960  153.3540 C   0  0  2  0  0  3  0  0  0  0  0  0
  161.1450  211.4490  154.7490 C   0  0  0  0  0  2  0  0  0  0  0  0
  163.2830  208.3110  151.2450 N   0  0  0  0  0  1  0  0  0  0  0  0
  162.0420  208.6570  148.5660 N   0  0  0  0  0  2  0  0  0  0  0  0
  160.0930  213.1910  152.0970 C   0  0  0  0  0  3  0  0  0  0  0  0
  160.4680  209.0430  154.3890 C   0  0  2  0  0  3  0  0  0  0  0  0
  159.8420  212.0590  154.2160 C   0  0  2  0  0  3  0  0  0  0  0  0
  158.5930  209.9250  152.5150 O   0  0  0  0  0  1  0  0  0  0  0  0
  160.9880  208.6900  151.9710 N   0  0  1  0  0  0  0  0  0  0  0  0
  160.9940  210.0710  155.3920 C   0  0  1  0  0  3  0  0  0  0  0  0
  161.5590  208.8920  149.7400 C   0  0  0  0  0  0  0  0  0  0  0  0
  160.8400  210.1010  151.5370 C   0  0  1  0  0  3  0  0  0  0  0  0
  160.9930  210.1290  150.0900 N   0  0  0  0  0  2  0  0  0  0  0  0
  161.8720  208.0980  150.9340 C   0  0  1  0  0  3  0  0  0  0  0  0
  158.6900  211.5390  154.8190 O   0  0  0  0  0  1  0  0  0  0  0  0
  159.7610  212.0470  152.7160 C   0  0  0  0  0  0  0  0  0  0  0  0
  162.2160  209.6680  155.9340 O   0  0  0  0  0  0  0  0  0  0  0  0
  163.0880  210.7300  155.7010 C   0  0  0  0  0  1  0  0  0  0  0  0
  159.3560  208.2830  156.3790 O   0  0  0  0  0  1  0  0  0  0  0  0
  159.6780  207.9230  155.0670 C   0  0  0  0  0  2  0  0  0  0  0  0
  160.1910  213.3060  150.6050 C   0  0  0  0  0  2  0  0  0  0  0  0
  161.2250  214.3540  150.1740 C   0  0  0  0  0  2  0  0  0  0  0  0
  161.4420  214.4030  148.7780 O   0  0  0  0  0  0  0  0  0  0  0  0
  163.0080  213.4050  147.3250 C   0  0  2  0  0  3  0  0  0  0  0  0
  161.9340  213.1510  148.3710 C   0  0  2  0  0  0  0  0  0  0  0  0
  161.6900  212.7860  146.9140 C   0  0  1  0  0  3  0  0  0  0  0  0
  163.3970  212.9920  148.7230 C   0  0  0  0  0  2  0  0  0  0  0  0
  160.8900  213.8070  146.1160 C   0  0  0  0  0  2  0  0  0  0  0  0
  160.1880  213.0960  144.9680 C   0  0  1  0  0  3  0  0  0  0  0  0
  159.4230  212.0360  145.4600 O   0  0  0  0  0  1  0  0  0  0  0  0
  159.3190  214.0940  144.1820 C   0  0  0  0  0  2  0  0  0  0  0  0
  159.7460  214.2670  142.8560 O   0  0  0  0  0  0  0  0  0  0  0  0
  160.3570  213.0680  142.4690 C   0  0  1  0  0  3  0  0  0  0  0  0
  161.7980  213.0450  141.0030 C   0  0  2  0  0  3  0  0  0  0  0  0
  160.3400  212.9240  141.0120 N   0  0  0  0  0  0  0  0  0  0  0  0
  161.8630  213.2370  142.5080 C   0  0  0  0  0  2  0  0  0  0  0  0
  162.2110  214.3080  140.2580 C   0  0  2  0  0  3  0  0  0  0  0  0
  161.7610  214.2340  138.9390 O   0  0  0  0  0  1  0  0  0  0  0  0
  163.7240  214.4500  140.2600 C   0  0  0  0  0  1  0  0  0  0  0  0
  159.9160  211.5600  140.6340 C   0  0  0  0  0  2  0  0  0  0  0  0
  159.2330  211.4410  139.2640 C   0  0  2  0  0  3  0  0  0  0  0  0
  157.7850  211.7810  139.3560 C   0  0  0  0  0  2  0  0  0  0  0  0
  159.1580  210.0170  138.8360 C   0  0  0  0  0  2  0  0  0  0  0  0
  157.9970  209.9000  138.0610 O   0  0  0  0  0  0  0  0  0  0  0  0
  157.0740  210.7370  138.6270 N   0  0  0  0  0  2  0  0  0  0  0  0
  162.1460  207.2250  153.7040 C   0  0  0  0  0  2  0  0  0  0  0  0
  161.2480  205.2920  152.0850 C   0  0  0  0  0  0  0  0  0  0  0  0
  161.6610  206.1450  152.8310 C   0  0  0  0  0  0  0  0  0  0  0  0
  161.3200  202.0990  149.9690 C   0  0  1  0  0  3  0  0  0  0  0  0
  160.5990  206.3390  149.5270 C   0  0  0  0  0  1  0  0  0  0  0  0
  160.7380  204.2880  151.1360 C   0  0  2  0  0  3  0  0  0  0  0  0
  160.7800  202.8250  148.7280 C   0  0  1  0  0  3  0  0  0  0  0  0
  161.1900  204.1690  148.7130 O   0  0  0  0  0  0  0  0  0  0  0  0
  161.7040  203.0990  151.0740 C   0  0  1  0  0  3  0  0  0  0  0  0
  161.2310  202.1820  147.5740 O   0  0  0  0  0  1  0  0  0  0  0  0
  161.7970  202.4610  152.3150 O   0  0  0  0  0  1  0  0  0  0  0  0
  160.4350  204.8320  149.7020 C   0  0  2  0  0  3  0  0  0  0  0  0
  159.3860  201.1650  149.4280 C   0  0  0  0  0  1  0  0  0  0  0  0
  160.3590  201.1920  150.4270 O   0  0  0  0  0  0  0  0  0  0  0  0
  1  9  1  1  0  0  0
  1 17  1  0  0  0  0
  2 47  1  1  0  0  0
  2  7  1  0  0  0  0
  3 11  1  0  0  0  0
  5 12  2  0  0  0  0
  6 17  2  0  0  0  0
  7 21  1  1  0  0  0
  7 11  1  0  0  0  0
  8  3  1  0  0  0  0
  8 16  1  1  0  0  0
 10  2  1  0  0  0  0
 11 18  1  0  0  0  0
 12 14  1  0  0  0  0
 12 15  1  0  0  0  0
 13  1  1  0  0  0  0
 13 10  1  0  0  0  0
 14 13  1  0  0  0  0
 15  4  1  0  0  0  0
 15 10  1  0  0  0  0
 17  8  1  0  0  0  0
 19 18  1  0  0  0  0
 21 20  1  0  0  0  0
 22  6  1  0  0  0  0
 23 22  1  0  0  0  0
 24 23  1  0  0  0  0
 25 26  1  0  0  0  0
 25 28  1  0  0  0  0
 26 28  1  0  0  0  0
 26 24  1  0  0  0  0
 27 25  1  0  0  0  0
 27 26  1  0  0  0  0
 29 27  1  0  0  0  0
 30 31  1  0  0  0  0
 30 29  1  0  0  0  0
 32 30  1  0  0  0  0
 33 32  1  0  0  0  0
 34 37  1  0  0  0  0
 34 33  1  0  0  0  0
 35 36  1  0  0  0  0
 35 37  1  0  0  0  0
 36 34  1  0  0  0  0
 38 40  1  0  0  0  0
 38 35  1  0  0  0  0
 39 38  1  0  0  0  0
 41 36  1  0  0  0  0
 42 43  1  0  0  0  0
 42 41  1  0  0  0  0
 44 42  1  0  0  0  0
 45 46  1  0  0  0  0
 45 44  1  0  0  0  0
 46 43  1  0  0  0  0
 48 49  3  0  0  0  0
 49 47  1  0  0  0  0
 50 60  1  0  0  0  0
 50 55  1  0  0  0  0
 51 58  1  0  0  0  0
 52 48  1  0  0  0  0
 53 50  1  0  0  0  0
 54 53  1  0  0  0  0
 54 58  1  0  0  0  0
 55 52  1  0  0  0  0
 55 57  1  0  0  0  0
 56 53  1  0  0  0  0
 58 52  1  0  0  0  0
 59 60  1  0  0  0  0
M  END
>  <MODEL>
4

>  <REMARK>
 VINA RESULT:      -1.9      1.366      1.566
  Name = 
  18 active torsions:
  status: ('A' for Active; 'I' for Inactive)
    1  A    between atoms: C_1  and  O_20
    2  A    between atoms: C_3  and  C_44
    3  A    between atoms: C_6  and  C_14
    4  A    between atoms: C_8  and  C_21
    5  A    between atoms: C_8  and  C_53
    6  A    between atoms: C_9  and  C_51
    7  A    between atoms: O_15  and  C_34
    8  A    between atoms: C_18  and  O_40
    9  A    between atoms: C_19  and  C_36
   10  A    between atoms: C_19  and  C_59
   11  A    between atoms: C_24  and  C_41
   12  A    between atoms: C_26  and  C_39
   13  A    between atoms: C_32  and  O_42
   14  A    between atoms: C_36  and  C_50
   15  A    between atoms: O_40  and  C_59
   16  A    between atoms: O_42  and  C_53
   17  A    between atoms: C_44  and  C_58
   18  A    between atoms: C_51  and  N_52
                            x       y       z     vdW  Elec       q    Type
                         _______ _______ _______ _____ _____    ______ ____

>  <TORSDO>
F 18

$$$$
