=
 OpenBabel11072414083D

 57 64  0  0  1  0  0  0  0  0999 V2000
  161.1840  213.1330  148.7050 O   0  0  0  0  0  0  0  0  0  0  0  0
  158.8560  213.1550  151.9300 C   0  0  0  0  0  0  0  0  0  0  0  0
  160.6620  208.4040  152.6820 C   0  0  2  0  0  3  0  0  0  0  0  0
  157.0990  214.0730  149.2280 C   0  0  0  0  0  3  0  0  0  0  0  0
  160.4000  211.7420  147.0030 N   0  0  0  0  0  2  0  0  0  0  0  0
  159.7180  213.1910  153.0320 C   0  0  0  0  0  3  0  0  0  0  0  0
  161.7870  209.0640  153.3970 N   0  0  1  0  0  0  0  0  0  0  0  0
  162.5330  208.5680  149.0530 C   0  0  0  0  0  0  0  0  0  0  0  0
  157.1200  214.3260  150.5420 C   0  0  0  0  0  3  0  0  0  0  0  0
  158.0580  213.4440  147.0020 C   0  0  1  0  0  3  0  0  0  0  0  0
  158.3960  214.4530  151.3290 C   0  0  0  0  0  2  0  0  0  0  0  0
  162.4010  209.8840  151.0830 C   0  0  0  0  0  0  0  0  0  0  0  0
  159.9000  209.1060  154.8930 O   0  0  0  0  0  1  0  0  0  0  0  0
  160.4780  214.1990  146.0280 O   0  0  0  0  0  0  0  0  0  0  0  0
  159.8510  210.7670  153.0380 C   0  0  0  0  0  0  0  0  0  0  0  0
  161.0910  211.9660  148.2340 C   0  0  0  0  0  0  0  0  0  0  0  0
  159.2350  212.5100  144.7720 O   0  0  0  0  0  0  0  0  0  0  0  0
  161.8850  210.9520  150.3500 C   0  0  0  0  0  3  0  0  0  0  0  0
  159.5740  213.0040  146.1500 S   0  0  0  0  0  0  0  0  0  0  0  0
  162.5360  210.0370  152.5710 C   0  0  0  0  0  2  0  0  0  0  0  0
  158.9800  210.7300  151.9400 C   0  0  0  0  0  3  0  0  0  0  0  0
  161.6700  210.8370  148.9750 C   0  0  0  0  0  0  0  0  0  0  0  0
  161.9870  209.6350  148.3280 C   0  0  0  0  0  3  0  0  0  0  0  0
  162.7470  208.6950  150.4310 C   0  0  0  0  0  3  0  0  0  0  0  0
  158.3510  213.9370  148.4160 C   0  0  0  0  0  2  0  0  0  0  0  0
  160.3780  209.4830  153.6340 C   0  0  2  0  0  0  0  0  0  0  0  0
  160.2090  212.0040  153.5890 C   0  0  0  0  0  3  0  0  0  0  0  0
  158.4980  211.9140  151.3810 C   0  0  0  0  0  3  0  0  0  0  0  0
  160.4670  207.0040  153.2500 C   0  0  0  0  0  2  0  0  0  0  0  0
  160.0680  205.2180  149.0840 C   0  0  0  0  0  2  0  0  0  0  0  0
  160.3260  206.2500  150.1950 C   0  0  0  0  0  2  0  0  0  0  0  0
  161.1700  205.5060  151.1850 C   0  0  2  0  0  3  0  0  0  0  0  0
  160.4740  203.5200  149.6940 S   0  0  0  0  0  0  0  0  0  0  0  0
  162.6990  205.5330  153.2530 C   0  0  0  0  0  2  0  0  0  0  0  0
  161.4420  204.7090  153.4460 C   0  0  2  0  0  3  0  0  0  0  0  0
  160.4940  204.2130  151.3500 C   0  0  1  0  0  3  0  0  0  0  0  0
  161.3070  203.5640  152.4340 C   0  0  0  0  0  2  0  0  0  0  0  0
  161.4070  205.9930  152.5970 C   0  0  1  0  0  0  0  0  0  0  0  0
  157.2070  214.4260  146.1830 C   0  0  0  0  0  2  0  0  0  0  0  0
  156.9910  213.9950  144.7650 C   0  0  0  0  0  3  0  0  0  0  0  0
  157.7340  214.4510  143.8260 N   0  0  0  0  0  0  0  0  0  0  0  0
  157.5280  214.0210  142.4730 C   0  0  0  0  0  2  0  0  0  0  0  0
  158.8450  213.5490  141.8900 C   0  0  0  0  0  2  0  0  0  0  0  0
  158.7930  213.5860  140.3730 C   0  0  2  0  0  3  0  0  0  0  0  0
  158.1520  212.3780  139.8750 N   0  0  0  0  0  2  0  0  0  0  0  0
  156.6120  211.6380  138.1660 C   0  0  0  0  0  2  0  0  0  0  0  0
  155.8140  211.9860  139.4020 C   0  0  0  0  0  2  0  0  0  0  0  0
  157.0410  212.7980  139.0390 C   0  0  0  0  0  3  0  0  0  0  0  0
  160.2130  213.6740  139.8320 C   0  0  0  0  0  2  0  0  0  0  0  0
  162.4930  212.9990  140.5000 C   0  0  0  0  0  1  0  0  0  0  0  0
  161.0650  212.5190  140.3320 C   0  0  2  0  0  3  0  0  0  0  0  0
  161.0200  211.3670  139.3370 C   0  0  0  0  0  2  0  0  0  0  0  0
  161.2430  211.8560  137.9140 C   0  0  0  0  0  2  0  0  0  0  0  0
  161.9820  210.8090  137.1030 C   0  0  0  0  0  1  0  0  0  0  0  0
  162.8940  207.3010  148.3590 C   0  0  0  0  0  2  0  0  0  0  0  0
  162.1130  207.1760  147.0640 C   0  0  0  0  0  2  0  0  0  0  0  0
  161.9310  205.7120  146.7270 C   0  0  0  0  0  1  0  0  0  0  0  0
  2  6  1  0  0  0  0
  3 29  1  1  0  0  0
  3  7  1  0  0  0  0
  3 26  1  0  0  0  0
  4  9  2  0  0  0  0
  5 16  1  0  0  0  0
  6 27  2  0  0  0  0
  7 20  1  6  0  0  0
  7 26  1  0  0  0  0
  8 24  1  0  0  0  0
  9 11  1  0  0  0  0
 10 39  1  6  0  0  0
 10 25  1  0  0  0  0
 11  2  1  0  0  0  0
 12 20  1  0  0  0  0
 14 19  2  0  0  0  0
 15 27  1  0  0  0  0
 15 26  1  0  0  0  0
 16  1  2  0  0  0  0
 16 22  1  0  0  0  0
 17 19  2  0  0  0  0
 18 12  1  0  0  0  0
 19 10  1  0  0  0  0
 19  5  1  0  0  0  0
 21 15  2  0  0  0  0
 22 18  2  0  0  0  0
 23 22  1  0  0  0  0
 23  8  2  0  0  0  0
 24 12  2  0  0  0  0
 25  4  1  0  0  0  0
 26 13  1  1  0  0  0
 28  2  2  0  0  0  0
 28 21  1  0  0  0  0
 30 33  1  0  0  0  0
 30 31  1  0  0  0  0
 32 31  1  6  0  0  0
 32 36  1  0  0  0  0
 32 38  1  0  0  0  0
 33 36  1  0  0  0  0
 34 35  1  0  0  0  0
 35 37  1  6  0  0  0
 36 37  1  1  0  0  0
 38 29  1  1  0  0  0
 38 34  1  0  0  0  0
 38 35  1  0  0  0  0
 40 39  1  0  0  0  0
 41 40  2  0  0  0  0
 42 41  1  0  0  0  0
 43 42  1  0  0  0  0
 44 49  1  6  0  0  0
 44 43  1  0  0  0  0
 45 44  1  0  0  0  0
 46 48  1  0  0  0  0
 46 47  1  0  0  0  0
 48 47  1  0  0  0  0
 48 45  1  0  0  0  0
 49 51  1  0  0  0  0
 51 50  1  6  0  0  0
 52 51  1  0  0  0  0
 53 52  1  0  0  0  0
 54 53  1  0  0  0  0
 55  8  1  0  0  0  0
 56 55  1  0  0  0  0
 57 56  1  0  0  0  0
M  END
>  <MODEL>
1

>  <REMARK>
 VINA RESULT:      -2.4      0.000      0.000
  Name = 
  15 active torsions:
  status: ('A' for Active; 'I' for Inactive)
    1  A    between atoms: C_3  and  C_49
    2  A    between atoms: C_4  and  C_24
    3  A    between atoms: C_5  and  C_11
    4  A    between atoms: N_7  and  C_21
    5  A    between atoms: N_7  and  C_26
    6  A    between atoms: C_11  and  C_55
    7  A    between atoms: C_12  and  C_49
    8  A    between atoms: C_14  and  C_24
    9  A    between atoms: C_15  and  C_19
   10  A    between atoms: C_19  and  C_51
   11  A    between atoms: C_21  and  C_41
   12  A    between atoms: C_21  and  C_44
   13  A    between atoms: C_22  and  N_32
   14  A    between atoms: C_22  and  C_44
   15  A    between atoms: C_41  and  C_51
                            x       y       z     vdW  Elec       q    Type
                         _______ _______ _______ _____ _____    ______ ____

>  <TORSDO>
F 15

$$$$
=
 OpenBabel11072414083D

 57 64  0  0  1  0  0  0  0  0999 V2000
  162.7260  210.6740  150.0830 O   0  0  0  0  0  0  0  0  0  0  0  0
  161.2820  209.1360  153.4550 C   0  0  0  0  0  0  0  0  0  0  0  0
  160.7930  204.8170  150.7150 C   0  0  2  0  0  3  0  0  0  0  0  0
  159.7010  211.9970  152.7180 C   0  0  0  0  0  3  0  0  0  0  0  0
  161.1010  210.9960  148.4390 N   0  0  0  0  0  2  0  0  0  0  0  0
  162.2430  208.2250  153.9100 C   0  0  0  0  0  3  0  0  0  0  0  0
  162.2010  204.5410  151.1040 N   0  0  1  0  0  0  0  0  0  0  0  0
  161.8530  206.8660  147.3420 C   0  0  0  0  0  0  0  0  0  0  0  0
  160.0690  211.3070  153.8050 C   0  0  0  0  0  3  0  0  0  0  0  0
  159.8510  212.7800  150.3450 C   0  0  1  0  0  3  0  0  0  0  0  0
  161.3760  210.5680  153.9000 C   0  0  0  0  0  2  0  0  0  0  0  0
  162.7050  206.4990  149.5810 C   0  0  0  0  0  0  0  0  0  0  0  0
  160.8450  204.0470  153.0320 O   0  0  0  0  0  1  0  0  0  0  0  0
  162.1310  213.3680  148.9920 O   0  0  0  0  0  0  0  0  0  0  0  0
  161.2410  206.4630  152.5740 C   0  0  0  0  0  0  0  0  0  0  0  0
  162.0230  210.1760  149.1610 C   0  0  0  0  0  0  0  0  0  0  0  0
  160.0490  213.2960  147.7130 O   0  0  0  0  0  0  0  0  0  0  0  0
  162.6200  207.8680  149.8320 C   0  0  0  0  0  3  0  0  0  0  0  0
  160.8150  212.6580  148.8370 S   0  0  0  0  0  0  0  0  0  0  0  0
  163.1560  205.5950  150.6920 C   0  0  0  0  0  2  0  0  0  0  0  0
  160.2730  207.3720  152.1260 C   0  0  0  0  0  3  0  0  0  0  0  0
  162.1370  208.7430  148.8560 C   0  0  0  0  0  0  0  0  0  0  0  0
  161.7430  208.2360  147.6110 C   0  0  0  0  0  3  0  0  0  0  0  0
  162.3410  205.9970  148.3260 C   0  0  0  0  0  3  0  0  0  0  0  0
  160.5840  212.1290  151.5150 C   0  0  0  0  0  2  0  0  0  0  0  0
  161.2120  205.0270  152.1050 C   0  0  2  0  0  0  0  0  0  0  0  0
  162.2210  206.8940  153.4790 C   0  0  0  0  0  3  0  0  0  0  0  0
  160.3010  208.7010  152.5510 C   0  0  0  0  0  3  0  0  0  0  0  0
  160.0770  203.4940  150.4740 C   0  0  0  0  0  2  0  0  0  0  0  0
  160.9470  202.2710  146.1790 C   0  0  0  0  0  2  0  0  0  0  0  0
  160.9300  203.1120  147.4660 C   0  0  0  0  0  2  0  0  0  0  0  0
  161.2600  202.1240  148.5430 C   0  0  2  0  0  3  0  0  0  0  0  0
  160.8790  200.4720  146.6000 S   0  0  0  0  0  0  0  0  0  0  0  0
  161.9450  201.6480  150.9760 C   0  0  0  0  0  2  0  0  0  0  0  0
  160.6030  201.0520  150.6020 C   0  0  2  0  0  3  0  0  0  0  0  0
  160.4030  200.9660  148.2590 C   0  0  1  0  0  3  0  0  0  0  0  0
  160.6830  200.0660  149.4290 C   0  0  0  0  0  2  0  0  0  0  0  0
  161.0430  202.4040  150.0130 C   0  0  1  0  0  0  0  0  0  0  0  0
  159.4190  214.2260  150.6310 C   0  0  0  0  0  2  0  0  0  0  0  0
  158.9740  214.4520  152.0440 C   0  0  0  0  0  3  0  0  0  0  0  0
  157.7730  214.1770  152.4000 N   0  0  0  0  0  0  0  0  0  0  0  0
  157.3610  214.3840  153.7580 C   0  0  0  0  0  2  0  0  0  0  0  0
  156.8860  213.0700  154.3440 C   0  0  0  0  0  2  0  0  0  0  0  0
  157.1590  213.0290  155.8370 C   0  0  2  0  0  3  0  0  0  0  0  0
  156.5090  214.1590  156.4850 N   0  0  0  0  0  2  0  0  0  0  0  0
  154.1400  214.3880  156.9060 C   0  0  0  0  0  2  0  0  0  0  0  0
  154.3850  213.0170  156.3170 C   0  0  0  0  0  2  0  0  0  0  0  0
  155.4020  213.6280  157.2600 C   0  0  0  0  0  3  0  0  0  0  0  0
  158.6610  213.0990  156.0680 C   0  0  0  0  0  2  0  0  0  0  0  0
  160.6110  212.1630  157.2610 C   0  0  0  0  0  1  0  0  0  0  0  0
  159.1010  212.1090  157.1340 C   0  0  2  0  0  3  0  0  0  0  0  0
  158.6630  210.7010  156.7520 C   0  0  0  0  0  2  0  0  0  0  0  0
  159.8250  209.7220  156.8290 C   0  0  0  0  0  2  0  0  0  0  0  0
  159.4360  208.3890  156.2190 C   0  0  0  0  0  1  0  0  0  0  0  0
  161.4590  206.3320  146.0090 C   0  0  0  0  0  2  0  0  0  0  0  0
  162.5450  205.4180  145.4730 C   0  0  0  0  0  2  0  0  0  0  0  0
  162.2770  205.1230  144.0140 C   0  0  0  0  0  1  0  0  0  0  0  0
  2 11  1  0  0  0  0
  2  6  1  0  0  0  0
  3 29  1  1  0  0  0
  3  7  1  0  0  0  0
  3 26  1  0  0  0  0
  4  9  2  0  0  0  0
  5 19  1  0  0  0  0
  5 16  1  0  0  0  0
  7 20  1  6  0  0  0
  7 26  1  0  0  0  0
  8 23  2  0  0  0  0
  8 24  1  0  0  0  0
  9 11  1  0  0  0  0
 10 39  1  1  0  0  0
 10 25  1  0  0  0  0
 12 18  1  0  0  0  0
 12 20  1  0  0  0  0
 15 27  1  0  0  0  0
 16  1  2  0  0  0  0
 17 19  2  0  0  0  0
 19 14  2  0  0  0  0
 19 10  1  0  0  0  0
 21 28  1  0  0  0  0
 21 15  2  0  0  0  0
 22 16  1  0  0  0  0
 22 18  2  0  0  0  0
 23 22  1  0  0  0  0
 24 12  2  0  0  0  0
 25  4  1  0  0  0  0
 26 15  1  0  0  0  0
 26 13  1  1  0  0  0
 27  6  2  0  0  0  0
 28  2  2  0  0  0  0
 30 33  1  0  0  0  0
 30 31  1  0  0  0  0
 32 31  1  6  0  0  0
 32 38  1  0  0  0  0
 33 36  1  0  0  0  0
 35 37  1  6  0  0  0
 35 34  1  0  0  0  0
 36 32  1  0  0  0  0
 36 37  1  1  0  0  0
 38 29  1  1  0  0  0
 38 35  1  0  0  0  0
 38 34  1  0  0  0  0
 39 40  1  0  0  0  0
 40 41  2  0  0  0  0
 41 42  1  0  0  0  0
 42 43  1  0  0  0  0
 44 43  1  6  0  0  0
 44 49  1  0  0  0  0
 44 45  1  0  0  0  0
 45 48  1  0  0  0  0
 46 48  1  0  0  0  0
 47 46  1  0  0  0  0
 47 48  1  0  0  0  0
 49 51  1  0  0  0  0
 51 50  1  6  0  0  0
 52 53  1  0  0  0  0
 52 51  1  0  0  0  0
 54 53  1  0  0  0  0
 55  8  1  0  0  0  0
 56 55  1  0  0  0  0
 57 56  1  0  0  0  0
M  END
>  <MODEL>
2

>  <REMARK>
 VINA RESULT:      -0.9      4.945      8.917
  Name = 
  15 active torsions:
  status: ('A' for Active; 'I' for Inactive)
    1  A    between atoms: C_3  and  C_49
    2  A    between atoms: C_4  and  C_24
    3  A    between atoms: C_5  and  C_11
    4  A    between atoms: N_7  and  C_21
    5  A    between atoms: N_7  and  C_26
    6  A    between atoms: C_11  and  C_55
    7  A    between atoms: C_12  and  C_49
    8  A    between atoms: C_14  and  C_24
    9  A    between atoms: C_15  and  C_19
   10  A    between atoms: C_19  and  C_51
   11  A    between atoms: C_21  and  C_41
   12  A    between atoms: C_21  and  C_44
   13  A    between atoms: C_22  and  N_32
   14  A    between atoms: C_22  and  C_44
   15  A    between atoms: C_41  and  C_51
                            x       y       z     vdW  Elec       q    Type
                         _______ _______ _______ _____ _____    ______ ____

>  <TORSDO>
F 15

$$$$
