=
 OpenBabel11072411153D

 28 30  0  0  1  0  0  0  0  0999 V2000
  161.2160  203.2730  151.5410 C   0  0  0  0  0  3  0  0  0  0  0  0
  161.6660  204.4340  152.1730 C   0  0  0  0  0  3  0  0  0  0  0  0
  160.6420  203.3490  150.2710 C   0  0  0  0  0  0  0  0  0  0  0  0
  160.9680  205.7560  150.2660 C   0  0  0  0  0  0  0  0  0  0  0  0
  160.5200  204.5850  149.6350 C   0  0  0  0  0  3  0  0  0  0  0  0
  160.0780  201.8960  149.4760 Cl  0  0  0  0  0  0  0  0  0  0  0  0
  161.5420  205.6860  151.5460 C   0  0  0  0  0  0  0  0  0  0  0  0
  161.9960  206.8760  152.1420 O   0  0  0  0  0  0  0  0  0  0  0  0
  159.8300  207.1410  156.5260 N   0  0  0  0  0  1  0  0  0  0  0  0
  160.9150  206.9940  154.3480 C   0  0  0  0  0  3  0  0  0  0  0  0
  160.4300  211.1430  153.9300 N   0  0  0  0  0  1  0  0  0  0  0  0
  160.6070  209.7340  154.0510 C   0  0  0  0  0  0  0  0  0  0  0  0
  161.3880  207.6070  153.1790 C   0  0  0  0  0  0  0  0  0  0  0  0
  161.2250  208.9950  153.0270 C   0  0  0  0  0  0  0  0  0  0  0  0
  160.1670  209.1030  155.1720 N   0  0  0  0  0  0  0  0  0  0  0  0
  160.3070  207.7630  155.3400 C   0  0  0  0  0  0  0  0  0  0  0  0
  162.0640  210.1760  150.8670 N   0  0  0  0  0  0  0  0  0  0  0  0
  161.6910  209.6510  151.8290 C   0  0  0  0  0  0  0  0  0  0  0  0
  160.8540  207.0270  149.6170 N   0  0  0  0  0  2  0  0  0  0  0  0
  161.3870  207.3100  148.2830 C   0  0  1  0  0  3  0  0  0  0  0  0
  162.7250  207.6990  148.3750 O   0  0  0  0  0  1  0  0  0  0  0  0
  160.5520  205.4630  145.0820 C   0  0  0  0  0  2  0  0  0  0  0  0
  160.4270  206.4860  146.2230 C   0  0  0  0  0  2  0  0  0  0  0  0
  162.5530  204.4190  146.2060 C   0  0  0  0  0  2  0  0  0  0  0  0
  162.6010  205.7540  146.9570 C   0  0  0  0  0  2  0  0  0  0  0  0
  161.3270  203.2860  144.5040 F   0  0  0  0  0  0  0  0  0  0  0  0
  161.2600  206.1500  147.3930 N   0  0  0  0  0  0  0  0  0  0  0  0
  161.1880  204.1630  145.5630 C   0  0  2  0  0  3  0  0  0  0  0  0
  1  2  1  0  0  0  0
  3  1  2  0  0  0  0
  4  7  1  0  0  0  0
  5  4  2  0  0  0  0
  5  3  1  0  0  0  0
  6  3  1  0  0  0  0
  7  8  1  0  0  0  0
  7  2  2  0  0  0  0
  8 13  1  0  0  0  0
 10 16  1  0  0  0  0
 11 12  1  0  0  0  0
 12 15  1  0  0  0  0
 13 10  2  0  0  0  0
 14 13  1  0  0  0  0
 14 12  2  0  0  0  0
 15 16  2  0  0  0  0
 16  9  1  0  0  0  0
 17 18  3  0  0  0  0
 18 14  1  0  0  0  0
 19  4  1  0  0  0  0
 20 21  1  1  0  0  0
 20 19  1  0  0  0  0
 22 28  1  0  0  0  0
 22 23  1  0  0  0  0
 23 27  1  0  0  0  0
 24 25  1  0  0  0  0
 25 27  1  0  0  0  0
 27 20  1  0  0  0  0
 28 26  1  6  0  0  0
 28 24  1  0  0  0  0
M  END
>  <MODEL>
1

>  <REMARK>
 VINA RESULT:      -8.9      0.000      0.000
  Name = 
  6 active torsions:
  status: ('A' for Active; 'I' for Inactive)
    1  A    between atoms: C_1  and  N_21
    2  A    between atoms: C_1  and  N_27
    3  A    between atoms: O_9  and  C_13
    4  A    between atoms: O_9  and  C_26
    5  A    between atoms: C_16  and  N_27
    6  A    between atoms: C_20  and  C_23
                            x       y       z     vdW  Elec       q    Type
                         _______ _______ _______ _____ _____    ______ ____

>  <TORSDO>
F 6

$$$$
=
 OpenBabel11072411153D

 28 30  0  0  1  0  0  0  0  0999 V2000
  161.6320  208.9550  148.2330 C   0  0  0  0  0  3  0  0  0  0  0  0
  161.3580  207.6060  148.4650 C   0  0  0  0  0  3  0  0  0  0  0  0
  162.0110  209.7810  149.2910 C   0  0  0  0  0  0  0  0  0  0  0  0
  161.8420  207.9020  150.8210 C   0  0  0  0  0  0  0  0  0  0  0  0
  162.1170  209.2570  150.5800 C   0  0  0  0  0  3  0  0  0  0  0  0
  162.3540  211.4730  149.0030 Cl  0  0  0  0  0  0  0  0  0  0  0  0
  161.4560  207.0670  149.7590 C   0  0  0  0  0  0  0  0  0  0  0  0
  161.2040  205.7100  150.0330 O   0  0  0  0  0  0  0  0  0  0  0  0
  161.5500  203.8960  145.4970 N   0  0  0  0  0  1  0  0  0  0  0  0
  161.3850  204.8130  147.7490 C   0  0  0  0  0  3  0  0  0  0  0  0
  160.9050  200.9060  149.2070 N   0  0  0  0  0  1  0  0  0  0  0  0
  161.0690  202.2410  148.7350 C   0  0  0  0  0  0  0  0  0  0  0  0
  161.2270  204.6300  149.1300 C   0  0  0  0  0  0  0  0  0  0  0  0
  161.0600  203.3260  149.6280 C   0  0  0  0  0  0  0  0  0  0  0  0
  161.2300  202.4590  147.4030 N   0  0  0  0  0  0  0  0  0  0  0  0
  161.3870  203.7100  146.8970 C   0  0  0  0  0  0  0  0  0  0  0  0
  160.7420  202.9370  152.1800 N   0  0  0  0  0  0  0  0  0  0  0  0
  160.8830  203.1090  151.0440 C   0  0  0  0  0  0  0  0  0  0  0  0
  161.9580  207.3540  152.1380 N   0  0  0  0  0  2  0  0  0  0  0  0
  160.9760  207.5770  153.2010 C   0  0  1  0  0  3  0  0  0  0  0  0
  160.8220  206.4150  153.9610 O   0  0  0  0  0  1  0  0  0  0  0  0
  160.5880  210.9320  154.9170 C   0  0  0  0  0  2  0  0  0  0  0  0
  160.4960  209.8650  153.8130 C   0  0  0  0  0  2  0  0  0  0  0  0
  161.8260  209.3180  156.4060 C   0  0  0  0  0  2  0  0  0  0  0  0
  161.2300  208.2690  155.4600 C   0  0  0  0  0  2  0  0  0  0  0  0
  161.8410  211.6690  156.8040 F   0  0  0  0  0  0  0  0  0  0  0  0
  161.3610  208.6970  154.0660 N   0  0  0  0  0  0  0  0  0  0  0  0
  161.8150  210.7220  155.7970 C   0  0  2  0  0  3  0  0  0  0  0  0
  1  2  2  0  0  0  0
  1  3  1  0  0  0  0
  2  7  1  0  0  0  0
  3  5  2  0  0  0  0
  4 19  1  0  0  0  0
  5  4  1  0  0  0  0
  6  3  1  0  0  0  0
  7  8  1  0  0  0  0
  7  4  2  0  0  0  0
  9 16  1  0  0  0  0
 10 13  1  0  0  0  0
 12 11  1  0  0  0  0
 12 14  1  0  0  0  0
 13 14  2  0  0  0  0
 13  8  1  0  0  0  0
 14 18  1  0  0  0  0
 15 12  2  0  0  0  0
 16 15  1  0  0  0  0
 16 10  2  0  0  0  0
 18 17  3  0  0  0  0
 19 20  1  0  0  0  0
 20 21  1  1  0  0  0
 20 27  1  0  0  0  0
 22 28  1  0  0  0  0
 23 27  1  0  0  0  0
 23 22  1  0  0  0  0
 25 24  1  0  0  0  0
 27 25  1  0  0  0  0
 28 24  1  0  0  0  0
 28 26  1  1  0  0  0
M  END
>  <MODEL>
2

>  <REMARK>
 VINA RESULT:      -7.7      4.055      8.247
  Name = 
  6 active torsions:
  status: ('A' for Active; 'I' for Inactive)
    1  A    between atoms: C_1  and  N_21
    2  A    between atoms: C_1  and  N_27
    3  A    between atoms: O_9  and  C_13
    4  A    between atoms: O_9  and  C_26
    5  A    between atoms: C_16  and  N_27
    6  A    between atoms: C_20  and  C_23
                            x       y       z     vdW  Elec       q    Type
                         _______ _______ _______ _____ _____    ______ ____

>  <TORSDO>
F 6

$$$$
=
 OpenBabel11072411153D

 28 30  0  0  1  0  0  0  0  0999 V2000
  161.1680  205.0570  153.3030 C   0  0  0  0  0  3  0  0  0  0  0  0
  161.4020  206.4320  153.3690 C   0  0  0  0  0  3  0  0  0  0  0  0
  161.2400  204.3970  152.0760 C   0  0  0  0  0  0  0  0  0  0  0  0
  161.7830  206.4940  150.9770 C   0  0  0  0  0  0  0  0  0  0  0  0
  161.5480  205.1110  150.9180 C   0  0  0  0  0  3  0  0  0  0  0  0
  160.9470  202.6730  151.9900 Cl  0  0  0  0  0  0  0  0  0  0  0  0
  161.7060  207.1640  152.2090 C   0  0  0  0  0  0  0  0  0  0  0  0
  161.9640  208.5470  152.2350 O   0  0  0  0  0  0  0  0  0  0  0  0
  159.1230  210.3320  155.8020 N   0  0  0  0  0  1  0  0  0  0  0  0
  160.5430  209.4330  154.0370 C   0  0  0  0  0  3  0  0  0  0  0  0
  159.9050  212.9590  151.8520 N   0  0  0  0  0  1  0  0  0  0  0  0
  160.1380  211.7550  152.5770 C   0  0  0  0  0  0  0  0  0  0  0  0
  161.1600  209.5630  152.7850 C   0  0  0  0  0  0  0  0  0  0  0  0
  160.9490  210.7380  152.0430 C   0  0  0  0  0  0  0  0  0  0  0  0
  159.5610  211.5920  153.7980 N   0  0  0  0  0  0  0  0  0  0  0  0
  159.7460  210.4640  154.5310 C   0  0  0  0  0  0  0  0  0  0  0  0
  162.0510  211.0190  149.7040 N   0  0  0  0  0  0  0  0  0  0  0  0
  161.5620  210.8940  150.7460 C   0  0  0  0  0  0  0  0  0  0  0  0
  162.1080  207.2320  149.7950 N   0  0  0  0  0  2  0  0  0  0  0  0
  161.1880  207.4170  148.6720 C   0  0  1  0  0  3  0  0  0  0  0  0
  161.5020  208.5900  147.9830 O   0  0  0  0  0  1  0  0  0  0  0  0
  160.6780  205.5720  145.4020 C   0  0  0  0  0  2  0  0  0  0  0  0
  160.4020  206.5490  146.5570 C   0  0  0  0  0  2  0  0  0  0  0  0
  162.7290  204.7120  146.5890 C   0  0  0  0  0  2  0  0  0  0  0  0
  162.6080  206.0270  147.3680 C   0  0  0  0  0  2  0  0  0  0  0  0
  161.6960  203.5000  144.8140 F   0  0  0  0  0  0  0  0  0  0  0  0
  161.2180  206.2720  147.7540 N   0  0  0  0  0  0  0  0  0  0  0  0
  161.4240  204.3320  145.8840 C   0  0  2  0  0  3  0  0  0  0  0  0
  1  2  1  0  0  0  0
  3  1  2  0  0  0  0
  4  7  1  0  0  0  0
  5  4  2  0  0  0  0
  5  3  1  0  0  0  0
  6  3  1  0  0  0  0
  7  8  1  0  0  0  0
  7  2  2  0  0  0  0
  8 13  1  0  0  0  0
 10 16  1  0  0  0  0
 11 12  1  0  0  0  0
 12 15  1  0  0  0  0
 13 10  2  0  0  0  0
 14 12  2  0  0  0  0
 14 13  1  0  0  0  0
 15 16  2  0  0  0  0
 16  9  1  0  0  0  0
 17 18  3  0  0  0  0
 18 14  1  0  0  0  0
 19  4  1  0  0  0  0
 20 21  1  6  0  0  0
 20 19  1  0  0  0  0
 22 28  1  0  0  0  0
 22 23  1  0  0  0  0
 23 27  1  0  0  0  0
 24 25  1  0  0  0  0
 25 27  1  0  0  0  0
 27 20  1  0  0  0  0
 28 26  1  6  0  0  0
 28 24  1  0  0  0  0
M  END
>  <MODEL>
3

>  <REMARK>
 VINA RESULT:      -7.4      1.380      1.903
  Name = 
  6 active torsions:
  status: ('A' for Active; 'I' for Inactive)
    1  A    between atoms: C_1  and  N_21
    2  A    between atoms: C_1  and  N_27
    3  A    between atoms: O_9  and  C_13
    4  A    between atoms: O_9  and  C_26
    5  A    between atoms: C_16  and  N_27
    6  A    between atoms: C_20  and  C_23
                            x       y       z     vdW  Elec       q    Type
                         _______ _______ _______ _____ _____    ______ ____

>  <TORSDO>
F 6

$$$$
=
 OpenBabel11072411153D

 28 30  0  0  1  0  0  0  0  0999 V2000
  160.9430  204.7140  153.1520 C   0  0  0  0  0  3  0  0  0  0  0  0
  161.1580  206.0460  153.5130 C   0  0  0  0  0  3  0  0  0  0  0  0
  161.2100  204.2950  151.8480 C   0  0  0  0  0  0  0  0  0  0  0  0
  161.9060  206.5470  151.2640 C   0  0  0  0  0  0  0  0  0  0  0  0
  161.6900  205.2060  150.9080 C   0  0  0  0  0  3  0  0  0  0  0  0
  160.9420  202.6260  151.3930 Cl  0  0  0  0  0  0  0  0  0  0  0  0
  161.6360  206.9750  152.5740 C   0  0  0  0  0  0  0  0  0  0  0  0
  161.8790  208.3220  152.9010 O   0  0  0  0  0  0  0  0  0  0  0  0
  158.6800  211.8940  151.9070 N   0  0  0  0  0  1  0  0  0  0  0  0
  160.2710  210.1110  152.3860 C   0  0  0  0  0  3  0  0  0  0  0  0
  159.4970  210.6430  156.4770 N   0  0  0  0  0  1  0  0  0  0  0  0
  159.7730  210.4430  155.0930 C   0  0  0  0  0  0  0  0  0  0  0  0
  160.9440  209.2930  153.3050 C   0  0  0  0  0  0  0  0  0  0  0  0
  160.6960  209.4670  154.6770 C   0  0  0  0  0  0  0  0  0  0  0  0
  159.1370  211.2120  154.1710 N   0  0  0  0  0  0  0  0  0  0  0  0
  159.3640  211.0680  152.8390 C   0  0  0  0  0  0  0  0  0  0  0  0
  161.9330  207.9910  156.4250 N   0  0  0  0  0  0  0  0  0  0  0  0
  161.3840  208.6480  155.6470 C   0  0  0  0  0  0  0  0  0  0  0  0
  162.4080  207.4870  150.3080 N   0  0  0  0  0  2  0  0  0  0  0  0
  161.5790  208.1310  149.2880 C   0  0  1  0  0  3  0  0  0  0  0  0
  161.9790  209.4580  149.1150 O   0  0  0  0  0  1  0  0  0  0  0  0
  162.7480  205.4820  146.8450 C   0  0  0  0  0  2  0  0  0  0  0  0
  162.8160  206.5220  147.9750 C   0  0  0  0  0  2  0  0  0  0  0  0
  160.3220  206.0420  146.4440 C   0  0  0  0  0  2  0  0  0  0  0  0
  160.4130  206.6350  147.8550 C   0  0  0  0  0  2  0  0  0  0  0  0
  161.6330  204.8780  144.8280 F   0  0  0  0  0  0  0  0  0  0  0  0
  161.6420  207.4150  148.0090 N   0  0  0  0  0  0  0  0  0  0  0  0
  161.6990  205.8560  145.8020 C   0  0  2  0  0  3  0  0  0  0  0  0
  1  2  1  0  0  0  0
  3  1  2  0  0  0  0
  4  7  1  0  0  0  0
  5  4  2  0  0  0  0
  5  3  1  0  0  0  0
  6  3  1  0  0  0  0
  7  8  1  0  0  0  0
  7  2  2  0  0  0  0
  8 13  1  0  0  0  0
  9 16  1  0  0  0  0
 10 16  2  0  0  0  0
 10 13  1  0  0  0  0
 12 11  1  0  0  0  0
 13 14  2  0  0  0  0
 14 12  1  0  0  0  0
 14 18  1  0  0  0  0
 15 12  2  0  0  0  0
 16 15  1  0  0  0  0
 18 17  3  0  0  0  0
 19  4  1  0  0  0  0
 20 21  1  6  0  0  0
 20 19  1  0  0  0  0
 22 23  1  0  0  0  0
 23 27  1  0  0  0  0
 24 25  1  0  0  0  0
 25 27  1  0  0  0  0
 27 20  1  0  0  0  0
 28 26  1  6  0  0  0
 28 24  1  0  0  0  0
 28 22  1  0  0  0  0
M  END
>  <MODEL>
4

>  <REMARK>
 VINA RESULT:      -7.3      1.533      2.857
  Name = 
  6 active torsions:
  status: ('A' for Active; 'I' for Inactive)
    1  A    between atoms: C_1  and  N_21
    2  A    between atoms: C_1  and  N_27
    3  A    between atoms: O_9  and  C_13
    4  A    between atoms: O_9  and  C_26
    5  A    between atoms: C_16  and  N_27
    6  A    between atoms: C_20  and  C_23
                            x       y       z     vdW  Elec       q    Type
                         _______ _______ _______ _____ _____    ______ ____

>  <TORSDO>
F 6

$$$$
=
 OpenBabel11072411153D

 28 30  0  0  1  0  0  0  0  0999 V2000
  161.9220  211.5000  149.9880 C   0  0  0  0  0  3  0  0  0  0  0  0
  161.8360  210.6880  151.1210 C   0  0  0  0  0  3  0  0  0  0  0  0
  161.9840  210.9210  148.7200 C   0  0  0  0  0  0  0  0  0  0  0  0
  161.8730  208.7110  149.7210 C   0  0  0  0  0  0  0  0  0  0  0  0
  161.9580  209.5320  148.5860 C   0  0  0  0  0  3  0  0  0  0  0  0
  162.0910  211.9360  147.2980 Cl  0  0  0  0  0  0  0  0  0  0  0  0
  161.8160  209.2880  151.0010 C   0  0  0  0  0  0  0  0  0  0  0  0
  161.7140  208.4360  152.1150 O   0  0  0  0  0  0  0  0  0  0  0  0
  160.4030  211.6610  155.5590 N   0  0  0  0  0  1  0  0  0  0  0  0
  161.0550  210.0680  153.8340 C   0  0  0  0  0  3  0  0  0  0  0  0
  160.0810  206.9520  156.4720 N   0  0  0  0  0  1  0  0  0  0  0  0
  160.4160  207.9940  155.5590 C   0  0  0  0  0  0  0  0  0  0  0  0
  161.2180  208.7470  153.3950 C   0  0  0  0  0  0  0  0  0  0  0  0
  160.9000  207.6960  154.2730 C   0  0  0  0  0  0  0  0  0  0  0  0
  160.2660  209.2890  155.9440 N   0  0  0  0  0  0  0  0  0  0  0  0
  160.5720  210.3210  155.1170 C   0  0  0  0  0  0  0  0  0  0  0  0
  161.2060  205.2270  153.5140 N   0  0  0  0  0  0  0  0  0  0  0  0
  161.0700  206.3250  153.8530 C   0  0  0  0  0  0  0  0  0  0  0  0
  161.8370  207.2860  149.5930 N   0  0  0  0  0  2  0  0  0  0  0  0
  161.3450  206.5880  148.4030 C   0  0  1  0  0  3  0  0  0  0  0  0
  162.3290  206.5820  147.4110 O   0  0  0  0  0  1  0  0  0  0  0  0
  161.4280  202.8070  148.1860 C   0  0  0  0  0  2  0  0  0  0  0  0
  161.5000  204.2730  147.7270 C   0  0  0  0  0  2  0  0  0  0  0  0
  160.8270  203.5440  150.5220 C   0  0  0  0  0  2  0  0  0  0  0  0
  161.4120  204.8810  150.0560 C   0  0  0  0  0  2  0  0  0  0  0  0
  160.4510  201.3140  149.7650 F   0  0  0  0  0  0  0  0  0  0  0  0
  160.9350  205.2140  148.7130 N   0  0  0  0  0  0  0  0  0  0  0  0
  160.4560  202.6320  149.3490 C   0  0  2  0  0  3  0  0  0  0  0  0
  1  2  1  0  0  0  0
  3  1  2  0  0  0  0
  4  7  1  0  0  0  0
  5  3  1  0  0  0  0
  5  4  2  0  0  0  0
  6  3  1  0  0  0  0
  7  2  2  0  0  0  0
  7  8  1  0  0  0  0
  8 13  1  0  0  0  0
 10 16  1  0  0  0  0
 12 15  1  0  0  0  0
 12 11  1  0  0  0  0
 13 10  2  0  0  0  0
 13 14  1  0  0  0  0
 14 12  2  0  0  0  0
 16  9  1  0  0  0  0
 16 15  2  0  0  0  0
 17 18  3  0  0  0  0
 18 14  1  0  0  0  0
 19  4  1  0  0  0  0
 20 21  1  6  0  0  0
 20 27  1  0  0  0  0
 20 19  1  0  0  0  0
 22 28  1  0  0  0  0
 23 22  1  0  0  0  0
 23 27  1  0  0  0  0
 25 24  1  0  0  0  0
 27 25  1  0  0  0  0
 28 26  1  1  0  0  0
 28 24  1  0  0  0  0
M  END
>  <MODEL>
5

>  <REMARK>
 VINA RESULT:      -7.1      2.766      4.520
  Name = 
  6 active torsions:
  status: ('A' for Active; 'I' for Inactive)
    1  A    between atoms: C_1  and  N_21
    2  A    between atoms: C_1  and  N_27
    3  A    between atoms: O_9  and  C_13
    4  A    between atoms: O_9  and  C_26
    5  A    between atoms: C_16  and  N_27
    6  A    between atoms: C_20  and  C_23
                            x       y       z     vdW  Elec       q    Type
                         _______ _______ _______ _____ _____    ______ ____

>  <TORSDO>
F 6

$$$$
=
 OpenBabel11072411153D

 28 30  0  0  1  0  0  0  0  0999 V2000
  161.2060  203.2980  151.4710 C   0  0  0  0  0  3  0  0  0  0  0  0
  161.8180  204.4330  152.0060 C   0  0  0  0  0  3  0  0  0  0  0  0
  160.5870  203.3630  150.2220 C   0  0  0  0  0  0  0  0  0  0  0  0
  161.1930  205.7080  150.0430 C   0  0  0  0  0  0  0  0  0  0  0  0
  160.5820  204.5620  149.5100 C   0  0  0  0  0  3  0  0  0  0  0  0
  159.8200  201.9410  149.5490 Cl  0  0  0  0  0  0  0  0  0  0  0  0
  161.8140  205.6490  151.3020 C   0  0  0  0  0  0  0  0  0  0  0  0
  162.4320  206.8110  151.7980 O   0  0  0  0  0  0  0  0  0  0  0  0
  161.9560  211.2620  149.8110 N   0  0  0  0  0  1  0  0  0  0  0  0
  162.1980  209.0400  150.7850 C   0  0  0  0  0  3  0  0  0  0  0  0
  159.8050  210.2910  153.9990 N   0  0  0  0  0  1  0  0  0  0  0  0
  160.6170  209.8440  152.9170 C   0  0  0  0  0  0  0  0  0  0  0  0
  161.9200  208.1220  151.8070 C   0  0  0  0  0  0  0  0  0  0  0  0
  161.1240  208.5320  152.8900 C   0  0  0  0  0  0  0  0  0  0  0  0
  160.9050  210.7030  151.9030 N   0  0  0  0  0  0  0  0  0  0  0  0
  161.6770  210.3320  150.8490 C   0  0  0  0  0  0  0  0  0  0  0  0
  160.5970  206.8720  154.8220 N   0  0  0  0  0  0  0  0  0  0  0  0
  160.8320  207.6120  153.9630 C   0  0  0  0  0  0  0  0  0  0  0  0
  161.2000  206.9400  149.3140 N   0  0  0  0  0  2  0  0  0  0  0  0
  161.6470  207.0620  147.9260 C   0  0  1  0  0  3  0  0  0  0  0  0
  163.0250  207.2900  147.8850 O   0  0  0  0  0  1  0  0  0  0  0  0
  160.4240  205.1140  144.9150 C   0  0  0  0  0  2  0  0  0  0  0  0
  160.4990  206.2340  145.9660 C   0  0  0  0  0  2  0  0  0  0  0  0
  162.2780  203.8640  146.0810 C   0  0  0  0  0  2  0  0  0  0  0  0
  162.5580  205.2320  146.7130 C   0  0  0  0  0  2  0  0  0  0  0  0
  160.8310  202.8020  144.5110 F   0  0  0  0  0  0  0  0  0  0  0  0
  161.3110  205.8680  147.1430 N   0  0  0  0  0  0  0  0  0  0  0  0
  160.8670  203.7740  145.4930 C   0  0  2  0  0  3  0  0  0  0  0  0
  1  2  1  0  0  0  0
  3  1  2  0  0  0  0
  4  7  1  0  0  0  0
  5  4  2  0  0  0  0
  5  3  1  0  0  0  0
  6  3  1  0  0  0  0
  7  8  1  0  0  0  0
  7  2  2  0  0  0  0
  8 13  1  0  0  0  0
  9 16  1  0  0  0  0
 10 16  2  0  0  0  0
 10 13  1  0  0  0  0
 12 11  1  0  0  0  0
 13 14  2  0  0  0  0
 14 12  1  0  0  0  0
 14 18  1  0  0  0  0
 15 12  2  0  0  0  0
 16 15  1  0  0  0  0
 18 17  3  0  0  0  0
 19  4  1  0  0  0  0
 20 21  1  1  0  0  0
 20 19  1  0  0  0  0
 22 28  1  0  0  0  0
 22 23  1  0  0  0  0
 23 27  1  0  0  0  0
 24 25  1  0  0  0  0
 25 27  1  0  0  0  0
 27 20  1  0  0  0  0
 28 26  1  6  0  0  0
 28 24  1  0  0  0  0
M  END
>  <MODEL>
6

>  <REMARK>
 VINA RESULT:      -7.1      0.860      2.496
  Name = 
  6 active torsions:
  status: ('A' for Active; 'I' for Inactive)
    1  A    between atoms: C_1  and  N_21
    2  A    between atoms: C_1  and  N_27
    3  A    between atoms: O_9  and  C_13
    4  A    between atoms: O_9  and  C_26
    5  A    between atoms: C_16  and  N_27
    6  A    between atoms: C_20  and  C_23
                            x       y       z     vdW  Elec       q    Type
                         _______ _______ _______ _____ _____    ______ ____

>  <TORSDO>
F 6

$$$$
=
 OpenBabel11072411153D

 28 30  0  0  1  0  0  0  0  0999 V2000
  161.4930  205.6310  153.2100 C   0  0  0  0  0  3  0  0  0  0  0  0
  161.6170  205.1420  151.9090 C   0  0  0  0  0  3  0  0  0  0  0  0
  161.2230  206.9840  153.4230 C   0  0  0  0  0  0  0  0  0  0  0  0
  161.2030  207.3590  151.0240 C   0  0  0  0  0  0  0  0  0  0  0  0
  161.0780  207.8440  152.3350 C   0  0  0  0  0  3  0  0  0  0  0  0
  161.0670  207.6000  155.0540 Cl  0  0  0  0  0  0  0  0  0  0  0  0
  161.4780  205.9990  150.8040 C   0  0  0  0  0  0  0  0  0  0  0  0
  161.5810  205.5440  149.4770 O   0  0  0  0  0  0  0  0  0  0  0  0
  160.1000  200.9180  150.1080 N   0  0  0  0  0  1  0  0  0  0  0  0
  160.8310  203.2240  149.8090 C   0  0  0  0  0  3  0  0  0  0  0  0
  161.2060  202.4760  145.6960 N   0  0  0  0  0  1  0  0  0  0  0  0
  161.0840  202.7530  147.0880 C   0  0  0  0  0  0  0  0  0  0  0  0
  161.2570  204.2680  148.9760 C   0  0  0  0  0  0  0  0  0  0  0  0
  161.3920  204.0270  147.5980 C   0  0  0  0  0  0  0  0  0  0  0  0
  160.6680  201.7680  147.9280 N   0  0  0  0  0  0  0  0  0  0  0  0
  160.5360  201.9760  149.2640 C   0  0  0  0  0  0  0  0  0  0  0  0
  162.2030  205.9230  146.0140 N   0  0  0  0  0  0  0  0  0  0  0  0
  161.8410  205.0790  146.7190 C   0  0  0  0  0  0  0  0  0  0  0  0
  161.0460  208.2340  149.9020 N   0  0  0  0  0  2  0  0  0  0  0  0
  162.1210  209.0710  149.3660 C   0  0  1  0  0  3  0  0  0  0  0  0
  162.7060  208.4490  148.2610 O   0  0  0  0  0  1  0  0  0  0  0  0
  161.0640  212.6650  149.9310 C   0  0  0  0  0  2  0  0  0  0  0  0
  161.2290  211.1590  150.1950 C   0  0  0  0  0  2  0  0  0  0  0  0
  162.1910  212.4190  147.6880 C   0  0  0  0  0  2  0  0  0  0  0  0
  162.7080  211.1100  148.2950 C   0  0  0  0  0  2  0  0  0  0  0  0
  160.8710  214.3280  148.2360 F   0  0  0  0  0  0  0  0  0  0  0  0
  161.6330  210.4040  148.9940 N   0  0  0  0  0  0  0  0  0  0  0  0
  160.9720  212.9650  148.4380 C   0  0  2  0  0  3  0  0  0  0  0  0
  1  3  1  0  0  0  0
  2  1  2  0  0  0  0
  3  6  1  0  0  0  0
  4  5  1  0  0  0  0
  5  3  2  0  0  0  0
  7  4  2  0  0  0  0
  7  2  1  0  0  0  0
  8  7  1  0  0  0  0
 11 12  1  0  0  0  0
 12 14  2  0  0  0  0
 12 15  1  0  0  0  0
 13  8  1  0  0  0  0
 13 10  2  0  0  0  0
 14 13  1  0  0  0  0
 15 16  2  0  0  0  0
 16 10  1  0  0  0  0
 16  9  1  0  0  0  0
 17 18  3  0  0  0  0
 18 14  1  0  0  0  0
 19  4  1  0  0  0  0
 20 21  1  6  0  0  0
 20 19  1  0  0  0  0
 22 23  1  0  0  0  0
 24 25  1  0  0  0  0
 24 28  1  0  0  0  0
 25 27  1  0  0  0  0
 27 20  1  0  0  0  0
 27 23  1  0  0  0  0
 28 26  1  1  0  0  0
 28 22  1  0  0  0  0
M  END
>  <MODEL>
7

>  <REMARK>
 VINA RESULT:      -7.0      3.765      6.796
  Name = 
  6 active torsions:
  status: ('A' for Active; 'I' for Inactive)
    1  A    between atoms: C_1  and  N_21
    2  A    between atoms: C_1  and  N_27
    3  A    between atoms: O_9  and  C_13
    4  A    between atoms: O_9  and  C_26
    5  A    between atoms: C_16  and  N_27
    6  A    between atoms: C_20  and  C_23
                            x       y       z     vdW  Elec       q    Type
                         _______ _______ _______ _____ _____    ______ ____

>  <TORSDO>
F 6

$$$$
=
 OpenBabel11072411153D

 28 30  0  0  1  0  0  0  0  0999 V2000
  161.2060  205.8370  154.6000 C   0  0  0  0  0  3  0  0  0  0  0  0
  161.6510  205.8380  153.2760 C   0  0  0  0  0  3  0  0  0  0  0  0
  160.5470  206.9540  155.1140 C   0  0  0  0  0  0  0  0  0  0  0  0
  160.7780  208.0780  152.9730 C   0  0  0  0  0  0  0  0  0  0  0  0
  160.3320  208.0700  154.3040 C   0  0  0  0  0  3  0  0  0  0  0  0
  159.9880  206.9560  156.7720 Cl  0  0  0  0  0  0  0  0  0  0  0  0
  161.4460  206.9570  152.4520 C   0  0  0  0  0  0  0  0  0  0  0  0
  161.8650  206.9930  151.1090 O   0  0  0  0  0  0  0  0  0  0  0  0
  160.6160  202.5510  149.4660 N   0  0  0  0  0  1  0  0  0  0  0  0
  161.2330  204.7570  150.2990 C   0  0  0  0  0  3  0  0  0  0  0  0
  161.0140  206.2040  146.3650 N   0  0  0  0  0  1  0  0  0  0  0  0
  161.0920  205.7350  147.7090 C   0  0  0  0  0  0  0  0  0  0  0  0
  161.5040  206.1130  150.0710 C   0  0  0  0  0  0  0  0  0  0  0  0
  161.4390  206.6070  148.7560 C   0  0  0  0  0  0  0  0  0  0  0  0
  160.8310  204.4270  147.9730 N   0  0  0  0  0  0  0  0  0  0  0  0
  160.8940  203.9260  149.2330 C   0  0  0  0  0  0  0  0  0  0  0  0
  161.9560  209.1100  148.2770 N   0  0  0  0  0  0  0  0  0  0  0  0
  161.7250  207.9960  148.4890 C   0  0  0  0  0  0  0  0  0  0  0  0
  160.5540  209.2140  152.1320 N   0  0  0  0  0  2  0  0  0  0  0  0
  161.2340  210.4990  152.3030 C   0  0  1  0  0  3  0  0  0  0  0  0
  161.6300  211.0000  151.0610 O   0  0  0  0  0  1  0  0  0  0  0  0
  158.0170  211.9020  153.7310 C   0  0  0  0  0  2  0  0  0  0  0  0
  158.9560  211.1660  152.7610 C   0  0  0  0  0  2  0  0  0  0  0  0
  159.9830  212.5720  155.1610 C   0  0  0  0  0  2  0  0  0  0  0  0
  160.6800  211.4250  154.4220 C   0  0  0  0  0  2  0  0  0  0  0  0
  157.8700  213.6650  155.3260 F   0  0  0  0  0  0  0  0  0  0  0  0
  160.3800  211.4760  152.9900 N   0  0  0  0  0  0  0  0  0  0  0  0
  158.7280  213.0570  154.4300 C   0  0  2  0  0  3  0  0  0  0  0  0
  1  3  1  0  0  0  0
  2  1  2  0  0  0  0
  3  6  1  0  0  0  0
  4  5  1  0  0  0  0
  5  3  2  0  0  0  0
  7  4  2  0  0  0  0
  7  2  1  0  0  0  0
  8  7  1  0  0  0  0
 11 12  1  0  0  0  0
 12 15  2  0  0  0  0
 12 14  1  0  0  0  0
 13 10  1  0  0  0  0
 13  8  1  0  0  0  0
 14 13  2  0  0  0  0
 15 16  1  0  0  0  0
 16  9  1  0  0  0  0
 16 10  2  0  0  0  0
 17 18  3  0  0  0  0
 18 14  1  0  0  0  0
 19 20  1  0  0  0  0
 19  4  1  0  0  0  0
 20 21  1  6  0  0  0
 20 27  1  0  0  0  0
 22 28  1  0  0  0  0
 23 27  1  0  0  0  0
 23 22  1  0  0  0  0
 25 24  1  0  0  0  0
 27 25  1  0  0  0  0
 28 24  1  0  0  0  0
 28 26  1  1  0  0  0
M  END
>  <MODEL>
8

>  <REMARK>
 VINA RESULT:      -7.0      3.925      7.446
  Name = 
  6 active torsions:
  status: ('A' for Active; 'I' for Inactive)
    1  A    between atoms: C_1  and  N_21
    2  A    between atoms: C_1  and  N_27
    3  A    between atoms: O_9  and  C_13
    4  A    between atoms: O_9  and  C_26
    5  A    between atoms: C_16  and  N_27
    6  A    between atoms: C_20  and  C_23
                            x       y       z     vdW  Elec       q    Type
                         _______ _______ _______ _____ _____    ______ ____

>  <TORSDO>
F 6

$$$$
=
 OpenBabel11072411153D

 28 30  0  0  1  0  0  0  0  0999 V2000
  160.8650  205.4830  153.9450 C   0  0  0  0  0  3  0  0  0  0  0  0
  161.0020  205.2300  152.5790 C   0  0  0  0  0  3  0  0  0  0  0  0
  160.8630  206.7980  154.4130 C   0  0  0  0  0  0  0  0  0  0  0  0
  161.1350  207.6090  152.1400 C   0  0  0  0  0  0  0  0  0  0  0  0
  160.9950  207.8570  153.5150 C   0  0  0  0  0  3  0  0  0  0  0  0
  160.6910  207.1180  156.1250 Cl  0  0  0  0  0  0  0  0  0  0  0  0
  161.1430  206.2870  151.6640 C   0  0  0  0  0  0  0  0  0  0  0  0
  161.2670  206.0760  150.2790 O   0  0  0  0  0  0  0  0  0  0  0  0
  160.5990  201.2260  150.1540 N   0  0  0  0  0  1  0  0  0  0  0  0
  160.9240  203.6410  150.2310 C   0  0  0  0  0  3  0  0  0  0  0  0
  161.5810  203.5930  146.0860 N   0  0  0  0  0  1  0  0  0  0  0  0
  161.3590  203.6330  147.4930 C   0  0  0  0  0  0  0  0  0  0  0  0
  161.1920  204.8550  149.5840 C   0  0  0  0  0  0  0  0  0  0  0  0
  161.4190  204.8490  148.1960 C   0  0  0  0  0  0  0  0  0  0  0  0
  161.0910  202.4770  148.1570 N   0  0  0  0  0  0  0  0  0  0  0  0
  160.8750  202.4560  149.4970 C   0  0  0  0  0  0  0  0  0  0  0  0
  161.9440  207.0720  146.9530 N   0  0  0  0  0  0  0  0  0  0  0  0
  161.7100  206.0820  147.5050 C   0  0  0  0  0  0  0  0  0  0  0  0
  161.2620  208.6900  151.2110 N   0  0  0  0  0  2  0  0  0  0  0  0
  161.5740  210.0660  151.6010 C   0  0  1  0  0  3  0  0  0  0  0  0
  161.9270  210.8150  150.4760 O   0  0  0  0  0  1  0  0  0  0  0  0
  159.8400  212.0220  154.3440 C   0  0  0  0  0  2  0  0  0  0  0  0
  160.8190  211.0380  153.6810 C   0  0  0  0  0  2  0  0  0  0  0  0
  158.7740  212.5010  152.1090 C   0  0  0  0  0  2  0  0  0  0  0  0
  160.0810  211.9150  151.5630 C   0  0  0  0  0  2  0  0  0  0  0  0
  157.6930  213.0380  154.1660 F   0  0  0  0  0  0  0  0  0  0  0  0
  160.4470  210.7000  152.2940 N   0  0  0  0  0  0  0  0  0  0  0  0
  158.5280  212.1130  153.5700 C   0  0  2  0  0  3  0  0  0  0  0  0
  1  3  1  0  0  0  0
  2  1  2  0  0  0  0
  3  6  1  0  0  0  0
  4  5  1  0  0  0  0
  5  3  2  0  0  0  0
  7  4  2  0  0  0  0
  7  2  1  0  0  0  0
  8  7  1  0  0  0  0
 11 12  1  0  0  0  0
 12 15  2  0  0  0  0
 12 14  1  0  0  0  0
 13 10  1  0  0  0  0
 13  8  1  0  0  0  0
 14 13  2  0  0  0  0
 15 16  1  0  0  0  0
 16  9  1  0  0  0  0
 16 10  2  0  0  0  0
 17 18  3  0  0  0  0
 18 14  1  0  0  0  0
 19 20  1  0  0  0  0
 19  4  1  0  0  0  0
 20 21  1  6  0  0  0
 20 27  1  0  0  0  0
 23 22  1  0  0  0  0
 24 28  1  0  0  0  0
 25 24  1  0  0  0  0
 25 27  1  0  0  0  0
 27 23  1  0  0  0  0
 28 26  1  1  0  0  0
 28 22  1  0  0  0  0
M  END
>  <MODEL>
9

>  <REMARK>
 VINA RESULT:      -6.8      3.834      7.407
  Name = 
  6 active torsions:
  status: ('A' for Active; 'I' for Inactive)
    1  A    between atoms: C_1  and  N_21
    2  A    between atoms: C_1  and  N_27
    3  A    between atoms: O_9  and  C_13
    4  A    between atoms: O_9  and  C_26
    5  A    between atoms: C_16  and  N_27
    6  A    between atoms: C_20  and  C_23
                            x       y       z     vdW  Elec       q    Type
                         _______ _______ _______ _____ _____    ______ ____

>  <TORSDO>
F 6

$$$$
