=
 OpenBabel11072415023D

 39 38  0  0  1  0  0  0  0  0999 V2000
  161.5200  207.8580  149.4560 C   0  0  1  0  0  3  0  0  0  0  0  0
  159.9230  206.1120  149.0480 O   0  0  0  0  0  0  0  0  0  0  0  0
  160.7940  206.8900  148.5710 C   0  0  0  0  0  0  0  0  0  0  0  0
  161.1230  206.8360  147.1850 N   0  0  0  0  0  2  0  0  0  0  0  0
  160.4560  205.9570  146.3150 N   0  0  0  0  0  2  0  0  0  0  0  0
  161.1210  205.1410  144.2190 O   0  0  0  0  0  1  0  0  0  0  0  0
  161.4470  205.1700  145.5790 C   0  0  1  0  0  0  0  0  0  0  0  0
  162.8270  205.8030  145.7370 C   0  0  0  0  0  1  0  0  0  0  0  0
  161.4220  203.7530  146.1080 C   0  0  0  0  0  0  0  0  0  0  0  0
  160.9200  202.8720  145.4260 O   0  0  0  0  0  0  0  0  0  0  0  0
  161.9580  203.3910  147.4620 C   0  0  0  0  0  2  0  0  0  0  0  0
  160.9070  202.8220  148.2880 N   0  0  0  0  0  2  0  0  0  0  0  0
  160.7960  203.4970  152.3010 C   0  0  0  0  0  1  0  0  0  0  0  0
  160.8700  203.0560  149.6700 C   0  0  0  0  0  0  0  0  0  0  0  0
  160.8360  203.2560  150.8590 C   0  0  0  0  0  0  0  0  0  0  0  0
  162.1750  206.9080  151.6820 C   0  0  0  0  0  3  0  0  0  0  0  0
  162.4720  207.1820  150.4070 C   0  0  0  0  0  3  0  0  0  0  0  0
  160.8570  207.2500  152.2970 C   0  0  0  0  0  2  0  0  0  0  0  0
  161.0790  207.8490  153.6710 C   0  0  0  0  0  2  0  0  0  0  0  0
  161.3690  209.3390  153.5590 C   0  0  0  0  0  2  0  0  0  0  0  0
  160.5200  210.1460  154.5380 C   0  0  1  0  0  3  0  0  0  0  0  0
  159.4390  212.4850  154.3680 N   0  0  0  0  0  0  0  0  0  0  0  0
  159.5630  213.8680  156.2680 O   0  0  0  0  0  0  0  0  0  0  0  0
  159.1660  210.8540  152.7220 O   0  0  0  0  0  0  0  0  0  0  0  0
  159.9650  212.8430  155.6560 C   0  0  0  0  0  3  0  0  0  0  0  0
  159.6770  211.1730  153.8280 C   0  0  0  0  0  0  0  0  0  0  0  0
  156.3240  214.1120  152.8330 C   0  0  0  0  0  1  0  0  0  0  0  0
  158.5770  213.3500  153.6660 N   0  0  0  0  0  2  0  0  0  0  0  0
  156.5910  212.6810  154.7090 O   0  0  0  0  0  0  0  0  0  0  0  0
  157.1510  213.3240  153.7840 C   0  0  0  0  0  0  0  0  0  0  0  0
  159.7160  209.2920  155.2950 O   0  0  0  0  0  0  0  0  0  0  0  0
  160.1190  209.4980  156.6160 C   0  0  0  0  0  1  0  0  0  0  0  0
  162.2040  208.9620  148.6520 C   0  0  0  0  0  2  0  0  0  0  0  0
  161.8980  210.3570  149.1880 C   0  0  0  0  0  2  0  0  0  0  0  0
  161.7500  211.2740  148.1120 O   0  0  0  0  0  0  0  0  0  0  0  0
  162.4080  212.5060  148.0840 C   0  0  0  0  0  0  0  0  0  0  0  0
  163.6570  212.5620  147.9150 O   0  0  0  0  0  0  0  0  0  0  0  0
  160.8070  213.9020  149.2910 C   0  0  0  0  0  2  0  0  0  0  0  0
  161.6240  213.7330  148.2600 C   0  0  0  0  0  3  0  0  0  0  0  0
  1 33  1  6  0  0  0
  1 17  1  0  0  0  0
  3  2  2  0  0  0  0
  3  1  1  0  0  0  0
  4  3  1  0  0  0  0
  5  4  1  0  0  0  0
  6  7  1  0  0  0  0
  7  8  1  1  0  0  0
  7  9  1  0  0  0  0
  7  5  1  0  0  0  0
  9 11  1  0  0  0  0
 10  9  2  0  0  0  0
 11 12  1  0  0  0  0
 12 14  1  0  0  0  0
 14 15  3  0  0  0  0
 15 13  1  0  0  0  0
 16 18  1  0  0  0  0
 17 16  2  0  0  0  0
 18 19  1  0  0  0  0
 20 19  1  0  0  0  0
 21 20  1  6  0  0  0
 21 31  1  0  0  0  0
 22 25  1  0  0  0  0
 24 26  2  0  0  0  0
 25 23  2  0  0  0  0
 26 22  1  0  0  0  0
 26 21  1  0  0  0  0
 27 30  1  0  0  0  0
 28 30  1  0  0  0  0
 28 22  1  0  0  0  0
 30 29  2  0  0  0  0
 31 32  1  0  0  0  0
 33 34  1  0  0  0  0
 35 34  1  0  0  0  0
 36 35  1  0  0  0  0
 36 39  1  0  0  0  0
 37 36  2  0  0  0  0
 39 38  2  0  0  0  0
M  END
>  <MODEL>
1

>  <REMARK>
 VINA RESULT:      -6.4      0.000      0.000
  Name = 
  20 active torsions:
  status: ('A' for Active; 'I' for Inactive)
    1  A    between atoms: O_3  and  C_11
    2  A    between atoms: O_3  and  C_12
    3  A    between atoms: N_4  and  N_13
    4  A    between atoms: C_7  and  C_20
    5  A    between atoms: C_7  and  C_35
    6  A    between atoms: C_10  and  O_17
    7  A    between atoms: C_10  and  C_26
    8  A    between atoms: C_10  and  C_39
    9  A    between atoms: C_11  and  C_19
   10  A    between atoms: C_12  and  C_38
   11  A    between atoms: N_14  and  C_24
   12  A    between atoms: N_14  and  N_36
   13  A    between atoms: N_16  and  C_22
   14  A    between atoms: N_16  and  C_27
   15  A    between atoms: C_22  and  C_28
   16  A    between atoms: C_24  and  C_28
   17  A    between atoms: C_26  and  C_35
   18  A    between atoms: C_29  and  C_32
   19  A    between atoms: C_32  and  C_33
   20  A    between atoms: C_32  and  C_38
                            x       y       z     vdW  Elec       q    Type
                         _______ _______ _______ _____ _____    ______ ____

>  <TORSDO>
F 20

$$$$
=
 OpenBabel11072415023D

 39 38  0  0  1  0  0  0  0  0999 V2000
  161.0040  206.5470  151.4560 C   0  0  1  0  0  3  0  0  0  0  0  0
  161.2960  204.3030  150.6520 O   0  0  0  0  0  0  0  0  0  0  0  0
  161.1010  205.5170  150.3710 C   0  0  0  0  0  0  0  0  0  0  0  0
  161.0030  205.9310  149.0100 N   0  0  0  0  0  2  0  0  0  0  0  0
  161.0690  204.9980  147.9610 N   0  0  0  0  0  2  0  0  0  0  0  0
  162.0500  206.9420  147.0890 O   0  0  0  0  0  1  0  0  0  0  0  0
  161.8140  205.5850  146.8460 C   0  0  1  0  0  0  0  0  0  0  0  0
  163.1570  204.8760  146.6930 C   0  0  0  0  0  1  0  0  0  0  0  0
  160.9760  205.4620  145.5930 C   0  0  0  0  0  0  0  0  0  0  0  0
  160.0530  206.2430  145.4150 O   0  0  0  0  0  0  0  0  0  0  0  0
  161.2090  204.3880  144.5710 C   0  0  0  0  0  2  0  0  0  0  0  0
  160.3720  203.2330  144.8490 N   0  0  0  0  0  2  0  0  0  0  0  0
  161.3060  200.6390  147.8430 C   0  0  0  0  0  1  0  0  0  0  0  0
  160.6960  202.3390  145.8790 C   0  0  0  0  0  0  0  0  0  0  0  0
  160.9730  201.5710  146.7660 C   0  0  0  0  0  0  0  0  0  0  0  0
  161.8170  206.5760  153.8280 C   0  0  0  0  0  3  0  0  0  0  0  0
  162.0490  206.3700  152.5260 C   0  0  0  0  0  3  0  0  0  0  0  0
  160.4870  207.0090  154.3540 C   0  0  0  0  0  2  0  0  0  0  0  0
  160.5200  207.0170  155.8690 C   0  0  0  0  0  2  0  0  0  0  0  0
  159.8280  208.2610  156.4070 C   0  0  0  0  0  2  0  0  0  0  0  0
  160.4720  209.5340  155.8650 C   0  0  1  0  0  3  0  0  0  0  0  0
  159.0490  211.2430  154.5530 N   0  0  0  0  0  0  0  0  0  0  0  0
  159.4360  211.4140  152.2390 O   0  0  0  0  0  0  0  0  0  0  0  0
  159.0430  211.1300  156.8830 O   0  0  0  0  0  0  0  0  0  0  0  0
  159.5930  210.7710  153.3100 C   0  0  0  0  0  3  0  0  0  0  0  0
  159.4880  210.6710  155.7990 C   0  0  0  0  0  0  0  0  0  0  0  0
  155.9540  213.4950  154.3190 C   0  0  0  0  0  1  0  0  0  0  0  0
  158.1830  212.3530  154.5960 N   0  0  0  0  0  2  0  0  0  0  0  0
  156.1760  211.1480  154.6070 O   0  0  0  0  0  0  0  0  0  0  0  0
  156.7590  212.2590  154.4980 C   0  0  0  0  0  0  0  0  0  0  0  0
  161.5750  209.8860  156.6460 O   0  0  0  0  0  0  0  0  0  0  0  0
  162.4440  210.5360  155.7680 C   0  0  0  0  0  1  0  0  0  0  0  0
  160.9980  207.9670  150.8930 C   0  0  0  0  0  2  0  0  0  0  0  0
  162.3470  208.6650  151.0430 C   0  0  0  0  0  2  0  0  0  0  0  0
  162.2240  210.0440  150.7190 O   0  0  0  0  0  0  0  0  0  0  0  0
  162.0820  210.4920  149.4040 C   0  0  0  0  0  0  0  0  0  0  0  0
  162.1910  209.6880  148.4370 O   0  0  0  0  0  0  0  0  0  0  0  0
  162.4770  212.6120  148.2570 C   0  0  0  0  0  2  0  0  0  0  0  0
  161.8090  211.9130  149.1650 C   0  0  0  0  0  3  0  0  0  0  0  0
  1 33  1  6  0  0  0
  1 17  1  0  0  0  0
  3  2  2  0  0  0  0
  3  1  1  0  0  0  0
  4  3  1  0  0  0  0
  5  4  1  0  0  0  0
  7  8  1  6  0  0  0
  7  6  1  0  0  0  0
  7  5  1  0  0  0  0
  9  7  1  0  0  0  0
 10  9  2  0  0  0  0
 11 12  1  0  0  0  0
 11  9  1  0  0  0  0
 12 14  1  0  0  0  0
 14 15  3  0  0  0  0
 15 13  1  0  0  0  0
 16 18  1  0  0  0  0
 17 16  2  0  0  0  0
 18 19  1  0  0  0  0
 19 20  1  0  0  0  0
 21 20  1  1  0  0  0
 21 31  1  0  0  0  0
 22 28  1  0  0  0  0
 22 26  1  0  0  0  0
 23 25  2  0  0  0  0
 25 22  1  0  0  0  0
 26 21  1  0  0  0  0
 26 24  2  0  0  0  0
 27 30  1  0  0  0  0
 30 28  1  0  0  0  0
 30 29  2  0  0  0  0
 32 31  1  0  0  0  0
 33 34  1  0  0  0  0
 35 34  1  0  0  0  0
 36 35  1  0  0  0  0
 37 36  2  0  0  0  0
 38 39  2  0  0  0  0
 39 36  1  0  0  0  0
M  END
>  <MODEL>
2

>  <REMARK>
 VINA RESULT:      -6.4      1.904      2.793
  Name = 
  20 active torsions:
  status: ('A' for Active; 'I' for Inactive)
    1  A    between atoms: O_3  and  C_11
    2  A    between atoms: O_3  and  C_12
    3  A    between atoms: N_4  and  N_13
    4  A    between atoms: C_7  and  C_20
    5  A    between atoms: C_7  and  C_35
    6  A    between atoms: C_10  and  O_17
    7  A    between atoms: C_10  and  C_26
    8  A    between atoms: C_10  and  C_39
    9  A    between atoms: C_11  and  C_19
   10  A    between atoms: C_12  and  C_38
   11  A    between atoms: N_14  and  C_24
   12  A    between atoms: N_14  and  N_36
   13  A    between atoms: N_16  and  C_22
   14  A    between atoms: N_16  and  C_27
   15  A    between atoms: C_22  and  C_28
   16  A    between atoms: C_24  and  C_28
   17  A    between atoms: C_26  and  C_35
   18  A    between atoms: C_29  and  C_32
   19  A    between atoms: C_32  and  C_33
   20  A    between atoms: C_32  and  C_38
                            x       y       z     vdW  Elec       q    Type
                         _______ _______ _______ _____ _____    ______ ____

>  <TORSDO>
F 20

$$$$
=
 OpenBabel11072415023D

 39 38  0  0  1  0  0  0  0  0999 V2000
  161.8580  208.6500  150.8110 C   0  0  1  0  0  3  0  0  0  0  0  0
  162.0950  208.6590  148.4210 O   0  0  0  0  0  0  0  0  0  0  0  0
  161.9700  209.3320  149.4800 C   0  0  0  0  0  0  0  0  0  0  0  0
  161.9650  210.7570  149.4290 N   0  0  0  0  0  2  0  0  0  0  0  0
  162.0490  211.4390  148.2030 N   0  0  0  0  0  2  0  0  0  0  0  0
  160.8770  212.8890  149.6250 O   0  0  0  0  0  1  0  0  0  0  0  0
  161.3710  212.7310  148.3270 C   0  0  1  0  0  0  0  0  0  0  0  0
  162.3590  213.8590  148.0400 C   0  0  0  0  0  1  0  0  0  0  0  0
  160.2060  212.7550  147.3640 C   0  0  0  0  0  0  0  0  0  0  0  0
  159.1430  213.2360  147.7270 O   0  0  0  0  0  0  0  0  0  0  0  0
  160.2900  212.1720  145.9830 C   0  0  0  0  0  2  0  0  0  0  0  0
  160.3650  213.2300  144.9890 N   0  0  0  0  0  2  0  0  0  0  0  0
  163.9510  214.4530  143.5020 C   0  0  0  0  0  1  0  0  0  0  0  0
  161.6000  213.6530  144.4790 C   0  0  0  0  0  0  0  0  0  0  0  0
  162.6630  214.0140  144.0380 C   0  0  0  0  0  0  0  0  0  0  0  0
  162.2350  206.2100  151.2530 C   0  0  0  0  0  3  0  0  0  0  0  0
  162.7110  207.4130  150.9070 C   0  0  0  0  0  3  0  0  0  0  0  0
  160.7970  205.9740  151.5820 C   0  0  0  0  0  2  0  0  0  0  0  0
  160.3670  204.6280  151.0350 C   0  0  0  0  0  2  0  0  0  0  0  0
  161.4990  203.9920  150.2420 C   0  0  0  0  0  2  0  0  0  0  0  0
  160.9760  203.2890  148.9910 C   0  0  1  0  0  3  0  0  0  0  0  0
  161.1690  203.4500  146.4220 N   0  0  0  0  0  0  0  0  0  0  0  0
  160.5110  201.5680  145.1730 O   0  0  0  0  0  0  0  0  0  0  0  0
  162.0470  205.0730  147.8510 O   0  0  0  0  0  0  0  0  0  0  0  0
  160.5140  202.1810  146.2730 C   0  0  0  0  0  3  0  0  0  0  0  0
  161.4240  203.9840  147.7330 C   0  0  0  0  0  0  0  0  0  0  0  0
  161.5390  205.6940  143.3340 C   0  0  0  0  0  1  0  0  0  0  0  0
  161.6930  204.1360  145.3080 N   0  0  0  0  0  2  0  0  0  0  0  0
  159.9990  205.7430  145.1400 O   0  0  0  0  0  0  0  0  0  0  0  0
  161.0110  205.1960  144.6300 C   0  0  0  0  0  0  0  0  0  0  0  0
  161.3840  201.9540  148.9840 O   0  0  0  0  0  0  0  0  0  0  0  0
  160.4210  201.2810  149.7380 C   0  0  0  0  0  1  0  0  0  0  0  0
  162.1170  209.6130  151.9670 C   0  0  0  0  0  2  0  0  0  0  0  0
  160.9740  209.6400  152.9780 C   0  0  0  0  0  2  0  0  0  0  0  0
  161.4750  209.9240  154.2780 O   0  0  0  0  0  0  0  0  0  0  0  0
  161.3230  209.0380  155.3470 C   0  0  0  0  0  0  0  0  0  0  0  0
  161.8240  209.3030  156.4750 O   0  0  0  0  0  0  0  0  0  0  0  0
  160.1050  207.0790  156.1490 C   0  0  0  0  0  2  0  0  0  0  0  0
  160.5770  207.7940  155.1370 C   0  0  0  0  0  3  0  0  0  0  0  0
  1 17  1  6  0  0  0
  1 33  1  0  0  0  0
  2  3  2  0  0  0  0
  3  1  1  0  0  0  0
  4  3  1  0  0  0  0
  5  7  1  0  0  0  0
  5  4  1  0  0  0  0
  7  8  1  6  0  0  0
  7  6  1  0  0  0  0
  9 10  2  0  0  0  0
  9  7  1  0  0  0  0
 11  9  1  0  0  0  0
 12 11  1  0  0  0  0
 13 15  1  0  0  0  0
 14 12  1  0  0  0  0
 15 14  3  0  0  0  0
 16 18  1  0  0  0  0
 17 16  2  0  0  0  0
 19 18  1  0  0  0  0
 20 19  1  0  0  0  0
 21 20  1  1  0  0  0
 22 26  1  0  0  0  0
 23 25  2  0  0  0  0
 25 22  1  0  0  0  0
 26 24  2  0  0  0  0
 26 21  1  0  0  0  0
 27 30  1  0  0  0  0
 28 22  1  0  0  0  0
 30 29  2  0  0  0  0
 30 28  1  0  0  0  0
 31 21  1  0  0  0  0
 31 32  1  0  0  0  0
 33 34  1  0  0  0  0
 34 35  1  0  0  0  0
 35 36  1  0  0  0  0
 36 37  2  0  0  0  0
 39 36  1  0  0  0  0
 39 38  2  0  0  0  0
M  END
>  <MODEL>
3

>  <REMARK>
 VINA RESULT:      -6.1      2.872      9.361
  Name = 
  20 active torsions:
  status: ('A' for Active; 'I' for Inactive)
    1  A    between atoms: O_3  and  C_11
    2  A    between atoms: O_3  and  C_12
    3  A    between atoms: N_4  and  N_13
    4  A    between atoms: C_7  and  C_20
    5  A    between atoms: C_7  and  C_35
    6  A    between atoms: C_10  and  O_17
    7  A    between atoms: C_10  and  C_26
    8  A    between atoms: C_10  and  C_39
    9  A    between atoms: C_11  and  C_19
   10  A    between atoms: C_12  and  C_38
   11  A    between atoms: N_14  and  C_24
   12  A    between atoms: N_14  and  N_36
   13  A    between atoms: N_16  and  C_22
   14  A    between atoms: N_16  and  C_27
   15  A    between atoms: C_22  and  C_28
   16  A    between atoms: C_24  and  C_28
   17  A    between atoms: C_26  and  C_35
   18  A    between atoms: C_29  and  C_32
   19  A    between atoms: C_32  and  C_33
   20  A    between atoms: C_32  and  C_38
                            x       y       z     vdW  Elec       q    Type
                         _______ _______ _______ _____ _____    ______ ____

>  <TORSDO>
F 20

$$$$
=
 OpenBabel11072415023D

 39 38  0  0  1  0  0  0  0  0999 V2000
  161.8220  208.9140  150.7380 C   0  0  1  0  0  3  0  0  0  0  0  0
  161.8290  209.0950  148.3430 O   0  0  0  0  0  0  0  0  0  0  0  0
  161.9100  209.6860  149.4550 C   0  0  0  0  0  0  0  0  0  0  0  0
  162.1190  211.0950  149.5050 N   0  0  0  0  0  2  0  0  0  0  0  0
  162.1890  211.8610  148.3290 N   0  0  0  0  0  2  0  0  0  0  0  0
  160.5670  212.9240  149.6480 O   0  0  0  0  0  1  0  0  0  0  0  0
  161.2180  212.9530  148.4110 C   0  0  1  0  0  0  0  0  0  0  0  0
  161.9380  214.2920  148.2700 C   0  0  0  0  0  1  0  0  0  0  0  0
  160.1860  212.7610  147.3220 C   0  0  0  0  0  0  0  0  0  0  0  0
  160.3550  211.8810  146.4920 O   0  0  0  0  0  0  0  0  0  0  0  0
  158.9760  213.6390  147.1970 C   0  0  0  0  0  2  0  0  0  0  0  0
  157.7780  212.9100  147.5790 N   0  0  0  0  0  2  0  0  0  0  0  0
  155.3970  214.2310  150.6050 C   0  0  0  0  0  1  0  0  0  0  0  0
  156.9600  213.3640  148.6230 C   0  0  0  0  0  0  0  0  0  0  0  0
  156.2540  213.7570  149.5190 C   0  0  0  0  0  0  0  0  0  0  0  0
  162.1000  206.4240  150.6530 C   0  0  0  0  0  3  0  0  0  0  0  0
  162.6370  207.6480  150.7160 C   0  0  0  0  0  3  0  0  0  0  0  0
  160.6260  206.1890  150.5990 C   0  0  0  0  0  2  0  0  0  0  0  0
  160.3470  204.7010  150.6790 C   0  0  0  0  0  2  0  0  0  0  0  0
  161.4750  203.9150  150.0280 C   0  0  0  0  0  2  0  0  0  0  0  0
  160.9920  203.1750  148.7820 C   0  0  1  0  0  3  0  0  0  0  0  0
  161.1250  203.3530  146.2100 N   0  0  0  0  0  0  0  0  0  0  0  0
  160.3450  201.5180  144.9620 O   0  0  0  0  0  0  0  0  0  0  0  0
  162.1170  204.9170  147.6290 O   0  0  0  0  0  0  0  0  0  0  0  0
  160.4050  202.1180  146.0680 C   0  0  0  0  0  3  0  0  0  0  0  0
  161.4400  203.8610  147.5190 C   0  0  0  0  0  0  0  0  0  0  0  0
  161.5380  205.6460  143.1640 C   0  0  0  0  0  1  0  0  0  0  0  0
  161.6520  204.0250  145.0890 N   0  0  0  0  0  2  0  0  0  0  0  0
  160.0940  205.7730  145.0460 O   0  0  0  0  0  0  0  0  0  0  0  0
  161.0320  205.1580  144.4730 C   0  0  0  0  0  0  0  0  0  0  0  0
  161.4370  201.8520  148.8050 O   0  0  0  0  0  0  0  0  0  0  0  0
  160.6050  201.2100  149.7240 C   0  0  0  0  0  1  0  0  0  0  0  0
  162.1510  209.7850  151.9480 C   0  0  0  0  0  2  0  0  0  0  0  0
  160.9390  210.0340  152.8410 C   0  0  0  0  0  2  0  0  0  0  0  0
  160.3890  208.7990  153.2780 O   0  0  0  0  0  0  0  0  0  0  0  0
  161.0000  208.0140  154.2590 C   0  0  0  0  0  0  0  0  0  0  0  0
  161.5720  206.9320  153.9510 O   0  0  0  0  0  0  0  0  0  0  0  0
  161.8420  209.3270  156.1390 C   0  0  0  0  0  2  0  0  0  0  0  0
  160.9590  208.4650  155.6540 C   0  0  0  0  0  3  0  0  0  0  0  0
  1 17  1  6  0  0  0
  1 33  1  0  0  0  0
  2  3  2  0  0  0  0
  3  4  1  0  0  0  0
  3  1  1  0  0  0  0
  5  7  1  0  0  0  0
  5  4  1  0  0  0  0
  7  8  1  6  0  0  0
  7  6  1  0  0  0  0
  9  7  1  0  0  0  0
 10  9  2  0  0  0  0
 11  9  1  0  0  0  0
 11 12  1  0  0  0  0
 12 14  1  0  0  0  0
 14 15  3  0  0  0  0
 15 13  1  0  0  0  0
 16 17  2  0  0  0  0
 18 16  1  0  0  0  0
 18 19  1  0  0  0  0
 20 19  1  0  0  0  0
 21 31  1  0  0  0  0
 21 20  1  1  0  0  0
 22 26  1  0  0  0  0
 23 25  2  0  0  0  0
 25 22  1  0  0  0  0
 26 24  2  0  0  0  0
 26 21  1  0  0  0  0
 27 30  1  0  0  0  0
 28 22  1  0  0  0  0
 30 29  2  0  0  0  0
 30 28  1  0  0  0  0
 31 32  1  0  0  0  0
 33 34  1  0  0  0  0
 34 35  1  0  0  0  0
 35 36  1  0  0  0  0
 36 39  1  0  0  0  0
 37 36  2  0  0  0  0
 39 38  2  0  0  0  0
M  END
>  <MODEL>
4

>  <REMARK>
 VINA RESULT:      -6.0      2.686      9.238
  Name = 
  20 active torsions:
  status: ('A' for Active; 'I' for Inactive)
    1  A    between atoms: O_3  and  C_11
    2  A    between atoms: O_3  and  C_12
    3  A    between atoms: N_4  and  N_13
    4  A    between atoms: C_7  and  C_20
    5  A    between atoms: C_7  and  C_35
    6  A    between atoms: C_10  and  O_17
    7  A    between atoms: C_10  and  C_26
    8  A    between atoms: C_10  and  C_39
    9  A    between atoms: C_11  and  C_19
   10  A    between atoms: C_12  and  C_38
   11  A    between atoms: N_14  and  C_24
   12  A    between atoms: N_14  and  N_36
   13  A    between atoms: N_16  and  C_22
   14  A    between atoms: N_16  and  C_27
   15  A    between atoms: C_22  and  C_28
   16  A    between atoms: C_24  and  C_28
   17  A    between atoms: C_26  and  C_35
   18  A    between atoms: C_29  and  C_32
   19  A    between atoms: C_32  and  C_33
   20  A    between atoms: C_32  and  C_38
                            x       y       z     vdW  Elec       q    Type
                         _______ _______ _______ _____ _____    ______ ____

>  <TORSDO>
F 20

$$$$
=
 OpenBabel11072415023D

 39 38  0  0  1  0  0  0  0  0999 V2000
  161.7960  208.3440  150.5250 C   0  0  1  0  0  3  0  0  0  0  0  0
  161.7230  209.2030  148.2830 O   0  0  0  0  0  0  0  0  0  0  0  0
  161.8790  208.2020  149.0340 C   0  0  0  0  0  0  0  0  0  0  0  0
  162.1060  206.9120  148.4710 N   0  0  0  0  0  2  0  0  0  0  0  0
  162.2100  206.7340  147.0810 N   0  0  0  0  0  2  0  0  0  0  0  0
  160.2170  205.6270  147.6300 O   0  0  0  0  0  1  0  0  0  0  0  0
  161.2000  205.7670  146.6460 C   0  0  1  0  0  0  0  0  0  0  0  0
  160.5380  206.2570  145.3610 C   0  0  0  0  0  1  0  0  0  0  0  0
  161.8740  204.4280  146.4470 C   0  0  0  0  0  0  0  0  0  0  0  0
  163.0940  204.3720  146.4320 O   0  0  0  0  0  0  0  0  0  0  0  0
  161.0990  203.1620  146.2270 C   0  0  0  0  0  2  0  0  0  0  0  0
  161.2590  202.2650  147.3590 N   0  0  0  0  0  2  0  0  0  0  0  0
  160.6310  203.5640  151.1640 C   0  0  0  0  0  1  0  0  0  0  0  0
  161.0450  202.7120  148.6690 C   0  0  0  0  0  0  0  0  0  0  0  0
  160.8590  203.0980  149.7970 C   0  0  0  0  0  0  0  0  0  0  0  0
  161.8960  206.7610  152.4670 C   0  0  0  0  0  3  0  0  0  0  0  0
  162.3260  207.1390  151.2570 C   0  0  0  0  0  3  0  0  0  0  0  0
  160.8400  207.5040  153.2190 C   0  0  0  0  0  2  0  0  0  0  0  0
  160.7250  206.9410  154.6210 C   0  0  0  0  0  2  0  0  0  0  0  0
  160.0570  207.9490  155.5440 C   0  0  0  0  0  2  0  0  0  0  0  0
  160.5170  209.3730  155.2390 C   0  0  1  0  0  3  0  0  0  0  0  0
  158.7510  211.1890  154.7450 N   0  0  0  0  0  0  0  0  0  0  0  0
  158.5580  211.9250  152.5180 O   0  0  0  0  0  0  0  0  0  0  0  0
  159.3130  210.5440  156.9150 O   0  0  0  0  0  0  0  0  0  0  0  0
  158.9960  211.0720  153.3340 C   0  0  0  0  0  3  0  0  0  0  0  0
  159.5010  210.3930  155.6790 C   0  0  0  0  0  0  0  0  0  0  0  0
  155.6050  213.1750  155.6760 C   0  0  0  0  0  1  0  0  0  0  0  0
  157.8760  212.1700  155.2540 N   0  0  0  0  0  2  0  0  0  0  0  0
  155.9280  210.8720  155.1950 O   0  0  0  0  0  0  0  0  0  0  0  0
  156.4580  212.0040  155.3460 C   0  0  0  0  0  0  0  0  0  0  0  0
  161.7510  209.6190  155.8440 O   0  0  0  0  0  0  0  0  0  0  0  0
  162.3500  210.5990  155.0500 C   0  0  0  0  0  1  0  0  0  0  0  0
  162.4470  209.6380  151.0090 C   0  0  0  0  0  2  0  0  0  0  0  0
  161.5270  210.8480  150.8670 C   0  0  0  0  0  2  0  0  0  0  0  0
  161.9970  211.7010  149.8320 O   0  0  0  0  0  0  0  0  0  0  0  0
  161.1590  212.5990  149.1660 C   0  0  0  0  0  0  0  0  0  0  0  0
  160.3090  213.2790  149.8070 O   0  0  0  0  0  0  0  0  0  0  0  0
  160.3220  212.3270  146.8880 C   0  0  0  0  0  2  0  0  0  0  0  0
  161.2780  212.7350  147.7110 C   0  0  0  0  0  3  0  0  0  0  0  0
  1 33  1  1  0  0  0
  1 17  1  0  0  0  0
  2  3  2  0  0  0  0
  3  1  1  0  0  0  0
  4  3  1  0  0  0  0
  5  4  1  0  0  0  0
  7  8  1  6  0  0  0
  7  5  1  0  0  0  0
  7  6  1  0  0  0  0
  9  7  1  0  0  0  0
 10  9  2  0  0  0  0
 11  9  1  0  0  0  0
 11 12  1  0  0  0  0
 12 14  1  0  0  0  0
 14 15  3  0  0  0  0
 15 13  1  0  0  0  0
 16 18  1  0  0  0  0
 17 16  2  0  0  0  0
 18 19  1  0  0  0  0
 19 20  1  0  0  0  0
 21 20  1  1  0  0  0
 21 26  1  0  0  0  0
 21 31  1  0  0  0  0
 22 28  1  0  0  0  0
 22 26  1  0  0  0  0
 23 25  2  0  0  0  0
 25 22  1  0  0  0  0
 26 24  2  0  0  0  0
 28 30  1  0  0  0  0
 29 30  2  0  0  0  0
 30 27  1  0  0  0  0
 32 31  1  0  0  0  0
 34 33  1  0  0  0  0
 35 34  1  0  0  0  0
 36 37  2  0  0  0  0
 36 35  1  0  0  0  0
 38 39  2  0  0  0  0
 39 36  1  0  0  0  0
M  END
>  <MODEL>
5

>  <REMARK>
 VINA RESULT:      -5.9      1.726      2.276
  Name = 
  20 active torsions:
  status: ('A' for Active; 'I' for Inactive)
    1  A    between atoms: O_3  and  C_11
    2  A    between atoms: O_3  and  C_12
    3  A    between atoms: N_4  and  N_13
    4  A    between atoms: C_7  and  C_20
    5  A    between atoms: C_7  and  C_35
    6  A    between atoms: C_10  and  O_17
    7  A    between atoms: C_10  and  C_26
    8  A    between atoms: C_10  and  C_39
    9  A    between atoms: C_11  and  C_19
   10  A    between atoms: C_12  and  C_38
   11  A    between atoms: N_14  and  C_24
   12  A    between atoms: N_14  and  N_36
   13  A    between atoms: N_16  and  C_22
   14  A    between atoms: N_16  and  C_27
   15  A    between atoms: C_22  and  C_28
   16  A    between atoms: C_24  and  C_28
   17  A    between atoms: C_26  and  C_35
   18  A    between atoms: C_29  and  C_32
   19  A    between atoms: C_32  and  C_33
   20  A    between atoms: C_32  and  C_38
                            x       y       z     vdW  Elec       q    Type
                         _______ _______ _______ _____ _____    ______ ____

>  <TORSDO>
F 20

$$$$
=
 OpenBabel11072415023D

 39 38  0  0  1  0  0  0  0  0999 V2000
  161.8160  209.1660  149.8120 C   0  0  1  0  0  3  0  0  0  0  0  0
  162.9200  207.1060  150.3620 O   0  0  0  0  0  0  0  0  0  0  0  0
  162.3090  207.7870  149.4930 C   0  0  0  0  0  0  0  0  0  0  0  0
  162.1060  207.2630  148.1830 N   0  0  0  0  0  2  0  0  0  0  0  0
  162.5340  205.9680  147.8450 N   0  0  0  0  0  2  0  0  0  0  0  0
  160.4580  206.0680  146.7590 O   0  0  0  0  0  1  0  0  0  0  0  0
  161.7210  205.4700  146.7330 C   0  0  1  0  0  0  0  0  0  0  0  0
  162.3970  205.8140  145.4080 C   0  0  0  0  0  1  0  0  0  0  0  0
  161.5480  203.9770  146.8970 C   0  0  0  0  0  0  0  0  0  0  0  0
  161.1950  203.3100  145.9360 O   0  0  0  0  0  0  0  0  0  0  0  0
  161.7570  203.2810  148.2100 C   0  0  0  0  0  2  0  0  0  0  0  0
  160.6410  203.5400  149.1040 N   0  0  0  0  0  2  0  0  0  0  0  0
  161.2410  205.1430  152.7970 C   0  0  0  0  0  1  0  0  0  0  0  0
  160.8490  204.0900  150.3760 C   0  0  0  0  0  0  0  0  0  0  0  0
  161.0270  204.5660  151.4700 C   0  0  0  0  0  0  0  0  0  0  0  0
  161.8190  209.9450  152.1960 C   0  0  0  0  0  3  0  0  0  0  0  0
  162.4640  209.7500  151.0390 C   0  0  0  0  0  3  0  0  0  0  0  0
  160.3780  209.6000  152.3850 C   0  0  0  0  0  2  0  0  0  0  0  0
  159.5490  210.8690  152.3810 C   0  0  0  0  0  2  0  0  0  0  0  0
  160.1390  211.8900  153.3430 C   0  0  0  0  0  2  0  0  0  0  0  0
  159.2310  212.1030  154.5520 C   0  0  1  0  0  3  0  0  0  0  0  0
  160.4620  210.4460  156.1020 N   0  0  0  0  0  0  0  0  0  0  0  0
  162.8140  210.5280  156.1150 O   0  0  0  0  0  0  0  0  0  0  0  0
  158.1650  210.3280  155.7110 O   0  0  0  0  0  0  0  0  0  0  0  0
  161.7210  211.0710  155.8040 C   0  0  0  0  0  3  0  0  0  0  0  0
  159.2540  210.9190  155.4810 C   0  0  0  0  0  0  0  0  0  0  0  0
  160.2180  206.7970  157.2580 C   0  0  0  0  0  1  0  0  0  0  0  0
  160.3940  209.2850  156.8970 N   0  0  0  0  0  2  0  0  0  0  0  0
  160.9730  207.7570  155.2210 O   0  0  0  0  0  0  0  0  0  0  0  0
  160.5370  207.9560  156.3850 C   0  0  0  0  0  0  0  0  0  0  0  0
  159.6000  213.2650  155.2320 O   0  0  0  0  0  0  0  0  0  0  0  0
  158.7430  214.2530  154.7450 C   0  0  0  0  0  1  0  0  0  0  0  0
  161.9250  210.1010  148.6090 C   0  0  0  0  0  2  0  0  0  0  0  0
  162.1020  211.5620  149.0130 C   0  0  0  0  0  2  0  0  0  0  0  0
  162.7450  212.2840  147.9710 O   0  0  0  0  0  0  0  0  0  0  0  0
  162.1760  213.4180  147.3860 C   0  0  0  0  0  0  0  0  0  0  0  0
  162.8710  214.4520  147.1830 O   0  0  0  0  0  0  0  0  0  0  0  0
  160.2660  212.4770  146.1900 C   0  0  0  0  0  2  0  0  0  0  0  0
  160.7570  213.3890  147.0170 C   0  0  0  0  0  3  0  0  0  0  0  0
  1 33  1  6  0  0  0
  1 17  1  0  0  0  0
  3  1  1  0  0  0  0
  3  2  2  0  0  0  0
  4  3  1  0  0  0  0
  5  4  1  0  0  0  0
  7  8  1  6  0  0  0
  7  6  1  0  0  0  0
  7  9  1  0  0  0  0
  7  5  1  0  0  0  0
  9 11  1  0  0  0  0
 10  9  2  0  0  0  0
 11 12  1  0  0  0  0
 12 14  1  0  0  0  0
 14 15  3  0  0  0  0
 15 13  1  0  0  0  0
 16 18  1  0  0  0  0
 17 16  2  0  0  0  0
 19 18  1  0  0  0  0
 19 20  1  0  0  0  0
 21 20  1  6  0  0  0
 21 31  1  0  0  0  0
 21 26  1  0  0  0  0
 22 28  1  0  0  0  0
 25 22  1  0  0  0  0
 25 23  2  0  0  0  0
 26 24  2  0  0  0  0
 26 22  1  0  0  0  0
 29 30  2  0  0  0  0
 30 28  1  0  0  0  0
 30 27  1  0  0  0  0
 32 31  1  0  0  0  0
 33 34  1  0  0  0  0
 35 34  1  0  0  0  0
 36 35  1  0  0  0  0
 37 36  2  0  0  0  0
 38 39  2  0  0  0  0
 39 36  1  0  0  0  0
M  END
>  <MODEL>
6

>  <REMARK>
 VINA RESULT:      -5.6      1.889      3.292
  Name = 
  20 active torsions:
  status: ('A' for Active; 'I' for Inactive)
    1  A    between atoms: O_3  and  C_11
    2  A    between atoms: O_3  and  C_12
    3  A    between atoms: N_4  and  N_13
    4  A    between atoms: C_7  and  C_20
    5  A    between atoms: C_7  and  C_35
    6  A    between atoms: C_10  and  O_17
    7  A    between atoms: C_10  and  C_26
    8  A    between atoms: C_10  and  C_39
    9  A    between atoms: C_11  and  C_19
   10  A    between atoms: C_12  and  C_38
   11  A    between atoms: N_14  and  C_24
   12  A    between atoms: N_14  and  N_36
   13  A    between atoms: N_16  and  C_22
   14  A    between atoms: N_16  and  C_27
   15  A    between atoms: C_22  and  C_28
   16  A    between atoms: C_24  and  C_28
   17  A    between atoms: C_26  and  C_35
   18  A    between atoms: C_29  and  C_32
   19  A    between atoms: C_32  and  C_33
   20  A    between atoms: C_32  and  C_38
                            x       y       z     vdW  Elec       q    Type
                         _______ _______ _______ _____ _____    ______ ____

>  <TORSDO>
F 20

$$$$
=
 OpenBabel11072415023D

 39 38  0  0  1  0  0  0  0  0999 V2000
  161.7570  208.2840  150.6440 C   0  0  1  0  0  3  0  0  0  0  0  0
  161.5300  208.0670  148.2630 O   0  0  0  0  0  0  0  0  0  0  0  0
  161.6790  208.8360  149.2520 C   0  0  0  0  0  0  0  0  0  0  0  0
  161.8050  210.2420  149.0540 N   0  0  0  0  0  2  0  0  0  0  0  0
  161.7190  210.8050  147.7700 N   0  0  0  0  0  2  0  0  0  0  0  0
  161.1680  212.8130  148.8510 O   0  0  0  0  0  1  0  0  0  0  0  0
  161.9750  212.2440  147.8600 C   0  0  1  0  0  0  0  0  0  0  0  0
  163.4380  212.4840  148.2260 C   0  0  0  0  0  1  0  0  0  0  0  0
  161.6240  212.8780  146.5330 C   0  0  0  0  0  0  0  0  0  0  0  0
  162.4780  212.9500  145.6630 O   0  0  0  0  0  0  0  0  0  0  0  0
  160.2700  213.4620  146.2540 C   0  0  0  0  0  2  0  0  0  0  0  0
  159.4580  212.5240  145.4980 N   0  0  0  0  0  2  0  0  0  0  0  0
  160.4760  211.4700  141.7000 C   0  0  0  0  0  1  0  0  0  0  0  0
  159.8060  212.1600  144.1900 C   0  0  0  0  0  0  0  0  0  0  0  0
  160.1080  211.8490  143.0640 C   0  0  0  0  0  0  0  0  0  0  0  0
  162.7340  206.1170  151.4410 C   0  0  0  0  0  3  0  0  0  0  0  0
  162.8770  207.2920  150.8170 C   0  0  0  0  0  3  0  0  0  0  0  0
  161.4380  205.6680  152.0330 C   0  0  0  0  0  2  0  0  0  0  0  0
  161.1560  204.2400  151.6110 C   0  0  0  0  0  2  0  0  0  0  0  0
  160.1870  204.2170  150.4370 C   0  0  0  0  0  2  0  0  0  0  0  0
  160.6240  203.2110  149.3750 C   0  0  1  0  0  3  0  0  0  0  0  0
  161.1810  203.2980  146.8560 N   0  0  0  0  0  0  0  0  0  0  0  0
  160.8490  201.3290  145.6110 O   0  0  0  0  0  0  0  0  0  0  0  0
  161.7220  205.0310  148.3220 O   0  0  0  0  0  0  0  0  0  0  0  0
  160.6460  201.9780  146.6710 C   0  0  0  0  0  3  0  0  0  0  0  0
  161.2020  203.8950  148.1650 C   0  0  0  0  0  0  0  0  0  0  0  0
  161.8440  205.4710  143.7660 C   0  0  0  0  0  1  0  0  0  0  0  0
  161.8130  203.9840  145.8000 N   0  0  0  0  0  2  0  0  0  0  0  0
  160.0670  205.4740  145.3420 O   0  0  0  0  0  0  0  0  0  0  0  0
  161.1710  204.9780  144.9960 C   0  0  0  0  0  0  0  0  0  0  0  0
  161.5450  202.3100  149.9150 O   0  0  0  0  0  0  0  0  0  0  0  0
  160.8880  201.0790  149.9090 C   0  0  0  0  0  1  0  0  0  0  0  0
  161.8090  209.3930  151.6930 C   0  0  0  0  0  2  0  0  0  0  0  0
  160.6030  209.3770  152.6270 C   0  0  0  0  0  2  0  0  0  0  0  0
  160.0300  210.6760  152.7110 O   0  0  0  0  0  0  0  0  0  0  0  0
  160.2150  211.5030  153.8210 C   0  0  0  0  0  0  0  0  0  0  0  0
  161.1300  211.2620  154.6560 O   0  0  0  0  0  0  0  0  0  0  0  0
  158.8450  213.3400  152.9760 C   0  0  0  0  0  2  0  0  0  0  0  0
  159.3240  212.6530  154.0040 C   0  0  0  0  0  3  0  0  0  0  0  0
  1 17  1  6  0  0  0
  1 33  1  0  0  0  0
  2  3  2  0  0  0  0
  3  1  1  0  0  0  0
  4  3  1  0  0  0  0
  5  7  1  0  0  0  0
  5  4  1  0  0  0  0
  7  8  1  1  0  0  0
  7  6  1  0  0  0  0
  9  7  1  0  0  0  0
 10  9  2  0  0  0  0
 11  9  1  0  0  0  0
 12 11  1  0  0  0  0
 13 15  1  0  0  0  0
 14 12  1  0  0  0  0
 15 14  3  0  0  0  0
 16 18  1  0  0  0  0
 17 16  2  0  0  0  0
 19 18  1  0  0  0  0
 20 19  1  0  0  0  0
 21 31  1  0  0  0  0
 21 20  1  1  0  0  0
 22 26  1  0  0  0  0
 23 25  2  0  0  0  0
 25 22  1  0  0  0  0
 26 24  2  0  0  0  0
 26 21  1  0  0  0  0
 27 30  1  0  0  0  0
 28 22  1  0  0  0  0
 30 29  2  0  0  0  0
 30 28  1  0  0  0  0
 32 31  1  0  0  0  0
 33 34  1  0  0  0  0
 34 35  1  0  0  0  0
 35 36  1  0  0  0  0
 36 39  1  0  0  0  0
 36 37  2  0  0  0  0
 38 39  2  0  0  0  0
M  END
>  <MODEL>
7

>  <REMARK>
 VINA RESULT:      -5.4      2.643      8.800
  Name = 
  20 active torsions:
  status: ('A' for Active; 'I' for Inactive)
    1  A    between atoms: O_3  and  C_11
    2  A    between atoms: O_3  and  C_12
    3  A    between atoms: N_4  and  N_13
    4  A    between atoms: C_7  and  C_20
    5  A    between atoms: C_7  and  C_35
    6  A    between atoms: C_10  and  O_17
    7  A    between atoms: C_10  and  C_26
    8  A    between atoms: C_10  and  C_39
    9  A    between atoms: C_11  and  C_19
   10  A    between atoms: C_12  and  C_38
   11  A    between atoms: N_14  and  C_24
   12  A    between atoms: N_14  and  N_36
   13  A    between atoms: N_16  and  C_22
   14  A    between atoms: N_16  and  C_27
   15  A    between atoms: C_22  and  C_28
   16  A    between atoms: C_24  and  C_28
   17  A    between atoms: C_26  and  C_35
   18  A    between atoms: C_29  and  C_32
   19  A    between atoms: C_32  and  C_33
   20  A    between atoms: C_32  and  C_38
                            x       y       z     vdW  Elec       q    Type
                         _______ _______ _______ _____ _____    ______ ____

>  <TORSDO>
F 20

$$$$
=
 OpenBabel11072415023D

 39 38  0  0  1  0  0  0  0  0999 V2000
  161.2810  207.2460  149.3450 C   0  0  1  0  0  3  0  0  0  0  0  0
  163.1320  207.4460  147.8280 O   0  0  0  0  0  0  0  0  0  0  0  0
  162.0060  206.9300  148.0710 C   0  0  0  0  0  0  0  0  0  0  0  0
  161.3940  206.0620  147.1200 N   0  0  0  0  0  2  0  0  0  0  0  0
  162.0460  205.7240  145.9220 N   0  0  0  0  0  2  0  0  0  0  0  0
  159.8730  206.1560  145.1520 O   0  0  0  0  0  1  0  0  0  0  0  0
  161.0410  205.4320  144.8980 C   0  0  1  0  0  0  0  0  0  0  0  0
  161.5740  205.8330  143.5250 C   0  0  0  0  0  1  0  0  0  0  0  0
  160.7120  203.9570  144.9560 C   0  0  0  0  0  0  0  0  0  0  0  0
  159.6680  203.5590  144.4620 O   0  0  0  0  0  0  0  0  0  0  0  0
  161.6050  202.9590  145.6360 C   0  0  0  0  0  2  0  0  0  0  0  0
  160.8140  202.0040  146.3930 N   0  0  0  0  0  2  0  0  0  0  0  0
  160.8350  202.0320  150.4630 C   0  0  0  0  0  1  0  0  0  0  0  0
  160.8190  202.0140  147.7950 C   0  0  0  0  0  0  0  0  0  0  0  0
  160.8250  202.0220  149.0010 C   0  0  0  0  0  0  0  0  0  0  0  0
  161.0040  205.6910  151.2930 C   0  0  0  0  0  3  0  0  0  0  0  0
  160.7310  206.0190  150.0240 C   0  0  0  0  0  3  0  0  0  0  0  0
  161.8900  206.5160  152.1680 C   0  0  0  0  0  2  0  0  0  0  0  0
  161.7510  206.0570  153.6060 C   0  0  0  0  0  2  0  0  0  0  0  0
  160.7420  206.9250  154.3440 C   0  0  0  0  0  2  0  0  0  0  0  0
  161.4240  208.0980  155.0450 C   0  0  1  0  0  3  0  0  0  0  0  0
  161.1250  210.6500  155.2930 N   0  0  0  0  0  0  0  0  0  0  0  0
  161.9490  211.6430  157.2610 O   0  0  0  0  0  0  0  0  0  0  0  0
  160.1200  209.4300  153.5780 O   0  0  0  0  0  0  0  0  0  0  0  0
  161.9150  210.6450  156.4930 C   0  0  0  0  0  3  0  0  0  0  0  0
  160.8570  209.4190  154.5980 C   0  0  0  0  0  0  0  0  0  0  0  0
  158.4980  213.3280  154.4990 C   0  0  0  0  0  1  0  0  0  0  0  0
  160.4900  211.8240  154.8430 N   0  0  0  0  0  2  0  0  0  0  0  0
  158.5580  211.6210  156.1500 O   0  0  0  0  0  0  0  0  0  0  0  0
  159.1580  212.2010  155.2070 C   0  0  0  0  0  0  0  0  0  0  0  0
  161.3140  207.9610  156.4300 O   0  0  0  0  0  0  0  0  0  0  0  0
  160.0440  207.4180  156.6360 C   0  0  0  0  0  1  0  0  0  0  0  0
  162.1330  208.0890  150.2900 C   0  0  0  0  0  2  0  0  0  0  0  0
  161.7430  209.5640  150.2770 C   0  0  0  0  0  2  0  0  0  0  0  0
  162.1580  210.1700  149.0600 O   0  0  0  0  0  0  0  0  0  0  0  0
  162.0190  211.5390  148.8210 C   0  0  0  0  0  0  0  0  0  0  0  0
  161.0690  212.1880  149.3400 O   0  0  0  0  0  0  0  0  0  0  0  0
  162.9040  213.5010  147.6670 C   0  0  0  0  0  2  0  0  0  0  0  0
  162.9930  212.2100  147.9540 C   0  0  0  0  0  3  0  0  0  0  0  0
  1 17  1  1  0  0  0
  1 33  1  0  0  0  0
  2  3  2  0  0  0  0
  3  1  1  0  0  0  0
  4  3  1  0  0  0  0
  5  4  1  0  0  0  0
  7  8  1  6  0  0  0
  7  9  1  0  0  0  0
  7  6  1  0  0  0  0
  7  5  1  0  0  0  0
  9 11  1  0  0  0  0
 10  9  2  0  0  0  0
 11 12  1  0  0  0  0
 12 14  1  0  0  0  0
 14 15  3  0  0  0  0
 15 13  1  0  0  0  0
 16 18  1  0  0  0  0
 17 16  2  0  0  0  0
 18 19  1  0  0  0  0
 19 20  1  0  0  0  0
 21 20  1  6  0  0  0
 21 31  1  0  0  0  0
 22 25  1  0  0  0  0
 24 26  2  0  0  0  0
 25 23  2  0  0  0  0
 26 21  1  0  0  0  0
 26 22  1  0  0  0  0
 27 30  1  0  0  0  0
 28 30  1  0  0  0  0
 28 22  1  0  0  0  0
 30 29  2  0  0  0  0
 31 32  1  0  0  0  0
 34 33  1  0  0  0  0
 35 34  1  0  0  0  0
 36 35  1  0  0  0  0
 36 37  2  0  0  0  0
 38 39  2  0  0  0  0
 39 36  1  0  0  0  0
M  END
>  <MODEL>
8

>  <REMARK>
 VINA RESULT:      -5.3      1.797      2.200
  Name = 
  20 active torsions:
  status: ('A' for Active; 'I' for Inactive)
    1  A    between atoms: O_3  and  C_11
    2  A    between atoms: O_3  and  C_12
    3  A    between atoms: N_4  and  N_13
    4  A    between atoms: C_7  and  C_20
    5  A    between atoms: C_7  and  C_35
    6  A    between atoms: C_10  and  O_17
    7  A    between atoms: C_10  and  C_26
    8  A    between atoms: C_10  and  C_39
    9  A    between atoms: C_11  and  C_19
   10  A    between atoms: C_12  and  C_38
   11  A    between atoms: N_14  and  C_24
   12  A    between atoms: N_14  and  N_36
   13  A    between atoms: N_16  and  C_22
   14  A    between atoms: N_16  and  C_27
   15  A    between atoms: C_22  and  C_28
   16  A    between atoms: C_24  and  C_28
   17  A    between atoms: C_26  and  C_35
   18  A    between atoms: C_29  and  C_32
   19  A    between atoms: C_32  and  C_33
   20  A    between atoms: C_32  and  C_38
                            x       y       z     vdW  Elec       q    Type
                         _______ _______ _______ _____ _____    ______ ____

>  <TORSDO>
F 20

$$$$
=
 OpenBabel11072415023D

 39 38  0  0  1  0  0  0  0  0999 V2000
  161.1660  206.9450  149.7900 C   0  0  1  0  0  3  0  0  0  0  0  0
  162.1060  206.6050  151.9740 O   0  0  0  0  0  0  0  0  0  0  0  0
  161.3440  207.2910  151.2380 C   0  0  0  0  0  0  0  0  0  0  0  0
  160.6170  208.3890  151.7840 N   0  0  0  0  0  2  0  0  0  0  0  0
  160.7680  208.7610  153.1310 N   0  0  0  0  0  2  0  0  0  0  0  0
  162.5890  210.1200  152.5520 O   0  0  0  0  0  1  0  0  0  0  0  0
  161.3470  210.1040  153.1940 C   0  0  1  0  0  0  0  0  0  0  0  0
  160.4230  211.0960  152.4930 C   0  0  0  0  0  1  0  0  0  0  0  0
  161.5540  210.4690  154.6470 C   0  0  0  0  0  0  0  0  0  0  0  0
  162.4480  209.9230  155.2770 O   0  0  0  0  0  0  0  0  0  0  0  0
  160.6740  211.4520  155.3620 C   0  0  0  0  0  2  0  0  0  0  0  0
  159.4610  210.8020  155.8290 N   0  0  0  0  0  2  0  0  0  0  0  0
  155.8610  212.6890  155.6020 C   0  0  0  0  0  1  0  0  0  0  0  0
  158.2200  211.4500  155.7500 C   0  0  0  0  0  0  0  0  0  0  0  0
  157.1540  212.0090  155.6840 C   0  0  0  0  0  0  0  0  0  0  0  0
  162.5260  208.6320  148.5280 C   0  0  0  0  0  3  0  0  0  0  0  0
  162.3310  207.3730  148.9380 C   0  0  0  0  0  3  0  0  0  0  0  0
  161.5960  209.7480  148.8770 C   0  0  0  0  0  2  0  0  0  0  0  0
  162.1200  211.0450  148.2930 C   0  0  0  0  0  2  0  0  0  0  0  0
  161.4550  212.2360  148.9670 C   0  0  0  0  0  2  0  0  0  0  0  0
  161.1560  213.3470  147.9630 C   0  0  1  0  0  3  0  0  0  0  0  0
  161.4390  212.8610  145.4440 N   0  0  0  0  0  0  0  0  0  0  0  0
  163.2950  213.8240  144.3640 O   0  0  0  0  0  0  0  0  0  0  0  0
  159.5210  212.2630  146.6290 O   0  0  0  0  0  0  0  0  0  0  0  0
  162.7160  213.5190  145.4400 C   0  0  0  0  0  3  0  0  0  0  0  0
  160.6620  212.7960  146.6520 C   0  0  0  0  0  0  0  0  0  0  0  0
  159.2950  212.5260  142.2820 C   0  0  0  0  0  1  0  0  0  0  0  0
  160.8610  212.3840  144.2510 N   0  0  0  0  0  2  0  0  0  0  0  0
  159.9930  214.4310  143.5160 O   0  0  0  0  0  0  0  0  0  0  0  0
  160.0460  213.1800  143.3850 C   0  0  0  0  0  0  0  0  0  0  0  0
  160.2270  214.2420  148.4990 O   0  0  0  0  0  0  0  0  0  0  0  0
  160.0450  213.8230  149.8180 C   0  0  0  0  0  1  0  0  0  0  0  0
  160.8280  205.4680  149.5960 C   0  0  0  0  0  2  0  0  0  0  0  0
  161.3020  204.9270  148.2500 C   0  0  0  0  0  2  0  0  0  0  0  0
  161.6890  203.5660  148.3770 O   0  0  0  0  0  0  0  0  0  0  0  0
  160.8180  202.5120  148.0930 C   0  0  0  0  0  0  0  0  0  0  0  0
  160.4260  202.3040  146.9120 O   0  0  0  0  0  0  0  0  0  0  0  0
  161.1460  201.3470  150.2150 C   0  0  0  0  0  2  0  0  0  0  0  0
  160.3610  201.6540  149.1920 C   0  0  0  0  0  3  0  0  0  0  0  0
  1 17  1  6  0  0  0
  1  3  1  0  0  0  0
  3  4  1  0  0  0  0
  3  2  2  0  0  0  0
  4  5  1  0  0  0  0
  5  7  1  0  0  0  0
  6  7  1  0  0  0  0
  7  8  1  6  0  0  0
  7  9  1  0  0  0  0
  9 10  2  0  0  0  0
  9 11  1  0  0  0  0
 11 12  1  0  0  0  0
 13 15  1  0  0  0  0
 14 12  1  0  0  0  0
 15 14  3  0  0  0  0
 16 18  1  0  0  0  0
 16 17  2  0  0  0  0
 19 18  1  0  0  0  0
 19 20  1  0  0  0  0
 21 31  1  0  0  0  0
 21 20  1  1  0  0  0
 22 26  1  0  0  0  0
 23 25  2  0  0  0  0
 24 26  2  0  0  0  0
 25 22  1  0  0  0  0
 26 21  1  0  0  0  0
 27 30  1  0  0  0  0
 28 22  1  0  0  0  0
 30 29  2  0  0  0  0
 30 28  1  0  0  0  0
 31 32  1  0  0  0  0
 33  1  1  0  0  0  0
 34 35  1  0  0  0  0
 34 33  1  0  0  0  0
 36 35  1  0  0  0  0
 36 39  1  0  0  0  0
 37 36  2  0  0  0  0
 39 38  2  0  0  0  0
M  END
>  <MODEL>
9

>  <REMARK>
 VINA RESULT:      -5.1      3.065      8.872
  Name = 
  20 active torsions:
  status: ('A' for Active; 'I' for Inactive)
    1  A    between atoms: O_3  and  C_11
    2  A    between atoms: O_3  and  C_12
    3  A    between atoms: N_4  and  N_13
    4  A    between atoms: C_7  and  C_20
    5  A    between atoms: C_7  and  C_35
    6  A    between atoms: C_10  and  O_17
    7  A    between atoms: C_10  and  C_26
    8  A    between atoms: C_10  and  C_39
    9  A    between atoms: C_11  and  C_19
   10  A    between atoms: C_12  and  C_38
   11  A    between atoms: N_14  and  C_24
   12  A    between atoms: N_14  and  N_36
   13  A    between atoms: N_16  and  C_22
   14  A    between atoms: N_16  and  C_27
   15  A    between atoms: C_22  and  C_28
   16  A    between atoms: C_24  and  C_28
   17  A    between atoms: C_26  and  C_35
   18  A    between atoms: C_29  and  C_32
   19  A    between atoms: C_32  and  C_33
   20  A    between atoms: C_32  and  C_38
                            x       y       z     vdW  Elec       q    Type
                         _______ _______ _______ _____ _____    ______ ____

>  <TORSDO>
F 20

$$$$
