=
 OpenBabel11072411543D

 32 34  0  0  1  0  0  0  0  0999 V2000
  161.2940  205.0020  152.6190 C   0  0  0  0  0  0  0  0  0  0  0  0
  161.5450  205.8060  153.7760 N   0  0  0  0  0  2  0  0  0  0  0  0
  161.1350  207.4870  153.8280 S   0  0  0  0  0  0  0  0  0  0  0  0
  160.6030  202.8910  151.7510 N   0  0  0  0  0  0  0  0  0  0  0  0
  161.2490  205.5510  151.3190 C   0  0  0  0  0  0  0  0  0  0  0  0
  161.8010  207.2510  151.0430 S   0  0  0  0  0  0  0  0  0  0  0  0
  160.0300  207.7020  154.8220 O   0  0  0  0  0  0  0  0  0  0  0  0
  162.3440  208.2880  154.2210 O   0  0  0  0  0  0  0  0  0  0  0  0
  160.5920  207.9600  152.1940 C   0  0  2  0  0  3  0  0  0  0  0  0
  160.4910  203.3940  150.4950 C   0  0  0  0  0  0  0  0  0  0  0  0
  160.0990  202.5220  149.4380 N   0  0  0  0  0  1  0  0  0  0  0  0
  160.8170  204.7430  150.2400 C   0  0  0  0  0  0  0  0  0  0  0  0
  160.9830  203.6570  152.8020 C   0  0  0  0  0  3  0  0  0  0  0  0
  160.7270  205.2750  148.8610 C   0  0  0  0  0  0  0  0  0  0  0  0
  162.0510  203.5240  147.2120 O   0  0  0  0  0  0  0  0  0  0  0  0
  161.4310  204.6380  147.7990 N   0  0  0  0  0  0  0  0  0  0  0  0
  160.0380  206.3010  148.6150 O   0  0  0  0  0  0  0  0  0  0  0  0
  161.5730  204.3900  146.3650 C   0  0  1  0  0  3  0  0  0  0  0  0
  162.4900  205.3740  144.4120 F   0  0  0  0  0  0  0  0  0  0  0  0
  162.6790  205.2670  145.7760 C   0  0  0  0  0  0  0  0  0  0  0  0
  162.6880  206.5380  146.3310 F   0  0  0  0  0  0  0  0  0  0  0  0
  163.9010  204.6670  146.0130 F   0  0  0  0  0  0  0  0  0  0  0  0
  160.5290  209.4900  152.0290 C   0  0  2  0  0  3  0  0  0  0  0  0
  161.7820  210.0970  151.4630 C   0  0  0  0  0  0  0  0  0  0  0  0
  162.7830  210.3100  152.1970 O   0  0  0  0  0  1  0  0  0  0  0  0
  161.8230  210.4530  150.1220 O   0  0  0  0  0  0  0  0  0  0  0  0
  160.1030  210.1760  153.2560 N   0  0  0  0  0  2  0  0  0  0  0  0
  159.1280  211.2300  152.9620 C   0  0  0  0  0  3  0  0  0  0  0  0
  158.4610  210.8650  155.3870 C   0  0  0  0  0  1  0  0  0  0  0  0
  157.9990  211.2620  153.9930 C   0  0  0  0  0  2  0  0  0  0  0  0
  159.7970  212.5890  152.7520 C   0  0  0  0  0  2  0  0  0  0  0  0
  159.6600  213.1040  151.3290 C   0  0  0  0  0  1  0  0  0  0  0  0
  1 13  1  0  0  0  0
  1  2  1  0  0  0  0
  2  3  1  0  0  0  0
  3  8  2  0  0  0  0
  3  7  2  0  0  0  0
  4 13  2  0  0  0  0
  5  1  2  0  0  0  0
  6  5  1  0  0  0  0
  6  9  1  0  0  0  0
  9 23  1  1  0  0  0
  9  3  1  0  0  0  0
 10  4  1  0  0  0  0
 11 10  1  0  0  0  0
 12 10  2  0  0  0  0
 12  5  1  0  0  0  0
 14 12  1  0  0  0  0
 15 16  1  0  0  0  0
 16 14  1  0  0  0  0
 17 14  2  0  0  0  0
 18 20  1  1  0  0  0
 18 15  1  0  0  0  0
 18 16  1  0  0  0  0
 19 20  1  0  0  0  0
 20 22  1  0  0  0  0
 20 21  1  0  0  0  0
 23 24  1  1  0  0  0
 23 27  1  0  0  0  0
 24 25  1  0  0  0  0
 26 24  2  0  0  0  0
 28 27  1  0  0  0  0
 28 30  1  0  0  0  0
 30 29  1  0  0  0  0
 31 28  1  0  0  0  0
 32 31  1  0  0  0  0
M  END
>  <MODEL>
1

>  <REMARK>
 VINA RESULT:      -6.6      0.000      0.000
  Name = 
  8 active torsions:
  status: ('A' for Active; 'I' for Inactive)
    1  A    between atoms: C_2  and  N_8
    2  A    between atoms: C_2  and  C_26
    3  A    between atoms: C_2  and  C_27
    4  A    between atoms: C_4  and  C_29
    5  A    between atoms: N_8  and  CA_19
    6  A    between atoms: C_9  and  C_32
    7  A    between atoms: C_11  and  CA_19
    8  A    between atoms: CA_19  and  C_22
                            x       y       z     vdW  Elec       q    Type
                         _______ _______ _______ _____ _____    ______ ____

>  <TORSDO>
F 8

$$$$
=
 OpenBabel11072411543D

 32 34  0  0  1  0  0  0  0  0999 V2000
  160.9770  208.2780  154.3440 C   0  0  0  0  0  0  0  0  0  0  0  0
  160.6610  209.2680  155.3280 N   0  0  0  0  0  2  0  0  0  0  0  0
  159.9570  210.7900  154.9000 S   0  0  0  0  0  0  0  0  0  0  0  0
  161.0270  205.9640  153.7670 N   0  0  0  0  0  0  0  0  0  0  0  0
  161.2810  208.6170  153.0080 C   0  0  0  0  0  0  0  0  0  0  0  0
  161.5700  210.3470  152.5650 S   0  0  0  0  0  0  0  0  0  0  0  0
  158.5580  210.8630  155.4430 O   0  0  0  0  0  0  0  0  0  0  0  0
  160.7870  211.9060  155.4670 O   0  0  0  0  0  0  0  0  0  0  0  0
  159.9310  210.8910  153.1180 C   0  0  2  0  0  3  0  0  0  0  0  0
  161.2640  206.2500  152.4610 C   0  0  0  0  0  0  0  0  0  0  0  0
  161.4270  205.1730  151.5410 N   0  0  0  0  0  1  0  0  0  0  0  0
  161.4020  207.5890  152.0410 C   0  0  0  0  0  0  0  0  0  0  0  0
  160.8750  206.9360  154.7000 C   0  0  0  0  0  3  0  0  0  0  0  0
  161.6950  207.8910  150.6220 C   0  0  0  0  0  0  0  0  0  0  0  0
  160.0780  206.2890  149.0860 O   0  0  0  0  0  0  0  0  0  0  0  0
  161.0920  207.1230  149.5850 N   0  0  0  0  0  0  0  0  0  0  0  0
  162.4890  208.8210  150.3160 O   0  0  0  0  0  0  0  0  0  0  0  0
  160.6790  207.0150  148.1870 C   0  0  1  0  0  3  0  0  0  0  0  0
  162.9550  206.7190  147.5930 F   0  0  0  0  0  0  0  0  0  0  0  0
  161.6940  206.1930  147.3910 C   0  0  0  0  0  0  0  0  0  0  0  0
  161.6950  204.8580  147.7670 F   0  0  0  0  0  0  0  0  0  0  0  0
  161.3840  206.2790  146.0460 F   0  0  0  0  0  0  0  0  0  0  0  0
  159.6480  212.3220  152.6260 C   0  0  2  0  0  3  0  0  0  0  0  0
  158.4920  212.9890  153.3170 C   0  0  0  0  0  0  0  0  0  0  0  0
  157.3140  212.5790  153.1440 O   0  0  0  0  0  0  0  0  0  0  0  0
  158.7250  214.0880  154.1320 O   0  0  0  0  0  1  0  0  0  0  0  0
  159.5240  212.4070  151.1660 N   0  0  0  0  0  2  0  0  0  0  0  0
  159.6100  213.7960  150.7060 C   0  0  0  0  0  3  0  0  0  0  0  0
  161.1660  212.6940  149.0240 C   0  0  0  0  0  1  0  0  0  0  0  0
  160.7440  213.9920  149.6980 C   0  0  0  0  0  2  0  0  0  0  0  0
  158.2610  214.3210  150.2120 C   0  0  0  0  0  2  0  0  0  0  0  0
  157.3990  213.2390  149.5830 C   0  0  0  0  0  1  0  0  0  0  0  0
  1 13  1  0  0  0  0
  1  2  1  0  0  0  0
  3  2  1  0  0  0  0
  3  7  2  0  0  0  0
  3  8  2  0  0  0  0
  4 13  2  0  0  0  0
  5  1  2  0  0  0  0
  6  5  1  0  0  0  0
  6  9  1  0  0  0  0
  9 23  1  1  0  0  0
  9  3  1  0  0  0  0
 10  4  1  0  0  0  0
 11 10  1  0  0  0  0
 12 10  2  0  0  0  0
 12  5  1  0  0  0  0
 14 12  1  0  0  0  0
 15 16  1  0  0  0  0
 16 14  1  0  0  0  0
 17 14  2  0  0  0  0
 18 20  1  6  0  0  0
 18 15  1  0  0  0  0
 18 16  1  0  0  0  0
 20 19  1  0  0  0  0
 20 21  1  0  0  0  0
 22 20  1  0  0  0  0
 23 27  1  6  0  0  0
 23 24  1  0  0  0  0
 24 26  1  0  0  0  0
 25 24  2  0  0  0  0
 28 27  1  0  0  0  0
 29 30  1  0  0  0  0
 30 28  1  0  0  0  0
 31 28  1  0  0  0  0
 32 31  1  0  0  0  0
M  END
>  <MODEL>
2

>  <REMARK>
 VINA RESULT:      -6.5      2.629      3.943
  Name = 
  8 active torsions:
  status: ('A' for Active; 'I' for Inactive)
    1  A    between atoms: C_2  and  N_8
    2  A    between atoms: C_2  and  C_26
    3  A    between atoms: C_2  and  C_27
    4  A    between atoms: C_4  and  C_29
    5  A    between atoms: N_8  and  CA_19
    6  A    between atoms: C_9  and  C_32
    7  A    between atoms: C_11  and  CA_19
    8  A    between atoms: CA_19  and  C_22
                            x       y       z     vdW  Elec       q    Type
                         _______ _______ _______ _____ _____    ______ ____

>  <TORSDO>
F 8

$$$$
=
 OpenBabel11072411543D

 32 34  0  0  1  0  0  0  0  0999 V2000
  161.6070  210.7890  149.8990 C   0  0  0  0  0  0  0  0  0  0  0  0
  162.1920  209.8970  148.9450 N   0  0  0  0  0  2  0  0  0  0  0  0
  161.9470  208.1850  149.0250 S   0  0  0  0  0  0  0  0  0  0  0  0
  160.5560  212.8920  150.3000 N   0  0  0  0  0  0  0  0  0  0  0  0
  161.2970  210.3840  151.2160 C   0  0  0  0  0  0  0  0  0  0  0  0
  161.9050  208.7950  151.8320 S   0  0  0  0  0  0  0  0  0  0  0  0
  161.1340  207.7410  147.8420 O   0  0  0  0  0  0  0  0  0  0  0  0
  163.2760  207.4850  149.0260 O   0  0  0  0  0  0  0  0  0  0  0  0
  161.0700  207.8350  150.5400 C   0  0  2  0  0  3  0  0  0  0  0  0
  160.1890  212.5190  151.5530 C   0  0  0  0  0  0  0  0  0  0  0  0
  159.4850  213.4530  152.3690 N   0  0  0  0  0  1  0  0  0  0  0  0
  160.5540  211.2510  152.0510 C   0  0  0  0  0  0  0  0  0  0  0  0
  161.2390  212.0630  149.4740 C   0  0  0  0  0  3  0  0  0  0  0  0
  160.1810  210.8650  153.4320 C   0  0  0  0  0  0  0  0  0  0  0  0
  162.4830  210.8180  154.9270 O   0  0  0  0  0  0  0  0  0  0  0  0
  161.1900  210.6380  154.4110 N   0  0  0  0  0  0  0  0  0  0  0  0
  158.9700  210.7230  153.7510 O   0  0  0  0  0  0  0  0  0  0  0  0
  161.5710  210.5640  155.8210 C   0  0  1  0  0  3  0  0  0  0  0  0
  160.4890  208.8210  157.0090 F   0  0  0  0  0  0  0  0  0  0  0  0
  161.6300  209.1080  156.2840 C   0  0  0  0  0  0  0  0  0  0  0  0
  161.7230  208.2250  155.2200 F   0  0  0  0  0  0  0  0  0  0  0  0
  162.7320  208.9420  157.1010 F   0  0  0  0  0  0  0  0  0  0  0  0
  161.0960  206.3350  150.8860 C   0  0  2  0  0  3  0  0  0  0  0  0
  161.7700  206.0190  152.1920 C   0  0  0  0  0  0  0  0  0  0  0  0
  163.0170  205.8530  152.2480 O   0  0  0  0  0  0  0  0  0  0  0  0
  161.0040  205.8820  153.3410 O   0  0  0  0  0  1  0  0  0  0  0  0
  161.6230  205.5080  149.7930 N   0  0  0  0  0  2  0  0  0  0  0  0
  160.7840  204.3270  149.5700 C   0  0  0  0  0  3  0  0  0  0  0  0
  161.9320  204.4950  147.3080 C   0  0  0  0  0  1  0  0  0  0  0  0
  161.1420  203.6140  148.2650 C   0  0  0  0  0  2  0  0  0  0  0  0
  160.7680  203.3970  150.7840 C   0  0  0  0  0  2  0  0  0  0  0  0
  160.8230  201.9260  150.4050 C   0  0  0  0  0  1  0  0  0  0  0  0
  1  5  1  0  0  0  0
  2  3  1  0  0  0  0
  2  1  1  0  0  0  0
  3  8  2  0  0  0  0
  3  9  1  0  0  0  0
  4 10  2  0  0  0  0
  5  6  1  0  0  0  0
  5 12  2  0  0  0  0
  7  3  2  0  0  0  0
  9 23  1  1  0  0  0
  9  6  1  0  0  0  0
 10 12  1  0  0  0  0
 10 11  1  0  0  0  0
 12 14  1  0  0  0  0
 13  1  2  0  0  0  0
 13  4  1  0  0  0  0
 14 17  2  0  0  0  0
 14 16  1  0  0  0  0
 15 18  1  0  0  0  0
 16 15  1  0  0  0  0
 16 18  1  0  0  0  0
 18 20  1  6  0  0  0
 20 19  1  0  0  0  0
 20 22  1  0  0  0  0
 21 20  1  0  0  0  0
 23 27  1  6  0  0  0
 23 24  1  0  0  0  0
 24 25  2  0  0  0  0
 24 26  1  0  0  0  0
 28 27  1  0  0  0  0
 28 31  1  0  0  0  0
 29 30  1  0  0  0  0
 30 28  1  0  0  0  0
 32 31  1  0  0  0  0
M  END
>  <MODEL>
3

>  <REMARK>
 VINA RESULT:      -6.3      3.945      8.322
  Name = 
  8 active torsions:
  status: ('A' for Active; 'I' for Inactive)
    1  A    between atoms: C_2  and  N_8
    2  A    between atoms: C_2  and  C_26
    3  A    between atoms: C_2  and  C_27
    4  A    between atoms: C_4  and  C_29
    5  A    between atoms: N_8  and  CA_19
    6  A    between atoms: C_9  and  C_32
    7  A    between atoms: C_11  and  CA_19
    8  A    between atoms: CA_19  and  C_22
                            x       y       z     vdW  Elec       q    Type
                         _______ _______ _______ _____ _____    ______ ____

>  <TORSDO>
F 8

$$$$
=
 OpenBabel11072411543D

 32 34  0  0  1  0  0  0  0  0999 V2000
  160.9970  206.8090  153.7320 C   0  0  0  0  0  0  0  0  0  0  0  0
  160.8420  205.4550  153.2960 N   0  0  0  0  0  2  0  0  0  0  0  0
  161.3130  204.9460  151.7100 S   0  0  0  0  0  0  0  0  0  0  0  0
  161.5620  208.2930  155.5110 N   0  0  0  0  0  0  0  0  0  0  0  0
  160.9850  207.8950  152.8300 C   0  0  0  0  0  0  0  0  0  0  0  0
  160.4790  207.6300  151.1140 S   0  0  0  0  0  0  0  0  0  0  0  0
  162.4800  204.0060  151.8120 O   0  0  0  0  0  0  0  0  0  0  0  0
  160.1580  204.2600  151.0370 O   0  0  0  0  0  0  0  0  0  0  0  0
  161.7760  206.4050  150.7900 C   0  0  2  0  0  3  0  0  0  0  0  0
  161.6180  209.3550  154.6660 C   0  0  0  0  0  0  0  0  0  0  0  0
  161.9170  210.6430  155.1990 N   0  0  0  0  0  1  0  0  0  0  0  0
  161.3260  209.1870  153.2960 C   0  0  0  0  0  0  0  0  0  0  0  0
  161.2700  207.0430  155.0770 C   0  0  0  0  0  3  0  0  0  0  0  0
  161.3550  210.3560  152.3870 C   0  0  0  0  0  0  0  0  0  0  0  0
  159.5920  212.2140  153.3760 O   0  0  0  0  0  0  0  0  0  0  0  0
  160.4460  211.4360  152.5780 N   0  0  0  0  0  0  0  0  0  0  0  0
  162.1730  210.4020  151.4300 O   0  0  0  0  0  0  0  0  0  0  0  0
  160.1120  212.8430  152.3610 C   0  0  1  0  0  3  0  0  0  0  0  0
  159.7720  212.8050  150.0150 F   0  0  0  0  0  0  0  0  0  0  0  0
  159.1100  212.9850  151.2150 C   0  0  0  0  0  0  0  0  0  0  0  0
  158.0800  212.0620  151.3050 F   0  0  0  0  0  0  0  0  0  0  0  0
  158.5740  214.2590  151.2430 F   0  0  0  0  0  0  0  0  0  0  0  0
  161.8840  206.1240  149.2810 C   0  0  2  0  0  3  0  0  0  0  0  0
  161.7890  207.3530  148.4210 C   0  0  0  0  0  0  0  0  0  0  0  0
  160.9040  207.4480  147.5300 O   0  0  0  0  0  0  0  0  0  0  0  0
  162.7070  208.3800  148.5930 O   0  0  0  0  0  1  0  0  0  0  0  0
  160.9570  205.0780  148.8300 N   0  0  0  0  0  2  0  0  0  0  0  0
  161.6560  204.0470  148.0570 C   0  0  0  0  0  3  0  0  0  0  0  0
  160.8550  201.7940  147.1960 C   0  0  0  0  0  1  0  0  0  0  0  0
  161.1750  202.6410  148.4190 C   0  0  0  0  0  2  0  0  0  0  0  0
  161.6190  204.3330  146.5540 C   0  0  0  0  0  2  0  0  0  0  0  0
  162.9580  204.7980  146.0060 C   0  0  0  0  0  1  0  0  0  0  0  0
  1 13  1  0  0  0  0
  2  1  1  0  0  0  0
  3  7  2  0  0  0  0
  3  2  1  0  0  0  0
  5 12  1  0  0  0  0
  5  1  2  0  0  0  0
  6  5  1  0  0  0  0
  8  3  2  0  0  0  0
  9 23  1  6  0  0  0
  9  6  1  0  0  0  0
  9  3  1  0  0  0  0
 10 11  1  0  0  0  0
 10  4  1  0  0  0  0
 12 10  2  0  0  0  0
 13  4  2  0  0  0  0
 14 16  1  0  0  0  0
 14 12  1  0  0  0  0
 16 15  1  0  0  0  0
 17 14  2  0  0  0  0
 18 20  1  6  0  0  0
 18 16  1  0  0  0  0
 18 15  1  0  0  0  0
 19 20  1  0  0  0  0
 20 22  1  0  0  0  0
 20 21  1  0  0  0  0
 23 24  1  6  0  0  0
 24 26  1  0  0  0  0
 25 24  2  0  0  0  0
 27 23  1  0  0  0  0
 28 30  1  0  0  0  0
 28 27  1  0  0  0  0
 29 30  1  0  0  0  0
 31 28  1  0  0  0  0
 32 31  1  0  0  0  0
M  END
>  <MODEL>
4

>  <REMARK>
 VINA RESULT:      -6.0      3.545      7.544
  Name = 
  8 active torsions:
  status: ('A' for Active; 'I' for Inactive)
    1  A    between atoms: C_2  and  N_8
    2  A    between atoms: C_2  and  C_26
    3  A    between atoms: C_2  and  C_27
    4  A    between atoms: C_4  and  C_29
    5  A    between atoms: N_8  and  CA_19
    6  A    between atoms: C_9  and  C_32
    7  A    between atoms: C_11  and  CA_19
    8  A    between atoms: CA_19  and  C_22
                            x       y       z     vdW  Elec       q    Type
                         _______ _______ _______ _____ _____    ______ ____

>  <TORSDO>
F 8

$$$$
=
 OpenBabel11072411543D

 32 34  0  0  1  0  0  0  0  0999 V2000
  159.6390  212.9300  151.2850 C   0  0  0  0  0  0  0  0  0  0  0  0
  158.7320  213.4450  152.2640 N   0  0  0  0  0  2  0  0  0  0  0  0
  158.8220  212.9800  153.9280 S   0  0  0  0  0  0  0  0  0  0  0  0
  160.9580  213.3610  149.3450 N   0  0  0  0  0  0  0  0  0  0  0  0
  160.2560  211.6680  151.4230 C   0  0  0  0  0  0  0  0  0  0  0  0
  159.6900  210.5280  152.7080 S   0  0  0  0  0  0  0  0  0  0  0  0
  159.2330  214.1630  154.7570 O   0  0  0  0  0  0  0  0  0  0  0  0
  157.4830  212.4740  154.3840 O   0  0  0  0  0  0  0  0  0  0  0  0
  160.0420  211.6830  154.0610 C   0  0  2  0  0  3  0  0  0  0  0  0
  161.6170  212.1810  149.4760 C   0  0  0  0  0  0  0  0  0  0  0  0
  162.6040  211.8340  148.5080 N   0  0  0  0  0  1  0  0  0  0  0  0
  161.2810  211.2940  150.5200 C   0  0  0  0  0  0  0  0  0  0  0  0
  159.9990  213.7510  150.2190 C   0  0  0  0  0  3  0  0  0  0  0  0
  161.9780  209.9930  150.6360 C   0  0  0  0  0  0  0  0  0  0  0  0
  161.5210  208.6020  148.3120 O   0  0  0  0  0  0  0  0  0  0  0  0
  161.8190  209.0010  149.6250 N   0  0  0  0  0  0  0  0  0  0  0  0
  162.7080  209.7440  151.6320 O   0  0  0  0  0  0  0  0  0  0  0  0
  162.3300  207.8070  148.9530 C   0  0  1  0  0  3  0  0  0  0  0  0
  162.2380  206.1020  150.5970 F   0  0  0  0  0  0  0  0  0  0  0  0
  161.6060  206.5580  149.4560 C   0  0  0  0  0  0  0  0  0  0  0  0
  160.2730  206.8080  149.7480 F   0  0  0  0  0  0  0  0  0  0  0  0
  161.6750  205.5780  148.4850 F   0  0  0  0  0  0  0  0  0  0  0  0
  159.9670  210.9580  155.4170 C   0  0  2  0  0  3  0  0  0  0  0  0
  159.9950  211.8780  156.6050 C   0  0  0  0  0  0  0  0  0  0  0  0
  158.9460  212.1150  157.2600 O   0  0  0  0  0  1  0  0  0  0  0  0
  161.1850  212.4940  156.9650 O   0  0  0  0  0  0  0  0  0  0  0  0
  160.9610  209.8840  155.5430 N   0  0  0  0  0  2  0  0  0  0  0  0
  160.3540  208.5700  155.3070 C   0  0  0  0  0  3  0  0  0  0  0  0
  160.8750  207.0080  153.3710 C   0  0  0  0  0  1  0  0  0  0  0  0
  161.3520  207.5860  154.6950 C   0  0  0  0  0  2  0  0  0  0  0  0
  159.6550  208.0290  156.5550 C   0  0  0  0  0  2  0  0  0  0  0  0
  160.4540  206.9420  157.2570 C   0  0  0  0  0  1  0  0  0  0  0  0
  1  5  1  0  0  0  0
  1  2  1  0  0  0  0
  2  3  1  0  0  0  0
  3  9  1  0  0  0  0
  3  8  2  0  0  0  0
  3  7  2  0  0  0  0
  4 10  2  0  0  0  0
  4 13  1  0  0  0  0
  5  6  1  0  0  0  0
  6  9  1  0  0  0  0
  9 23  1  1  0  0  0
 10 12  1  0  0  0  0
 11 10  1  0  0  0  0
 12 14  1  0  0  0  0
 12  5  2  0  0  0  0
 13  1  2  0  0  0  0
 14 17  2  0  0  0  0
 15 18  1  0  0  0  0
 15 16  1  0  0  0  0
 16 14  1  0  0  0  0
 18 20  1  1  0  0  0
 18 16  1  0  0  0  0
 20 21  1  0  0  0  0
 20 19  1  0  0  0  0
 22 20  1  0  0  0  0
 23 27  1  1  0  0  0
 23 24  1  0  0  0  0
 24 26  2  0  0  0  0
 24 25  1  0  0  0  0
 28 27  1  0  0  0  0
 28 31  1  0  0  0  0
 29 30  1  0  0  0  0
 30 28  1  0  0  0  0
 31 32  1  0  0  0  0
M  END
>  <MODEL>
5

>  <REMARK>
 VINA RESULT:      -5.9      3.529      6.374
  Name = 
  8 active torsions:
  status: ('A' for Active; 'I' for Inactive)
    1  A    between atoms: C_2  and  N_8
    2  A    between atoms: C_2  and  C_26
    3  A    between atoms: C_2  and  C_27
    4  A    between atoms: C_4  and  C_29
    5  A    between atoms: N_8  and  CA_19
    6  A    between atoms: C_9  and  C_32
    7  A    between atoms: C_11  and  CA_19
    8  A    between atoms: CA_19  and  C_22
                            x       y       z     vdW  Elec       q    Type
                         _______ _______ _______ _____ _____    ______ ____

>  <TORSDO>
F 8

$$$$
=
 OpenBabel11072411543D

 32 34  0  0  1  0  0  0  0  0999 V2000
  160.8720  206.0990  151.4030 C   0  0  0  0  0  0  0  0  0  0  0  0
  160.4490  204.7320  151.3590 N   0  0  0  0  0  2  0  0  0  0  0  0
  160.9250  203.6690  150.0790 S   0  0  0  0  0  0  0  0  0  0  0  0
  161.6080  207.9320  152.7390 N   0  0  0  0  0  0  0  0  0  0  0  0
  161.1870  206.8250  150.2340 C   0  0  0  0  0  0  0  0  0  0  0  0
  160.7820  206.1350  148.6120 S   0  0  0  0  0  0  0  0  0  0  0  0
  161.8330  202.6040  150.6250 O   0  0  0  0  0  0  0  0  0  0  0  0
  159.7050  203.0400  149.4680 O   0  0  0  0  0  0  0  0  0  0  0  0
  161.7870  204.6450  148.8580 C   0  0  2  0  0  3  0  0  0  0  0  0
  161.9780  208.6410  151.6420 C   0  0  0  0  0  0  0  0  0  0  0  0
  162.5170  209.9480  151.8180 N   0  0  0  0  0  1  0  0  0  0  0  0
  161.7740  208.1080  150.3510 C   0  0  0  0  0  0  0  0  0  0  0  0
  161.0760  206.6890  152.6470 C   0  0  0  0  0  3  0  0  0  0  0  0
  162.1470  208.9020  149.1580 C   0  0  0  0  0  0  0  0  0  0  0  0
  161.7250  211.5470  149.7610 O   0  0  0  0  0  0  0  0  0  0  0  0
  161.9170  210.3070  149.1310 N   0  0  0  0  0  0  0  0  0  0  0  0
  162.6580  208.3420  148.1520 O   0  0  0  0  0  0  0  0  0  0  0  0
  162.2430  211.6170  148.5690 C   0  0  1  0  0  3  0  0  0  0  0  0
  161.8330  212.7030  146.5010 F   0  0  0  0  0  0  0  0  0  0  0  0
  161.2010  212.0280  147.5280 C   0  0  0  0  0  0  0  0  0  0  0  0
  160.5290  210.9350  147.0020 F   0  0  0  0  0  0  0  0  0  0  0  0
  160.2840  212.8740  148.1210 F   0  0  0  0  0  0  0  0  0  0  0  0
  161.9560  203.8870  147.5290 C   0  0  2  0  0  3  0  0  0  0  0  0
  162.4960  204.7290  146.4080 C   0  0  0  0  0  0  0  0  0  0  0  0
  163.7200  204.6990  146.1120 O   0  0  0  0  0  1  0  0  0  0  0  0
  161.6390  205.5700  145.7110 O   0  0  0  0  0  0  0  0  0  0  0  0
  160.7400  203.1680  147.1270 N   0  0  0  0  0  2  0  0  0  0  0  0
  161.0680  201.9320  146.4100 C   0  0  0  0  0  3  0  0  0  0  0  0
  161.5760  199.4530  146.6460 C   0  0  0  0  0  1  0  0  0  0  0  0
  161.2360  200.7490  147.3660 C   0  0  0  0  0  2  0  0  0  0  0  0
  160.0890  201.6550  145.2680 C   0  0  0  0  0  2  0  0  0  0  0  0
  159.6850  202.9130  144.5170 C   0  0  0  0  0  1  0  0  0  0  0  0
  1 13  1  0  0  0  0
  2  1  1  0  0  0  0
  3  7  2  0  0  0  0
  3  2  1  0  0  0  0
  5 12  1  0  0  0  0
  5  1  2  0  0  0  0
  6  9  1  0  0  0  0
  6  5  1  0  0  0  0
  8  3  2  0  0  0  0
  9 23  1  6  0  0  0
  9  3  1  0  0  0  0
 10 11  1  0  0  0  0
 10  4  1  0  0  0  0
 12 10  2  0  0  0  0
 13  4  2  0  0  0  0
 14 12  1  0  0  0  0
 16 14  1  0  0  0  0
 16 15  1  0  0  0  0
 17 14  2  0  0  0  0
 18 20  1  6  0  0  0
 18 16  1  0  0  0  0
 18 15  1  0  0  0  0
 19 20  1  0  0  0  0
 20 22  1  0  0  0  0
 21 20  1  0  0  0  0
 23 24  1  6  0  0  0
 25 24  1  0  0  0  0
 26 24  2  0  0  0  0
 27 23  1  0  0  0  0
 28 27  1  0  0  0  0
 28 30  1  0  0  0  0
 29 30  1  0  0  0  0
 31 28  1  0  0  0  0
 32 31  1  0  0  0  0
M  END
>  <MODEL>
6

>  <REMARK>
 VINA RESULT:      -5.8      3.648      7.668
  Name = 
  8 active torsions:
  status: ('A' for Active; 'I' for Inactive)
    1  A    between atoms: C_2  and  N_8
    2  A    between atoms: C_2  and  C_26
    3  A    between atoms: C_2  and  C_27
    4  A    between atoms: C_4  and  C_29
    5  A    between atoms: N_8  and  CA_19
    6  A    between atoms: C_9  and  C_32
    7  A    between atoms: C_11  and  CA_19
    8  A    between atoms: CA_19  and  C_22
                            x       y       z     vdW  Elec       q    Type
                         _______ _______ _______ _____ _____    ______ ____

>  <TORSDO>
F 8

$$$$
=
 OpenBabel11072411543D

 32 34  0  0  1  0  0  0  0  0999 V2000
  161.5110  206.7090  153.0270 C   0  0  0  0  0  0  0  0  0  0  0  0
  161.7030  207.7170  154.0250 N   0  0  0  0  0  2  0  0  0  0  0  0
  161.3010  209.3750  153.7390 S   0  0  0  0  0  0  0  0  0  0  0  0
  160.8560  204.4700  152.5340 N   0  0  0  0  0  0  0  0  0  0  0  0
  161.5400  207.0050  151.6470 C   0  0  0  0  0  0  0  0  0  0  0  0
  162.1150  208.6250  151.0880 S   0  0  0  0  0  0  0  0  0  0  0  0
  160.1460  209.7680  154.6150 O   0  0  0  0  0  0  0  0  0  0  0  0
  162.4920  210.2410  154.0400 O   0  0  0  0  0  0  0  0  0  0  0  0
  160.8500  209.5330  152.0190 C   0  0  2  0  0  3  0  0  0  0  0  0
  160.8150  204.7280  151.2020 C   0  0  0  0  0  0  0  0  0  0  0  0
  160.4760  203.6720  150.3070 N   0  0  0  0  0  1  0  0  0  0  0  0
  161.1610  206.0070  150.7160 C   0  0  0  0  0  0  0  0  0  0  0  0
  161.1840  205.4210  153.4420 C   0  0  0  0  0  3  0  0  0  0  0  0
  161.1490  206.2710  149.2590 C   0  0  0  0  0  0  0  0  0  0  0  0
  161.6370  203.8890  147.9840 O   0  0  0  0  0  0  0  0  0  0  0  0
  161.4960  205.2400  148.3400 N   0  0  0  0  0  0  0  0  0  0  0  0
  160.8440  207.4120  148.8190 O   0  0  0  0  0  0  0  0  0  0  0  0
  161.4230  204.6960  146.9840 C   0  0  1  0  0  3  0  0  0  0  0  0
  162.5830  206.2110  145.5760 F   0  0  0  0  0  0  0  0  0  0  0  0
  162.7130  204.9940  146.2180 C   0  0  0  0  0  0  0  0  0  0  0  0
  163.8180  205.0410  147.0540 F   0  0  0  0  0  0  0  0  0  0  0  0
  162.9100  204.0070  145.2710 F   0  0  0  0  0  0  0  0  0  0  0  0
  160.8050  211.0040  151.5670 C   0  0  2  0  0  3  0  0  0  0  0  0
  159.7730  211.8310  152.2800 C   0  0  0  0  0  0  0  0  0  0  0  0
  160.0960  212.8970  152.8690 O   0  0  0  0  0  1  0  0  0  0  0  0
  158.4540  211.3990  152.3130 O   0  0  0  0  0  0  0  0  0  0  0  0
  160.6990  211.1470  150.1100 N   0  0  0  0  0  2  0  0  0  0  0  0
  161.5900  212.2010  149.6150 C   0  0  0  0  0  3  0  0  0  0  0  0
  163.3530  212.8050  147.8870 C   0  0  0  0  0  1  0  0  0  0  0  0
  162.4200  211.7280  148.4200 C   0  0  0  0  0  2  0  0  0  0  0  0
  160.8410  213.5090  149.3540 C   0  0  0  0  0  2  0  0  0  0  0  0
  159.7910  213.3820  148.2620 C   0  0  0  0  0  1  0  0  0  0  0  0
  1 13  1  0  0  0  0
  1  2  1  0  0  0  0
  3  2  1  0  0  0  0
  3  8  2  0  0  0  0
  3  7  2  0  0  0  0
  4 13  2  0  0  0  0
  5  1  2  0  0  0  0
  6  5  1  0  0  0  0
  6  9  1  0  0  0  0
  9 23  1  6  0  0  0
  9  3  1  0  0  0  0
 10  4  1  0  0  0  0
 11 10  1  0  0  0  0
 12 10  2  0  0  0  0
 12  5  1  0  0  0  0
 14 12  1  0  0  0  0
 15 16  1  0  0  0  0
 16 14  1  0  0  0  0
 17 14  2  0  0  0  0
 18 20  1  6  0  0  0
 18 15  1  0  0  0  0
 18 16  1  0  0  0  0
 19 20  1  0  0  0  0
 20 21  1  0  0  0  0
 22 20  1  0  0  0  0
 23 27  1  6  0  0  0
 23 24  1  0  0  0  0
 24 26  2  0  0  0  0
 24 25  1  0  0  0  0
 28 27  1  0  0  0  0
 29 30  1  0  0  0  0
 30 28  1  0  0  0  0
 31 28  1  0  0  0  0
 32 31  1  0  0  0  0
M  END
>  <MODEL>
7

>  <REMARK>
 VINA RESULT:      -5.6      2.108      2.965
  Name = 
  8 active torsions:
  status: ('A' for Active; 'I' for Inactive)
    1  A    between atoms: C_2  and  N_8
    2  A    between atoms: C_2  and  C_26
    3  A    between atoms: C_2  and  C_27
    4  A    between atoms: C_4  and  C_29
    5  A    between atoms: N_8  and  CA_19
    6  A    between atoms: C_9  and  C_32
    7  A    between atoms: C_11  and  CA_19
    8  A    between atoms: CA_19  and  C_22
                            x       y       z     vdW  Elec       q    Type
                         _______ _______ _______ _____ _____    ______ ____

>  <TORSDO>
F 8

$$$$
=
 OpenBabel11072411543D

 32 34  0  0  1  0  0  0  0  0999 V2000
  161.7640  210.7670  149.5020 C   0  0  0  0  0  0  0  0  0  0  0  0
  162.2910  209.7450  148.6500 N   0  0  0  0  0  2  0  0  0  0  0  0
  162.0050  208.0650  148.9520 S   0  0  0  0  0  0  0  0  0  0  0  0
  160.7830  212.9340  149.6680 N   0  0  0  0  0  0  0  0  0  0  0  0
  161.4910  210.5390  150.8680 C   0  0  0  0  0  0  0  0  0  0  0  0
  162.0790  209.0230  151.6600 S   0  0  0  0  0  0  0  0  0  0  0  0
  161.1390  207.5020  147.8610 O   0  0  0  0  0  0  0  0  0  0  0  0
  163.3150  207.3310  148.9990 O   0  0  0  0  0  0  0  0  0  0  0  0
  161.1740  207.9340  150.5260 C   0  0  2  0  0  3  0  0  0  0  0  0
  160.4510  212.7330  150.9690 C   0  0  0  0  0  0  0  0  0  0  0  0
  159.8010  213.7820  151.6830 N   0  0  0  0  0  1  0  0  0  0  0  0
  160.8010  211.5260  151.6120 C   0  0  0  0  0  0  0  0  0  0  0  0
  161.4140  211.9880  148.9320 C   0  0  0  0  0  3  0  0  0  0  0  0
  160.4670  211.3280  153.0410 C   0  0  0  0  0  0  0  0  0  0  0  0
  157.7320  211.4090  153.2700 O   0  0  0  0  0  0  0  0  0  0  0  0
  159.1190  211.4440  153.4860 N   0  0  0  0  0  0  0  0  0  0  0  0
  161.3720  211.0670  153.8780 O   0  0  0  0  0  0  0  0  0  0  0  0
  158.1010  211.1270  154.4870 C   0  0  1  0  0  3  0  0  0  0  0  0
  157.5530  213.4260  154.6770 F   0  0  0  0  0  0  0  0  0  0  0  0
  157.8870  212.3140  155.4270 C   0  0  0  0  0  0  0  0  0  0  0  0
  156.8820  212.0740  156.3510 F   0  0  0  0  0  0  0  0  0  0  0  0
  159.0650  212.5690  156.1030 F   0  0  0  0  0  0  0  0  0  0  0  0
  161.1730  206.4890  151.0580 C   0  0  2  0  0  3  0  0  0  0  0  0
  161.9070  206.3140  152.3570 C   0  0  0  0  0  0  0  0  0  0  0  0
  163.0780  205.8490  152.3780 O   0  0  0  0  0  0  0  0  0  0  0  0
  161.2760  206.6420  153.5490 O   0  0  0  0  0  1  0  0  0  0  0  0
  161.6140  205.5130  150.0530 N   0  0  0  0  0  2  0  0  0  0  0  0
  160.6320  204.4370  149.8920 C   0  0  0  0  0  3  0  0  0  0  0  0
  161.8730  204.2440  147.6820 C   0  0  0  0  0  1  0  0  0  0  0  0
  160.9400  203.5650  148.6730 C   0  0  0  0  0  2  0  0  0  0  0  0
  160.4430  203.6350  151.1800 C   0  0  0  0  0  2  0  0  0  0  0  0
  161.6190  202.7210  151.4860 C   0  0  0  0  0  1  0  0  0  0  0  0
  1  5  1  0  0  0  0
  2  3  1  0  0  0  0
  2  1  1  0  0  0  0
  3  8  2  0  0  0  0
  3  9  1  0  0  0  0
  4 10  2  0  0  0  0
  5 12  2  0  0  0  0
  5  6  1  0  0  0  0
  7  3  2  0  0  0  0
  9 23  1  1  0  0  0
  9  6  1  0  0  0  0
 10 12  1  0  0  0  0
 10 11  1  0  0  0  0
 12 14  1  0  0  0  0
 13  1  2  0  0  0  0
 13  4  1  0  0  0  0
 14 16  1  0  0  0  0
 14 17  2  0  0  0  0
 15 16  1  0  0  0  0
 15 18  1  0  0  0  0
 16 18  1  0  0  0  0
 18 20  1  1  0  0  0
 19 20  1  0  0  0  0
 20 22  1  0  0  0  0
 20 21  1  0  0  0  0
 23 27  1  6  0  0  0
 23 24  1  0  0  0  0
 24 25  2  0  0  0  0
 24 26  1  0  0  0  0
 28 27  1  0  0  0  0
 28 31  1  0  0  0  0
 29 30  1  0  0  0  0
 30 28  1  0  0  0  0
 31 32  1  0  0  0  0
M  END
>  <MODEL>
8

>  <REMARK>
 VINA RESULT:      -5.3      4.537      8.646
  Name = 
  8 active torsions:
  status: ('A' for Active; 'I' for Inactive)
    1  A    between atoms: C_2  and  N_8
    2  A    between atoms: C_2  and  C_26
    3  A    between atoms: C_2  and  C_27
    4  A    between atoms: C_4  and  C_29
    5  A    between atoms: N_8  and  CA_19
    6  A    between atoms: C_9  and  C_32
    7  A    between atoms: C_11  and  CA_19
    8  A    between atoms: CA_19  and  C_22
                            x       y       z     vdW  Elec       q    Type
                         _______ _______ _______ _____ _____    ______ ____

>  <TORSDO>
F 8

$$$$
=
 OpenBabel11072411543D

 32 34  0  0  1  0  0  0  0  0999 V2000
  161.7570  211.0980  149.3390 C   0  0  0  0  0  0  0  0  0  0  0  0
  162.3000  210.2110  148.3560 N   0  0  0  0  0  2  0  0  0  0  0  0
  162.0930  208.4950  148.4590 S   0  0  0  0  0  0  0  0  0  0  0  0
  160.6940  213.1830  149.7940 N   0  0  0  0  0  0  0  0  0  0  0  0
  161.5370  210.6950  150.6740 C   0  0  0  0  0  0  0  0  0  0  0  0
  162.2110  209.1220  151.2600 S   0  0  0  0  0  0  0  0  0  0  0  0
  161.2180  208.0290  147.3300 O   0  0  0  0  0  0  0  0  0  0  0  0
  163.4330  207.8210  148.3820 O   0  0  0  0  0  0  0  0  0  0  0  0
  161.3170  208.1380  150.0260 C   0  0  2  0  0  3  0  0  0  0  0  0
  160.4110  212.8110  151.0680 C   0  0  0  0  0  0  0  0  0  0  0  0
  159.7400  213.7360  151.9210 N   0  0  0  0  0  1  0  0  0  0  0  0
  160.8290  211.5530  151.5500 C   0  0  0  0  0  0  0  0  0  0  0  0
  161.3400  212.3620  148.9310 C   0  0  0  0  0  3  0  0  0  0  0  0
  160.5490  211.1690  152.9520 C   0  0  0  0  0  0  0  0  0  0  0  0
  157.8470  211.4380  153.3570 O   0  0  0  0  0  0  0  0  0  0  0  0
  159.2400  211.3260  153.4910 N   0  0  0  0  0  0  0  0  0  0  0  0
  161.4660  210.7120  153.6860 O   0  0  0  0  0  0  0  0  0  0  0  0
  158.2470  210.9460  154.4950 C   0  0  1  0  0  3  0  0  0  0  0  0
  158.5820  211.4060  156.7970 F   0  0  0  0  0  0  0  0  0  0  0  0
  158.1850  211.9910  155.6100 C   0  0  0  0  0  0  0  0  0  0  0  0
  159.0020  213.0810  155.3490 F   0  0  0  0  0  0  0  0  0  0  0  0
  156.8810  212.4300  155.7410 F   0  0  0  0  0  0  0  0  0  0  0  0
  161.3920  206.6410  150.3780 C   0  0  2  0  0  3  0  0  0  0  0  0
  160.9310  205.7290  149.2760 C   0  0  0  0  0  0  0  0  0  0  0  0
  161.6550  204.7750  148.8850 O   0  0  0  0  0  1  0  0  0  0  0  0
  159.7070  205.9600  148.6650 O   0  0  0  0  0  0  0  0  0  0  0  0
  160.7350  206.3230  151.6520 N   0  0  0  0  0  2  0  0  0  0  0  0
  161.6680  205.6860  152.5860 C   0  0  0  0  0  3  0  0  0  0  0  0
  160.8160  207.2940  154.3610 C   0  0  0  0  0  1  0  0  0  0  0  0
  161.2270  205.8640  154.0400 C   0  0  0  0  0  2  0  0  0  0  0  0
  161.9480  204.2290  152.2110 C   0  0  0  0  0  2  0  0  0  0  0  0
  160.6800  203.4120  152.0250 C   0  0  0  0  0  1  0  0  0  0  0  0
  1  5  1  0  0  0  0
  2  3  1  0  0  0  0
  2  1  1  0  0  0  0
  3  9  1  0  0  0  0
  4 10  2  0  0  0  0
  5  6  1  0  0  0  0
  5 12  2  0  0  0  0
  7  3  2  0  0  0  0
  8  3  2  0  0  0  0
  9 23  1  1  0  0  0
  9  6  1  0  0  0  0
 10 12  1  0  0  0  0
 10 11  1  0  0  0  0
 12 14  1  0  0  0  0
 13  1  2  0  0  0  0
 13  4  1  0  0  0  0
 14 16  1  0  0  0  0
 14 17  2  0  0  0  0
 15 16  1  0  0  0  0
 15 18  1  0  0  0  0
 16 18  1  0  0  0  0
 18 20  1  1  0  0  0
 20 22  1  0  0  0  0
 20 19  1  0  0  0  0
 21 20  1  0  0  0  0
 23 24  1  6  0  0  0
 23 27  1  0  0  0  0
 25 24  1  0  0  0  0
 26 24  2  0  0  0  0
 27 28  1  0  0  0  0
 28 30  1  0  0  0  0
 30 29  1  0  0  0  0
 31 28  1  0  0  0  0
 32 31  1  0  0  0  0
M  END
>  <MODEL>
9

>  <REMARK>
 VINA RESULT:      -4.2      4.588      8.376
  Name = 
  8 active torsions:
  status: ('A' for Active; 'I' for Inactive)
    1  A    between atoms: C_2  and  N_8
    2  A    between atoms: C_2  and  C_26
    3  A    between atoms: C_2  and  C_27
    4  A    between atoms: C_4  and  C_29
    5  A    between atoms: N_8  and  CA_19
    6  A    between atoms: C_9  and  C_32
    7  A    between atoms: C_11  and  CA_19
    8  A    between atoms: CA_19  and  C_22
                            x       y       z     vdW  Elec       q    Type
                         _______ _______ _______ _____ _____    ______ ____

>  <TORSDO>
F 8

$$$$
