=
 OpenBabel11072410423D

 50 55  0  0  1  0  0  0  0  0999 V2000
  160.1770  205.9270  147.6940 O   0  0  0  0  0  0  0  0  0  0  0  0
  161.1210  205.5340  146.7150 C   0  0  1  0  0  0  0  0  0  0  0  0
  160.8350  207.9820  146.8660 O   0  0  0  0  0  1  0  0  0  0  0  0
  161.2590  206.8060  147.4940 C   0  0  1  0  0  0  0  0  0  0  0  0
  160.7680  202.3830  145.9230 C   0  0  0  0  0  0  0  0  0  0  0  0
  163.3260  204.7020  147.2450 O   0  0  0  0  0  1  0  0  0  0  0  0
  160.0890  201.9940  149.4700 C   0  0  0  0  0  3  0  0  0  0  0  0
  162.0000  204.2910  147.0930 C   0  0  2  0  0  0  0  0  0  0  0  0
  160.1650  202.0680  147.0300 N   0  0  0  0  0  0  0  0  0  0  0  0
  160.5320  202.4410  150.7160 C   0  0  0  0  0  3  0  0  0  0  0  0
  161.9670  204.0540  149.6310 C   0  0  0  0  0  3  0  0  0  0  0  0
  162.0020  203.2560  145.9480 C   0  0  0  0  0  2  0  0  0  0  0  0
  161.4750  203.4650  150.7960 C   0  0  0  0  0  3  0  0  0  0  0  0
  160.5870  202.5710  148.3010 C   0  0  0  0  0  0  0  0  0  0  0  0
  161.5290  203.6160  148.3720 C   0  0  0  0  0  0  0  0  0  0  0  0
  159.8560  200.5210  144.5860 C   0  0  0  0  0  1  0  0  0  0  0  0
  160.2820  201.8680  144.7200 O   0  0  0  0  0  0  0  0  0  0  0  0
  160.5970  205.7120  145.2830 C   0  0  0  0  0  2  0  0  0  0  0  0
  161.7320  205.8720  144.2890 C   0  0  0  0  0  2  0  0  0  0  0  0
  161.1810  205.7390  142.8860 C   0  0  0  0  0  2  0  0  0  0  0  0
  162.1930  206.2310  141.8700 C   0  0  0  0  0  2  0  0  0  0  0  0
  162.6610  206.0530  139.0470 C   0  0  0  0  0  1  0  0  0  0  0  0
  162.2450  209.5260  140.4010 C   0  0  0  0  0  1  0  0  0  0  0  0
  161.6030  207.3570  141.0230 C   0  0  2  0  0  3  0  0  0  0  0  0
  161.8720  207.2400  139.5820 C   0  0  0  0  0  0  0  0  0  0  0  0
  162.7040  208.1430  140.4210 N   0  0  0  0  0  0  0  0  0  0  0  0
  160.8470  207.8860  138.6510 C   0  0  0  0  0  1  0  0  0  0  0  0
  162.0990  206.9340  148.7670 C   0  0  0  0  0  2  0  0  0  0  0  0
  161.4570  207.8610  149.7990 C   0  0  0  0  0  2  0  0  0  0  0  0
  160.9670  207.0850  151.0120 C   0  0  0  0  0  2  0  0  0  0  0  0
  161.3150  207.8090  152.3040 C   0  0  2  0  0  3  0  0  0  0  0  0
  161.3310  207.3180  154.6330 O   0  0  0  0  0  1  0  0  0  0  0  0
  161.3020  206.8650  153.4600 C   0  0  0  0  0  0  0  0  0  0  0  0
  161.2720  205.4930  153.2430 O   0  0  0  0  0  0  0  0  0  0  0  0
  160.3790  208.8610  152.5160 O   0  0  0  0  0  0  0  0  0  0  0  0
  160.7190  210.0760  153.1180 C   0  0  0  0  0  0  0  0  0  0  0  0
  161.7690  210.6650  152.7470 O   0  0  0  0  0  0  0  0  0  0  0  0
  159.9020  210.6390  154.2460 C   0  0  0  0  0  2  0  0  0  0  0  0
  158.6980  211.4340  153.7390 C   0  0  1  0  0  3  0  0  0  0  0  0
  158.2390  212.5420  154.6160 C   0  0  2  0  0  0  0  0  0  0  0  0
  159.1560  212.8650  153.3980 C   0  0  2  0  0  0  0  0  0  0  0  0
  158.6850  212.8130  151.9340 C   0  0  1  0  0  3  0  0  0  0  0  0
  158.9030  212.6590  155.9840 C   0  0  0  0  0  1  0  0  0  0  0  0
  158.3610  214.0040  152.7300 C   0  0  0  0  0  2  0  0  0  0  0  0
  156.7080  212.6290  154.5730 C   0  0  0  0  0  2  0  0  0  0  0  0
  155.5410  211.2130  156.2330 C   0  0  0  0  0  1  0  0  0  0  0  0
  156.0750  211.2740  154.8180 C   0  0  0  0  0  2  0  0  0  0  0  0
  159.8640  213.1100  151.0230 C   0  0  0  0  0  2  0  0  0  0  0  0
  160.2300  213.1970  148.6660 O   0  0  0  0  0  1  0  0  0  0  0  0
  159.3730  213.6260  149.6810 C   0  0  0  0  0  2  0  0  0  0  0  0
  2 18  1  6  0  0  0
  2  8  1  0  0  0  0
  2  4  1  0  0  0  0
  2  1  1  0  0  0  0
  4  3  1  6  0  0  0
  4  1  1  0  0  0  0
  4 28  1  0  0  0  0
  5 12  1  0  0  0  0
  5  9  2  0  0  0  0
  7 10  1  0  0  0  0
  8  6  1  1  0  0  0
  8 15  1  0  0  0  0
  9 14  1  0  0  0  0
 10 13  2  0  0  0  0
 11 13  1  0  0  0  0
 12  8  1  0  0  0  0
 14 15  1  0  0  0  0
 14  7  2  0  0  0  0
 15 11  2  0  0  0  0
 16 17  1  0  0  0  0
 17  5  1  0  0  0  0
 19 18  1  0  0  0  0
 20 19  1  0  0  0  0
 21 20  1  0  0  0  0
 22 25  1  0  0  0  0
 23 26  1  0  0  0  0
 24 21  1  1  0  0  0
 25 26  1  0  0  0  0
 25 24  1  0  0  0  0
 26 24  1  0  0  0  0
 27 25  1  0  0  0  0
 28 29  1  0  0  0  0
 29 30  1  0  0  0  0
 31 30  1  6  0  0  0
 31 35  1  0  0  0  0
 31 33  1  0  0  0  0
 33 32  1  0  0  0  0
 34 33  2  0  0  0  0
 35 36  1  0  0  0  0
 36 38  1  0  0  0  0
 37 36  2  0  0  0  0
 39 38  1  1  0  0  0
 39 40  1  0  0  0  0
 40 43  1  1  0  0  0
 41 44  1  1  0  0  0
 41 39  1  0  0  0  0
 41 40  1  0  0  0  0
 42 48  1  6  0  0  0
 42 44  1  0  0  0  0
 42 41  1  0  0  0  0
 45 40  1  0  0  0  0
 45 47  1  0  0  0  0
 47 46  1  0  0  0  0
 49 50  1  0  0  0  0
 50 48  1  0  0  0  0
M  END
>  <MODEL>
1

>  <REMARK>
 VINA RESULT:      -4.5      0.000      0.000
  Name = 
  20 active torsions:
  status: ('A' for Active; 'I' for Inactive)
    1  A    between atoms: C_1  and  C_41
    2  A    between atoms: C_2  and  O_20
    3  A    between atoms: C_2  and  C_41
    4  A    between atoms: C_3  and  O_36
    5  A    between atoms: C_4  and  C_21
    6  A    between atoms: C_4  and  C_37
    7  A    between atoms: C_5  and  C_24
    8  A    between atoms: C_11  and  C_25
    9  A    between atoms: C_14  and  C_26
   10  A    between atoms: C_14  and  C_46
   11  A    between atoms: C_18  and  C_23
   12  A    between atoms: C_18  and  C_32
   13  A    between atoms: C_19  and  C_23
   14  A    between atoms: C_19  and  C_44
   15  A    between atoms: O_20  and  C_26
   16  A    between atoms: C_24  and  C_27
   17  A    between atoms: C_25  and  C_44
   18  A    between atoms: C_26  and  C_29
   19  A    between atoms: C_30  and  C_34
   20  A    between atoms: C_30  and  C_46
                            x       y       z     vdW  Elec       q    Type
                         _______ _______ _______ _____ _____    ______ ____

>  <TORSDO>
F 20

$$$$
=
 OpenBabel11072410423D

 50 55  0  0  1  0  0  0  0  0999 V2000
  160.1430  205.8660  147.4830 O   0  0  0  0  0  0  0  0  0  0  0  0
  161.0880  205.4280  146.5240 C   0  0  1  0  0  0  0  0  0  0  0  0
  160.8280  207.8830  146.5850 O   0  0  0  0  0  1  0  0  0  0  0  0
  161.2350  206.7260  147.2570 C   0  0  1  0  0  0  0  0  0  0  0  0
  160.7230  202.2580  145.8190 C   0  0  0  0  0  0  0  0  0  0  0  0
  163.2790  204.5970  147.1110 O   0  0  0  0  0  1  0  0  0  0  0  0
  159.9880  201.9790  149.3660 C   0  0  0  0  0  3  0  0  0  0  0  0
  161.9520  204.1900  146.9510 C   0  0  2  0  0  0  0  0  0  0  0  0
  160.1010  201.9800  146.9260 N   0  0  0  0  0  0  0  0  0  0  0  0
  160.4170  202.4600  150.6040 C   0  0  0  0  0  3  0  0  0  0  0  0
  161.8800  204.0290  149.4950 C   0  0  0  0  0  3  0  0  0  0  0  0
  161.9630  203.1220  145.8370 C   0  0  0  0  0  2  0  0  0  0  0  0
  161.3670  203.4780  150.6690 C   0  0  0  0  0  3  0  0  0  0  0  0
  160.5090  202.5170  148.1880 C   0  0  0  0  0  0  0  0  0  0  0  0
  161.4570  203.5570  148.2430 C   0  0  0  0  0  0  0  0  0  0  0  0
  159.8880  200.3450  144.5050 C   0  0  0  0  0  1  0  0  0  0  0  0
  160.2510  201.7110  144.6260 O   0  0  0  0  0  0  0  0  0  0  0  0
  160.5740  205.5600  145.0840 C   0  0  0  0  0  2  0  0  0  0  0  0
  161.7160  205.6530  144.0880 C   0  0  0  0  0  2  0  0  0  0  0  0
  161.1440  205.7840  142.6940 C   0  0  0  0  0  2  0  0  0  0  0  0
  162.1840  206.3500  141.7460 C   0  0  0  0  0  2  0  0  0  0  0  0
  162.6590  206.1430  138.9260 C   0  0  0  0  0  1  0  0  0  0  0  0
  162.1990  209.6270  140.2360 C   0  0  0  0  0  1  0  0  0  0  0  0
  161.5820  207.4580  140.8840 C   0  0  2  0  0  3  0  0  0  0  0  0
  161.8550  207.3260  139.4460 C   0  0  0  0  0  0  0  0  0  0  0  0
  162.6740  208.2490  140.2740 N   0  0  0  0  0  0  0  0  0  0  0  0
  160.8230  207.9480  138.5050 C   0  0  0  0  0  1  0  0  0  0  0  0
  162.0700  206.8910  148.5290 C   0  0  0  0  0  2  0  0  0  0  0  0
  161.5720  208.0370  149.4100 C   0  0  0  0  0  2  0  0  0  0  0  0
  160.9040  207.5150  150.6730 C   0  0  0  0  0  2  0  0  0  0  0  0
  161.8340  207.6270  151.8710 C   0  0  2  0  0  3  0  0  0  0  0  0
  163.1540  205.7010  152.3360 O   0  0  0  0  0  0  0  0  0  0  0  0
  162.0530  206.2890  152.4960 C   0  0  0  0  0  0  0  0  0  0  0  0
  161.0440  205.6900  153.2380 O   0  0  0  0  0  1  0  0  0  0  0  0
  161.2700  208.5280  152.8190 O   0  0  0  0  0  0  0  0  0  0  0  0
  161.5900  209.8880  152.8650 C   0  0  0  0  0  0  0  0  0  0  0  0
  162.7420  210.2520  152.5070 O   0  0  0  0  0  0  0  0  0  0  0  0
  160.6170  210.8960  153.4060 C   0  0  0  0  0  2  0  0  0  0  0  0
  159.8780  210.3720  154.6390 C   0  0  1  0  0  3  0  0  0  0  0  0
  160.5650  210.5770  155.9400 C   0  0  2  0  0  0  0  0  0  0  0  0
  159.4460  211.5700  155.5060 C   0  0  2  0  0  0  0  0  0  0  0  0
  157.9480  211.2180  155.4880 C   0  0  1  0  0  3  0  0  0  0  0  0
  161.9860  211.1300  155.8900 C   0  0  0  0  0  1  0  0  0  0  0  0
  158.5640  211.5840  156.7690 C   0  0  0  0  0  2  0  0  0  0  0  0
  160.3190  209.3630  156.8470 C   0  0  0  0  0  2  0  0  0  0  0  0
  160.1190  207.0140  156.0970 C   0  0  0  0  0  1  0  0  0  0  0  0
  161.0850  208.1500  156.3570 C   0  0  0  0  0  2  0  0  0  0  0  0
  157.1680  212.3980  154.9370 C   0  0  0  0  0  2  0  0  0  0  0  0
  155.4130  210.7920  154.7500 O   0  0  0  0  0  1  0  0  0  0  0  0
  155.6750  212.1330  155.0360 C   0  0  0  0  0  2  0  0  0  0  0  0
  2 18  1  6  0  0  0
  2  8  1  0  0  0  0
  2  4  1  0  0  0  0
  2  1  1  0  0  0  0
  4  3  1  6  0  0  0
  4  1  1  0  0  0  0
  4 28  1  0  0  0  0
  5 12  1  0  0  0  0
  5  9  2  0  0  0  0
  7 10  1  0  0  0  0
  8  6  1  1  0  0  0
  8 15  1  0  0  0  0
  9 14  1  0  0  0  0
 10 13  2  0  0  0  0
 11 13  1  0  0  0  0
 12  8  1  0  0  0  0
 14 15  1  0  0  0  0
 14  7  2  0  0  0  0
 15 11  2  0  0  0  0
 16 17  1  0  0  0  0
 17  5  1  0  0  0  0
 19 18  1  0  0  0  0
 20 19  1  0  0  0  0
 21 20  1  0  0  0  0
 22 25  1  0  0  0  0
 23 26  1  0  0  0  0
 24 21  1  1  0  0  0
 25 26  1  0  0  0  0
 25 24  1  0  0  0  0
 26 24  1  0  0  0  0
 27 25  1  0  0  0  0
 28 29  1  0  0  0  0
 29 30  1  0  0  0  0
 31 30  1  6  0  0  0
 31 33  1  0  0  0  0
 31 35  1  0  0  0  0
 32 33  2  0  0  0  0
 33 34  1  0  0  0  0
 35 36  1  0  0  0  0
 36 38  1  0  0  0  0
 37 36  2  0  0  0  0
 39 38  1  6  0  0  0
 39 41  1  0  0  0  0
 39 40  1  0  0  0  0
 40 43  1  6  0  0  0
 40 45  1  0  0  0  0
 41 40  1  0  0  0  0
 41 44  1  6  0  0  0
 42 48  1  6  0  0  0
 42 41  1  0  0  0  0
 42 44  1  0  0  0  0
 46 47  1  0  0  0  0
 47 45  1  0  0  0  0
 48 50  1  0  0  0  0
 49 50  1  0  0  0  0
M  END
>  <MODEL>
2

>  <REMARK>
 VINA RESULT:      -4.5      1.483      2.562
  Name = 
  20 active torsions:
  status: ('A' for Active; 'I' for Inactive)
    1  A    between atoms: C_1  and  C_41
    2  A    between atoms: C_2  and  O_20
    3  A    between atoms: C_2  and  C_41
    4  A    between atoms: C_3  and  O_36
    5  A    between atoms: C_4  and  C_21
    6  A    between atoms: C_4  and  C_37
    7  A    between atoms: C_5  and  C_24
    8  A    between atoms: C_11  and  C_25
    9  A    between atoms: C_14  and  C_26
   10  A    between atoms: C_14  and  C_46
   11  A    between atoms: C_18  and  C_23
   12  A    between atoms: C_18  and  C_32
   13  A    between atoms: C_19  and  C_23
   14  A    between atoms: C_19  and  C_44
   15  A    between atoms: O_20  and  C_26
   16  A    between atoms: C_24  and  C_27
   17  A    between atoms: C_25  and  C_44
   18  A    between atoms: C_26  and  C_29
   19  A    between atoms: C_30  and  C_34
   20  A    between atoms: C_30  and  C_46
                            x       y       z     vdW  Elec       q    Type
                         _______ _______ _______ _____ _____    ______ ____

>  <TORSDO>
F 20

$$$$
=
 OpenBabel11072410423D

 50 55  0  0  1  0  0  0  0  0999 V2000
  162.9990  206.2910  151.0020 O   0  0  0  0  0  0  0  0  0  0  0  0
  161.7700  205.7400  150.5640 C   0  0  1  0  0  0  0  0  0  0  0  0
  162.7350  204.5520  152.5010 O   0  0  0  0  0  1  0  0  0  0  0  0
  162.1800  205.7360  152.0050 C   0  0  1  0  0  0  0  0  0  0  0  0
  161.0680  206.7310  147.5300 C   0  0  0  0  0  0  0  0  0  0  0  0
  159.6220  206.7800  150.9320 O   0  0  0  0  0  1  0  0  0  0  0  0
  162.4620  209.8820  148.6800 C   0  0  0  0  0  3  0  0  0  0  0  0
  160.7120  206.7820  150.0590 C   0  0  2  0  0  0  0  0  0  0  0  0
  161.8160  207.7910  147.5950 N   0  0  0  0  0  0  0  0  0  0  0  0
  162.4700  210.7230  149.7940 C   0  0  0  0  0  3  0  0  0  0  0  0
  161.2970  209.0450  151.0760 C   0  0  0  0  0  3  0  0  0  0  0  0
  160.1560  206.3690  148.6790 C   0  0  0  0  0  2  0  0  0  0  0  0
  161.8820  210.3080  150.9880 C   0  0  0  0  0  3  0  0  0  0  0  0
  161.8660  208.6220  148.7580 C   0  0  0  0  0  0  0  0  0  0  0  0
  161.2830  208.1880  149.9650 C   0  0  0  0  0  0  0  0  0  0  0  0
  160.4550  206.3710  145.1680 C   0  0  0  0  0  1  0  0  0  0  0  0
  161.0920  205.9600  146.3670 O   0  0  0  0  0  0  0  0  0  0  0  0
  161.9480  204.3970  149.8430 C   0  0  0  0  0  2  0  0  0  0  0  0
  160.6560  203.6020  149.8140 C   0  0  0  0  0  2  0  0  0  0  0  0
  160.9140  202.2220  150.3780 C   0  0  0  0  0  2  0  0  0  0  0  0
  160.7650  201.1710  149.2950 C   0  0  0  0  0  2  0  0  0  0  0  0
  161.4500  199.6070  146.9920 C   0  0  0  0  0  1  0  0  0  0  0  0
  161.6280  203.3260  146.5330 C   0  0  0  0  0  1  0  0  0  0  0  0
  160.5000  201.8250  147.9410 C   0  0  2  0  0  3  0  0  0  0  0  0
  160.8740  201.0000  146.7830 C   0  0  0  0  0  0  0  0  0  0  0  0
  161.7900  202.0710  147.2580 N   0  0  0  0  0  0  0  0  0  0  0  0
  160.0950  201.2580  145.4930 C   0  0  0  0  0  1  0  0  0  0  0  0
  161.7510  206.8050  153.0120 C   0  0  0  0  0  2  0  0  0  0  0  0
  160.9130  206.2300  154.1530 C   0  0  0  0  0  2  0  0  0  0  0  0
  160.0720  207.3070  154.8210 C   0  0  0  0  0  2  0  0  0  0  0  0
  160.9340  208.4770  155.2690 C   0  0  2  0  0  3  0  0  0  0  0  0
  161.1950  207.1980  157.2600 O   0  0  0  0  0  1  0  0  0  0  0  0
  161.5870  208.1800  156.5790 C   0  0  0  0  0  0  0  0  0  0  0  0
  162.6110  208.9920  157.0500 O   0  0  0  0  0  0  0  0  0  0  0  0
  160.1230  209.6430  155.3760 O   0  0  0  0  0  0  0  0  0  0  0  0
  160.5580  210.9130  154.9870 C   0  0  0  0  0  0  0  0  0  0  0  0
  161.6370  211.0160  154.3460 O   0  0  0  0  0  0  0  0  0  0  0  0
  159.8040  212.1480  155.3930 C   0  0  0  0  0  2  0  0  0  0  0  0
  158.4220  212.2140  154.7420 C   0  0  1  0  0  3  0  0  0  0  0  0
  157.4100  213.0370  155.4550 C   0  0  2  0  0  0  0  0  0  0  0  0
  158.1750  213.6510  154.2440 C   0  0  2  0  0  0  0  0  0  0  0  0
  157.9270  213.2470  152.7800 C   0  0  1  0  0  3  0  0  0  0  0  0
  157.8050  213.5830  156.8230 C   0  0  0  0  0  1  0  0  0  0  0  0
  157.0030  214.1990  153.4070 C   0  0  0  0  0  2  0  0  0  0  0  0
  156.0330  212.3700  155.3390 C   0  0  0  0  0  2  0  0  0  0  0  0
  154.8800  210.1800  155.3500 C   0  0  0  0  0  1  0  0  0  0  0  0
  156.1650  210.8990  154.9970 C   0  0  0  0  0  2  0  0  0  0  0  0
  158.9050  213.9920  151.8880 C   0  0  0  0  0  2  0  0  0  0  0  0
  157.5880  214.0860  149.9000 O   0  0  0  0  0  1  0  0  0  0  0  0
  158.7490  213.5390  150.4460 C   0  0  0  0  0  2  0  0  0  0  0  0
  1  4  1  0  0  0  0
  2 18  1  6  0  0  0
  2  1  1  0  0  0  0
  2  4  1  0  0  0  0
  4  3  1  1  0  0  0
  4 28  1  0  0  0  0
  5  9  2  0  0  0  0
  5 12  1  0  0  0  0
  7 14  2  0  0  0  0
  7 10  1  0  0  0  0
  8  2  1  0  0  0  0
  8  6  1  1  0  0  0
  9 14  1  0  0  0  0
 10 13  2  0  0  0  0
 12  8  1  0  0  0  0
 13 11  1  0  0  0  0
 14 15  1  0  0  0  0
 15  8  1  0  0  0  0
 15 11  2  0  0  0  0
 16 17  1  0  0  0  0
 17  5  1  0  0  0  0
 19 18  1  0  0  0  0
 19 20  1  0  0  0  0
 21 20  1  0  0  0  0
 23 26  1  0  0  0  0
 24 21  1  1  0  0  0
 25 22  1  0  0  0  0
 25 26  1  0  0  0  0
 25 24  1  0  0  0  0
 26 24  1  0  0  0  0
 27 25  1  0  0  0  0
 28 29  1  0  0  0  0
 29 30  1  0  0  0  0
 31 30  1  1  0  0  0
 31 35  1  0  0  0  0
 31 33  1  0  0  0  0
 33 34  2  0  0  0  0
 33 32  1  0  0  0  0
 36 35  1  0  0  0  0
 36 38  1  0  0  0  0
 37 36  2  0  0  0  0
 39 38  1  1  0  0  0
 39 40  1  0  0  0  0
 40 43  1  1  0  0  0
 41 44  1  1  0  0  0
 41 39  1  0  0  0  0
 41 40  1  0  0  0  0
 42 48  1  6  0  0  0
 42 44  1  0  0  0  0
 42 41  1  0  0  0  0
 45 40  1  0  0  0  0
 47 45  1  0  0  0  0
 47 46  1  0  0  0  0
 49 50  1  0  0  0  0
 50 48  1  0  0  0  0
M  END
>  <MODEL>
3

>  <REMARK>
 VINA RESULT:      -4.2      2.677      5.413
  Name = 
  20 active torsions:
  status: ('A' for Active; 'I' for Inactive)
    1  A    between atoms: C_1  and  C_41
    2  A    between atoms: C_2  and  O_20
    3  A    between atoms: C_2  and  C_41
    4  A    between atoms: C_3  and  O_36
    5  A    between atoms: C_4  and  C_21
    6  A    between atoms: C_4  and  C_37
    7  A    between atoms: C_5  and  C_24
    8  A    between atoms: C_11  and  C_25
    9  A    between atoms: C_14  and  C_26
   10  A    between atoms: C_14  and  C_46
   11  A    between atoms: C_18  and  C_23
   12  A    between atoms: C_18  and  C_32
   13  A    between atoms: C_19  and  C_23
   14  A    between atoms: C_19  and  C_44
   15  A    between atoms: O_20  and  C_26
   16  A    between atoms: C_24  and  C_27
   17  A    between atoms: C_25  and  C_44
   18  A    between atoms: C_26  and  C_29
   19  A    between atoms: C_30  and  C_34
   20  A    between atoms: C_30  and  C_46
                            x       y       z     vdW  Elec       q    Type
                         _______ _______ _______ _____ _____    ______ ____

>  <TORSDO>
F 20

$$$$
=
 OpenBabel11072410423D

 50 55  0  0  1  0  0  0  0  0999 V2000
  160.5050  208.2130  149.4240 O   0  0  0  0  0  0  0  0  0  0  0  0
  161.4380  207.1560  149.5570 C   0  0  1  0  0  0  0  0  0  0  0  0
  161.0580  207.8310  147.2130 O   0  0  0  0  0  1  0  0  0  0  0  0
  161.5450  208.1860  148.4750 C   0  0  1  0  0  0  0  0  0  0  0  0
  161.3540  205.5030  152.3750 C   0  0  0  0  0  0  0  0  0  0  0  0
  163.6590  207.6080  150.3940 O   0  0  0  0  0  1  0  0  0  0  0  0
  160.4860  208.7430  153.7720 C   0  0  0  0  0  3  0  0  0  0  0  0
  162.3760  207.2450  150.8110 C   0  0  2  0  0  0  0  0  0  0  0  0
  160.7070  206.4300  153.0160 N   0  0  0  0  0  0  0  0  0  0  0  0
  160.8210  210.0940  153.6690 C   0  0  0  0  0  3  0  0  0  0  0  0
  162.2040  209.6100  151.7480 C   0  0  0  0  0  3  0  0  0  0  0  0
  162.5200  205.8630  151.4840 C   0  0  0  0  0  2  0  0  0  0  0  0
  161.6840  210.5250  152.6630 C   0  0  0  0  0  3  0  0  0  0  0  0
  161.0150  207.8190  152.8680 C   0  0  0  0  0  0  0  0  0  0  0  0
  161.8760  208.2490  151.8390 C   0  0  0  0  0  0  0  0  0  0  0  0
  161.1760  203.1810  151.5600 C   0  0  0  0  0  1  0  0  0  0  0  0
  160.9790  204.1710  152.5580 O   0  0  0  0  0  0  0  0  0  0  0  0
  160.8700  205.8050  149.1030 C   0  0  0  0  0  2  0  0  0  0  0  0
  161.9740  204.8100  148.7930 C   0  0  0  0  0  2  0  0  0  0  0  0
  162.1710  204.7450  147.2940 C   0  0  0  0  0  2  0  0  0  0  0  0
  161.2170  203.7400  146.6770 C   0  0  0  0  0  2  0  0  0  0  0  0
  159.8520  201.6000  145.3440 C   0  0  0  0  0  1  0  0  0  0  0  0
  160.6720  200.9940  148.9540 C   0  0  0  0  0  1  0  0  0  0  0  0
  161.4920  202.3360  147.2120 C   0  0  2  0  0  3  0  0  0  0  0  0
  160.7670  201.2650  146.5130 C   0  0  0  0  0  0  0  0  0  0  0  0
  160.2510  201.7890  147.8060 N   0  0  0  0  0  0  0  0  0  0  0  0
  161.4280  199.8870  146.5220 C   0  0  0  0  0  1  0  0  0  0  0  0
  162.4120  209.4430  148.5820 C   0  0  0  0  0  2  0  0  0  0  0  0
  161.5800  210.7200  148.6800 C   0  0  0  0  0  2  0  0  0  0  0  0
  161.0990  211.1750  147.3100 C   0  0  0  0  0  2  0  0  0  0  0  0
  161.3200  212.6680  147.1190 C   0  0  2  0  0  3  0  0  0  0  0  0
  161.5950  213.8740  149.1530 O   0  0  0  0  0  1  0  0  0  0  0  0
  160.7950  213.4340  148.2880 C   0  0  0  0  0  0  0  0  0  0  0  0
  159.4300  213.6470  148.4280 O   0  0  0  0  0  0  0  0  0  0  0  0
  160.6720  213.0880  145.9230 O   0  0  0  0  0  0  0  0  0  0  0  0
  161.1700  212.8110  144.6460 C   0  0  0  0  0  0  0  0  0  0  0  0
  162.3910  213.0160  144.4140 O   0  0  0  0  0  0  0  0  0  0  0  0
  160.2610  212.3550  143.5400 C   0  0  0  0  0  2  0  0  0  0  0  0
  160.4790  213.1560  142.2550 C   0  0  1  0  0  3  0  0  0  0  0  0
  161.0830  212.4070  141.1220 C   0  0  2  0  0  0  0  0  0  0  0  0
  159.5380  212.6100  141.1640 C   0  0  2  0  0  0  0  0  0  0  0  0
  158.8440  213.9570  140.8980 C   0  0  1  0  0  3  0  0  0  0  0  0
  161.5640  210.9890  141.4110 C   0  0  0  0  0  1  0  0  0  0  0  0
  159.2780  213.1560  139.7470 C   0  0  0  0  0  2  0  0  0  0  0  0
  162.0390  213.3270  140.3520 C   0  0  0  0  0  2  0  0  0  0  0  0
  164.2560  213.3560  139.2520 C   0  0  0  0  0  1  0  0  0  0  0  0
  163.0200  212.5230  139.5210 C   0  0  0  0  0  2  0  0  0  0  0  0
  157.3480  213.7930  141.1020 C   0  0  0  0  0  2  0  0  0  0  0  0
  155.2740  213.9770  139.9360 O   0  0  0  0  0  1  0  0  0  0  0  0
  156.5870  214.4500  139.9630 C   0  0  0  0  0  2  0  0  0  0  0  0
  1  2  1  0  0  0  0
  2 18  1  6  0  0  0
  2  8  1  0  0  0  0
  4  3  1  6  0  0  0
  4 28  1  0  0  0  0
  4  1  1  0  0  0  0
  4  2  1  0  0  0  0
  5 17  1  0  0  0  0
  5  9  2  0  0  0  0
  8  6  1  6  0  0  0
  8 12  1  0  0  0  0
  8 15  1  0  0  0  0
 10  7  1  0  0  0  0
 11 15  2  0  0  0  0
 11 13  1  0  0  0  0
 12  5  1  0  0  0  0
 13 10  2  0  0  0  0
 14  9  1  0  0  0  0
 14  7  2  0  0  0  0
 15 14  1  0  0  0  0
 16 17  1  0  0  0  0
 19 18  1  0  0  0  0
 20 19  1  0  0  0  0
 21 20  1  0  0  0  0
 22 25  1  0  0  0  0
 24 21  1  6  0  0  0
 24 26  1  0  0  0  0
 25 27  1  0  0  0  0
 25 24  1  0  0  0  0
 25 26  1  0  0  0  0
 26 23  1  0  0  0  0
 28 29  1  0  0  0  0
 30 29  1  0  0  0  0
 31 30  1  1  0  0  0
 31 33  1  0  0  0  0
 33 34  2  0  0  0  0
 33 32  1  0  0  0  0
 35 31  1  0  0  0  0
 36 35  1  0  0  0  0
 37 36  2  0  0  0  0
 38 36  1  0  0  0  0
 39 38  1  1  0  0  0
 40 41  1  0  0  0  0
 40 43  1  1  0  0  0
 40 39  1  0  0  0  0
 41 44  1  1  0  0  0
 41 39  1  0  0  0  0
 42 48  1  6  0  0  0
 42 41  1  0  0  0  0
 44 42  1  0  0  0  0
 45 40  1  0  0  0  0
 46 47  1  0  0  0  0
 47 45  1  0  0  0  0
 49 50  1  0  0  0  0
 50 48  1  0  0  0  0
M  END
>  <MODEL>
4

>  <REMARK>
 VINA RESULT:      -4.0      3.470      9.131
  Name = 
  20 active torsions:
  status: ('A' for Active; 'I' for Inactive)
    1  A    between atoms: C_1  and  C_41
    2  A    between atoms: C_2  and  O_20
    3  A    between atoms: C_2  and  C_41
    4  A    between atoms: C_3  and  O_36
    5  A    between atoms: C_4  and  C_21
    6  A    between atoms: C_4  and  C_37
    7  A    between atoms: C_5  and  C_24
    8  A    between atoms: C_11  and  C_25
    9  A    between atoms: C_14  and  C_26
   10  A    between atoms: C_14  and  C_46
   11  A    between atoms: C_18  and  C_23
   12  A    between atoms: C_18  and  C_32
   13  A    between atoms: C_19  and  C_23
   14  A    between atoms: C_19  and  C_44
   15  A    between atoms: O_20  and  C_26
   16  A    between atoms: C_24  and  C_27
   17  A    between atoms: C_25  and  C_44
   18  A    between atoms: C_26  and  C_29
   19  A    between atoms: C_30  and  C_34
   20  A    between atoms: C_30  and  C_46
                            x       y       z     vdW  Elec       q    Type
                         _______ _______ _______ _____ _____    ______ ____

>  <TORSDO>
F 20

$$$$
=
 OpenBabel11072410423D

 50 55  0  0  1  0  0  0  0  0999 V2000
  160.1330  212.7360  153.0330 O   0  0  0  0  0  0  0  0  0  0  0  0
  158.7650  212.6400  152.6800 C   0  0  1  0  0  0  0  0  0  0  0  0
  160.0530  210.6000  152.1520 O   0  0  0  0  0  1  0  0  0  0  0  0
  159.5570  211.4550  153.1410 C   0  0  1  0  0  0  0  0  0  0  0  0
  159.1860  213.6000  155.7750 C   0  0  0  0  0  0  0  0  0  0  0  0
  156.8860  214.1370  152.9300 O   0  0  0  0  0  1  0  0  0  0  0  0
  156.7980  210.9560  156.4850 C   0  0  0  0  0  3  0  0  0  0  0  0
  157.7680  213.3420  153.6660 C   0  0  2  0  0  0  0  0  0  0  0  0
  158.6560  212.5290  156.2850 N   0  0  0  0  0  0  0  0  0  0  0  0
  155.6150  210.4010  155.9940 C   0  0  0  0  0  3  0  0  0  0  0  0
  155.7850  211.7770  154.0160 C   0  0  0  0  0  3  0  0  0  0  0  0
  158.5210  214.3010  154.6130 C   0  0  0  0  0  2  0  0  0  0  0  0
  155.1060  210.8160  154.7650 C   0  0  0  0  0  3  0  0  0  0  0  0
  157.4740  211.9290  155.7470 C   0  0  0  0  0  0  0  0  0  0  0  0
  156.9750  212.3440  154.4960 C   0  0  0  0  0  0  0  0  0  0  0  0
  161.1450  213.3680  157.2560 C   0  0  0  0  0  1  0  0  0  0  0  0
  160.3520  214.1120  156.3450 O   0  0  0  0  0  0  0  0  0  0  0  0
  158.5390  212.7080  151.1630 C   0  0  0  0  0  2  0  0  0  0  0  0
  159.4590  213.7210  150.5060 C   0  0  0  0  0  2  0  0  0  0  0  0
  158.7840  214.2700  149.2690 C   0  0  0  0  0  2  0  0  0  0  0  0
  159.2160  213.4920  148.0400 C   0  0  0  0  0  2  0  0  0  0  0  0
  160.3760  212.6020  145.5740 C   0  0  0  0  0  1  0  0  0  0  0  0
  162.1390  211.4800  148.6890 C   0  0  0  0  0  1  0  0  0  0  0  0
  160.7230  213.2420  148.0630 C   0  0  2  0  0  3  0  0  0  0  0  0
  161.2810  212.7760  146.7860 C   0  0  0  0  0  0  0  0  0  0  0  0
  160.9800  211.7980  147.8640 N   0  0  0  0  0  0  0  0  0  0  0  0
  162.7490  213.1150  146.5290 C   0  0  0  0  0  1  0  0  0  0  0  0
  159.5850  210.9670  154.5920 C   0  0  0  0  0  2  0  0  0  0  0  0
  161.0080  210.7600  155.1110 C   0  0  0  0  0  2  0  0  0  0  0  0
  161.2430  209.3160  155.5260 C   0  0  0  0  0  2  0  0  0  0  0  0
  160.7760  208.3520  154.4450 C   0  0  2  0  0  3  0  0  0  0  0  0
  160.7550  205.9920  154.7580 O   0  0  0  0  0  0  0  0  0  0  0  0
  160.2360  207.1000  155.0520 C   0  0  0  0  0  0  0  0  0  0  0  0
  159.1570  207.1540  155.9260 O   0  0  0  0  0  1  0  0  0  0  0  0
  161.8680  208.0510  153.5830 O   0  0  0  0  0  0  0  0  0  0  0  0
  161.7700  208.0760  152.1890 C   0  0  0  0  0  0  0  0  0  0  0  0
  162.4410  208.9290  151.5490 O   0  0  0  0  0  0  0  0  0  0  0  0
  160.8240  207.1640  151.4610 C   0  0  0  0  0  2  0  0  0  0  0  0
  161.5540  205.9960  150.7960 C   0  0  1  0  0  3  0  0  0  0  0  0
  160.9510  204.6540  151.0040 C   0  0  2  0  0  0  0  0  0  0  0  0
  160.6610  205.4230  149.6790 C   0  0  2  0  0  0  0  0  0  0  0  0
  161.6980  205.6220  148.5600 C   0  0  1  0  0  3  0  0  0  0  0  0
  159.7810  204.5680  151.9780 C   0  0  0  0  0  1  0  0  0  0  0  0
  160.9900  204.3380  148.6360 C   0  0  0  0  0  2  0  0  0  0  0  0
  162.0640  203.6090  151.1530 C   0  0  0  0  0  2  0  0  0  0  0  0
  160.7720  201.6540  150.3560 C   0  0  0  0  0  1  0  0  0  0  0  0
  161.4970  202.2580  151.5400 C   0  0  0  0  0  2  0  0  0  0  0  0
  161.0880  206.4810  147.4660 C   0  0  0  0  0  2  0  0  0  0  0  0
  162.3080  206.0850  145.4520 O   0  0  0  0  0  1  0  0  0  0  0  0
  161.1380  205.7480  146.1350 C   0  0  0  0  0  2  0  0  0  0  0  0
  1  4  1  0  0  0  0
  2 18  1  6  0  0  0
  2  1  1  0  0  0  0
  2  4  1  0  0  0  0
  2  8  1  0  0  0  0
  4  3  1  6  0  0  0
  4 28  1  0  0  0  0
  5  9  2  0  0  0  0
  5 17  1  0  0  0  0
  8  6  1  6  0  0  0
  8 15  1  0  0  0  0
  8 12  1  0  0  0  0
 10  7  1  0  0  0  0
 11 15  2  0  0  0  0
 11 13  1  0  0  0  0
 12  5  1  0  0  0  0
 13 10  2  0  0  0  0
 14  9  1  0  0  0  0
 14  7  2  0  0  0  0
 15 14  1  0  0  0  0
 17 16  1  0  0  0  0
 19 18  1  0  0  0  0
 20 19  1  0  0  0  0
 21 20  1  0  0  0  0
 22 25  1  0  0  0  0
 24 21  1  6  0  0  0
 25 26  1  0  0  0  0
 25 24  1  0  0  0  0
 26 24  1  0  0  0  0
 26 23  1  0  0  0  0
 27 25  1  0  0  0  0
 28 29  1  0  0  0  0
 29 30  1  0  0  0  0
 31 33  1  0  0  0  0
 31 30  1  1  0  0  0
 32 33  2  0  0  0  0
 33 34  1  0  0  0  0
 35 31  1  0  0  0  0
 36 35  1  0  0  0  0
 37 36  2  0  0  0  0
 38 36  1  0  0  0  0
 39 40  1  0  0  0  0
 39 38  1  1  0  0  0
 40 45  1  0  0  0  0
 40 43  1  1  0  0  0
 41 44  1  6  0  0  0
 41 39  1  0  0  0  0
 41 40  1  0  0  0  0
 42 48  1  6  0  0  0
 42 44  1  0  0  0  0
 42 41  1  0  0  0  0
 45 47  1  0  0  0  0
 46 47  1  0  0  0  0
 49 50  1  0  0  0  0
 50 48  1  0  0  0  0
M  END
>  <MODEL>
5

>  <REMARK>
 VINA RESULT:      -3.7      3.441      9.732
  Name = 
  20 active torsions:
  status: ('A' for Active; 'I' for Inactive)
    1  A    between atoms: C_1  and  C_41
    2  A    between atoms: C_2  and  O_20
    3  A    between atoms: C_2  and  C_41
    4  A    between atoms: C_3  and  O_36
    5  A    between atoms: C_4  and  C_21
    6  A    between atoms: C_4  and  C_37
    7  A    between atoms: C_5  and  C_24
    8  A    between atoms: C_11  and  C_25
    9  A    between atoms: C_14  and  C_26
   10  A    between atoms: C_14  and  C_46
   11  A    between atoms: C_18  and  C_23
   12  A    between atoms: C_18  and  C_32
   13  A    between atoms: C_19  and  C_23
   14  A    between atoms: C_19  and  C_44
   15  A    between atoms: O_20  and  C_26
   16  A    between atoms: C_24  and  C_27
   17  A    between atoms: C_25  and  C_44
   18  A    between atoms: C_26  and  C_29
   19  A    between atoms: C_30  and  C_34
   20  A    between atoms: C_30  and  C_46
                            x       y       z     vdW  Elec       q    Type
                         _______ _______ _______ _____ _____    ______ ____

>  <TORSDO>
F 20

$$$$
=
 OpenBabel11072410423D

 50 55  0  0  1  0  0  0  0  0999 V2000
  162.2640  210.9750  151.7800 O   0  0  0  0  0  0  0  0  0  0  0  0
  160.9160  211.3950  151.6780 C   0  0  1  0  0  0  0  0  0  0  0  0
  162.0160  211.1070  149.4860 O   0  0  0  0  0  1  0  0  0  0  0  0
  161.5550  210.5020  150.6600 C   0  0  1  0  0  0  0  0  0  0  0  0
  158.5360  212.8130  153.4120 C   0  0  0  0  0  0  0  0  0  0  0  0
  159.7080  209.4450  152.4340 O   0  0  0  0  0  1  0  0  0  0  0  0
  160.7560  212.1610  156.2140 C   0  0  0  0  0  3  0  0  0  0  0  0
  159.9420  210.7860  152.7460 C   0  0  2  0  0  0  0  0  0  0  0  0
  159.2780  213.0060  154.4610 N   0  0  0  0  0  0  0  0  0  0  0  0
  161.6090  211.1780  156.7160 C   0  0  0  0  0  3  0  0  0  0  0  0
  161.3530  209.9070  154.6780 C   0  0  0  0  0  3  0  0  0  0  0  0
  158.5660  211.4850  152.6910 C   0  0  0  0  0  2  0  0  0  0  0  0
  161.9010  210.0490  155.9530 C   0  0  0  0  0  3  0  0  0  0  0  0
  160.1930  212.0180  154.9440 C   0  0  0  0  0  0  0  0  0  0  0  0
  160.4950  210.8880  154.1590 C   0  0  0  0  0  0  0  0  0  0  0  0
  156.2710  213.7190  153.0460 C   0  0  0  0  0  1  0  0  0  0  0  0
  157.6840  213.8340  152.9920 O   0  0  0  0  0  0  0  0  0  0  0  0
  160.7850  212.8640  151.2500 C   0  0  0  0  0  2  0  0  0  0  0  0
  160.3240  212.9870  149.8090 C   0  0  0  0  0  2  0  0  0  0  0  0
  159.4460  214.2120  149.6760 C   0  0  0  0  0  2  0  0  0  0  0  0
  158.3790  213.9870  148.6210 C   0  0  0  0  0  2  0  0  0  0  0  0
  157.0780  212.6420  146.4490 C   0  0  0  0  0  1  0  0  0  0  0  0
  160.6890  213.4940  145.8940 C   0  0  0  0  0  1  0  0  0  0  0  0
  158.9280  214.2850  147.2270 C   0  0  2  0  0  3  0  0  0  0  0  0
  158.2450  213.5700  146.1390 C   0  0  0  0  0  0  0  0  0  0  0  0
  159.5360  213.0550  146.6700 N   0  0  0  0  0  0  0  0  0  0  0  0
  158.2650  214.2500  144.7710 C   0  0  0  0  0  1  0  0  0  0  0  0
  161.4510  208.9750  150.6860 C   0  0  0  0  0  2  0  0  0  0  0  0
  162.6050  208.3240  151.4480 C   0  0  0  0  0  2  0  0  0  0  0  0
  162.3790  206.8310  151.6290 C   0  0  0  0  0  2  0  0  0  0  0  0
  160.9460  206.5400  152.0470 C   0  0  2  0  0  3  0  0  0  0  0  0
  160.5080  207.1860  154.2960 O   0  0  0  0  0  1  0  0  0  0  0  0
  160.8680  206.2690  153.5140 C   0  0  0  0  0  0  0  0  0  0  0  0
  161.2050  205.0180  154.0130 O   0  0  0  0  0  0  0  0  0  0  0  0
  160.4620  205.4210  151.3130 O   0  0  0  0  0  0  0  0  0  0  0  0
  161.2390  204.7240  150.3830 C   0  0  0  0  0  0  0  0  0  0  0  0
  161.6650  203.5780  150.6860 O   0  0  0  0  0  0  0  0  0  0  0  0
  161.6350  205.3510  149.0760 C   0  0  0  0  0  2  0  0  0  0  0  0
  160.8420  204.7740  147.9010 C   0  0  1  0  0  3  0  0  0  0  0  0
  161.4260  205.0020  146.5540 C   0  0  2  0  0  0  0  0  0  0  0  0
  161.6590  203.6340  147.2640 C   0  0  2  0  0  0  0  0  0  0  0  0
  160.5650  202.5660  147.4450 C   0  0  1  0  0  3  0  0  0  0  0  0
  162.6460  205.9140  146.4770 C   0  0  0  0  0  1  0  0  0  0  0  0
  161.2470  202.6540  146.1480 C   0  0  0  0  0  2  0  0  0  0  0  0
  160.3000  205.2530  145.5430 C   0  0  0  0  0  2  0  0  0  0  0  0
  161.5900  205.8240  143.5100 C   0  0  0  0  0  1  0  0  0  0  0  0
  160.6960  204.7870  144.1560 C   0  0  0  0  0  2  0  0  0  0  0  0
  161.1330  201.4070  148.2460 C   0  0  0  0  0  2  0  0  0  0  0  0
  160.8250  200.6550  150.4900 O   0  0  0  0  0  1  0  0  0  0  0  0
  160.1430  200.9740  149.3150 C   0  0  0  0  0  2  0  0  0  0  0  0
  2 18  1  6  0  0  0
  2  1  1  0  0  0  0
  2  8  1  0  0  0  0
  4  3  1  6  0  0  0
  4 28  1  0  0  0  0
  4  2  1  0  0  0  0
  4  1  1  0  0  0  0
  5  9  2  0  0  0  0
  7 10  1  0  0  0  0
  8  6  1  6  0  0  0
  8 15  1  0  0  0  0
  9 14  1  0  0  0  0
 11 13  1  0  0  0  0
 12  8  1  0  0  0  0
 12  5  1  0  0  0  0
 13 10  2  0  0  0  0
 14  7  2  0  0  0  0
 15 11  2  0  0  0  0
 15 14  1  0  0  0  0
 17 16  1  0  0  0  0
 17  5  1  0  0  0  0
 19 18  1  0  0  0  0
 20 19  1  0  0  0  0
 21 20  1  0  0  0  0
 23 26  1  0  0  0  0
 24 21  1  1  0  0  0
 25 22  1  0  0  0  0
 25 26  1  0  0  0  0
 25 24  1  0  0  0  0
 26 24  1  0  0  0  0
 27 25  1  0  0  0  0
 28 29  1  0  0  0  0
 29 30  1  0  0  0  0
 31 30  1  6  0  0  0
 31 33  1  0  0  0  0
 33 34  2  0  0  0  0
 33 32  1  0  0  0  0
 35 31  1  0  0  0  0
 36 37  2  0  0  0  0
 36 35  1  0  0  0  0
 38 36  1  0  0  0  0
 39 38  1  1  0  0  0
 40 43  1  6  0  0  0
 40 41  1  0  0  0  0
 40 39  1  0  0  0  0
 41 44  1  1  0  0  0
 41 42  1  0  0  0  0
 41 39  1  0  0  0  0
 42 48  1  1  0  0  0
 44 42  1  0  0  0  0
 45 40  1  0  0  0  0
 46 47  1  0  0  0  0
 47 45  1  0  0  0  0
 48 50  1  0  0  0  0
 50 49  1  0  0  0  0
M  END
>  <MODEL>
6

>  <REMARK>
 VINA RESULT:      -3.4      3.113      9.789
  Name = 
  20 active torsions:
  status: ('A' for Active; 'I' for Inactive)
    1  A    between atoms: C_1  and  C_41
    2  A    between atoms: C_2  and  O_20
    3  A    between atoms: C_2  and  C_41
    4  A    between atoms: C_3  and  O_36
    5  A    between atoms: C_4  and  C_21
    6  A    between atoms: C_4  and  C_37
    7  A    between atoms: C_5  and  C_24
    8  A    between atoms: C_11  and  C_25
    9  A    between atoms: C_14  and  C_26
   10  A    between atoms: C_14  and  C_46
   11  A    between atoms: C_18  and  C_23
   12  A    between atoms: C_18  and  C_32
   13  A    between atoms: C_19  and  C_23
   14  A    between atoms: C_19  and  C_44
   15  A    between atoms: O_20  and  C_26
   16  A    between atoms: C_24  and  C_27
   17  A    between atoms: C_25  and  C_44
   18  A    between atoms: C_26  and  C_29
   19  A    between atoms: C_30  and  C_34
   20  A    between atoms: C_30  and  C_46
                            x       y       z     vdW  Elec       q    Type
                         _______ _______ _______ _____ _____    ______ ____

>  <TORSDO>
F 20

$$$$
=
 OpenBabel11072410423D

 50 55  0  0  1  0  0  0  0  0999 V2000
  160.3600  207.1970  150.0500 O   0  0  0  0  0  0  0  0  0  0  0  0
  161.6270  206.5660  150.0080 C   0  0  1  0  0  0  0  0  0  0  0  0
  161.0810  207.7920  147.9360 O   0  0  0  0  0  1  0  0  0  0  0  0
  161.3540  207.8600  149.3050 C   0  0  1  0  0  0  0  0  0  0  0  0
  161.2270  204.7370  152.6870 C   0  0  0  0  0  0  0  0  0  0  0  0
  163.7420  206.9440  151.1120 O   0  0  0  0  0  1  0  0  0  0  0  0
  160.2160  207.8890  154.1840 C   0  0  0  0  0  3  0  0  0  0  0  0
  162.4200  206.5660  151.3610 C   0  0  2  0  0  0  0  0  0  0  0  0
  160.5150  205.6270  153.3100 N   0  0  0  0  0  0  0  0  0  0  0  0
  160.5620  209.2400  154.2060 C   0  0  0  0  0  3  0  0  0  0  0  0
  162.1490  208.8680  152.4240 C   0  0  0  0  0  3  0  0  0  0  0  0
  162.4860  205.1430  151.9550 C   0  0  0  0  0  2  0  0  0  0  0  0
  161.5320  209.7280  153.3320 C   0  0  0  0  0  3  0  0  0  0  0  0
  160.8390  207.0200  153.2870 C   0  0  0  0  0  0  0  0  0  0  0  0
  161.8100  207.5070  152.3890 C   0  0  0  0  0  0  0  0  0  0  0  0
  161.2430  202.4450  151.7740 C   0  0  0  0  0  1  0  0  0  0  0  0
  160.8320  203.4000  152.7400 O   0  0  0  0  0  0  0  0  0  0  0  0
  161.6440  205.3320  149.0950 C   0  0  0  0  0  2  0  0  0  0  0  0
  160.5130  204.3760  149.4260 C   0  0  0  0  0  2  0  0  0  0  0  0
  160.4530  203.2980  148.3660 C   0  0  0  0  0  2  0  0  0  0  0  0
  161.6030  203.4510  147.3880 C   0  0  0  0  0  2  0  0  0  0  0  0
  163.4540  205.0720  145.9160 C   0  0  0  0  0  1  0  0  0  0  0  0
  159.8250  205.8160  145.3220 C   0  0  0  0  0  1  0  0  0  0  0  0
  161.1030  203.9860  146.0480 C   0  0  2  0  0  3  0  0  0  0  0  0
  162.0730  204.8220  145.3260 C   0  0  0  0  0  0  0  0  0  0  0  0
  160.9910  205.4610  146.1220 N   0  0  0  0  0  0  0  0  0  0  0  0
  161.9390  204.8470  143.8040 C   0  0  0  0  0  1  0  0  0  0  0  0
  161.6600  209.2330  149.9090 C   0  0  0  0  0  2  0  0  0  0  0  0
  161.9590  210.2860  148.8420 C   0  0  0  0  0  2  0  0  0  0  0  0
  162.1140  211.6700  149.4560 C   0  0  0  0  0  2  0  0  0  0  0  0
  160.8000  212.4350  149.4210 C   0  0  2  0  0  3  0  0  0  0  0  0
  161.7970  213.5260  147.5550 O   0  0  0  0  0  0  0  0  0  0  0  0
  160.8220  213.4730  148.3480 C   0  0  0  0  0  0  0  0  0  0  0  0
  159.7790  214.3830  148.2330 O   0  0  0  0  0  1  0  0  0  0  0  0
  160.5780  213.0420  150.6900 O   0  0  0  0  0  0  0  0  0  0  0  0
  159.3610  212.9630  151.3720 C   0  0  0  0  0  0  0  0  0  0  0  0
  158.3230  213.4080  150.8140 O   0  0  0  0  0  0  0  0  0  0  0  0
  159.2910  212.4360  152.7780 C   0  0  0  0  0  2  0  0  0  0  0  0
  158.5380  213.3880  153.7090 C   0  0  1  0  0  3  0  0  0  0  0  0
  157.2370  212.8910  154.2260 C   0  0  2  0  0  0  0  0  0  0  0  0
  158.5070  212.7790  155.1230 C   0  0  2  0  0  0  0  0  0  0  0  0
  159.1830  213.9810  155.8040 C   0  0  1  0  0  3  0  0  0  0  0  0
  156.7240  211.5750  153.6510 C   0  0  0  0  0  1  0  0  0  0  0  0
  157.9910  213.4010  156.4350 C   0  0  0  0  0  2  0  0  0  0  0  0
  156.2400  214.0540  154.3080 C   0  0  0  0  0  2  0  0  0  0  0  0
  155.2730  214.2860  152.0420 C   0  0  0  0  0  1  0  0  0  0  0  0
  155.0190  213.7900  153.4500 C   0  0  0  0  0  2  0  0  0  0  0  0
  160.4310  213.5040  156.5270 C   0  0  0  0  0  2  0  0  0  0  0  0
  160.6960  211.2480  157.2610 O   0  0  0  0  0  1  0  0  0  0  0  0
  160.7490  212.0710  156.1340 C   0  0  0  0  0  2  0  0  0  0  0  0
  2 18  1  6  0  0  0
  2  1  1  0  0  0  0
  2  8  1  0  0  0  0
  4  3  1  6  0  0  0
  4 28  1  0  0  0  0
  4  2  1  0  0  0  0
  4  1  1  0  0  0  0
  5 17  1  0  0  0  0
  5  9  2  0  0  0  0
  7 10  1  0  0  0  0
  8  6  1  6  0  0  0
  8 12  1  0  0  0  0
  8 15  1  0  0  0  0
 11 13  1  0  0  0  0
 12  5  1  0  0  0  0
 13 10  2  0  0  0  0
 14  9  1  0  0  0  0
 14  7  2  0  0  0  0
 15 11  2  0  0  0  0
 15 14  1  0  0  0  0
 16 17  1  0  0  0  0
 18 19  1  0  0  0  0
 20 19  1  0  0  0  0
 21 20  1  0  0  0  0
 23 26  1  0  0  0  0
 24 26  1  0  0  0  0
 24 21  1  1  0  0  0
 25 22  1  0  0  0  0
 25 24  1  0  0  0  0
 25 26  1  0  0  0  0
 27 25  1  0  0  0  0
 29 30  1  0  0  0  0
 29 28  1  0  0  0  0
 31 30  1  1  0  0  0
 31 35  1  0  0  0  0
 32 33  2  0  0  0  0
 33 31  1  0  0  0  0
 34 33  1  0  0  0  0
 35 36  1  0  0  0  0
 36 38  1  0  0  0  0
 37 36  2  0  0  0  0
 39 38  1  6  0  0  0
 39 40  1  0  0  0  0
 39 41  1  0  0  0  0
 40 43  1  6  0  0  0
 40 45  1  0  0  0  0
 40 41  1  0  0  0  0
 41 42  1  0  0  0  0
 41 44  1  1  0  0  0
 42 44  1  0  0  0  0
 42 48  1  1  0  0  0
 46 47  1  0  0  0  0
 47 45  1  0  0  0  0
 50 48  1  0  0  0  0
 50 49  1  0  0  0  0
M  END
>  <MODEL>
7

>  <REMARK>
 VINA RESULT:      -3.3      2.744      5.682
  Name = 
  20 active torsions:
  status: ('A' for Active; 'I' for Inactive)
    1  A    between atoms: C_1  and  C_41
    2  A    between atoms: C_2  and  O_20
    3  A    between atoms: C_2  and  C_41
    4  A    between atoms: C_3  and  O_36
    5  A    between atoms: C_4  and  C_21
    6  A    between atoms: C_4  and  C_37
    7  A    between atoms: C_5  and  C_24
    8  A    between atoms: C_11  and  C_25
    9  A    between atoms: C_14  and  C_26
   10  A    between atoms: C_14  and  C_46
   11  A    between atoms: C_18  and  C_23
   12  A    between atoms: C_18  and  C_32
   13  A    between atoms: C_19  and  C_23
   14  A    between atoms: C_19  and  C_44
   15  A    between atoms: O_20  and  C_26
   16  A    between atoms: C_24  and  C_27
   17  A    between atoms: C_25  and  C_44
   18  A    between atoms: C_26  and  C_29
   19  A    between atoms: C_30  and  C_34
   20  A    between atoms: C_30  and  C_46
                            x       y       z     vdW  Elec       q    Type
                         _______ _______ _______ _____ _____    ______ ____

>  <TORSDO>
F 20

$$$$
=
 OpenBabel11072410423D

 50 55  0  0  1  0  0  0  0  0999 V2000
  160.0890  205.9020  147.3690 O   0  0  0  0  0  0  0  0  0  0  0  0
  161.0010  205.4090  146.4050 C   0  0  1  0  0  0  0  0  0  0  0  0
  160.6740  207.8530  146.2750 O   0  0  0  0  0  1  0  0  0  0  0  0
  161.1450  206.7670  147.0210 C   0  0  1  0  0  0  0  0  0  0  0  0
  160.7950  202.1990  145.8300 C   0  0  0  0  0  0  0  0  0  0  0  0
  163.2220  204.7090  147.0460 O   0  0  0  0  0  1  0  0  0  0  0  0
  160.0360  202.0320  149.3790 C   0  0  0  0  0  3  0  0  0  0  0  0
  161.9180  204.2330  146.8910 C   0  0  2  0  0  0  0  0  0  0  0  0
  160.1750  201.9370  146.9420 N   0  0  0  0  0  0  0  0  0  0  0  0
  160.4280  202.5830  150.6000 C   0  0  0  0  0  3  0  0  0  0  0  0
  161.8270  204.1740  149.4380 C   0  0  0  0  0  3  0  0  0  0  0  0
  161.9920  203.1210  145.8230 C   0  0  0  0  0  2  0  0  0  0  0  0
  161.3280  203.6470  150.6300 C   0  0  0  0  0  3  0  0  0  0  0  0
  160.5430  202.5450  148.1840 C   0  0  0  0  0  0  0  0  0  0  0  0
  161.4410  203.6310  148.2030 C   0  0  0  0  0  0  0  0  0  0  0  0
  159.7930  200.2810  144.6450 C   0  0  0  0  0  1  0  0  0  0  0  0
  160.3620  201.5810  144.6560 O   0  0  0  0  0  0  0  0  0  0  0  0
  160.4180  205.4070  144.9850 C   0  0  0  0  0  2  0  0  0  0  0  0
  161.5110  205.4050  143.9320 C   0  0  0  0  0  2  0  0  0  0  0  0
  161.3080  206.5870  143.0090 C   0  0  0  0  0  2  0  0  0  0  0  0
  161.9410  206.3180  141.6570 C   0  0  0  0  0  2  0  0  0  0  0  0
  162.7010  205.8360  138.9350 C   0  0  0  0  0  1  0  0  0  0  0  0
  162.4260  209.4440  139.9220 C   0  0  0  0  0  1  0  0  0  0  0  0
  161.5430  207.3960  140.6520 C   0  0  2  0  0  3  0  0  0  0  0  0
  161.9580  207.1220  139.2690 C   0  0  0  0  0  0  0  0  0  0  0  0
  162.7640  208.0400  140.1170 N   0  0  0  0  0  0  0  0  0  0  0  0
  161.0990  207.7470  138.1700 C   0  0  0  0  0  1  0  0  0  0  0  0
  162.0320  207.0590  148.2330 C   0  0  0  0  0  2  0  0  0  0  0  0
  161.2230  207.2500  149.5160 C   0  0  0  0  0  2  0  0  0  0  0  0
  161.6010  208.5430  150.2220 C   0  0  0  0  0  2  0  0  0  0  0  0
  162.3780  208.2630  151.5000 C   0  0  2  0  0  3  0  0  0  0  0  0
  160.6400  206.8600  152.3230 O   0  0  0  0  0  0  0  0  0  0  0  0
  161.8770  207.0220  152.1610 C   0  0  0  0  0  0  0  0  0  0  0  0
  162.7710  206.0580  152.6080 O   0  0  0  0  0  1  0  0  0  0  0  0
  162.2500  209.3760  152.3780 O   0  0  0  0  0  0  0  0  0  0  0  0
  161.1610  210.2520  152.3490 C   0  0  0  0  0  0  0  0  0  0  0  0
  161.1030  211.1180  151.4350 O   0  0  0  0  0  0  0  0  0  0  0  0
  160.1160  210.2270  153.4270 C   0  0  0  0  0  2  0  0  0  0  0  0
  160.3310  211.3370  154.4580 C   0  0  1  0  0  3  0  0  0  0  0  0
  159.1330  211.7320  155.2430 C   0  0  2  0  0  0  0  0  0  0  0  0
  160.1610  210.7430  155.8690 C   0  0  2  0  0  0  0  0  0  0  0  0
  161.5590  211.1590  156.3610 C   0  0  1  0  0  3  0  0  0  0  0  0
  157.8020  211.1130  154.8270 C   0  0  0  0  0  1  0  0  0  0  0  0
  160.4080  211.4090  157.2370 C   0  0  0  0  0  2  0  0  0  0  0  0
  159.1540  213.2460  155.4840 C   0  0  0  0  0  2  0  0  0  0  0  0
  158.0150  214.1800  153.4960 C   0  0  0  0  0  1  0  0  0  0  0  0
  157.8840  213.9000  154.9780 C   0  0  0  0  0  2  0  0  0  0  0  0
  162.3060  209.9240  156.8340 C   0  0  0  0  0  2  0  0  0  0  0  0
  161.2390  207.9720  155.9690 O   0  0  0  0  0  1  0  0  0  0  0  0
  161.3310  208.7900  157.0970 C   0  0  0  0  0  2  0  0  0  0  0  0
  2 18  1  6  0  0  0
  2  8  1  0  0  0  0
  2  4  1  0  0  0  0
  2  1  1  0  0  0  0
  4  3  1  6  0  0  0
  4  1  1  0  0  0  0
  4 28  1  0  0  0  0
  5  9  2  0  0  0  0
  7 10  1  0  0  0  0
  8  6  1  1  0  0  0
  8 15  1  0  0  0  0
  9 14  1  0  0  0  0
 10 13  2  0  0  0  0
 11 13  1  0  0  0  0
 12  5  1  0  0  0  0
 12  8  1  0  0  0  0
 14 15  1  0  0  0  0
 14  7  2  0  0  0  0
 15 11  2  0  0  0  0
 16 17  1  0  0  0  0
 17  5  1  0  0  0  0
 19 18  1  0  0  0  0
 20 19  1  0  0  0  0
 21 20  1  0  0  0  0
 22 25  1  0  0  0  0
 23 26  1  0  0  0  0
 24 21  1  1  0  0  0
 25 26  1  0  0  0  0
 25 24  1  0  0  0  0
 26 24  1  0  0  0  0
 27 25  1  0  0  0  0
 28 29  1  0  0  0  0
 29 30  1  0  0  0  0
 31 30  1  6  0  0  0
 31 33  1  0  0  0  0
 31 35  1  0  0  0  0
 33 32  2  0  0  0  0
 33 34  1  0  0  0  0
 36 35  1  0  0  0  0
 36 38  1  0  0  0  0
 37 36  2  0  0  0  0
 39 38  1  6  0  0  0
 39 40  1  0  0  0  0
 39 41  1  0  0  0  0
 40 43  1  6  0  0  0
 40 45  1  0  0  0  0
 40 41  1  0  0  0  0
 41 42  1  0  0  0  0
 41 44  1  1  0  0  0
 42 48  1  1  0  0  0
 42 44  1  0  0  0  0
 46 47  1  0  0  0  0
 47 45  1  0  0  0  0
 48 50  1  0  0  0  0
 49 50  1  0  0  0  0
M  END
>  <MODEL>
8

>  <REMARK>
 VINA RESULT:      -3.2      1.332      2.705
  Name = 
  20 active torsions:
  status: ('A' for Active; 'I' for Inactive)
    1  A    between atoms: C_1  and  C_41
    2  A    between atoms: C_2  and  O_20
    3  A    between atoms: C_2  and  C_41
    4  A    between atoms: C_3  and  O_36
    5  A    between atoms: C_4  and  C_21
    6  A    between atoms: C_4  and  C_37
    7  A    between atoms: C_5  and  C_24
    8  A    between atoms: C_11  and  C_25
    9  A    between atoms: C_14  and  C_26
   10  A    between atoms: C_14  and  C_46
   11  A    between atoms: C_18  and  C_23
   12  A    between atoms: C_18  and  C_32
   13  A    between atoms: C_19  and  C_23
   14  A    between atoms: C_19  and  C_44
   15  A    between atoms: O_20  and  C_26
   16  A    between atoms: C_24  and  C_27
   17  A    between atoms: C_25  and  C_44
   18  A    between atoms: C_26  and  C_29
   19  A    between atoms: C_30  and  C_34
   20  A    between atoms: C_30  and  C_46
                            x       y       z     vdW  Elec       q    Type
                         _______ _______ _______ _____ _____    ______ ____

>  <TORSDO>
F 20

$$$$
=
 OpenBabel11072410423D

 50 55  0  0  1  0  0  0  0  0999 V2000
  162.4830  209.1990  151.5200 O   0  0  0  0  0  0  0  0  0  0  0  0
  161.3760  210.0770  151.6020 C   0  0  1  0  0  0  0  0  0  0  0  0
  162.1010  209.6360  149.2830 O   0  0  0  0  0  1  0  0  0  0  0  0
  161.5560  209.1200  150.4630 C   0  0  1  0  0  0  0  0  0  0  0  0
  158.9570  211.8930  152.8380 C   0  0  0  0  0  0  0  0  0  0  0  0
  160.0950  208.3770  152.7420 O   0  0  0  0  0  1  0  0  0  0  0  0
  161.0410  211.9030  155.8140 C   0  0  0  0  0  3  0  0  0  0  0  0
  160.3450  209.7510  152.7370 C   0  0  2  0  0  0  0  0  0  0  0  0
  159.6580  212.3220  153.8450 N   0  0  0  0  0  0  0  0  0  0  0  0
  161.8500  211.0580  156.5740 C   0  0  0  0  0  3  0  0  0  0  0  0
  161.6540  209.3410  154.8870 C   0  0  0  0  0  3  0  0  0  0  0  0
  158.9880  210.4320  152.4550 C   0  0  0  0  0  2  0  0  0  0  0  0
  162.1500  209.7770  156.1150 C   0  0  0  0  0  3  0  0  0  0  0  0
  160.5300  211.4670  154.5900 C   0  0  0  0  0  0  0  0  0  0  0  0
  160.8400  210.1800  154.1100 C   0  0  0  0  0  0  0  0  0  0  0  0
  157.7120  214.0200  152.7190 C   0  0  0  0  0  1  0  0  0  0  0  0
  158.1450  212.7950  152.1480 O   0  0  0  0  0  0  0  0  0  0  0  0
  161.7500  211.5310  151.2820 C   0  0  0  0  0  2  0  0  0  0  0  0
  161.0130  212.0410  150.0570 C   0  0  0  0  0  2  0  0  0  0  0  0
  160.8150  213.5350  150.1880 C   0  0  0  0  0  2  0  0  0  0  0  0
  160.0280  214.0710  149.0070 C   0  0  0  0  0  2  0  0  0  0  0  0
  158.9480  213.0340  146.5630 C   0  0  0  0  0  1  0  0  0  0  0  0
  162.6890  212.9760  146.8310 C   0  0  0  0  0  1  0  0  0  0  0  0
  160.9220  214.1970  147.7760 C   0  0  2  0  0  3  0  0  0  0  0  0
  160.3420  213.6450  146.5430 C   0  0  0  0  0  0  0  0  0  0  0  0
  161.3230  212.8460  147.3240 N   0  0  0  0  0  0  0  0  0  0  0  0
  160.8220  214.2700  145.2340 C   0  0  0  0  0  1  0  0  0  0  0  0
  160.9080  207.7350  150.4100 C   0  0  0  0  0  2  0  0  0  0  0  0
  161.9170  206.6090  150.6350 C   0  0  0  0  0  2  0  0  0  0  0  0
  161.2520  205.2430  150.5490 C   0  0  0  0  0  2  0  0  0  0  0  0
  160.9120  204.7100  151.9320 C   0  0  2  0  0  3  0  0  0  0  0  0
  161.0560  205.8050  154.0410 O   0  0  0  0  0  1  0  0  0  0  0  0
  161.6520  205.4670  152.9860 C   0  0  0  0  0  0  0  0  0  0  0  0
  162.9840  205.8080  152.7970 O   0  0  0  0  0  0  0  0  0  0  0  0
  161.2430  203.3270  151.9940 O   0  0  0  0  0  0  0  0  0  0  0  0
  161.1190  202.4620  150.9030 C   0  0  0  0  0  0  0  0  0  0  0  0
  161.6030  201.3020  150.9900 O   0  0  0  0  0  0  0  0  0  0  0  0
  160.4970  202.9210  149.6150 C   0  0  0  0  0  2  0  0  0  0  0  0
  161.3630  202.5690  148.4040 C   0  0  1  0  0  3  0  0  0  0  0  0
  160.6790  201.8270  147.3140 C   0  0  2  0  0  0  0  0  0  0  0  0
  160.8630  203.3690  147.1860 C   0  0  2  0  0  0  0  0  0  0  0  0
  162.2140  204.0500  146.9070 C   0  0  1  0  0  3  0  0  0  0  0  0
  159.2530  201.3590  147.5880 C   0  0  0  0  0  1  0  0  0  0  0  0
  161.4770  203.4720  145.7760 C   0  0  0  0  0  2  0  0  0  0  0  0
  161.6460  200.8020  146.7060 C   0  0  0  0  0  2  0  0  0  0  0  0
  161.6010  198.6860  145.4240 C   0  0  0  0  0  1  0  0  0  0  0  0
  160.9960  199.4380  146.5910 C   0  0  0  0  0  2  0  0  0  0  0  0
  162.0240  205.5560  146.9270 C   0  0  0  0  0  2  0  0  0  0  0  0
  160.4010  206.3580  145.3720 O   0  0  0  0  0  1  0  0  0  0  0  0
  160.5650  205.9040  146.6820 C   0  0  0  0  0  2  0  0  0  0  0  0
  1  2  1  0  0  0  0
  2 18  1  6  0  0  0
  2  8  1  0  0  0  0
  4  3  1  6  0  0  0
  4  1  1  0  0  0  0
  4  2  1  0  0  0  0
  5  9  2  0  0  0  0
  7 10  1  0  0  0  0
  8  6  1  1  0  0  0
  8 15  1  0  0  0  0
  9 14  1  0  0  0  0
 11 13  1  0  0  0  0
 12  8  1  0  0  0  0
 12  5  1  0  0  0  0
 13 10  2  0  0  0  0
 14  7  2  0  0  0  0
 15 14  1  0  0  0  0
 15 11  2  0  0  0  0
 17 16  1  0  0  0  0
 17  5  1  0  0  0  0
 19 20  1  0  0  0  0
 19 18  1  0  0  0  0
 21 20  1  0  0  0  0
 23 26  1  0  0  0  0
 24 21  1  1  0  0  0
 25 22  1  0  0  0  0
 25 26  1  0  0  0  0
 25 24  1  0  0  0  0
 26 24  1  0  0  0  0
 27 25  1  0  0  0  0
 28  4  1  0  0  0  0
 28 29  1  0  0  0  0
 30 29  1  0  0  0  0
 31 30  1  6  0  0  0
 31 35  1  0  0  0  0
 31 33  1  0  0  0  0
 33 32  1  0  0  0  0
 34 33  2  0  0  0  0
 36 37  2  0  0  0  0
 36 35  1  0  0  0  0
 38 36  1  0  0  0  0
 39 38  1  1  0  0  0
 40 43  1  1  0  0  0
 40 39  1  0  0  0  0
 41 44  1  1  0  0  0
 41 40  1  0  0  0  0
 41 39  1  0  0  0  0
 42 48  1  6  0  0  0
 42 41  1  0  0  0  0
 44 42  1  0  0  0  0
 45 40  1  0  0  0  0
 46 47  1  0  0  0  0
 47 45  1  0  0  0  0
 49 50  1  0  0  0  0
 50 48  1  0  0  0  0
M  END
>  <MODEL>
9

>  <REMARK>
 VINA RESULT:      -3.0      3.616      9.670
  Name = 
  20 active torsions:
  status: ('A' for Active; 'I' for Inactive)
    1  A    between atoms: C_1  and  C_41
    2  A    between atoms: C_2  and  O_20
    3  A    between atoms: C_2  and  C_41
    4  A    between atoms: C_3  and  O_36
    5  A    between atoms: C_4  and  C_21
    6  A    between atoms: C_4  and  C_37
    7  A    between atoms: C_5  and  C_24
    8  A    between atoms: C_11  and  C_25
    9  A    between atoms: C_14  and  C_26
   10  A    between atoms: C_14  and  C_46
   11  A    between atoms: C_18  and  C_23
   12  A    between atoms: C_18  and  C_32
   13  A    between atoms: C_19  and  C_23
   14  A    between atoms: C_19  and  C_44
   15  A    between atoms: O_20  and  C_26
   16  A    between atoms: C_24  and  C_27
   17  A    between atoms: C_25  and  C_44
   18  A    between atoms: C_26  and  C_29
   19  A    between atoms: C_30  and  C_34
   20  A    between atoms: C_30  and  C_46
                            x       y       z     vdW  Elec       q    Type
                         _______ _______ _______ _____ _____    ______ ____

>  <TORSDO>
F 20

$$$$
