=
 OpenBabel11072412263D

 33 37  0  0  1  0  0  0  0  0999 V2000
  158.3870  213.8870  152.2940 O   0  0  0  0  0  0  0  0  0  0  0  0
  160.7160  207.1580  155.3460 O   0  0  0  0  0  0  0  0  0  0  0  0
  161.9090  211.3230  149.7390 O   0  0  0  0  0  0  0  0  0  0  0  0
  161.5750  209.1010  147.9940 O   0  0  0  0  0  0  0  0  0  0  0  0
  161.6550  210.6990  152.0750 C   0  0  2  0  0  3  0  0  0  0  0  0
  159.1890  211.4800  152.2060 C   0  0  1  0  0  3  0  0  0  0  0  0
  160.9600  207.5350  154.2120 C   0  0  0  0  0  0  0  0  0  0  0  0
  161.7880  208.3120  151.5790 C   0  0  1  0  0  3  0  0  0  0  0  0
  159.6160  210.3950  154.4360 C   0  0  1  0  0  3  0  0  0  0  0  0
  158.4180  212.6470  151.6520 C   0  0  0  0  0  0  0  0  0  0  0  0
  160.6610  211.8440  152.3910 C   0  0  1  0  0  3  0  0  0  0  0  0
  161.7720  210.4270  150.6140 C   0  0  0  0  0  0  0  0  0  0  0  0
  159.2660  214.2000  153.3660 C   0  0  0  0  0  2  0  0  0  0  0  0
  160.8160  207.1460  151.6490 C   0  0  0  0  0  2  0  0  0  0  0  0
  161.7940  209.0300  150.3130 N   0  0  0  0  0  0  0  0  0  0  0  0
  157.7500  212.4840  150.5980 O   0  0  0  0  0  0  0  0  0  0  0  0
  159.7370  211.7030  153.6230 C   0  0  1  0  0  0  0  0  0  0  0  0
  161.4960  208.9390  153.9880 C   0  0  1  0  0  3  0  0  0  0  0  0
  161.2410  209.3230  152.5470 C   0  0  1  0  0  3  0  0  0  0  0  0
  160.8350  206.5310  153.0680 C   0  0  0  0  0  2  0  0  0  0  0  0
  161.9870  208.4690  149.0020 C   0  0  0  0  0  0  0  0  0  0  0  0
  160.9170  209.9160  154.9230 N   0  0  0  0  0  2  0  0  0  0  0  0
  159.3530  213.0210  154.3250 C   0  0  0  0  0  2  0  0  0  0  0  0
  162.6130  207.2330  148.8010 O   0  0  0  0  0  0  0  0  0  0  0  0
  161.1160  205.4240  148.3290 C   0  0  0  0  0  1  0  0  0  0  0  0
  162.2180  206.3120  147.7940 C   0  0  0  0  0  2  0  0  0  0  0  0
  158.6060  210.4720  155.5020 N   0  0  0  0  0  0  0  0  0  0  0  0
  157.8530  211.6480  155.3470 N   0  0  0  0  0  2  0  0  0  0  0  0
  156.5020  211.2490  154.9900 C   0  0  0  0  0  2  0  0  0  0  0  0
  155.6950  212.4740  154.6160 C   0  0  0  0  0  1  0  0  0  0  0  0
  159.3130  210.5740  156.7720 C   0  0  0  0  0  2  0  0  0  0  0  0
  160.5750  212.5350  157.2060 F   0  0  0  0  0  0  0  0  0  0  0  0
  159.2970  212.0110  157.2600 C   0  0  0  0  0  2  0  0  0  0  0  0
  1 13  1  0  0  0  0
  3 12  2  0  0  0  0
  4 21  2  0  0  0  0
  5 12  1  6  0  0  0
  5 11  1  0  0  0  0
  5 19  1  0  0  0  0
  6 10  1  6  0  0  0
  6 11  1  0  0  0  0
  6 17  1  0  0  0  0
  7  2  2  0  0  0  0
  8 14  1  6  0  0  0
  8 19  1  0  0  0  0
  9 22  1  0  0  0  0
  9 27  1  1  0  0  0
 10  1  1  0  0  0  0
 11 17  1  0  0  0  0
 13 23  1  0  0  0  0
 14 20  1  0  0  0  0
 15 12  1  0  0  0  0
 15  8  1  0  0  0  0
 16 10  2  0  0  0  0
 17 23  1  0  0  0  0
 17  9  1  0  0  0  0
 18  7  1  0  0  0  0
 18 22  1  0  0  0  0
 19 18  1  0  0  0  0
 20  7  1  0  0  0  0
 21 15  1  0  0  0  0
 24 21  1  0  0  0  0
 26 25  1  0  0  0  0
 26 24  1  0  0  0  0
 27 31  1  0  0  0  0
 28 27  1  0  0  0  0
 29 28  1  0  0  0  0
 30 29  1  0  0  0  0
 31 33  1  0  0  0  0
 32 33  1  0  0  0  0
M  END
>  <MODEL>
1

>  <REMARK>
 VINA RESULT:      -5.1      0.000      0.000
  Name = 
  7 active torsions:
  status: ('A' for Active; 'I' for Inactive)
    1  A    between atoms: N_1  and  C_8
    2  A    between atoms: N_1  and  N_29
    3  A    between atoms: C_11  and  C_12
    4  A    between atoms: C_11  and  N_29
    5  A    between atoms: C_15  and  N_29
    6  A    between atoms: O_24  and  C_30
    7  A    between atoms: O_24  and  C_31
                            x       y       z     vdW  Elec       q    Type
                         _______ _______ _______ _____ _____    ______ ____

>  <TORSDO>
F 7

$$$$
=
 OpenBabel11072412263D

 33 37  0  0  1  0  0  0  0  0999 V2000
  158.3320  213.7920  151.5340 O   0  0  0  0  0  0  0  0  0  0  0  0
  159.9840  208.6070  157.0480 O   0  0  0  0  0  0  0  0  0  0  0  0
  161.8750  210.3610  150.4480 O   0  0  0  0  0  0  0  0  0  0  0  0
  161.5400  207.6610  149.6150 O   0  0  0  0  0  0  0  0  0  0  0  0
  161.3990  210.6550  152.8140 C   0  0  2  0  0  3  0  0  0  0  0  0
  158.9850  211.5010  152.4120 C   0  0  1  0  0  3  0  0  0  0  0  0
  160.3400  208.5290  155.8840 C   0  0  0  0  0  0  0  0  0  0  0  0
  161.4200  208.2510  153.2420 C   0  0  1  0  0  3  0  0  0  0  0  0
  159.1660  211.3070  154.9140 C   0  0  1  0  0  3  0  0  0  0  0  0
  158.3360  212.4020  151.3970 C   0  0  0  0  0  0  0  0  0  0  0  0
  160.4580  211.8630  152.5910 C   0  0  1  0  0  3  0  0  0  0  0  0
  161.6140  209.8570  151.5730 C   0  0  0  0  0  0  0  0  0  0  0  0
  159.1420  214.4530  152.4970 C   0  0  0  0  0  2  0  0  0  0  0  0
  160.3740  207.2230  153.6410 C   0  0  0  0  0  2  0  0  0  0  0  0
  161.5710  208.4480  151.8080 N   0  0  0  0  0  0  0  0  0  0  0  0
  157.7430  211.8810  150.4170 O   0  0  0  0  0  0  0  0  0  0  0  0
  159.4330  212.2170  153.6940 C   0  0  1  0  0  0  0  0  0  0  0  0
  160.9800  209.7340  155.2140 C   0  0  1  0  0  3  0  0  0  0  0  0
  160.8640  209.5640  153.7150 C   0  0  1  0  0  3  0  0  0  0  0  0
  160.2420  207.1770  155.1800 C   0  0  0  0  0  2  0  0  0  0  0  0
  161.8310  207.4350  150.8190 C   0  0  0  0  0  0  0  0  0  0  0  0
  160.3920  211.0050  155.6660 N   0  0  0  0  0  2  0  0  0  0  0  0
  159.0790  213.7120  153.8240 C   0  0  0  0  0  2  0  0  0  0  0  0
  162.3920  206.1960  151.1460 O   0  0  0  0  0  0  0  0  0  0  0  0
  161.1000  204.5050  150.0450 C   0  0  0  0  0  1  0  0  0  0  0  0
  161.6190  205.0240  151.3680 C   0  0  0  0  0  2  0  0  0  0  0  0
  158.0820  211.8040  155.7750 N   0  0  0  0  0  0  0  0  0  0  0  0
  158.5900  212.0730  157.0570 N   0  0  0  0  0  2  0  0  0  0  0  0
  158.5020  213.5100  157.2590 C   0  0  0  0  0  2  0  0  0  0  0  0
  157.1920  214.0200  156.6980 C   0  0  0  0  0  1  0  0  0  0  0  0
  157.1040  210.7320  155.9130 C   0  0  0  0  0  2  0  0  0  0  0  0
  156.1420  212.0810  154.2140 F   0  0  0  0  0  0  0  0  0  0  0  0
  155.8670  211.0510  155.0940 C   0  0  0  0  0  2  0  0  0  0  0  0
  1 13  1  0  0  0  0
  3 12  2  0  0  0  0
  4 21  2  0  0  0  0
  5 12  1  6  0  0  0
  5 19  1  0  0  0  0
  6 10  1  6  0  0  0
  6 11  1  0  0  0  0
  6 17  1  0  0  0  0
  7  2  2  0  0  0  0
  8 14  1  6  0  0  0
  8 19  1  0  0  0  0
  9 22  1  0  0  0  0
  9 27  1  1  0  0  0
 10  1  1  0  0  0  0
 11  5  1  0  0  0  0
 11 17  1  0  0  0  0
 12 15  1  0  0  0  0
 13 23  1  0  0  0  0
 14 20  1  0  0  0  0
 15  8  1  0  0  0  0
 16 10  2  0  0  0  0
 17 23  1  0  0  0  0
 17  9  1  0  0  0  0
 18 22  1  0  0  0  0
 18  7  1  0  0  0  0
 19 18  1  0  0  0  0
 20  7  1  0  0  0  0
 21 24  1  0  0  0  0
 21 15  1  0  0  0  0
 24 26  1  0  0  0  0
 25 26  1  0  0  0  0
 27 31  1  0  0  0  0
 27 28  1  0  0  0  0
 28 29  1  0  0  0  0
 30 29  1  0  0  0  0
 32 33  1  0  0  0  0
 33 31  1  0  0  0  0
M  END
>  <MODEL>
2

>  <REMARK>
 VINA RESULT:      -5.0      1.683      2.157
  Name = 
  7 active torsions:
  status: ('A' for Active; 'I' for Inactive)
    1  A    between atoms: N_1  and  C_8
    2  A    between atoms: N_1  and  N_29
    3  A    between atoms: C_11  and  C_12
    4  A    between atoms: C_11  and  N_29
    5  A    between atoms: C_15  and  N_29
    6  A    between atoms: O_24  and  C_30
    7  A    between atoms: O_24  and  C_31
                            x       y       z     vdW  Elec       q    Type
                         _______ _______ _______ _____ _____    ______ ____

>  <TORSDO>
F 7

$$$$
=
 OpenBabel11072412263D

 33 37  0  0  1  0  0  0  0  0999 V2000
  162.1340  204.2300  144.9260 O   0  0  0  0  0  0  0  0  0  0  0  0
  160.8290  202.9410  152.4530 O   0  0  0  0  0  0  0  0  0  0  0  0
  161.0580  208.2580  147.7750 O   0  0  0  0  0  0  0  0  0  0  0  0
  162.7800  209.7270  149.5010 O   0  0  0  0  0  0  0  0  0  0  0  0
  160.4250  206.1120  148.7240 C   0  0  2  0  0  3  0  0  0  0  0  0
  162.2160  204.7910  147.4000 C   0  0  1  0  0  3  0  0  0  0  0  0
  161.0130  204.0380  151.9510 C   0  0  0  0  0  0  0  0  0  0  0  0
  161.2480  206.7120  150.9430 C   0  0  1  0  0  3  0  0  0  0  0  0
  161.1920  203.0800  148.9360 C   0  0  1  0  0  3  0  0  0  0  0  0
  162.7630  204.8610  146.0010 C   0  0  0  0  0  0  0  0  0  0  0  0
  160.7820  205.3130  147.4460 C   0  0  1  0  0  3  0  0  0  0  0  0
  161.0550  207.4630  148.7520 C   0  0  0  0  0  0  0  0  0  0  0  0
  160.8230  203.6930  145.0340 C   0  0  0  0  0  2  0  0  0  0  0  0
  162.3870  206.2370  151.8300 C   0  0  0  0  0  2  0  0  0  0  0  0
  161.5880  207.7970  150.0350 N   0  0  0  0  0  0  0  0  0  0  0  0
  163.8440  205.4760  145.8040 O   0  0  0  0  0  0  0  0  0  0  0  0
  161.0580  203.7970  147.5740 C   0  0  1  0  0  0  0  0  0  0  0  0
  160.2380  204.4300  150.7040 C   0  0  1  0  0  3  0  0  0  0  0  0
  160.9780  205.5590  150.0180 C   0  0  1  0  0  3  0  0  0  0  0  0
  161.9270  205.0260  152.6730 C   0  0  0  0  0  2  0  0  0  0  0  0
  162.1740  209.0650  150.3830 C   0  0  0  0  0  0  0  0  0  0  0  0
  160.0210  203.2920  149.7970 N   0  0  0  0  0  2  0  0  0  0  0  0
  160.6770  202.9420  146.3490 C   0  0  0  0  0  2  0  0  0  0  0  0
  162.1040  209.5910  151.6780 O   0  0  0  0  0  0  0  0  0  0  0  0
  160.7470  209.2510  153.6230 C   0  0  0  0  0  1  0  0  0  0  0  0
  160.8860  209.9740  152.3000 C   0  0  0  0  0  2  0  0  0  0  0  0
  161.5510  201.6600  148.8060 N   0  0  0  0  0  0  0  0  0  0  0  0
  161.1900  201.2030  147.5270 N   0  0  0  0  0  2  0  0  0  0  0  0
  161.7170  199.8560  147.3880 C   0  0  0  0  0  2  0  0  0  0  0  0
  161.3900  199.3260  146.0080 C   0  0  0  0  0  1  0  0  0  0  0  0
  160.7550  200.9150  149.7720 C   0  0  0  0  0  2  0  0  0  0  0  0
  158.5410  200.2380  150.2930 F   0  0  0  0  0  0  0  0  0  0  0  0
  159.2870  200.9790  149.3950 C   0  0  0  0  0  2  0  0  0  0  0  0
  1 13  1  0  0  0  0
  1 10  1  0  0  0  0
  3 12  2  0  0  0  0
  4 21  2  0  0  0  0
  5 12  1  6  0  0  0
  5 19  1  0  0  0  0
  6 10  1  6  0  0  0
  6 11  1  0  0  0  0
  6 17  1  0  0  0  0
  7  2  2  0  0  0  0
  7 20  1  0  0  0  0
  8 14  1  1  0  0  0
  9 27  1  6  0  0  0
  9 22  1  0  0  0  0
 11 17  1  0  0  0  0
 11  5  1  0  0  0  0
 12 15  1  0  0  0  0
 13 23  1  0  0  0  0
 14 20  1  0  0  0  0
 15 21  1  0  0  0  0
 15  8  1  0  0  0  0
 16 10  2  0  0  0  0
 17  9  1  0  0  0  0
 18  7  1  0  0  0  0
 19 18  1  0  0  0  0
 19  8  1  0  0  0  0
 21 24  1  0  0  0  0
 22 18  1  0  0  0  0
 23 17  1  0  0  0  0
 24 26  1  0  0  0  0
 26 25  1  0  0  0  0
 27 31  1  0  0  0  0
 28 27  1  0  0  0  0
 29 28  1  0  0  0  0
 30 29  1  0  0  0  0
 33 31  1  0  0  0  0
 33 32  1  0  0  0  0
M  END
>  <MODEL>
3

>  <REMARK>
 VINA RESULT:      -4.6      4.399      9.111
  Name = 
  7 active torsions:
  status: ('A' for Active; 'I' for Inactive)
    1  A    between atoms: N_1  and  C_8
    2  A    between atoms: N_1  and  N_29
    3  A    between atoms: C_11  and  C_12
    4  A    between atoms: C_11  and  N_29
    5  A    between atoms: C_15  and  N_29
    6  A    between atoms: O_24  and  C_30
    7  A    between atoms: O_24  and  C_31
                            x       y       z     vdW  Elec       q    Type
                         _______ _______ _______ _____ _____    ______ ____

>  <TORSDO>
F 7

$$$$
=
 OpenBabel11072412263D

 33 37  0  0  1  0  0  0  0  0999 V2000
  160.1820  202.0980  150.0930 O   0  0  0  0  0  0  0  0  0  0  0  0
  162.4970  209.2690  148.2930 O   0  0  0  0  0  0  0  0  0  0  0  0
  161.4920  205.1020  153.9350 O   0  0  0  0  0  0  0  0  0  0  0  0
  159.9640  207.1450  155.1960 O   0  0  0  0  0  0  0  0  0  0  0  0
  162.3110  205.7860  151.7510 C   0  0  2  0  0  3  0  0  0  0  0  0
  160.4050  204.6000  150.4600 C   0  0  1  0  0  3  0  0  0  0  0  0
  162.2150  208.8840  149.4160 C   0  0  0  0  0  0  0  0  0  0  0  0
  161.7660  208.1330  152.1470 C   0  0  1  0  0  3  0  0  0  0  0  0
  161.6750  205.8500  148.6830 C   0  0  1  0  0  3  0  0  0  0  0  0
  159.6790  203.2920  150.6140 C   0  0  0  0  0  0  0  0  0  0  0  0
  161.8160  204.5050  151.0380 C   0  0  1  0  0  3  0  0  0  0  0  0
  161.6480  206.0030  153.0690 C   0  0  0  0  0  0  0  0  0  0  0  0
  161.5130  201.9940  149.6050 C   0  0  0  0  0  2  0  0  0  0  0  0
  160.7680  209.1170  151.5590 C   0  0  0  0  0  2  0  0  0  0  0  0
  161.2760  207.3660  153.2820 N   0  0  0  0  0  0  0  0  0  0  0  0
  158.5630  203.2850  151.1960 O   0  0  0  0  0  0  0  0  0  0  0  0
  161.6070  204.5440  149.5060 C   0  0  1  0  0  0  0  0  0  0  0  0
  162.8080  207.5840  149.9330 C   0  0  1  0  0  3  0  0  0  0  0  0
  161.9500  207.0920  151.0790 C   0  0  1  0  0  3  0  0  0  0  0  0
  161.3720  209.7940  150.3070 C   0  0  0  0  0  2  0  0  0  0  0  0
  160.7010  207.8880  154.4940 C   0  0  0  0  0  0  0  0  0  0  0  0
  162.9410  206.5690  148.8770 N   0  0  0  0  0  2  0  0  0  0  0  0
  161.8530  203.2150  148.7630 C   0  0  0  0  0  2  0  0  0  0  0  0
  160.9220  209.2010  154.9230 O   0  0  0  0  0  0  0  0  0  0  0  0
  160.2870  211.4480  154.3880 C   0  0  0  0  0  1  0  0  0  0  0  0
  159.8840  210.1590  155.0710 C   0  0  0  0  0  2  0  0  0  0  0  0
  161.3480  205.6520  147.2630 N   0  0  0  0  0  0  0  0  0  0  0  0
  162.4460  206.0350  146.4740 N   0  0  0  0  0  2  0  0  0  0  0  0
  163.1100  204.8150  146.0440 C   0  0  0  0  0  2  0  0  0  0  0  0
  162.1250  203.9400  145.2990 C   0  0  0  0  0  1  0  0  0  0  0  0
  160.2460  206.5480  146.9360 C   0  0  0  0  0  2  0  0  0  0  0  0
  159.2250  205.5820  145.0250 F   0  0  0  0  0  0  0  0  0  0  0  0
  160.0560  206.6090  145.4320 C   0  0  0  0  0  2  0  0  0  0  0  0
  1 10  1  0  0  0  0
  2  7  2  0  0  0  0
  5 12  1  1  0  0  0
  6 10  1  6  0  0  0
  6 11  1  0  0  0  0
  7 18  1  0  0  0  0
  7 20  1  0  0  0  0
  8 14  1  6  0  0  0
  8 15  1  0  0  0  0
  9 27  1  6  0  0  0
  9 22  1  0  0  0  0
  9 17  1  0  0  0  0
 10 16  2  0  0  0  0
 11  5  1  0  0  0  0
 12 15  1  0  0  0  0
 12  3  2  0  0  0  0
 13  1  1  0  0  0  0
 15 21  1  0  0  0  0
 17  6  1  0  0  0  0
 17 11  1  0  0  0  0
 18 19  1  0  0  0  0
 19  5  1  0  0  0  0
 19  8  1  0  0  0  0
 20 14  1  0  0  0  0
 21 24  1  0  0  0  0
 21  4  2  0  0  0  0
 22 18  1  0  0  0  0
 23 17  1  0  0  0  0
 23 13  1  0  0  0  0
 24 26  1  0  0  0  0
 25 26  1  0  0  0  0
 28 27  1  0  0  0  0
 29 28  1  0  0  0  0
 30 29  1  0  0  0  0
 31 27  1  0  0  0  0
 32 33  1  0  0  0  0
 33 31  1  0  0  0  0
M  END
>  <MODEL>
4

>  <REMARK>
 VINA RESULT:      -3.5      3.719      8.751
  Name = 
  7 active torsions:
  status: ('A' for Active; 'I' for Inactive)
    1  A    between atoms: N_1  and  C_8
    2  A    between atoms: N_1  and  N_29
    3  A    between atoms: C_11  and  C_12
    4  A    between atoms: C_11  and  N_29
    5  A    between atoms: C_15  and  N_29
    6  A    between atoms: O_24  and  C_30
    7  A    between atoms: O_24  and  C_31
                            x       y       z     vdW  Elec       q    Type
                         _______ _______ _______ _____ _____    ______ ____

>  <TORSDO>
F 7

$$$$
=
 OpenBabel11072412263D

 33 37  0  0  1  0  0  0  0  0999 V2000
  162.0730  206.1200  153.6490 O   0  0  0  0  0  0  0  0  0  0  0  0
  160.8630  207.5450  146.1310 O   0  0  0  0  0  0  0  0  0  0  0  0
  160.6720  202.2040  150.7840 O   0  0  0  0  0  0  0  0  0  0  0  0
  162.2670  200.6100  149.0480 O   0  0  0  0  0  0  0  0  0  0  0  0
  160.2120  204.4000  149.8460 C   0  0  2  0  0  3  0  0  0  0  0  0
  162.1060  205.5660  151.1720 C   0  0  1  0  0  3  0  0  0  0  0  0
  160.9590  206.4340  146.6270 C   0  0  0  0  0  0  0  0  0  0  0  0
  160.9790  203.7450  147.6220 C   0  0  1  0  0  3  0  0  0  0  0  0
  161.2200  207.3600  149.6460 C   0  0  1  0  0  3  0  0  0  0  0  0
  162.6480  205.4450  152.5690 C   0  0  0  0  0  0  0  0  0  0  0  0
  160.6340  205.1610  151.1260 C   0  0  1  0  0  3  0  0  0  0  0  0
  160.7310  203.0020  149.8110 C   0  0  0  0  0  0  0  0  0  0  0  0
  160.8090  206.7610  153.5460 C   0  0  0  0  0  2  0  0  0  0  0  0
  162.1510  204.1310  146.7350 C   0  0  0  0  0  2  0  0  0  0  0  0
  161.2330  202.6320  148.5250 N   0  0  0  0  0  0  0  0  0  0  0  0
  163.6760  204.7450  152.7610 O   0  0  0  0  0  0  0  0  0  0  0  0
  161.0310  206.6500  151.0050 C   0  0  1  0  0  0  0  0  0  0  0  0
  160.1570  206.1000  147.8740 C   0  0  1  0  0  3  0  0  0  0  0  0
  160.8050  204.9120  148.5530 C   0  0  1  0  0  3  0  0  0  0  0  0
  161.7890  205.3800  145.8990 C   0  0  0  0  0  2  0  0  0  0  0  0
  161.7150  201.3230  148.1690 C   0  0  0  0  0  0  0  0  0  0  0  0
  160.0340  207.2480  148.7860 N   0  0  0  0  0  2  0  0  0  0  0  0
  160.7220  207.5270  152.2350 C   0  0  0  0  0  2  0  0  0  0  0  0
  161.6010  200.8110  146.8720 O   0  0  0  0  0  0  0  0  0  0  0  0
  160.1250  201.4360  145.0920 C   0  0  0  0  0  1  0  0  0  0  0  0
  160.3550  200.5040  146.2610 C   0  0  0  0  0  2  0  0  0  0  0  0
  161.6920  208.7460  149.7820 N   0  0  0  0  0  0  0  0  0  0  0  0
  162.3040  209.1510  148.5830 N   0  0  0  0  0  2  0  0  0  0  0  0
  161.6610  210.3860  148.1690 C   0  0  0  0  0  2  0  0  0  0  0  0
  162.6380  211.5340  148.3050 C   0  0  0  0  0  1  0  0  0  0  0  0
  162.7150  208.7630  150.8190 C   0  0  0  0  0  2  0  0  0  0  0  0
  161.3590  210.6090  151.4370 F   0  0  0  0  0  0  0  0  0  0  0  0
  162.5990  210.0330  151.6410 C   0  0  0  0  0  2  0  0  0  0  0  0
  2  7  2  0  0  0  0
  5 12  1  1  0  0  0
  5 11  1  0  0  0  0
  6 10  1  1  0  0  0
  7 18  1  0  0  0  0
  8 14  1  6  0  0  0
  8 15  1  0  0  0  0
  8 19  1  0  0  0  0
  9 27  1  1  0  0  0
  9 17  1  0  0  0  0
 10 16  2  0  0  0  0
 10  1  1  0  0  0  0
 11  6  1  0  0  0  0
 12  3  2  0  0  0  0
 13  1  1  0  0  0  0
 15 12  1  0  0  0  0
 17 11  1  0  0  0  0
 17  6  1  0  0  0  0
 17 23  1  0  0  0  0
 18 19  1  0  0  0  0
 18 22  1  0  0  0  0
 19  5  1  0  0  0  0
 20  7  1  0  0  0  0
 20 14  1  0  0  0  0
 21 15  1  0  0  0  0
 21  4  2  0  0  0  0
 22  9  1  0  0  0  0
 23 13  1  0  0  0  0
 24 21  1  0  0  0  0
 25 26  1  0  0  0  0
 26 24  1  0  0  0  0
 27 31  1  0  0  0  0
 28 27  1  0  0  0  0
 29 30  1  0  0  0  0
 29 28  1  0  0  0  0
 31 33  1  0  0  0  0
 32 33  1  0  0  0  0
M  END
>  <MODEL>
5

>  <REMARK>
 VINA RESULT:      -2.6      4.493      7.353
  Name = 
  7 active torsions:
  status: ('A' for Active; 'I' for Inactive)
    1  A    between atoms: N_1  and  C_8
    2  A    between atoms: N_1  and  N_29
    3  A    between atoms: C_11  and  C_12
    4  A    between atoms: C_11  and  N_29
    5  A    between atoms: C_15  and  N_29
    6  A    between atoms: O_24  and  C_30
    7  A    between atoms: O_24  and  C_31
                            x       y       z     vdW  Elec       q    Type
                         _______ _______ _______ _____ _____    ______ ____

>  <TORSDO>
F 7

$$$$
=
 OpenBabel11072412263D

 33 37  0  0  1  0  0  0  0  0999 V2000
  160.5220  213.6550  146.8270 O   0  0  0  0  0  0  0  0  0  0  0  0
  159.9290  210.9350  154.0570 O   0  0  0  0  0  0  0  0  0  0  0  0
  163.0130  209.3880  147.8670 O   0  0  0  0  0  0  0  0  0  0  0  0
  162.0060  206.7300  148.0090 O   0  0  0  0  0  0  0  0  0  0  0  0
  162.3670  210.7150  149.7990 C   0  0  2  0  0  3  0  0  0  0  0  0
  160.3700  211.8370  148.5920 C   0  0  1  0  0  3  0  0  0  0  0  0
  160.3810  210.3130  153.1090 C   0  0  0  0  0  0  0  0  0  0  0  0
  161.6360  208.7530  151.0560 C   0  0  1  0  0  3  0  0  0  0  0  0
  160.1900  212.6420  150.9690 C   0  0  1  0  0  3  0  0  0  0  0  0
  160.1350  212.3670  147.2040 C   0  0  0  0  0  0  0  0  0  0  0  0
  161.8520  211.9040  148.9520 C   0  0  1  0  0  3  0  0  0  0  0  0
  162.4850  209.4560  149.0090 C   0  0  0  0  0  0  0  0  0  0  0  0
  161.3690  214.4530  147.6420 C   0  0  0  0  0  2  0  0  0  0  0  0
  160.2970  208.2360  151.5540 C   0  0  0  0  0  2  0  0  0  0  0  0
  162.0060  208.3120  149.7200 N   0  0  0  0  0  0  0  0  0  0  0  0
  159.5360  211.6380  146.3710 O   0  0  0  0  0  0  0  0  0  0  0  0
  160.8530  212.8930  149.5960 C   0  0  1  0  0  0  0  0  0  0  0  0
  161.4180  210.9680  152.2120 C   0  0  1  0  0  3  0  0  0  0  0  0
  161.4350  210.2330  150.8880 C   0  0  1  0  0  3  0  0  0  0  0  0
  159.9760  208.8510  152.9360 C   0  0  0  0  0  2  0  0  0  0  0  0
  162.0740  206.9550  149.2460 C   0  0  0  0  0  0  0  0  0  0  0  0
  161.1770  212.4080  152.0320 N   0  0  0  0  0  2  0  0  0  0  0  0
  160.9370  214.3500  149.0970 C   0  0  0  0  0  2  0  0  0  0  0  0
  162.2070  205.8650  150.1130 O   0  0  0  0  0  0  0  0  0  0  0  0
  161.2710  204.5290  151.8680 C   0  0  0  0  0  1  0  0  0  0  0  0
  161.1360  204.9860  150.4320 C   0  0  0  0  0  2  0  0  0  0  0  0
  159.2040  213.6720  151.3290 N   0  0  0  0  0  0  0  0  0  0  0  0
  159.2990  213.9490  152.7030 N   0  0  0  0  0  2  0  0  0  0  0  0
  157.9450  214.1460  153.1950 C   0  0  0  0  0  2  0  0  0  0  0  0
  157.8590  213.6880  154.6350 C   0  0  0  0  0  1  0  0  0  0  0  0
  157.8790  213.1160  151.0890 C   0  0  0  0  0  2  0  0  0  0  0  0
  157.1790  212.7480  148.8520 F   0  0  0  0  0  0  0  0  0  0  0  0
  157.2840  213.7190  149.8300 C   0  0  0  0  0  2  0  0  0  0  0  0
  1 10  1  0  0  0  0
  1 13  1  0  0  0  0
  3 12  2  0  0  0  0
  4 21  2  0  0  0  0
  5 12  1  6  0  0  0
  5 19  1  0  0  0  0
  6 10  1  6  0  0  0
  6 11  1  0  0  0  0
  6 17  1  0  0  0  0
  7  2  2  0  0  0  0
  8 14  1  6  0  0  0
  9 27  1  1  0  0  0
  9 22  1  0  0  0  0
 11 17  1  0  0  0  0
 11  5  1  0  0  0  0
 12 15  1  0  0  0  0
 13 23  1  0  0  0  0
 14 20  1  0  0  0  0
 15  8  1  0  0  0  0
 16 10  2  0  0  0  0
 17  9  1  0  0  0  0
 18  7  1  0  0  0  0
 19  8  1  0  0  0  0
 19 18  1  0  0  0  0
 20  7  1  0  0  0  0
 21 15  1  0  0  0  0
 21 24  1  0  0  0  0
 22 18  1  0  0  0  0
 23 17  1  0  0  0  0
 24 26  1  0  0  0  0
 26 25  1  0  0  0  0
 27 28  1  0  0  0  0
 28 29  1  0  0  0  0
 29 30  1  0  0  0  0
 31 27  1  0  0  0  0
 32 33  1  0  0  0  0
 33 31  1  0  0  0  0
M  END
>  <MODEL>
6

>  <REMARK>
 VINA RESULT:      -2.3      3.011      4.165
  Name = 
  7 active torsions:
  status: ('A' for Active; 'I' for Inactive)
    1  A    between atoms: N_1  and  C_8
    2  A    between atoms: N_1  and  N_29
    3  A    between atoms: C_11  and  C_12
    4  A    between atoms: C_11  and  N_29
    5  A    between atoms: C_15  and  N_29
    6  A    between atoms: O_24  and  C_30
    7  A    between atoms: O_24  and  C_31
                            x       y       z     vdW  Elec       q    Type
                         _______ _______ _______ _____ _____    ______ ____

>  <TORSDO>
F 7

$$$$
=
 OpenBabel11072412263D

 33 37  0  0  1  0  0  0  0  0999 V2000
  162.0030  204.0870  144.9980 O   0  0  0  0  0  0  0  0  0  0  0  0
  160.4000  203.1250  152.5170 O   0  0  0  0  0  0  0  0  0  0  0  0
  161.2550  208.2730  147.7230 O   0  0  0  0  0  0  0  0  0  0  0  0
  163.0690  209.6130  149.4580 O   0  0  0  0  0  0  0  0  0  0  0  0
  160.3940  206.2220  148.7050 C   0  0  2  0  0  3  0  0  0  0  0  0
  162.0800  204.7010  147.4600 C   0  0  1  0  0  3  0  0  0  0  0  0
  160.7010  204.1860  151.9940 C   0  0  0  0  0  0  0  0  0  0  0  0
  161.2180  206.7980  150.9300 C   0  0  1  0  0  3  0  0  0  0  0  0
  160.8590  203.1380  149.0090 C   0  0  1  0  0  3  0  0  0  0  0  0
  162.6650  204.6830  146.0750 C   0  0  0  0  0  0  0  0  0  0  0  0
  160.7030  205.3610  147.4570 C   0  0  1  0  0  3  0  0  0  0  0  0
  161.1510  207.5070  148.7170 C   0  0  0  0  0  0  0  0  0  0  0  0
  160.6430  203.6820  145.0840 C   0  0  0  0  0  2  0  0  0  0  0  0
  162.2840  206.2390  151.8580 C   0  0  0  0  0  2  0  0  0  0  0  0
  161.6830  207.8210  150.0060 N   0  0  0  0  0  0  0  0  0  0  0  0
  163.8040  205.1850  145.8920 O   0  0  0  0  0  0  0  0  0  0  0  0
  160.8270  203.8290  147.6270 C   0  0  1  0  0  0  0  0  0  0  0  0
  159.9980  204.6180  150.7180 C   0  0  1  0  0  3  0  0  0  0  0  0
  160.8600  205.6530  150.0260 C   0  0  1  0  0  3  0  0  0  0  0  0
  161.6890  205.0990  152.7170 C   0  0  0  0  0  2  0  0  0  0  0  0
  162.3810  209.0350  150.3400 C   0  0  0  0  0  0  0  0  0  0  0  0
  159.6930  203.4830  149.8330 N   0  0  0  0  0  2  0  0  0  0  0  0
  160.3940  202.9830  146.4130 C   0  0  0  0  0  2  0  0  0  0  0  0
  162.3320  209.5990  151.6200 O   0  0  0  0  0  0  0  0  0  0  0  0
  161.3480  210.4180  153.6450 C   0  0  0  0  0  1  0  0  0  0  0  0
  161.1720  210.2210  152.1550 C   0  0  0  0  0  2  0  0  0  0  0  0
  161.0810  201.6870  148.9210 N   0  0  0  0  0  0  0  0  0  0  0  0
  161.6290  201.2250  150.1300 N   0  0  0  0  0  2  0  0  0  0  0  0
  160.6490  200.3370  150.7330 C   0  0  0  0  0  2  0  0  0  0  0  0
  159.2910  200.5880  150.1140 C   0  0  0  0  0  1  0  0  0  0  0  0
  162.0720  201.4560  147.8790 C   0  0  0  0  0  2  0  0  0  0  0  0
  161.0020  200.0840  146.2660 F   0  0  0  0  0  0  0  0  0  0  0  0
  161.9090  200.0590  147.3090 C   0  0  0  0  0  2  0  0  0  0  0  0
  1 13  1  0  0  0  0
  1 10  1  0  0  0  0
  3 12  2  0  0  0  0
  4 21  2  0  0  0  0
  5 12  1  6  0  0  0
  5 19  1  0  0  0  0
  6 10  1  6  0  0  0
  6 17  1  0  0  0  0
  7  2  2  0  0  0  0
  7 20  1  0  0  0  0
  8 14  1  1  0  0  0
  9 27  1  6  0  0  0
  9 22  1  0  0  0  0
 11  6  1  0  0  0  0
 11 17  1  0  0  0  0
 11  5  1  0  0  0  0
 12 15  1  0  0  0  0
 13 23  1  0  0  0  0
 14 20  1  0  0  0  0
 15 21  1  0  0  0  0
 15  8  1  0  0  0  0
 16 10  2  0  0  0  0
 17  9  1  0  0  0  0
 18  7  1  0  0  0  0
 19 18  1  0  0  0  0
 19  8  1  0  0  0  0
 21 24  1  0  0  0  0
 22 18  1  0  0  0  0
 23 17  1  0  0  0  0
 24 26  1  0  0  0  0
 26 25  1  0  0  0  0
 27 28  1  0  0  0  0
 28 29  1  0  0  0  0
 30 29  1  0  0  0  0
 31 27  1  0  0  0  0
 32 33  1  0  0  0  0
 33 31  1  0  0  0  0
M  END
>  <MODEL>
7

>  <REMARK>
 VINA RESULT:      -2.2      4.572      9.041
  Name = 
  7 active torsions:
  status: ('A' for Active; 'I' for Inactive)
    1  A    between atoms: N_1  and  C_8
    2  A    between atoms: N_1  and  N_29
    3  A    between atoms: C_11  and  C_12
    4  A    between atoms: C_11  and  N_29
    5  A    between atoms: C_15  and  N_29
    6  A    between atoms: O_24  and  C_30
    7  A    between atoms: O_24  and  C_31
                            x       y       z     vdW  Elec       q    Type
                         _______ _______ _______ _____ _____    ______ ____

>  <TORSDO>
F 7

$$$$
