=
 OpenBabel11072412063D

 50 54  0  0  1  0  0  0  0  0999 V2000
  160.1690  210.0460  154.6300 C   0  0  1  0  0  3  0  0  0  0  0  0
  160.8060  207.7910  155.1320 O   0  0  0  0  0  1  0  0  0  0  0  0
  160.8220  208.7610  154.1290 C   0  0  1  0  0  3  0  0  0  0  0  0
  160.0680  208.2530  152.8970 C   0  0  0  0  0  2  0  0  0  0  0  0
  162.1460  206.1320  152.2620 C   0  0  0  0  0  2  0  0  0  0  0  0
  162.0830  207.4530  151.5320 C   0  0  2  0  0  0  0  0  0  0  0  0
  163.3450  208.2420  151.3420 C   0  0  0  0  0  2  0  0  0  0  0  0
  160.8530  208.3430  151.5810 C   0  0  2  0  0  3  0  0  0  0  0  0
  161.3920  209.7460  151.3240 C   0  0  0  0  0  2  0  0  0  0  0  0
  162.0280  206.1470  150.7400 C   0  0  2  0  0  3  0  0  0  0  0  0
  162.8470  209.6010  150.8760 C   0  0  0  0  0  2  0  0  0  0  0  0
  160.2330  206.6240  149.0760 C   0  0  0  0  0  2  0  0  0  0  0  0
  160.6100  205.7540  150.2940 C   0  0  1  0  0  3  0  0  0  0  0  0
  159.9750  205.8300  147.7850 C   0  0  0  0  0  2  0  0  0  0  0  0
  161.3900  203.9250  148.7420 C   0  0  2  0  0  3  0  0  0  0  0  0
  160.4350  203.5970  152.2620 O   0  0  0  0  0  0  0  0  0  0  0  0
  160.7200  203.2900  151.0750 C   0  0  0  0  0  0  0  0  0  0  0  0
  161.4090  202.4570  148.4250 C   0  0  0  0  0  3  0  0  0  0  0  0
  160.4960  204.2580  149.9450 C   0  0  1  0  0  3  0  0  0  0  0  0
  161.1150  201.9520  150.7620 N   0  0  0  0  0  2  0  0  0  0  0  0
  161.3310  201.5490  149.4020 C   0  0  0  0  0  3  0  0  0  0  0  0
  161.0710  204.7810  147.5020 C   0  0  2  0  0  3  0  0  0  0  0  0
  162.3430  205.4420  146.9600 C   0  0  2  0  0  3  0  0  0  0  0  0
  162.0260  206.6010  146.2500 O   0  0  0  0  0  1  0  0  0  0  0  0
  163.0950  204.4980  146.0400 C   0  0  0  0  0  1  0  0  0  0  0  0
  159.3320  210.5880  153.6510 O   0  0  0  0  0  0  0  0  0  0  0  0
  161.1700  211.9250  153.5150 F   0  0  0  0  0  0  0  0  0  0  0  0
  159.7880  211.8970  153.4700 C   0  0  1  0  0  3  0  0  0  0  0  0
  159.3020  212.4390  152.1370 C   0  0  0  0  0  2  0  0  0  0  0  0
  160.3290  213.1150  151.4780 O   0  0  0  0  0  0  0  0  0  0  0  0
  159.6890  213.8850  150.5060 C   0  0  0  0  0  2  0  0  0  0  0  0
  160.0740  212.9810  146.2110 C   0  0  0  0  0  3  0  0  0  0  0  0
  159.7910  213.2280  149.2120 N   0  0  0  0  0  0  0  0  0  0  0  0
  160.9280  212.3410  148.9920 C   0  0  0  0  0  2  0  0  0  0  0  0
  158.9180  212.8340  146.8620 C   0  0  0  0  0  3  0  0  0  0  0  0
  161.9160  212.9170  147.9770 C   0  0  0  0  0  2  0  0  0  0  0  0
  161.2670  213.6710  146.8080 C   0  0  1  0  0  3  0  0  0  0  0  0
  158.7080  213.2500  148.2600 C   0  0  0  0  0  0  0  0  0  0  0  0
  157.1730  213.5710  148.7400 S   0  0  0  0  0  0  0  0  0  0  0  0
  162.2980  214.0490  145.7450 C   0  0  0  0  0  2  0  0  0  0  0  0
  162.1040  213.3020  144.4270 C   0  0  0  0  0  2  0  0  0  0  0  0
  164.0240  214.4530  143.5870 O   0  0  0  0  0  1  0  0  0  0  0  0
  162.7200  214.0670  143.2700 C   0  0  1  0  0  3  0  0  0  0  0  0
  163.2110  213.6420  140.9610 O   0  0  0  0  0  0  0  0  0  0  0  0
  162.7040  213.2250  142.0360 C   0  0  0  0  0  0  0  0  0  0  0  0
  162.1780  211.9410  142.0930 O   0  0  0  0  0  1  0  0  0  0  0  0
  159.3570  209.7570  155.8860 C   0  0  0  0  0  2  0  0  0  0  0  0
  158.0070  210.1830  155.7110 O   0  0  0  0  0  0  0  0  0  0  0  0
  157.5500  211.4190  156.1310 N   0  0  0  0  0  0  0  0  0  0  0  0
  158.0430  212.0440  157.1520 C   0  0  0  0  0  2  0  0  0  0  0  0
  1 47  1  1  0  0  0
  3  1  1  0  0  0  0
  3  2  1  1  0  0  0
  4  3  1  0  0  0  0
  6  7  1  6  0  0  0
  6  8  1  0  0  0  0
  6  5  1  0  0  0  0
  8  4  1  1  0  0  0
  9  8  1  0  0  0  0
 10  6  1  0  0  0  0
 10  5  1  1  0  0  0
 11  9  1  0  0  0  0
 11  7  1  0  0  0  0
 13 12  1  6  0  0  0
 13 10  1  0  0  0  0
 14 12  1  0  0  0  0
 15 18  1  6  0  0  0
 15 19  1  0  0  0  0
 17 16  2  0  0  0  0
 18 21  2  0  0  0  0
 19 13  1  0  0  0  0
 19 17  1  1  0  0  0
 20 17  1  0  0  0  0
 21 20  1  0  0  0  0
 22 23  1  1  0  0  0
 22 14  1  0  0  0  0
 22 15  1  0  0  0  0
 23 25  1  6  0  0  0
 24 23  1  0  0  0  0
 26  1  1  0  0  0  0
 28 27  1  6  0  0  0
 28 26  1  0  0  0  0
 29 28  1  0  0  0  0
 30 29  1  0  0  0  0
 31 30  1  0  0  0  0
 32 37  1  0  0  0  0
 32 35  2  0  0  0  0
 33 31  1  0  0  0  0
 34 33  1  0  0  0  0
 35 38  1  0  0  0  0
 36 34  1  0  0  0  0
 37 40  1  6  0  0  0
 37 36  1  0  0  0  0
 38 39  2  0  0  0  0
 38 33  1  0  0  0  0
 41 40  1  0  0  0  0
 43 42  1  1  0  0  0
 43 41  1  0  0  0  0
 44 45  2  0  0  0  0
 45 46  1  0  0  0  0
 45 43  1  0  0  0  0
 48 47  1  0  0  0  0
 48 49  1  0  0  0  0
 49 50  2  0  0  0  0
M  END
>  <MODEL>
1

>  <REMARK>
 VINA RESULT:      -4.6      0.000      0.000
  Name = 
  18 active torsions:
  status: ('A' for Active; 'I' for Inactive)
    1  A    between atoms: C_4  and  C_7
    2  A    between atoms: C_4  and  C_43
    3  A    between atoms: C_4  and  O_44
    4  A    between atoms: O_5  and  C_15
    5  A    between atoms: O_5  and  C_36
    6  A    between atoms: C_6  and  C_48
    7  A    between atoms: C_7  and  O_45
    8  A    between atoms: C_9  and  C_40
    9  A    between atoms: C_11  and  C_25
   10  A    between atoms: C_11  and  C_29
   11  A    between atoms: N_12  and  C_36
   12  A    between atoms: C_15  and  C_39
   13  A    between atoms: C_21  and  C_49
   14  A    between atoms: C_23  and  C_25
   15  A    between atoms: C_29  and  C_34
   16  A    between atoms: N_33  and  O_45
   17  A    between atoms: C_39  and  O_44
   18  A    between atoms: C_43  and  C_49
                            x       y       z     vdW  Elec       q    Type
                         _______ _______ _______ _____ _____    ______ ____

>  <TORSDO>
F 18

$$$$
=
 OpenBabel11072412063D

 50 54  0  0  1  0  0  0  0  0999 V2000
  161.9800  213.0730  148.8580 C   0  0  1  0  0  3  0  0  0  0  0  0
  159.7920  213.9570  148.4410 O   0  0  0  0  0  1  0  0  0  0  0  0
  160.7600  213.7880  149.4330 C   0  0  1  0  0  3  0  0  0  0  0  0
  160.1870  212.9660  150.5900 C   0  0  0  0  0  2  0  0  0  0  0  0
  158.5740  211.3490  152.5920 C   0  0  0  0  0  2  0  0  0  0  0  0
  158.0990  212.6750  152.0470 C   0  0  2  0  0  0  0  0  0  0  0  0
  156.6900  212.7930  151.5430 C   0  0  0  0  0  2  0  0  0  0  0  0
  159.0390  213.6440  151.3510 C   0  0  2  0  0  3  0  0  0  0  0  0
  158.1330  214.4530  150.4300 C   0  0  0  0  0  2  0  0  0  0  0  0
  158.2160  212.4770  153.5580 C   0  0  2  0  0  3  0  0  0  0  0  0
  156.6870  214.1230  150.8060 C   0  0  0  0  0  2  0  0  0  0  0  0
  159.0680  214.3980  154.8990 C   0  0  0  0  0  2  0  0  0  0  0  0
  159.4800  213.1020  154.1680 C   0  0  1  0  0  3  0  0  0  0  0  0
  159.3360  214.3840  156.4120 C   0  0  0  0  0  2  0  0  0  0  0  0
  159.3070  211.8270  156.3360 C   0  0  2  0  0  3  0  0  0  0  0  0
  161.1650  210.8630  153.3320 O   0  0  0  0  0  0  0  0  0  0  0  0
  160.7700  210.8890  154.5270 C   0  0  0  0  0  0  0  0  0  0  0  0
  159.9150  210.8070  157.2570 C   0  0  0  0  0  2  0  0  0  0  0  0
  160.2050  212.1450  155.1320 C   0  0  1  0  0  3  0  0  0  0  0  0
  161.0020  209.7630  155.3780 N   0  0  0  0  0  0  0  0  0  0  0  0
  160.6650  209.8150  156.7710 C   0  0  0  0  0  3  0  0  0  0  0  0
  158.8480  213.0880  157.0930 C   0  0  2  0  0  3  0  0  0  0  0  0
  157.3250  213.0910  157.2610 C   0  0  2  0  0  3  0  0  0  0  0  0
  156.7600  211.9860  156.6210 O   0  0  0  0  0  1  0  0  0  0  0  0
  156.7170  214.3550  156.6770 C   0  0  0  0  0  1  0  0  0  0  0  0
  161.6070  211.8720  148.2500 O   0  0  0  0  0  0  0  0  0  0  0  0
  162.9260  211.3700  150.0370 F   0  0  0  0  0  0  0  0  0  0  0  0
  162.4220  210.9000  148.8380 C   0  0  1  0  0  3  0  0  0  0  0  0
  161.6300  209.6250  149.0730 C   0  0  0  0  0  2  0  0  0  0  0  0
  161.9540  209.0670  150.3100 O   0  0  0  0  0  0  0  0  0  0  0  0
  160.9340  208.1510  150.5690 C   0  0  0  0  0  2  0  0  0  0  0  0
  161.5670  203.8310  151.1700 C   0  0  0  0  0  3  0  0  0  0  0  0
  161.5050  206.8330  150.8070 N   0  0  0  0  0  0  0  0  0  0  0  0
  162.4840  206.3380  149.8460 C   0  0  0  0  0  2  0  0  0  0  0  0
  161.6430  204.7020  152.1780 C   0  0  0  0  0  3  0  0  0  0  0  0
  161.9400  205.1660  149.0260 C   0  0  0  0  0  2  0  0  0  0  0  0
  161.0440  204.1980  149.8110 C   0  0  1  0  0  3  0  0  0  0  0  0
  161.3080  206.1330  152.0520 C   0  0  0  0  0  0  0  0  0  0  0  0
  160.8680  206.9390  153.4110 S   0  0  0  0  0  0  0  0  0  0  0  0
  160.6980  202.9620  148.9810 C   0  0  0  0  0  2  0  0  0  0  0  0
  161.2250  203.0310  147.5500 C   0  0  0  0  0  2  0  0  0  0  0  0
  160.4220  200.7820  147.6620 O   0  0  0  0  0  1  0  0  0  0  0  0
  161.1510  201.6740  146.8730 C   0  0  1  0  0  3  0  0  0  0  0  0
  160.1510  200.7990  144.8770 O   0  0  0  0  0  0  0  0  0  0  0  0
  160.5310  201.8120  145.5200 C   0  0  0  0  0  0  0  0  0  0  0  0
  160.3140  203.0780  144.9950 O   0  0  0  0  0  1  0  0  0  0  0  0
  162.6670  213.9650  147.8330 C   0  0  0  0  0  2  0  0  0  0  0  0
  161.9980  213.8810  146.5760 O   0  0  0  0  0  0  0  0  0  0  0  0
  162.3210  212.9380  145.6160 N   0  0  0  0  0  0  0  0  0  0  0  0
  162.3970  213.2140  144.3530 C   0  0  0  0  0  2  0  0  0  0  0  0
  1 47  1  6  0  0  0
  1  3  1  0  0  0  0
  3  2  1  6  0  0  0
  3  4  1  0  0  0  0
  6  7  1  6  0  0  0
  6  5  1  0  0  0  0
  6 10  1  0  0  0  0
  8  4  1  6  0  0  0
  8  6  1  0  0  0  0
  9 11  1  0  0  0  0
  9  8  1  0  0  0  0
 10  5  1  6  0  0  0
 10 13  1  0  0  0  0
 11  7  1  0  0  0  0
 12 14  1  0  0  0  0
 13 12  1  1  0  0  0
 13 19  1  0  0  0  0
 14 22  1  0  0  0  0
 15 22  1  0  0  0  0
 15 18  1  1  0  0  0
 16 17  2  0  0  0  0
 17 20  1  0  0  0  0
 19 17  1  6  0  0  0
 19 15  1  0  0  0  0
 20 21  2  0  0  0  0
 21 18  1  0  0  0  0
 22 23  1  6  0  0  0
 23 25  1  6  0  0  0
 24 23  1  0  0  0  0
 26 28  1  0  0  0  0
 26  1  1  0  0  0  0
 28 29  1  0  0  0  0
 28 27  1  1  0  0  0
 29 30  1  0  0  0  0
 30 31  1  0  0  0  0
 31 33  1  0  0  0  0
 32 35  2  0  0  0  0
 33 38  1  0  0  0  0
 34 33  1  0  0  0  0
 36 37  1  0  0  0  0
 36 34  1  0  0  0  0
 37 40  1  6  0  0  0
 37 32  1  0  0  0  0
 38 35  1  0  0  0  0
 38 39  2  0  0  0  0
 41 40  1  0  0  0  0
 43 41  1  0  0  0  0
 43 42  1  1  0  0  0
 44 45  2  0  0  0  0
 45 43  1  0  0  0  0
 46 45  1  0  0  0  0
 48 47  1  0  0  0  0
 49 48  1  0  0  0  0
 50 49  2  0  0  0  0
M  END
>  <MODEL>
2

>  <REMARK>
 VINA RESULT:      -4.0      2.894      9.670
  Name = 
  18 active torsions:
  status: ('A' for Active; 'I' for Inactive)
    1  A    between atoms: C_4  and  C_7
    2  A    between atoms: C_4  and  C_43
    3  A    between atoms: C_4  and  O_44
    4  A    between atoms: O_5  and  C_15
    5  A    between atoms: O_5  and  C_36
    6  A    between atoms: C_6  and  C_48
    7  A    between atoms: C_7  and  O_45
    8  A    between atoms: C_9  and  C_40
    9  A    between atoms: C_11  and  C_25
   10  A    between atoms: C_11  and  C_29
   11  A    between atoms: N_12  and  C_36
   12  A    between atoms: C_15  and  C_39
   13  A    between atoms: C_21  and  C_49
   14  A    between atoms: C_23  and  C_25
   15  A    between atoms: C_29  and  C_34
   16  A    between atoms: N_33  and  O_45
   17  A    between atoms: C_39  and  O_44
   18  A    between atoms: C_43  and  C_49
                            x       y       z     vdW  Elec       q    Type
                         _______ _______ _______ _____ _____    ______ ____

>  <TORSDO>
F 18

$$$$
=
 OpenBabel11072412063D

 50 54  0  0  1  0  0  0  0  0999 V2000
  161.7480  208.1440  151.9020 C   0  0  1  0  0  3  0  0  0  0  0  0
  163.1840  207.3680  150.1470 O   0  0  0  0  0  1  0  0  0  0  0  0
  162.1130  206.9980  150.9620 C   0  0  1  0  0  3  0  0  0  0  0  0
  162.4830  205.7620  151.7850 C   0  0  0  0  0  2  0  0  0  0  0  0
  160.1200  205.8110  149.8780 C   0  0  0  0  0  2  0  0  0  0  0  0
  160.5650  204.5550  150.5890 C   0  0  2  0  0  0  0  0  0  0  0  0
  159.5390  203.7040  151.2780 C   0  0  0  0  0  2  0  0  0  0  0  0
  161.9350  204.4370  151.2360 C   0  0  2  0  0  3  0  0  0  0  0  0
  161.7460  203.3930  152.3310 C   0  0  0  0  0  2  0  0  0  0  0  0
  160.4590  204.5640  149.0640 C   0  0  2  0  0  3  0  0  0  0  0  0
  160.3740  202.7500  152.1180 C   0  0  0  0  0  2  0  0  0  0  0  0
  162.5030  203.3440  148.3240 C   0  0  0  0  0  2  0  0  0  0  0  0
  161.8120  204.7230  148.3520 C   0  0  1  0  0  3  0  0  0  0  0  0
  162.7520  202.7860  146.9140 C   0  0  0  0  0  2  0  0  0  0  0  0
  160.8750  204.2950  146.0500 C   0  0  2  0  0  3  0  0  0  0  0  0
  161.3050  207.5310  147.7080 O   0  0  0  0  0  0  0  0  0  0  0  0
  161.1110  206.6750  146.8050 C   0  0  0  0  0  0  0  0  0  0  0  0
  160.5980  204.8340  144.6750 C   0  0  0  0  0  3  0  0  0  0  0  0
  161.6630  205.2810  146.9240 C   0  0  1  0  0  3  0  0  0  0  0  0
  160.4960  207.0660  145.5750 N   0  0  0  0  0  2  0  0  0  0  0  0
  160.3710  206.1370  144.4900 C   0  0  0  0  0  3  0  0  0  0  0  0
  161.5100  202.8920  146.0040 C   0  0  2  0  0  3  0  0  0  0  0  0
  160.4750  201.8180  146.3540 C   0  0  2  0  0  3  0  0  0  0  0  0
  161.0500  200.8260  147.1500 O   0  0  0  0  0  1  0  0  0  0  0  0
  159.9160  201.1730  145.0990 C   0  0  0  0  0  1  0  0  0  0  0  0
  160.9310  209.0740  151.2530 O   0  0  0  0  0  0  0  0  0  0  0  0
  162.9220  210.0500  151.7740 F   0  0  0  0  0  0  0  0  0  0  0  0
  161.7380  210.2010  151.0740 C   0  0  1  0  0  3  0  0  0  0  0  0
  162.0320  210.4060  149.5980 C   0  0  0  0  0  2  0  0  0  0  0  0
  162.2670  211.7540  149.3270 O   0  0  0  0  0  0  0  0  0  0  0  0
  161.7700  211.9540  148.0380 C   0  0  0  0  0  2  0  0  0  0  0  0
  158.0040  214.2210  148.3530 C   0  0  0  0  0  3  0  0  0  0  0  0
  160.7540  212.9960  148.0590 N   0  0  0  0  0  0  0  0  0  0  0  0
  160.8970  214.0600  149.0460 C   0  0  0  0  0  2  0  0  0  0  0  0
  158.5900  213.9860  147.1770 C   0  0  0  0  0  3  0  0  0  0  0  0
  159.8210  213.9850  150.1310 C   0  0  0  0  0  2  0  0  0  0  0  0
  158.4360  213.5560  149.6290 C   0  0  1  0  0  3  0  0  0  0  0  0
  159.7730  213.1220  147.0100 C   0  0  0  0  0  0  0  0  0  0  0  0
  160.0250  212.4470  145.5360 S   0  0  0  0  0  0  0  0  0  0  0  0
  157.3790  213.6880  150.7250 C   0  0  0  0  0  2  0  0  0  0  0  0
  157.9660  214.0700  152.0820 C   0  0  0  0  0  2  0  0  0  0  0  0
  159.2510  212.6300  153.4920 O   0  0  0  0  0  1  0  0  0  0  0  0
  157.9580  212.8880  153.0350 C   0  0  1  0  0  3  0  0  0  0  0  0
  155.8490  213.5270  153.9800 O   0  0  0  0  0  0  0  0  0  0  0  0
  157.0370  213.1630  154.1800 C   0  0  0  0  0  0  0  0  0  0  0  0
  157.4810  212.9520  155.4780 O   0  0  0  0  0  1  0  0  0  0  0  0
  161.0190  207.5980  153.1230 C   0  0  0  0  0  2  0  0  0  0  0  0
  161.4350  208.2910  154.2980 O   0  0  0  0  0  0  0  0  0  0  0  0
  160.9680  209.5500  154.6320 N   0  0  0  0  0  0  0  0  0  0  0  0
  161.7520  210.5570  154.8510 C   0  0  0  0  0  2  0  0  0  0  0  0
  1 47  1  1  0  0  0
  3  2  1  1  0  0  0
  3  4  1  0  0  0  0
  3  1  1  0  0  0  0
  6  5  1  1  0  0  0
  6  8  1  0  0  0  0
  6  7  1  0  0  0  0
  7 11  1  0  0  0  0
  8  4  1  1  0  0  0
  8  9  1  0  0  0  0
 10  5  1  1  0  0  0
 10  6  1  0  0  0  0
 11  9  1  0  0  0  0
 13 12  1  6  0  0  0
 13 10  1  0  0  0  0
 14 12  1  0  0  0  0
 15 18  1  6  0  0  0
 15 19  1  0  0  0  0
 17 16  2  0  0  0  0
 19 17  1  1  0  0  0
 19 13  1  0  0  0  0
 20 17  1  0  0  0  0
 21 18  2  0  0  0  0
 21 20  1  0  0  0  0
 22 15  1  0  0  0  0
 22 23  1  1  0  0  0
 22 14  1  0  0  0  0
 23 25  1  6  0  0  0
 23 24  1  0  0  0  0
 26  1  1  0  0  0  0
 28 26  1  0  0  0  0
 28 27  1  1  0  0  0
 29 28  1  0  0  0  0
 30 29  1  0  0  0  0
 31 33  1  0  0  0  0
 31 30  1  0  0  0  0
 32 37  1  0  0  0  0
 33 34  1  0  0  0  0
 34 36  1  0  0  0  0
 35 32  2  0  0  0  0
 37 36  1  0  0  0  0
 37 40  1  1  0  0  0
 38 35  1  0  0  0  0
 38 33  1  0  0  0  0
 39 38  2  0  0  0  0
 40 41  1  0  0  0  0
 41 43  1  0  0  0  0
 43 42  1  1  0  0  0
 43 45  1  0  0  0  0
 44 45  2  0  0  0  0
 45 46  1  0  0  0  0
 47 48  1  0  0  0  0
 48 49  1  0  0  0  0
 49 50  2  0  0  0  0
M  END
>  <MODEL>
3

>  <REMARK>
 VINA RESULT:      -3.3      3.058      5.937
  Name = 
  18 active torsions:
  status: ('A' for Active; 'I' for Inactive)
    1  A    between atoms: C_4  and  C_7
    2  A    between atoms: C_4  and  C_43
    3  A    between atoms: C_4  and  O_44
    4  A    between atoms: O_5  and  C_15
    5  A    between atoms: O_5  and  C_36
    6  A    between atoms: C_6  and  C_48
    7  A    between atoms: C_7  and  O_45
    8  A    between atoms: C_9  and  C_40
    9  A    between atoms: C_11  and  C_25
   10  A    between atoms: C_11  and  C_29
   11  A    between atoms: N_12  and  C_36
   12  A    between atoms: C_15  and  C_39
   13  A    between atoms: C_21  and  C_49
   14  A    between atoms: C_23  and  C_25
   15  A    between atoms: C_29  and  C_34
   16  A    between atoms: N_33  and  O_45
   17  A    between atoms: C_39  and  O_44
   18  A    between atoms: C_43  and  C_49
                            x       y       z     vdW  Elec       q    Type
                         _______ _______ _______ _____ _____    ______ ____

>  <TORSDO>
F 18

$$$$
=
 OpenBabel11072412063D

 50 54  0  0  1  0  0  0  0  0999 V2000
  162.0430  210.9800  149.3220 C   0  0  1  0  0  3  0  0  0  0  0  0
  161.4750  210.3160  151.5530 O   0  0  0  0  0  1  0  0  0  0  0  0
  161.1430  211.2090  150.5330 C   0  0  1  0  0  3  0  0  0  0  0  0
  161.3070  212.6500  151.0240 C   0  0  0  0  0  2  0  0  0  0  0  0
  159.0420  211.2150  152.4500 C   0  0  0  0  0  2  0  0  0  0  0  0
  158.8330  212.4920  151.6720 C   0  0  2  0  0  0  0  0  0  0  0  0
  157.6950  212.5740  150.6970 C   0  0  0  0  0  2  0  0  0  0  0  0
  159.9900  213.3950  151.2790 C   0  0  2  0  0  3  0  0  0  0  0  0
  159.4910  214.1280  150.0390 C   0  0  0  0  0  2  0  0  0  0  0  0
  158.4070  212.4210  153.1380 C   0  0  2  0  0  3  0  0  0  0  0  0
  157.9960  213.8370  149.9060 C   0  0  0  0  0  2  0  0  0  0  0  0
  158.7640  214.4050  154.6040 C   0  0  0  0  0  2  0  0  0  0  0  0
  159.3980  213.0900  154.1030 C   0  0  1  0  0  3  0  0  0  0  0  0
  158.5190  214.4530  156.1210 C   0  0  0  0  0  2  0  0  0  0  0  0
  158.5250  211.8950  156.1450 C   0  0  2  0  0  3  0  0  0  0  0  0
  161.2710  210.8480  153.9610 O   0  0  0  0  0  0  0  0  0  0  0  0
  160.5040  210.9130  154.9580 C   0  0  0  0  0  0  0  0  0  0  0  0
  158.7980  210.9210  157.2560 C   0  0  0  0  0  2  0  0  0  0  0  0
  159.7680  212.1820  155.2910 C   0  0  1  0  0  3  0  0  0  0  0  0
  160.4460  209.8240  155.8830 N   0  0  0  0  0  0  0  0  0  0  0  0
  159.6700  209.9230  157.0850 C   0  0  0  0  0  3  0  0  0  0  0  0
  157.8380  213.1760  156.6560 C   0  0  2  0  0  3  0  0  0  0  0  0
  156.3440  213.1610  156.3130 C   0  0  2  0  0  3  0  0  0  0  0  0
  155.8110  214.4490  156.3970 O   0  0  0  0  0  1  0  0  0  0  0  0
  155.5790  212.2550  157.2610 C   0  0  0  0  0  1  0  0  0  0  0  0
  161.5230  209.9710  148.5060 O   0  0  0  0  0  0  0  0  0  0  0  0
  161.3760  208.0780  149.7640 F   0  0  0  0  0  0  0  0  0  0  0  0
  162.1830  208.8060  148.9080 C   0  0  1  0  0  3  0  0  0  0  0  0
  162.5440  207.9650  147.6960 C   0  0  0  0  0  2  0  0  0  0  0  0
  161.4590  207.1800  147.3020 O   0  0  0  0  0  0  0  0  0  0  0  0
  162.0050  205.9280  147.0180 C   0  0  0  0  0  2  0  0  0  0  0  0
  160.7830  202.5420  149.5590 C   0  0  0  0  0  3  0  0  0  0  0  0
  161.2570  204.8950  147.7190 N   0  0  0  0  0  0  0  0  0  0  0  0
  160.2250  205.3250  148.6550 C   0  0  0  0  0  2  0  0  0  0  0  0
  160.8210  202.4470  148.2280 C   0  0  0  0  0  3  0  0  0  0  0  0
  160.6080  205.0290  150.1070 C   0  0  0  0  0  2  0  0  0  0  0  0
  161.3580  203.7060  150.3130 C   0  0  1  0  0  3  0  0  0  0  0  0
  161.3500  203.5050  147.3470 C   0  0  0  0  0  0  0  0  0  0  0  0
  161.8890  203.0650  145.8620 S   0  0  0  0  0  0  0  0  0  0  0  0
  161.5360  203.3920  151.7980 C   0  0  0  0  0  2  0  0  0  0  0  0
  160.8450  204.3990  152.7140 C   0  0  0  0  0  2  0  0  0  0  0  0
  162.8750  205.5730  152.2490 O   0  0  0  0  0  1  0  0  0  0  0  0
  161.8010  205.4990  153.1380 C   0  0  1  0  0  3  0  0  0  0  0  0
  160.5560  207.3080  152.1750 O   0  0  0  0  0  0  0  0  0  0  0  0
  161.0780  206.8050  153.2040 C   0  0  0  0  0  0  0  0  0  0  0  0
  160.9280  207.4410  154.4290 O   0  0  0  0  0  1  0  0  0  0  0  0
  162.1630  212.2680  148.5170 C   0  0  0  0  0  2  0  0  0  0  0  0
  161.1660  212.3090  147.4980 O   0  0  0  0  0  0  0  0  0  0  0  0
  161.1590  213.2610  146.4930 N   0  0  0  0  0  0  0  0  0  0  0  0
  160.3590  213.2080  145.4770 C   0  0  0  0  0  2  0  0  0  0  0  0
  1 47  1  6  0  0  0
  1  3  1  0  0  0  0
  3  4  1  0  0  0  0
  3  2  1  1  0  0  0
  6  7  1  6  0  0  0
  6  5  1  0  0  0  0
  6 10  1  0  0  0  0
  8  4  1  6  0  0  0
  8  6  1  0  0  0  0
  9  8  1  0  0  0  0
 10  5  1  1  0  0  0
 10 13  1  0  0  0  0
 11  9  1  0  0  0  0
 11  7  1  0  0  0  0
 12 14  1  0  0  0  0
 13 12  1  1  0  0  0
 13 19  1  0  0  0  0
 14 22  1  0  0  0  0
 15 22  1  0  0  0  0
 15 18  1  1  0  0  0
 16 17  2  0  0  0  0
 17 20  1  0  0  0  0
 19 17  1  6  0  0  0
 19 15  1  0  0  0  0
 20 21  2  0  0  0  0
 21 18  1  0  0  0  0
 22 23  1  6  0  0  0
 23 24  1  0  0  0  0
 23 25  1  1  0  0  0
 26 28  1  0  0  0  0
 26  1  1  0  0  0  0
 28 27  1  1  0  0  0
 29 28  1  0  0  0  0
 30 29  1  0  0  0  0
 31 30  1  0  0  0  0
 31 33  1  0  0  0  0
 32 37  1  0  0  0  0
 33 34  1  0  0  0  0
 34 36  1  0  0  0  0
 35 32  2  0  0  0  0
 36 37  1  0  0  0  0
 37 40  1  1  0  0  0
 38 33  1  0  0  0  0
 38 35  1  0  0  0  0
 39 38  2  0  0  0  0
 40 41  1  0  0  0  0
 41 43  1  0  0  0  0
 43 42  1  6  0  0  0
 43 45  1  0  0  0  0
 44 45  2  0  0  0  0
 45 46  1  0  0  0  0
 48 47  1  0  0  0  0
 49 48  1  0  0  0  0
 50 49  2  0  0  0  0
M  END
>  <MODEL>
4

>  <REMARK>
 VINA RESULT:      -3.2      3.050      9.804
  Name = 
  18 active torsions:
  status: ('A' for Active; 'I' for Inactive)
    1  A    between atoms: C_4  and  C_7
    2  A    between atoms: C_4  and  C_43
    3  A    between atoms: C_4  and  O_44
    4  A    between atoms: O_5  and  C_15
    5  A    between atoms: O_5  and  C_36
    6  A    between atoms: C_6  and  C_48
    7  A    between atoms: C_7  and  O_45
    8  A    between atoms: C_9  and  C_40
    9  A    between atoms: C_11  and  C_25
   10  A    between atoms: C_11  and  C_29
   11  A    between atoms: N_12  and  C_36
   12  A    between atoms: C_15  and  C_39
   13  A    between atoms: C_21  and  C_49
   14  A    between atoms: C_23  and  C_25
   15  A    between atoms: C_29  and  C_34
   16  A    between atoms: N_33  and  O_45
   17  A    between atoms: C_39  and  O_44
   18  A    between atoms: C_43  and  C_49
                            x       y       z     vdW  Elec       q    Type
                         _______ _______ _______ _____ _____    ______ ____

>  <TORSDO>
F 18

$$$$
=
 OpenBabel11072412063D

 50 54  0  0  1  0  0  0  0  0999 V2000
  161.4890  208.1720  152.2830 C   0  0  1  0  0  3  0  0  0  0  0  0
  162.5360  208.0000  150.1350 O   0  0  0  0  0  1  0  0  0  0  0  0
  161.8120  207.2810  151.0870 C   0  0  1  0  0  3  0  0  0  0  0  0
  162.6230  206.0710  151.5570 C   0  0  0  0  0  2  0  0  0  0  0  0
  160.2430  205.9860  149.6730 C   0  0  0  0  0  2  0  0  0  0  0  0
  160.6810  204.7900  150.4840 C   0  0  2  0  0  0  0  0  0  0  0  0
  159.6520  204.0120  151.2510 C   0  0  0  0  0  2  0  0  0  0  0  0
  162.0540  204.7110  151.1270 C   0  0  2  0  0  3  0  0  0  0  0  0
  161.8640  203.7660  152.3080 C   0  0  0  0  0  2  0  0  0  0  0  0
  160.5610  204.6710  148.9650 C   0  0  2  0  0  3  0  0  0  0  0  0
  160.4840  203.1240  152.1620 C   0  0  0  0  0  2  0  0  0  0  0  0
  162.5610  203.3550  148.2700 C   0  0  0  0  0  2  0  0  0  0  0  0
  161.9080  204.7530  148.2300 C   0  0  1  0  0  3  0  0  0  0  0  0
  162.7770  202.7160  146.8890 C   0  0  0  0  0  2  0  0  0  0  0  0
  160.9310  204.2270  145.9650 C   0  0  2  0  0  3  0  0  0  0  0  0
  161.4710  207.5350  147.4400 O   0  0  0  0  0  0  0  0  0  0  0  0
  161.2430  206.6370  146.5860 C   0  0  0  0  0  0  0  0  0  0  0  0
  160.6530  204.6990  144.5660 C   0  0  0  0  0  3  0  0  0  0  0  0
  161.7570  205.2360  146.7750 C   0  0  1  0  0  3  0  0  0  0  0  0
  160.6230  206.9780  145.3440 N   0  0  0  0  0  2  0  0  0  0  0  0
  160.4590  205.9960  144.3120 C   0  0  0  0  0  3  0  0  0  0  0  0
  161.5270  202.8070  145.9880 C   0  0  2  0  0  3  0  0  0  0  0  0
  160.4670  201.7830  146.4080 C   0  0  2  0  0  3  0  0  0  0  0  0
  161.0530  200.7380  147.1240 O   0  0  0  0  0  1  0  0  0  0  0  0
  159.7600  201.2050  145.1950 C   0  0  0  0  0  1  0  0  0  0  0  0
  160.5620  209.1560  151.9290 O   0  0  0  0  0  0  0  0  0  0  0  0
  162.5970  210.1740  152.0440 F   0  0  0  0  0  0  0  0  0  0  0  0
  161.2300  210.3690  152.1270 C   0  0  1  0  0  3  0  0  0  0  0  0
  160.7880  211.3840  151.0870 C   0  0  0  0  0  2  0  0  0  0  0  0
  161.8270  211.6610  150.1980 O   0  0  0  0  0  0  0  0  0  0  0  0
  161.3900  211.1680  148.9690 C   0  0  0  0  0  2  0  0  0  0  0  0
  161.2820  213.6010  145.2960 C   0  0  0  0  0  3  0  0  0  0  0  0
  161.3060  212.2550  148.0040 N   0  0  0  0  0  0  0  0  0  0  0  0
  160.0630  213.0160  147.9510 C   0  0  0  0  0  2  0  0  0  0  0  0
  162.3270  213.6230  146.1270 C   0  0  0  0  0  3  0  0  0  0  0  0
  159.2910  212.7620  146.6550 C   0  0  0  0  0  2  0  0  0  0  0  0
  160.1700  212.5980  145.4080 C   0  0  1  0  0  3  0  0  0  0  0  0
  162.4660  212.7290  147.2910 C   0  0  0  0  0  0  0  0  0  0  0  0
  163.9780  212.4330  147.8520 S   0  0  0  0  0  0  0  0  0  0  0  0
  159.3270  212.5390  144.1350 C   0  0  0  0  0  2  0  0  0  0  0  0
  160.0510  211.8790  142.9640 C   0  0  0  0  0  2  0  0  0  0  0  0
  161.2010  212.3880  140.9300 O   0  0  0  0  0  1  0  0  0  0  0  0
  160.2160  212.8480  141.8060 C   0  0  1  0  0  3  0  0  0  0  0  0
  158.4600  212.1070  140.3500 O   0  0  0  0  0  0  0  0  0  0  0  0
  158.9130  213.0170  141.0940 C   0  0  0  0  0  0  0  0  0  0  0  0
  158.1630  214.1650  141.3060 O   0  0  0  0  0  1  0  0  0  0  0  0
  160.9200  207.3280  153.4170 C   0  0  0  0  0  2  0  0  0  0  0  0
  161.2370  207.9150  154.6780 O   0  0  0  0  0  0  0  0  0  0  0  0
  160.5240  208.9730  155.2130 N   0  0  0  0  0  0  0  0  0  0  0  0
  160.2850  209.0930  156.4800 C   0  0  0  0  0  2  0  0  0  0  0  0
  1 47  1  1  0  0  0
  3  2  1  6  0  0  0
  3  4  1  0  0  0  0
  3  1  1  0  0  0  0
  6  5  1  1  0  0  0
  6  8  1  0  0  0  0
  6  7  1  0  0  0  0
  7 11  1  0  0  0  0
  8  4  1  1  0  0  0
  8  9  1  0  0  0  0
 10  5  1  6  0  0  0
 10  6  1  0  0  0  0
 11  9  1  0  0  0  0
 13 12  1  6  0  0  0
 13 10  1  0  0  0  0
 14 12  1  0  0  0  0
 15 18  1  6  0  0  0
 15 22  1  0  0  0  0
 15 19  1  0  0  0  0
 17 16  2  0  0  0  0
 19 17  1  1  0  0  0
 19 13  1  0  0  0  0
 20 17  1  0  0  0  0
 21 18  2  0  0  0  0
 21 20  1  0  0  0  0
 22 23  1  1  0  0  0
 22 14  1  0  0  0  0
 23 25  1  6  0  0  0
 23 24  1  0  0  0  0
 26 28  1  0  0  0  0
 26  1  1  0  0  0  0
 28 27  1  6  0  0  0
 29 28  1  0  0  0  0
 30 29  1  0  0  0  0
 31 30  1  0  0  0  0
 32 37  1  0  0  0  0
 32 35  2  0  0  0  0
 33 31  1  0  0  0  0
 34 33  1  0  0  0  0
 35 38  1  0  0  0  0
 36 34  1  0  0  0  0
 37 40  1  6  0  0  0
 37 36  1  0  0  0  0
 38 39  2  0  0  0  0
 38 33  1  0  0  0  0
 41 40  1  0  0  0  0
 43 42  1  6  0  0  0
 43 41  1  0  0  0  0
 44 45  2  0  0  0  0
 45 46  1  0  0  0  0
 45 43  1  0  0  0  0
 47 48  1  0  0  0  0
 48 49  1  0  0  0  0
 49 50  2  0  0  0  0
M  END
>  <MODEL>
5

>  <REMARK>
 VINA RESULT:      -2.4      2.682      4.195
  Name = 
  18 active torsions:
  status: ('A' for Active; 'I' for Inactive)
    1  A    between atoms: C_4  and  C_7
    2  A    between atoms: C_4  and  C_43
    3  A    between atoms: C_4  and  O_44
    4  A    between atoms: O_5  and  C_15
    5  A    between atoms: O_5  and  C_36
    6  A    between atoms: C_6  and  C_48
    7  A    between atoms: C_7  and  O_45
    8  A    between atoms: C_9  and  C_40
    9  A    between atoms: C_11  and  C_25
   10  A    between atoms: C_11  and  C_29
   11  A    between atoms: N_12  and  C_36
   12  A    between atoms: C_15  and  C_39
   13  A    between atoms: C_21  and  C_49
   14  A    between atoms: C_23  and  C_25
   15  A    between atoms: C_29  and  C_34
   16  A    between atoms: N_33  and  O_45
   17  A    between atoms: C_39  and  O_44
   18  A    between atoms: C_43  and  C_49
                            x       y       z     vdW  Elec       q    Type
                         _______ _______ _______ _____ _____    ______ ____

>  <TORSDO>
F 18

$$$$
=
 OpenBabel11072412063D

 50 54  0  0  1  0  0  0  0  0999 V2000
  161.4750  209.1810  152.3510 C   0  0  1  0  0  3  0  0  0  0  0  0
  159.4040  210.2840  152.8370 O   0  0  0  0  0  1  0  0  0  0  0  0
  160.7450  210.5100  152.5220 C   0  0  1  0  0  3  0  0  0  0  0  0
  161.4150  211.3190  153.6360 C   0  0  0  0  0  2  0  0  0  0  0  0
  159.6300  213.6930  154.2660 C   0  0  0  0  0  2  0  0  0  0  0  0
  160.0750  212.7090  155.3210 C   0  0  2  0  0  0  0  0  0  0  0  0
  160.6230  213.2270  156.6180 C   0  0  0  0  0  2  0  0  0  0  0  0
  160.6440  211.3460  154.9630 C   0  0  2  0  0  3  0  0  0  0  0  0
  161.5260  210.9820  156.1510 C   0  0  0  0  0  2  0  0  0  0  0  0
  158.5840  212.9720  155.1140 C   0  0  2  0  0  3  0  0  0  0  0  0
  161.2400  211.9950  157.2610 C   0  0  0  0  0  2  0  0  0  0  0  0
  157.2790  210.8550  155.2860 C   0  0  0  0  0  2  0  0  0  0  0  0
  157.8710  211.8820  154.2980 C   0  0  1  0  0  3  0  0  0  0  0  0
  155.7470  210.7420  155.2410 C   0  0  0  0  0  2  0  0  0  0  0  0
  155.6600  213.0940  154.2380 C   0  0  2  0  0  3  0  0  0  0  0  0
  158.3540  213.2610  151.7640 O   0  0  0  0  0  0  0  0  0  0  0  0
  157.2180  213.3820  152.2930 C   0  0  0  0  0  0  0  0  0  0  0  0
  154.6090  213.7700  153.4040 C   0  0  0  0  0  2  0  0  0  0  0  0
  156.7670  212.4540  153.3890 C   0  0  1  0  0  3  0  0  0  0  0  0
  156.2750  214.3090  151.7490 N   0  0  0  0  0  0  0  0  0  0  0  0
  154.9370  214.3810  152.2620 C   0  0  0  0  0  3  0  0  0  0  0  0
  155.0460  212.1170  155.2590 C   0  0  2  0  0  3  0  0  0  0  0  0
  155.0600  212.7260  156.6650 C   0  0  2  0  0  3  0  0  0  0  0  0
  153.7570  212.9350  157.1200 O   0  0  0  0  0  1  0  0  0  0  0  0
  155.7970  214.0540  156.6730 C   0  0  0  0  0  1  0  0  0  0  0  0
  160.5850  208.1100  152.4710 O   0  0  0  0  0  0  0  0  0  0  0  0
  160.3370  208.2390  154.7310 F   0  0  0  0  0  0  0  0  0  0  0  0
  160.8990  207.5140  153.6960 C   0  0  1  0  0  3  0  0  0  0  0  0
  160.3890  206.0840  153.7280 C   0  0  0  0  0  2  0  0  0  0  0  0
  161.3480  205.2100  153.2140 O   0  0  0  0  0  0  0  0  0  0  0  0
  162.0180  205.9450  152.2360 C   0  0  0  0  0  2  0  0  0  0  0  0
  160.7650  204.1500  148.4120 C   0  0  0  0  0  3  0  0  0  0  0  0
  161.9660  205.2360  150.9660 N   0  0  0  0  0  0  0  0  0  0  0  0
  162.8240  205.7160  149.8890 C   0  0  0  0  0  2  0  0  0  0  0  0
  160.9970  203.4080  149.4970 C   0  0  0  0  0  3  0  0  0  0  0  0
  162.0180  206.3480  148.7530 C   0  0  0  0  0  2  0  0  0  0  0  0
  160.6860  205.6490  148.4480 C   0  0  1  0  0  3  0  0  0  0  0  0
  161.2860  203.9720  150.8280 C   0  0  0  0  0  0  0  0  0  0  0  0
  160.9640  203.0420  152.1400 S   0  0  0  0  0  0  0  0  0  0  0  0
  160.0340  206.2150  147.1870 C   0  0  0  0  0  2  0  0  0  0  0  0
  161.0410  206.5660  146.0950 C   0  0  0  0  0  2  0  0  0  0  0  0
  161.3230  205.9820  143.7930 O   0  0  0  0  0  1  0  0  0  0  0  0
  161.1510  205.4490  145.0720 C   0  0  1  0  0  3  0  0  0  0  0  0
  162.0970  203.3210  145.6440 O   0  0  0  0  0  1  0  0  0  0  0  0
  162.2880  204.5460  145.4250 C   0  0  0  0  0  0  0  0  0  0  0  0
  163.5800  205.0530  145.4520 O   0  0  0  0  0  0  0  0  0  0  0  0
  162.1430  209.1300  150.9830 C   0  0  0  0  0  2  0  0  0  0  0  0
  161.7940  210.2830  150.2190 O   0  0  0  0  0  0  0  0  0  0  0  0
  161.6310  210.2510  148.8450 N   0  0  0  0  0  0  0  0  0  0  0  0
  161.7770  211.2950  148.0930 C   0  0  0  0  0  2  0  0  0  0  0  0
  1 47  1  6  0  0  0
  1 26  1  0  0  0  0
  1  3  1  0  0  0  0
  3  2  1  1  0  0  0
  3  4  1  0  0  0  0
  6  5  1  6  0  0  0
  6  7  1  0  0  0  0
  7 11  1  0  0  0  0
  8  4  1  6  0  0  0
  8  6  1  0  0  0  0
  8  9  1  0  0  0  0
  9 11  1  0  0  0  0
 10  5  1  6  0  0  0
 10  6  1  0  0  0  0
 13 10  1  0  0  0  0
 13 12  1  1  0  0  0
 14 22  1  0  0  0  0
 14 12  1  0  0  0  0
 15 18  1  6  0  0  0
 15 22  1  0  0  0  0
 16 17  2  0  0  0  0
 19 17  1  6  0  0  0
 19 15  1  0  0  0  0
 19 13  1  0  0  0  0
 20 21  2  0  0  0  0
 20 17  1  0  0  0  0
 21 18  1  0  0  0  0
 22 23  1  1  0  0  0
 23 25  1  6  0  0  0
 23 24  1  0  0  0  0
 26 28  1  0  0  0  0
 28 29  1  0  0  0  0
 28 27  1  1  0  0  0
 30 29  1  0  0  0  0
 31 30  1  0  0  0  0
 32 37  1  0  0  0  0
 32 35  2  0  0  0  0
 33 31  1  0  0  0  0
 34 33  1  0  0  0  0
 35 38  1  0  0  0  0
 36 34  1  0  0  0  0
 37 40  1  6  0  0  0
 37 36  1  0  0  0  0
 38 33  1  0  0  0  0
 38 39  2  0  0  0  0
 41 40  1  0  0  0  0
 43 42  1  6  0  0  0
 43 45  1  0  0  0  0
 43 41  1  0  0  0  0
 45 46  2  0  0  0  0
 45 44  1  0  0  0  0
 48 47  1  0  0  0  0
 49 48  1  0  0  0  0
 50 49  2  0  0  0  0
M  END
>  <MODEL>
6

>  <REMARK>
 VINA RESULT:      -2.3      3.545      9.125
  Name = 
  18 active torsions:
  status: ('A' for Active; 'I' for Inactive)
    1  A    between atoms: C_4  and  C_7
    2  A    between atoms: C_4  and  C_43
    3  A    between atoms: C_4  and  O_44
    4  A    between atoms: O_5  and  C_15
    5  A    between atoms: O_5  and  C_36
    6  A    between atoms: C_6  and  C_48
    7  A    between atoms: C_7  and  O_45
    8  A    between atoms: C_9  and  C_40
    9  A    between atoms: C_11  and  C_25
   10  A    between atoms: C_11  and  C_29
   11  A    between atoms: N_12  and  C_36
   12  A    between atoms: C_15  and  C_39
   13  A    between atoms: C_21  and  C_49
   14  A    between atoms: C_23  and  C_25
   15  A    between atoms: C_29  and  C_34
   16  A    between atoms: N_33  and  O_45
   17  A    between atoms: C_39  and  O_44
   18  A    between atoms: C_43  and  C_49
                            x       y       z     vdW  Elec       q    Type
                         _______ _______ _______ _____ _____    ______ ____

>  <TORSDO>
F 18

$$$$
=
 OpenBabel11072412063D

 50 54  0  0  1  0  0  0  0  0999 V2000
  162.1950  210.7390  149.4800 C   0  0  1  0  0  3  0  0  0  0  0  0
  162.4120  210.7190  151.8660 O   0  0  0  0  0  1  0  0  0  0  0  0
  161.5090  210.9490  150.8270 C   0  0  1  0  0  3  0  0  0  0  0  0
  160.9720  212.3800  150.9080 C   0  0  0  0  0  2  0  0  0  0  0  0
  159.1680  210.2060  152.0210 C   0  0  0  0  0  2  0  0  0  0  0  0
  159.0180  211.6600  152.4000 C   0  0  2  0  0  0  0  0  0  0  0  0
  157.6540  212.2850  152.3700 C   0  0  0  0  0  2  0  0  0  0  0  0
  160.1180  212.6760  152.1490 C   0  0  2  0  0  3  0  0  0  0  0  0
  159.3840  214.0080  152.0400 C   0  0  0  0  0  2  0  0  0  0  0  0
  159.2080  210.6090  153.4930 C   0  0  2  0  0  3  0  0  0  0  0  0
  157.9410  213.7730  152.4890 C   0  0  0  0  0  2  0  0  0  0  0  0
  160.9120  211.8410  154.8340 C   0  0  0  0  0  2  0  0  0  0  0  0
  160.6420  210.5430  154.0440 C   0  0  1  0  0  3  0  0  0  0  0  0
  161.2030  211.6250  156.3270 C   0  0  0  0  0  2  0  0  0  0  0  0
  159.9800  209.3820  156.1830 C   0  0  2  0  0  3  0  0  0  0  0  0
  161.0500  207.8230  153.0470 O   0  0  0  0  0  0  0  0  0  0  0  0
  160.7620  207.9680  154.2640 C   0  0  0  0  0  0  0  0  0  0  0  0
  160.0770  208.1500  157.0370 C   0  0  0  0  0  2  0  0  0  0  0  0
  160.8730  209.3090  154.9360 C   0  0  1  0  0  3  0  0  0  0  0  0
  160.4740  206.8210  155.0680 N   0  0  0  0  0  0  0  0  0  0  0  0
  160.2570  206.9500  156.4800 C   0  0  0  0  0  3  0  0  0  0  0  0
  160.1930  210.6710  157.0000 C   0  0  2  0  0  3  0  0  0  0  0  0
  158.8570  211.3740  157.2590 C   0  0  2  0  0  3  0  0  0  0  0  0
  157.8340  210.7610  156.5310 O   0  0  0  0  0  1  0  0  0  0  0  0
  158.9270  212.8370  156.8610 C   0  0  0  0  0  1  0  0  0  0  0  0
  161.5830  209.6990  148.7730 O   0  0  0  0  0  0  0  0  0  0  0  0
  160.9120  207.8800  149.9670 F   0  0  0  0  0  0  0  0  0  0  0  0
  162.0010  208.5300  149.4160 C   0  0  1  0  0  3  0  0  0  0  0  0
  162.7070  207.6150  148.4300 C   0  0  0  0  0  2  0  0  0  0  0  0
  161.8840  207.3460  147.3350 O   0  0  0  0  0  0  0  0  0  0  0  0
  162.5130  206.2980  146.6620 C   0  0  0  0  0  2  0  0  0  0  0  0
  160.8340  202.2420  147.0380 C   0  0  0  0  0  3  0  0  0  0  0  0
  161.6460  205.1290  146.6520 N   0  0  0  0  0  0  0  0  0  0  0  0
  160.4590  205.1610  147.4990 C   0  0  0  0  0  2  0  0  0  0  0  0
  161.1180  202.7800  145.8500 C   0  0  0  0  0  3  0  0  0  0  0  0
  160.5660  204.1850  148.6720 C   0  0  0  0  0  2  0  0  0  0  0  0
  161.2620  202.8580  148.3380 C   0  0  1  0  0  3  0  0  0  0  0  0
  161.8030  204.0750  145.6810 C   0  0  0  0  0  0  0  0  0  0  0  0
  162.6070  204.3370  144.2760 S   0  0  0  0  0  0  0  0  0  0  0  0
  161.1610  201.8680  149.4980 C   0  0  0  0  0  2  0  0  0  0  0  0
  160.2450  202.3480  150.6210 C   0  0  0  0  0  2  0  0  0  0  0  0
  162.3180  202.1310  151.7920 O   0  0  0  0  0  1  0  0  0  0  0  0
  161.0400  202.6890  151.8690 C   0  0  1  0  0  3  0  0  0  0  0  0
  162.2100  204.7330  152.3220 O   0  0  0  0  0  1  0  0  0  0  0  0
  161.1200  204.1730  152.0320 C   0  0  0  0  0  0  0  0  0  0  0  0
  159.9920  204.9470  151.8000 O   0  0  0  0  0  0  0  0  0  0  0  0
  162.1230  212.0190  148.6580 C   0  0  0  0  0  2  0  0  0  0  0  0
  161.0730  211.9310  147.6960 O   0  0  0  0  0  0  0  0  0  0  0  0
  161.2030  212.3980  146.4000 N   0  0  0  0  0  0  0  0  0  0  0  0
  160.2920  212.2280  145.4950 C   0  0  0  0  0  2  0  0  0  0  0  0
  1 47  1  6  0  0  0
  1  3  1  0  0  0  0
  3  4  1  0  0  0  0
  3  2  1  1  0  0  0
  6  5  1  6  0  0  0
  6 10  1  0  0  0  0
  7  6  1  0  0  0  0
  7 11  1  0  0  0  0
  8  4  1  6  0  0  0
  8  6  1  0  0  0  0
  9  8  1  0  0  0  0
  9 11  1  0  0  0  0
 10  5  1  6  0  0  0
 10 13  1  0  0  0  0
 12 14  1  0  0  0  0
 13 12  1  1  0  0  0
 13 19  1  0  0  0  0
 14 22  1  0  0  0  0
 15 22  1  0  0  0  0
 15 18  1  1  0  0  0
 16 17  2  0  0  0  0
 17 20  1  0  0  0  0
 19 17  1  6  0  0  0
 19 15  1  0  0  0  0
 20 21  2  0  0  0  0
 21 18  1  0  0  0  0
 22 23  1  6  0  0  0
 23 25  1  6  0  0  0
 24 23  1  0  0  0  0
 26 28  1  0  0  0  0
 26  1  1  0  0  0  0
 28 27  1  6  0  0  0
 29 28  1  0  0  0  0
 30 29  1  0  0  0  0
 31 30  1  0  0  0  0
 32 37  1  0  0  0  0
 33 31  1  0  0  0  0
 33 34  1  0  0  0  0
 34 36  1  0  0  0  0
 35 32  2  0  0  0  0
 37 36  1  0  0  0  0
 37 40  1  1  0  0  0
 38 35  1  0  0  0  0
 38 33  1  0  0  0  0
 39 38  2  0  0  0  0
 40 41  1  0  0  0  0
 41 43  1  0  0  0  0
 43 42  1  6  0  0  0
 43 45  1  0  0  0  0
 45 44  1  0  0  0  0
 46 45  2  0  0  0  0
 48 47  1  0  0  0  0
 49 48  1  0  0  0  0
 50 49  2  0  0  0  0
M  END
>  <MODEL>
7

>  <REMARK>
 VINA RESULT:      -2.2      3.201      9.287
  Name = 
  18 active torsions:
  status: ('A' for Active; 'I' for Inactive)
    1  A    between atoms: C_4  and  C_7
    2  A    between atoms: C_4  and  C_43
    3  A    between atoms: C_4  and  O_44
    4  A    between atoms: O_5  and  C_15
    5  A    between atoms: O_5  and  C_36
    6  A    between atoms: C_6  and  C_48
    7  A    between atoms: C_7  and  O_45
    8  A    between atoms: C_9  and  C_40
    9  A    between atoms: C_11  and  C_25
   10  A    between atoms: C_11  and  C_29
   11  A    between atoms: N_12  and  C_36
   12  A    between atoms: C_15  and  C_39
   13  A    between atoms: C_21  and  C_49
   14  A    between atoms: C_23  and  C_25
   15  A    between atoms: C_29  and  C_34
   16  A    between atoms: N_33  and  O_45
   17  A    between atoms: C_39  and  O_44
   18  A    between atoms: C_43  and  C_49
                            x       y       z     vdW  Elec       q    Type
                         _______ _______ _______ _____ _____    ______ ____

>  <TORSDO>
F 18

$$$$
=
 OpenBabel11072412063D

 50 54  0  0  1  0  0  0  0  0999 V2000
  162.3300  209.6880  149.7070 C   0  0  1  0  0  3  0  0  0  0  0  0
  162.2920  208.2010  147.8280 O   0  0  0  0  0  1  0  0  0  0  0  0
  162.0830  208.2680  149.2070 C   0  0  1  0  0  3  0  0  0  0  0  0
  163.0290  207.3030  149.9270 C   0  0  0  0  0  2  0  0  0  0  0  0
  160.4670  206.2030  148.7240 C   0  0  0  0  0  2  0  0  0  0  0  0
  160.9130  205.8730  150.1290 C   0  0  2  0  0  0  0  0  0  0  0  0
  159.9240  205.9780  151.2520 C   0  0  0  0  0  2  0  0  0  0  0  0
  162.3390  206.1080  150.5980 C   0  0  2  0  0  3  0  0  0  0  0  0
  162.2140  206.2850  152.1070 C   0  0  0  0  0  2  0  0  0  0  0  0
  160.6300  204.7420  149.1400 C   0  0  2  0  0  3  0  0  0  0  0  0
  160.7900  205.8890  152.4990 C   0  0  0  0  0  2  0  0  0  0  0  0
  162.4580  203.0880  149.5080 C   0  0  0  0  0  2  0  0  0  0  0  0
  161.8970  204.1320  148.5200 C   0  0  1  0  0  3  0  0  0  0  0  0
  162.4880  201.6510  148.9640 C   0  0  0  0  0  2  0  0  0  0  0  0
  160.6600  202.3050  147.2980 C   0  0  2  0  0  3  0  0  0  0  0  0
  161.5630  205.6160  146.0220 O   0  0  0  0  0  0  0  0  0  0  0  0
  161.1910  204.4140  146.0470 C   0  0  0  0  0  0  0  0  0  0  0  0
  160.2710  201.7050  145.9770 C   0  0  0  0  0  2  0  0  0  0  0  0
  161.6290  203.4870  147.1480 C   0  0  1  0  0  3  0  0  0  0  0  0
  160.4700  203.8690  144.9390 N   0  0  0  0  0  0  0  0  0  0  0  0
  160.1370  202.4750  144.8940 C   0  0  0  0  0  3  0  0  0  0  0  0
  161.1610  201.2400  148.2920 C   0  0  2  0  0  3  0  0  0  0  0  0
  160.0850  200.9280  149.3370 C   0  0  2  0  0  3  0  0  0  0  0  0
  158.8650  201.4960  148.9660 O   0  0  0  0  0  1  0  0  0  0  0  0
  160.4790  201.4690  150.6990 C   0  0  0  0  0  1  0  0  0  0  0  0
  161.4110  210.5760  149.1400 O   0  0  0  0  0  0  0  0  0  0  0  0
  163.1790  211.2510  147.8730 F   0  0  0  0  0  0  0  0  0  0  0  0
  162.1750  211.6720  148.7260 C   0  0  1  0  0  3  0  0  0  0  0  0
  161.2930  212.6900  148.0250 C   0  0  0  0  0  2  0  0  0  0  0  0
  161.2130  212.4140  146.6600 O   0  0  0  0  0  0  0  0  0  0  0  0
  160.2500  213.2970  146.1700 C   0  0  0  0  0  2  0  0  0  0  0  0
  161.6590  213.2930  141.9950 C   0  0  0  0  0  3  0  0  0  0  0  0
  160.5550  213.6400  144.7890 N   0  0  0  0  0  0  0  0  0  0  0  0
  159.4330  213.8760  143.8880 C   0  0  0  0  0  2  0  0  0  0  0  0
  162.2420  214.0400  142.9360 C   0  0  0  0  0  3  0  0  0  0  0  0
  159.3040  212.7750  142.8340 C   0  0  0  0  0  2  0  0  0  0  0  0
  160.6400  212.2350  142.3060 C   0  0  1  0  0  3  0  0  0  0  0  0
  161.8940  213.9720  144.3670 C   0  0  0  0  0  0  0  0  0  0  0  0
  163.0250  214.4510  145.4530 S   0  0  0  0  0  0  0  0  0  0  0  0
  160.4310  211.2820  141.1290 C   0  0  0  0  0  2  0  0  0  0  0  0
  161.7320  210.9000  140.4270 C   0  0  0  0  0  2  0  0  0  0  0  0
  162.4160  210.6360  138.1510 O   0  0  0  0  0  1  0  0  0  0  0  0
  161.4570  210.2420  139.0860 C   0  0  1  0  0  3  0  0  0  0  0  0
  160.6770  208.0390  138.5490 O   0  0  0  0  0  0  0  0  0  0  0  0
  161.4480  208.7560  139.2400 C   0  0  0  0  0  0  0  0  0  0  0  0
  162.3450  208.1540  140.1110 O   0  0  0  0  0  1  0  0  0  0  0  0
  162.2020  209.7320  151.2240 C   0  0  0  0  0  2  0  0  0  0  0  0
  161.0310  210.4510  151.6020 O   0  0  0  0  0  0  0  0  0  0  0  0
  160.7020  210.7080  152.9220 N   0  0  0  0  0  0  0  0  0  0  0  0
  159.5940  211.2780  153.2740 C   0  0  0  0  0  2  0  0  0  0  0  0
  1 47  1  1  0  0  0
  3  2  1  6  0  0  0
  3  1  1  0  0  0  0
  3  4  1  0  0  0  0
  6  5  1  6  0  0  0
  6  8  1  0  0  0  0
  6  7  1  0  0  0  0
  7 11  1  0  0  0  0
  8  4  1  6  0  0  0
  8  9  1  0  0  0  0
  9 11  1  0  0  0  0
 10  5  1  6  0  0  0
 10  6  1  0  0  0  0
 13 10  1  0  0  0  0
 13 12  1  1  0  0  0
 14 12  1  0  0  0  0
 15 18  1  6  0  0  0
 15 22  1  0  0  0  0
 16 17  2  0  0  0  0
 19 17  1  6  0  0  0
 19 15  1  0  0  0  0
 19 13  1  0  0  0  0
 20 17  1  0  0  0  0
 21 20  2  0  0  0  0
 21 18  1  0  0  0  0
 22 14  1  0  0  0  0
 22 23  1  1  0  0  0
 23 25  1  1  0  0  0
 24 23  1  0  0  0  0
 26  1  1  0  0  0  0
 28 27  1  6  0  0  0
 28 26  1  0  0  0  0
 29 28  1  0  0  0  0
 30 29  1  0  0  0  0
 31 30  1  0  0  0  0
 32 37  1  0  0  0  0
 32 35  2  0  0  0  0
 33 31  1  0  0  0  0
 34 33  1  0  0  0  0
 35 38  1  0  0  0  0
 36 34  1  0  0  0  0
 37 40  1  6  0  0  0
 37 36  1  0  0  0  0
 38 33  1  0  0  0  0
 38 39  2  0  0  0  0
 41 40  1  0  0  0  0
 43 42  1  6  0  0  0
 43 45  1  0  0  0  0
 43 41  1  0  0  0  0
 44 45  2  0  0  0  0
 45 46  1  0  0  0  0
 47 48  1  0  0  0  0
 48 49  1  0  0  0  0
 49 50  2  0  0  0  0
M  END
>  <MODEL>
8

>  <REMARK>
 VINA RESULT:      -2.1      2.966      4.996
  Name = 
  18 active torsions:
  status: ('A' for Active; 'I' for Inactive)
    1  A    between atoms: C_4  and  C_7
    2  A    between atoms: C_4  and  C_43
    3  A    between atoms: C_4  and  O_44
    4  A    between atoms: O_5  and  C_15
    5  A    between atoms: O_5  and  C_36
    6  A    between atoms: C_6  and  C_48
    7  A    between atoms: C_7  and  O_45
    8  A    between atoms: C_9  and  C_40
    9  A    between atoms: C_11  and  C_25
   10  A    between atoms: C_11  and  C_29
   11  A    between atoms: N_12  and  C_36
   12  A    between atoms: C_15  and  C_39
   13  A    between atoms: C_21  and  C_49
   14  A    between atoms: C_23  and  C_25
   15  A    between atoms: C_29  and  C_34
   16  A    between atoms: N_33  and  O_45
   17  A    between atoms: C_39  and  O_44
   18  A    between atoms: C_43  and  C_49
                            x       y       z     vdW  Elec       q    Type
                         _______ _______ _______ _____ _____    ______ ____

>  <TORSDO>
F 18

$$$$
=
 OpenBabel11072412063D

 50 54  0  0  1  0  0  0  0  0999 V2000
  162.3010  209.9480  151.6490 C   0  0  1  0  0  3  0  0  0  0  0  0
  161.7200  208.7480  153.6410 O   0  0  0  0  0  1  0  0  0  0  0  0
  161.3090  209.7810  152.7970 C   0  0  1  0  0  3  0  0  0  0  0  0
  161.2130  211.0920  153.5820 C   0  0  0  0  0  2  0  0  0  0  0  0
  159.6370  213.3610  154.8430 C   0  0  0  0  0  2  0  0  0  0  0  0
  160.2460  212.2440  155.6570 C   0  0  2  0  0  0  0  0  0  0  0  0
  161.0390  212.5840  156.8840 C   0  0  0  0  0  2  0  0  0  0  0  0
  160.7040  210.9410  155.0220 C   0  0  2  0  0  3  0  0  0  0  0  0
  161.7820  210.4210  155.9660 C   0  0  0  0  0  2  0  0  0  0  0  0
  158.7500  212.5330  155.7700 C   0  0  2  0  0  3  0  0  0  0  0  0
  161.7340  211.2770  157.2320 C   0  0  0  0  0  2  0  0  0  0  0  0
  156.9500  210.8180  155.9590 C   0  0  0  0  0  2  0  0  0  0  0  0
  157.8700  211.5610  154.9670 C   0  0  1  0  0  3  0  0  0  0  0  0
  155.4490  211.0670  155.7410 C   0  0  0  0  0  2  0  0  0  0  0  0
  156.0440  213.2490  154.5460 C   0  0  2  0  0  3  0  0  0  0  0  0
  158.9190  212.5030  152.4050 O   0  0  0  0  0  0  0  0  0  0  0  0
  157.8030  212.9470  152.7840 C   0  0  0  0  0  0  0  0  0  0  0  0
  155.2790  214.0620  153.5400 C   0  0  0  0  0  2  0  0  0  0  0  0
  157.0340  212.2770  153.8890 C   0  0  1  0  0  3  0  0  0  0  0  0
  157.1760  214.0070  152.0570 N   0  0  0  0  0  0  0  0  0  0  0  0
  155.8550  214.4500  152.4000 C   0  0  0  0  0  3  0  0  0  0  0  0
  155.1130  212.5630  155.5630 C   0  0  2  0  0  3  0  0  0  0  0  0
  155.1430  213.3000  156.9060 C   0  0  2  0  0  3  0  0  0  0  0  0
  153.8790  213.8040  157.2150 O   0  0  0  0  0  1  0  0  0  0  0  0
  156.1310  214.4520  156.8700 C   0  0  0  0  0  1  0  0  0  0  0  0
  162.8180  208.7090  151.2610 O   0  0  0  0  0  0  0  0  0  0  0  0
  160.5490  208.5440  151.1410 F   0  0  0  0  0  0  0  0  0  0  0  0
  161.7270  207.8350  151.2960 C   0  0  1  0  0  3  0  0  0  0  0  0
  161.8550  206.7950  150.1970 C   0  0  0  0  0  2  0  0  0  0  0  0
  160.6870  206.7390  149.4350 O   0  0  0  0  0  0  0  0  0  0  0  0
  159.9740  205.6540  149.9470 C   0  0  0  0  0  2  0  0  0  0  0  0
  161.4590  201.5090  149.7720 C   0  0  0  0  0  3  0  0  0  0  0  0
  160.8030  204.4580  149.9060 N   0  0  0  0  0  0  0  0  0  0  0  0
  161.7140  204.3060  148.7770 C   0  0  0  0  0  2  0  0  0  0  0  0
  161.5140  202.2310  150.8930 C   0  0  0  0  0  3  0  0  0  0  0  0
  161.2840  203.1730  147.8430 C   0  0  0  0  0  2  0  0  0  0  0  0
  160.6970  201.9460  148.5540 C   0  0  1  0  0  3  0  0  0  0  0  0
  160.9090  203.5690  151.0360 C   0  0  0  0  0  0  0  0  0  0  0  0
  160.5220  204.0760  152.5460 S   0  0  0  0  0  0  0  0  0  0  0  0
  160.4700  200.7910  147.5790 C   0  0  0  0  0  2  0  0  0  0  0  0
  161.1470  201.0050  146.2270 C   0  0  0  0  0  2  0  0  0  0  0  0
  158.8520  201.3790  145.6710 O   0  0  0  0  0  1  0  0  0  0  0  0
  160.1570  201.5120  145.1930 C   0  0  1  0  0  3  0  0  0  0  0  0
  159.5780  203.6770  144.3410 O   0  0  0  0  0  0  0  0  0  0  0  0
  160.4550  202.9380  144.8590 C   0  0  0  0  0  0  0  0  0  0  0  0
  161.6960  203.4690  145.1830 O   0  0  0  0  0  1  0  0  0  0  0  0
  161.6100  210.6010  150.4590 C   0  0  0  0  0  2  0  0  0  0  0  0
  162.5650  210.9420  149.4570 O   0  0  0  0  0  0  0  0  0  0  0  0
  162.2060  211.4010  148.2030 N   0  0  0  0  0  0  0  0  0  0  0  0
  161.0820  212.0000  147.9660 C   0  0  0  0  0  2  0  0  0  0  0  0
  1 47  1  6  0  0  0
  1  3  1  0  0  0  0
  3  4  1  0  0  0  0
  3  2  1  1  0  0  0
  6  5  1  6  0  0  0
  6 10  1  0  0  0  0
  6  7  1  0  0  0  0
  7 11  1  0  0  0  0
  8  4  1  6  0  0  0
  8  6  1  0  0  0  0
  8  9  1  0  0  0  0
  9 11  1  0  0  0  0
 10  5  1  6  0  0  0
 13 10  1  0  0  0  0
 13 12  1  1  0  0  0
 14 12  1  0  0  0  0
 15 18  1  6  0  0  0
 15 22  1  0  0  0  0
 16 17  2  0  0  0  0
 19 17  1  6  0  0  0
 19 15  1  0  0  0  0
 19 13  1  0  0  0  0
 20 21  2  0  0  0  0
 20 17  1  0  0  0  0
 21 18  1  0  0  0  0
 22 14  1  0  0  0  0
 22 23  1  1  0  0  0
 23 25  1  6  0  0  0
 23 24  1  0  0  0  0
 26 28  1  0  0  0  0
 26  1  1  0  0  0  0
 28 27  1  6  0  0  0
 29 28  1  0  0  0  0
 30 31  1  0  0  0  0
 30 29  1  0  0  0  0
 32 35  2  0  0  0  0
 33 31  1  0  0  0  0
 33 38  1  0  0  0  0
 34 33  1  0  0  0  0
 35 38  1  0  0  0  0
 36 37  1  0  0  0  0
 36 34  1  0  0  0  0
 37 40  1  6  0  0  0
 37 32  1  0  0  0  0
 38 39  2  0  0  0  0
 41 40  1  0  0  0  0
 43 42  1  1  0  0  0
 43 41  1  0  0  0  0
 44 45  2  0  0  0  0
 45 46  1  0  0  0  0
 45 43  1  0  0  0  0
 48 47  1  0  0  0  0
 49 48  1  0  0  0  0
 50 49  2  0  0  0  0
M  END
>  <MODEL>
9

>  <REMARK>
 VINA RESULT:      -1.8      3.475      9.884
  Name = 
  18 active torsions:
  status: ('A' for Active; 'I' for Inactive)
    1  A    between atoms: C_4  and  C_7
    2  A    between atoms: C_4  and  C_43
    3  A    between atoms: C_4  and  O_44
    4  A    between atoms: O_5  and  C_15
    5  A    between atoms: O_5  and  C_36
    6  A    between atoms: C_6  and  C_48
    7  A    between atoms: C_7  and  O_45
    8  A    between atoms: C_9  and  C_40
    9  A    between atoms: C_11  and  C_25
   10  A    between atoms: C_11  and  C_29
   11  A    between atoms: N_12  and  C_36
   12  A    between atoms: C_15  and  C_39
   13  A    between atoms: C_21  and  C_49
   14  A    between atoms: C_23  and  C_25
   15  A    between atoms: C_29  and  C_34
   16  A    between atoms: N_33  and  O_45
   17  A    between atoms: C_39  and  O_44
   18  A    between atoms: C_43  and  C_49
                            x       y       z     vdW  Elec       q    Type
                         _______ _______ _______ _____ _____    ______ ____

>  <TORSDO>
F 18

$$$$
