=
 OpenBabel11072414223D

 26 29  0  0  1  0  0  0  0  0999 V2000
  161.2180  207.5100  150.3520 C   0  0  0  0  0  0  0  0  0  0  0  0
  162.1190  208.2700  148.1520 N   0  0  0  0  0  0  0  0  0  0  0  0
  160.8030  206.2040  148.3270 C   0  0  2  0  0  3  0  0  0  0  0  0
  161.6660  207.1960  147.5830 C   0  0  0  0  0  3  0  0  0  0  0  0
  160.7700  206.4330  149.7780 N   0  0  0  0  0  0  0  0  0  0  0  0
  162.2630  209.6220  150.0440 O   0  0  0  0  0  0  0  0  0  0  0  0
  161.8770  208.5370  149.5350 C   0  0  0  0  0  0  0  0  0  0  0  0
  161.0650  201.2860  149.6550 C   0  0  0  0  0  2  0  0  0  0  0  0
  159.6570  201.8230  149.4420 C   0  0  0  0  0  2  0  0  0  0  0  0
  161.2720  203.7970  149.1500 C   0  0  0  0  0  2  0  0  0  0  0  0
  160.8190  202.4120  148.6810 C   0  0  0  0  0  0  0  0  0  0  0  0
  161.4570  204.4090  146.7570 C   0  0  0  0  0  3  0  0  0  0  0  0
  160.8910  202.0290  147.2020 C   0  0  0  0  0  2  0  0  0  0  0  0
  161.8210  202.9820  146.4510 C   0  0  0  0  0  2  0  0  0  0  0  0
  161.2070  204.7950  148.0220 C   0  0  0  0  0  0  0  0  0  0  0  0
  161.1300  207.6700  151.8470 C   0  0  2  0  0  3  0  0  0  0  0  0
  161.7160  209.1690  153.7850 C   0  0  0  0  0  2  0  0  0  0  0  0
  160.5570  211.2370  154.0390 C   0  0  0  0  0  2  0  0  0  0  0  0
  161.8420  210.5620  154.2140 N   0  0  0  0  0  2  0  0  0  0  0  0
  160.0980  211.0930  152.5860 C   0  0  0  0  0  2  0  0  0  0  0  0
  161.1860  209.1190  152.3460 C   0  0  2  0  0  3  0  0  0  0  0  0
  159.9180  209.7320  152.2800 O   0  0  0  0  0  0  0  0  0  0  0  0
  162.0250  206.7040  152.6290 C   0  0  0  0  0  2  0  0  0  0  0  0
  161.2750  205.6170  153.3290 C   0  0  0  0  0  0  0  0  0  0  0  0
  160.8110  205.8120  154.4820 O   0  0  0  0  0  0  0  0  0  0  0  0
  161.0840  204.3590  152.6930 N   0  0  0  0  0  1  0  0  0  0  0  0
  1 16  1  0  0  0  0
  2  7  1  0  0  0  0
  3 15  1  1  0  0  0
  3  5  1  0  0  0  0
  4  2  2  0  0  0  0
  4  3  1  0  0  0  0
  5  1  2  0  0  0  0
  7  6  2  0  0  0  0
  7  1  1  0  0  0  0
  9  8  1  0  0  0  0
 11 10  1  0  0  0  0
 11  9  1  0  0  0  0
 11  8  1  0  0  0  0
 12 15  2  0  0  0  0
 13 11  1  0  0  0  0
 14 12  1  0  0  0  0
 14 13  1  0  0  0  0
 15 10  1  0  0  0  0
 16 23  1  1  0  0  0
 17 19  1  0  0  0  0
 18 19  1  0  0  0  0
 20 18  1  0  0  0  0
 21 16  1  1  0  0  0
 21 17  1  0  0  0  0
 22 21  1  0  0  0  0
 22 20  1  0  0  0  0
 23 24  1  0  0  0  0
 24 25  2  0  0  0  0
 26 24  1  0  0  0  0
M  END
>  <MODEL>
1

>  <REMARK>
 VINA RESULT:      -8.3      0.000      0.000
  Name = 
  5 active torsions:
  status: ('A' for Active; 'I' for Inactive)
    1  A    between atoms: C_4  and  C_5
    2  A    between atoms: C_5  and  C_25
    3  A    between atoms: C_9  and  C_25
    4  A    between atoms: C_12  and  C_25
    5  A    between atoms: C_17  and  C_26
                            x       y       z     vdW  Elec       q    Type
                         _______ _______ _______ _____ _____    ______ ____

>  <TORSDO>
F 5

$$$$
=
 OpenBabel11072414223D

 26 29  0  0  1  0  0  0  0  0999 V2000
  161.1040  208.1620  151.3290 C   0  0  0  0  0  0  0  0  0  0  0  0
  162.6040  208.8720  149.4640 N   0  0  0  0  0  0  0  0  0  0  0  0
  160.7430  207.3210  149.0610 C   0  0  2  0  0  3  0  0  0  0  0  0
  161.9840  208.0770  148.6470 C   0  0  0  0  0  3  0  0  0  0  0  0
  160.4890  207.3630  150.5070 N   0  0  0  0  0  0  0  0  0  0  0  0
  162.7510  209.8590  151.5700 O   0  0  0  0  0  0  0  0  0  0  0  0
  162.1790  209.0240  150.8200 C   0  0  0  0  0  0  0  0  0  0  0  0
  161.6290  203.9450  145.3410 C   0  0  0  0  0  2  0  0  0  0  0  0
  162.8570  204.6940  145.8390 C   0  0  0  0  0  2  0  0  0  0  0  0
  160.8270  205.6540  147.0840 C   0  0  0  0  0  2  0  0  0  0  0  0
  161.6960  204.4340  146.7680 C   0  0  0  0  0  0  0  0  0  0  0  0
  160.8180  204.8790  149.4370 C   0  0  0  0  0  3  0  0  0  0  0  0
  161.9350  203.3530  147.8230 C   0  0  0  0  0  2  0  0  0  0  0  0
  160.8960  203.4620  148.9390 C   0  0  0  0  0  2  0  0  0  0  0  0
  160.7780  205.9070  148.5700 C   0  0  0  0  0  0  0  0  0  0  0  0
  160.7700  208.1510  152.7970 C   0  0  2  0  0  3  0  0  0  0  0  0
  160.3500  209.4030  154.9420 C   0  0  0  0  0  2  0  0  0  0  0  0
  159.4030  211.5890  154.8380 C   0  0  0  0  0  2  0  0  0  0  0  0
  160.3380  210.7280  155.5620 N   0  0  0  0  0  2  0  0  0  0  0  0
  159.7790  211.6200  153.3550 C   0  0  0  0  0  2  0  0  0  0  0  0
  160.6660  209.5360  153.4470 C   0  0  2  0  0  3  0  0  0  0  0  0
  159.6820  210.3250  152.8160 O   0  0  0  0  0  0  0  0  0  0  0  0
  161.5810  207.1370  153.6100 C   0  0  0  0  0  2  0  0  0  0  0  0
  161.9290  205.8960  152.8540 C   0  0  0  0  0  0  0  0  0  0  0  0
  162.9740  205.8550  152.1540 O   0  0  0  0  0  0  0  0  0  0  0  0
  161.0780  204.7580  152.9220 N   0  0  0  0  0  1  0  0  0  0  0  0
  1 16  1  0  0  0  0
  2  7  1  0  0  0  0
  3 15  1  1  0  0  0
  3  5  1  0  0  0  0
  4  3  1  0  0  0  0
  4  2  2  0  0  0  0
  5  1  2  0  0  0  0
  7  1  1  0  0  0  0
  7  6  2  0  0  0  0
  8  9  1  0  0  0  0
  8 11  1  0  0  0  0
  9 11  1  0  0  0  0
 10 15  1  0  0  0  0
 11 10  1  0  0  0  0
 11 13  1  0  0  0  0
 13 14  1  0  0  0  0
 14 12  1  0  0  0  0
 15 12  2  0  0  0  0
 16 23  1  1  0  0  0
 17 19  1  0  0  0  0
 18 19  1  0  0  0  0
 20 18  1  0  0  0  0
 21 16  1  6  0  0  0
 21 17  1  0  0  0  0
 22 20  1  0  0  0  0
 22 21  1  0  0  0  0
 24 26  1  0  0  0  0
 24 23  1  0  0  0  0
 25 24  2  0  0  0  0
M  END
>  <MODEL>
2

>  <REMARK>
 VINA RESULT:      -7.8      1.403      2.270
  Name = 
  5 active torsions:
  status: ('A' for Active; 'I' for Inactive)
    1  A    between atoms: C_4  and  C_5
    2  A    between atoms: C_5  and  C_25
    3  A    between atoms: C_9  and  C_25
    4  A    between atoms: C_12  and  C_25
    5  A    between atoms: C_17  and  C_26
                            x       y       z     vdW  Elec       q    Type
                         _______ _______ _______ _____ _____    ______ ____

>  <TORSDO>
F 5

$$$$
=
 OpenBabel11072414223D

 26 29  0  0  1  0  0  0  0  0999 V2000
  161.6040  205.7800  148.0700 C   0  0  0  0  0  0  0  0  0  0  0  0
  161.1470  208.2300  147.9260 N   0  0  0  0  0  0  0  0  0  0  0  0
  162.5060  207.3080  149.7530 C   0  0  2  0  0  3  0  0  0  0  0  0
  161.7670  208.4230  149.0490 C   0  0  0  0  0  3  0  0  0  0  0  0
  162.2190  205.9780  149.1980 N   0  0  0  0  0  0  0  0  0  0  0  0
  160.5360  206.7880  146.2010 O   0  0  0  0  0  0  0  0  0  0  0  0
  161.0780  206.9340  147.3290 C   0  0  0  0  0  0  0  0  0  0  0  0
  161.2070  209.8480  153.9820 C   0  0  0  0  0  2  0  0  0  0  0  0
  160.1050  209.7250  152.9390 C   0  0  0  0  0  2  0  0  0  0  0  0
  162.2170  208.6610  151.9390 C   0  0  0  0  0  2  0  0  0  0  0  0
  161.1680  208.6590  153.0530 C   0  0  0  0  0  0  0  0  0  0  0  0
  162.0020  206.1940  151.9020 C   0  0  0  0  0  3  0  0  0  0  0  0
  160.7070  207.3440  153.6850 C   0  0  0  0  0  2  0  0  0  0  0  0
  161.7040  206.2280  153.3760 C   0  0  0  0  0  2  0  0  0  0  0  0
  162.2500  207.3320  151.2280 C   0  0  0  0  0  0  0  0  0  0  0  0
  161.3660  204.3810  147.5660 C   0  0  2  0  0  3  0  0  0  0  0  0
  161.0730  201.9230  148.0350 C   0  0  0  0  0  2  0  0  0  0  0  0
  160.3960  201.2350  150.2160 C   0  0  0  0  0  2  0  0  0  0  0  0
  161.2120  200.8830  149.0550 N   0  0  0  0  0  2  0  0  0  0  0  0
  160.7910  202.6260  150.7150 C   0  0  0  0  0  2  0  0  0  0  0  0
  161.4210  203.2890  148.6420 C   0  0  2  0  0  3  0  0  0  0  0  0
  160.5460  203.5780  149.7090 O   0  0  0  0  0  0  0  0  0  0  0  0
  162.1390  204.0400  146.2880 C   0  0  0  0  0  2  0  0  0  0  0  0
  161.2750  203.9210  145.0740 C   0  0  0  0  0  0  0  0  0  0  0  0
  160.5250  202.9220  144.9290 O   0  0  0  0  0  0  0  0  0  0  0  0
  161.3020  204.9370  144.0790 N   0  0  0  0  0  1  0  0  0  0  0  0
  1  5  2  0  0  0  0
  2  4  2  0  0  0  0
  3 15  1  1  0  0  0
  4  3  1  0  0  0  0
  5  3  1  0  0  0  0
  6  7  2  0  0  0  0
  7  2  1  0  0  0  0
  7  1  1  0  0  0  0
  9 11  1  0  0  0  0
  9  8  1  0  0  0  0
 10 11  1  0  0  0  0
 11 13  1  0  0  0  0
 11  8  1  0  0  0  0
 12 14  1  0  0  0  0
 14 13  1  0  0  0  0
 15 12  2  0  0  0  0
 15 10  1  0  0  0  0
 16 23  1  6  0  0  0
 16  1  1  0  0  0  0
 17 21  1  0  0  0  0
 17 19  1  0  0  0  0
 18 20  1  0  0  0  0
 19 18  1  0  0  0  0
 21 16  1  6  0  0  0
 21 22  1  0  0  0  0
 22 20  1  0  0  0  0
 24 23  1  0  0  0  0
 25 24  2  0  0  0  0
 26 24  1  0  0  0  0
M  END
>  <MODEL>
3

>  <REMARK>
 VINA RESULT:      -7.8      2.836      7.074
  Name = 
  5 active torsions:
  status: ('A' for Active; 'I' for Inactive)
    1  A    between atoms: C_4  and  C_5
    2  A    between atoms: C_5  and  C_25
    3  A    between atoms: C_9  and  C_25
    4  A    between atoms: C_12  and  C_25
    5  A    between atoms: C_17  and  C_26
                            x       y       z     vdW  Elec       q    Type
                         _______ _______ _______ _____ _____    ______ ____

>  <TORSDO>
F 5

$$$$
=
 OpenBabel11072414223D

 26 29  0  0  1  0  0  0  0  0999 V2000
  161.5800  207.0320  152.1750 C   0  0  0  0  0  0  0  0  0  0  0  0
  160.9280  205.0410  153.5320 N   0  0  0  0  0  0  0  0  0  0  0  0
  161.9060  204.7740  151.2940 C   0  0  2  0  0  3  0  0  0  0  0  0
  161.2460  204.2540  152.5500 C   0  0  0  0  0  3  0  0  0  0  0  0
  161.8910  206.2400  151.1920 N   0  0  0  0  0  0  0  0  0  0  0  0
  160.8840  207.1840  154.4420 O   0  0  0  0  0  0  0  0  0  0  0  0
  161.1300  206.4520  153.4470 C   0  0  0  0  0  0  0  0  0  0  0  0
  161.1360  204.7840  146.2520 C   0  0  0  0  0  2  0  0  0  0  0  0
  162.5810  204.5780  146.6830 C   0  0  0  0  0  2  0  0  0  0  0  0
  161.2030  204.9790  148.8130 C   0  0  0  0  0  2  0  0  0  0  0  0
  161.4490  204.1200  147.5710 C   0  0  0  0  0  0  0  0  0  0  0  0
  160.9280  202.8620  150.0690 C   0  0  0  0  0  3  0  0  0  0  0  0
  161.2280  202.6070  147.6140 C   0  0  0  0  0  2  0  0  0  0  0  0
  160.3710  202.2310  148.8230 C   0  0  0  0  0  2  0  0  0  0  0  0
  161.3110  204.1520  150.0690 C   0  0  0  0  0  0  0  0  0  0  0  0
  161.6070  208.5260  151.9880 C   0  0  2  0  0  3  0  0  0  0  0  0
  159.9090  210.1390  152.9160 C   0  0  0  0  0  2  0  0  0  0  0  0
  160.5730  211.6590  154.6300 C   0  0  0  0  0  2  0  0  0  0  0  0
  159.4720  210.8400  154.1240 N   0  0  0  0  0  2  0  0  0  0  0  0
  161.8030  210.7770  154.8560 C   0  0  0  0  0  2  0  0  0  0  0  0
  161.1830  209.3390  153.2180 C   0  0  2  0  0  3  0  0  0  0  0  0
  162.2100  210.2100  153.6350 O   0  0  0  0  0  0  0  0  0  0  0  0
  160.9740  209.0000  150.6760 C   0  0  0  0  0  2  0  0  0  0  0  0
  161.9640  209.4990  149.6740 C   0  0  0  0  0  0  0  0  0  0  0  0
  162.3710  210.6890  149.7280 O   0  0  0  0  0  0  0  0  0  0  0  0
  162.4480  208.6310  148.6560 N   0  0  0  0  0  1  0  0  0  0  0  0
  1  7  1  0  0  0  0
  3 15  1  6  0  0  0
  3  4  1  0  0  0  0
  4  2  2  0  0  0  0
  5  3  1  0  0  0  0
  5  1  2  0  0  0  0
  7  2  1  0  0  0  0
  7  6  2  0  0  0  0
  8  9  1  0  0  0  0
  8 11  1  0  0  0  0
  9 11  1  0  0  0  0
 10 15  1  0  0  0  0
 11 13  1  0  0  0  0
 11 10  1  0  0  0  0
 12 15  2  0  0  0  0
 13 14  1  0  0  0  0
 14 12  1  0  0  0  0
 16 23  1  6  0  0  0
 16  1  1  0  0  0  0
 17 21  1  0  0  0  0
 17 19  1  0  0  0  0
 18 20  1  0  0  0  0
 19 18  1  0  0  0  0
 21 16  1  6  0  0  0
 21 22  1  0  0  0  0
 22 20  1  0  0  0  0
 24 25  2  0  0  0  0
 24 23  1  0  0  0  0
 26 24  1  0  0  0  0
M  END
>  <MODEL>
4

>  <REMARK>
 VINA RESULT:      -7.5      1.328      3.794
  Name = 
  5 active torsions:
  status: ('A' for Active; 'I' for Inactive)
    1  A    between atoms: C_4  and  C_5
    2  A    between atoms: C_5  and  C_25
    3  A    between atoms: C_9  and  C_25
    4  A    between atoms: C_12  and  C_25
    5  A    between atoms: C_17  and  C_26
                            x       y       z     vdW  Elec       q    Type
                         _______ _______ _______ _____ _____    ______ ____

>  <TORSDO>
F 5

$$$$
=
 OpenBabel11072414223D

 26 29  0  0  1  0  0  0  0  0999 V2000
  161.8430  207.4920  149.9580 C   0  0  0  0  0  0  0  0  0  0  0  0
  162.0120  209.9750  149.7680 N   0  0  0  0  0  0  0  0  0  0  0  0
  161.9730  208.8810  151.9670 C   0  0  2  0  0  3  0  0  0  0  0  0
  161.9560  210.0900  151.0600 C   0  0  0  0  0  3  0  0  0  0  0  0
  161.7810  207.6130  151.2520 N   0  0  0  0  0  0  0  0  0  0  0  0
  162.1590  208.6110  147.8860 O   0  0  0  0  0  0  0  0  0  0  0  0
  162.0280  208.6950  149.1350 C   0  0  0  0  0  0  0  0  0  0  0  0
  160.0810  207.3240  156.4410 C   0  0  0  0  0  2  0  0  0  0  0  0
  161.4910  207.8940  156.5000 C   0  0  0  0  0  2  0  0  0  0  0  0
  160.7860  207.8680  154.0310 C   0  0  0  0  0  2  0  0  0  0  0  0
  160.5190  208.3750  155.4500 C   0  0  0  0  0  0  0  0  0  0  0  0
  160.3000  210.1690  153.2530 C   0  0  0  0  0  3  0  0  0  0  0  0
  159.9500  209.7760  155.6830 C   0  0  0  0  0  2  0  0  0  0  0  0
  159.3310  210.3180  154.3940 C   0  0  0  0  0  2  0  0  0  0  0  0
  160.9770  209.0200  153.0760 C   0  0  0  0  0  0  0  0  0  0  0  0
  161.6500  206.1490  149.3070 C   0  0  2  0  0  3  0  0  0  0  0  0
  160.3470  206.1140  147.1520 C   0  0  0  0  0  2  0  0  0  0  0  0
  161.3430  205.1450  145.2140 C   0  0  0  0  0  2  0  0  0  0  0  0
  160.4560  206.2030  145.6950 N   0  0  0  0  0  2  0  0  0  0  0  0
  162.6930  205.2450  145.9280 C   0  0  0  0  0  2  0  0  0  0  0  0
  161.7470  206.1520  147.7770 C   0  0  2  0  0  3  0  0  0  0  0  0
  162.5120  205.0630  147.3100 O   0  0  0  0  0  0  0  0  0  0  0  0
  160.4590  205.3570  149.8560 C   0  0  0  0  0  2  0  0  0  0  0  0
  160.8080  203.9750  150.3060 C   0  0  0  0  0  0  0  0  0  0  0  0
  160.8310  203.0290  149.4770 O   0  0  0  0  0  0  0  0  0  0  0  0
  161.1130  203.7260  151.6730 N   0  0  0  0  0  1  0  0  0  0  0  0
  1  5  2  0  0  0  0
  2  4  2  0  0  0  0
  3 15  1  1  0  0  0
  4  3  1  0  0  0  0
  5  3  1  0  0  0  0
  6  7  2  0  0  0  0
  7  2  1  0  0  0  0
  7  1  1  0  0  0  0
  8  9  1  0  0  0  0
 10 11  1  0  0  0  0
 11 13  1  0  0  0  0
 11  8  1  0  0  0  0
 11  9  1  0  0  0  0
 12 14  1  0  0  0  0
 14 13  1  0  0  0  0
 15 12  2  0  0  0  0
 15 10  1  0  0  0  0
 16 23  1  6  0  0  0
 16  1  1  0  0  0  0
 17 21  1  0  0  0  0
 18 19  1  0  0  0  0
 18 20  1  0  0  0  0
 19 17  1  0  0  0  0
 20 22  1  0  0  0  0
 21 16  1  1  0  0  0
 22 21  1  0  0  0  0
 23 24  1  0  0  0  0
 24 26  1  0  0  0  0
 25 24  2  0  0  0  0
M  END
>  <MODEL>
5

>  <REMARK>
 VINA RESULT:      -7.5      2.478      6.880
  Name = 
  5 active torsions:
  status: ('A' for Active; 'I' for Inactive)
    1  A    between atoms: C_4  and  C_5
    2  A    between atoms: C_5  and  C_25
    3  A    between atoms: C_9  and  C_25
    4  A    between atoms: C_12  and  C_25
    5  A    between atoms: C_17  and  C_26
                            x       y       z     vdW  Elec       q    Type
                         _______ _______ _______ _____ _____    ______ ____

>  <TORSDO>
F 5

$$$$
=
 OpenBabel11072414223D

 26 29  0  0  1  0  0  0  0  0999 V2000
  161.4150  207.4950  152.3490 C   0  0  0  0  0  0  0  0  0  0  0  0
  160.9090  205.5110  153.7760 N   0  0  0  0  0  0  0  0  0  0  0  0
  161.8810  205.2360  151.5370 C   0  0  2  0  0  3  0  0  0  0  0  0
  161.2680  204.7140  152.8160 C   0  0  0  0  0  3  0  0  0  0  0  0
  161.7690  206.6930  151.3890 N   0  0  0  0  0  0  0  0  0  0  0  0
  160.7320  207.6750  154.6190 O   0  0  0  0  0  0  0  0  0  0  0  0
  161.0160  206.9290  153.6450 C   0  0  0  0  0  0  0  0  0  0  0  0
  161.1220  204.9970  146.4990 C   0  0  0  0  0  2  0  0  0  0  0  0
  162.5740  204.8740  146.9390 C   0  0  0  0  0  2  0  0  0  0  0  0
  161.1750  205.3040  149.0490 C   0  0  0  0  0  2  0  0  0  0  0  0
  161.4620  204.4040  147.8450 C   0  0  0  0  0  0  0  0  0  0  0  0
  160.9920  203.2320  150.3940 C   0  0  0  0  0  3  0  0  0  0  0  0
  161.3080  202.8860  147.9530 C   0  0  0  0  0  2  0  0  0  0  0  0
  160.4650  202.5240  149.1760 C   0  0  0  0  0  2  0  0  0  0  0  0
  161.3170  204.5360  150.3390 C   0  0  0  0  0  0  0  0  0  0  0  0
  161.3410  208.9810  152.1150 C   0  0  2  0  0  3  0  0  0  0  0  0
  161.6820  210.9540  150.5870 C   0  0  0  0  0  2  0  0  0  0  0  0
  161.8830  210.5790  148.2410 C   0  0  0  0  0  2  0  0  0  0  0  0
  162.3350  211.4070  149.3580 N   0  0  0  0  0  2  0  0  0  0  0  0
  162.1480  209.1060  148.5570 C   0  0  0  0  0  2  0  0  0  0  0  0
  161.9430  209.4560  150.7860 C   0  0  2  0  0  3  0  0  0  0  0  0
  161.4190  208.7280  149.6980 O   0  0  0  0  0  0  0  0  0  0  0  0
  161.7550  209.8220  153.3260 C   0  0  0  0  0  2  0  0  0  0  0  0
  160.7020  210.7780  153.7850 C   0  0  0  0  0  0  0  0  0  0  0  0
  160.9690  211.6340  154.6690 O   0  0  0  0  0  0  0  0  0  0  0  0
  159.3950  210.7210  153.2270 N   0  0  0  0  0  1  0  0  0  0  0  0
  1  7  1  0  0  0  0
  3 15  1  6  0  0  0
  3  4  1  0  0  0  0
  4  2  2  0  0  0  0
  5  3  1  0  0  0  0
  5  1  2  0  0  0  0
  7  2  1  0  0  0  0
  7  6  2  0  0  0  0
  8  9  1  0  0  0  0
  8 11  1  0  0  0  0
  9 11  1  0  0  0  0
 10 15  1  0  0  0  0
 11 13  1  0  0  0  0
 11 10  1  0  0  0  0
 13 14  1  0  0  0  0
 14 12  1  0  0  0  0
 15 12  2  0  0  0  0
 16  1  1  0  0  0  0
 16 23  1  1  0  0  0
 17 21  1  0  0  0  0
 18 20  1  0  0  0  0
 18 19  1  0  0  0  0
 19 17  1  0  0  0  0
 20 22  1  0  0  0  0
 21 16  1  1  0  0  0
 22 21  1  0  0  0  0
 23 24  1  0  0  0  0
 24 25  2  0  0  0  0
 26 24  1  0  0  0  0
M  END
>  <MODEL>
6

>  <REMARK>
 VINA RESULT:      -7.4      1.673      4.189
  Name = 
  5 active torsions:
  status: ('A' for Active; 'I' for Inactive)
    1  A    between atoms: C_4  and  C_5
    2  A    between atoms: C_5  and  C_25
    3  A    between atoms: C_9  and  C_25
    4  A    between atoms: C_12  and  C_25
    5  A    between atoms: C_17  and  C_26
                            x       y       z     vdW  Elec       q    Type
                         _______ _______ _______ _____ _____    ______ ____

>  <TORSDO>
F 5

$$$$
=
 OpenBabel11072414223D

 26 29  0  0  1  0  0  0  0  0999 V2000
  161.1120  208.6220  152.3350 C   0  0  0  0  0  0  0  0  0  0  0  0
  162.6730  208.3160  150.4120 N   0  0  0  0  0  0  0  0  0  0  0  0
  160.7330  206.8390  150.7050 C   0  0  2  0  0  3  0  0  0  0  0  0
  162.0200  207.2590  150.0350 C   0  0  0  0  0  3  0  0  0  0  0  0
  160.4640  207.5600  151.9560 N   0  0  0  0  0  0  0  0  0  0  0  0
  162.8490  210.1610  151.8220 O   0  0  0  0  0  0  0  0  0  0  0  0
  162.2410  209.0990  151.5250 C   0  0  0  0  0  0  0  0  0  0  0  0
  160.2380  202.0970  148.8900 C   0  0  0  0  0  2  0  0  0  0  0  0
  161.4760  202.8450  148.4140 C   0  0  0  0  0  2  0  0  0  0  0  0
  160.1120  204.4760  149.8530 C   0  0  0  0  0  2  0  0  0  0  0  0
  160.8730  203.1510  149.7640 C   0  0  0  0  0  0  0  0  0  0  0  0
  161.2160  204.8170  152.0440 C   0  0  0  0  0  3  0  0  0  0  0  0
  161.6620  202.6230  150.9640 C   0  0  0  0  0  2  0  0  0  0  0  0
  161.2130  203.3270  152.2440 C   0  0  0  0  0  2  0  0  0  0  0  0
  160.6940  205.3580  150.9280 C   0  0  0  0  0  0  0  0  0  0  0  0
  160.7600  209.3100  153.6270 C   0  0  2  0  0  3  0  0  0  0  0  0
  159.9030  211.3430  154.8420 C   0  0  0  0  0  2  0  0  0  0  0  0
  158.5820  212.9310  153.6500 C   0  0  0  0  0  2  0  0  0  0  0  0
  159.5830  212.7640  154.7020 N   0  0  0  0  0  2  0  0  0  0  0  0
  159.0920  212.2970  152.3540 C   0  0  0  0  0  2  0  0  0  0  0  0
  160.3370  210.7770  153.4840 C   0  0  2  0  0  3  0  0  0  0  0  0
  159.2920  210.9180  152.5480 O   0  0  0  0  0  0  0  0  0  0  0  0
  161.7600  209.0550  154.7590 C   0  0  0  0  0  2  0  0  0  0  0  0
  161.2800  208.0730  155.7790 C   0  0  0  0  0  0  0  0  0  0  0  0
  161.7230  208.1190  156.9560 O   0  0  0  0  0  0  0  0  0  0  0  0
  160.3240  207.0830  155.4200 N   0  0  0  0  0  1  0  0  0  0  0  0
  1 16  1  0  0  0  0
  2  7  1  0  0  0  0
  3 15  1  1  0  0  0
  3  5  1  0  0  0  0
  4  2  2  0  0  0  0
  4  3  1  0  0  0  0
  5  1  2  0  0  0  0
  7  6  2  0  0  0  0
  7  1  1  0  0  0  0
  8 11  1  0  0  0  0
  9  8  1  0  0  0  0
  9 11  1  0  0  0  0
 10 15  1  0  0  0  0
 11 10  1  0  0  0  0
 11 13  1  0  0  0  0
 12 14  1  0  0  0  0
 13 14  1  0  0  0  0
 15 12  2  0  0  0  0
 16 23  1  1  0  0  0
 18 19  1  0  0  0  0
 19 17  1  0  0  0  0
 20 22  1  0  0  0  0
 20 18  1  0  0  0  0
 21 16  1  1  0  0  0
 21 17  1  0  0  0  0
 22 21  1  0  0  0  0
 23 24  1  0  0  0  0
 24 25  2  0  0  0  0
 26 24  1  0  0  0  0
M  END
>  <MODEL>
7

>  <REMARK>
 VINA RESULT:      -7.2      1.954      2.949
  Name = 
  5 active torsions:
  status: ('A' for Active; 'I' for Inactive)
    1  A    between atoms: C_4  and  C_5
    2  A    between atoms: C_5  and  C_25
    3  A    between atoms: C_9  and  C_25
    4  A    between atoms: C_12  and  C_25
    5  A    between atoms: C_17  and  C_26
                            x       y       z     vdW  Elec       q    Type
                         _______ _______ _______ _____ _____    ______ ____

>  <TORSDO>
F 5

$$$$
=
 OpenBabel11072414223D

 26 29  0  0  1  0  0  0  0  0999 V2000
  161.1720  208.4990  151.9960 C   0  0  0  0  0  0  0  0  0  0  0  0
  162.6400  208.0600  150.0250 N   0  0  0  0  0  0  0  0  0  0  0  0
  160.7090  206.6180  150.5030 C   0  0  2  0  0  3  0  0  0  0  0  0
  161.9650  206.9860  149.7470 C   0  0  0  0  0  3  0  0  0  0  0  0
  160.5030  207.4200  151.7170 N   0  0  0  0  0  0  0  0  0  0  0  0
  162.8890  209.9900  151.3040 O   0  0  0  0  0  0  0  0  0  0  0  0
  162.2630  208.9160  151.1040 C   0  0  0  0  0  0  0  0  0  0  0  0
  160.2090  201.7680  149.0040 C   0  0  0  0  0  2  0  0  0  0  0  0
  161.4410  202.4850  148.4700 C   0  0  0  0  0  2  0  0  0  0  0  0
  160.0860  204.2040  149.8120 C   0  0  0  0  0  2  0  0  0  0  0  0
  160.8490  202.8780  149.8020 C   0  0  0  0  0  0  0  0  0  0  0  0
  161.2070  204.6890  151.9670 C   0  0  0  0  0  3  0  0  0  0  0  0
  161.6480  202.4300  151.0280 C   0  0  0  0  0  2  0  0  0  0  0  0
  161.2080  203.2140  152.2640 C   0  0  0  0  0  2  0  0  0  0  0  0
  160.6750  205.1560  150.8220 C   0  0  0  0  0  0  0  0  0  0  0  0
  160.8850  209.2710  153.2560 C   0  0  2  0  0  3  0  0  0  0  0  0
  159.5950  208.1550  155.1100 C   0  0  0  0  0  2  0  0  0  0  0  0
  160.6060  207.9500  157.2610 C   0  0  0  0  0  2  0  0  0  0  0  0
  159.7140  207.3070  156.2970 N   0  0  0  0  0  2  0  0  0  0  0  0
  161.9510  208.2450  156.5940 C   0  0  0  0  0  2  0  0  0  0  0  0
  160.9920  208.4560  154.5510 C   0  0  2  0  0  3  0  0  0  0  0  0
  161.7620  209.1330  155.5190 O   0  0  0  0  0  0  0  0  0  0  0  0
  159.6360  210.1540  153.1740 C   0  0  0  0  0  2  0  0  0  0  0  0
  159.8510  211.5510  153.6580 C   0  0  0  0  0  0  0  0  0  0  0  0
  160.8230  211.8150  154.4120 O   0  0  0  0  0  0  0  0  0  0  0  0
  158.9550  212.5860  153.2690 N   0  0  0  0  0  1  0  0  0  0  0  0
  1 16  1  0  0  0  0
  2  7  1  0  0  0  0
  3 15  1  1  0  0  0
  3  5  1  0  0  0  0
  4  2  2  0  0  0  0
  4  3  1  0  0  0  0
  5  1  2  0  0  0  0
  7  6  2  0  0  0  0
  7  1  1  0  0  0  0
  8 11  1  0  0  0  0
  9  8  1  0  0  0  0
  9 11  1  0  0  0  0
 10 15  1  0  0  0  0
 11 10  1  0  0  0  0
 11 13  1  0  0  0  0
 12 14  1  0  0  0  0
 13 14  1  0  0  0  0
 15 12  2  0  0  0  0
 16 23  1  6  0  0  0
 17 19  1  0  0  0  0
 19 18  1  0  0  0  0
 20 18  1  0  0  0  0
 21 16  1  6  0  0  0
 21 17  1  0  0  0  0
 21 22  1  0  0  0  0
 22 20  1  0  0  0  0
 23 24  1  0  0  0  0
 24 25  2  0  0  0  0
 26 24  1  0  0  0  0
M  END
>  <MODEL>
8

>  <REMARK>
 VINA RESULT:      -7.1      2.236      3.848
  Name = 
  5 active torsions:
  status: ('A' for Active; 'I' for Inactive)
    1  A    between atoms: C_4  and  C_5
    2  A    between atoms: C_5  and  C_25
    3  A    between atoms: C_9  and  C_25
    4  A    between atoms: C_12  and  C_25
    5  A    between atoms: C_17  and  C_26
                            x       y       z     vdW  Elec       q    Type
                         _______ _______ _______ _____ _____    ______ ____

>  <TORSDO>
F 5

$$$$
=
 OpenBabel11072414223D

 26 29  0  0  1  0  0  0  0  0999 V2000
  161.2060  204.4720  150.2860 C   0  0  0  0  0  0  0  0  0  0  0  0
  161.5490  204.5490  152.7570 N   0  0  0  0  0  0  0  0  0  0  0  0
  160.4960  206.4260  151.5730 C   0  0  2  0  0  3  0  0  0  0  0  0
  161.0880  205.7620  152.7950 C   0  0  0  0  0  3  0  0  0  0  0  0
  160.7490  205.6890  150.3280 N   0  0  0  0  0  0  0  0  0  0  0  0
  161.9630  202.6040  151.5450 O   0  0  0  0  0  0  0  0  0  0  0  0
  161.5810  203.8040  151.5390 C   0  0  0  0  0  0  0  0  0  0  0  0
  161.0910  211.0780  153.5790 C   0  0  0  0  0  2  0  0  0  0  0  0
  161.9150  209.9810  154.2380 C   0  0  0  0  0  2  0  0  0  0  0  0
  160.4560  208.8610  152.4470 C   0  0  0  0  0  2  0  0  0  0  0  0
  161.5470  209.8830  152.7780 C   0  0  0  0  0  0  0  0  0  0  0  0
  161.8400  208.2030  150.5010 C   0  0  0  0  0  3  0  0  0  0  0  0
  162.6920  210.1450  151.7980 C   0  0  0  0  0  2  0  0  0  0  0  0
  162.3310  209.6220  150.4080 C   0  0  0  0  0  2  0  0  0  0  0  0
  160.9560  207.8460  151.4500 C   0  0  0  0  0  0  0  0  0  0  0  0
  161.4210  203.7830  148.9640 C   0  0  2  0  0  3  0  0  0  0  0  0
  160.5130  205.1530  147.0550 C   0  0  0  0  0  2  0  0  0  0  0  0
  161.8820  205.5120  145.1350 C   0  0  0  0  0  2  0  0  0  0  0  0
  160.8660  206.1070  146.0030 N   0  0  0  0  0  2  0  0  0  0  0  0
  163.0800  205.0720  145.9790 C   0  0  0  0  0  2  0  0  0  0  0  0
  161.7800  204.7160  147.8010 C   0  0  2  0  0  3  0  0  0  0  0  0
  162.6750  204.0950  146.9050 O   0  0  0  0  0  0  0  0  0  0  0  0
  160.3500  202.7420  148.6240 C   0  0  0  0  0  2  0  0  0  0  0  0
  160.8900  201.5090  147.9760 C   0  0  0  0  0  0  0  0  0  0  0  0
  161.4010  200.5990  148.6790 O   0  0  0  0  0  0  0  0  0  0  0  0
  160.8310  201.3630  146.5620 N   0  0  0  0  0  1  0  0  0  0  0  0
  1  5  2  0  0  0  0
  1  7  1  0  0  0  0
  2  4  2  0  0  0  0
  3 15  1  6  0  0  0
  3  4  1  0  0  0  0
  5  3  1  0  0  0  0
  7  6  2  0  0  0  0
  7  2  1  0  0  0  0
  8  9  1  0  0  0  0
 10 11  1  0  0  0  0
 11  8  1  0  0  0  0
 11  9  1  0  0  0  0
 12 15  2  0  0  0  0
 13 11  1  0  0  0  0
 14 12  1  0  0  0  0
 14 13  1  0  0  0  0
 15 10  1  0  0  0  0
 16 23  1  6  0  0  0
 16  1  1  0  0  0  0
 17 21  1  0  0  0  0
 18 20  1  0  0  0  0
 18 19  1  0  0  0  0
 19 17  1  0  0  0  0
 20 22  1  0  0  0  0
 21 16  1  1  0  0  0
 22 21  1  0  0  0  0
 24 23  1  0  0  0  0
 24 25  2  0  0  0  0
 26 24  1  0  0  0  0
M  END
>  <MODEL>
9

>  <REMARK>
 VINA RESULT:      -7.1      2.778      7.216
  Name = 
  5 active torsions:
  status: ('A' for Active; 'I' for Inactive)
    1  A    between atoms: C_4  and  C_5
    2  A    between atoms: C_5  and  C_25
    3  A    between atoms: C_9  and  C_25
    4  A    between atoms: C_12  and  C_25
    5  A    between atoms: C_17  and  C_26
                            x       y       z     vdW  Elec       q    Type
                         _______ _______ _______ _____ _____    ______ ____

>  <TORSDO>
F 5

$$$$
