=
 OpenBabel11072410533D

 40 43  0  0  1  0  0  0  0  0999 V2000
  160.4070  207.8510  155.0450 C   0  0  0  0  0  0  0  0  0  0  0  0
  159.9040  207.4670  156.2130 C   0  0  0  0  0  2  0  0  0  0  0  0
  161.4930  210.5600  151.6320 C   0  0  0  0  0  3  0  0  0  0  0  0
  160.8770  210.7890  152.8670 C   0  0  0  0  0  0  0  0  0  0  0  0
  161.0410  209.8340  153.8720 O   0  0  0  0  0  0  0  0  0  0  0  0
  160.1100  211.9570  153.0660 C   0  0  0  0  0  0  0  0  0  0  0  0
  159.5330  212.2720  154.4310 C   0  0  2  0  0  3  0  0  0  0  0  0
  159.2280  210.0340  155.4920 C   0  0  0  0  0  2  0  0  0  0  0  0
  161.3250  211.4580  150.5780 C   0  0  0  0  0  0  0  0  0  0  0  0
  160.5320  212.5930  150.7500 C   0  0  0  0  0  3  0  0  0  0  0  0
  159.9350  209.1580  154.4610 C   0  0  2  0  0  3  0  0  0  0  0  0
  158.5000  211.2100  154.8470 C   0  0  1  0  0  3  0  0  0  0  0  0
  161.9510  211.2100  149.3250 N   0  0  0  0  0  1  0  0  0  0  0  0
  159.9320  212.8410  151.9860 C   0  0  0  0  0  3  0  0  0  0  0  0
  159.0450  213.6940  154.5600 C   0  0  0  0  0  3  0  0  0  0  0  0
  159.4270  214.3970  155.4820 O   0  0  0  0  0  0  0  0  0  0  0  0
  157.3980  211.7320  155.7850 C   0  0  2  0  0  3  0  0  0  0  0  0
  157.5100  211.1790  157.0650 O   0  0  0  0  0  1  0  0  0  0  0  0
  155.4370  210.4050  155.4470 O   0  0  0  0  0  0  0  0  0  0  0  0
  156.0360  211.4920  155.2190 C   0  0  0  0  0  0  0  0  0  0  0  0
  155.3850  213.8250  154.7910 C   0  0  0  0  0  1  0  0  0  0  0  0
  155.4610  212.4630  154.3990 O   0  0  0  0  0  0  0  0  0  0  0  0
  161.5490  207.0580  154.4720 C   0  0  0  0  0  2  0  0  0  0  0  0
  161.2050  206.4390  153.1220 C   0  0  0  0  0  2  0  0  0  0  0  0
  162.4080  205.7470  152.4980 C   0  0  0  0  0  2  0  0  0  0  0  0
  163.0230  204.9310  146.5510 C   0  0  0  0  0  1  0  0  0  0  0  0
  160.0130  204.4000  151.7440 C   0  0  0  0  0  1  0  0  0  0  0  0
  160.7350  204.5550  149.3870 C   0  0  2  0  0  3  0  0  0  0  0  0
  162.8060  207.5280  149.9080 C   0  0  0  0  0  1  0  0  0  0  0  0
  162.1720  205.4650  151.0730 N   0  0  0  0  0  0  0  0  0  0  0  0
  161.6110  203.9360  148.3300 C   0  0  2  0  0  3  0  0  0  0  0  0
  160.8900  206.0450  149.1160 C   0  0  1  0  0  3  0  0  0  0  0  0
  161.6830  205.0070  147.2530 C   0  0  0  0  0  0  0  0  0  0  0  0
  161.0680  202.5890  147.8660 C   0  0  0  0  0  1  0  0  0  0  0  0
  160.6560  207.4630  151.1220 C   0  0  0  0  0  1  0  0  0  0  0  0
  161.6520  206.6230  150.3200 C   0  0  0  0  0  0  0  0  0  0  0  0
  161.2340  204.3550  150.8230 C   0  0  0  0  0  0  0  0  0  0  0  0
  160.5750  204.8910  146.2070 C   0  0  0  0  0  1  0  0  0  0  0  0
  161.5700  206.2530  147.8910 O   0  0  0  0  0  0  0  0  0  0  0  0
  161.9190  203.0090  151.0320 C   0  0  0  0  0  1  0  0  0  0  0  0
  1  2  2  0  0  0  0
  3  4  1  0  0  0  0
  4  6  2  0  0  0  0
  4  5  1  0  0  0  0
  5 11  1  0  0  0  0
  6  7  1  0  0  0  0
  7 15  1  6  0  0  0
  7 12  1  0  0  0  0
  9 10  1  0  0  0  0
  9  3  2  0  0  0  0
 10 14  2  0  0  0  0
 11  1  1  1  0  0  0
 11  8  1  0  0  0  0
 12  8  1  0  0  0  0
 12 17  1  1  0  0  0
 13  9  1  0  0  0  0
 14  6  1  0  0  0  0
 15 16  2  0  0  0  0
 17 18  1  1  0  0  0
 20 19  2  0  0  0  0
 20 17  1  0  0  0  0
 22 21  1  0  0  0  0
 22 20  1  0  0  0  0
 23  1  1  0  0  0  0
 24 23  1  0  0  0  0
 25 24  1  0  0  0  0
 26 33  1  0  0  0  0
 28 37  1  1  0  0  0
 29 36  1  0  0  0  0
 30 25  1  0  0  0  0
 31 34  1  6  0  0  0
 31 28  1  0  0  0  0
 32 39  1  6  0  0  0
 32 28  1  0  0  0  0
 32 36  1  0  0  0  0
 33 39  1  0  0  0  0
 33 31  1  0  0  0  0
 36 30  1  0  0  0  0
 36 35  1  0  0  0  0
 37 40  1  0  0  0  0
 37 30  1  0  0  0  0
 37 27  1  0  0  0  0
 38 33  1  0  0  0  0
M  END
>  <MODEL>
1

>  <REMARK>
 VINA RESULT:      -6.3      0.000      0.000
  Name = 
  9 active torsions:
  status: ('A' for Active; 'I' for Inactive)
    1  A    between atoms: C_3  and  C_20
    2  A    between atoms: C_3  and  C_24
    3  A    between atoms: C_7  and  C_11
    4  A    between atoms: O_10  and  C_31
    5  A    between atoms: N_16  and  C_38
    6  A    between atoms: C_19  and  C_27
    7  A    between atoms: C_19  and  C_31
    8  A    between atoms: C_20  and  C_22
    9  A    between atoms: C_22  and  C_38
                            x       y       z     vdW  Elec       q    Type
                         _______ _______ _______ _____ _____    ______ ____

>  <TORSDO>
F 9

$$$$
=
 OpenBabel11072410533D

 40 43  0  0  1  0  0  0  0  0999 V2000
  161.1880  204.5610  151.9610 C   0  0  0  0  0  0  0  0  0  0  0  0
  160.5540  203.6300  152.6670 C   0  0  0  0  0  2  0  0  0  0  0  0
  161.3730  201.5200  148.6630 C   0  0  0  0  0  3  0  0  0  0  0  0
  161.6200  202.8960  148.7000 C   0  0  0  0  0  0  0  0  0  0  0  0
  161.8720  203.4870  149.9390 O   0  0  0  0  0  0  0  0  0  0  0  0
  161.6020  203.6480  147.5060 C   0  0  0  0  0  0  0  0  0  0  0  0
  161.9790  205.1150  147.5170 C   0  0  2  0  0  3  0  0  0  0  0  0
  161.3890  205.8750  149.8190 C   0  0  0  0  0  2  0  0  0  0  0  0
  161.0700  200.8860  147.4580 C   0  0  0  0  0  0  0  0  0  0  0  0
  161.0050  201.6270  146.2780 C   0  0  0  0  0  3  0  0  0  0  0  0
  161.0550  204.5310  150.4600 C   0  0  2  0  0  3  0  0  0  0  0  0
  160.9760  205.9320  148.3520 C   0  0  1  0  0  3  0  0  0  0  0  0
  160.8140  199.4870  147.4350 N   0  0  0  0  0  1  0  0  0  0  0  0
  161.2730  202.9970  146.3020 C   0  0  0  0  0  3  0  0  0  0  0  0
  162.2410  205.6760  146.1410 C   0  0  0  0  0  3  0  0  0  0  0  0
  163.2240  205.3260  145.5080 O   0  0  0  0  0  0  0  0  0  0  0  0
  160.8200  207.3930  147.8990 C   0  0  2  0  0  3  0  0  0  0  0  0
  160.7360  207.4930  146.5060 O   0  0  0  0  0  1  0  0  0  0  0  0
  163.1260  207.8990  148.2850 O   0  0  0  0  0  0  0  0  0  0  0  0
  161.9230  208.2520  148.4280 C   0  0  0  0  0  0  0  0  0  0  0  0
  161.8840  210.7060  148.5920 C   0  0  0  0  0  1  0  0  0  0  0  0
  161.6010  209.4200  149.1200 O   0  0  0  0  0  0  0  0  0  0  0  0
  161.8390  205.6930  152.7080 C   0  0  0  0  0  2  0  0  0  0  0  0
  160.8720  206.3940  153.6550 C   0  0  0  0  0  2  0  0  0  0  0  0
  161.5750  207.4470  154.4990 C   0  0  0  0  0  2  0  0  0  0  0  0
  157.1120  211.4990  154.2150 C   0  0  0  0  0  1  0  0  0  0  0  0
  162.2590  209.3550  156.5010 C   0  0  0  0  0  1  0  0  0  0  0  0
  160.3350  210.7230  155.7740 C   0  0  2  0  0  3  0  0  0  0  0  0
  160.3150  209.4120  152.3560 C   0  0  0  0  0  1  0  0  0  0  0  0
  160.7380  208.6480  154.6480 N   0  0  0  0  0  0  0  0  0  0  0  0
  158.8440  210.8970  155.8850 C   0  0  2  0  0  3  0  0  0  0  0  0
  160.5970  211.0300  154.3070 C   0  0  1  0  0  3  0  0  0  0  0  0
  158.5040  211.8170  154.7230 C   0  0  0  0  0  0  0  0  0  0  0  0
  158.4380  211.4160  157.2600 C   0  0  0  0  0  1  0  0  0  0  0  0
  162.5340  209.8310  153.3560 C   0  0  0  0  0  1  0  0  0  0  0  0
  161.0400  209.7060  153.6640 C   0  0  0  0  0  0  0  0  0  0  0  0
  160.8250  209.2840  155.9760 C   0  0  0  0  0  0  0  0  0  0  0  0
  158.5650  213.3000  155.0860 C   0  0  0  0  0  1  0  0  0  0  0  0
  159.4340  211.5660  153.7010 O   0  0  0  0  0  0  0  0  0  0  0  0
  159.9980  208.5140  157.0010 C   0  0  0  0  0  1  0  0  0  0  0  0
  1  2  2  0  0  0  0
  1 23  1  0  0  0  0
  3  4  1  0  0  0  0
  4  5  1  0  0  0  0
  5 11  1  0  0  0  0
  6  7  1  0  0  0  0
  6  4  2  0  0  0  0
  7 15  1  6  0  0  0
  7 12  1  0  0  0  0
  8 11  1  0  0  0  0
  9  3  2  0  0  0  0
 10 14  2  0  0  0  0
 10  9  1  0  0  0  0
 11  1  1  1  0  0  0
 12 17  1  6  0  0  0
 12  8  1  0  0  0  0
 13  9  1  0  0  0  0
 14  6  1  0  0  0  0
 16 15  2  0  0  0  0
 17 18  1  6  0  0  0
 17 20  1  0  0  0  0
 19 20  2  0  0  0  0
 20 22  1  0  0  0  0
 21 22  1  0  0  0  0
 23 24  1  0  0  0  0
 24 25  1  0  0  0  0
 25 30  1  0  0  0  0
 26 33  1  0  0  0  0
 28 31  1  0  0  0  0
 28 37  1  6  0  0  0
 29 36  1  0  0  0  0
 30 37  1  0  0  0  0
 31 34  1  1  0  0  0
 32 39  1  6  0  0  0
 32 28  1  0  0  0  0
 33 38  1  0  0  0  0
 33 31  1  0  0  0  0
 35 36  1  0  0  0  0
 36 32  1  0  0  0  0
 36 30  1  0  0  0  0
 37 27  1  0  0  0  0
 37 40  1  0  0  0  0
 39 33  1  0  0  0  0
M  END
>  <MODEL>
2

>  <REMARK>
 VINA RESULT:      -6.2      2.306      9.053
  Name = 
  9 active torsions:
  status: ('A' for Active; 'I' for Inactive)
    1  A    between atoms: C_3  and  C_20
    2  A    between atoms: C_3  and  C_24
    3  A    between atoms: C_7  and  C_11
    4  A    between atoms: O_10  and  C_31
    5  A    between atoms: N_16  and  C_38
    6  A    between atoms: C_19  and  C_27
    7  A    between atoms: C_19  and  C_31
    8  A    between atoms: C_20  and  C_22
    9  A    between atoms: C_22  and  C_38
                            x       y       z     vdW  Elec       q    Type
                         _______ _______ _______ _____ _____    ______ ____

>  <TORSDO>
F 9

$$$$
=
 OpenBabel11072410533D

 40 43  0  0  1  0  0  0  0  0999 V2000
  161.7910  209.8690  151.0990 C   0  0  0  0  0  0  0  0  0  0  0  0
  161.9670  210.6250  150.0200 C   0  0  0  0  0  2  0  0  0  0  0  0
  158.5780  212.9690  151.5810 C   0  0  0  0  0  3  0  0  0  0  0  0
  159.4840  212.3930  152.4780 C   0  0  0  0  0  0  0  0  0  0  0  0
  160.6160  211.7650  151.9580 O   0  0  0  0  0  0  0  0  0  0  0  0
  159.2360  212.4530  153.8660 C   0  0  0  0  0  0  0  0  0  0  0  0
  160.2630  211.9350  154.8520 C   0  0  2  0  0  3  0  0  0  0  0  0
  161.4820  210.1660  153.5830 C   0  0  0  0  0  2  0  0  0  0  0  0
  157.4070  213.5690  152.0430 C   0  0  0  0  0  0  0  0  0  0  0  0
  157.1290  213.5940  153.4100 C   0  0  0  0  0  3  0  0  0  0  0  0
  160.8940  210.3880  152.1940 C   0  0  2  0  0  3  0  0  0  0  0  0
  160.4620  210.4180  154.6890 C   0  0  1  0  0  3  0  0  0  0  0  0
  156.4890  214.1440  151.1210 N   0  0  0  0  0  1  0  0  0  0  0  0
  158.0390  213.0420  154.3140 C   0  0  0  0  0  3  0  0  0  0  0  0
  160.0060  212.3770  156.2710 C   0  0  0  0  0  3  0  0  0  0  0  0
  160.4590  213.4340  156.6810 O   0  0  0  0  0  0  0  0  0  0  0  0
  160.8850  209.6940  155.9790 C   0  0  2  0  0  3  0  0  0  0  0  0
  162.2770  209.6620  156.1160 O   0  0  0  0  0  1  0  0  0  0  0  0
  160.1300  207.7580  157.1640 O   0  0  0  0  0  0  0  0  0  0  0  0
  160.3120  208.3150  156.0470 C   0  0  0  0  0  0  0  0  0  0  0  0
  160.8920  206.6430  154.3380 C   0  0  0  0  0  1  0  0  0  0  0  0
  160.0270  207.6400  154.8600 O   0  0  0  0  0  0  0  0  0  0  0  0
  162.3400  208.4690  151.0790 C   0  0  0  0  0  2  0  0  0  0  0  0
  161.9130  207.6980  149.8350 C   0  0  0  0  0  2  0  0  0  0  0  0
  160.5550  207.0380  150.0210 C   0  0  0  0  0  2  0  0  0  0  0  0
  159.1730  201.2910  148.8020 C   0  0  0  0  0  1  0  0  0  0  0  0
  162.6490  206.1870  148.2860 C   0  0  0  0  0  1  0  0  0  0  0  0
  161.6940  203.9090  148.3440 C   0  0  2  0  0  3  0  0  0  0  0  0
  160.1100  204.3360  151.6160 C   0  0  0  0  0  1  0  0  0  0  0  0
  160.5890  205.6310  149.5890 N   0  0  0  0  0  0  0  0  0  0  0  0
  160.6310  203.0110  147.7700 C   0  0  2  0  0  3  0  0  0  0  0  0
  161.7110  203.5090  149.8120 C   0  0  1  0  0  3  0  0  0  0  0  0
  160.5820  201.8460  148.7460 C   0  0  0  0  0  0  0  0  0  0  0  0
  160.9340  202.6310  146.3250 C   0  0  0  0  0  1  0  0  0  0  0  0
  162.3540  205.3310  151.3470 C   0  0  0  0  0  1  0  0  0  0  0  0
  161.1720  204.7190  150.5930 C   0  0  0  0  0  0  0  0  0  0  0  0
  161.3380  205.4010  148.3400 C   0  0  0  0  0  0  0  0  0  0  0  0
  161.5400  200.7120  148.3840 C   0  0  0  0  0  1  0  0  0  0  0  0
  160.9310  202.3430  150.0120 O   0  0  0  0  0  0  0  0  0  0  0  0
  160.5070  205.8090  147.1270 C   0  0  0  0  0  1  0  0  0  0  0  0
  2  1  2  0  0  0  0
  3  9  2  0  0  0  0
  3  4  1  0  0  0  0
  4  6  2  0  0  0  0
  5 11  1  0  0  0  0
  5  4  1  0  0  0  0
  6 14  1  0  0  0  0
  6  7  1  0  0  0  0
  7 15  1  1  0  0  0
  8 12  1  0  0  0  0
  9 10  1  0  0  0  0
 10 14  2  0  0  0  0
 11  1  1  6  0  0  0
 11  8  1  0  0  0  0
 12  7  1  0  0  0  0
 12 17  1  1  0  0  0
 13  9  1  0  0  0  0
 15 16  2  0  0  0  0
 17 20  1  0  0  0  0
 17 18  1  6  0  0  0
 20 19  2  0  0  0  0
 21 22  1  0  0  0  0
 22 20  1  0  0  0  0
 23  1  1  0  0  0  0
 24 25  1  0  0  0  0
 24 23  1  0  0  0  0
 27 37  1  0  0  0  0
 28 37  1  1  0  0  0
 28 32  1  0  0  0  0
 30 25  1  0  0  0  0
 30 36  1  0  0  0  0
 31 34  1  6  0  0  0
 31 28  1  0  0  0  0
 31 33  1  0  0  0  0
 32 39  1  6  0  0  0
 32 36  1  0  0  0  0
 33 26  1  0  0  0  0
 33 39  1  0  0  0  0
 36 35  1  0  0  0  0
 36 29  1  0  0  0  0
 37 30  1  0  0  0  0
 38 33  1  0  0  0  0
 40 37  1  0  0  0  0
M  END
>  <MODEL>
3

>  <REMARK>
 VINA RESULT:      -6.2      2.231      4.149
  Name = 
  9 active torsions:
  status: ('A' for Active; 'I' for Inactive)
    1  A    between atoms: C_3  and  C_20
    2  A    between atoms: C_3  and  C_24
    3  A    between atoms: C_7  and  C_11
    4  A    between atoms: O_10  and  C_31
    5  A    between atoms: N_16  and  C_38
    6  A    between atoms: C_19  and  C_27
    7  A    between atoms: C_19  and  C_31
    8  A    between atoms: C_20  and  C_22
    9  A    between atoms: C_22  and  C_38
                            x       y       z     vdW  Elec       q    Type
                         _______ _______ _______ _____ _____    ______ ____

>  <TORSDO>
F 9

$$$$
=
 OpenBabel11072410533D

 40 43  0  0  1  0  0  0  0  0999 V2000
  161.6410  209.8640  151.9610 C   0  0  0  0  0  0  0  0  0  0  0  0
  161.9350  210.3480  150.7580 C   0  0  0  0  0  2  0  0  0  0  0  0
  158.5030  213.0280  151.4060 C   0  0  0  0  0  3  0  0  0  0  0  0
  159.2940  212.6570  152.4980 C   0  0  0  0  0  0  0  0  0  0  0  0
  160.4510  211.9160  152.2510 O   0  0  0  0  0  0  0  0  0  0  0  0
  158.9100  213.0270  153.8040 C   0  0  0  0  0  0  0  0  0  0  0  0
  159.8150  212.7310  154.9820 C   0  0  2  0  0  3  0  0  0  0  0  0
  161.0950  210.7110  154.2710 C   0  0  0  0  0  2  0  0  0  0  0  0
  157.3120  213.7290  151.5980 C   0  0  0  0  0  0  0  0  0  0  0  0
  156.9000  214.0600  152.8880 C   0  0  0  0  0  3  0  0  0  0  0  0
  160.6570  210.6240  152.8130 C   0  0  2  0  0  3  0  0  0  0  0  0
  159.9780  211.2130  155.1800 C   0  0  1  0  0  3  0  0  0  0  0  0
  156.5120  214.0930  150.4800 N   0  0  0  0  0  1  0  0  0  0  0  0
  157.6950  213.7140  153.9820 C   0  0  0  0  0  3  0  0  0  0  0  0
  159.4320  213.4810  156.2350 C   0  0  0  0  0  3  0  0  0  0  0  0
  160.1590  214.3550  156.6780 O   0  0  0  0  0  0  0  0  0  0  0  0
  160.2450  210.7910  156.6350 C   0  0  2  0  0  3  0  0  0  0  0  0
  161.2590  211.5600  157.2150 O   0  0  0  0  0  1  0  0  0  0  0  0
  161.6420  208.9520  157.2610 O   0  0  0  0  0  0  0  0  0  0  0  0
  160.5610  209.3330  156.7330 C   0  0  0  0  0  0  0  0  0  0  0  0
  159.8630  207.0090  156.3330 C   0  0  0  0  0  1  0  0  0  0  0  0
  159.6680  208.4070  156.1930 O   0  0  0  0  0  0  0  0  0  0  0  0
  162.1590  208.4980  152.3190 C   0  0  0  0  0  2  0  0  0  0  0  0
  162.5370  207.6820  151.0890 C   0  0  0  0  0  2  0  0  0  0  0  0
  162.0890  206.2330  151.2160 C   0  0  0  0  0  2  0  0  0  0  0  0
  163.3980  203.9910  145.7680 C   0  0  0  0  0  1  0  0  0  0  0  0
  159.8650  204.5560  150.6170 C   0  0  0  0  0  1  0  0  0  0  0  0
  160.8330  204.1670  148.3780 C   0  0  2  0  0  3  0  0  0  0  0  0
  162.6790  207.3280  148.3010 C   0  0  0  0  0  1  0  0  0  0  0  0
  162.0270  205.5830  149.8970 N   0  0  0  0  0  0  0  0  0  0  0  0
  161.8510  203.3710  147.6050 C   0  0  2  0  0  3  0  0  0  0  0  0
  160.9400  205.5470  147.7460 C   0  0  1  0  0  3  0  0  0  0  0  0
  161.9860  204.1380  146.2980 C   0  0  0  0  0  0  0  0  0  0  0  0
  161.4320  201.9130  147.4570 C   0  0  0  0  0  1  0  0  0  0  0  0
  160.4140  207.4040  149.2840 C   0  0  0  0  0  1  0  0  0  0  0  0
  161.5340  206.4690  148.8240 C   0  0  0  0  0  0  0  0  0  0  0  0
  161.1800  204.3760  149.8570 C   0  0  0  0  0  0  0  0  0  0  0  0
  161.0080  203.6750  145.2190 C   0  0  0  0  0  1  0  0  0  0  0  0
  161.7390  205.4920  146.5770 O   0  0  0  0  0  0  0  0  0  0  0  0
  161.9060  203.1840  150.4710 C   0  0  0  0  0  1  0  0  0  0  0  0
  1 23  1  0  0  0  0
  2  1  2  0  0  0  0
  3  9  2  0  0  0  0
  3  4  1  0  0  0  0
  4  6  2  0  0  0  0
  5  4  1  0  0  0  0
  5 11  1  0  0  0  0
  6 14  1  0  0  0  0
  6  7  1  0  0  0  0
  7 12  1  0  0  0  0
  7 15  1  1  0  0  0
  8 12  1  0  0  0  0
  9 10  1  0  0  0  0
 10 14  2  0  0  0  0
 11  1  1  6  0  0  0
 11  8  1  0  0  0  0
 12 17  1  1  0  0  0
 13  9  1  0  0  0  0
 15 16  2  0  0  0  0
 17 20  1  0  0  0  0
 17 18  1  6  0  0  0
 20 19  2  0  0  0  0
 22 21  1  0  0  0  0
 22 20  1  0  0  0  0
 24 25  1  0  0  0  0
 24 23  1  0  0  0  0
 26 33  1  0  0  0  0
 28 37  1  1  0  0  0
 29 36  1  0  0  0  0
 30 25  1  0  0  0  0
 31 34  1  6  0  0  0
 31 28  1  0  0  0  0
 32 39  1  6  0  0  0
 32 28  1  0  0  0  0
 32 36  1  0  0  0  0
 33 39  1  0  0  0  0
 33 31  1  0  0  0  0
 36 35  1  0  0  0  0
 36 30  1  0  0  0  0
 37 30  1  0  0  0  0
 37 40  1  0  0  0  0
 37 27  1  0  0  0  0
 38 33  1  0  0  0  0
M  END
>  <MODEL>
4

>  <REMARK>
 VINA RESULT:      -5.8      2.144      3.326
  Name = 
  9 active torsions:
  status: ('A' for Active; 'I' for Inactive)
    1  A    between atoms: C_3  and  C_20
    2  A    between atoms: C_3  and  C_24
    3  A    between atoms: C_7  and  C_11
    4  A    between atoms: O_10  and  C_31
    5  A    between atoms: N_16  and  C_38
    6  A    between atoms: C_19  and  C_27
    7  A    between atoms: C_19  and  C_31
    8  A    between atoms: C_20  and  C_22
    9  A    between atoms: C_22  and  C_38
                            x       y       z     vdW  Elec       q    Type
                         _______ _______ _______ _____ _____    ______ ____

>  <TORSDO>
F 9

$$$$
=
 OpenBabel11072410533D

 40 43  0  0  1  0  0  0  0  0999 V2000
  161.7700  210.3670  150.9110 C   0  0  0  0  0  0  0  0  0  0  0  0
  161.9540  211.2020  149.8930 C   0  0  0  0  0  2  0  0  0  0  0  0
  158.3350  213.2040  151.4690 C   0  0  0  0  0  3  0  0  0  0  0  0
  159.2800  212.6710  152.3520 C   0  0  0  0  0  0  0  0  0  0  0  0
  160.4560  212.1440  151.8190 O   0  0  0  0  0  0  0  0  0  0  0  0
  159.0250  212.6720  153.7410 C   0  0  0  0  0  0  0  0  0  0  0  0
  160.0860  212.2030  154.7150 C   0  0  2  0  0  3  0  0  0  0  0  0
  161.4360  210.5680  153.4020 C   0  0  0  0  0  2  0  0  0  0  0  0
  157.1220  213.7020  151.9430 C   0  0  0  0  0  0  0  0  0  0  0  0
  156.8400  213.6660  153.3090 C   0  0  0  0  0  3  0  0  0  0  0  0
  160.8350  210.7860  152.0160 C   0  0  2  0  0  3  0  0  0  0  0  0
  160.3970  210.7110  154.5100 C   0  0  1  0  0  3  0  0  0  0  0  0
  156.1660  214.2340  151.0340 N   0  0  0  0  0  1  0  0  0  0  0  0
  157.7860  213.1580  154.2000 C   0  0  0  0  0  3  0  0  0  0  0  0
  159.7930  212.5840  156.1460 C   0  0  0  0  0  3  0  0  0  0  0  0
  160.4560  213.4430  156.7040 O   0  0  0  0  0  0  0  0  0  0  0  0
  160.8700  209.9830  155.7800 C   0  0  2  0  0  3  0  0  0  0  0  0
  162.2630  209.8540  155.8090 O   0  0  0  0  0  1  0  0  0  0  0  0
  159.8130  208.2590  157.0580 O   0  0  0  0  0  0  0  0  0  0  0  0
  160.2100  208.6500  155.9260 C   0  0  0  0  0  0  0  0  0  0  0  0
  161.1250  206.9600  154.3910 C   0  0  0  0  0  1  0  0  0  0  0  0
  160.0830  207.8290  154.8050 O   0  0  0  0  0  0  0  0  0  0  0  0
  162.3540  208.9840  150.8060 C   0  0  0  0  0  2  0  0  0  0  0  0
  161.7500  208.1880  149.6550 C   0  0  0  0  0  2  0  0  0  0  0  0
  162.7410  207.1830  149.0860 C   0  0  0  0  0  2  0  0  0  0  0  0
  162.0710  201.1870  148.9410 C   0  0  0  0  0  1  0  0  0  0  0  0
  160.4560  206.7130  150.7220 C   0  0  0  0  0  1  0  0  0  0  0  0
  160.5820  204.3220  150.1120 C   0  0  2  0  0  3  0  0  0  0  0  0
  162.2680  204.9200  146.9190 C   0  0  0  0  0  1  0  0  0  0  0  0
  162.2240  205.8090  149.2040 N   0  0  0  0  0  0  0  0  0  0  0  0
  161.2690  203.0160  150.4110 C   0  0  2  0  0  3  0  0  0  0  0  0
  160.4530  204.2910  148.5960 C   0  0  1  0  0  3  0  0  0  0  0  0
  160.9330  202.1520  149.2050 C   0  0  0  0  0  0  0  0  0  0  0  0
  160.8310  202.4440  151.7550 C   0  0  0  0  0  1  0  0  0  0  0  0
  160.4900  206.5200  147.5360 C   0  0  0  0  0  1  0  0  0  0  0  0
  161.3830  205.3950  148.0640 C   0  0  0  0  0  0  0  0  0  0  0  0
  161.4230  205.5670  150.4180 C   0  0  0  0  0  0  0  0  0  0  0  0
  159.6420  201.3530  149.3700 C   0  0  0  0  0  1  0  0  0  0  0  0
  160.7940  203.0080  148.1000 O   0  0  0  0  0  0  0  0  0  0  0  0
  162.3240  205.3910  151.6360 C   0  0  0  0  0  1  0  0  0  0  0  0
  2  1  2  0  0  0  0
  3  9  2  0  0  0  0
  3  4  1  0  0  0  0
  4  6  2  0  0  0  0
  5 11  1  0  0  0  0
  5  4  1  0  0  0  0
  6 14  1  0  0  0  0
  6  7  1  0  0  0  0
  7 15  1  1  0  0  0
  8 12  1  0  0  0  0
  9 10  1  0  0  0  0
 10 14  2  0  0  0  0
 11  1  1  6  0  0  0
 11  8  1  0  0  0  0
 12  7  1  0  0  0  0
 12 17  1  1  0  0  0
 13  9  1  0  0  0  0
 15 16  2  0  0  0  0
 17 18  1  6  0  0  0
 17 20  1  0  0  0  0
 20 19  2  0  0  0  0
 21 22  1  0  0  0  0
 22 20  1  0  0  0  0
 23  1  1  0  0  0  0
 24 23  1  0  0  0  0
 25 30  1  0  0  0  0
 25 24  1  0  0  0  0
 26 33  1  0  0  0  0
 28 31  1  0  0  0  0
 28 37  1  6  0  0  0
 29 36  1  0  0  0  0
 30 37  1  0  0  0  0
 31 34  1  1  0  0  0
 32 39  1  6  0  0  0
 32 28  1  0  0  0  0
 33 38  1  0  0  0  0
 33 31  1  0  0  0  0
 35 36  1  0  0  0  0
 36 32  1  0  0  0  0
 36 30  1  0  0  0  0
 37 27  1  0  0  0  0
 37 40  1  0  0  0  0
 39 33  1  0  0  0  0
M  END
>  <MODEL>
5

>  <REMARK>
 VINA RESULT:      -5.6      2.142      4.066
  Name = 
  9 active torsions:
  status: ('A' for Active; 'I' for Inactive)
    1  A    between atoms: C_3  and  C_20
    2  A    between atoms: C_3  and  C_24
    3  A    between atoms: C_7  and  C_11
    4  A    between atoms: O_10  and  C_31
    5  A    between atoms: N_16  and  C_38
    6  A    between atoms: C_19  and  C_27
    7  A    between atoms: C_19  and  C_31
    8  A    between atoms: C_20  and  C_22
    9  A    between atoms: C_22  and  C_38
                            x       y       z     vdW  Elec       q    Type
                         _______ _______ _______ _____ _____    ______ ____

>  <TORSDO>
F 9

$$$$
=
 OpenBabel11072410533D

 40 43  0  0  1  0  0  0  0  0999 V2000
  160.8050  207.0020  151.6690 C   0  0  0  0  0  0  0  0  0  0  0  0
  160.9320  208.3120  151.4770 C   0  0  0  0  0  2  0  0  0  0  0  0
  160.8280  202.5960  150.8020 C   0  0  0  0  0  3  0  0  0  0  0  0
  161.2840  203.7080  150.0860 C   0  0  0  0  0  0  0  0  0  0  0  0
  161.5040  204.8960  150.7830 O   0  0  0  0  0  0  0  0  0  0  0  0
  161.5040  203.6070  148.6950 C   0  0  0  0  0  0  0  0  0  0  0  0
  162.1050  204.7670  147.9280 C   0  0  2  0  0  3  0  0  0  0  0  0
  161.4200  206.7790  149.2350 C   0  0  0  0  0  2  0  0  0  0  0  0
  160.5470  201.3970  150.1480 C   0  0  0  0  0  0  0  0  0  0  0  0
  160.7170  201.3000  148.7670 C   0  0  0  0  0  3  0  0  0  0  0  0
  160.8170  206.1010  150.4610 C   0  0  2  0  0  3  0  0  0  0  0  0
  161.1680  205.9870  147.9550 C   0  0  1  0  0  3  0  0  0  0  0  0
  160.0760  200.2760  150.8870 N   0  0  0  0  0  1  0  0  0  0  0  0
  161.1940  202.3970  148.0480 C   0  0  0  0  0  3  0  0  0  0  0  0
  162.5860  204.3870  146.5490 C   0  0  0  0  0  3  0  0  0  0  0  0
  163.7090  204.6930  146.1810 O   0  0  0  0  0  0  0  0  0  0  0  0
  161.2900  206.9060  146.7280 C   0  0  2  0  0  3  0  0  0  0  0  0
  160.8500  208.2030  147.0120 O   0  0  0  0  0  1  0  0  0  0  0  0
  159.4190  205.8340  145.6920 O   0  0  0  0  0  0  0  0  0  0  0  0
  160.5640  206.3450  145.5480 C   0  0  0  0  0  0  0  0  0  0  0  0
  161.2090  205.2030  143.4670 C   0  0  0  0  0  1  0  0  0  0  0  0
  161.1880  206.3510  144.3010 O   0  0  0  0  0  0  0  0  0  0  0  0
  160.8500  206.4870  153.0820 C   0  0  0  0  0  2  0  0  0  0  0  0
  162.0290  207.0500  153.8660 C   0  0  0  0  0  2  0  0  0  0  0  0
  161.5780  207.7230  155.1540 C   0  0  0  0  0  2  0  0  0  0  0  0
  158.6910  212.2820  152.4530 C   0  0  0  0  0  1  0  0  0  0  0  0
  160.0840  208.9260  157.2600 C   0  0  0  0  0  1  0  0  0  0  0  0
  159.3810  210.6890  155.6780 C   0  0  2  0  0  3  0  0  0  0  0  0
  162.3160  210.3350  153.5200 C   0  0  0  0  0  1  0  0  0  0  0  0
  160.8110  208.9470  154.8690 N   0  0  0  0  0  0  0  0  0  0  0  0
  158.4140  211.0310  154.5760 C   0  0  2  0  0  3  0  0  0  0  0  0
  160.6750  211.3300  155.1980 C   0  0  1  0  0  3  0  0  0  0  0  0
  159.0320  212.2620  153.9290 C   0  0  0  0  0  0  0  0  0  0  0  0
  156.9980  211.2230  155.1070 C   0  0  0  0  0  1  0  0  0  0  0  0
  162.7170  210.1670  155.9510 C   0  0  0  0  0  1  0  0  0  0  0  0
  161.6320  210.1730  154.8710 C   0  0  0  0  0  0  0  0  0  0  0  0
  159.6980  209.1940  155.8050 C   0  0  0  0  0  0  0  0  0  0  0  0
  158.5670  213.5750  154.5570 C   0  0  0  0  0  1  0  0  0  0  0  0
  160.4240  212.1610  154.0780 O   0  0  0  0  0  0  0  0  0  0  0  0
  158.5040  208.3030  155.4740 C   0  0  0  0  0  1  0  0  0  0  0  0
  1 23  1  0  0  0  0
  2  1  2  0  0  0  0
  4  5  1  0  0  0  0
  4  3  2  0  0  0  0
  6  4  1  0  0  0  0
  7 15  1  6  0  0  0
  7 12  1  0  0  0  0
  7  6  1  0  0  0  0
  8 11  1  0  0  0  0
  9  3  1  0  0  0  0
  9 13  1  0  0  0  0
 10  9  2  0  0  0  0
 11  5  1  0  0  0  0
 11  1  1  1  0  0  0
 12 17  1  6  0  0  0
 12  8  1  0  0  0  0
 14  6  2  0  0  0  0
 14 10  1  0  0  0  0
 16 15  2  0  0  0  0
 17 18  1  1  0  0  0
 20 19  2  0  0  0  0
 20 17  1  0  0  0  0
 21 22  1  0  0  0  0
 22 20  1  0  0  0  0
 23 24  1  0  0  0  0
 24 25  1  0  0  0  0
 26 33  1  0  0  0  0
 28 37  1  6  0  0  0
 29 36  1  0  0  0  0
 30 36  1  0  0  0  0
 30 25  1  0  0  0  0
 30 37  1  0  0  0  0
 31 34  1  1  0  0  0
 31 28  1  0  0  0  0
 32 39  1  6  0  0  0
 32 28  1  0  0  0  0
 33 39  1  0  0  0  0
 33 38  1  0  0  0  0
 33 31  1  0  0  0  0
 36 32  1  0  0  0  0
 36 35  1  0  0  0  0
 37 27  1  0  0  0  0
 40 37  1  0  0  0  0
M  END
>  <MODEL>
6

>  <REMARK>
 VINA RESULT:      -5.6      2.382      9.273
  Name = 
  9 active torsions:
  status: ('A' for Active; 'I' for Inactive)
    1  A    between atoms: C_3  and  C_20
    2  A    between atoms: C_3  and  C_24
    3  A    between atoms: C_7  and  C_11
    4  A    between atoms: O_10  and  C_31
    5  A    between atoms: N_16  and  C_38
    6  A    between atoms: C_19  and  C_27
    7  A    between atoms: C_19  and  C_31
    8  A    between atoms: C_20  and  C_22
    9  A    between atoms: C_22  and  C_38
                            x       y       z     vdW  Elec       q    Type
                         _______ _______ _______ _____ _____    ______ ____

>  <TORSDO>
F 9

$$$$
=
 OpenBabel11072410533D

 40 43  0  0  1  0  0  0  0  0999 V2000
  161.9370  210.0010  149.2530 C   0  0  0  0  0  0  0  0  0  0  0  0
  162.0130  211.1930  148.6700 C   0  0  0  0  0  2  0  0  0  0  0  0
  159.4780  212.5740  151.9920 C   0  0  0  0  0  3  0  0  0  0  0  0
  160.4190  211.5660  152.2260 C   0  0  0  0  0  0  0  0  0  0  0  0
  161.3020  211.2370  151.1980 O   0  0  0  0  0  0  0  0  0  0  0  0
  160.4520  210.9100  153.4760 C   0  0  0  0  0  0  0  0  0  0  0  0
  161.5370  209.8980  153.7820 C   0  0  2  0  0  3  0  0  0  0  0  0
  162.1600  208.9810  151.5480 C   0  0  0  0  0  2  0  0  0  0  0  0
  158.5410  212.9110  152.9690 C   0  0  0  0  0  0  0  0  0  0  0  0
  158.5350  212.2380  154.1900 C   0  0  0  0  0  3  0  0  0  0  0  0
  161.3690  209.9250  150.6470 C   0  0  2  0  0  3  0  0  0  0  0  0
  161.4280  208.6780  152.8510 C   0  0  1  0  0  3  0  0  0  0  0  0
  157.5840  213.9330  152.7150 N   0  0  0  0  0  1  0  0  0  0  0  0
  159.4860  211.2470  154.4420 C   0  0  0  0  0  3  0  0  0  0  0  0
  161.6350  209.5520  155.2480 C   0  0  0  0  0  3  0  0  0  0  0  0
  161.9830  210.3950  156.0590 O   0  0  0  0  0  0  0  0  0  0  0  0
  161.9500  207.3670  153.4630 C   0  0  2  0  0  3  0  0  0  0  0  0
  162.7380  206.6550  152.5530 O   0  0  0  0  0  1  0  0  0  0  0  0
  160.7010  205.3300  153.5730 O   0  0  0  0  0  0  0  0  0  0  0  0
  160.8320  206.5180  153.9770 C   0  0  0  0  0  0  0  0  0  0  0  0
  160.0710  206.9550  156.2740 C   0  0  0  0  0  1  0  0  0  0  0  0
  159.9140  207.0730  154.8690 O   0  0  0  0  0  0  0  0  0  0  0  0
  162.2400  208.7860  148.4200 C   0  0  0  0  0  2  0  0  0  0  0  0
  161.2030  207.6840  148.6030 C   0  0  0  0  0  2  0  0  0  0  0  0
  161.0260  206.8630  147.3340 C   0  0  0  0  0  2  0  0  0  0  0  0
  158.9330  201.4570  149.0120 C   0  0  0  0  0  1  0  0  0  0  0  0
  162.9830  205.0400  146.3520 C   0  0  0  0  0  1  0  0  0  0  0  0
  161.7550  203.2090  147.4670 C   0  0  2  0  0  3  0  0  0  0  0  0
  160.2640  205.3660  150.0210 C   0  0  0  0  0  1  0  0  0  0  0  0
  160.8820  205.4320  147.6490 N   0  0  0  0  0  0  0  0  0  0  0  0
  160.5830  202.2710  147.3490 C   0  0  2  0  0  3  0  0  0  0  0  0
  161.7340  203.5840  148.9410 C   0  0  1  0  0  3  0  0  0  0  0  0
  160.4000  201.7500  148.7660 C   0  0  0  0  0  0  0  0  0  0  0  0
  160.8250  201.1970  146.2930 C   0  0  0  0  0  1  0  0  0  0  0  0
  162.6120  205.8410  149.4200 C   0  0  0  0  0  1  0  0  0  0  0  0
  161.3560  205.0740  149.0000 C   0  0  0  0  0  0  0  0  0  0  0  0
  161.5850  204.5350  146.7130 C   0  0  0  0  0  0  0  0  0  0  0  0
  161.2070  200.4860  149.0580 C   0  0  0  0  0  1  0  0  0  0  0  0
  160.8180  202.7630  149.6440 O   0  0  0  0  0  0  0  0  0  0  0  0
  160.8010  204.3840  145.4140 C   0  0  0  0  0  1  0  0  0  0  0  0
  2  1  2  0  0  0  0
  3  4  2  0  0  0  0
  3  9  1  0  0  0  0
  4  6  1  0  0  0  0
  5  4  1  0  0  0  0
  6  7  1  0  0  0  0
  6 14  2  0  0  0  0
  7 15  1  1  0  0  0
  8 12  1  0  0  0  0
  9 10  2  0  0  0  0
 10 14  1  0  0  0  0
 11  1  1  6  0  0  0
 11  5  1  0  0  0  0
 11  8  1  0  0  0  0
 12 17  1  1  0  0  0
 12  7  1  0  0  0  0
 13  9  1  0  0  0  0
 15 16  2  0  0  0  0
 17 18  1  6  0  0  0
 17 20  1  0  0  0  0
 19 20  2  0  0  0  0
 20 22  1  0  0  0  0
 22 21  1  0  0  0  0
 23 24  1  0  0  0  0
 23  1  1  0  0  0  0
 25 30  1  0  0  0  0
 25 24  1  0  0  0  0
 27 37  1  0  0  0  0
 28 37  1  6  0  0  0
 28 32  1  0  0  0  0
 30 36  1  0  0  0  0
 31 34  1  6  0  0  0
 31 28  1  0  0  0  0
 31 33  1  0  0  0  0
 32 36  1  0  0  0  0
 32 39  1  1  0  0  0
 33 26  1  0  0  0  0
 33 38  1  0  0  0  0
 33 39  1  0  0  0  0
 36 35  1  0  0  0  0
 36 29  1  0  0  0  0
 37 30  1  0  0  0  0
 40 37  1  0  0  0  0
M  END
>  <MODEL>
7

>  <REMARK>
 VINA RESULT:      -5.5      2.612      5.021
  Name = 
  9 active torsions:
  status: ('A' for Active; 'I' for Inactive)
    1  A    between atoms: C_3  and  C_20
    2  A    between atoms: C_3  and  C_24
    3  A    between atoms: C_7  and  C_11
    4  A    between atoms: O_10  and  C_31
    5  A    between atoms: N_16  and  C_38
    6  A    between atoms: C_19  and  C_27
    7  A    between atoms: C_19  and  C_31
    8  A    between atoms: C_20  and  C_22
    9  A    between atoms: C_22  and  C_38
                            x       y       z     vdW  Elec       q    Type
                         _______ _______ _______ _____ _____    ______ ____

>  <TORSDO>
F 9

$$$$
=
 OpenBabel11072410533D

 40 43  0  0  1  0  0  0  0  0999 V2000
  161.2510  208.8650  152.1850 C   0  0  0  0  0  0  0  0  0  0  0  0
  161.3180  207.8860  153.0820 C   0  0  0  0  0  2  0  0  0  0  0  0
  160.0530  212.7140  150.2070 C   0  0  0  0  0  3  0  0  0  0  0  0
  160.1060  212.3110  151.5450 C   0  0  0  0  0  0  0  0  0  0  0  0
  160.8960  211.2070  151.8700 O   0  0  0  0  0  0  0  0  0  0  0  0
  159.3670  213.0120  152.5220 C   0  0  0  0  0  0  0  0  0  0  0  0
  159.5050  212.6570  153.9890 C   0  0  2  0  0  3  0  0  0  0  0  0
  160.1260  210.2410  153.9730 C   0  0  0  0  0  2  0  0  0  0  0  0
  159.2430  213.7820  149.8200 C   0  0  0  0  0  0  0  0  0  0  0  0
  158.4740  214.4530  150.7700 C   0  0  0  0  0  3  0  0  0  0  0  0
  160.3530  210.0390  152.4780 C   0  0  2  0  0  3  0  0  0  0  0  0
  158.9990  211.2290  154.2570 C   0  0  1  0  0  3  0  0  0  0  0  0
  159.1920  214.1770  148.4540 N   0  0  0  0  0  1  0  0  0  0  0  0
  158.5380  214.0720  152.1110 C   0  0  0  0  0  3  0  0  0  0  0  0
  158.9290  213.7020  154.9130 C   0  0  0  0  0  3  0  0  0  0  0  0
  159.6520  214.3020  155.6920 O   0  0  0  0  0  0  0  0  0  0  0  0
  158.4440  211.0100  155.6750 C   0  0  2  0  0  3  0  0  0  0  0  0
  158.8740  209.7920  156.2120 O   0  0  0  0  0  1  0  0  0  0  0  0
  156.2840  210.8730  154.6570 O   0  0  0  0  0  0  0  0  0  0  0  0
  156.9530  211.1060  155.7010 C   0  0  0  0  0  0  0  0  0  0  0  0
  155.9520  212.8510  157.1170 C   0  0  0  0  0  1  0  0  0  0  0  0
  156.3190  211.5010  156.8790 O   0  0  0  0  0  0  0  0  0  0  0  0
  162.2150  208.8330  151.0310 C   0  0  0  0  0  2  0  0  0  0  0  0
  162.6260  207.4130  150.6590 C   0  0  0  0  0  2  0  0  0  0  0  0
  162.3540  207.1150  149.1920 C   0  0  0  0  0  2  0  0  0  0  0  0
  162.6750  201.1640  148.2420 C   0  0  0  0  0  1  0  0  0  0  0  0
  159.7640  206.1700  149.9090 C   0  0  0  0  0  1  0  0  0  0  0  0
  160.4360  203.9190  149.1450 C   0  0  2  0  0  3  0  0  0  0  0  0
  162.9460  205.1470  146.7810 C   0  0  0  0  0  1  0  0  0  0  0  0
  162.0400  205.6910  148.9940 N   0  0  0  0  0  0  0  0  0  0  0  0
  161.1790  202.6660  149.5280 C   0  0  2  0  0  3  0  0  0  0  0  0
  160.8060  204.0910  147.6790 C   0  0  1  0  0  3  0  0  0  0  0  0
  161.3820  201.9520  148.2000 C   0  0  0  0  0  0  0  0  0  0  0  0
  160.4250  201.8640  150.5840 C   0  0  0  0  0  1  0  0  0  0  0  0
  160.8450  206.4380  146.9180 C   0  0  0  0  0  1  0  0  0  0  0  0
  161.6800  205.3540  147.6020 C   0  0  0  0  0  0  0  0  0  0  0  0
  160.9370  205.1920  149.8370 C   0  0  0  0  0  0  0  0  0  0  0  0
  160.2410  201.0010  147.8420 C   0  0  0  0  0  1  0  0  0  0  0  0
  161.4760  202.9360  147.2030 O   0  0  0  0  0  0  0  0  0  0  0  0
  161.4160  204.9430  151.2640 C   0  0  0  0  0  1  0  0  0  0  0  0
  1  2  2  0  0  0  0
  3  4  1  0  0  0  0
  4  5  1  0  0  0  0
  4  6  2  0  0  0  0
  5 11  1  0  0  0  0
  6  7  1  0  0  0  0
  7 12  1  0  0  0  0
  7 15  1  1  0  0  0
  8 12  1  0  0  0  0
  9  3  2  0  0  0  0
  9 10  1  0  0  0  0
 10 14  2  0  0  0  0
 11  1  1  1  0  0  0
 11  8  1  0  0  0  0
 12 17  1  1  0  0  0
 13  9  1  0  0  0  0
 14  6  1  0  0  0  0
 15 16  2  0  0  0  0
 17 20  1  0  0  0  0
 17 18  1  6  0  0  0
 19 20  2  0  0  0  0
 20 22  1  0  0  0  0
 22 21  1  0  0  0  0
 23  1  1  0  0  0  0
 24 23  1  0  0  0  0
 25 24  1  0  0  0  0
 28 31  1  0  0  0  0
 28 37  1  1  0  0  0
 29 36  1  0  0  0  0
 30 25  1  0  0  0  0
 30 37  1  0  0  0  0
 31 34  1  1  0  0  0
 32 39  1  1  0  0  0
 32 28  1  0  0  0  0
 33 26  1  0  0  0  0
 33 31  1  0  0  0  0
 35 36  1  0  0  0  0
 36 32  1  0  0  0  0
 36 30  1  0  0  0  0
 37 27  1  0  0  0  0
 37 40  1  0  0  0  0
 38 33  1  0  0  0  0
 39 33  1  0  0  0  0
M  END
>  <MODEL>
8

>  <REMARK>
 VINA RESULT:      -5.5      1.661      2.677
  Name = 
  9 active torsions:
  status: ('A' for Active; 'I' for Inactive)
    1  A    between atoms: C_3  and  C_20
    2  A    between atoms: C_3  and  C_24
    3  A    between atoms: C_7  and  C_11
    4  A    between atoms: O_10  and  C_31
    5  A    between atoms: N_16  and  C_38
    6  A    between atoms: C_19  and  C_27
    7  A    between atoms: C_19  and  C_31
    8  A    between atoms: C_20  and  C_22
    9  A    between atoms: C_22  and  C_38
                            x       y       z     vdW  Elec       q    Type
                         _______ _______ _______ _____ _____    ______ ____

>  <TORSDO>
F 9

$$$$
=
 OpenBabel11072410533D

 40 43  0  0  1  0  0  0  0  0999 V2000
  161.8070  208.3760  150.0470 C   0  0  0  0  0  0  0  0  0  0  0  0
  161.8940  209.3230  149.1180 C   0  0  0  0  0  2  0  0  0  0  0  0
  161.3390  206.0490  146.2350 C   0  0  0  0  0  3  0  0  0  0  0  0
  161.1430  205.7180  147.5800 C   0  0  0  0  0  0  0  0  0  0  0  0
  160.9790  206.7570  148.4960 O   0  0  0  0  0  0  0  0  0  0  0  0
  161.1210  204.3630  147.9760 C   0  0  0  0  0  0  0  0  0  0  0  0
  160.7970  203.9880  149.4070 C   0  0  2  0  0  3  0  0  0  0  0  0
  161.5360  205.9660  150.7350 C   0  0  0  0  0  2  0  0  0  0  0  0
  161.5550  205.0520  145.2830 C   0  0  0  0  0  0  0  0  0  0  0  0
  161.5810  203.7130  145.6710 C   0  0  0  0  0  3  0  0  0  0  0  0
  161.8570  206.9360  149.6030 C   0  0  2  0  0  3  0  0  0  0  0  0
  161.8700  204.5230  150.3710 C   0  0  1  0  0  3  0  0  0  0  0  0
  161.7610  205.4020  143.9200 N   0  0  0  0  0  1  0  0  0  0  0  0
  161.3620  203.3720  147.0070 C   0  0  0  0  0  3  0  0  0  0  0  0
  160.4800  202.5230  149.5840 C   0  0  0  0  0  3  0  0  0  0  0  0
  159.5740  202.0060  148.9500 O   0  0  0  0  0  0  0  0  0  0  0  0
  162.0520  203.6810  151.6450 C   0  0  2  0  0  3  0  0  0  0  0  0
  162.2110  202.3240  151.3440 O   0  0  0  0  0  1  0  0  0  0  0  0
  160.0410  202.9930  152.7430 O   0  0  0  0  0  0  0  0  0  0  0  0
  160.9230  203.8850  152.6030 C   0  0  0  0  0  0  0  0  0  0  0  0
  161.9880  205.8300  153.6650 C   0  0  0  0  0  1  0  0  0  0  0  0
  160.8340  205.0890  153.3000 O   0  0  0  0  0  0  0  0  0  0  0  0
  161.8570  208.7950  151.4900 C   0  0  0  0  0  2  0  0  0  0  0  0
  160.4720  208.8580  152.1230 C   0  0  0  0  0  2  0  0  0  0  0  0
  160.5480  208.8580  153.6420 C   0  0  0  0  0  2  0  0  0  0  0  0
  157.0020  213.6700  154.4740 C   0  0  0  0  0  1  0  0  0  0  0  0
  160.5640  209.2370  156.4660 C   0  0  0  0  0  1  0  0  0  0  0  0
  159.2380  211.2960  156.1410 C   0  0  2  0  0  3  0  0  0  0  0  0
  160.4530  211.8950  152.7400 C   0  0  0  0  0  1  0  0  0  0  0  0
  159.8460  210.0240  154.2050 N   0  0  0  0  0  0  0  0  0  0  0  0
  157.8520  211.8370  155.9110 C   0  0  2  0  0  3  0  0  0  0  0  0
  160.0940  212.1820  155.2480 C   0  0  1  0  0  3  0  0  0  0  0  0
  158.0990  213.2600  155.4350 C   0  0  0  0  0  0  0  0  0  0  0  0
  156.9850  211.7150  157.1600 C   0  0  0  0  0  1  0  0  0  0  0  0
  162.1170  211.0750  154.3700 C   0  0  0  0  0  1  0  0  0  0  0  0
  160.6210  211.2770  154.1230 C   0  0  0  0  0  0  0  0  0  0  0  0
  159.4590  209.8700  155.6200 C   0  0  0  0  0  0  0  0  0  0  0  0
  158.1590  214.2790  156.5730 C   0  0  0  0  0  1  0  0  0  0  0  0
  159.3290  213.2690  154.7580 O   0  0  0  0  0  0  0  0  0  0  0  0
  158.2190  208.9920  155.7510 C   0  0  0  0  0  1  0  0  0  0  0  0
  1 23  1  0  0  0  0
  2  1  2  0  0  0  0
  3  4  1  0  0  0  0
  4  6  2  0  0  0  0
  4  5  1  0  0  0  0
  5 11  1  0  0  0  0
  6  7  1  0  0  0  0
  7 15  1  6  0  0  0
  7 12  1  0  0  0  0
  9 10  1  0  0  0  0
  9  3  2  0  0  0  0
 10 14  2  0  0  0  0
 11  1  1  1  0  0  0
 11  8  1  0  0  0  0
 12  8  1  0  0  0  0
 12 17  1  1  0  0  0
 13  9  1  0  0  0  0
 14  6  1  0  0  0  0
 16 15  2  0  0  0  0
 17 18  1  6  0  0  0
 17 20  1  0  0  0  0
 20 19  2  0  0  0  0
 20 22  1  0  0  0  0
 22 21  1  0  0  0  0
 23 24  1  0  0  0  0
 24 25  1  0  0  0  0
 25 30  1  0  0  0  0
 26 33  1  0  0  0  0
 28 37  1  6  0  0  0
 29 36  1  0  0  0  0
 30 37  1  0  0  0  0
 31 28  1  0  0  0  0
 31 34  1  1  0  0  0
 32 39  1  6  0  0  0
 32 28  1  0  0  0  0
 33 31  1  0  0  0  0
 33 38  1  0  0  0  0
 36 30  1  0  0  0  0
 36 35  1  0  0  0  0
 36 32  1  0  0  0  0
 37 40  1  0  0  0  0
 37 27  1  0  0  0  0
 39 33  1  0  0  0  0
M  END
>  <MODEL>
9

>  <REMARK>
 VINA RESULT:      -5.1      2.517      9.109
  Name = 
  9 active torsions:
  status: ('A' for Active; 'I' for Inactive)
    1  A    between atoms: C_3  and  C_20
    2  A    between atoms: C_3  and  C_24
    3  A    between atoms: C_7  and  C_11
    4  A    between atoms: O_10  and  C_31
    5  A    between atoms: N_16  and  C_38
    6  A    between atoms: C_19  and  C_27
    7  A    between atoms: C_19  and  C_31
    8  A    between atoms: C_20  and  C_22
    9  A    between atoms: C_22  and  C_38
                            x       y       z     vdW  Elec       q    Type
                         _______ _______ _______ _____ _____    ______ ____

>  <TORSDO>
F 9

$$$$
