=
 OpenBabel11072413593D

 29 33  0  0  1  0  0  0  0  0999 V2000
  161.0360  204.5960  150.5740 N   0  0  0  0  0  0  0  0  0  0  0  0
  161.1010  203.2730  151.1490 C   0  0  0  0  0  0  0  0  0  0  0  0
  160.7350  204.7380  149.1430 C   0  0  0  0  0  2  0  0  0  0  0  0
  161.6020  208.1570  151.5360 C   0  0  0  0  0  0  0  0  0  0  0  0
  161.8860  209.2990  151.0030 N   0  0  0  0  0  2  0  0  0  0  0  0
  161.3800  203.1190  152.3700 O   0  0  0  0  0  0  0  0  0  0  0  0
  161.6480  207.0350  149.2830 C   0  0  0  0  0  3  0  0  0  0  0  0
  161.1650  205.7920  151.3750 C   0  0  0  0  0  0  0  0  0  0  0  0
  161.0100  205.7590  152.7260 N   0  0  0  0  0  0  0  0  0  0  0  0
  161.1410  206.8840  153.4760 C   0  0  0  0  0  0  0  0  0  0  0  0
  161.3750  205.9630  148.5350 C   0  0  0  0  0  0  0  0  0  0  0  0
  161.4610  207.0090  150.7440 C   0  0  0  0  0  0  0  0  0  0  0  0
  161.4360  208.0680  152.8820 N   0  0  0  0  0  2  0  0  0  0  0  0
  160.9720  206.8190  154.8870 N   0  0  0  0  0  1  0  0  0  0  0  0
  160.6700  201.4470  147.5140 C   0  0  0  0  0  0  0  0  0  0  0  0
  159.4640  202.0110  149.6260 C   0  0  2  0  0  3  0  0  0  0  0  0
  159.4730  201.1420  148.3660 C   0  0  0  0  0  2  0  0  0  0  0  0
  160.5490  201.5150  146.3010 O   0  0  0  0  0  0  0  0  0  0  0  0
  161.9950  201.3370  149.6330 C   0  0  0  0  0  2  0  0  0  0  0  0
  160.8280  202.0520  150.3200 C   0  0  1  0  0  0  0  0  0  0  0  0
  162.0220  201.6500  148.1380 C   0  0  0  0  0  2  0  0  0  0  0  0
  159.7390  201.1430  150.8460 C   0  0  0  0  0  2  0  0  0  0  0  0
  162.1790  204.6340  145.0320 C   0  0  0  0  0  2  0  0  0  0  0  0
  161.5740  206.0500  147.0590 C   0  0  0  0  0  3  0  0  0  0  0  0
  161.7720  205.8770  144.3840 N   0  0  0  0  0  0  0  0  0  0  0  0
  162.3630  204.8420  146.5390 C   0  0  0  0  0  2  0  0  0  0  0  0
  160.4030  206.1970  144.8010 C   0  0  0  0  0  2  0  0  0  0  0  0
  160.2390  206.2150  146.3310 C   0  0  0  0  0  2  0  0  0  0  0  0
  161.7250  205.6280  143.0550 O   0  0  0  0  0  1  0  0  0  0  0  0
  1  2  1  0  0  0  0
  1  8  1  0  0  0  0
  2  6  2  0  0  0  0
  3  1  1  0  0  0  0
  4 13  1  0  0  0  0
  5  4  2  0  0  0  0
  7 12  1  0  0  0  0
  8  9  1  0  0  0  0
  9 10  2  0  0  0  0
 10 14  1  0  0  0  0
 11  3  1  0  0  0  0
 11  7  2  0  0  0  0
 12  8  2  0  0  0  0
 12  4  1  0  0  0  0
 13 10  1  0  0  0  0
 15 21  1  0  0  0  0
 15 17  1  0  0  0  0
 16 17  1  6  0  0  0
 16 20  1  0  0  0  0
 16 22  1  0  0  0  0
 18 15  2  0  0  0  0
 19 20  1  0  0  0  0
 20 22  1  0  0  0  0
 20  2  1  1  0  0  0
 21 19  1  0  0  0  0
 23 26  1  0  0  0  0
 24 11  1  0  0  0  0
 25 27  1  0  0  0  0
 25 23  1  0  0  0  0
 26 24  1  0  0  0  0
 27 28  1  0  0  0  0
 28 24  1  0  0  0  0
 29 25  1  0  0  0  0
M  END
>  <MODEL>
1

>  <REMARK>
 VINA RESULT:      -6.8      0.000      0.000
  Name = 
  2 active torsions:
  status: ('A' for Active; 'I' for Inactive)
    1  A    between atoms: C_2  and  C_18
    2  A    between atoms: C_5  and  C_23
                            x       y       z     vdW  Elec       q    Type
                         _______ _______ _______ _____ _____    ______ ____

>  <TORSDO>
F 2

$$$$
=
 OpenBabel11072413593D

 29 33  0  0  1  0  0  0  0  0999 V2000
  161.3850  208.6850  151.2670 N   0  0  0  0  0  0  0  0  0  0  0  0
  160.8780  208.9100  152.6010 C   0  0  0  0  0  0  0  0  0  0  0  0
  162.0450  209.7900  150.5590 C   0  0  0  0  0  2  0  0  0  0  0  0
  161.4460  206.0280  148.6470 C   0  0  0  0  0  0  0  0  0  0  0  0
  161.5710  205.8940  147.3680 N   0  0  0  0  0  2  0  0  0  0  0  0
  160.2870  207.9870  153.2240 O   0  0  0  0  0  0  0  0  0  0  0  0
  161.6840  208.5270  148.4610 C   0  0  0  0  0  3  0  0  0  0  0  0
  161.3480  207.3850  150.6370 C   0  0  0  0  0  0  0  0  0  0  0  0
  161.1620  206.2510  151.3660 N   0  0  0  0  0  0  0  0  0  0  0  0
  161.1190  205.0320  150.7680 C   0  0  0  0  0  0  0  0  0  0  0  0
  161.8720  209.7050  149.0610 C   0  0  0  0  0  0  0  0  0  0  0  0
  161.5030  207.2940  149.2460 C   0  0  0  0  0  0  0  0  0  0  0  0
  161.2590  204.9270  149.4210 N   0  0  0  0  0  2  0  0  0  0  0  0
  160.9240  203.8630  151.5550 N   0  0  0  0  0  1  0  0  0  0  0  0
  160.9050  211.2060  155.9860 C   0  0  0  0  0  0  0  0  0  0  0  0
  159.7640  210.8960  153.7870 C   0  0  2  0  0  3  0  0  0  0  0  0
  160.0140  211.8450  154.9620 C   0  0  0  0  0  2  0  0  0  0  0  0
  160.6610  211.3480  157.1730 O   0  0  0  0  0  0  0  0  0  0  0  0
  162.3420  210.5160  154.0580 C   0  0  0  0  0  2  0  0  0  0  0  0
  161.0510  210.2350  153.2840 C   0  0  1  0  0  0  0  0  0  0  0  0
  162.1090  210.4110  155.5640 C   0  0  0  0  0  2  0  0  0  0  0  0
  160.4730  211.4220  152.5460 C   0  0  0  0  0  2  0  0  0  0  0  0
  160.7680  212.5920  146.7950 C   0  0  0  0  0  2  0  0  0  0  0  0
  162.0590  210.9200  148.2150 C   0  0  0  0  0  3  0  0  0  0  0  0
  162.0830  213.2260  146.8350 N   0  0  0  0  0  0  0  0  0  0  0  0
  160.8460  211.1490  147.3070 C   0  0  0  0  0  2  0  0  0  0  0  0
  162.4610  213.4350  148.2360 C   0  0  0  0  0  2  0  0  0  0  0  0
  162.3700  212.1470  149.0730 C   0  0  0  0  0  2  0  0  0  0  0  0
  161.9420  214.4530  146.2830 O   0  0  0  0  0  1  0  0  0  0  0  0
  1  2  1  0  0  0  0
  2  6  2  0  0  0  0
  3  1  1  0  0  0  0
  4 12  1  0  0  0  0
  4 13  1  0  0  0  0
  5  4  2  0  0  0  0
  7 11  2  0  0  0  0
  7 12  1  0  0  0  0
  8  1  1  0  0  0  0
  8  9  1  0  0  0  0
 10  9  2  0  0  0  0
 10 14  1  0  0  0  0
 11  3  1  0  0  0  0
 12  8  2  0  0  0  0
 13 10  1  0  0  0  0
 15 18  2  0  0  0  0
 16 22  1  6  0  0  0
 16 17  1  0  0  0  0
 17 15  1  0  0  0  0
 19 21  1  0  0  0  0
 20  2  1  6  0  0  0
 20 16  1  0  0  0  0
 20 19  1  0  0  0  0
 21 15  1  0  0  0  0
 22 20  1  0  0  0  0
 23 25  1  0  0  0  0
 23 26  1  0  0  0  0
 24 11  1  0  0  0  0
 24 28  1  0  0  0  0
 25 27  1  0  0  0  0
 26 24  1  0  0  0  0
 27 28  1  0  0  0  0
 29 25  1  0  0  0  0
M  END
>  <MODEL>
2

>  <REMARK>
 VINA RESULT:      -6.7      4.266      7.610
  Name = 
  2 active torsions:
  status: ('A' for Active; 'I' for Inactive)
    1  A    between atoms: C_2  and  C_18
    2  A    between atoms: C_5  and  C_23
                            x       y       z     vdW  Elec       q    Type
                         _______ _______ _______ _____ _____    ______ ____

>  <TORSDO>
F 2

$$$$
=
 OpenBabel11072413593D

 29 33  0  0  1  0  0  0  0  0999 V2000
  161.1420  207.7560  152.6680 N   0  0  0  0  0  0  0  0  0  0  0  0
  161.5440  206.3870  152.4440 C   0  0  0  0  0  0  0  0  0  0  0  0
  161.0080  208.6570  151.5150 C   0  0  0  0  0  2  0  0  0  0  0  0
  160.4210  210.0960  155.4830 C   0  0  0  0  0  0  0  0  0  0  0  0
  160.3980  211.3610  155.7460 N   0  0  0  0  0  2  0  0  0  0  0  0
  161.6900  205.5970  153.4170 O   0  0  0  0  0  0  0  0  0  0  0  0
  161.1220  210.5480  153.1080 C   0  0  0  0  0  3  0  0  0  0  0  0
  160.7790  208.2500  153.9760 C   0  0  0  0  0  0  0  0  0  0  0  0
  160.4610  207.3990  154.9890 N   0  0  0  0  0  0  0  0  0  0  0  0
  160.1280  207.8670  156.2200 C   0  0  0  0  0  0  0  0  0  0  0  0
  161.3050  210.0960  151.8660 C   0  0  0  0  0  0  0  0  0  0  0  0
  160.7570  209.6330  154.2040 C   0  0  0  0  0  0  0  0  0  0  0  0
  160.1110  209.2040  156.4600 N   0  0  0  0  0  2  0  0  0  0  0  0
  159.8000  206.9550  157.2610 N   0  0  0  0  0  1  0  0  0  0  0  0
  161.2690  206.7790  148.3820 C   0  0  0  0  0  0  0  0  0  0  0  0
  160.5440  205.3680  150.3100 C   0  0  2  0  0  3  0  0  0  0  0  0
  160.7050  205.4490  148.7900 C   0  0  0  0  0  2  0  0  0  0  0  0
  160.8220  207.3490  147.3990 O   0  0  0  0  0  0  0  0  0  0  0  0
  162.9280  206.4510  150.2250 C   0  0  0  0  0  2  0  0  0  0  0  0
  161.7850  205.8650  151.0580 C   0  0  1  0  0  0  0  0  0  0  0  0
  162.3920  207.4050  149.1590 C   0  0  0  0  0  2  0  0  0  0  0  0
  161.5550  204.3810  150.8780 C   0  0  0  0  0  2  0  0  0  0  0  0
  161.8660  211.2810  148.2650 C   0  0  0  0  0  2  0  0  0  0  0  0
  161.6630  211.0690  150.7930 C   0  0  0  0  0  3  0  0  0  0  0  0
  162.0370  212.6730  148.6690 N   0  0  0  0  0  0  0  0  0  0  0  0
  161.9690  210.3470  149.4760 C   0  0  0  0  0  2  0  0  0  0  0  0
  160.8660  213.0820  149.4500 C   0  0  0  0  0  2  0  0  0  0  0  0
  160.5740  212.1300  150.6230 C   0  0  0  0  0  2  0  0  0  0  0  0
  162.0260  213.4130  147.5360 O   0  0  0  0  0  1  0  0  0  0  0  0
  1  8  1  0  0  0  0
  2  1  1  0  0  0  0
  2  6  2  0  0  0  0
  3 11  1  0  0  0  0
  3  1  1  0  0  0  0
  4  5  2  0  0  0  0
  4 13  1  0  0  0  0
  7 12  1  0  0  0  0
  8 12  2  0  0  0  0
  8  9  1  0  0  0  0
  9 10  2  0  0  0  0
 10 13  1  0  0  0  0
 10 14  1  0  0  0  0
 11  7  2  0  0  0  0
 12  4  1  0  0  0  0
 15 17  1  0  0  0  0
 15 21  1  0  0  0  0
 16 17  1  6  0  0  0
 16 22  1  0  0  0  0
 16 20  1  0  0  0  0
 18 15  2  0  0  0  0
 19 20  1  0  0  0  0
 20  2  1  1  0  0  0
 21 19  1  0  0  0  0
 22 20  1  0  0  0  0
 23 25  1  0  0  0  0
 23 26  1  0  0  0  0
 24 11  1  0  0  0  0
 25 27  1  0  0  0  0
 26 24  1  0  0  0  0
 27 28  1  0  0  0  0
 28 24  1  0  0  0  0
 29 25  1  0  0  0  0
M  END
>  <MODEL>
3

>  <REMARK>
 VINA RESULT:      -6.6      3.251      5.327
  Name = 
  2 active torsions:
  status: ('A' for Active; 'I' for Inactive)
    1  A    between atoms: C_2  and  C_18
    2  A    between atoms: C_5  and  C_23
                            x       y       z     vdW  Elec       q    Type
                         _______ _______ _______ _____ _____    ______ ____

>  <TORSDO>
F 2

$$$$
=
 OpenBabel11072413593D

 29 33  0  0  1  0  0  0  0  0999 V2000
  161.2830  207.5890  152.6330 N   0  0  0  0  0  0  0  0  0  0  0  0
  160.7220  207.4850  153.9600 C   0  0  0  0  0  0  0  0  0  0  0  0
  161.9000  208.8550  152.2170 C   0  0  0  0  0  2  0  0  0  0  0  0
  161.5810  205.5900  149.4960 C   0  0  0  0  0  0  0  0  0  0  0  0
  161.7550  205.7500  148.2250 N   0  0  0  0  0  2  0  0  0  0  0  0
  160.1650  206.4180  154.3370 O   0  0  0  0  0  0  0  0  0  0  0  0
  161.6800  208.0760  149.8770 C   0  0  0  0  0  3  0  0  0  0  0  0
  161.3410  206.4620  151.7300 C   0  0  0  0  0  0  0  0  0  0  0  0
  161.1980  205.1860  152.1810 N   0  0  0  0  0  0  0  0  0  0  0  0
  161.2440  204.1310  151.3280 C   0  0  0  0  0  0  0  0  0  0  0  0
  161.7800  209.0970  150.7300 C   0  0  0  0  0  0  0  0  0  0  0  0
  161.5450  206.6910  150.3620 C   0  0  0  0  0  0  0  0  0  0  0  0
  161.4330  204.3360  149.9990 N   0  0  0  0  0  2  0  0  0  0  0  0
  161.0920  202.8080  151.8280 N   0  0  0  0  0  1  0  0  0  0  0  0
  162.8040  210.5160  155.7530 C   0  0  0  0  0  0  0  0  0  0  0  0
  161.6030  208.3730  156.2020 C   0  0  2  0  0  3  0  0  0  0  0  0
  162.1670  209.6610  156.8090 C   0  0  0  0  0  2  0  0  0  0  0  0
  163.8590  211.0830  155.9880 O   0  0  0  0  0  0  0  0  0  0  0  0
  160.7550  210.0650  154.3910 C   0  0  0  0  0  2  0  0  0  0  0  0
  160.7960  208.6310  154.9260 C   0  0  1  0  0  0  0  0  0  0  0  0
  162.1450  210.6980  154.4140 C   0  0  0  0  0  2  0  0  0  0  0  0
  160.0810  208.4160  156.2410 C   0  0  0  0  0  2  0  0  0  0  0  0
  161.6210  211.8290  148.0470 C   0  0  0  0  0  2  0  0  0  0  0  0
  161.9250  210.4780  150.1830 C   0  0  0  0  0  3  0  0  0  0  0  0
  161.8790  212.8960  149.0110 N   0  0  0  0  0  0  0  0  0  0  0  0
  161.9560  210.4610  148.6500 C   0  0  0  0  0  2  0  0  0  0  0  0
  160.8900  212.8040  150.0890 C   0  0  0  0  0  2  0  0  0  0  0  0
  160.8310  211.4030  150.7210 C   0  0  0  0  0  2  0  0  0  0  0  0
  161.6480  214.0650  148.3700 O   0  0  0  0  0  1  0  0  0  0  0  0
  1  2  1  0  0  0  0
  2  6  2  0  0  0  0
  3  1  1  0  0  0  0
  4 13  1  0  0  0  0
  4 12  1  0  0  0  0
  5  4  2  0  0  0  0
  7 12  1  0  0  0  0
  7 11  2  0  0  0  0
  8  9  1  0  0  0  0
  8  1  1  0  0  0  0
 10 14  1  0  0  0  0
 10  9  2  0  0  0  0
 11  3  1  0  0  0  0
 12  8  2  0  0  0  0
 13 10  1  0  0  0  0
 15 18  2  0  0  0  0
 15 17  1  0  0  0  0
 16 22  1  1  0  0  0
 16 17  1  0  0  0  0
 19 21  1  0  0  0  0
 19 20  1  0  0  0  0
 20  2  1  6  0  0  0
 20 16  1  0  0  0  0
 20 22  1  0  0  0  0
 21 15  1  0  0  0  0
 23 26  1  0  0  0  0
 23 25  1  0  0  0  0
 24 28  1  0  0  0  0
 24 11  1  0  0  0  0
 25 27  1  0  0  0  0
 26 24  1  0  0  0  0
 27 28  1  0  0  0  0
 29 25  1  0  0  0  0
M  END
>  <MODEL>
4

>  <REMARK>
 VINA RESULT:      -6.3      3.767      7.348
  Name = 
  2 active torsions:
  status: ('A' for Active; 'I' for Inactive)
    1  A    between atoms: C_2  and  C_18
    2  A    between atoms: C_5  and  C_23
                            x       y       z     vdW  Elec       q    Type
                         _______ _______ _______ _____ _____    ______ ____

>  <TORSDO>
F 2

$$$$
=
 OpenBabel11072413593D

 29 33  0  0  1  0  0  0  0  0999 V2000
  161.6410  209.8560  150.9880 N   0  0  0  0  0  0  0  0  0  0  0  0
  161.4900  211.1330  150.3310 C   0  0  0  0  0  0  0  0  0  0  0  0
  162.2090  208.7300  150.2350 C   0  0  0  0  0  2  0  0  0  0  0  0
  160.8370  208.2050  154.2370 C   0  0  0  0  0  0  0  0  0  0  0  0
  160.6420  207.0280  154.7340 N   0  0  0  0  0  2  0  0  0  0  0  0
  160.9840  212.1120  150.9450 O   0  0  0  0  0  0  0  0  0  0  0  0
  161.2460  207.2290  151.9520 C   0  0  0  0  0  3  0  0  0  0  0  0
  161.3390  209.6690  152.3880 C   0  0  0  0  0  0  0  0  0  0  0  0
  161.2320  210.7280  153.2370 N   0  0  0  0  0  0  0  0  0  0  0  0
  160.9390  210.5480  154.5510 C   0  0  0  0  0  0  0  0  0  0  0  0
  161.6770  207.3950  150.7000 C   0  0  0  0  0  0  0  0  0  0  0  0
  161.1490  208.3700  152.8800 C   0  0  0  0  0  0  0  0  0  0  0  0
  160.7430  209.2960  155.0400 N   0  0  0  0  0  2  0  0  0  0  0  0
  160.8330  211.6730  155.4140 N   0  0  0  0  0  1  0  0  0  0  0  0
  161.7920  213.4560  146.9770 C   0  0  0  0  0  0  0  0  0  0  0  0
  160.8280  211.3270  147.8570 C   0  0  2  0  0  3  0  0  0  0  0  0
  161.2040  212.1250  146.6060 C   0  0  0  0  0  2  0  0  0  0  0  0
  161.4800  214.4520  146.3450 O   0  0  0  0  0  0  0  0  0  0  0  0
  163.1760  212.1910  148.6340 C   0  0  0  0  0  2  0  0  0  0  0  0
  161.9380  211.3350  148.9130 C   0  0  1  0  0  0  0  0  0  0  0  0
  162.7800  213.5680  148.1040 C   0  0  0  0  0  2  0  0  0  0  0  0
  161.7680  210.1380  148.0050 C   0  0  0  0  0  2  0  0  0  0  0  0
  160.8300  203.8550  149.5010 C   0  0  0  0  0  2  0  0  0  0  0  0
  161.7650  206.2020  149.8070 C   0  0  0  0  0  3  0  0  0  0  0  0
  161.5650  204.0210  148.2500 N   0  0  0  0  0  0  0  0  0  0  0  0
  161.2040  204.9550  150.5000 C   0  0  0  0  0  2  0  0  0  0  0  0
  161.0610  205.2160  147.5660 C   0  0  0  0  0  2  0  0  0  0  0  0
  161.0810  206.4660  148.4640 C   0  0  0  0  0  2  0  0  0  0  0  0
  161.2470  202.9640  147.4670 O   0  0  0  0  0  1  0  0  0  0  0  0
  1  8  1  0  0  0  0
  2  6  2  0  0  0  0
  2  1  1  0  0  0  0
  3 11  1  0  0  0  0
  3  1  1  0  0  0  0
  4  5  2  0  0  0  0
  4 13  1  0  0  0  0
  7 12  1  0  0  0  0
  8 12  2  0  0  0  0
  8  9  1  0  0  0  0
  9 10  2  0  0  0  0
 10 13  1  0  0  0  0
 10 14  1  0  0  0  0
 11  7  2  0  0  0  0
 12  4  1  0  0  0  0
 15 21  1  0  0  0  0
 16 17  1  6  0  0  0
 16 22  1  0  0  0  0
 16 20  1  0  0  0  0
 17 15  1  0  0  0  0
 18 15  2  0  0  0  0
 19 20  1  0  0  0  0
 20  2  1  1  0  0  0
 21 19  1  0  0  0  0
 22 20  1  0  0  0  0
 23 26  1  0  0  0  0
 24 26  1  0  0  0  0
 24 11  1  0  0  0  0
 25 23  1  0  0  0  0
 27 25  1  0  0  0  0
 27 28  1  0  0  0  0
 28 24  1  0  0  0  0
 29 25  1  0  0  0  0
M  END
>  <MODEL>
5

>  <REMARK>
 VINA RESULT:      -6.2      3.964      6.980
  Name = 
  2 active torsions:
  status: ('A' for Active; 'I' for Inactive)
    1  A    between atoms: C_2  and  C_18
    2  A    between atoms: C_5  and  C_23
                            x       y       z     vdW  Elec       q    Type
                         _______ _______ _______ _____ _____    ______ ____

>  <TORSDO>
F 2

$$$$
=
 OpenBabel11072413593D

 29 33  0  0  1  0  0  0  0  0999 V2000
  161.5810  209.2860  150.4230 N   0  0  0  0  0  0  0  0  0  0  0  0
  161.2810  210.6880  150.6030 C   0  0  0  0  0  0  0  0  0  0  0  0
  162.0980  208.8300  149.1260 C   0  0  0  0  0  2  0  0  0  0  0  0
  161.2970  206.0480  152.2540 C   0  0  0  0  0  0  0  0  0  0  0  0
  161.2260  204.7780  152.0260 N   0  0  0  0  0  2  0  0  0  0  0  0
  160.8130  211.1060  151.6980 O   0  0  0  0  0  0  0  0  0  0  0  0
  161.4460  206.5360  149.7890 C   0  0  0  0  0  3  0  0  0  0  0  0
  161.4760  208.3300  151.5010 C   0  0  0  0  0  0  0  0  0  0  0  0
  161.4310  208.7320  152.8000 N   0  0  0  0  0  0  0  0  0  0  0  0
  161.3240  207.8300  153.8100 C   0  0  0  0  0  0  0  0  0  0  0  0
  161.6980  207.4080  148.8110 C   0  0  0  0  0  0  0  0  0  0  0  0
  161.4170  206.9620  151.1990 C   0  0  0  0  0  0  0  0  0  0  0  0
  161.2560  206.5020  153.5340 N   0  0  0  0  0  2  0  0  0  0  0  0
  161.2790  208.2780  155.1590 N   0  0  0  0  0  1  0  0  0  0  0  0
  159.9310  213.0030  147.5130 C   0  0  0  0  0  0  0  0  0  0  0  0
  161.4760  211.1250  148.0810 C   0  0  2  0  0  3  0  0  0  0  0  0
  161.1060  212.1930  147.0480 C   0  0  0  0  0  2  0  0  0  0  0  0
  159.0550  213.3080  146.7200 O   0  0  0  0  0  0  0  0  0  0  0  0
  161.1140  213.1420  149.7130 C   0  0  0  0  0  2  0  0  0  0  0  0
  161.5270  211.6820  149.5070 C   0  0  1  0  0  0  0  0  0  0  0  0
  159.8360  213.4620  148.9410 C   0  0  0  0  0  2  0  0  0  0  0  0
  162.8080  211.4810  148.7270 C   0  0  0  0  0  2  0  0  0  0  0  0
  162.3060  204.8720  146.0020 C   0  0  0  0  0  2  0  0  0  0  0  0
  161.7260  206.9170  147.4010 C   0  0  0  0  0  3  0  0  0  0  0  0
  161.6630  205.7150  144.9990 N   0  0  0  0  0  0  0  0  0  0  0  0
  162.6160  205.6760  147.2690 C   0  0  0  0  0  2  0  0  0  0  0  0
  160.3140  206.0540  145.4640 C   0  0  0  0  0  2  0  0  0  0  0  0
  160.3110  206.6630  146.8770 C   0  0  0  0  0  2  0  0  0  0  0  0
  161.5110  204.9550  143.8890 O   0  0  0  0  0  1  0  0  0  0  0  0
  1  2  1  0  0  0  0
  1  8  1  0  0  0  0
  2  6  2  0  0  0  0
  3  1  1  0  0  0  0
  4 13  1  0  0  0  0
  5  4  2  0  0  0  0
  7 12  1  0  0  0  0
  8  9  1  0  0  0  0
  9 10  2  0  0  0  0
 10 14  1  0  0  0  0
 11  3  1  0  0  0  0
 11  7  2  0  0  0  0
 12  8  2  0  0  0  0
 12  4  1  0  0  0  0
 13 10  1  0  0  0  0
 15 21  1  0  0  0  0
 16 17  1  6  0  0  0
 16 22  1  0  0  0  0
 16 20  1  0  0  0  0
 17 15  1  0  0  0  0
 18 15  2  0  0  0  0
 20 19  1  0  0  0  0
 20  2  1  1  0  0  0
 21 19  1  0  0  0  0
 22 20  1  0  0  0  0
 23 26  1  0  0  0  0
 24 11  1  0  0  0  0
 25 27  1  0  0  0  0
 25 23  1  0  0  0  0
 26 24  1  0  0  0  0
 27 28  1  0  0  0  0
 28 24  1  0  0  0  0
 29 25  1  0  0  0  0
M  END
>  <MODEL>
6

>  <REMARK>
 VINA RESULT:      -5.9      3.543      6.459
  Name = 
  2 active torsions:
  status: ('A' for Active; 'I' for Inactive)
    1  A    between atoms: C_2  and  C_18
    2  A    between atoms: C_5  and  C_23
                            x       y       z     vdW  Elec       q    Type
                         _______ _______ _______ _____ _____    ______ ____

>  <TORSDO>
F 2

$$$$
=
 OpenBabel11072413593D

 29 33  0  0  1  0  0  0  0  0999 V2000
  161.0990  210.8230  151.3330 N   0  0  0  0  0  0  0  0  0  0  0  0
  160.5980  212.0760  150.8180 C   0  0  0  0  0  0  0  0  0  0  0  0
  161.7780  209.8960  150.4170 C   0  0  0  0  0  2  0  0  0  0  0  0
  161.1090  208.8340  154.4910 C   0  0  0  0  0  0  0  0  0  0  0  0
  161.2300  207.6140  154.8990 N   0  0  0  0  0  2  0  0  0  0  0  0
  159.9910  212.8810  151.5750 O   0  0  0  0  0  0  0  0  0  0  0  0
  161.3910  208.1170  152.0940 C   0  0  0  0  0  3  0  0  0  0  0  0
  161.0370  210.4860  152.7360 C   0  0  0  0  0  0  0  0  0  0  0  0
  160.8320  211.4410  153.6850 N   0  0  0  0  0  0  0  0  0  0  0  0
  160.7670  211.1190  155.0020 C   0  0  0  0  0  0  0  0  0  0  0  0
  161.6010  208.4510  150.8190 C   0  0  0  0  0  0  0  0  0  0  0  0
  161.1890  209.1480  153.1270 C   0  0  0  0  0  0  0  0  0  0  0  0
  160.9020  209.8260  155.3960 N   0  0  0  0  0  2  0  0  0  0  0  0
  160.5520  212.1370  155.9710 N   0  0  0  0  0  1  0  0  0  0  0  0
  162.8440  213.7750  147.8510 C   0  0  0  0  0  0  0  0  0  0  0  0
  160.6710  213.9530  149.0680 C   0  0  2  0  0  3  0  0  0  0  0  0
  161.4620  214.3590  147.8220 C   0  0  0  0  0  2  0  0  0  0  0  0
  163.7950  214.4530  147.4980 O   0  0  0  0  0  0  0  0  0  0  0  0
  161.7400  211.6290  148.5070 C   0  0  0  0  0  2  0  0  0  0  0  0
  160.7960  212.4590  149.3810 C   0  0  1  0  0  0  0  0  0  0  0  0
  163.0660  212.3550  148.2920 C   0  0  0  0  0  2  0  0  0  0  0  0
  159.5640  212.9840  148.6770 C   0  0  0  0  0  2  0  0  0  0  0  0
  160.7770  205.2000  148.9640 C   0  0  0  0  0  2  0  0  0  0  0  0
  161.8100  207.3640  149.8180 C   0  0  0  0  0  3  0  0  0  0  0  0
  161.8240  205.4140  147.9690 N   0  0  0  0  0  0  0  0  0  0  0  0
  160.9770  206.1260  150.1690 C   0  0  0  0  0  2  0  0  0  0  0  0
  161.6270  206.7320  147.3570 C   0  0  0  0  0  2  0  0  0  0  0  0
  161.5260  207.8600  148.3980 C   0  0  0  0  0  2  0  0  0  0  0  0
  161.6260  204.4990  146.9910 O   0  0  0  0  0  1  0  0  0  0  0  0
  1  8  1  0  0  0  0
  2  1  1  0  0  0  0
  2  6  2  0  0  0  0
  3 11  1  0  0  0  0
  3  1  1  0  0  0  0
  4  5  2  0  0  0  0
  4 13  1  0  0  0  0
  7 12  1  0  0  0  0
  8 12  2  0  0  0  0
  8  9  1  0  0  0  0
  9 10  2  0  0  0  0
 10 13  1  0  0  0  0
 10 14  1  0  0  0  0
 11  7  2  0  0  0  0
 12  4  1  0  0  0  0
 15 21  1  0  0  0  0
 16 17  1  6  0  0  0
 16 20  1  0  0  0  0
 17 15  1  0  0  0  0
 18 15  2  0  0  0  0
 19 20  1  0  0  0  0
 20  2  1  1  0  0  0
 21 19  1  0  0  0  0
 22 16  1  0  0  0  0
 22 20  1  0  0  0  0
 23 26  1  0  0  0  0
 24 26  1  0  0  0  0
 24 11  1  0  0  0  0
 25 23  1  0  0  0  0
 27 25  1  0  0  0  0
 27 28  1  0  0  0  0
 28 24  1  0  0  0  0
 29 25  1  0  0  0  0
M  END
>  <MODEL>
7

>  <REMARK>
 VINA RESULT:      -5.8      4.486      7.537
  Name = 
  2 active torsions:
  status: ('A' for Active; 'I' for Inactive)
    1  A    between atoms: C_2  and  C_18
    2  A    between atoms: C_5  and  C_23
                            x       y       z     vdW  Elec       q    Type
                         _______ _______ _______ _____ _____    ______ ____

>  <TORSDO>
F 2

$$$$
=
 OpenBabel11072413593D

 29 33  0  0  1  0  0  0  0  0999 V2000
  161.1220  208.2350  152.5220 N   0  0  0  0  0  0  0  0  0  0  0  0
  161.6750  206.9010  152.5530 C   0  0  0  0  0  0  0  0  0  0  0  0
  160.8320  208.8560  151.2220 C   0  0  0  0  0  2  0  0  0  0  0  0
  160.2450  211.0170  154.8490 C   0  0  0  0  0  0  0  0  0  0  0  0
  160.0830  212.2990  154.8520 N   0  0  0  0  0  2  0  0  0  0  0  0
  161.9560  206.3510  153.6530 O   0  0  0  0  0  0  0  0  0  0  0  0
  160.7860  211.0380  152.3910 C   0  0  0  0  0  3  0  0  0  0  0  0
  160.7580  208.9470  153.7240 C   0  0  0  0  0  0  0  0  0  0  0  0
  160.5880  208.2960  154.9070 N   0  0  0  0  0  0  0  0  0  0  0  0
  160.2530  208.9710  156.0380 C   0  0  0  0  0  0  0  0  0  0  0  0
  160.9690  210.3600  151.2560 C   0  0  0  0  0  0  0  0  0  0  0  0
  160.5800  210.3370  153.6700 C   0  0  0  0  0  0  0  0  0  0  0  0
  160.0870  210.3180  156.0040 N   0  0  0  0  0  2  0  0  0  0  0  0
  160.0810  208.2640  157.2600 N   0  0  0  0  0  1  0  0  0  0  0  0
  161.0660  206.3270  148.5480 C   0  0  0  0  0  0  0  0  0  0  0  0
  160.7450  205.2790  150.7920 C   0  0  2  0  0  3  0  0  0  0  0  0
  160.7880  205.0460  149.2800 C   0  0  0  0  0  2  0  0  0  0  0  0
  160.4580  206.5810  147.5210 O   0  0  0  0  0  0  0  0  0  0  0  0
  162.8740  206.7010  150.2360 C   0  0  0  0  0  2  0  0  0  0  0  0
  161.9180  206.1310  151.2870 C   0  0  1  0  0  0  0  0  0  0  0  0
  162.1020  207.2900  149.0570 C   0  0  0  0  0  2  0  0  0  0  0  0
  161.9580  204.6270  151.4430 C   0  0  0  0  0  2  0  0  0  0  0  0
  161.2970  213.4960  149.0760 C   0  0  0  0  0  2  0  0  0  0  0  0
  161.1620  211.1230  149.9870 C   0  0  0  0  0  3  0  0  0  0  0  0
  161.7060  212.7290  147.9030 N   0  0  0  0  0  0  0  0  0  0  0  0
  160.6940  212.5750  150.1430 C   0  0  0  0  0  2  0  0  0  0  0  0
  162.8640  211.9050  148.2610 C   0  0  0  0  0  2  0  0  0  0  0  0
  162.6120  211.0380  149.5080 C   0  0  0  0  0  2  0  0  0  0  0  0
  162.1360  213.6240  146.9830 O   0  0  0  0  0  1  0  0  0  0  0  0
  1  2  1  0  0  0  0
  1  8  1  0  0  0  0
  2  6  2  0  0  0  0
  3 11  1  0  0  0  0
  3  1  1  0  0  0  0
  4  5  2  0  0  0  0
  4 13  1  0  0  0  0
  7 12  1  0  0  0  0
  8  9  1  0  0  0  0
  9 10  2  0  0  0  0
 10 14  1  0  0  0  0
 11  7  2  0  0  0  0
 12  8  2  0  0  0  0
 12  4  1  0  0  0  0
 13 10  1  0  0  0  0
 15 21  1  0  0  0  0
 15 17  1  0  0  0  0
 16 17  1  6  0  0  0
 16 20  1  0  0  0  0
 16 22  1  0  0  0  0
 18 15  2  0  0  0  0
 19 20  1  0  0  0  0
 20 22  1  0  0  0  0
 20  2  1  1  0  0  0
 21 19  1  0  0  0  0
 23 26  1  0  0  0  0
 24 26  1  0  0  0  0
 24 11  1  0  0  0  0
 25 27  1  0  0  0  0
 25 23  1  0  0  0  0
 27 28  1  0  0  0  0
 28 24  1  0  0  0  0
 29 25  1  0  0  0  0
M  END
>  <MODEL>
8

>  <REMARK>
 VINA RESULT:      -5.6      3.538      5.473
  Name = 
  2 active torsions:
  status: ('A' for Active; 'I' for Inactive)
    1  A    between atoms: C_2  and  C_18
    2  A    between atoms: C_5  and  C_23
                            x       y       z     vdW  Elec       q    Type
                         _______ _______ _______ _____ _____    ______ ____

>  <TORSDO>
F 2

$$$$
=
 OpenBabel11072413593D

 29 33  0  0  1  0  0  0  0  0999 V2000
  161.4830  208.6380  150.0830 N   0  0  0  0  0  0  0  0  0  0  0  0
  161.9190  209.3320  148.8930 C   0  0  0  0  0  0  0  0  0  0  0  0
  161.0420  209.4220  151.2440 C   0  0  0  0  0  2  0  0  0  0  0  0
  161.2310  205.1680  151.4320 C   0  0  0  0  0  0  0  0  0  0  0  0
  161.1810  204.5400  152.5600 N   0  0  0  0  0  1  0  0  0  0  0  0
  162.3250  208.6860  147.8890 O   0  0  0  0  0  0  0  0  0  0  0  0
  161.3690  207.3870  152.6140 C   0  0  0  0  0  3  0  0  0  0  0  0
  161.3790  207.1980  150.1410 C   0  0  0  0  0  0  0  0  0  0  0  0
  161.3470  206.4450  149.0080 N   0  0  0  0  0  0  0  0  0  0  0  0
  161.2570  205.0910  149.0670 C   0  0  0  0  0  0  0  0  0  0  0  0
  161.3090  208.7180  152.5530 C   0  0  0  0  0  0  0  0  0  0  0  0
  161.3130  206.5670  151.3910 C   0  0  0  0  0  0  0  0  0  0  0  0
  161.2020  204.4640  150.2700 N   0  0  0  0  0  0  0  0  0  0  0  0
  161.2250  204.3290  147.8670 N   0  0  0  0  0  1  0  0  0  0  0  0
  162.1530  212.7990  146.7350 C   0  0  0  0  0  0  0  0  0  0  0  0
  163.2410  211.5100  148.5760 C   0  0  2  0  0  3  0  0  0  0  0  0
  163.0990  212.8750  147.8970 C   0  0  0  0  0  2  0  0  0  0  0  0
  162.4190  213.3870  145.6990 O   0  0  0  0  0  0  0  0  0  0  0  0
  160.6400  211.5270  148.2670 C   0  0  0  0  0  2  0  0  0  0  0  0
  161.8890  210.8300  148.8130 C   0  0  1  0  0  0  0  0  0  0  0  0
  160.8700  212.0230  146.8410 C   0  0  0  0  0  2  0  0  0  0  0  0
  162.5820  211.5520  149.9480 C   0  0  0  0  0  2  0  0  0  0  0  0
  160.5300  211.6580  154.8860 C   0  0  0  0  0  2  0  0  0  0  0  0
  161.3590  209.4980  153.8250 C   0  0  0  0  0  3  0  0  0  0  0  0
  161.1020  210.9840  156.0490 N   0  0  0  0  0  0  0  0  0  0  0  0
  160.9560  210.9580  153.5910 C   0  0  0  0  0  2  0  0  0  0  0  0
  160.4540  209.6780  156.2000 C   0  0  0  0  0  2  0  0  0  0  0  0
  160.5080  208.8380  154.9120 C   0  0  0  0  0  2  0  0  0  0  0  0
  160.7550  211.7170  157.1330 O   0  0  0  0  0  1  0  0  0  0  0  0
  1  8  1  0  0  0  0
  1  3  1  0  0  0  0
  2  1  1  0  0  0  0
  3 11  1  0  0  0  0
  4  5  1  0  0  0  0
  6  2  2  0  0  0  0
  8 12  2  0  0  0  0
  9 10  2  0  0  0  0
  9  8  1  0  0  0  0
 10 13  1  0  0  0  0
 11  7  2  0  0  0  0
 11 24  1  0  0  0  0
 12  4  1  0  0  0  0
 12  7  1  0  0  0  0
 13  4  2  0  0  0  0
 14 10  1  0  0  0  0
 15 21  1  0  0  0  0
 15 17  1  0  0  0  0
 16 17  1  6  0  0  0
 16 20  1  0  0  0  0
 16 22  1  0  0  0  0
 18 15  2  0  0  0  0
 19 20  1  0  0  0  0
 20  2  1  1  0  0  0
 20 22  1  0  0  0  0
 21 19  1  0  0  0  0
 23 25  1  0  0  0  0
 24 28  1  0  0  0  0
 25 27  1  0  0  0  0
 25 29  1  0  0  0  0
 26 24  1  0  0  0  0
 26 23  1  0  0  0  0
 28 27  1  0  0  0  0
M  END
>  <MODEL>
9

>  <REMARK>
 VINA RESULT:      -5.4      4.130      8.691
  Name = 
  2 active torsions:
  status: ('A' for Active; 'I' for Inactive)
    1  A    between atoms: C_2  and  C_18
    2  A    between atoms: C_5  and  C_23
                            x       y       z     vdW  Elec       q    Type
                         _______ _______ _______ _____ _____    ______ ____

>  <TORSDO>
F 2

$$$$
