=
 OpenBabel11072412273D

 33 34  0  0  1  0  0  0  0  0999 V2000
  160.7230  209.4640  153.5010 C   0  0  0  0  0  2  0  0  0  0  0  0
  161.0040  209.5980  154.9780 C   0  0  0  0  0  0  0  0  0  0  0  0
  160.8360  208.5720  155.7610 N   0  0  0  0  0  0  0  0  0  0  0  0
  160.4030  207.2690  155.2470 C   0  0  0  0  0  2  0  0  0  0  0  0
  161.0780  208.0780  153.0250 C   0  0  0  0  0  0  0  0  0  0  0  0
  160.9420  207.0420  153.8620 C   0  0  0  0  0  3  0  0  0  0  0  0
  162.4340  208.6780  151.1840 O   0  0  0  0  0  0  0  0  0  0  0  0
  161.1310  206.7570  150.8840 N   0  0  0  0  0  2  0  0  0  0  0  0
  162.3360  207.2090  148.9240 O   0  0  0  0  0  0  0  0  0  0  0  0
  161.5660  206.4400  149.5570 C   0  0  0  0  0  0  0  0  0  0  0  0
  161.5840  207.8770  151.6580 C   0  0  0  0  0  0  0  0  0  0  0  0
  161.1370  205.1560  148.9370 C   0  0  0  0  0  2  0  0  0  0  0  0
  161.4140  205.3340  144.6610 C   0  0  0  0  0  0  0  0  0  0  0  0
  162.2360  204.4600  145.3780 C   0  0  0  0  0  3  0  0  0  0  0  0
  162.1540  204.4100  146.7730 C   0  0  0  0  0  3  0  0  0  0  0  0
  161.2530  205.2370  147.4530 C   0  0  0  0  0  0  0  0  0  0  0  0
  160.4270  206.1080  146.7310 C   0  0  0  0  0  3  0  0  0  0  0  0
  160.5090  206.1580  145.3370 C   0  0  0  0  0  3  0  0  0  0  0  0
  161.4930  205.3820  143.3090 F   0  0  0  0  0  0  0  0  0  0  0  0
  161.3320  210.8710  155.5500 N   0  0  0  0  0  0  0  0  0  0  0  0
  160.5840  211.9090  155.5420 N   0  0  0  0  0  0  0  0  0  0  0  0
  159.3140  212.8020  153.6980 C   0  0  0  0  0  3  0  0  0  0  0  0
  159.3530  212.0660  154.8120 C   0  0  0  0  0  0  0  0  0  0  0  0
  157.7980  211.6410  156.6730 C   0  0  0  0  0  1  0  0  0  0  0  0
  158.1730  211.5090  155.3110 O   0  0  0  0  0  0  0  0  0  0  0  0
  158.0540  213.0380  152.9240 C   0  0  2  0  0  3  0  0  0  0  0  0
  157.5340  213.8500  150.7420 C   0  0  0  0  0  1  0  0  0  0  0  0
  158.3060  212.8670  151.4830 N   0  0  0  0  0  0  0  0  0  0  0  0
  159.7150  213.0610  151.1510 C   0  0  0  0  0  1  0  0  0  0  0  0
  157.4390  214.3960  153.3000 C   0  0  0  0  0  2  0  0  0  0  0  0
  156.2020  214.4400  155.3060 O   0  0  0  0  0  0  0  0  0  0  0  0
  154.9270  213.8140  153.4350 C   0  0  0  0  0  1  0  0  0  0  0  0
  156.1920  214.2240  154.1050 C   0  0  0  0  0  0  0  0  0  0  0  0
  1  2  1  0  0  0  0
  2 20  1  0  0  0  0
  2  3  2  0  0  0  0
  4  3  1  0  0  0  0
  5  1  1  0  0  0  0
  5  6  2  0  0  0  0
  6  4  1  0  0  0  0
  7 11  2  0  0  0  0
  8 11  1  0  0  0  0
  9 10  2  0  0  0  0
 10  8  1  0  0  0  0
 11  5  1  0  0  0  0
 12 10  1  0  0  0  0
 13 18  2  0  0  0  0
 13 14  1  0  0  0  0
 14 15  2  0  0  0  0
 15 16  1  0  0  0  0
 16 12  1  0  0  0  0
 17 16  2  0  0  0  0
 18 17  1  0  0  0  0
 19 13  1  0  0  0  0
 21 20  2  0  0  0  0
 22 23  2  0  0  0  0
 23 25  1  0  0  0  0
 23 21  1  0  0  0  0
 25 24  1  0  0  0  0
 26 30  1  6  0  0  0
 26 22  1  0  0  0  0
 27 28  1  0  0  0  0
 28 26  1  0  0  0  0
 29 28  1  0  0  0  0
 30 33  1  0  0  0  0
 32 33  1  0  0  0  0
 33 31  2  0  0  0  0
M  END
>  <MODEL>
1

>  <REMARK>
 VINA RESULT:      -7.5      0.000      0.000
  Name = 
  10 active torsions:
  status: ('A' for Active; 'I' for Inactive)
    1  A    between atoms: C_6  and  C_8
    2  A    between atoms: C_6  and  C_13
    3  A    between atoms: C_6  and  N_17
    4  A    between atoms: N_7  and  C_19
    5  A    between atoms: C_8  and  C_18
    6  A    between atoms: C_11  and  C_21
    7  A    between atoms: C_20  and  C_21
    8  A    between atoms: C_23  and  C_28
    9  A    between atoms: C_25  and  N_26
   10  A    between atoms: C_25  and  O_29
                            x       y       z     vdW  Elec       q    Type
                         _______ _______ _______ _____ _____    ______ ____

>  <TORSDO>
F 10

$$$$
=
 OpenBabel11072412273D

 33 34  0  0  1  0  0  0  0  0999 V2000
  160.8710  209.5200  153.2410 C   0  0  0  0  0  2  0  0  0  0  0  0
  161.1450  209.4250  154.7220 C   0  0  0  0  0  0  0  0  0  0  0  0
  160.9190  208.3060  155.3480 N   0  0  0  0  0  0  0  0  0  0  0  0
  160.4280  207.1140  154.6500 C   0  0  0  0  0  2  0  0  0  0  0  0
  161.1620  208.2010  152.5700 C   0  0  0  0  0  0  0  0  0  0  0  0
  160.9680  207.0630  153.2490 C   0  0  0  0  0  3  0  0  0  0  0  0
  162.6730  208.8740  150.8810 O   0  0  0  0  0  0  0  0  0  0  0  0
  161.0430  207.3350  150.2110 N   0  0  0  0  0  2  0  0  0  0  0  0
  162.3810  207.9170  148.3760 O   0  0  0  0  0  0  0  0  0  0  0  0
  161.4570  207.2030  148.8470 C   0  0  0  0  0  0  0  0  0  0  0  0
  161.6710  208.1750  151.1890 C   0  0  0  0  0  0  0  0  0  0  0  0
  160.8160  206.1700  147.9860 C   0  0  0  0  0  2  0  0  0  0  0  0
  161.0290  202.3010  149.8250 C   0  0  0  0  0  0  0  0  0  0  0  0
  160.7720  203.4320  150.6060 C   0  0  0  0  0  3  0  0  0  0  0  0
  160.7150  204.6950  150.0080 C   0  0  0  0  0  3  0  0  0  0  0  0
  160.9170  204.8290  148.6300 C   0  0  0  0  0  0  0  0  0  0  0  0
  161.1680  203.6930  147.8500 C   0  0  0  0  0  3  0  0  0  0  0  0
  161.2260  202.4310  148.4470 C   0  0  0  0  0  3  0  0  0  0  0  0
  161.0840  201.0780  150.4040 F   0  0  0  0  0  0  0  0  0  0  0  0
  161.5300  210.5830  155.4740 N   0  0  0  0  0  0  0  0  0  0  0  0
  160.8290  211.6440  155.6220 N   0  0  0  0  0  0  0  0  0  0  0  0
  159.5650  212.9740  154.0580 C   0  0  0  0  0  3  0  0  0  0  0  0
  159.6080  211.9620  154.9300 C   0  0  0  0  0  0  0  0  0  0  0  0
  157.8230  211.3290  156.5030 C   0  0  0  0  0  1  0  0  0  0  0  0
  158.4370  211.2590  155.2260 O   0  0  0  0  0  0  0  0  0  0  0  0
  158.3130  213.3780  153.3440 C   0  0  2  0  0  3  0  0  0  0  0  0
  159.6900  212.9380  151.4470 C   0  0  0  0  0  1  0  0  0  0  0  0
  158.6260  213.7830  151.9630 N   0  0  0  0  0  0  0  0  0  0  0  0
  157.4720  213.6400  151.0800 C   0  0  0  0  0  1  0  0  0  0  0  0
  157.5520  214.4400  154.1550 C   0  0  0  0  0  2  0  0  0  0  0  0
  155.6460  213.0620  153.9880 O   0  0  0  0  0  0  0  0  0  0  0  0
  155.6440  214.4360  155.8940 C   0  0  0  0  0  1  0  0  0  0  0  0
  156.2320  213.9220  154.6270 C   0  0  0  0  0  0  0  0  0  0  0  0
  1  2  1  0  0  0  0
  2  3  2  0  0  0  0
  2 20  1  0  0  0  0
  4  3  1  0  0  0  0
  5  1  1  0  0  0  0
  5  6  2  0  0  0  0
  6  4  1  0  0  0  0
  7 11  2  0  0  0  0
  8 11  1  0  0  0  0
  9 10  2  0  0  0  0
 10  8  1  0  0  0  0
 11  5  1  0  0  0  0
 12 16  1  0  0  0  0
 12 10  1  0  0  0  0
 13 19  1  0  0  0  0
 13 14  1  0  0  0  0
 15 14  2  0  0  0  0
 16 15  1  0  0  0  0
 17 18  1  0  0  0  0
 17 16  2  0  0  0  0
 18 13  2  0  0  0  0
 20 21  2  0  0  0  0
 22 23  2  0  0  0  0
 23 25  1  0  0  0  0
 23 21  1  0  0  0  0
 25 24  1  0  0  0  0
 26 22  1  1  0  0  0
 26 30  1  0  0  0  0
 27 28  1  0  0  0  0
 28 26  1  0  0  0  0
 29 28  1  0  0  0  0
 30 33  1  0  0  0  0
 31 33  2  0  0  0  0
 33 32  1  0  0  0  0
M  END
>  <MODEL>
2

>  <REMARK>
 VINA RESULT:      -7.3      1.887      2.546
  Name = 
  10 active torsions:
  status: ('A' for Active; 'I' for Inactive)
    1  A    between atoms: C_6  and  C_8
    2  A    between atoms: C_6  and  C_13
    3  A    between atoms: C_6  and  N_17
    4  A    between atoms: N_7  and  C_19
    5  A    between atoms: C_8  and  C_18
    6  A    between atoms: C_11  and  C_21
    7  A    between atoms: C_20  and  C_21
    8  A    between atoms: C_23  and  C_28
    9  A    between atoms: C_25  and  N_26
   10  A    between atoms: C_25  and  O_29
                            x       y       z     vdW  Elec       q    Type
                         _______ _______ _______ _____ _____    ______ ____

>  <TORSDO>
F 10

$$$$
=
 OpenBabel11072412273D

 33 34  0  0  1  0  0  0  0  0999 V2000
  161.1350  209.6040  153.8670 C   0  0  0  0  0  2  0  0  0  0  0  0
  161.4230  209.2540  155.3070 C   0  0  0  0  0  0  0  0  0  0  0  0
  161.0500  208.0980  155.7750 N   0  0  0  0  0  0  0  0  0  0  0  0
  160.3780  207.1030  154.9350 C   0  0  0  0  0  2  0  0  0  0  0  0
  161.2190  208.3710  153.0030 C   0  0  0  0  0  0  0  0  0  0  0  0
  160.8760  207.1840  153.5190 C   0  0  0  0  0  3  0  0  0  0  0  0
  162.6550  209.2410  151.3390 O   0  0  0  0  0  0  0  0  0  0  0  0
  161.0700  207.6930  150.5850 N   0  0  0  0  0  2  0  0  0  0  0  0
  162.3330  208.4780  148.7720 O   0  0  0  0  0  0  0  0  0  0  0  0
  161.4520  207.6900  149.2050 C   0  0  0  0  0  0  0  0  0  0  0  0
  161.6900  208.4780  151.6130 C   0  0  0  0  0  0  0  0  0  0  0  0
  160.8290  206.7030  148.2780 C   0  0  0  0  0  2  0  0  0  0  0  0
  160.9470  202.7530  149.9440 C   0  0  0  0  0  0  0  0  0  0  0  0
  160.6320  203.8450  150.7580 C   0  0  0  0  0  3  0  0  0  0  0  0
  160.6060  205.1350  150.2180 C   0  0  0  0  0  3  0  0  0  0  0  0
  160.8970  205.3340  148.8640 C   0  0  0  0  0  0  0  0  0  0  0  0
  161.2060  204.2370  148.0490 C   0  0  0  0  0  3  0  0  0  0  0  0
  161.2340  202.9490  148.5890 C   0  0  0  0  0  3  0  0  0  0  0  0
  160.9720  201.5030  150.4670 F   0  0  0  0  0  0  0  0  0  0  0  0
  161.9860  210.2230  156.2000 N   0  0  0  0  0  0  0  0  0  0  0  0
  161.4250  211.3120  156.5710 N   0  0  0  0  0  0  0  0  0  0  0  0
  159.1450  211.0900  155.8220 C   0  0  0  0  0  3  0  0  0  0  0  0
  160.2090  211.8680  156.0390 C   0  0  0  0  0  0  0  0  0  0  0  0
  159.9310  214.2430  156.6250 C   0  0  0  0  0  1  0  0  0  0  0  0
  160.1610  213.2160  155.6740 O   0  0  0  0  0  0  0  0  0  0  0  0
  157.8700  211.6030  155.2280 C   0  0  2  0  0  3  0  0  0  0  0  0
  156.2370  212.0110  156.9190 C   0  0  0  0  0  1  0  0  0  0  0  0
  156.7140  211.0410  155.9480 N   0  0  0  0  0  0  0  0  0  0  0  0
  155.6100  210.7310  155.0440 C   0  0  0  0  0  1  0  0  0  0  0  0
  157.8480  211.3590  153.7110 C   0  0  0  0  0  2  0  0  0  0  0  0
  159.2680  212.5390  152.2450 O   0  0  0  0  0  0  0  0  0  0  0  0
  157.4810  213.8300  153.0570 C   0  0  0  0  0  1  0  0  0  0  0  0
  158.2780  212.5760  152.9580 C   0  0  0  0  0  0  0  0  0  0  0  0
  1  2  1  0  0  0  0
  2  3  2  0  0  0  0
  2 20  1  0  0  0  0
  4  3  1  0  0  0  0
  5  6  2  0  0  0  0
  5  1  1  0  0  0  0
  6  4  1  0  0  0  0
  7 11  2  0  0  0  0
  8 11  1  0  0  0  0
  9 10  2  0  0  0  0
 10  8  1  0  0  0  0
 11  5  1  0  0  0  0
 12 16  1  0  0  0  0
 12 10  1  0  0  0  0
 13 19  1  0  0  0  0
 13 14  1  0  0  0  0
 15 14  2  0  0  0  0
 16 15  1  0  0  0  0
 17 18  1  0  0  0  0
 17 16  2  0  0  0  0
 18 13  2  0  0  0  0
 20 21  2  0  0  0  0
 22 23  2  0  0  0  0
 23 21  1  0  0  0  0
 25 23  1  0  0  0  0
 25 24  1  0  0  0  0
 26 30  1  6  0  0  0
 26 22  1  0  0  0  0
 26 28  1  0  0  0  0
 28 27  1  0  0  0  0
 29 28  1  0  0  0  0
 31 33  2  0  0  0  0
 33 32  1  0  0  0  0
 33 30  1  0  0  0  0
M  END
>  <MODEL>
3

>  <REMARK>
 VINA RESULT:      -7.0      2.402      3.389
  Name = 
  10 active torsions:
  status: ('A' for Active; 'I' for Inactive)
    1  A    between atoms: C_6  and  C_8
    2  A    between atoms: C_6  and  C_13
    3  A    between atoms: C_6  and  N_17
    4  A    between atoms: N_7  and  C_19
    5  A    between atoms: C_8  and  C_18
    6  A    between atoms: C_11  and  C_21
    7  A    between atoms: C_20  and  C_21
    8  A    between atoms: C_23  and  C_28
    9  A    between atoms: C_25  and  N_26
   10  A    between atoms: C_25  and  O_29
                            x       y       z     vdW  Elec       q    Type
                         _______ _______ _______ _____ _____    ______ ____

>  <TORSDO>
F 10

$$$$
=
 OpenBabel11072412273D

 33 34  0  0  1  0  0  0  0  0999 V2000
  161.5780  205.7750  153.3660 C   0  0  0  0  0  2  0  0  0  0  0  0
  160.8630  207.0450  153.7570 C   0  0  0  0  0  0  0  0  0  0  0  0
  160.6670  207.9740  152.8660 N   0  0  0  0  0  0  0  0  0  0  0  0
  161.0990  207.8150  151.4740 C   0  0  0  0  0  2  0  0  0  0  0  0
  161.2450  205.4050  151.9430 C   0  0  0  0  0  0  0  0  0  0  0  0
  161.0010  206.3750  151.0530 C   0  0  0  0  0  3  0  0  0  0  0  0
  161.2560  203.0920  152.4290 O   0  0  0  0  0  0  0  0  0  0  0  0
  160.9880  203.6390  150.1690 N   0  0  0  0  0  2  0  0  0  0  0  0
  161.0420  201.3080  150.4170 O   0  0  0  0  0  0  0  0  0  0  0  0
  160.8800  202.3040  149.6640 C   0  0  0  0  0  0  0  0  0  0  0  0
  161.1750  203.9890  151.5480 C   0  0  0  0  0  0  0  0  0  0  0  0
  160.5210  202.0920  148.2330 C   0  0  0  0  0  2  0  0  0  0  0  0
  162.2520  205.1540  145.7790 C   0  0  0  0  0  0  0  0  0  0  0  0
  161.8560  203.9400  145.2070 C   0  0  0  0  0  3  0  0  0  0  0  0
  161.3030  202.9380  146.0100 C   0  0  0  0  0  3  0  0  0  0  0  0
  161.1480  203.1450  147.3850 C   0  0  0  0  0  0  0  0  0  0  0  0
  161.5400  204.3640  147.9530 C   0  0  0  0  0  3  0  0  0  0  0  0
  162.0940  205.3650  147.1520 C   0  0  0  0  0  3  0  0  0  0  0  0
  162.7880  206.1250  145.0010 F   0  0  0  0  0  0  0  0  0  0  0  0
  160.5080  207.2980  155.1230 N   0  0  0  0  0  0  0  0  0  0  0  0
  160.2600  208.4470  155.6300 N   0  0  0  0  0  0  0  0  0  0  0  0
  159.4110  210.4640  154.6190 C   0  0  0  0  0  3  0  0  0  0  0  0
  160.4580  209.7210  154.9900 C   0  0  0  0  0  0  0  0  0  0  0  0
  162.6480  210.6060  155.6850 C   0  0  0  0  0  1  0  0  0  0  0  0
  161.7510  210.1520  154.6830 O   0  0  0  0  0  0  0  0  0  0  0  0
  159.5560  211.7750  153.9100 C   0  0  2  0  0  3  0  0  0  0  0  0
  157.7020  212.4580  155.2450 C   0  0  0  0  0  1  0  0  0  0  0  0
  159.0010  212.8610  154.7350 N   0  0  0  0  0  0  0  0  0  0  0  0
  159.8570  213.1670  155.8770 C   0  0  0  0  0  1  0  0  0  0  0  0
  158.9590  211.6880  152.4950 C   0  0  0  0  0  2  0  0  0  0  0  0
  160.0300  213.5330  151.4910 O   0  0  0  0  0  0  0  0  0  0  0  0
  157.6880  213.7110  151.5160 C   0  0  0  0  0  1  0  0  0  0  0  0
  158.9710  213.0200  151.8180 C   0  0  0  0  0  0  0  0  0  0  0  0
  1  2  1  0  0  0  0
  2 20  1  0  0  0  0
  3  2  2  0  0  0  0
  4  3  1  0  0  0  0
  5  1  1  0  0  0  0
  6  4  1  0  0  0  0
  6  5  2  0  0  0  0
  8 11  1  0  0  0  0
 10  8  1  0  0  0  0
 10  9  2  0  0  0  0
 11  5  1  0  0  0  0
 11  7  2  0  0  0  0
 12 10  1  0  0  0  0
 13 18  1  0  0  0  0
 14 13  2  0  0  0  0
 14 15  1  0  0  0  0
 15 16  2  0  0  0  0
 16 17  1  0  0  0  0
 16 12  1  0  0  0  0
 18 17  2  0  0  0  0
 19 13  1  0  0  0  0
 20 21  2  0  0  0  0
 22 23  2  0  0  0  0
 23 21  1  0  0  0  0
 25 23  1  0  0  0  0
 25 24  1  0  0  0  0
 26 30  1  6  0  0  0
 26 22  1  0  0  0  0
 26 28  1  0  0  0  0
 28 27  1  0  0  0  0
 28 29  1  0  0  0  0
 31 33  2  0  0  0  0
 32 33  1  0  0  0  0
 33 30  1  0  0  0  0
M  END
>  <MODEL>
4

>  <REMARK>
 VINA RESULT:      -7.0      2.459      3.579
  Name = 
  10 active torsions:
  status: ('A' for Active; 'I' for Inactive)
    1  A    between atoms: C_6  and  C_8
    2  A    between atoms: C_6  and  C_13
    3  A    between atoms: C_6  and  N_17
    4  A    between atoms: N_7  and  C_19
    5  A    between atoms: C_8  and  C_18
    6  A    between atoms: C_11  and  C_21
    7  A    between atoms: C_20  and  C_21
    8  A    between atoms: C_23  and  C_28
    9  A    between atoms: C_25  and  N_26
   10  A    between atoms: C_25  and  O_29
                            x       y       z     vdW  Elec       q    Type
                         _______ _______ _______ _____ _____    ______ ____

>  <TORSDO>
F 10

$$$$
=
 OpenBabel11072412273D

 33 34  0  0  1  0  0  0  0  0999 V2000
  161.0920  209.4650  154.0630 C   0  0  0  0  0  2  0  0  0  0  0  0
  161.3390  209.3580  155.5490 C   0  0  0  0  0  0  0  0  0  0  0  0
  160.8480  208.3510  156.2120 N   0  0  0  0  0  0  0  0  0  0  0  0
  160.0760  207.2930  155.5530 C   0  0  0  0  0  2  0  0  0  0  0  0
  161.0470  208.0930  153.4410 C   0  0  0  0  0  0  0  0  0  0  0  0
  160.5820  207.0620  154.1570 C   0  0  0  0  0  3  0  0  0  0  0  0
  162.3070  208.7400  151.5480 O   0  0  0  0  0  0  0  0  0  0  0  0
  161.1350  206.7250  151.3300 N   0  0  0  0  0  2  0  0  0  0  0  0
  162.2510  207.2120  149.3250 O   0  0  0  0  0  0  0  0  0  0  0  0
  161.5540  206.4070  149.9990 C   0  0  0  0  0  0  0  0  0  0  0  0
  161.5290  207.8930  152.0640 C   0  0  0  0  0  0  0  0  0  0  0  0
  161.2010  205.0800  149.4210 C   0  0  0  0  0  2  0  0  0  0  0  0
  161.2800  205.3310  145.1400 C   0  0  0  0  0  0  0  0  0  0  0  0
  160.5020  206.2290  145.8780 C   0  0  0  0  0  3  0  0  0  0  0  0
  160.4670  206.1400  147.2730 C   0  0  0  0  0  3  0  0  0  0  0  0
  161.2060  205.1500  147.9320 C   0  0  0  0  0  0  0  0  0  0  0  0
  161.9880  204.2560  147.1900 C   0  0  0  0  0  3  0  0  0  0  0  0
  162.0230  204.3440  145.7960 C   0  0  0  0  0  3  0  0  0  0  0  0
  161.3140  205.4180  143.7890 F   0  0  0  0  0  0  0  0  0  0  0  0
  162.0000  210.4110  156.2610 N   0  0  0  0  0  0  0  0  0  0  0  0
  161.4870  211.5430  156.5680 N   0  0  0  0  0  0  0  0  0  0  0  0
  159.1990  211.2260  155.8770 C   0  0  0  0  0  3  0  0  0  0  0  0
  160.2200  212.0540  156.1130 C   0  0  0  0  0  0  0  0  0  0  0  0
  160.0420  214.3890  156.8750 C   0  0  0  0  0  1  0  0  0  0  0  0
  160.0770  213.4170  155.8410 O   0  0  0  0  0  0  0  0  0  0  0  0
  157.8750  211.6960  155.3590 C   0  0  2  0  0  3  0  0  0  0  0  0
  156.3040  212.0210  157.1250 C   0  0  0  0  0  1  0  0  0  0  0  0
  156.7820  211.0770  156.1290 N   0  0  0  0  0  0  0  0  0  0  0  0
  155.6540  210.7150  155.2760 C   0  0  0  0  0  1  0  0  0  0  0  0
  157.7820  211.4720  153.8410 C   0  0  0  0  0  2  0  0  0  0  0  0
  159.2140  212.8720  152.5960 O   0  0  0  0  0  0  0  0  0  0  0  0
  157.0660  213.7710  152.9100 C   0  0  0  0  0  1  0  0  0  0  0  0
  158.1060  212.7210  153.0870 C   0  0  0  0  0  0  0  0  0  0  0  0
  1  2  1  0  0  0  0
  2  3  2  0  0  0  0
  2 20  1  0  0  0  0
  4  3  1  0  0  0  0
  5  1  1  0  0  0  0
  5  6  2  0  0  0  0
  6  4  1  0  0  0  0
  7 11  2  0  0  0  0
  8 11  1  0  0  0  0
  9 10  2  0  0  0  0
 10  8  1  0  0  0  0
 11  5  1  0  0  0  0
 12 10  1  0  0  0  0
 13 18  2  0  0  0  0
 13 14  1  0  0  0  0
 14 15  2  0  0  0  0
 15 16  1  0  0  0  0
 16 12  1  0  0  0  0
 17 16  2  0  0  0  0
 18 17  1  0  0  0  0
 19 13  1  0  0  0  0
 20 21  2  0  0  0  0
 22 23  2  0  0  0  0
 23 21  1  0  0  0  0
 25 23  1  0  0  0  0
 25 24  1  0  0  0  0
 26 30  1  6  0  0  0
 26 22  1  0  0  0  0
 26 28  1  0  0  0  0
 28 27  1  0  0  0  0
 29 28  1  0  0  0  0
 31 33  2  0  0  0  0
 32 33  1  0  0  0  0
 33 30  1  0  0  0  0
M  END
>  <MODEL>
5

>  <REMARK>
 VINA RESULT:      -6.7      1.593      2.583
  Name = 
  10 active torsions:
  status: ('A' for Active; 'I' for Inactive)
    1  A    between atoms: C_6  and  C_8
    2  A    between atoms: C_6  and  C_13
    3  A    between atoms: C_6  and  N_17
    4  A    between atoms: N_7  and  C_19
    5  A    between atoms: C_8  and  C_18
    6  A    between atoms: C_11  and  C_21
    7  A    between atoms: C_20  and  C_21
    8  A    between atoms: C_23  and  C_28
    9  A    between atoms: C_25  and  N_26
   10  A    between atoms: C_25  and  O_29
                            x       y       z     vdW  Elec       q    Type
                         _______ _______ _______ _____ _____    ______ ____

>  <TORSDO>
F 10

$$$$
=
 OpenBabel11072412273D

 33 34  0  0  1  0  0  0  0  0999 V2000
  161.0130  206.2580  151.3270 C   0  0  0  0  0  2  0  0  0  0  0  0
  161.6540  207.4320  152.0270 C   0  0  0  0  0  0  0  0  0  0  0  0
  161.5430  207.5510  153.3180 N   0  0  0  0  0  0  0  0  0  0  0  0
  160.8320  206.5580  154.1290 C   0  0  0  0  0  2  0  0  0  0  0  0
  161.0570  205.0370  152.2100 C   0  0  0  0  0  0  0  0  0  0  0  0
  160.9890  205.1840  153.5390 C   0  0  0  0  0  3  0  0  0  0  0  0
  161.5470  202.7270  152.3270 O   0  0  0  0  0  0  0  0  0  0  0  0
  160.8900  203.5050  150.2200 N   0  0  0  0  0  2  0  0  0  0  0  0
  161.3950  201.2180  150.0970 O   0  0  0  0  0  0  0  0  0  0  0  0
  160.9580  202.2540  149.5280 C   0  0  0  0  0  0  0  0  0  0  0  0
  161.1910  203.7000  151.6090 C   0  0  0  0  0  0  0  0  0  0  0  0
  160.4580  202.1670  148.1270 C   0  0  0  0  0  2  0  0  0  0  0  0
  162.2320  205.2260  145.6990 C   0  0  0  0  0  0  0  0  0  0  0  0
  161.7620  204.0490  145.1080 C   0  0  0  0  0  3  0  0  0  0  0  0
  161.1940  203.0470  145.9010 C   0  0  0  0  0  3  0  0  0  0  0  0
  161.1000  203.2180  147.2860 C   0  0  0  0  0  0  0  0  0  0  0  0
  161.5670  204.4000  147.8750 C   0  0  0  0  0  3  0  0  0  0  0  0
  162.1340  205.4010  147.0830 C   0  0  0  0  0  3  0  0  0  0  0  0
  162.7810  206.1970  144.9310 F   0  0  0  0  0  0  0  0  0  0  0  0
  162.2750  208.4840  151.2770 N   0  0  0  0  0  0  0  0  0  0  0  0
  162.2600  209.7270  151.5810 N   0  0  0  0  0  0  0  0  0  0  0  0
  161.9090  210.3320  153.8880 C   0  0  0  0  0  3  0  0  0  0  0  0
  161.4780  210.3400  152.6230 C   0  0  0  0  0  0  0  0  0  0  0  0
  160.0740  212.2090  151.8500 C   0  0  0  0  0  1  0  0  0  0  0  0
  160.2250  210.8800  152.3260 O   0  0  0  0  0  0  0  0  0  0  0  0
  161.1180  210.9130  155.0190 C   0  0  2  0  0  3  0  0  0  0  0  0
  161.6270  209.7790  157.0540 C   0  0  0  0  0  1  0  0  0  0  0  0
  161.9350  210.9450  156.2440 N   0  0  0  0  0  0  0  0  0  0  0  0
  163.3640  210.9180  155.9450 C   0  0  0  0  0  1  0  0  0  0  0  0
  159.7790  210.1740  155.1730 C   0  0  0  0  0  2  0  0  0  0  0  0
  158.6460  211.6270  156.6440 O   0  0  0  0  0  0  0  0  0  0  0  0
  157.6280  211.4510  154.5340 C   0  0  0  0  0  1  0  0  0  0  0  0
  158.6770  211.1150  155.5360 C   0  0  0  0  0  0  0  0  0  0  0  0
  1  2  1  0  0  0  0
  1  5  1  0  0  0  0
  2  3  2  0  0  0  0
  3  4  1  0  0  0  0
  5  6  2  0  0  0  0
  6  4  1  0  0  0  0
  8 11  1  0  0  0  0
 10  9  2  0  0  0  0
 10  8  1  0  0  0  0
 11  5  1  0  0  0  0
 11  7  2  0  0  0  0
 12 10  1  0  0  0  0
 13 18  1  0  0  0  0
 14 13  2  0  0  0  0
 14 15  1  0  0  0  0
 15 16  2  0  0  0  0
 16 17  1  0  0  0  0
 16 12  1  0  0  0  0
 18 17  2  0  0  0  0
 19 13  1  0  0  0  0
 20 21  2  0  0  0  0
 20  2  1  0  0  0  0
 21 23  1  0  0  0  0
 23 22  2  0  0  0  0
 24 25  1  0  0  0  0
 25 23  1  0  0  0  0
 26 22  1  6  0  0  0
 26 30  1  0  0  0  0
 26 28  1  0  0  0  0
 28 27  1  0  0  0  0
 29 28  1  0  0  0  0
 30 33  1  0  0  0  0
 32 33  1  0  0  0  0
 33 31  2  0  0  0  0
M  END
>  <MODEL>
6

>  <REMARK>
 VINA RESULT:      -6.6      2.467      4.166
  Name = 
  10 active torsions:
  status: ('A' for Active; 'I' for Inactive)
    1  A    between atoms: C_6  and  C_8
    2  A    between atoms: C_6  and  C_13
    3  A    between atoms: C_6  and  N_17
    4  A    between atoms: N_7  and  C_19
    5  A    between atoms: C_8  and  C_18
    6  A    between atoms: C_11  and  C_21
    7  A    between atoms: C_20  and  C_21
    8  A    between atoms: C_23  and  C_28
    9  A    between atoms: C_25  and  N_26
   10  A    between atoms: C_25  and  O_29
                            x       y       z     vdW  Elec       q    Type
                         _______ _______ _______ _____ _____    ______ ____

>  <TORSDO>
F 10

$$$$
=
 OpenBabel11072412273D

 33 34  0  0  1  0  0  0  0  0999 V2000
  162.7530  207.5100  151.1790 C   0  0  0  0  0  2  0  0  0  0  0  0
  162.4590  208.9780  150.9840 C   0  0  0  0  0  0  0  0  0  0  0  0
  161.8590  209.3750  149.8980 N   0  0  0  0  0  0  0  0  0  0  0  0
  161.4320  208.4320  148.8610 C   0  0  0  0  0  2  0  0  0  0  0  0
  161.6620  206.6720  150.5620 C   0  0  0  0  0  0  0  0  0  0  0  0
  161.0260  207.1210  149.4730 C   0  0  0  0  0  3  0  0  0  0  0  0
  160.9500  205.3370  152.3790 O   0  0  0  0  0  0  0  0  0  0  0  0
  161.3030  204.1880  150.3710 N   0  0  0  0  0  2  0  0  0  0  0  0
  160.6760  202.6740  152.0480 O   0  0  0  0  0  0  0  0  0  0  0  0
  160.9450  202.8830  150.8350 C   0  0  0  0  0  0  0  0  0  0  0  0
  161.2950  205.3810  151.1670 C   0  0  0  0  0  0  0  0  0  0  0  0
  160.8400  201.7640  149.8570 C   0  0  0  0  0  2  0  0  0  0  0  0
  161.2900  203.2290  145.8510 C   0  0  0  0  0  0  0  0  0  0  0  0
  161.6220  204.0470  146.9350 C   0  0  0  0  0  3  0  0  0  0  0  0
  161.4650  203.5730  148.2420 C   0  0  0  0  0  3  0  0  0  0  0  0
  160.9710  202.2830  148.4650 C   0  0  0  0  0  0  0  0  0  0  0  0
  160.6440  201.4650  147.3770 C   0  0  0  0  0  3  0  0  0  0  0  0
  160.8010  201.9380  146.0720 C   0  0  0  0  0  3  0  0  0  0  0  0
  161.4430  203.6870  144.5850 F   0  0  0  0  0  0  0  0  0  0  0  0
  162.9400  209.9540  151.9160 N   0  0  0  0  0  0  0  0  0  0  0  0
  162.2220  210.6140  152.7450 N   0  0  0  0  0  0  0  0  0  0  0  0
  160.1240  211.7990  152.6620 C   0  0  0  0  0  3  0  0  0  0  0  0
  160.7830  210.6440  152.7890 C   0  0  0  0  0  0  0  0  0  0  0  0
  160.4940  208.5330  154.0230 C   0  0  0  0  0  1  0  0  0  0  0  0
  160.0710  209.4690  153.0440 O   0  0  0  0  0  0  0  0  0  0  0  0
  158.6330  211.8960  152.7460 C   0  0  2  0  0  3  0  0  0  0  0  0
  157.3520  213.8180  152.1480 C   0  0  0  0  0  1  0  0  0  0  0  0
  158.1140  212.6970  151.6240 N   0  0  0  0  0  0  0  0  0  0  0  0
  159.1900  213.2350  150.7970 C   0  0  0  0  0  1  0  0  0  0  0  0
  158.2050  212.4030  154.1330 C   0  0  0  0  0  2  0  0  0  0  0  0
  158.2920  210.5870  155.6340 O   0  0  0  0  0  0  0  0  0  0  0  0
  156.1130  211.1200  154.9360 C   0  0  0  0  0  1  0  0  0  0  0  0
  157.5900  211.3100  154.9450 C   0  0  0  0  0  0  0  0  0  0  0  0
  2  1  1  0  0  0  0
  2 20  1  0  0  0  0
  3  2  2  0  0  0  0
  4  6  1  0  0  0  0
  4  3  1  0  0  0  0
  5 11  1  0  0  0  0
  5  1  1  0  0  0  0
  6  5  2  0  0  0  0
  8 10  1  0  0  0  0
  8 11  1  0  0  0  0
 10  9  2  0  0  0  0
 11  7  2  0  0  0  0
 12 10  1  0  0  0  0
 13 18  2  0  0  0  0
 13 14  1  0  0  0  0
 14 15  2  0  0  0  0
 15 16  1  0  0  0  0
 16 12  1  0  0  0  0
 17 16  2  0  0  0  0
 18 17  1  0  0  0  0
 19 13  1  0  0  0  0
 20 21  2  0  0  0  0
 21 23  1  0  0  0  0
 22 23  2  0  0  0  0
 23 25  1  0  0  0  0
 25 24  1  0  0  0  0
 26 22  1  1  0  0  0
 26 30  1  0  0  0  0
 28 27  1  0  0  0  0
 28 26  1  0  0  0  0
 29 28  1  0  0  0  0
 30 33  1  0  0  0  0
 32 33  1  0  0  0  0
 33 31  2  0  0  0  0
M  END
>  <MODEL>
7

>  <REMARK>
 VINA RESULT:      -6.5      2.412      3.574
  Name = 
  10 active torsions:
  status: ('A' for Active; 'I' for Inactive)
    1  A    between atoms: C_6  and  C_8
    2  A    between atoms: C_6  and  C_13
    3  A    between atoms: C_6  and  N_17
    4  A    between atoms: N_7  and  C_19
    5  A    between atoms: C_8  and  C_18
    6  A    between atoms: C_11  and  C_21
    7  A    between atoms: C_20  and  C_21
    8  A    between atoms: C_23  and  C_28
    9  A    between atoms: C_25  and  N_26
   10  A    between atoms: C_25  and  O_29
                            x       y       z     vdW  Elec       q    Type
                         _______ _______ _______ _____ _____    ______ ____

>  <TORSDO>
F 10

$$$$
=
 OpenBabel11072412273D

 33 34  0  0  1  0  0  0  0  0999 V2000
  161.9670  207.1990  151.3010 C   0  0  0  0  0  2  0  0  0  0  0  0
  161.5340  206.4790  150.0470 C   0  0  0  0  0  0  0  0  0  0  0  0
  161.3800  205.1870  150.0680 N   0  0  0  0  0  0  0  0  0  0  0  0
  161.5880  204.4020  151.2880 C   0  0  0  0  0  2  0  0  0  0  0  0
  161.3900  206.5210  152.5180 C   0  0  0  0  0  0  0  0  0  0  0  0
  161.1950  205.1970  152.5010 C   0  0  0  0  0  3  0  0  0  0  0  0
  160.6320  206.7350  154.7470 O   0  0  0  0  0  0  0  0  0  0  0  0
  161.1630  208.7450  153.6730 N   0  0  0  0  0  2  0  0  0  0  0  0
  160.3690  209.1890  155.8350 O   0  0  0  0  0  0  0  0  0  0  0  0
  160.8710  209.6240  154.7640 C   0  0  0  0  0  0  0  0  0  0  0  0
  161.0310  207.3170  153.7030 C   0  0  0  0  0  0  0  0  0  0  0  0
  161.2110  211.0700  154.6480 C   0  0  0  0  0  2  0  0  0  0  0  0
  157.9080  213.1510  152.8710 C   0  0  0  0  0  0  0  0  0  0  0  0
  158.8860  212.5690  152.0580 C   0  0  0  0  0  3  0  0  0  0  0  0
  159.9690  211.9010  152.6380 C   0  0  0  0  0  3  0  0  0  0  0  0
  160.0780  211.8170  154.0300 C   0  0  0  0  0  0  0  0  0  0  0  0
  159.0940  212.3960  154.8420 C   0  0  0  0  0  3  0  0  0  0  0  0
  158.0120  213.0640  154.2630 C   0  0  0  0  0  3  0  0  0  0  0  0
  156.8590  213.7980  152.3100 F   0  0  0  0  0  0  0  0  0  0  0  0
  161.4120  207.1800  148.8030 N   0  0  0  0  0  0  0  0  0  0  0  0
  161.4470  206.6480  147.6390 N   0  0  0  0  0  0  0  0  0  0  0  0
  160.8330  204.3570  147.2070 C   0  0  0  0  0  3  0  0  0  0  0  0
  161.7880  205.2830  147.3370 C   0  0  0  0  0  0  0  0  0  0  0  0
  163.7770  204.7040  146.0060 C   0  0  0  0  0  1  0  0  0  0  0  0
  163.1300  204.9030  147.2540 O   0  0  0  0  0  0  0  0  0  0  0  0
  161.1310  202.9150  146.9380 C   0  0  2  0  0  3  0  0  0  0  0  0
  160.1200  201.5000  145.3060 C   0  0  0  0  0  1  0  0  0  0  0  0
  161.0100  202.6320  145.4970 N   0  0  0  0  0  0  0  0  0  0  0  0
  160.4560  203.7680  144.7660 C   0  0  0  0  0  1  0  0  0  0  0  0
  160.2660  202.0120  147.8330 C   0  0  0  0  0  2  0  0  0  0  0  0
  161.7610  200.2060  148.0850 O   0  0  0  0  0  0  0  0  0  0  0  0
  161.1730  201.2260  150.1180 C   0  0  0  0  0  1  0  0  0  0  0  0
  161.1080  201.0770  148.6380 C   0  0  0  0  0  0  0  0  0  0  0  0
  1  5  1  0  0  0  0
  2  3  2  0  0  0  0
  2  1  1  0  0  0  0
  3  4  1  0  0  0  0
  4  6  1  0  0  0  0
  5 11  1  0  0  0  0
  6  5  2  0  0  0  0
  8 11  1  0  0  0  0
  8 10  1  0  0  0  0
 10  9  2  0  0  0  0
 11  7  2  0  0  0  0
 12 10  1  0  0  0  0
 13 18  1  0  0  0  0
 14 15  1  0  0  0  0
 14 13  2  0  0  0  0
 15 16  2  0  0  0  0
 16 12  1  0  0  0  0
 16 17  1  0  0  0  0
 18 17  2  0  0  0  0
 19 13  1  0  0  0  0
 20  2  1  0  0  0  0
 21 20  2  0  0  0  0
 22 23  2  0  0  0  0
 23 21  1  0  0  0  0
 24 25  1  0  0  0  0
 25 23  1  0  0  0  0
 26 22  1  6  0  0  0
 26 30  1  0  0  0  0
 27 28  1  0  0  0  0
 28 26  1  0  0  0  0
 29 28  1  0  0  0  0
 30 33  1  0  0  0  0
 31 33  2  0  0  0  0
 33 32  1  0  0  0  0
M  END
>  <MODEL>
8

>  <REMARK>
 VINA RESULT:      -6.3      3.580     10.164
  Name = 
  10 active torsions:
  status: ('A' for Active; 'I' for Inactive)
    1  A    between atoms: C_6  and  C_8
    2  A    between atoms: C_6  and  C_13
    3  A    between atoms: C_6  and  N_17
    4  A    between atoms: N_7  and  C_19
    5  A    between atoms: C_8  and  C_18
    6  A    between atoms: C_11  and  C_21
    7  A    between atoms: C_20  and  C_21
    8  A    between atoms: C_23  and  C_28
    9  A    between atoms: C_25  and  N_26
   10  A    between atoms: C_25  and  O_29
                            x       y       z     vdW  Elec       q    Type
                         _______ _______ _______ _____ _____    ______ ____

>  <TORSDO>
F 10

$$$$
=
 OpenBabel11072412273D

 33 34  0  0  1  0  0  0  0  0999 V2000
  162.0610  207.4120  151.4530 C   0  0  0  0  0  2  0  0  0  0  0  0
  161.5370  208.0530  152.7150 C   0  0  0  0  0  0  0  0  0  0  0  0
  161.6990  209.3310  152.9030 N   0  0  0  0  0  0  0  0  0  0  0  0
  162.3560  210.1820  151.9070 C   0  0  0  0  0  2  0  0  0  0  0  0
  161.9500  208.3710  150.2950 C   0  0  0  0  0  0  0  0  0  0  0  0
  162.0720  209.6850  150.5170 C   0  0  0  0  0  3  0  0  0  0  0  0
  161.2110  208.6290  148.0640 O   0  0  0  0  0  0  0  0  0  0  0  0
  162.0140  206.5010  148.6120 N   0  0  0  0  0  2  0  0  0  0  0  0
  161.2710  206.5170  146.3880 O   0  0  0  0  0  0  0  0  0  0  0  0
  161.8340  205.8950  147.3280 C   0  0  0  0  0  0  0  0  0  0  0  0
  161.6910  207.8600  148.9390 C   0  0  0  0  0  0  0  0  0  0  0  0
  162.3660  204.5250  147.0860 C   0  0  0  0  0  2  0  0  0  0  0  0
  160.0820  201.6850  149.3480 C   0  0  0  0  0  0  0  0  0  0  0  0
  160.4560  202.9020  149.9280 C   0  0  0  0  0  3  0  0  0  0  0  0
  161.2110  203.8230  149.1940 C   0  0  0  0  0  3  0  0  0  0  0  0
  161.5960  203.5260  147.8820 C   0  0  0  0  0  0  0  0  0  0  0  0
  161.2160  202.3090  147.3030 C   0  0  0  0  0  3  0  0  0  0  0  0
  160.4620  201.3890  148.0360 C   0  0  0  0  0  3  0  0  0  0  0  0
  159.3510  200.7940  150.0590 F   0  0  0  0  0  0  0  0  0  0  0  0
  160.9760  207.2550  153.7660 N   0  0  0  0  0  0  0  0  0  0  0  0
  160.3770  207.7030  154.8050 N   0  0  0  0  0  0  0  0  0  0  0  0
  159.3180  209.8680  154.7710 C   0  0  0  0  0  3  0  0  0  0  0  0
  160.3000  209.0810  155.2170 C   0  0  0  0  0  0  0  0  0  0  0  0
  162.1160  208.8070  156.8570 C   0  0  0  0  0  1  0  0  0  0  0  0
  161.3020  209.6210  156.0270 O   0  0  0  0  0  0  0  0  0  0  0  0
  159.2140  211.3190  155.1290 C   0  0  2  0  0  3  0  0  0  0  0  0
  159.7070  212.5520  157.1100 C   0  0  0  0  0  1  0  0  0  0  0  0
  158.9120  211.4660  156.5630 N   0  0  0  0  0  0  0  0  0  0  0  0
  157.5050  211.7810  156.7920 C   0  0  0  0  0  1  0  0  0  0  0  0
  158.2190  212.0310  154.1980 C   0  0  0  0  0  2  0  0  0  0  0  0
  158.9500  214.2460  153.8510 O   0  0  0  0  0  0  0  0  0  0  0  0
  159.5080  212.7900  152.0940 C   0  0  0  0  0  1  0  0  0  0  0  0
  158.8890  213.1100  153.4100 C   0  0  0  0  0  0  0  0  0  0  0  0
  1  2  1  0  0  0  0
  2  3  2  0  0  0  0
  2 20  1  0  0  0  0
  4  3  1  0  0  0  0
  5  6  2  0  0  0  0
  5  1  1  0  0  0  0
  6  4  1  0  0  0  0
  7 11  2  0  0  0  0
  8 11  1  0  0  0  0
  9 10  2  0  0  0  0
 10  8  1  0  0  0  0
 11  5  1  0  0  0  0
 12 10  1  0  0  0  0
 12 16  1  0  0  0  0
 13 14  1  0  0  0  0
 13 19  1  0  0  0  0
 15 14  2  0  0  0  0
 16 15  1  0  0  0  0
 17 16  2  0  0  0  0
 17 18  1  0  0  0  0
 18 13  2  0  0  0  0
 20 21  2  0  0  0  0
 21 23  1  0  0  0  0
 22 26  1  0  0  0  0
 22 23  2  0  0  0  0
 23 25  1  0  0  0  0
 25 24  1  0  0  0  0
 26 30  1  6  0  0  0
 26 28  1  0  0  0  0
 28 29  1  0  0  0  0
 28 27  1  0  0  0  0
 32 33  1  0  0  0  0
 33 31  2  0  0  0  0
 33 30  1  0  0  0  0
M  END
>  <MODEL>
9

>  <REMARK>
 VINA RESULT:      -6.2      2.602      4.190
  Name = 
  10 active torsions:
  status: ('A' for Active; 'I' for Inactive)
    1  A    between atoms: C_6  and  C_8
    2  A    between atoms: C_6  and  C_13
    3  A    between atoms: C_6  and  N_17
    4  A    between atoms: N_7  and  C_19
    5  A    between atoms: C_8  and  C_18
    6  A    between atoms: C_11  and  C_21
    7  A    between atoms: C_20  and  C_21
    8  A    between atoms: C_23  and  C_28
    9  A    between atoms: C_25  and  N_26
   10  A    between atoms: C_25  and  O_29
                            x       y       z     vdW  Elec       q    Type
                         _______ _______ _______ _____ _____    ______ ____

>  <TORSDO>
F 10

$$$$
