=
 OpenBabel11072410563D

 42 48  0  0  1  0  0  0  0  0999 V2000
  161.3220  204.4460  148.4060 N   0  0  0  0  0  0  0  0  0  0  0  0
  160.2930  202.6790  149.9360 C   0  0  2  0  0  3  0  0  0  0  0  0
  161.4740  202.1510  147.9350 O   0  0  0  0  0  0  0  0  0  0  0  0
  161.1760  207.3430  154.9180 N   0  0  0  0  0  0  0  0  0  0  0  0
  161.1530  205.4050  150.7050 C   0  0  0  0  0  0  0  0  0  0  0  0
  161.0650  205.5020  149.3700 C   0  0  0  0  0  0  0  0  0  0  0  0
  160.8460  209.6220  152.1630 N   0  0  0  0  0  0  0  0  0  0  0  0
  161.0790  208.7230  154.4600 C   0  0  0  0  0  3  0  0  0  0  0  0
  160.9820  208.6110  152.9680 C   0  0  0  0  0  0  0  0  0  0  0  0
  159.9470  201.3250  149.9130 O   0  0  0  0  0  1  0  0  0  0  0  0
  160.8820  206.9060  148.9990 C   0  0  0  0  0  3  0  0  0  0  0  0
  161.1530  205.2260  153.9240 O   0  0  0  0  0  0  0  0  0  0  0  0
  161.0500  207.2100  152.5340 C   0  0  0  0  0  0  0  0  0  0  0  0
  161.0530  203.0590  148.7050 C   0  0  0  0  0  0  0  0  0  0  0  0
  161.0280  206.7670  151.2540 C   0  0  0  0  0  0  0  0  0  0  0  0
  160.8600  207.6430  150.0960 C   0  0  0  0  0  3  0  0  0  0  0  0
  161.1470  206.4740  153.7930 C   0  0  0  0  0  0  0  0  0  0  0  0
  161.1310  202.9580  151.1330 C   0  0  0  0  0  3  0  0  0  0  0  0
  161.4940  204.1930  151.4720 C   0  0  0  0  0  3  0  0  0  0  0  0
  163.3390  204.4880  146.9000 C   0  0  1  0  0  3  0  0  0  0  0  0
  162.8520  205.9210  147.0430 C   0  0  0  0  0  2  0  0  0  0  0  0
  161.8460  204.7840  147.0670 C   0  0  2  0  0  0  0  0  0  0  0  0
  163.7500  204.2450  145.4570 C   0  0  0  0  0  1  0  0  0  0  0  0
  159.7980  205.7110  145.8840 C   0  0  0  0  0  2  0  0  0  0  0  0
  161.6880  205.3540  144.3280 S   0  0  0  0  0  0  0  0  0  0  0  0
  160.9190  204.6920  145.8380 C   0  0  1  0  0  3  0  0  0  0  0  0
  160.2490  206.4260  144.6290 C   0  0  0  0  0  2  0  0  0  0  0  0
  160.7930  211.0090  152.6080 C   0  0  0  0  0  2  0  0  0  0  0  0
  159.3580  211.5240  152.6010 C   0  0  0  0  0  2  0  0  0  0  0  0
  159.2530  212.8810  151.9110 C   0  0  0  0  0  2  0  0  0  0  0  0
  159.9950  212.9070  150.5800 C   0  0  0  0  0  2  0  0  0  0  0  0
  157.9390  214.1640  149.8420 C   0  0  0  0  0  2  0  0  0  0  0  0
  157.3950  213.0160  147.7010 C   0  0  0  0  0  2  0  0  0  0  0  0
  158.8520  213.1230  147.3220 C   0  0  1  0  0  3  0  0  0  0  0  0
  158.4410  212.3220  145.1880 O   0  0  0  0  0  0  0  0  0  0  0  0
  161.1270  213.8310  147.7980 C   0  0  0  0  0  3  0  0  0  0  0  0
  159.4490  213.9890  149.6490 C   0  0  2  0  0  3  0  0  0  0  0  0
  161.4890  213.4780  146.4990 C   0  0  0  0  0  3  0  0  0  0  0  0
  160.5610  212.9680  145.6460 N   0  0  0  0  0  0  0  0  0  0  0  0
  157.1840  213.0000  149.2110 C   0  0  0  0  0  2  0  0  0  0  0  0
  159.2650  212.7870  146.0200 C   0  0  0  0  0  0  0  0  0  0  0  0
  159.8030  213.6620  148.2190 C   0  0  0  0  0  0  0  0  0  0  0  0
  1 14  1  0  0  0  0
  1  6  1  0  0  0  0
  2 10  1  6  0  0  0
  2 18  1  0  0  0  0
  3 14  2  0  0  0  0
  5 15  1  0  0  0  0
  5 19  1  0  0  0  0
  6  5  2  0  0  0  0
  7 28  1  0  0  0  0
  7  9  2  0  0  0  0
  8  4  2  0  0  0  0
  9  8  1  0  0  0  0
 11  6  1  0  0  0  0
 11 16  2  0  0  0  0
 13  9  1  0  0  0  0
 13 17  1  0  0  0  0
 14  2  1  0  0  0  0
 15 13  2  0  0  0  0
 16 15  1  0  0  0  0
 17 12  2  0  0  0  0
 17  4  1  0  0  0  0
 18 19  2  0  0  0  0
 20 23  1  6  0  0  0
 20 21  1  0  0  0  0
 20 22  1  0  0  0  0
 22 21  1  1  0  0  0
 22  1  1  0  0  0  0
 25 27  1  0  0  0  0
 25 26  1  0  0  0  0
 26 24  1  1  0  0  0
 26 22  1  0  0  0  0
 27 24  1  0  0  0  0
 29 28  1  0  0  0  0
 30 29  1  0  0  0  0
 31 30  1  0  0  0  0
 33 40  1  0  0  0  0
 34 33  1  6  0  0  0
 34 42  1  0  0  0  0
 35 41  2  0  0  0  0
 36 42  2  0  0  0  0
 37 32  1  0  0  0  0
 37 31  1  1  0  0  0
 38 36  1  0  0  0  0
 39 41  1  0  0  0  0
 39 38  2  0  0  0  0
 40 32  1  0  0  0  0
 41 34  1  0  0  0  0
 42 37  1  0  0  0  0
M  END
>  <MODEL>
1

>  <REMARK>
 VINA RESULT:      -8.9      0.000      0.000
  Name = 
  7 active torsions:
  status: ('A' for Active; 'I' for Inactive)
    1  A    between atoms: N_1  and  C_37
    2  A    between atoms: C_13  and  C_17
    3  A    between atoms: C_13  and  C_35
    4  A    between atoms: C_15  and  N_16
    5  A    between atoms: C_15  and  C_22
    6  A    between atoms: C_22  and  C_35
    7  A    between atoms: C_26  and  C_37
                            x       y       z     vdW  Elec       q    Type
                         _______ _______ _______ _____ _____    ______ ____

>  <TORSDO>
F 7

$$$$
=
 OpenBabel11072410563D

 42 48  0  0  1  0  0  0  0  0999 V2000
  161.3520  204.4810  148.3970 N   0  0  0  0  0  0  0  0  0  0  0  0
  160.3380  202.7510  149.9780 C   0  0  2  0  0  3  0  0  0  0  0  0
  161.5260  202.1750  147.9940 O   0  0  0  0  0  0  0  0  0  0  0  0
  161.1750  207.5680  154.8200 N   0  0  0  0  0  0  0  0  0  0  0  0
  161.1730  205.5060  150.6670 C   0  0  0  0  0  0  0  0  0  0  0  0
  161.0850  205.5630  149.3290 C   0  0  0  0  0  0  0  0  0  0  0  0
  160.8270  209.7610  151.9990 N   0  0  0  0  0  0  0  0  0  0  0  0
  161.0660  208.9320  154.3220 C   0  0  0  0  0  3  0  0  0  0  0  0
  160.9720  208.7760  152.8330 C   0  0  0  0  0  0  0  0  0  0  0  0
  160.0050  201.3940  149.9940 O   0  0  0  0  0  1  0  0  0  0  0  0
  160.8900  206.9530  148.9170 C   0  0  0  0  0  3  0  0  0  0  0  0
  161.1720  205.4220  153.8890 O   0  0  0  0  0  0  0  0  0  0  0  0
  161.0530  207.3630  152.4420 C   0  0  0  0  0  0  0  0  0  0  0  0
  161.0960  203.1020  148.7360 C   0  0  0  0  0  0  0  0  0  0  0  0
  161.0350  206.8830  151.1750 C   0  0  0  0  0  0  0  0  0  0  0  0
  160.8600  207.7230  149.9920 C   0  0  0  0  0  3  0  0  0  0  0  0
  161.1550  206.6660  153.7220 C   0  0  0  0  0  0  0  0  0  0  0  0
  161.1730  203.0730  151.1670 C   0  0  0  0  0  3  0  0  0  0  0  0
  161.5250  204.3200  151.4690 C   0  0  0  0  0  3  0  0  0  0  0  0
  163.3620  204.4620  146.8810 C   0  0  1  0  0  3  0  0  0  0  0  0
  162.8970  205.9050  146.9970 C   0  0  0  0  0  2  0  0  0  0  0  0
  161.8740  204.7850  147.0490 C   0  0  2  0  0  0  0  0  0  0  0  0
  163.7620  204.1840  145.4400 C   0  0  0  0  0  1  0  0  0  0  0  0
  159.7870  205.6620  145.8980 C   0  0  0  0  0  2  0  0  0  0  0  0
  161.6740  205.3910  144.3200 S   0  0  0  0  0  0  0  0  0  0  0  0
  160.9400  204.6810  145.8270 C   0  0  1  0  0  3  0  0  0  0  0  0
  160.2030  206.4110  144.6510 C   0  0  0  0  0  2  0  0  0  0  0  0
  160.7610  211.1610  152.4030 C   0  0  0  0  0  2  0  0  0  0  0  0
  159.8480  211.9490  151.4710 C   0  0  0  0  0  2  0  0  0  0  0  0
  160.4950  213.2550  151.0240 C   0  0  0  0  0  2  0  0  0  0  0  0
  160.1630  213.5950  149.5760 C   0  0  0  0  0  2  0  0  0  0  0  0
  162.0900  212.2720  148.6340 C   0  0  0  0  0  2  0  0  0  0  0  0
  162.3850  213.3370  146.4050 C   0  0  0  0  0  2  0  0  0  0  0  0
  160.8910  213.2500  146.2120 C   0  0  1  0  0  3  0  0  0  0  0  0
  161.0490  213.9720  144.0170 O   0  0  0  0  0  0  0  0  0  0  0  0
  158.6800  212.6060  146.9880 C   0  0  0  0  0  3  0  0  0  0  0  0
  160.5720  212.4720  148.6230 C   0  0  2  0  0  3  0  0  0  0  0  0
  158.1670  212.9240  145.7310 C   0  0  0  0  0  3  0  0  0  0  0  0
  158.9910  213.3860  144.7540 N   0  0  0  0  0  0  0  0  0  0  0  0
  162.7810  213.3980  147.8760 C   0  0  0  0  0  2  0  0  0  0  0  0
  160.3270  213.5510  144.9590 C   0  0  0  0  0  0  0  0  0  0  0  0
  160.0490  212.7600  147.2370 C   0  0  0  0  0  0  0  0  0  0  0  0
  1 14  1  0  0  0  0
  1  6  1  0  0  0  0
  2 10  1  6  0  0  0
  2 18  1  0  0  0  0
  3 14  2  0  0  0  0
  5 15  1  0  0  0  0
  5 19  1  0  0  0  0
  6  5  2  0  0  0  0
  7 28  1  0  0  0  0
  7  9  2  0  0  0  0
  8  4  2  0  0  0  0
  9  8  1  0  0  0  0
 11  6  1  0  0  0  0
 11 16  2  0  0  0  0
 13  9  1  0  0  0  0
 13 17  1  0  0  0  0
 14  2  1  0  0  0  0
 15 13  2  0  0  0  0
 16 15  1  0  0  0  0
 17 12  2  0  0  0  0
 17  4  1  0  0  0  0
 18 19  2  0  0  0  0
 20 23  1  6  0  0  0
 20 21  1  0  0  0  0
 20 22  1  0  0  0  0
 22 21  1  1  0  0  0
 22  1  1  0  0  0  0
 25 27  1  0  0  0  0
 25 26  1  0  0  0  0
 26 24  1  1  0  0  0
 26 22  1  0  0  0  0
 27 24  1  0  0  0  0
 29 28  1  0  0  0  0
 30 29  1  0  0  0  0
 31 30  1  0  0  0  0
 33 40  1  0  0  0  0
 34 33  1  6  0  0  0
 34 42  1  0  0  0  0
 35 41  2  0  0  0  0
 36 42  2  0  0  0  0
 37 32  1  0  0  0  0
 37 31  1  1  0  0  0
 38 36  1  0  0  0  0
 39 41  1  0  0  0  0
 39 38  2  0  0  0  0
 40 32  1  0  0  0  0
 41 34  1  0  0  0  0
 42 37  1  0  0  0  0
M  END
>  <MODEL>
2

>  <REMARK>
 VINA RESULT:      -8.3      0.987      1.810
  Name = 
  7 active torsions:
  status: ('A' for Active; 'I' for Inactive)
    1  A    between atoms: N_1  and  C_37
    2  A    between atoms: C_13  and  C_17
    3  A    between atoms: C_13  and  C_35
    4  A    between atoms: C_15  and  N_16
    5  A    between atoms: C_15  and  C_22
    6  A    between atoms: C_22  and  C_35
    7  A    between atoms: C_26  and  C_37
                            x       y       z     vdW  Elec       q    Type
                         _______ _______ _______ _____ _____    ______ ____

>  <TORSDO>
F 7

$$$$
=
 OpenBabel11072410563D

 42 48  0  0  1  0  0  0  0  0999 V2000
  158.8340  212.8280  152.3010 N   0  0  0  0  0  0  0  0  0  0  0  0
  158.9790  213.2060  154.8230 C   0  0  2  0  0  3  0  0  0  0  0  0
  157.5380  214.4530  153.3930 O   0  0  0  0  0  0  0  0  0  0  0  0
  160.8930  206.6020  155.0940 N   0  0  0  0  0  0  0  0  0  0  0  0
  159.6310  210.7140  153.3630 C   0  0  0  0  0  0  0  0  0  0  0  0
  159.6500  211.6300  152.3820 C   0  0  0  0  0  0  0  0  0  0  0  0
  162.0810  207.3220  151.7830 N   0  0  0  0  0  0  0  0  0  0  0  0
  161.6180  206.1470  153.9150 C   0  0  0  0  0  3  0  0  0  0  0  0
  161.5300  207.3000  152.9590 C   0  0  0  0  0  0  0  0  0  0  0  0
  158.6130  214.1590  155.7770 O   0  0  0  0  0  1  0  0  0  0  0  0
  160.4680  211.1340  151.2750 C   0  0  0  0  0  3  0  0  0  0  0  0
  159.7960  208.5590  155.7540 O   0  0  0  0  0  0  0  0  0  0  0  0
  160.7490  208.4050  153.5310 C   0  0  0  0  0  0  0  0  0  0  0  0
  158.4100  213.5440  153.4810 C   0  0  0  0  0  0  0  0  0  0  0  0
  160.4510  209.5740  152.9150 C   0  0  0  0  0  0  0  0  0  0  0  0
  160.9360  209.9370  151.5850 C   0  0  0  0  0  3  0  0  0  0  0  0
  160.4030  207.9160  154.8630 C   0  0  0  0  0  0  0  0  0  0  0  0
  158.4830  211.8670  155.2400 C   0  0  0  0  0  3  0  0  0  0  0  0
  158.8010  210.7560  154.5800 C   0  0  0  0  0  3  0  0  0  0  0  0
  156.9270  213.3470  150.7400 C   0  0  1  0  0  3  0  0  0  0  0  0
  157.8250  212.3420  150.0380 C   0  0  0  0  0  2  0  0  0  0  0  0
  158.4390  213.3610  150.9810 C   0  0  2  0  0  0  0  0  0  0  0  0
  156.4650  214.3880  149.7340 C   0  0  0  0  0  1  0  0  0  0  0  0
  160.7400  214.4160  150.7710 C   0  0  0  0  0  2  0  0  0  0  0  0
  159.6650  214.0860  148.5670 S   0  0  0  0  0  0  0  0  0  0  0  0
  159.2970  214.4530  150.3100 C   0  0  1  0  0  3  0  0  0  0  0  0
  161.2860  214.1110  149.3930 C   0  0  0  0  0  2  0  0  0  0  0  0
  162.8430  206.2120  151.2240 C   0  0  0  0  0  2  0  0  0  0  0  0
  162.0750  205.5510  150.0850 C   0  0  0  0  0  2  0  0  0  0  0  0
  161.5080  206.5850  149.1170 C   0  0  0  0  0  2  0  0  0  0  0  0
  160.8910  205.9380  147.8830 C   0  0  0  0  0  2  0  0  0  0  0  0
  162.1600  205.7590  145.7130 C   0  0  0  0  0  2  0  0  0  0  0  0
  160.8800  203.9810  144.5320 C   0  0  0  0  0  2  0  0  0  0  0  0
  160.9090  203.1720  145.8050 C   0  0  1  0  0  3  0  0  0  0  0  0
  159.9710  201.3330  144.7560 O   0  0  0  0  0  0  0  0  0  0  0  0
  161.5720  202.8800  148.1250 C   0  0  0  0  0  3  0  0  0  0  0  0
  161.9200  205.1330  147.0910 C   0  0  2  0  0  3  0  0  0  0  0  0
  161.1140  201.5640  148.0700 C   0  0  0  0  0  3  0  0  0  0  0  0
  160.5760  201.0750  146.9210 N   0  0  0  0  0  0  0  0  0  0  0  0
  160.9800  205.4810  144.7900 C   0  0  0  0  0  2  0  0  0  0  0  0
  160.4670  201.8370  145.7990 C   0  0  0  0  0  0  0  0  0  0  0  0
  161.4800  203.6940  146.9890 C   0  0  0  0  0  0  0  0  0  0  0  0
  1  6  1  0  0  0  0
  1 14  1  0  0  0  0
  2 18  1  0  0  0  0
  2 10  1  1  0  0  0
  3 14  2  0  0  0  0
  5 19  1  0  0  0  0
  6  5  2  0  0  0  0
  7  9  2  0  0  0  0
  8  4  2  0  0  0  0
  9 13  1  0  0  0  0
  9  8  1  0  0  0  0
 11 16  2  0  0  0  0
 11  6  1  0  0  0  0
 13 17  1  0  0  0  0
 14  2  1  0  0  0  0
 15  5  1  0  0  0  0
 15 13  2  0  0  0  0
 16 15  1  0  0  0  0
 17  4  1  0  0  0  0
 17 12  2  0  0  0  0
 19 18  2  0  0  0  0
 20 23  1  6  0  0  0
 20 22  1  0  0  0  0
 21 20  1  0  0  0  0
 22 21  1  6  0  0  0
 22  1  1  0  0  0  0
 25 27  1  0  0  0  0
 25 26  1  0  0  0  0
 26 24  1  1  0  0  0
 26 22  1  0  0  0  0
 27 24  1  0  0  0  0
 28  7  1  0  0  0  0
 29 28  1  0  0  0  0
 30 29  1  0  0  0  0
 31 30  1  0  0  0  0
 32 37  1  0  0  0  0
 33 40  1  0  0  0  0
 34 33  1  6  0  0  0
 34 42  1  0  0  0  0
 35 41  2  0  0  0  0
 37 31  1  6  0  0  0
 38 36  1  0  0  0  0
 39 38  2  0  0  0  0
 40 32  1  0  0  0  0
 41 34  1  0  0  0  0
 41 39  1  0  0  0  0
 42 37  1  0  0  0  0
 42 36  2  0  0  0  0
M  END
>  <MODEL>
3

>  <REMARK>
 VINA RESULT:      -7.5      3.096      9.024
  Name = 
  7 active torsions:
  status: ('A' for Active; 'I' for Inactive)
    1  A    between atoms: N_1  and  C_37
    2  A    between atoms: C_13  and  C_17
    3  A    between atoms: C_13  and  C_35
    4  A    between atoms: C_15  and  N_16
    5  A    between atoms: C_15  and  C_22
    6  A    between atoms: C_22  and  C_35
    7  A    between atoms: C_26  and  C_37
                            x       y       z     vdW  Elec       q    Type
                         _______ _______ _______ _____ _____    ______ ____

>  <TORSDO>
F 7

$$$$
=
 OpenBabel11072410563D

 42 48  0  0  1  0  0  0  0  0999 V2000
  161.3850  203.9640  147.9520 N   0  0  0  0  0  0  0  0  0  0  0  0
  160.2410  202.2670  149.4810 C   0  0  2  0  0  3  0  0  0  0  0  0
  161.4590  201.6570  147.5260 O   0  0  0  0  0  0  0  0  0  0  0  0
  161.1650  206.9830  154.4060 N   0  0  0  0  0  0  0  0  0  0  0  0
  161.1880  204.9700  150.2290 C   0  0  0  0  0  0  0  0  0  0  0  0
  161.1430  205.0470  148.8900 C   0  0  0  0  0  0  0  0  0  0  0  0
  161.0090  209.2220  151.6050 N   0  0  0  0  0  0  0  0  0  0  0  0
  161.1380  208.3570  153.9230 C   0  0  0  0  0  3  0  0  0  0  0  0
  161.0810  208.2220  152.4300 C   0  0  0  0  0  0  0  0  0  0  0  0
  159.8420  200.9280  149.4700 O   0  0  0  0  0  1  0  0  0  0  0  0
  161.0290  206.4500  148.4900 C   0  0  0  0  0  3  0  0  0  0  0  0
  161.0860  204.8500  153.4490 O   0  0  0  0  0  0  0  0  0  0  0  0
  161.1050  206.8110  152.0230 C   0  0  0  0  0  0  0  0  0  0  0  0
  161.0520  202.5950  148.2670 C   0  0  0  0  0  0  0  0  0  0  0  0
  161.1020  206.3470  150.7500 C   0  0  0  0  0  0  0  0  0  0  0  0
  161.0040  207.2080  149.5730 C   0  0  0  0  0  3  0  0  0  0  0  0
  161.1350  206.0960  153.2970 C   0  0  0  0  0  0  0  0  0  0  0  0
  161.0550  202.5350  150.6980 C   0  0  0  0  0  3  0  0  0  0  0  0
  161.4570  203.7600  151.0260 C   0  0  0  0  0  3  0  0  0  0  0  0
  163.4930  204.2920  146.6150 C   0  0  1  0  0  3  0  0  0  0  0  0
  162.6940  205.5820  146.5240 C   0  0  0  0  0  2  0  0  0  0  0  0
  161.9620  204.2570  146.6250 C   0  0  2  0  0  0  0  0  0  0  0  0
  164.0970  203.9840  145.2540 C   0  0  0  0  0  1  0  0  0  0  0  0
  159.7110  203.7690  145.5530 C   0  0  0  0  0  2  0  0  0  0  0  0
  161.1750  205.1080  144.0730 S   0  0  0  0  0  0  0  0  0  0  0  0
  161.2130  203.8140  145.3520 C   0  0  1  0  0  3  0  0  0  0  0  0
  159.4310  204.8350  144.5160 C   0  0  0  0  0  2  0  0  0  0  0  0
  160.9990  210.6190  152.0240 C   0  0  0  0  0  2  0  0  0  0  0  0
  159.5880  211.0630  152.3900 C   0  0  0  0  0  2  0  0  0  0  0  0
  159.6010  212.1450  153.4650 C   0  0  0  0  0  2  0  0  0  0  0  0
  158.2100  212.4120  154.0270 C   0  0  0  0  0  2  0  0  0  0  0  0
  156.7300  214.2810  154.8440 C   0  0  0  0  0  2  0  0  0  0  0  0
  154.8740  214.2080  153.1890 C   0  0  0  0  0  2  0  0  0  0  0  0
  155.9090  214.1250  152.0940 C   0  0  1  0  0  3  0  0  0  0  0  0
  154.2990  214.3300  150.4420 O   0  0  0  0  0  0  0  0  0  0  0  0
  158.2230  214.0650  151.3550 C   0  0  0  0  0  3  0  0  0  0  0  0
  157.7810  213.8630  153.8110 C   0  0  2  0  0  3  0  0  0  0  0  0
  157.7850  214.1730  150.0360 C   0  0  0  0  0  3  0  0  0  0  0  0
  156.4560  214.2560  149.7620 N   0  0  0  0  0  0  0  0  0  0  0  0
  155.3820  213.6540  154.5150 C   0  0  0  0  0  2  0  0  0  0  0  0
  155.5180  214.2380  150.7480 C   0  0  0  0  0  0  0  0  0  0  0  0
  157.2880  214.0470  152.3970 C   0  0  0  0  0  0  0  0  0  0  0  0
  1 14  1  0  0  0  0
  1  6  1  0  0  0  0
  2 10  1  6  0  0  0
  2 18  1  0  0  0  0
  3 14  2  0  0  0  0
  5 15  1  0  0  0  0
  5 19  1  0  0  0  0
  6  5  2  0  0  0  0
  7 28  1  0  0  0  0
  7  9  2  0  0  0  0
  8  4  2  0  0  0  0
  9  8  1  0  0  0  0
 11  6  1  0  0  0  0
 11 16  2  0  0  0  0
 13  9  1  0  0  0  0
 13 17  1  0  0  0  0
 14  2  1  0  0  0  0
 15 13  2  0  0  0  0
 16 15  1  0  0  0  0
 17 12  2  0  0  0  0
 17  4  1  0  0  0  0
 18 19  2  0  0  0  0
 20 23  1  6  0  0  0
 20 22  1  0  0  0  0
 21 20  1  0  0  0  0
 22 21  1  6  0  0  0
 22  1  1  0  0  0  0
 25 27  1  0  0  0  0
 25 26  1  0  0  0  0
 26 24  1  1  0  0  0
 26 22  1  0  0  0  0
 27 24  1  0  0  0  0
 28 29  1  0  0  0  0
 29 30  1  0  0  0  0
 30 31  1  0  0  0  0
 33 40  1  0  0  0  0
 34 42  1  0  0  0  0
 34 33  1  1  0  0  0
 35 41  2  0  0  0  0
 36 42  2  0  0  0  0
 37 31  1  1  0  0  0
 37 32  1  0  0  0  0
 38 36  1  0  0  0  0
 39 38  2  0  0  0  0
 39 41  1  0  0  0  0
 40 32  1  0  0  0  0
 41 34  1  0  0  0  0
 42 37  1  0  0  0  0
M  END
>  <MODEL>
4

>  <REMARK>
 VINA RESULT:      -7.3      2.196      3.009
  Name = 
  7 active torsions:
  status: ('A' for Active; 'I' for Inactive)
    1  A    between atoms: N_1  and  C_37
    2  A    between atoms: C_13  and  C_17
    3  A    between atoms: C_13  and  C_35
    4  A    between atoms: C_15  and  N_16
    5  A    between atoms: C_15  and  C_22
    6  A    between atoms: C_22  and  C_35
    7  A    between atoms: C_26  and  C_37
                            x       y       z     vdW  Elec       q    Type
                         _______ _______ _______ _____ _____    ______ ____

>  <TORSDO>
F 7

$$$$
=
 OpenBabel11072410563D

 42 48  0  0  1  0  0  0  0  0999 V2000
  161.1990  204.6140  148.5680 N   0  0  0  0  0  0  0  0  0  0  0  0
  160.1010  202.9290  150.1430 C   0  0  2  0  0  3  0  0  0  0  0  0
  161.1840  202.3110  148.1120 O   0  0  0  0  0  0  0  0  0  0  0  0
  161.4440  207.5550  155.0560 N   0  0  0  0  0  0  0  0  0  0  0  0
  161.1640  205.5960  150.8630 C   0  0  0  0  0  0  0  0  0  0  0  0
  161.0430  205.6900  149.5300 C   0  0  0  0  0  0  0  0  0  0  0  0
  161.1840  209.8330  152.2940 N   0  0  0  0  0  0  0  0  0  0  0  0
  161.4250  208.9350  154.5910 C   0  0  0  0  0  3  0  0  0  0  0  0
  161.2760  208.8210  153.1030 C   0  0  0  0  0  0  0  0  0  0  0  0
  159.6650  201.6010  150.1410 O   0  0  0  0  0  1  0  0  0  0  0  0
  160.9430  207.1010  149.1530 C   0  0  0  0  0  3  0  0  0  0  0  0
  161.2490  205.4380  154.0810 O   0  0  0  0  0  0  0  0  0  0  0  0
  161.2380  207.4150  152.6790 C   0  0  0  0  0  0  0  0  0  0  0  0
  160.8470  203.2500  148.8860 C   0  0  0  0  0  0  0  0  0  0  0  0
  161.1470  206.9670  151.4040 C   0  0  0  0  0  0  0  0  0  0  0  0
  161.0030  207.8450  150.2440 C   0  0  0  0  0  3  0  0  0  0  0  0
  161.3230  206.6830  153.9410 C   0  0  0  0  0  0  0  0  0  0  0  0
  160.9920  203.1590  151.3110 C   0  0  0  0  0  3  0  0  0  0  0  0
  161.4470  204.3690  151.6290 C   0  0  0  0  0  3  0  0  0  0  0  0
  163.1970  204.6120  147.0350 C   0  0  1  0  0  3  0  0  0  0  0  0
  162.7040  206.0470  147.1350 C   0  0  0  0  0  2  0  0  0  0  0  0
  161.7040  204.9070  147.2110 C   0  0  2  0  0  0  0  0  0  0  0  0
  163.5900  204.3210  145.5960 C   0  0  0  0  0  1  0  0  0  0  0  0
  160.0790  206.0750  145.6460 C   0  0  0  0  0  2  0  0  0  0  0  0
  161.6620  204.6160  144.4240 S   0  0  0  0  0  0  0  0  0  0  0  0
  160.7620  204.7680  145.9980 C   0  0  1  0  0  3  0  0  0  0  0  0
  160.7110  206.1600  144.2730 C   0  0  0  0  0  2  0  0  0  0  0  0
  161.2370  211.2240  152.7290 C   0  0  0  0  0  2  0  0  0  0  0  0
  159.9700  211.9660  152.3200 C   0  0  0  0  0  2  0  0  0  0  0  0
  158.7240  211.3160  152.9130 C   0  0  0  0  0  2  0  0  0  0  0  0
  158.5440  211.6600  154.3870 C   0  0  0  0  0  2  0  0  0  0  0  0
  159.2070  213.6000  155.8520 C   0  0  0  0  0  2  0  0  0  0  0  0
  157.1400  213.9400  157.1960 C   0  0  0  0  0  2  0  0  0  0  0  0
  156.3440  213.8470  155.9180 C   0  0  1  0  0  3  0  0  0  0  0  0
  154.3810  214.4300  157.0010 O   0  0  0  0  0  0  0  0  0  0  0  0
  156.2150  213.5780  153.5060 C   0  0  0  0  0  3  0  0  0  0  0  0
  158.4270  213.1680  154.6060 C   0  0  2  0  0  3  0  0  0  0  0  0
  154.8560  213.8830  153.5630 C   0  0  0  0  0  3  0  0  0  0  0  0
  154.2680  214.1600  154.7570 N   0  0  0  0  0  0  0  0  0  0  0  0
  158.4630  213.1870  157.1150 C   0  0  0  0  0  2  0  0  0  0  0  0
  154.9710  214.1540  155.9220 C   0  0  0  0  0  0  0  0  0  0  0  0
  156.9730  213.5640  154.6830 C   0  0  0  0  0  0  0  0  0  0  0  0
  1 14  1  0  0  0  0
  1  6  1  0  0  0  0
  2 10  1  6  0  0  0
  2 18  1  0  0  0  0
  3 14  2  0  0  0  0
  5 15  1  0  0  0  0
  5 19  1  0  0  0  0
  6  5  2  0  0  0  0
  7 28  1  0  0  0  0
  7  9  2  0  0  0  0
  8  4  2  0  0  0  0
  9  8  1  0  0  0  0
 11  6  1  0  0  0  0
 11 16  2  0  0  0  0
 13  9  1  0  0  0  0
 13 17  1  0  0  0  0
 14  2  1  0  0  0  0
 15 13  2  0  0  0  0
 16 15  1  0  0  0  0
 17 12  2  0  0  0  0
 17  4  1  0  0  0  0
 18 19  2  0  0  0  0
 20 23  1  6  0  0  0
 20 21  1  0  0  0  0
 20 22  1  0  0  0  0
 22 21  1  1  0  0  0
 22  1  1  0  0  0  0
 25 26  1  0  0  0  0
 26 24  1  6  0  0  0
 26 22  1  0  0  0  0
 27 25  1  0  0  0  0
 27 24  1  0  0  0  0
 29 28  1  0  0  0  0
 29 30  1  0  0  0  0
 30 31  1  0  0  0  0
 32 40  1  0  0  0  0
 34 41  1  0  0  0  0
 34 33  1  6  0  0  0
 36 38  1  0  0  0  0
 36 42  2  0  0  0  0
 37 31  1  1  0  0  0
 37 42  1  0  0  0  0
 37 32  1  0  0  0  0
 38 39  2  0  0  0  0
 39 41  1  0  0  0  0
 40 33  1  0  0  0  0
 41 35  2  0  0  0  0
 42 34  1  0  0  0  0
M  END
>  <MODEL>
5

>  <REMARK>
 VINA RESULT:      -7.1      3.117      4.706
  Name = 
  7 active torsions:
  status: ('A' for Active; 'I' for Inactive)
    1  A    between atoms: N_1  and  C_37
    2  A    between atoms: C_13  and  C_17
    3  A    between atoms: C_13  and  C_35
    4  A    between atoms: C_15  and  N_16
    5  A    between atoms: C_15  and  C_22
    6  A    between atoms: C_22  and  C_35
    7  A    between atoms: C_26  and  C_37
                            x       y       z     vdW  Elec       q    Type
                         _______ _______ _______ _____ _____    ______ ____

>  <TORSDO>
F 7

$$$$
=
 OpenBabel11072410563D

 42 48  0  0  1  0  0  0  0  0999 V2000
  160.6170  212.8550  139.6670 N   0  0  0  0  0  0  0  0  0  0  0  0
  163.1620  212.6340  139.6430 C   0  0  2  0  0  3  0  0  0  0  0  0
  161.8760  213.1820  137.7130 O   0  0  0  0  0  0  0  0  0  0  0  0
  162.7740  214.3660  146.2910 N   0  0  0  0  0  0  0  0  0  0  0  0
  161.4620  213.2880  141.9760 C   0  0  0  0  0  0  0  0  0  0  0  0
  160.5740  212.7670  141.1160 C   0  0  0  0  0  0  0  0  0  0  0  0
  159.5340  212.8510  145.9880 N   0  0  0  0  0  0  0  0  0  0  0  0
  161.5480  213.9300  146.9460 C   0  0  0  0  0  3  0  0  0  0  0  0
  160.7090  213.3810  145.8300 C   0  0  0  0  0  0  0  0  0  0  0  0
  164.2080  212.5000  138.7260 O   0  0  0  0  0  1  0  0  0  0  0  0
  159.4140  212.2740  141.8600 C   0  0  0  0  0  3  0  0  0  0  0  0
  163.6330  214.3370  144.1160 O   0  0  0  0  0  0  0  0  0  0  0  0
  161.3930  213.5110  144.5370 C   0  0  0  0  0  0  0  0  0  0  0  0
  161.8660  212.8990  138.9430 C   0  0  0  0  0  0  0  0  0  0  0  0
  160.8960  213.1470  143.3300 C   0  0  0  0  0  0  0  0  0  0  0  0
  159.6020  212.4950  143.1500 C   0  0  0  0  0  3  0  0  0  0  0  0
  162.6770  214.1090  144.8970 C   0  0  0  0  0  0  0  0  0  0  0  0
  163.4550  213.7590  140.5710 C   0  0  0  0  0  3  0  0  0  0  0  0
  162.6880  214.0270  141.6250 C   0  0  0  0  0  3  0  0  0  0  0  0
  159.0110  214.2480  138.3180 C   0  0  1  0  0  3  0  0  0  0  0  0
  158.2420  213.6950  139.5070 C   0  0  0  0  0  2  0  0  0  0  0  0
  159.3600  212.8720  138.8930 C   0  0  2  0  0  0  0  0  0  0  0  0
  158.1290  214.1810  137.0820 C   0  0  0  0  0  1  0  0  0  0  0  0
  159.8220  210.4230  138.4010 C   0  0  0  0  0  2  0  0  0  0  0  0
  157.4270  210.8420  138.8590 S   0  0  0  0  0  0  0  0  0  0  0  0
  158.9120  211.6050  138.1350 C   0  0  1  0  0  3  0  0  0  0  0  0
  158.7330  209.5890  139.0410 C   0  0  0  0  0  2  0  0  0  0  0  0
  158.8610  212.7410  147.2770 C   0  0  0  0  0  2  0  0  0  0  0  0
  157.3540  212.8980  147.1140 C   0  0  0  0  0  2  0  0  0  0  0  0
  156.7200  213.5370  148.3460 C   0  0  0  0  0  2  0  0  0  0  0  0
  157.2870  212.9700  149.6420 C   0  0  0  0  0  2  0  0  0  0  0  0
  159.2930  214.0070  150.7620 C   0  0  0  0  0  2  0  0  0  0  0  0
  159.1110  213.0840  153.0660 C   0  0  0  0  0  2  0  0  0  0  0  0
  157.6460  213.4450  153.0500 C   0  0  1  0  0  3  0  0  0  0  0  0
  157.3980  212.8800  155.2820 O   0  0  0  0  0  0  0  0  0  0  0  0
  155.7030  214.4010  151.9480 C   0  0  0  0  0  3  0  0  0  0  0  0
  157.7730  214.0760  150.5780 C   0  0  2  0  0  3  0  0  0  0  0  0
  154.9890  214.2760  153.1390 C   0  0  0  0  0  3  0  0  0  0  0  0
  155.5880  213.7550  154.2430 N   0  0  0  0  0  0  0  0  0  0  0  0
  159.6670  212.8410  151.6670 C   0  0  0  0  0  2  0  0  0  0  0  0
  156.8860  213.3450  154.2290 C   0  0  0  0  0  0  0  0  0  0  0  0
  157.0410  213.9920  151.8950 C   0  0  0  0  0  0  0  0  0  0  0  0
  1  6  1  0  0  0  0
  2 10  1  6  0  0  0
  2 18  1  0  0  0  0
  3 14  2  0  0  0  0
  4  8  2  0  0  0  0
  5 15  1  0  0  0  0
  6 11  1  0  0  0  0
  6  5  2  0  0  0  0
  7 28  1  0  0  0  0
  9  7  2  0  0  0  0
  9  8  1  0  0  0  0
 11 16  2  0  0  0  0
 12 17  2  0  0  0  0
 13 17  1  0  0  0  0
 13  9  1  0  0  0  0
 14  2  1  0  0  0  0
 14  1  1  0  0  0  0
 15 13  2  0  0  0  0
 16 15  1  0  0  0  0
 17  4  1  0  0  0  0
 18 19  2  0  0  0  0
 19  5  1  0  0  0  0
 20 23  1  6  0  0  0
 20 22  1  0  0  0  0
 20 21  1  0  0  0  0
 22 21  1  1  0  0  0
 22  1  1  0  0  0  0
 24 27  1  0  0  0  0
 25 27  1  0  0  0  0
 26 24  1  1  0  0  0
 26 25  1  0  0  0  0
 26 22  1  0  0  0  0
 29 28  1  0  0  0  0
 29 30  1  0  0  0  0
 30 31  1  0  0  0  0
 32 40  1  0  0  0  0
 34 33  1  1  0  0  0
 34 41  1  0  0  0  0
 36 38  1  0  0  0  0
 37 31  1  6  0  0  0
 37 32  1  0  0  0  0
 37 42  1  0  0  0  0
 38 39  2  0  0  0  0
 40 33  1  0  0  0  0
 41 39  1  0  0  0  0
 41 35  2  0  0  0  0
 42 36  2  0  0  0  0
 42 34  1  0  0  0  0
M  END
>  <MODEL>
6

>  <REMARK>
 VINA RESULT:      -6.5      6.830     10.176
  Name = 
  7 active torsions:
  status: ('A' for Active; 'I' for Inactive)
    1  A    between atoms: N_1  and  C_37
    2  A    between atoms: C_13  and  C_17
    3  A    between atoms: C_13  and  C_35
    4  A    between atoms: C_15  and  N_16
    5  A    between atoms: C_15  and  C_22
    6  A    between atoms: C_22  and  C_35
    7  A    between atoms: C_26  and  C_37
                            x       y       z     vdW  Elec       q    Type
                         _______ _______ _______ _____ _____    ______ ____

>  <TORSDO>
F 7

$$$$
=
 OpenBabel11072410563D

 42 48  0  0  1  0  0  0  0  0999 V2000
  161.3920  204.2200  147.9740 N   0  0  0  0  0  0  0  0  0  0  0  0
  160.2340  202.4790  149.4400 C   0  0  2  0  0  3  0  0  0  0  0  0
  161.4190  201.9330  147.4470 O   0  0  0  0  0  0  0  0  0  0  0  0
  161.2950  206.9570  154.5560 N   0  0  0  0  0  0  0  0  0  0  0  0
  161.2370  205.1290  150.2940 C   0  0  0  0  0  0  0  0  0  0  0  0
  161.1800  205.2650  148.9610 C   0  0  0  0  0  0  0  0  0  0  0  0
  161.1500  209.3190  151.8560 N   0  0  0  0  0  0  0  0  0  0  0  0
  161.2870  208.3510  154.1330 C   0  0  0  0  0  3  0  0  0  0  0  0
  161.2120  208.2830  152.6360 C   0  0  0  0  0  0  0  0  0  0  0  0
  159.8100  201.1490  149.3760 O   0  0  0  0  0  1  0  0  0  0  0  0
  161.0870  206.6860  148.6240 C   0  0  0  0  0  3  0  0  0  0  0  0
  161.1660  204.8700  153.5070 O   0  0  0  0  0  0  0  0  0  0  0  0
  161.2060  206.8910  152.1680 C   0  0  0  0  0  0  0  0  0  0  0  0
  161.0370  202.8450  148.2320 C   0  0  0  0  0  0  0  0  0  0  0  0
  161.1820  206.4830  150.8760 C   0  0  0  0  0  0  0  0  0  0  0  0
  161.0870  207.3960  149.7390 C   0  0  0  0  0  3  0  0  0  0  0  0
  161.2370  206.1200  153.4090 C   0  0  0  0  0  0  0  0  0  0  0  0
  161.0640  202.6780  150.6580 C   0  0  0  0  0  3  0  0  0  0  0  0
  161.4920  203.8810  151.0350 C   0  0  0  0  0  3  0  0  0  0  0  0
  163.4420  204.1980  146.5120 C   0  0  1  0  0  3  0  0  0  0  0  0
  163.0180  205.6490  146.6750 C   0  0  0  0  0  2  0  0  0  0  0  0
  161.9600  204.5600  146.6540 C   0  0  2  0  0  0  0  0  0  0  0  0
  163.8720  203.9650  145.0730 C   0  0  0  0  0  1  0  0  0  0  0  0
  159.6560  205.0340  145.6960 C   0  0  0  0  0  2  0  0  0  0  0  0
  161.4640  205.8530  144.2180 S   0  0  0  0  0  0  0  0  0  0  0  0
  161.0570  204.5350  145.4040 C   0  0  1  0  0  3  0  0  0  0  0  0
  159.7600  206.2100  144.7500 C   0  0  0  0  0  2  0  0  0  0  0  0
  161.1710  210.6960  152.3360 C   0  0  0  0  0  2  0  0  0  0  0  0
  159.8000  211.3440  152.1740 C   0  0  0  0  0  2  0  0  0  0  0  0
  158.7840  210.7590  153.1490 C   0  0  0  0  0  2  0  0  0  0  0  0
  157.5830  211.6760  153.3460 C   0  0  0  0  0  2  0  0  0  0  0  0
  157.1740  213.5410  154.9920 C   0  0  0  0  0  2  0  0  0  0  0  0
  159.4510  213.8770  155.9400 C   0  0  0  0  0  2  0  0  0  0  0  0
  159.5620  212.3800  156.0940 C   0  0  1  0  0  3  0  0  0  0  0  0
  161.5660  212.5650  157.2430 O   0  0  0  0  0  0  0  0  0  0  0  0
  158.6340  210.1450  155.8810 C   0  0  0  0  0  3  0  0  0  0  0  0
  157.3780  212.0320  154.8180 C   0  0  2  0  0  3  0  0  0  0  0  0
  159.7290  209.6430  156.5830 C   0  0  0  0  0  3  0  0  0  0  0  0
  160.7010  210.4850  157.0240 N   0  0  0  0  0  0  0  0  0  0  0  0
  158.4960  214.2790  154.8200 C   0  0  0  0  0  2  0  0  0  0  0  0
  160.6440  211.8270  156.8030 C   0  0  0  0  0  0  0  0  0  0  0  0
  158.5380  211.5200  155.6370 C   0  0  0  0  0  0  0  0  0  0  0  0
  1 14  1  0  0  0  0
  1  6  1  0  0  0  0
  2 10  1  6  0  0  0
  2 18  1  0  0  0  0
  3 14  2  0  0  0  0
  5 15  1  0  0  0  0
  5 19  1  0  0  0  0
  6  5  2  0  0  0  0
  7 28  1  0  0  0  0
  7  9  2  0  0  0  0
  8  4  2  0  0  0  0
  9  8  1  0  0  0  0
 11  6  1  0  0  0  0
 11 16  2  0  0  0  0
 13  9  1  0  0  0  0
 13 17  1  0  0  0  0
 14  2  1  0  0  0  0
 15 13  2  0  0  0  0
 16 15  1  0  0  0  0
 17 12  2  0  0  0  0
 17  4  1  0  0  0  0
 18 19  2  0  0  0  0
 20 23  1  6  0  0  0
 20 22  1  0  0  0  0
 20 21  1  0  0  0  0
 22 21  1  1  0  0  0
 22  1  1  0  0  0  0
 25 27  1  0  0  0  0
 25 26  1  0  0  0  0
 26 24  1  1  0  0  0
 26 22  1  0  0  0  0
 27 24  1  0  0  0  0
 29 28  1  0  0  0  0
 29 30  1  0  0  0  0
 30 31  1  0  0  0  0
 34 33  1  1  0  0  0
 34 41  1  0  0  0  0
 36 38  1  0  0  0  0
 37 31  1  6  0  0  0
 37 32  1  0  0  0  0
 37 42  1  0  0  0  0
 38 39  2  0  0  0  0
 40 32  1  0  0  0  0
 40 33  1  0  0  0  0
 41 39  1  0  0  0  0
 41 35  2  0  0  0  0
 42 36  2  0  0  0  0
 42 34  1  0  0  0  0
M  END
>  <MODEL>
7

>  <REMARK>
 VINA RESULT:      -6.5      3.173      4.764
  Name = 
  7 active torsions:
  status: ('A' for Active; 'I' for Inactive)
    1  A    between atoms: N_1  and  C_37
    2  A    between atoms: C_13  and  C_17
    3  A    between atoms: C_13  and  C_35
    4  A    between atoms: C_15  and  N_16
    5  A    between atoms: C_15  and  C_22
    6  A    between atoms: C_22  and  C_35
    7  A    between atoms: C_26  and  C_37
                            x       y       z     vdW  Elec       q    Type
                         _______ _______ _______ _____ _____    ______ ____

>  <TORSDO>
F 7

$$$$
=
 OpenBabel11072410563D

 42 48  0  0  1  0  0  0  0  0999 V2000
  159.7980  212.5910  152.0330 N   0  0  0  0  0  0  0  0  0  0  0  0
  159.6070  213.1280  154.5230 C   0  0  2  0  0  3  0  0  0  0  0  0
  158.6020  214.4530  152.8160 O   0  0  0  0  0  0  0  0  0  0  0  0
  160.4680  206.3620  155.4330 N   0  0  0  0  0  0  0  0  0  0  0  0
  160.1040  210.4710  153.3160 C   0  0  0  0  0  0  0  0  0  0  0  0
  160.4080  211.3020  152.3060 C   0  0  0  0  0  0  0  0  0  0  0  0
  162.2440  206.6700  152.3280 N   0  0  0  0  0  0  0  0  0  0  0  0
  161.2920  205.7280  154.4120 C   0  0  0  0  0  3  0  0  0  0  0  0
  161.5220  206.8090  153.3990 C   0  0  0  0  0  0  0  0  0  0  0  0
  159.2420  214.1890  155.3550 O   0  0  0  0  0  1  0  0  0  0  0  0
  161.3050  210.6190  151.3730 C   0  0  0  0  0  3  0  0  0  0  0  0
  159.5820  208.4940  155.8070 O   0  0  0  0  0  0  0  0  0  0  0  0
  160.8320  208.0490  153.7790 C   0  0  0  0  0  0  0  0  0  0  0  0
  159.3070  213.4420  153.0910 C   0  0  0  0  0  0  0  0  0  0  0  0
  160.8070  209.2000  153.0650 C   0  0  0  0  0  0  0  0  0  0  0  0
  161.5390  209.3950  151.8150 C   0  0  0  0  0  3  0  0  0  0  0  0
  160.2180  207.7100  155.0600 C   0  0  0  0  0  0  0  0  0  0  0  0
  158.8620  211.9040  154.9200 C   0  0  0  0  0  3  0  0  0  0  0  0
  159.1110  210.7140  154.3780 C   0  0  0  0  0  3  0  0  0  0  0  0
  161.0380  213.1330  149.9090 C   0  0  1  0  0  3  0  0  0  0  0  0
  160.3620  214.4120  150.3770 C   0  0  0  0  0  2  0  0  0  0  0  0
  159.6940  213.0750  150.6410 C   0  0  2  0  0  0  0  0  0  0  0  0
  160.9090  213.0270  148.3980 C   0  0  0  0  0  1  0  0  0  0  0  0
  157.1680  212.8110  150.7020 C   0  0  0  0  0  2  0  0  0  0  0  0
  157.9100  214.2240  148.8110 S   0  0  0  0  0  0  0  0  0  0  0  0
  158.4090  212.8040  149.8320 C   0  0  1  0  0  3  0  0  0  0  0  0
  156.5430  213.9910  149.9900 C   0  0  0  0  0  2  0  0  0  0  0  0
  162.9120  205.4280  151.9570 C   0  0  0  0  0  2  0  0  0  0  0  0
  161.8920  204.3660  151.5620 C   0  0  0  0  0  2  0  0  0  0  0  0
  160.7990  204.9430  150.6690 C   0  0  0  0  0  2  0  0  0  0  0  0
  160.4960  204.0440  149.4770 C   0  0  0  0  0  2  0  0  0  0  0  0
  162.2530  205.4010  148.2840 C   0  0  0  0  0  2  0  0  0  0  0  0
  161.2440  205.6460  146.0220 C   0  0  0  0  0  2  0  0  0  0  0  0
  160.9320  204.1700  146.0470 C   0  0  1  0  0  3  0  0  0  0  0  0
  160.2180  204.1990  143.8440 O   0  0  0  0  0  0  0  0  0  0  0  0
  160.9930  202.0010  147.1410 C   0  0  0  0  0  3  0  0  0  0  0  0
  161.6610  204.0030  148.4890 C   0  0  2  0  0  3  0  0  0  0  0  0
  160.5180  201.4170  145.9680 C   0  0  0  0  0  3  0  0  0  0  0  0
  160.2630  202.1860  144.8760 N   0  0  0  0  0  0  0  0  0  0  0  0
  161.3280  206.2490  147.4200 C   0  0  0  0  0  2  0  0  0  0  0  0
  160.4590  203.5330  144.8860 C   0  0  0  0  0  0  0  0  0  0  0  0
  161.2100  203.3830  147.1890 C   0  0  0  0  0  0  0  0  0  0  0  0
  1  6  1  0  0  0  0
  1 14  1  0  0  0  0
  2 18  1  0  0  0  0
  2 10  1  1  0  0  0
  3 14  2  0  0  0  0
  5 19  1  0  0  0  0
  6  5  2  0  0  0  0
  7  9  2  0  0  0  0
  8  4  2  0  0  0  0
  9 13  1  0  0  0  0
  9  8  1  0  0  0  0
 11 16  2  0  0  0  0
 11  6  1  0  0  0  0
 13 17  1  0  0  0  0
 14  2  1  0  0  0  0
 15  5  1  0  0  0  0
 15 13  2  0  0  0  0
 16 15  1  0  0  0  0
 17  4  1  0  0  0  0
 17 12  2  0  0  0  0
 19 18  2  0  0  0  0
 20 23  1  6  0  0  0
 20 21  1  0  0  0  0
 20 22  1  0  0  0  0
 22 21  1  1  0  0  0
 22  1  1  0  0  0  0
 25 26  1  0  0  0  0
 25 27  1  0  0  0  0
 26 22  1  0  0  0  0
 26 24  1  1  0  0  0
 27 24  1  0  0  0  0
 28  7  1  0  0  0  0
 29 28  1  0  0  0  0
 30 29  1  0  0  0  0
 31 30  1  0  0  0  0
 32 37  1  0  0  0  0
 33 40  1  0  0  0  0
 34 33  1  6  0  0  0
 34 42  1  0  0  0  0
 35 41  2  0  0  0  0
 36 42  2  0  0  0  0
 37 31  1  1  0  0  0
 38 36  1  0  0  0  0
 39 41  1  0  0  0  0
 39 38  2  0  0  0  0
 40 32  1  0  0  0  0
 41 34  1  0  0  0  0
 42 37  1  0  0  0  0
M  END
>  <MODEL>
8

>  <REMARK>
 VINA RESULT:      -6.3      3.142      8.618
  Name = 
  7 active torsions:
  status: ('A' for Active; 'I' for Inactive)
    1  A    between atoms: N_1  and  C_37
    2  A    between atoms: C_13  and  C_17
    3  A    between atoms: C_13  and  C_35
    4  A    between atoms: C_15  and  N_16
    5  A    between atoms: C_15  and  C_22
    6  A    between atoms: C_22  and  C_35
    7  A    between atoms: C_26  and  C_37
                            x       y       z     vdW  Elec       q    Type
                         _______ _______ _______ _____ _____    ______ ____

>  <TORSDO>
F 7

$$$$
=
 OpenBabel11072410563D

 42 48  0  0  1  0  0  0  0  0999 V2000
  160.2570  212.7670  139.8040 N   0  0  0  0  0  0  0  0  0  0  0  0
  162.7280  212.9510  139.1840 C   0  0  2  0  0  3  0  0  0  0  0  0
  160.9570  213.3960  137.6540 O   0  0  0  0  0  0  0  0  0  0  0  0
  163.6950  214.2260  145.8760 N   0  0  0  0  0  0  0  0  0  0  0  0
  161.5580  213.1970  141.8920 C   0  0  0  0  0  0  0  0  0  0  0  0
  160.5720  212.5920  141.2120 C   0  0  0  0  0  0  0  0  0  0  0  0
  160.7200  212.2390  146.1790 N   0  0  0  0  0  0  0  0  0  0  0  0
  162.7330  213.5660  146.7500 C   0  0  0  0  0  3  0  0  0  0  0  0
  161.7380  212.9550  145.8080 C   0  0  0  0  0  0  0  0  0  0  0  0
  163.5340  213.0340  138.0450 O   0  0  0  0  0  1  0  0  0  0  0  0
  159.7030  211.8820  142.1510 C   0  0  0  0  0  3  0  0  0  0  0  0
  164.0070  214.4530  143.5700 O   0  0  0  0  0  0  0  0  0  0  0  0
  162.0700  213.2630  144.4110 C   0  0  0  0  0  0  0  0  0  0  0  0
  161.2790  213.0470  138.8240 C   0  0  0  0  0  0  0  0  0  0  0  0
  161.3560  212.8940  143.3200 C   0  0  0  0  0  0  0  0  0  0  0  0
  160.1600  212.0570  143.3790 C   0  0  0  0  0  3  0  0  0  0  0  0
  163.3060  214.0340  144.5230 C   0  0  0  0  0  0  0  0  0  0  0  0
  163.0730  214.0540  140.1200 C   0  0  0  0  0  3  0  0  0  0  0  0
  162.5490  214.1390  141.3400 C   0  0  0  0  0  3  0  0  0  0  0  0
  158.1120  213.9610  139.2450 C   0  0  1  0  0  3  0  0  0  0  0  0
  157.8070  212.9870  140.3720 C   0  0  0  0  0  2  0  0  0  0  0  0
  158.8620  212.6290  139.3410 C   0  0  2  0  0  0  0  0  0  0  0  0
  156.9660  213.9400  138.2470 C   0  0  0  0  0  1  0  0  0  0  0  0
  159.5870  210.4490  138.2560 C   0  0  0  0  0  2  0  0  0  0  0  0
  157.2580  210.3450  139.0850 S   0  0  0  0  0  0  0  0  0  0  0  0
  158.4870  211.4850  138.3770 C   0  0  1  0  0  3  0  0  0  0  0  0
  158.7420  209.3270  138.8190 C   0  0  0  0  0  2  0  0  0  0  0  0
  160.3960  211.9530  147.5720 C   0  0  0  0  0  2  0  0  0  0  0  0
  161.5830  211.3140  148.2820 C   0  0  0  0  0  2  0  0  0  0  0  0
  161.6830  209.8220  147.9760 C   0  0  0  0  0  2  0  0  0  0  0  0
  161.5420  208.9690  149.2310 C   0  0  0  0  0  2  0  0  0  0  0  0
  162.3000  207.0530  147.7790 C   0  0  0  0  0  2  0  0  0  0  0  0
  160.8750  205.1940  148.6210 C   0  0  0  0  0  2  0  0  0  0  0  0
  161.2270  205.6170  150.0260 C   0  0  1  0  0  3  0  0  0  0  0  0
  160.1670  203.7690  150.9360 O   0  0  0  0  0  0  0  0  0  0  0  0
  162.4060  207.0670  151.5790 C   0  0  0  0  0  3  0  0  0  0  0  0
  162.4050  207.7100  149.1590 C   0  0  2  0  0  3  0  0  0  0  0  0
  162.0110  206.2360  152.6260 C   0  0  0  0  0  3  0  0  0  0  0  0
  161.2540  205.1350  152.3760 N   0  0  0  0  0  0  0  0  0  0  0  0
  160.9580  206.3480  147.6270 C   0  0  0  0  0  2  0  0  0  0  0  0
  160.8590  204.8060  151.1150 C   0  0  0  0  0  0  0  0  0  0  0  0
  162.0230  206.7600  150.2680 C   0  0  0  0  0  0  0  0  0  0  0  0
  1  6  1  0  0  0  0
  2 10  1  6  0  0  0
  2 18  1  0  0  0  0
  3 14  2  0  0  0  0
  4  8  2  0  0  0  0
  5 15  1  0  0  0  0
  6  5  2  0  0  0  0
  6 11  1  0  0  0  0
  7 28  1  0  0  0  0
  9  7  2  0  0  0  0
  9  8  1  0  0  0  0
 11 16  2  0  0  0  0
 12 17  2  0  0  0  0
 13 17  1  0  0  0  0
 13  9  1  0  0  0  0
 14  2  1  0  0  0  0
 14  1  1  0  0  0  0
 15 16  1  0  0  0  0
 15 13  2  0  0  0  0
 17  4  1  0  0  0  0
 18 19  2  0  0  0  0
 19  5  1  0  0  0  0
 20 23  1  6  0  0  0
 20 22  1  0  0  0  0
 20 21  1  0  0  0  0
 22  1  1  1  0  0  0
 22 21  1  0  0  0  0
 24 27  1  0  0  0  0
 26 24  1  1  0  0  0
 26 25  1  0  0  0  0
 26 22  1  0  0  0  0
 27 25  1  0  0  0  0
 28 29  1  0  0  0  0
 30 29  1  0  0  0  0
 30 31  1  0  0  0  0
 32 37  1  0  0  0  0
 34 33  1  6  0  0  0
 34 42  1  0  0  0  0
 34 41  1  0  0  0  0
 35 41  2  0  0  0  0
 36 38  1  0  0  0  0
 37 31  1  6  0  0  0
 37 42  1  0  0  0  0
 39 38  2  0  0  0  0
 40 32  1  0  0  0  0
 40 33  1  0  0  0  0
 41 39  1  0  0  0  0
 42 36  2  0  0  0  0
M  END
>  <MODEL>
9

>  <REMARK>
 VINA RESULT:      -6.2      4.857     10.568
  Name = 
  7 active torsions:
  status: ('A' for Active; 'I' for Inactive)
    1  A    between atoms: N_1  and  C_37
    2  A    between atoms: C_13  and  C_17
    3  A    between atoms: C_13  and  C_35
    4  A    between atoms: C_15  and  N_16
    5  A    between atoms: C_15  and  C_22
    6  A    between atoms: C_22  and  C_35
    7  A    between atoms: C_26  and  C_37
                            x       y       z     vdW  Elec       q    Type
                         _______ _______ _______ _____ _____    ______ ____

>  <TORSDO>
F 7

$$$$
