=
 OpenBabel11072413003D

 37 42  0  0  1  0  0  0  0  0999 V2000
  161.0850  210.3310  152.0750 C   0  0  2  0  0  3  0  0  0  0  0  0
  161.9910  207.5830  149.7980 C   0  0  1  0  0  3  0  0  0  0  0  0
  162.4070  207.0790  151.1700 C   0  0  2  0  0  3  0  0  0  0  0  0
  161.6630  213.3160  148.2990 N   0  0  2  0  0  0  0  0  0  0  0  0
  162.1720  204.8280  152.2780 C   0  0  0  0  0  1  0  0  0  0  0  0
  162.0840  211.1760  149.2710 C   0  0  1  0  0  3  0  0  0  0  0  0
  160.8100  206.7460  149.3330 C   0  0  0  0  0  2  0  0  0  0  0  0
  162.0770  209.8030  148.9340 O   0  0  0  0  0  0  0  0  0  0  0  0
  160.7700  205.5220  150.2340 C   0  0  2  0  0  3  0  0  0  0  0  0
  162.2620  212.0100  148.0330 C   0  0  0  0  0  2  0  0  0  0  0  0
  160.9050  211.7160  151.4010 C   0  0  1  0  0  3  0  0  0  0  0  0
  160.7820  211.6670  149.8670 C   0  0  1  0  0  3  0  0  0  0  0  0
  160.5920  213.0520  149.2630 C   0  0  0  0  0  2  0  0  0  0  0  0
  161.4650  205.9460  151.5250 C   0  0  2  0  0  3  0  0  0  0  0  0
  161.5680  209.0110  149.9930 C   0  0  2  0  0  3  0  0  0  0  0  0
  161.5000  210.5380  153.5260 C   0  0  0  0  0  1  0  0  0  0  0  0
  162.0900  209.3970  151.3750 C   0  0  2  0  0  3  0  0  0  0  0  0
  162.2530  208.1620  152.1350 N   0  0  0  0  0  2  0  0  0  0  0  0
  159.4750  201.5060  147.7270 O   0  0  0  0  0  0  0  0  0  0  0  0
  160.4490  202.8050  150.2220 S   0  0  0  0  0  0  0  0  0  0  0  0
  162.0370  205.2470  147.4670 O   0  0  0  0  0  1  0  0  0  0  0  0
  161.6130  203.0130  147.4690 O   0  0  0  0  0  0  0  0  0  0  0  0
  161.2250  204.2500  148.0070 C   0  0  1  0  0  3  0  0  0  0  0  0
  161.3170  204.2520  149.5480 C   0  0  1  0  0  3  0  0  0  0  0  0
  161.7370  200.4810  148.5950 O   0  0  0  0  0  1  0  0  0  0  0  0
  160.7860  201.8650  148.3880 P   0  0  2  0  0  0  0  0  0  0  0  0
  161.0650  213.9110  147.0830 C   0  0  1  0  0  3  0  0  0  0  0  0
  159.4230  213.2700  145.2000 C   0  0  0  0  0  2  0  0  0  0  0  0
  161.7960  213.0610  144.7680 N   0  0  0  0  0  0  0  0  0  0  0  0
  160.5870  212.7440  144.4280 C   0  0  0  0  0  3  0  0  0  0  0  0
  162.0680  213.8370  145.9400 C   0  0  0  0  0  0  0  0  0  0  0  0
  159.7160  213.2350  146.6980 C   0  0  2  0  0  3  0  0  0  0  0  0
  163.1650  214.4510  146.0240 O   0  0  0  0  0  0  0  0  0  0  0  0
  157.6820  214.4420  147.9460 C   0  0  0  0  0  3  0  0  0  0  0  0
  158.5990  213.8980  147.3840 C   0  0  0  0  0  0  0  0  0  0  0  0
  158.6280  211.8770  152.0600 O   0  0  0  0  0  0  0  0  0  0  0  0
  159.7200  212.4210  152.0060 C   0  0  0  0  0  3  0  0  0  0  0  0
  1 16  1  1  0  0  0
  2  7  1  1  0  0  0
  2 15  1  0  0  0  0
  2  3  1  0  0  0  0
  3 14  1  0  0  0  0
  3 18  1  1  0  0  0
  4 10  1  6  0  0  0
  4 13  1  0  0  0  0
  6 10  1  6  0  0  0
  6 12  1  0  0  0  0
  8  6  1  0  0  0  0
  9  7  1  6  0  0  0
  9 14  1  0  0  0  0
 11 37  1  1  0  0  0
 11  1  1  0  0  0  0
 12 13  1  6  0  0  0
 12 11  1  0  0  0  0
 14  5  1  6  0  0  0
 15  8  1  6  0  0  0
 15 17  1  0  0  0  0
 17  1  1  0  0  0  0
 17 18  1  1  0  0  0
 22 23  1  0  0  0  0
 22 26  1  0  0  0  0
 23 21  1  6  0  0  0
 23 24  1  0  0  0  0
 24 20  1  1  0  0  0
 24  9  1  0  0  0  0
 26 19  2  6  0  0  0
 26 25  1  0  0  0  0
 26 20  1  0  0  0  0
 27 31  1  6  0  0  0
 27  4  1  0  0  0  0
 28 32  1  0  0  0  0
 29 31  1  0  0  0  0
 30 29  2  0  0  0  0
 30 28  1  0  0  0  0
 31 33  2  0  0  0  0
 32 27  1  0  0  0  0
 32 35  1  1  0  0  0
 35 34  3  0  0  0  0
 37 36  2  0  0  0  0
M  END
>  <MODEL>
1

>  <REMARK>
 VINA RESULT:      -7.8      0.000      0.000
  Name = 
  4 active torsions:
  status: ('A' for Active; 'I' for Inactive)
    1  A    between atoms: C_6  and  N_9
    2  A    between atoms: C_13  and  C_32
    3  A    between atoms: C_17  and  C_23
    4  A    between atoms: C_20  and  C_35
                            x       y       z     vdW  Elec       q    Type
                         _______ _______ _______ _____ _____    ______ ____

>  <TORSDO>
F 4

$$$$
=
 OpenBabel11072413003D

 37 42  0  0  1  0  0  0  0  0999 V2000
  160.8110  209.0130  152.4990 C   0  0  2  0  0  3  0  0  0  0  0  0
  161.8910  206.7780  149.7790 C   0  0  1  0  0  3  0  0  0  0  0  0
  162.1880  205.9920  151.0440 C   0  0  2  0  0  3  0  0  0  0  0  0
  161.7180  212.7030  149.4880 N   0  0  2  0  0  0  0  0  0  0  0  0
  161.8500  203.5650  151.6360 C   0  0  0  0  0  1  0  0  0  0  0  0
  162.0450  210.3990  150.0220 C   0  0  1  0  0  3  0  0  0  0  0  0
  160.7480  206.0820  149.0560 C   0  0  0  0  0  2  0  0  0  0  0  0
  162.0590  209.1270  149.4080 O   0  0  0  0  0  0  0  0  0  0  0  0
  160.6270  204.6990  149.6760 C   0  0  2  0  0  3  0  0  0  0  0  0
  162.3290  211.4680  149.0040 C   0  0  0  0  0  2  0  0  0  0  0  0
  160.6950  210.5110  152.1170 C   0  0  1  0  0  3  0  0  0  0  0  0
  160.7010  210.7850  150.6010 C   0  0  1  0  0  3  0  0  0  0  0  0
  160.5680  212.2690  150.2860 C   0  0  0  0  0  2  0  0  0  0  0  0
  161.2150  204.8310  151.0780 C   0  0  2  0  0  3  0  0  0  0  0  0
  161.4590  208.1440  150.2330 C   0  0  2  0  0  3  0  0  0  0  0  0
  161.1050  208.9050  153.9900 C   0  0  0  0  0  1  0  0  0  0  0  0
  161.8670  208.2230  151.7030 C   0  0  2  0  0  3  0  0  0  0  0  0
  161.9600  206.8530  152.1990 N   0  0  0  0  0  2  0  0  0  0  0  0
  159.6480  201.6590  145.9490 O   0  0  0  0  0  0  0  0  0  0  0  0
  160.1270  202.1400  148.8470 S   0  0  0  0  0  0  0  0  0  0  0  0
  162.4600  204.9810  147.2470 O   0  0  0  0  0  1  0  0  0  0  0  0
  161.8900  202.8940  146.5460 O   0  0  0  0  0  0  0  0  0  0  0  0
  161.4800  203.9920  147.3180 C   0  0  1  0  0  3  0  0  0  0  0  0
  161.2230  203.5870  148.7860 C   0  0  1  0  0  3  0  0  0  0  0  0
  161.5800  200.1640  146.9260 O   0  0  0  0  0  1  0  0  0  0  0  0
  160.7990  201.6650  146.9290 P   0  0  2  0  0  0  0  0  0  0  0  0
  161.2260  213.5510  148.3790 C   0  0  1  0  0  3  0  0  0  0  0  0
  159.8950  213.3150  146.1820 C   0  0  0  0  0  2  0  0  0  0  0  0
  162.3110  213.3500  146.0560 N   0  0  0  0  0  0  0  0  0  0  0  0
  161.1870  213.0640  145.4810 C   0  0  0  0  0  3  0  0  0  0  0  0
  162.3660  213.8210  147.4070 C   0  0  0  0  0  0  0  0  0  0  0  0
  160.0000  212.9210  147.6540 C   0  0  2  0  0  3  0  0  0  0  0  0
  163.3850  214.4530  147.7920 O   0  0  0  0  0  0  0  0  0  0  0  0
  157.7280  213.6620  148.8520 C   0  0  0  0  0  3  0  0  0  0  0  0
  158.7520  213.3290  148.3120 C   0  0  0  0  0  0  0  0  0  0  0  0
  159.5580  212.0160  153.5620 O   0  0  0  0  0  0  0  0  0  0  0  0
  159.4670  211.1020  152.7580 C   0  0  0  0  0  3  0  0  0  0  0  0
  1 16  1  1  0  0  0
  2  7  1  1  0  0  0
  2 15  1  0  0  0  0
  2  3  1  0  0  0  0
  3 14  1  0  0  0  0
  3 18  1  1  0  0  0
  4 10  1  6  0  0  0
  4 13  1  0  0  0  0
  6 10  1  6  0  0  0
  6 12  1  0  0  0  0
  8  6  1  0  0  0  0
  9  7  1  6  0  0  0
  9 14  1  0  0  0  0
 11  1  1  0  0  0  0
 11 37  1  6  0  0  0
 12 13  1  1  0  0  0
 12 11  1  0  0  0  0
 14  5  1  6  0  0  0
 15  8  1  6  0  0  0
 15 17  1  0  0  0  0
 17 18  1  1  0  0  0
 17  1  1  0  0  0  0
 22 26  1  0  0  0  0
 22 23  1  0  0  0  0
 23 21  1  1  0  0  0
 23 24  1  0  0  0  0
 24 20  1  6  0  0  0
 24  9  1  0  0  0  0
 25 26  1  0  0  0  0
 26 19  2  6  0  0  0
 26 20  1  0  0  0  0
 27 31  1  6  0  0  0
 27  4  1  0  0  0  0
 28 32  1  0  0  0  0
 29 31  1  0  0  0  0
 30 29  2  0  0  0  0
 30 28  1  0  0  0  0
 31 33  2  0  0  0  0
 32 35  1  1  0  0  0
 32 27  1  0  0  0  0
 35 34  3  0  0  0  0
 37 36  2  0  0  0  0
M  END
>  <MODEL>
2

>  <REMARK>
 VINA RESULT:      -7.7      1.212      1.284
  Name = 
  4 active torsions:
  status: ('A' for Active; 'I' for Inactive)
    1  A    between atoms: C_6  and  N_9
    2  A    between atoms: C_13  and  C_32
    3  A    between atoms: C_17  and  C_23
    4  A    between atoms: C_20  and  C_35
                            x       y       z     vdW  Elec       q    Type
                         _______ _______ _______ _____ _____    ______ ____

>  <TORSDO>
F 4

$$$$
