=
 OpenBabel11072411083D

 46 49  0  0  1  0  0  0  0  0999 V2000
  159.9480  211.8970  153.8330 C   0  0  0  0  0  0  0  0  0  0  0  0
  157.4050  212.3140  151.7810 O   0  0  0  0  0  0  0  0  0  0  0  0
  161.6780  214.3910  149.1910 C   0  0  0  0  0  2  0  0  0  0  0  0
  157.2040  212.6360  148.7580 O   0  0  0  0  0  0  0  0  0  0  0  0
  158.5250  212.9630  152.3450 C   0  0  1  0  0  0  0  0  0  0  0  0
  158.0440  213.4110  149.2900 C   0  0  0  0  0  0  0  0  0  0  0  0
  158.6310  212.6340  153.8200 C   0  0  2  0  0  3  0  0  0  0  0  0
  160.5810  211.8290  152.4500 C   0  0  2  0  0  3  0  0  0  0  0  0
  160.4320  213.8210  151.1890 C   0  0  0  0  0  2  0  0  0  0  0  0
  160.8840  212.0170  155.0180 C   0  0  0  0  0  2  0  0  0  0  0  0
  160.0850  210.7380  154.8000 C   0  0  0  0  0  2  0  0  0  0  0  0
  159.7090  213.0290  147.5690 C   0  0  0  0  0  2  0  0  0  0  0  0
  159.4450  213.4470  148.8070 C   0  0  0  0  0  0  0  0  0  0  0  0
  160.5570  213.8860  149.6970 C   0  0  0  0  0  0  0  0  0  0  0  0
  157.5960  214.3380  150.3840 C   0  0  0  0  0  2  0  0  0  0  0  0
  159.7170  212.6090  151.5610 N   0  0  2  0  0  0  0  0  0  0  0  0
  157.3640  213.7210  151.7780 C   0  0  1  0  0  3  0  0  0  0  0  0
  161.9430  209.7730  151.8780 N   0  0  0  0  0  2  0  0  0  0  0  0
  163.0940  207.7830  151.5380 O   0  0  0  0  0  0  0  0  0  0  0  0
  160.6710  210.4250  151.9330 C   0  0  0  0  0  0  0  0  0  0  0  0
  162.1850  208.5630  151.1510 C   0  0  0  0  0  0  0  0  0  0  0  0
  159.6220  209.8140  151.5860 O   0  0  0  0  0  0  0  0  0  0  0  0
  161.2470  207.0000  149.5410 C   0  0  0  0  0  0  0  0  0  0  0  0
  161.3980  208.2120  150.0020 N   0  0  0  0  0  0  0  0  0  0  0  0
  160.8140  207.7880  147.3340 O   0  0  0  0  0  1  0  0  0  0  0  0
  160.5200  206.7770  148.2520 C   0  0  1  0  0  3  0  0  0  0  0  0
  160.8960  205.4150  147.6790 C   0  0  0  0  0  2  0  0  0  0  0  0
  161.8830  205.5440  146.5250 C   0  0  1  0  0  3  0  0  0  0  0  0
  163.0820  204.7830  146.8290 N   0  0  0  0  0  1  0  0  0  0  0  0
  161.2850  205.0520  145.2480 C   0  0  0  0  0  0  0  0  0  0  0  0
  161.7680  203.9000  144.6370 O   0  0  0  0  0  0  0  0  0  0  0  0
  160.3130  205.6680  144.7360 O   0  0  0  0  0  1  0  0  0  0  0  0
  161.8200  205.8010  150.2400 C   0  0  0  0  0  2  0  0  0  0  0  0
  160.6590  203.6960  150.8800 C   0  0  0  0  0  1  0  0  0  0  0  0
  161.2560  205.3580  152.6080 C   0  0  0  0  0  1  0  0  0  0  0  0
  160.7990  205.1770  151.1760 C   0  0  0  0  0  3  0  0  0  0  0  0
  158.6960  213.9280  154.6210 C   0  0  0  0  0  2  0  0  0  0  0  0
  157.6040  213.9490  155.6880 C   0  0  2  0  0  3  0  0  0  0  0  0
  159.5950  213.9850  157.2190 C   0  0  0  0  0  1  0  0  0  0  0  0
  158.1500  213.5470  157.0590 C   0  0  2  0  0  3  0  0  0  0  0  0
  158.0420  212.1680  157.2610 O   0  0  0  0  0  1  0  0  0  0  0  0
  156.4560  213.0310  155.2760 C   0  0  0  0  0  2  0  0  0  0  0  0
  155.1640  213.7750  155.2170 C   0  0  0  0  0  0  0  0  0  0  0  0
  154.5630  214.0950  156.2780 O   0  0  0  0  0  0  0  0  0  0  0  0
  154.6100  214.1410  153.9430 C   0  0  0  0  0  0  0  0  0  0  0  0
  154.1470  214.4510  152.8730 C   0  0  0  0  0  3  0  0  0  0  0  0
  1 11  1  0  0  0  0
  1 10  1  0  0  0  0
  3 14  2  0  0  0  0
  4  6  2  0  0  0  0
  5  2  1  6  0  0  0
  5  7  1  0  0  0  0
  6 15  1  0  0  0  0
  7  1  1  0  0  0  0
  7 37  1  1  0  0  0
  8 20  1  6  0  0  0
  8  1  1  0  0  0  0
 11 10  1  0  0  0  0
 12 13  2  0  0  0  0
 13  6  1  0  0  0  0
 13 14  1  0  0  0  0
 14  9  1  0  0  0  0
 16  9  1  1  0  0  0
 16  5  1  0  0  0  0
 16  8  1  0  0  0  0
 17 15  1  6  0  0  0
 17  2  1  0  0  0  0
 17  5  1  0  0  0  0
 18 20  1  0  0  0  0
 21 19  2  0  0  0  0
 21 18  1  0  0  0  0
 22 20  2  0  0  0  0
 23 24  2  0  0  0  0
 23 33  1  0  0  0  0
 24 21  1  0  0  0  0
 26 25  1  6  0  0  0
 26 23  1  0  0  0  0
 27 26  1  0  0  0  0
 28 29  1  1  0  0  0
 28 27  1  0  0  0  0
 30 28  1  0  0  0  0
 31 30  2  0  0  0  0
 32 30  1  0  0  0  0
 33 36  1  0  0  0  0
 34 36  1  0  0  0  0
 36 35  1  0  0  0  0
 38 37  1  6  0  0  0
 38 40  1  0  0  0  0
 40 39  1  6  0  0  0
 40 41  1  0  0  0  0
 42 38  1  0  0  0  0
 43 42  1  0  0  0  0
 43 44  2  0  0  0  0
 45 43  1  0  0  0  0
 46 45  3  0  0  0  0
M  END
>  <MODEL>
1

>  <REMARK>
 VINA RESULT:      -3.5      0.000      0.000
  Name = 
  14 active torsions:
  status: ('A' for Active; 'I' for Inactive)
    1  A    between atoms: C_5  and  C_35
    2  A    between atoms: C_8  and  C_11
    3  A    between atoms: C_8  and  C_35
    4  A    between atoms: C_11  and  C_12
    5  A    between atoms: C_15  and  CA_39
    6  A    between atoms: C_17  and  C_30
    7  A    between atoms: C_17  and  CA_39
    8  A    between atoms: C_20  and  C_27
    9  A    between atoms: C_22  and  C_31
   10  A    between atoms: C_24  and  C_30
   11  A    between atoms: C_24  and  C_34
   12  A    between atoms: C_27  and  C_35
   13  A    between atoms: C_33  and  N_42
   14  A    between atoms: C_34  and  C_38
                            x       y       z     vdW  Elec       q    Type
                         _______ _______ _______ _____ _____    ______ ____

>  <TORSDO>
F 14

$$$$
=
 OpenBabel11072411083D

 46 49  0  0  1  0  0  0  0  0999 V2000
  160.0610  211.4950  152.6620 C   0  0  0  0  0  0  0  0  0  0  0  0
  162.1080  211.1850  155.2250 O   0  0  0  0  0  0  0  0  0  0  0  0
  158.4510  207.2450  155.8400 C   0  0  0  0  0  2  0  0  0  0  0  0
  162.8500  208.8390  157.0210 O   0  0  0  0  0  0  0  0  0  0  0  0
  160.7440  211.2070  154.8590 C   0  0  1  0  0  0  0  0  0  0  0  0
  161.6050  209.0050  156.9010 C   0  0  0  0  0  0  0  0  0  0  0  0
  160.4910  212.3130  153.8540 C   0  0  2  0  0  3  0  0  0  0  0  0
  160.0400  210.0030  152.9680 C   0  0  2  0  0  3  0  0  0  0  0  0
  159.1580  209.4340  155.0850 C   0  0  0  0  0  2  0  0  0  0  0  0
  159.0090  212.0220  151.7070 C   0  0  0  0  0  2  0  0  0  0  0  0
  160.4760  211.9940  151.2930 C   0  0  0  0  0  2  0  0  0  0  0  0
  161.1650  206.6360  156.6310 C   0  0  0  0  0  2  0  0  0  0  0  0
  160.7370  207.8870  156.4630 C   0  0  0  0  0  0  0  0  0  0  0  0
  159.4310  208.1420  155.7920 C   0  0  0  0  0  0  0  0  0  0  0  0
  161.0050  210.3340  157.2610 C   0  0  0  0  0  2  0  0  0  0  0  0
  160.3620  209.8670  154.3900 N   0  0  2  0  0  0  0  0  0  0  0  0
  161.2010  211.4890  156.2570 C   0  0  1  0  0  3  0  0  0  0  0  0
  161.1250  209.4440  150.7500 N   0  0  0  0  0  2  0  0  0  0  0  0
  162.3090  209.0470  148.7900 O   0  0  0  0  0  0  0  0  0  0  0  0
  161.0510  209.2420  152.1650 C   0  0  0  0  0  0  0  0  0  0  0  0
  161.8420  208.5790  149.8610 C   0  0  0  0  0  0  0  0  0  0  0  0
  161.8540  208.4600  152.7440 O   0  0  0  0  0  0  0  0  0  0  0  0
  161.4490  206.1930  149.5990 C   0  0  0  0  0  0  0  0  0  0  0  0
  162.0550  207.1950  150.1760 N   0  0  0  0  0  0  0  0  0  0  0  0
  161.6860  204.7890  151.5100 O   0  0  0  0  0  1  0  0  0  0  0  0
  161.6480  204.8030  150.1130 C   0  0  1  0  0  3  0  0  0  0  0  0
  160.5290  203.9010  149.6050 C   0  0  0  0  0  2  0  0  0  0  0  0
  160.9060  202.4280  149.7010 C   0  0  1  0  0  3  0  0  0  0  0  0
  159.8350  201.6980  150.3550 N   0  0  0  0  0  1  0  0  0  0  0  0
  161.1580  201.8460  148.3490 C   0  0  0  0  0  0  0  0  0  0  0  0
  161.2090  202.6620  147.2240 O   0  0  0  0  0  0  0  0  0  0  0  0
  161.3590  200.6080  148.2290 O   0  0  0  0  0  1  0  0  0  0  0  0
  160.5070  206.3870  148.4460 C   0  0  0  0  0  2  0  0  0  0  0  0
  162.4940  205.6550  147.1390 C   0  0  0  0  0  1  0  0  0  0  0  0
  160.3690  206.1660  145.9850 C   0  0  0  0  0  1  0  0  0  0  0  0
  161.2690  206.5490  147.1420 C   0  0  0  0  0  3  0  0  0  0  0  0
  159.3680  213.2090  154.3640 C   0  0  0  0  0  2  0  0  0  0  0  0
  158.0740  212.4110  154.5040 C   0  0  2  0  0  3  0  0  0  0  0  0
  157.0040  213.6410  152.5930 C   0  0  0  0  0  1  0  0  0  0  0  0
  156.8610  213.2230  154.0460 C   0  0  2  0  0  3  0  0  0  0  0  0
  156.6740  214.3490  154.8520 O   0  0  0  0  0  1  0  0  0  0  0  0
  157.8990  211.9510  155.9490 C   0  0  0  0  0  2  0  0  0  0  0  0
  156.4740  211.6190  156.2420 C   0  0  0  0  0  0  0  0  0  0  0  0
  155.8520  212.2290  157.1540 O   0  0  0  0  0  0  0  0  0  0  0  0
  155.8040  210.6100  155.4710 C   0  0  0  0  0  0  0  0  0  0  0  0
  155.2410  209.7650  154.8200 C   0  0  0  0  0  3  0  0  0  0  0  0
  1  8  1  0  0  0  0
  1  7  1  0  0  0  0
  2 17  1  0  0  0  0
  5  2  1  6  0  0  0
  5 17  1  0  0  0  0
  6  4  2  0  0  0  0
  6 15  1  0  0  0  0
  7 37  1  1  0  0  0
  7  5  1  0  0  0  0
  8 20  1  6  0  0  0
  8 16  1  0  0  0  0
  9 14  1  0  0  0  0
 10  1  1  0  0  0  0
 11 10  1  0  0  0  0
 11  1  1  0  0  0  0
 13 12  2  0  0  0  0
 13  6  1  0  0  0  0
 14  3  2  0  0  0  0
 14 13  1  0  0  0  0
 16  5  1  0  0  0  0
 16  9  1  1  0  0  0
 17 15  1  1  0  0  0
 18 20  1  0  0  0  0
 19 21  2  0  0  0  0
 20 22  2  0  0  0  0
 21 24  1  0  0  0  0
 21 18  1  0  0  0  0
 23 26  1  0  0  0  0
 23 24  2  0  0  0  0
 26 25  1  1  0  0  0
 27 28  1  0  0  0  0
 27 26  1  0  0  0  0
 28 29  1  6  0  0  0
 30 28  1  0  0  0  0
 31 30  2  0  0  0  0
 32 30  1  0  0  0  0
 33 23  1  0  0  0  0
 34 36  1  0  0  0  0
 35 36  1  0  0  0  0
 36 33  1  0  0  0  0
 38 37  1  1  0  0  0
 38 42  1  0  0  0  0
 40 39  1  6  0  0  0
 40 38  1  0  0  0  0
 40 41  1  0  0  0  0
 42 43  1  0  0  0  0
 43 44  2  0  0  0  0
 45 43  1  0  0  0  0
 46 45  3  0  0  0  0
M  END
>  <MODEL>
2

>  <REMARK>
 VINA RESULT:      -2.7      2.542      5.206
  Name = 
  14 active torsions:
  status: ('A' for Active; 'I' for Inactive)
    1  A    between atoms: C_5  and  C_35
    2  A    between atoms: C_8  and  C_11
    3  A    between atoms: C_8  and  C_35
    4  A    between atoms: C_11  and  C_12
    5  A    between atoms: C_15  and  CA_39
    6  A    between atoms: C_17  and  C_30
    7  A    between atoms: C_17  and  CA_39
    8  A    between atoms: C_20  and  C_27
    9  A    between atoms: C_22  and  C_31
   10  A    between atoms: C_24  and  C_30
   11  A    between atoms: C_24  and  C_34
   12  A    between atoms: C_27  and  C_35
   13  A    between atoms: C_33  and  N_42
   14  A    between atoms: C_34  and  C_38
                            x       y       z     vdW  Elec       q    Type
                         _______ _______ _______ _____ _____    ______ ____

>  <TORSDO>
F 14

$$$$
=
 OpenBabel11072411083D

 46 49  0  0  1  0  0  0  0  0999 V2000
  160.7720  211.0440  153.3840 C   0  0  0  0  0  0  0  0  0  0  0  0
  158.0990  211.4160  151.4940 O   0  0  0  0  0  0  0  0  0  0  0  0
  161.9220  214.4530  149.1630 C   0  0  0  0  0  2  0  0  0  0  0  0
  157.7100  212.1760  148.5700 O   0  0  0  0  0  0  0  0  0  0  0  0
  159.1480  212.1190  152.1260 C   0  0  1  0  0  0  0  0  0  0  0  0
  158.4630  212.9690  149.1990 C   0  0  0  0  0  0  0  0  0  0  0  0
  159.3690  211.5810  153.5250 C   0  0  2  0  0  3  0  0  0  0  0  0
  161.3400  211.2830  151.9910 C   0  0  2  0  0  3  0  0  0  0  0  0
  160.8640  213.4080  151.0740 C   0  0  0  0  0  2  0  0  0  0  0  0
  161.7400  211.1080  154.5480 C   0  0  0  0  0  2  0  0  0  0  0  0
  161.1100  209.7790  154.1460 C   0  0  0  0  0  2  0  0  0  0  0  0
  160.0780  213.0990  147.3950 C   0  0  0  0  0  2  0  0  0  0  0  0
  159.8200  213.2760  148.6910 C   0  0  0  0  0  0  0  0  0  0  0  0
  160.9050  213.7220  149.6100 C   0  0  0  0  0  0  0  0  0  0  0  0
  157.9480  213.6400  150.4390 C   0  0  0  0  0  2  0  0  0  0  0  0
  160.3370  212.0630  151.2630 N   0  0  2  0  0  0  0  0  0  0  0  0
  157.8690  212.7850  151.7200 C   0  0  1  0  0  3  0  0  0  0  0  0
  161.6940  210.0220  149.8240 N   0  0  0  0  0  2  0  0  0  0  0  0
  162.2430  208.8410  147.9000 O   0  0  0  0  0  0  0  0  0  0  0  0
  161.5930  210.0040  151.2520 C   0  0  0  0  0  0  0  0  0  0  0  0
  161.6490  208.8450  149.0100 C   0  0  0  0  0  0  0  0  0  0  0  0
  161.7530  208.9280  151.8920 O   0  0  0  0  0  0  0  0  0  0  0  0
  161.1690  206.4610  148.9810 C   0  0  0  0  0  0  0  0  0  0  0  0
  160.9570  207.6640  149.4420 N   0  0  0  0  0  0  0  0  0  0  0  0
  160.7030  204.1290  148.8280 O   0  0  0  0  0  1  0  0  0  0  0  0
  160.2860  205.3320  149.4060 C   0  0  1  0  0  3  0  0  0  0  0  0
  160.2900  205.2180  150.9260 C   0  0  0  0  0  2  0  0  0  0  0  0
  161.5870  204.6060  151.4400 C   0  0  1  0  0  3  0  0  0  0  0  0
  162.1420  205.4530  152.4810 N   0  0  0  0  0  1  0  0  0  0  0  0
  161.3590  203.2320  151.9800 C   0  0  0  0  0  0  0  0  0  0  0  0
  160.2100  202.9370  152.7050 O   0  0  0  0  0  1  0  0  0  0  0  0
  162.1990  202.3220  151.7480 O   0  0  0  0  0  0  0  0  0  0  0  0
  162.2560  206.1660  147.9880 C   0  0  0  0  0  2  0  0  0  0  0  0
  160.7820  206.2910  145.9870 C   0  0  0  0  0  1  0  0  0  0  0  0
  162.8600  204.9550  145.9170 C   0  0  0  0  0  1  0  0  0  0  0  0
  161.7090  205.4020  146.7940 C   0  0  0  0  0  3  0  0  0  0  0  0
  159.2980  212.7300  154.5240 C   0  0  0  0  0  2  0  0  0  0  0  0
  158.2720  212.4250  155.6120 C   0  0  2  0  0  3  0  0  0  0  0  0
  160.1160  213.2370  157.1120 C   0  0  0  0  0  1  0  0  0  0  0  0
  158.9320  212.2950  156.9860 C   0  0  2  0  0  3  0  0  0  0  0  0
  159.3370  210.9800  157.2280 O   0  0  0  0  0  1  0  0  0  0  0  0
  157.5020  211.1550  155.2620 C   0  0  0  0  0  2  0  0  0  0  0  0
  156.0900  211.4630  154.8900 C   0  0  0  0  0  0  0  0  0  0  0  0
  155.2770  210.5300  154.6470 O   0  0  0  0  0  0  0  0  0  0  0  0
  155.6530  212.8290  154.8210 C   0  0  0  0  0  0  0  0  0  0  0  0
  155.2900  213.9780  154.7660 C   0  0  0  0  0  3  0  0  0  0  0  0
  1  7  1  0  0  0  0
  1 11  1  0  0  0  0
  1 10  1  0  0  0  0
  2 17  1  0  0  0  0
  3 14  2  0  0  0  0
  4  6  2  0  0  0  0
  5  2  1  6  0  0  0
  5  7  1  0  0  0  0
  6 15  1  0  0  0  0
  7 37  1  1  0  0  0
  8 20  1  6  0  0  0
  8  1  1  0  0  0  0
 11 10  1  0  0  0  0
 12 13  2  0  0  0  0
 13  6  1  0  0  0  0
 13 14  1  0  0  0  0
 14  9  1  0  0  0  0
 16  9  1  1  0  0  0
 16  8  1  0  0  0  0
 16  5  1  0  0  0  0
 17 15  1  6  0  0  0
 17  5  1  0  0  0  0
 18 20  1  0  0  0  0
 19 21  2  0  0  0  0
 20 22  2  0  0  0  0
 21 24  1  0  0  0  0
 21 18  1  0  0  0  0
 23 26  1  0  0  0  0
 23 24  2  0  0  0  0
 26 25  1  6  0  0  0
 26 27  1  0  0  0  0
 27 28  1  0  0  0  0
 28 30  1  0  0  0  0
 28 29  1  1  0  0  0
 30 31  1  0  0  0  0
 32 30  2  0  0  0  0
 33 23  1  0  0  0  0
 34 36  1  0  0  0  0
 35 36  1  0  0  0  0
 36 33  1  0  0  0  0
 38 37  1  6  0  0  0
 38 40  1  0  0  0  0
 40 39  1  6  0  0  0
 40 41  1  0  0  0  0
 42 38  1  0  0  0  0
 43 42  1  0  0  0  0
 44 43  2  0  0  0  0
 45 43  1  0  0  0  0
 46 45  3  0  0  0  0
M  END
>  <MODEL>
3

>  <REMARK>
 VINA RESULT:      -2.3      1.932      3.188
  Name = 
  14 active torsions:
  status: ('A' for Active; 'I' for Inactive)
    1  A    between atoms: C_5  and  C_35
    2  A    between atoms: C_8  and  C_11
    3  A    between atoms: C_8  and  C_35
    4  A    between atoms: C_11  and  C_12
    5  A    between atoms: C_15  and  CA_39
    6  A    between atoms: C_17  and  C_30
    7  A    between atoms: C_17  and  CA_39
    8  A    between atoms: C_20  and  C_27
    9  A    between atoms: C_22  and  C_31
   10  A    between atoms: C_24  and  C_30
   11  A    between atoms: C_24  and  C_34
   12  A    between atoms: C_27  and  C_35
   13  A    between atoms: C_33  and  N_42
   14  A    between atoms: C_34  and  C_38
                            x       y       z     vdW  Elec       q    Type
                         _______ _______ _______ _____ _____    ______ ____

>  <TORSDO>
F 14

$$$$
=
 OpenBabel11072411083D

 46 49  0  0  1  0  0  0  0  0999 V2000
  161.4820  209.0940  152.3740 C   0  0  0  0  0  0  0  0  0  0  0  0
  159.2810  211.2710  151.2450 O   0  0  0  0  0  0  0  0  0  0  0  0
  163.7120  212.0390  148.2360 C   0  0  0  0  0  2  0  0  0  0  0  0
  158.9420  212.6880  148.5700 O   0  0  0  0  0  0  0  0  0  0  0  0
  160.6290  211.1210  151.6390 C   0  0  1  0  0  0  0  0  0  0  0  0
  160.1090  212.7770  149.0410 C   0  0  0  0  0  0  0  0  0  0  0  0
  160.7160  210.2830  152.8980 C   0  0  2  0  0  3  0  0  0  0  0  0
  161.8430  209.2480  150.9020 C   0  0  2  0  0  3  0  0  0  0  0  0
  162.5720  211.4070  150.2780 C   0  0  0  0  0  2  0  0  0  0  0  0
  162.4750  208.3680  153.2580 C   0  0  0  0  0  2  0  0  0  0  0  0
  161.1260  207.7340  152.9400 C   0  0  0  0  0  2  0  0  0  0  0  0
  161.1640  212.3410  146.9020 C   0  0  0  0  0  2  0  0  0  0  0  0
  161.2790  212.3660  148.2300 C   0  0  0  0  0  0  0  0  0  0  0  0
  162.5500  211.9310  148.8750 C   0  0  0  0  0  0  0  0  0  0  0  0
  160.3040  213.3550  150.4140 C   0  0  0  0  0  2  0  0  0  0  0  0
  161.3930  210.5840  150.5030 N   0  0  2  0  0  0  0  0  0  0  0  0
  159.9470  212.4540  151.6130 C   0  0  1  0  0  3  0  0  0  0  0  0
  160.8350  206.9470  150.5850 N   0  0  0  0  0  2  0  0  0  0  0  0
  159.7020  204.9410  150.2880 O   0  0  0  0  0  0  0  0  0  0  0  0
  161.1640  208.2280  150.0390 C   0  0  0  0  0  0  0  0  0  0  0  0
  160.4540  205.8180  149.7900 C   0  0  0  0  0  0  0  0  0  0  0  0
  160.8520  208.5170  148.8500 O   0  0  0  0  0  0  0  0  0  0  0  0
  161.5620  204.6600  147.9610 C   0  0  0  0  0  0  0  0  0  0  0  0
  160.8950  205.6790  148.4310 N   0  0  0  0  0  0  0  0  0  0  0  0
  163.4900  204.6600  146.5600 O   0  0  0  0  0  1  0  0  0  0  0  0
  162.0920  204.6940  146.5630 C   0  0  1  0  0  3  0  0  0  0  0  0
  161.5320  203.5190  145.7710 C   0  0  0  0  0  2  0  0  0  0  0  0
  160.8220  203.9820  144.5050 C   0  0  1  0  0  3  0  0  0  0  0  0
  159.4700  203.4540  144.4890 N   0  0  0  0  0  1  0  0  0  0  0  0
  160.7810  205.4730  144.4240 C   0  0  0  0  0  0  0  0  0  0  0  0
  159.9110  206.2020  145.2260 O   0  0  0  0  0  1  0  0  0  0  0  0
  161.5650  206.0780  143.6460 O   0  0  0  0  0  0  0  0  0  0  0  0
  161.8640  203.4500  148.7960 C   0  0  0  0  0  2  0  0  0  0  0  0
  161.1170  201.2740  147.8480 C   0  0  0  0  0  1  0  0  0  0  0  0
  160.4230  201.9390  150.1250 C   0  0  0  0  0  1  0  0  0  0  0  0
  160.7270  202.4440  148.7300 C   0  0  0  0  0  3  0  0  0  0  0  0
  161.5030  211.0450  153.9570 C   0  0  0  0  0  2  0  0  0  0  0  0
  160.6260  211.3240  155.1750 C   0  0  2  0  0  3  0  0  0  0  0  0
  162.7960  210.6540  156.2470 C   0  0  0  0  0  1  0  0  0  0  0  0
  161.3150  210.9010  156.4730 C   0  0  2  0  0  3  0  0  0  0  0  0
  160.7150  209.7590  157.0130 O   0  0  0  0  0  1  0  0  0  0  0  0
  159.2820  210.6150  155.0220 C   0  0  0  0  0  2  0  0  0  0  0  0
  158.1480  211.5320  155.3380 C   0  0  0  0  0  0  0  0  0  0  0  0
  158.3700  212.7250  155.6810 O   0  0  0  0  0  0  0  0  0  0  0  0
  156.7970  211.0560  155.2370 C   0  0  0  0  0  0  0  0  0  0  0  0
  155.6630  210.6540  155.1490 C   0  0  0  0  0  3  0  0  0  0  0  0
  1  7  1  0  0  0  0
  1 11  1  0  0  0  0
  1 10  1  0  0  0  0
  2 17  1  0  0  0  0
  3 14  2  0  0  0  0
  4  6  2  0  0  0  0
  5  2  1  6  0  0  0
  5  7  1  0  0  0  0
  6 15  1  0  0  0  0
  7 37  1  1  0  0  0
  8 20  1  6  0  0  0
  8  1  1  0  0  0  0
 11 10  1  0  0  0  0
 12 13  2  0  0  0  0
 13 14  1  0  0  0  0
 13  6  1  0  0  0  0
 14  9  1  0  0  0  0
 16  9  1  1  0  0  0
 16  8  1  0  0  0  0
 16  5  1  0  0  0  0
 17 15  1  6  0  0  0
 17  5  1  0  0  0  0
 20 18  1  0  0  0  0
 21 19  2  0  0  0  0
 21 18  1  0  0  0  0
 22 20  2  0  0  0  0
 23 24  2  0  0  0  0
 23 33  1  0  0  0  0
 24 21  1  0  0  0  0
 26 25  1  1  0  0  0
 26 23  1  0  0  0  0
 27 26  1  0  0  0  0
 28 29  1  1  0  0  0
 28 27  1  0  0  0  0
 30 28  1  0  0  0  0
 30 31  1  0  0  0  0
 32 30  2  0  0  0  0
 34 36  1  0  0  0  0
 36 33  1  0  0  0  0
 36 35  1  0  0  0  0
 38 37  1  6  0  0  0
 38 40  1  0  0  0  0
 40 39  1  6  0  0  0
 40 41  1  0  0  0  0
 42 38  1  0  0  0  0
 42 43  1  0  0  0  0
 43 44  2  0  0  0  0
 45 43  1  0  0  0  0
 46 45  3  0  0  0  0
M  END
>  <MODEL>
4

>  <REMARK>
 VINA RESULT:      -2.1      2.192      3.394
  Name = 
  14 active torsions:
  status: ('A' for Active; 'I' for Inactive)
    1  A    between atoms: C_5  and  C_35
    2  A    between atoms: C_8  and  C_11
    3  A    between atoms: C_8  and  C_35
    4  A    between atoms: C_11  and  C_12
    5  A    between atoms: C_15  and  CA_39
    6  A    between atoms: C_17  and  C_30
    7  A    between atoms: C_17  and  CA_39
    8  A    between atoms: C_20  and  C_27
    9  A    between atoms: C_22  and  C_31
   10  A    between atoms: C_24  and  C_30
   11  A    between atoms: C_24  and  C_34
   12  A    between atoms: C_27  and  C_35
   13  A    between atoms: C_33  and  N_42
   14  A    between atoms: C_34  and  C_38
                            x       y       z     vdW  Elec       q    Type
                         _______ _______ _______ _____ _____    ______ ____

>  <TORSDO>
F 14

$$$$
=
 OpenBabel11072411083D

 46 49  0  0  1  0  0  0  0  0999 V2000
  160.7820  211.2590  152.8250 C   0  0  0  0  0  0  0  0  0  0  0  0
  158.3910  211.6300  150.5890 O   0  0  0  0  0  0  0  0  0  0  0  0
  162.5870  214.4530  148.6650 C   0  0  0  0  0  2  0  0  0  0  0  0
  158.4110  212.2780  147.6130 O   0  0  0  0  0  0  0  0  0  0  0  0
  159.3730  212.3290  151.3260 C   0  0  1  0  0  0  0  0  0  0  0  0
  159.1020  213.0740  148.3040 C   0  0  0  0  0  0  0  0  0  0  0  0
  159.3930  211.8430  152.7610 C   0  0  2  0  0  3  0  0  0  0  0  0
  161.5340  211.4230  151.5100 C   0  0  2  0  0  3  0  0  0  0  0  0
  161.2540  213.5210  150.4600 C   0  0  0  0  0  2  0  0  0  0  0  0
  161.5940  211.3430  154.1020 C   0  0  0  0  0  2  0  0  0  0  0  0
  160.9750  210.0180  153.6720 C   0  0  0  0  0  2  0  0  0  0  0  0
  160.9410  213.0820  146.7230 C   0  0  0  0  0  2  0  0  0  0  0  0
  160.5240  213.3200  147.9670 C   0  0  0  0  0  0  0  0  0  0  0  0
  161.4960  213.7720  149.0030 C   0  0  0  0  0  0  0  0  0  0  0  0
  158.4550  213.8120  149.4410 C   0  0  0  0  0  2  0  0  0  0  0  0
  160.6610  212.2010  150.6290 N   0  0  2  0  0  0  0  0  0  0  0  0
  158.1820  213.0140  150.7320 C   0  0  1  0  0  3  0  0  0  0  0  0
  161.5240  209.9170  149.4760 N   0  0  0  0  0  2  0  0  0  0  0  0
  161.7470  208.5600  147.6030 O   0  0  0  0  0  0  0  0  0  0  0  0
  161.8360  210.1080  150.8590 C   0  0  0  0  0  0  0  0  0  0  0  0
  161.5040  208.6360  148.8350 C   0  0  0  0  0  0  0  0  0  0  0  0
  162.3970  209.1920  151.5220 O   0  0  0  0  0  0  0  0  0  0  0  0
  161.5650  206.2320  149.1940 C   0  0  0  0  0  0  0  0  0  0  0  0
  161.2330  207.4360  149.5740 N   0  0  0  0  0  0  0  0  0  0  0  0
  159.8300  205.2710  150.5170 O   0  0  0  0  0  1  0  0  0  0  0  0
  161.1010  205.0460  149.9790 C   0  0  1  0  0  3  0  0  0  0  0  0
  161.0870  203.8110  149.0860 C   0  0  0  0  0  2  0  0  0  0  0  0
  161.4170  202.5470  149.8700 C   0  0  1  0  0  3  0  0  0  0  0  0
  161.1250  202.7610  151.2760 N   0  0  0  0  0  1  0  0  0  0  0  0
  160.6320  201.3800  149.3660 C   0  0  0  0  0  0  0  0  0  0  0  0
  161.0250  200.7040  148.2160 O   0  0  0  0  0  0  0  0  0  0  0  0
  159.6230  200.9830  150.0080 O   0  0  0  0  0  1  0  0  0  0  0  0
  162.3710  205.9790  147.9530 C   0  0  0  0  0  2  0  0  0  0  0  0
  160.5870  206.0780  146.2220 C   0  0  0  0  0  1  0  0  0  0  0  0
  162.5200  204.5670  145.9270 C   0  0  0  0  0  1  0  0  0  0  0  0
  161.5730  205.1770  146.9390 C   0  0  0  0  0  3  0  0  0  0  0  0
  159.2330  213.0340  153.6980 C   0  0  0  0  0  2  0  0  0  0  0  0
  158.3400  212.6650  154.8800 C   0  0  2  0  0  3  0  0  0  0  0  0
  159.0710  211.1750  156.7660 C   0  0  0  0  0  1  0  0  0  0  0  0
  159.1390  212.5760  156.1810 C   0  0  2  0  0  3  0  0  0  0  0  0
  158.6840  213.5080  157.1180 O   0  0  0  0  0  1  0  0  0  0  0  0
  157.6200  211.3490  154.5980 C   0  0  0  0  0  2  0  0  0  0  0  0
  156.1530  211.4720  154.8440 C   0  0  0  0  0  0  0  0  0  0  0  0
  155.3560  210.6060  154.3910 O   0  0  0  0  0  0  0  0  0  0  0  0
  155.6490  212.5750  155.6140 C   0  0  0  0  0  0  0  0  0  0  0  0
  155.2230  213.4990  156.2600 C   0  0  0  0  0  3  0  0  0  0  0  0
  1 11  1  0  0  0  0
  1 10  1  0  0  0  0
  2 17  1  0  0  0  0
  3 14  2  0  0  0  0
  4  6  2  0  0  0  0
  5  2  1  6  0  0  0
  5  7  1  0  0  0  0
  6 15  1  0  0  0  0
  7  1  1  0  0  0  0
  7 37  1  1  0  0  0
  8 20  1  6  0  0  0
  8  1  1  0  0  0  0
 11 10  1  0  0  0  0
 12 13  2  0  0  0  0
 13  6  1  0  0  0  0
 13 14  1  0  0  0  0
 14  9  1  0  0  0  0
 16  9  1  1  0  0  0
 16  5  1  0  0  0  0
 16  8  1  0  0  0  0
 17 15  1  6  0  0  0
 17  5  1  0  0  0  0
 18 20  1  0  0  0  0
 19 21  2  0  0  0  0
 20 22  2  0  0  0  0
 21 18  1  0  0  0  0
 21 24  1  0  0  0  0
 23 24  2  0  0  0  0
 23 26  1  0  0  0  0
 26 25  1  6  0  0  0
 27 28  1  0  0  0  0
 27 26  1  0  0  0  0
 28 29  1  1  0  0  0
 30 28  1  0  0  0  0
 30 32  1  0  0  0  0
 31 30  2  0  0  0  0
 33 23  1  0  0  0  0
 34 36  1  0  0  0  0
 35 36  1  0  0  0  0
 36 33  1  0  0  0  0
 38 37  1  6  0  0  0
 38 40  1  0  0  0  0
 40 39  1  1  0  0  0
 40 41  1  0  0  0  0
 42 43  1  0  0  0  0
 42 38  1  0  0  0  0
 43 45  1  0  0  0  0
 44 43  2  0  0  0  0
 45 46  3  0  0  0  0
M  END
>  <MODEL>
5

>  <REMARK>
 VINA RESULT:      -0.9      2.127      3.028
  Name = 
  14 active torsions:
  status: ('A' for Active; 'I' for Inactive)
    1  A    between atoms: C_5  and  C_35
    2  A    between atoms: C_8  and  C_11
    3  A    between atoms: C_8  and  C_35
    4  A    between atoms: C_11  and  C_12
    5  A    between atoms: C_15  and  CA_39
    6  A    between atoms: C_17  and  C_30
    7  A    between atoms: C_17  and  CA_39
    8  A    between atoms: C_20  and  C_27
    9  A    between atoms: C_22  and  C_31
   10  A    between atoms: C_24  and  C_30
   11  A    between atoms: C_24  and  C_34
   12  A    between atoms: C_27  and  C_35
   13  A    between atoms: C_33  and  N_42
   14  A    between atoms: C_34  and  C_38
                            x       y       z     vdW  Elec       q    Type
                         _______ _______ _______ _____ _____    ______ ____

>  <TORSDO>
F 14

$$$$
=
 OpenBabel11072411083D

 46 49  0  0  1  0  0  0  0  0999 V2000
  160.8660  211.2110  151.9260 C   0  0  0  0  0  0  0  0  0  0  0  0
  158.7330  211.8450  149.4960 O   0  0  0  0  0  0  0  0  0  0  0  0
  163.2700  214.4530  148.1220 C   0  0  0  0  0  2  0  0  0  0  0  0
  159.0840  212.6220  146.5710 O   0  0  0  0  0  0  0  0  0  0  0  0
  159.6820  212.4400  150.3570 C   0  0  1  0  0  0  0  0  0  0  0  0
  159.7550  213.3360  147.3650 C   0  0  0  0  0  0  0  0  0  0  0  0
  159.5290  211.8910  151.7610 C   0  0  2  0  0  3  0  0  0  0  0  0
  161.7510  211.3800  150.6980 C   0  0  2  0  0  3  0  0  0  0  0  0
  161.7110  213.5360  149.7330 C   0  0  0  0  0  2  0  0  0  0  0  0
  161.5520  211.1810  153.2760 C   0  0  0  0  0  2  0  0  0  0  0  0
  160.8950  209.9230  152.7230 C   0  0  0  0  0  2  0  0  0  0  0  0
  161.7360  213.2870  145.9660 C   0  0  0  0  0  2  0  0  0  0  0  0
  161.2160  213.4980  147.1760 C   0  0  0  0  0  0  0  0  0  0  0  0
  162.1100  213.8350  148.3200 C   0  0  0  0  0  0  0  0  0  0  0  0
  159.0490  214.0660  148.4710 C   0  0  0  0  0  2  0  0  0  0  0  0
  161.0200  212.2550  149.7790 N   0  0  2  0  0  0  0  0  0  0  0  0
  158.6000  213.2330  149.6890 C   0  0  1  0  0  3  0  0  0  0  0  0
  161.6040  209.8870  148.6580 N   0  0  0  0  0  2  0  0  0  0  0  0
  161.7000  208.5480  146.7620 O   0  0  0  0  0  0  0  0  0  0  0  0
  162.0290  210.0770  150.0120 C   0  0  0  0  0  0  0  0  0  0  0  0
  161.5620  208.6100  148.0110 C   0  0  0  0  0  0  0  0  0  0  0  0
  162.6680  209.1720  150.6160 O   0  0  0  0  0  0  0  0  0  0  0  0
  160.8520  206.3020  148.2960 C   0  0  0  0  0  0  0  0  0  0  0  0
  161.3860  207.3980  148.7610 N   0  0  0  0  0  0  0  0  0  0  0  0
  161.5860  204.1770  149.0890 O   0  0  0  0  0  1  0  0  0  0  0  0
  160.5900  205.1500  149.2150 C   0  0  1  0  0  3  0  0  0  0  0  0
  160.5130  205.6470  150.6540 C   0  0  0  0  0  2  0  0  0  0  0  0
  161.6850  205.1410  151.4860 C   0  0  1  0  0  3  0  0  0  0  0  0
  162.4750  206.2710  151.9430 N   0  0  0  0  0  1  0  0  0  0  0  0
  161.2100  204.3520  152.6620 C   0  0  0  0  0  0  0  0  0  0  0  0
  160.8430  203.0190  152.5200 O   0  0  0  0  0  0  0  0  0  0  0  0
  161.1730  204.8900  153.8010 O   0  0  0  0  0  1  0  0  0  0  0  0
  160.4400  206.1600  146.8600 C   0  0  0  0  0  2  0  0  0  0  0  0
  160.8200  204.9540  144.7160 C   0  0  0  0  0  1  0  0  0  0  0  0
  162.6950  205.3180  146.2850 C   0  0  0  0  0  1  0  0  0  0  0  0
  161.2100  205.0400  146.1800 C   0  0  0  0  0  3  0  0  0  0  0  0
  159.3560  213.0480  152.7380 C   0  0  0  0  0  2  0  0  0  0  0  0
  158.0430  212.9060  153.5030 C   0  0  2  0  0  3  0  0  0  0  0  0
  156.4140  214.4500  154.6310 C   0  0  0  0  0  1  0  0  0  0  0  0
  157.1640  214.1480  153.3450 C   0  0  2  0  0  3  0  0  0  0  0  0
  156.2620  213.9970  152.2880 O   0  0  0  0  0  1  0  0  0  0  0  0
  158.3260  212.6300  154.9770 C   0  0  0  0  0  2  0  0  0  0  0  0
  158.0100  211.2160  155.3330 C   0  0  0  0  0  0  0  0  0  0  0  0
  156.8510  210.7550  155.1470 O   0  0  0  0  0  0  0  0  0  0  0  0
  159.0370  210.3720  155.8760 C   0  0  0  0  0  0  0  0  0  0  0  0
  159.8990  209.6600  156.3310 C   0  0  0  0  0  3  0  0  0  0  0  0
  1 11  1  0  0  0  0
  1 10  1  0  0  0  0
  2 17  1  0  0  0  0
  3 14  2  0  0  0  0
  4  6  2  0  0  0  0
  5  2  1  6  0  0  0
  5  7  1  0  0  0  0
  6 15  1  0  0  0  0
  7  1  1  0  0  0  0
  7 37  1  1  0  0  0
  8 20  1  6  0  0  0
  8  1  1  0  0  0  0
 11 10  1  0  0  0  0
 12 13  2  0  0  0  0
 13  6  1  0  0  0  0
 13 14  1  0  0  0  0
 14  9  1  0  0  0  0
 16  9  1  1  0  0  0
 16  5  1  0  0  0  0
 16  8  1  0  0  0  0
 17 15  1  6  0  0  0
 17  5  1  0  0  0  0
 18 20  1  0  0  0  0
 19 21  2  0  0  0  0
 20 22  2  0  0  0  0
 21 18  1  0  0  0  0
 21 24  1  0  0  0  0
 23 24  2  0  0  0  0
 23 26  1  0  0  0  0
 26 25  1  1  0  0  0
 26 27  1  0  0  0  0
 27 28  1  0  0  0  0
 28 29  1  1  0  0  0
 28 30  1  0  0  0  0
 30 32  1  0  0  0  0
 31 30  2  0  0  0  0
 33 23  1  0  0  0  0
 34 36  1  0  0  0  0
 36 35  1  0  0  0  0
 36 33  1  0  0  0  0
 38 37  1  6  0  0  0
 38 42  1  0  0  0  0
 40 38  1  0  0  0  0
 40 39  1  1  0  0  0
 41 40  1  0  0  0  0
 42 43  1  0  0  0  0
 43 45  1  0  0  0  0
 44 43  2  0  0  0  0
 45 46  3  0  0  0  0
M  END
>  <MODEL>
6

>  <REMARK>
 VINA RESULT:      -0.9      2.022      4.125
  Name = 
  14 active torsions:
  status: ('A' for Active; 'I' for Inactive)
    1  A    between atoms: C_5  and  C_35
    2  A    between atoms: C_8  and  C_11
    3  A    between atoms: C_8  and  C_35
    4  A    between atoms: C_11  and  C_12
    5  A    between atoms: C_15  and  CA_39
    6  A    between atoms: C_17  and  C_30
    7  A    between atoms: C_17  and  CA_39
    8  A    between atoms: C_20  and  C_27
    9  A    between atoms: C_22  and  C_31
   10  A    between atoms: C_24  and  C_30
   11  A    between atoms: C_24  and  C_34
   12  A    between atoms: C_27  and  C_35
   13  A    between atoms: C_33  and  N_42
   14  A    between atoms: C_34  and  C_38
                            x       y       z     vdW  Elec       q    Type
                         _______ _______ _______ _____ _____    ______ ____

>  <TORSDO>
F 14

$$$$
=
 OpenBabel11072411083D

 46 49  0  0  1  0  0  0  0  0999 V2000
  161.9630  208.9860  150.3240 C   0  0  0  0  0  0  0  0  0  0  0  0
  159.5010  208.9240  152.5120 O   0  0  0  0  0  0  0  0  0  0  0  0
  163.7520  210.9050  155.2100 C   0  0  0  0  0  2  0  0  0  0  0  0
  158.9470  210.4940  155.0630 O   0  0  0  0  0  0  0  0  0  0  0  0
  160.8650  208.6050  152.3300 C   0  0  1  0  0  0  0  0  0  0  0  0
  160.1040  209.9940  155.0230 C   0  0  0  0  0  0  0  0  0  0  0  0
  161.0740  207.9570  150.9760 C   0  0  2  0  0  3  0  0  0  0  0  0
  162.2750  210.1490  151.2570 C   0  0  2  0  0  3  0  0  0  0  0  0
  162.7340  209.5360  153.4910 C   0  0  0  0  0  2  0  0  0  0  0  0
  163.0520  208.5610  149.3590 C   0  0  0  0  0  2  0  0  0  0  0  0
  161.7800  209.2200  148.8380 C   0  0  0  0  0  2  0  0  0  0  0  0
  161.1610  212.0020  155.8770 C   0  0  0  0  0  2  0  0  0  0  0  0
  161.2980  210.8490  155.2230 C   0  0  0  0  0  0  0  0  0  0  0  0
  162.6240  210.4660  154.6610 C   0  0  0  0  0  0  0  0  0  0  0  0
  160.2570  208.5140  154.8240 C   0  0  0  0  0  2  0  0  0  0  0  0
  161.6640  209.8200  152.5460 N   0  0  2  0  0  0  0  0  0  0  0  0
  160.0310  207.9690  153.3990 C   0  0  1  0  0  3  0  0  0  0  0  0
  160.2880  211.6510  150.8010 N   0  0  0  0  0  2  0  0  0  0  0  0
  158.5380  213.1600  150.5620 O   0  0  0  0  0  0  0  0  0  0  0  0
  161.7030  211.4440  150.7640 C   0  0  0  0  0  0  0  0  0  0  0  0
  159.6210  212.7110  150.1060 C   0  0  0  0  0  0  0  0  0  0  0  0
  162.4740  212.3570  150.3560 O   0  0  0  0  0  0  0  0  0  0  0  0
  159.5550  213.3720  147.7670 C   0  0  0  0  0  0  0  0  0  0  0  0
  160.1740  213.2850  148.9120 N   0  0  0  0  0  0  0  0  0  0  0  0
  161.5810  214.2700  146.8890 O   0  0  0  0  0  1  0  0  0  0  0  0
  160.2870  213.8600  146.5560 C   0  0  1  0  0  3  0  0  0  0  0  0
  160.3340  212.7570  145.5050 C   0  0  0  0  0  2  0  0  0  0  0  0
  160.8500  213.2770  144.1690 C   0  0  1  0  0  3  0  0  0  0  0  0
  162.0720  212.5760  143.8180 N   0  0  0  0  0  1  0  0  0  0  0  0
  159.8350  213.0880  143.0890 C   0  0  0  0  0  0  0  0  0  0  0  0
  158.4930  213.3640  143.3210 O   0  0  0  0  0  1  0  0  0  0  0  0
  160.2030  212.7070  141.9460 O   0  0  0  0  0  0  0  0  0  0  0  0
  158.1230  212.9530  147.5990 C   0  0  0  0  0  2  0  0  0  0  0  0
  156.5090  213.7830  145.8970 C   0  0  0  0  0  1  0  0  0  0  0  0
  156.2630  214.4430  148.2660 C   0  0  0  0  0  1  0  0  0  0  0  0
  157.2590  214.1270  147.1700 C   0  0  0  0  0  3  0  0  0  0  0  0
  161.7870  206.6240  151.1610 C   0  0  0  0  0  2  0  0  0  0  0  0
  161.0500  205.5170  150.4100 C   0  0  2  0  0  3  0  0  0  0  0  0
  161.0020  204.6900  152.7820 C   0  0  0  0  0  1  0  0  0  0  0  0
  160.4960  204.4610  151.3680 C   0  0  2  0  0  3  0  0  0  0  0  0
  160.8270  203.1720  150.9430 O   0  0  0  0  0  1  0  0  0  0  0  0
  161.9790  204.8770  149.3820 C   0  0  0  0  0  2  0  0  0  0  0  0
  161.2590  204.5930  148.1060 C   0  0  0  0  0  0  0  0  0  0  0  0
  160.9940  203.4050  147.7740 O   0  0  0  0  0  0  0  0  0  0  0  0
  160.8530  205.6800  147.2590 C   0  0  0  0  0  0  0  0  0  0  0  0
  160.5100  206.5930  146.5510 C   0  0  0  0  0  3  0  0  0  0  0  0
  1  7  1  0  0  0  0
  1  8  1  0  0  0  0
  2 17  1  0  0  0  0
  5  2  1  6  0  0  0
  5 16  1  0  0  0  0
  5 17  1  0  0  0  0
  6  4  2  0  0  0  0
  6 13  1  0  0  0  0
  7 37  1  1  0  0  0
  7  5  1  0  0  0  0
  8 20  1  6  0  0  0
  8 16  1  0  0  0  0
  9 14  1  0  0  0  0
 10  1  1  0  0  0  0
 11 10  1  0  0  0  0
 11  1  1  0  0  0  0
 13 12  2  0  0  0  0
 14  3  2  0  0  0  0
 14 13  1  0  0  0  0
 15  6  1  0  0  0  0
 16  9  1  1  0  0  0
 17 15  1  1  0  0  0
 20 18  1  0  0  0  0
 21 19  2  0  0  0  0
 21 18  1  0  0  0  0
 22 20  2  0  0  0  0
 23 24  2  0  0  0  0
 24 21  1  0  0  0  0
 26 25  1  1  0  0  0
 26 23  1  0  0  0  0
 27 26  1  0  0  0  0
 28 29  1  6  0  0  0
 28 27  1  0  0  0  0
 30 31  1  0  0  0  0
 30 28  1  0  0  0  0
 32 30  2  0  0  0  0
 33 23  1  0  0  0  0
 34 36  1  0  0  0  0
 36 33  1  0  0  0  0
 36 35  1  0  0  0  0
 38 42  1  6  0  0  0
 38 37  1  0  0  0  0
 38 40  1  0  0  0  0
 40 39  1  1  0  0  0
 41 40  1  0  0  0  0
 43 42  1  0  0  0  0
 44 43  2  0  0  0  0
 45 43  1  0  0  0  0
 46 45  3  0  0  0  0
M  END
>  <MODEL>
7

>  <REMARK>
 VINA RESULT:      -0.7      3.070      8.313
  Name = 
  14 active torsions:
  status: ('A' for Active; 'I' for Inactive)
    1  A    between atoms: C_5  and  C_35
    2  A    between atoms: C_8  and  C_11
    3  A    between atoms: C_8  and  C_35
    4  A    between atoms: C_11  and  C_12
    5  A    between atoms: C_15  and  CA_39
    6  A    between atoms: C_17  and  C_30
    7  A    between atoms: C_17  and  CA_39
    8  A    between atoms: C_20  and  C_27
    9  A    between atoms: C_22  and  C_31
   10  A    between atoms: C_24  and  C_30
   11  A    between atoms: C_24  and  C_34
   12  A    between atoms: C_27  and  C_35
   13  A    between atoms: C_33  and  N_42
   14  A    between atoms: C_34  and  C_38
                            x       y       z     vdW  Elec       q    Type
                         _______ _______ _______ _____ _____    ______ ____

>  <TORSDO>
F 14

$$$$
