=
 OpenBabel11072415043D

 64 72  0  0  1  0  0  0  0  0999 V2000
  160.9300  208.8120  154.4380 C   0  0  1  0  0  3  0  0  0  0  0  0
  162.3250  208.8860  152.2270 O   0  0  0  0  0  0  0  0  0  0  0  0
  161.7030  209.0560  150.9740 C   0  0  1  0  0  3  0  0  0  0  0  0
  163.5200  210.8150  152.9210 C   0  0  0  0  0  1  0  0  0  0  0  0
  161.0250  209.6650  156.7630 F   0  0  0  0  0  0  0  0  0  0  0  0
  160.5250  208.7130  155.8930 C   0  0  0  0  0  0  0  0  0  0  0  0
  161.1910  210.9970  152.1750 C   0  0  2  0  0  3  0  0  0  0  0  0
  161.0390  207.7730  150.4850 C   0  0  0  0  0  2  0  0  0  0  0  0
  160.6410  210.1170  151.1040 C   0  0  0  0  0  2  0  0  0  0  0  0
  161.8710  206.5100  150.7290 C   0  0  1  0  0  3  0  0  0  0  0  0
  160.5340  205.6760  154.2470 C   0  0  0  0  0  3  0  0  0  0  0  0
  161.8220  209.9000  154.2870 O   0  0  0  0  0  0  0  0  0  0  0  0
  159.2410  208.2290  156.1110 F   0  0  0  0  0  0  0  0  0  0  0  0
  162.1800  210.1050  152.9290 C   0  0  1  0  0  0  0  0  0  0  0  0
  160.5120  206.1910  152.8480 C   0  0  0  0  0  2  0  0  0  0  0  0
  161.8850  206.0680  152.1990 C   0  0  0  0  0  2  0  0  0  0  0  0
  160.9810  206.3570  155.3110 C   0  0  0  0  0  3  0  0  0  0  0  0
  161.5680  207.7500  155.3490 C   0  0  1  0  0  3  0  0  0  0  0  0
  161.4490  205.3750  149.7970 C   0  0  0  0  0  2  0  0  0  0  0  0
  159.9380  206.2560  145.7580 O   0  0  0  0  0  0  0  0  0  0  0  0
  162.2870  204.0150  147.8040 C   0  0  2  0  0  3  0  0  0  0  0  0
  162.1790  205.4060  148.4510 C   0  0  1  0  0  3  0  0  0  0  0  0
  163.0910  204.0680  146.1410 S   0  0  0  0  0  0  0  0  0  0  0  0
  160.6060  207.3350  147.7360 O   0  0  0  0  0  0  0  0  0  0  0  0
  160.7330  205.2580  145.1470 C   0  0  0  0  0  2  0  0  0  0  0  0
  162.2300  205.5380  145.4270 C   0  0  1  0  0  0  0  0  0  0  0  0
  162.3650  206.6510  146.2880 O   0  0  0  0  0  0  0  0  0  0  0  0
  161.5980  206.3840  147.4390 C   0  0  1  0  0  0  0  0  0  0  0  0
  162.8940  205.8730  144.1090 C   0  0  0  0  0  1  0  0  0  0  0  0
  160.1510  206.1270  147.1450 C   0  0  2  0  0  3  0  0  0  0  0  0
  161.0340  203.3960  147.7050 O   0  0  0  0  0  0  0  0  0  0  0  0
  161.2510  202.0600  148.0580 C   0  0  1  0  0  3  0  0  0  0  0  0
  161.1460  201.6150  150.5130 O   0  0  0  0  0  1  0  0  0  0  0  0
  160.4830  201.7520  149.3030 C   0  0  0  0  0  0  0  0  0  0  0  0
  159.2290  201.6710  149.2650 O   0  0  0  0  0  0  0  0  0  0  0  0
  160.7930  201.1330  146.9260 C   0  0  1  0  0  3  0  0  0  0  0  0
  160.8740  201.7890  145.6660 O   0  0  0  0  0  0  0  0  0  0  0  0
  159.8170  201.7670  144.7570 C   0  0  0  0  0  0  0  0  0  0  0  0
  159.3060  202.8480  144.3700 O   0  0  0  0  0  1  0  0  0  0  0  0
  159.3120  200.5590  144.2840 O   0  0  0  0  0  0  0  0  0  0  0  0
  161.5930  199.8280  146.9040 C   0  0  0  0  0  2  0  0  0  0  0  0
  161.7960  197.7040  145.8770 O   0  0  0  0  0  0  0  0  0  0  0  0
  160.9900  198.8190  145.9380 C   0  0  0  0  0  3  0  0  0  0  0  0
  161.8580  198.6110  144.8930 O   0  0  0  0  0  0  0  0  0  0  0  0
  160.0810  211.6080  153.0180 C   0  0  0  0  0  2  0  0  0  0  0  0
  159.9450  213.0240  152.6800 N   0  0  0  0  0  0  0  0  0  0  0  0
  159.0790  213.0420  151.5050 C   0  0  2  0  0  0  0  0  0  0  0  0
  158.5990  213.6100  152.8280 C   0  0  2  0  0  0  0  0  0  0  0  0
  157.8390  213.6480  151.6710 O   0  0  0  0  0  0  0  0  0  0  0  0
  159.7930  213.9720  150.5400 C   0  0  0  0  0  2  0  0  0  0  0  0
  158.3420  214.3780  148.5770 C   0  0  0  0  0  1  0  0  0  0  0  0
  159.5140  213.5750  149.0990 C   0  0  1  0  0  3  0  0  0  0  0  0
  160.7090  213.8160  148.2350 C   0  0  0  0  0  0  0  0  0  0  0  0
  161.8450  213.9370  148.7700 O   0  0  0  0  0  0  0  0  0  0  0  0
  160.5640  213.8780  146.8470 O   0  0  0  0  0  0  0  0  0  0  0  0
  161.0720  212.8620  145.9960 C   0  0  0  0  0  1  0  0  0  0  0  0
  157.7520  212.7700  153.7960 C   0  0  0  0  0  2  0  0  0  0  0  0
  157.0900  213.6360  154.8620 C   0  0  1  0  0  3  0  0  0  0  0  0
  155.7110  213.6960  154.6510 O   0  0  0  0  0  1  0  0  0  0  0  0
  157.3810  213.1020  156.2560 C   0  0  0  0  0  2  0  0  0  0  0  0
  158.5100  213.8930  156.8980 C   0  0  0  0  0  2  0  0  0  0  0  0
  159.8270  212.0520  156.1510 F   0  0  0  0  0  0  0  0  0  0  0  0
  159.7240  213.0110  157.1430 C   0  0  0  0  0  3  0  0  0  0  0  0
  160.8790  213.7720  157.1880 F   0  0  0  0  0  0  0  0  0  0  0  0
  1 12  1  1  0  0  0
  1 18  1  0  0  0  0
  1  6  1  0  0  0  0
  2 14  1  0  0  0  0
  3  8  1  1  0  0  0
  3  9  1  0  0  0  0
  3  2  1  0  0  0  0
  6 13  1  0  0  0  0
  6  5  1  0  0  0  0
  7 14  1  0  0  0  0
  7 45  1  1  0  0  0
  8 10  1  0  0  0  0
  9  7  1  0  0  0  0
 10 19  1  6  0  0  0
 10 16  1  0  0  0  0
 11 17  2  0  0  0  0
 14  4  1  6  0  0  0
 14 12  1  0  0  0  0
 15 11  1  0  0  0  0
 16 15  1  0  0  0  0
 18 17  1  6  0  0  0
 18  6  1  0  0  0  0
 21 31  1  6  0  0  0
 21 22  1  0  0  0  0
 22 19  1  1  0  0  0
 23 21  1  0  0  0  0
 25 26  1  0  0  0  0
 25 20  1  0  0  0  0
 26 29  1  6  0  0  0
 26 23  1  0  0  0  0
 26 27  1  0  0  0  0
 28 27  1  6  0  0  0
 28 24  1  0  0  0  0
 28 22  1  0  0  0  0
 30 20  1  6  0  0  0
 30 28  1  0  0  0  0
 30 24  1  0  0  0  0
 32 31  1  6  0  0  0
 32 34  1  0  0  0  0
 34 33  1  0  0  0  0
 35 34  2  0  0  0  0
 36 41  1  6  0  0  0
 36 32  1  0  0  0  0
 37 36  1  0  0  0  0
 38 37  1  0  0  0  0
 39 38  1  0  0  0  0
 40 38  2  0  0  0  0
 42 43  1  0  0  0  0
 43 41  1  0  0  0  0
 44 42  1  0  0  0  0
 44 43  1  0  0  0  0
 46 48  1  0  0  0  0
 46 45  1  0  0  0  0
 47 50  1  6  0  0  0
 47 49  1  0  0  0  0
 47 46  1  0  0  0  0
 47 48  1  0  0  0  0
 48 57  1  1  0  0  0
 49 48  1  0  0  0  0
 52 51  1  6  0  0  0
 52 50  1  0  0  0  0
 53 54  2  0  0  0  0
 53 52  1  0  0  0  0
 55 53  1  0  0  0  0
 56 55  1  0  0  0  0
 57 58  1  0  0  0  0
 58 59  1  6  0  0  0
 58 60  1  0  0  0  0
 60 61  1  0  0  0  0
 61 63  1  0  0  0  0
 62 63  1  0  0  0  0
 63 64  1  0  0  0  0
M  END
>  <MODEL>
1

>  <REMARK>
 VINA RESULT:      -2.7      0.000      0.000
  Name = 
  21 active torsions:
  status: ('A' for Active; 'I' for Inactive)
    1  A    between atoms: C_2  and  O_14
    2  A    between atoms: C_5  and  C_44
    3  A    between atoms: C_5  and  C_51
    4  A    between atoms: C_6  and  C_39
    5  A    between atoms: C_6  and  C_51
    6  A    between atoms: C_7  and  O_11
    7  A    between atoms: C_9  and  C_37
    8  A    between atoms: C_9  and  C_54
    9  A    between atoms: C_10  and  C_26
   10  A    between atoms: O_11  and  C_21
   11  A    between atoms: O_14  and  C_38
   12  A    between atoms: O_16  and  C_61
   13  A    between atoms: C_21  and  C_38
   14  A    between atoms: C_21  and  C_47
   15  A    between atoms: C_23  and  C_35
   16  A    between atoms: C_26  and  C_33
   17  A    between atoms: N_32  and  C_35
   18  A    between atoms: C_38  and  C_55
   19  A    between atoms: C_42  and  C_44
   20  A    between atoms: C_52  and  C_55
   21  A    between atoms: C_54  and  C_61
                            x       y       z     vdW  Elec       q    Type
                         _______ _______ _______ _____ _____    ______ ____

>  <TORSDO>
F 21

$$$$
