=
 OpenBabel11072410363D

 54 60  0  0  1  0  0  0  0  0999 V2000
  160.5860  214.4100  146.1170 N   0  0  0  0  0  2  0  0  0  0  0  0
  161.5670  207.8000  150.6040 C   0  0  0  0  0  0  0  0  0  0  0  0
  160.5300  209.6110  151.5700 C   0  0  2  0  0  3  0  0  0  0  0  0
  160.6960  212.0680  151.2290 C   0  0  0  0  0  3  0  0  0  0  0  0
  160.0050  214.4060  150.1980 C   0  0  2  0  0  3  0  0  0  0  0  0
  160.1060  213.7050  148.9230 N   0  0  0  0  0  2  0  0  0  0  0  0
  161.9360  210.0120  149.5290 C   0  0  0  0  0  2  0  0  0  0  0  0
  161.4090  212.1450  146.0670 C   0  0  2  0  0  3  0  0  0  0  0  0
  156.8130  211.9840  148.5140 C   0  0  0  0  0  3  0  0  0  0  0  0
  159.0060  213.0170  148.3150 C   0  0  0  0  0  0  0  0  0  0  0  0
  162.0830  208.0760  152.0110 C   0  0  0  0  0  2  0  0  0  0  0  0
  160.0030  211.0190  151.7240 C   0  0  0  0  0  0  0  0  0  0  0  0
  161.3750  214.4520  150.8590 C   0  0  0  0  0  2  0  0  0  0  0  0
  156.8540  211.6240  147.1670 C   0  0  0  0  0  3  0  0  0  0  0  0
  161.8210  211.9020  147.4410 N   0  0  0  0  0  2  0  0  0  0  0  0
  158.7800  211.1540  152.6090 C   0  0  2  0  0  3  0  0  0  0  0  0
  159.0390  212.6640  146.9440 C   0  0  0  0  0  0  0  0  0  0  0  0
  161.9230  214.4470  145.5330 C   0  0  0  0  0  2  0  0  0  0  0  0
  161.5630  209.3060  152.4660 O   0  0  0  0  0  0  0  0  0  0  0  0
  159.7690  213.9730  152.7380 C   0  0  0  0  0  2  0  0  0  0  0  0
  160.1770  209.8160  147.4860 O   0  0  0  0  0  0  0  0  0  0  0  0
  157.9600  211.9660  146.3880 C   0  0  0  0  0  3  0  0  0  0  0  0
  160.3180  213.5150  151.3980 C   0  0  2  0  0  0  0  0  0  0  0  0
  157.8470  212.3280  152.2760 C   0  0  0  0  0  2  0  0  0  0  0  0
  158.2760  213.6780  152.8680 C   0  0  0  0  0  2  0  0  0  0  0  0
  162.6020  207.4240  149.7630 F   0  0  0  0  0  0  0  0  0  0  0  0
  157.8830  212.6770  149.0810 C   0  0  0  0  0  3  0  0  0  0  0  0
  161.5910  210.2260  147.7980 S   0  0  0  0  0  0  0  0  0  0  0  0
  160.6210  206.7920  150.6490 F   0  0  0  0  0  0  0  0  0  0  0  0
  162.4500  213.0220  145.4140 C   0  0  2  0  0  3  0  0  0  0  0  0
  160.1690  213.0220  146.0140 C   0  0  1  0  0  3  0  0  0  0  0  0
  160.9090  209.0960  150.1940 C   0  0  1  0  0  3  0  0  0  0  0  0
  162.5460  209.3960  146.9910 O   0  0  0  0  0  0  0  0  0  0  0  0
  159.1380  211.0470  154.0580 C   0  0  0  0  0  3  0  0  0  0  0  0
  158.8960  209.9360  154.7460 C   0  0  0  0  0  3  0  0  0  0  0  0
  159.2540  209.8020  156.1320 N   0  0  0  0  0  0  0  0  0  0  0  0
  158.5650  210.5490  157.1790 C   0  0  0  0  0  2  0  0  0  0  0  0
  158.6670  212.0410  156.9130 C   0  0  0  0  0  2  0  0  0  0  0  0
  157.4690  213.9590  156.5080 N   0  0  0  0  0  2  0  0  0  0  0  0
  156.5220  211.9350  155.9880 C   0  0  0  0  0  2  0  0  0  0  0  0
  156.2340  214.2750  155.8080 C   0  0  0  0  0  2  0  0  0  0  0  0
  157.3420  212.6360  156.9650 N   0  0  0  0  0  0  0  0  0  0  0  0
  155.6740  212.9730  155.3050 C   0  0  0  0  0  2  0  0  0  0  0  0
  160.2670  208.8350  156.5430 C   0  0  1  0  0  3  0  0  0  0  0  0
  160.0450  207.5130  155.8780 C   0  0  0  0  0  0  0  0  0  0  0  0
  159.1240  206.7610  156.2960 O   0  0  0  0  0  0  0  0  0  0  0  0
  160.8340  205.8040  154.2920 C   0  0  0  0  0  1  0  0  0  0  0  0
  160.8430  207.1290  154.7980 O   0  0  0  0  0  0  0  0  0  0  0  0
  161.6730  209.3710  156.2910 C   0  0  0  0  0  2  0  0  0  0  0  0
  161.6780  210.8210  156.3740 N   0  0  0  0  0  2  0  0  0  0  0  0
  162.4510  211.2980  155.2410 C   0  0  0  0  0  2  0  0  0  0  0  0
  163.6510  210.4950  155.1030 N   0  0  0  0  0  1  0  0  0  0  0  0
  163.0910  214.1670  143.2290 F   0  0  0  0  0  0  0  0  0  0  0  0
  162.6140  212.5810  143.6600 S   0  0  0  0  0  0  0  0  0  0  0  0
  2 29  1  0  0  0  0
  2 11  1  0  0  0  0
  3 12  1  6  0  0  0
  3 19  1  0  0  0  0
  4 23  1  0  0  0  0
  4 12  2  0  0  0  0
  5 13  1  6  0  0  0
  5 23  1  0  0  0  0
  6  5  1  0  0  0  0
  8 15  1  1  0  0  0
  9 27  1  0  0  0  0
 10  6  1  0  0  0  0
 10 27  2  0  0  0  0
 11 19  1  0  0  0  0
 12 16  1  0  0  0  0
 14  9  2  0  0  0  0
 15 28  1  0  0  0  0
 16 34  1  1  0  0  0
 17 10  1  0  0  0  0
 18  1  1  0  0  0  0
 20 25  1  0  0  0  0
 21 28  2  0  0  0  0
 22 17  2  0  0  0  0
 22 14  1  0  0  0  0
 23 13  1  1  0  0  0
 23 20  1  0  0  0  0
 24 16  1  0  0  0  0
 24 25  1  0  0  0  0
 26  2  1  0  0  0  0
 28  7  1  0  0  0  0
 30 54  1  6  0  0  0
 30 18  1  0  0  0  0
 30  8  1  0  0  0  0
 31  8  1  0  0  0  0
 31  1  1  1  0  0  0
 31 17  1  0  0  0  0
 32  7  1  1  0  0  0
 32  2  1  0  0  0  0
 32  3  1  0  0  0  0
 33 28  2  0  0  0  0
 34 35  2  0  0  0  0
 35 36  1  0  0  0  0
 36 44  1  0  0  0  0
 36 37  1  0  0  0  0
 38 42  1  0  0  0  0
 38 37  1  0  0  0  0
 39 42  1  0  0  0  0
 40 42  1  0  0  0  0
 41 39  1  0  0  0  0
 43 41  1  0  0  0  0
 43 40  1  0  0  0  0
 44 49  1  6  0  0  0
 45 46  2  0  0  0  0
 45 44  1  0  0  0  0
 47 48  1  0  0  0  0
 48 45  1  0  0  0  0
 49 50  1  0  0  0  0
 51 50  1  0  0  0  0
 52 51  1  0  0  0  0
 53 54  1  0  0  0  0
M  END
>  <MODEL>
1

>  <REMARK>
 VINA RESULT:       8.2      0.000      0.000
  Name = 
  12 active torsions:
  status: ('A' for Active; 'I' for Inactive)
    1  A    between atoms: C_8  and  N_51
    2  A    between atoms: C_9  and  N_21
    3  A    between atoms: C_9  and  C_38
    4  A    between atoms: C_18  and  C_23
    5  A    between atoms: C_18  and  O_24
    6  A    between atoms: N_21  and  C_23
    7  A    between atoms: N_21  and  C_42
    8  A    between atoms: C_23  and  C_45
    9  A    between atoms: C_27  and  C_30
   10  A    between atoms: C_38  and  N_48
   11  A    between atoms: C_45  and  N_51
   12  A    between atoms: C_47  and  S_49
                            x       y       z     vdW  Elec       q    Type
                         _______ _______ _______ _____ _____    ______ ____

>  <TORSDO>
F 12

$$$$
