=
 OpenBabel11072412433D

 66 72  0  0  1  0  0  0  0  0999 V2000
  159.7300  202.8180  145.2890 C   0  0  0  0  0  0  0  0  0  0  0  0
  162.1120  203.1450  148.2110 C   0  0  0  0  0  3  0  0  0  0  0  0
  161.7130  204.7120  146.2940 C   0  0  2  0  0  3  0  0  0  0  0  0
  160.8420  201.1010  148.4720 C   0  0  0  0  0  3  0  0  0  0  0  0
  160.0330  204.0640  144.4960 C   0  0  1  0  0  3  0  0  0  0  0  0
  161.8160  201.9860  148.9370 C   0  0  0  0  0  3  0  0  0  0  0  0
  160.4480  202.5320  146.5500 C   0  0  0  0  0  0  0  0  0  0  0  0
  158.8220  202.0390  144.8880 O   0  0  0  0  0  0  0  0  0  0  0  0
  161.4400  204.5920  144.7850 C   0  0  1  0  0  3  0  0  0  0  0  0
  161.4350  203.4230  147.0200 C   0  0  0  0  0  0  0  0  0  0  0  0
  159.9070  203.8010  143.1300 O   0  0  0  0  0  1  0  0  0  0  0  0
  160.1620  201.3700  147.2820 C   0  0  0  0  0  3  0  0  0  0  0  0
  160.3970  206.7090  145.9730 O   0  0  0  0  0  1  0  0  0  0  0  0
  161.0550  205.9470  146.9350 C   0  0  2  0  0  3  0  0  0  0  0  0
  161.9930  206.8170  147.7670 C   0  0  0  0  0  2  0  0  0  0  0  0
  161.3280  207.3300  148.9120 O   0  0  0  0  0  0  0  0  0  0  0  0
  162.5470  206.6010  150.7050 O   0  0  0  0  0  0  0  0  0  0  0  0
  161.9960  207.5680  150.1150 C   0  0  0  0  0  0  0  0  0  0  0  0
  162.0640  208.9580  150.6940 C   0  0  0  0  0  2  0  0  0  0  0  0
  160.2610  212.9480  153.3010 O   0  0  0  0  0  0  0  0  0  0  0  0
  159.5690  211.9020  153.4050 C   0  0  0  0  0  0  0  0  0  0  0  0
  161.6850  209.0250  152.1700 C   0  0  1  0  0  3  0  0  0  0  0  0
  161.5170  210.4820  152.6040 C   0  0  1  0  0  3  0  0  0  0  0  0
  160.3290  208.3550  152.3710 C   0  0  0  0  0  3  0  0  0  0  0  0
  159.3940  209.3900  152.9770 C   0  0  0  0  0  3  0  0  0  0  0  0
  160.1450  210.6300  153.0590 N   0  0  0  0  0  0  0  0  0  0  0  0
  158.1580  212.0270  153.9130 C   0  0  2  0  0  3  0  0  0  0  0  0
  157.1070  213.6860  152.3380 C   0  0  0  0  0  1  0  0  0  0  0  0
  156.5410  213.6460  154.6410 O   0  0  0  0  0  1  0  0  0  0  0  0
  157.6020  213.4470  153.7570 C   0  0  1  0  0  3  0  0  0  0  0  0
  158.0360  211.4780  155.3120 C   0  0  0  0  0  0  0  0  0  0  0  0
  157.1410  210.6340  155.5940 O   0  0  0  0  0  0  0  0  0  0  0  0
  158.9090  211.9500  156.3320 N   0  0  0  0  0  1  0  0  0  0  0  0
  162.4630  210.8740  153.5820 O   0  0  0  0  0  0  0  0  0  0  0  0
  161.8820  210.8040  154.8660 C   0  0  0  0  0  2  0  0  0  0  0  0
  162.8940  210.4340  155.9530 C   0  0  2  0  0  3  0  0  0  0  0  0
  162.3730  209.3740  156.8440 C   0  0  0  0  0  2  0  0  0  0  0  0
  162.3900  210.7300  157.2330 O   0  0  0  0  0  0  0  0  0  0  0  0
  161.6280  205.8350  144.1690 O   0  0  0  0  0  0  0  0  0  0  0  0
  161.7820  205.5830  142.8020 C   0  0  0  0  0  2  0  0  0  0  0  0
  162.1900  206.8400  142.0390 C   0  0  0  0  0  2  0  0  0  0  0  0
  161.4310  206.9730  140.7320 C   0  0  0  0  0  2  0  0  0  0  0  0
  162.2420  207.8360  139.7790 C   0  0  2  0  0  3  0  0  0  0  0  0
  161.1480  209.9270  140.8380 C   0  0  0  0  0  3  0  0  0  0  0  0
  160.6820  212.3770  141.4190 C   0  0  1  0  0  3  0  0  0  0  0  0
  162.3870  214.1410  141.2550 N   0  0  0  0  0  0  0  0  0  0  0  0
  161.0400  213.7670  140.8790 C   0  0  0  0  0  2  0  0  0  0  0  0
  163.3530  212.6170  139.6000 C   0  0  0  0  0  2  0  0  0  0  0  0
  163.0030  210.1770  139.6260 O   0  0  0  0  0  0  0  0  0  0  0  0
  162.1440  209.3010  140.0950 C   0  0  0  0  0  0  0  0  0  0  0  0
  162.6410  211.3690  140.0250 C   0  0  0  0  0  0  0  0  0  0  0  0
  161.4840  211.2690  140.7870 C   0  0  0  0  0  0  0  0  0  0  0  0
  163.4350  213.6300  140.7050 C   0  0  0  0  0  3  0  0  0  0  0  0
  160.8110  212.3480  142.8130 O   0  0  0  0  0  0  0  0  0  0  0  0
  159.1220  213.0070  144.3510 C   0  0  0  0  0  2  0  0  0  0  0  0
  160.0840  213.4520  143.2660 C   0  0  0  0  0  3  0  0  0  0  0  0
  158.6160  213.2480  142.9490 C   0  0  0  0  0  2  0  0  0  0  0  0
  161.8450  207.5690  138.4010 N   0  0  0  0  0  2  0  0  0  0  0  0
  161.3900  208.8180  137.8030 C   0  0  0  0  0  2  0  0  0  0  0  0
  159.9040  208.7450  137.4650 C   0  0  0  0  0  2  0  0  0  0  0  0
  159.3260  210.0910  137.0260 C   0  0  2  0  0  3  0  0  0  0  0  0
  160.3840  211.1800  137.0180 C   0  0  0  0  0  1  0  0  0  0  0  0
  158.0870  212.1880  138.5340 O   0  0  0  0  0  1  0  0  0  0  0  0
  157.8860  210.5880  138.0220 P   0  0  0  0  0  0  0  0  0  0  0  0
  157.7480  209.6930  139.2320 O   0  0  0  0  0  1  0  0  0  0  0  0
  156.4890  210.4800  137.0770 O   0  0  0  0  0  0  0  0  0  0  0  0
  1  7  1  0  0  0  0
  2  6  1  0  0  0  0
  3 14  1  1  0  0  0
  3 10  1  0  0  0  0
  4  6  2  0  0  0  0
  5 11  1  6  0  0  0
  5  9  1  0  0  0  0
  5  1  1  0  0  0  0
  7 10  1  0  0  0  0
  7 12  2  0  0  0  0
  8  1  2  0  0  0  0
  9 39  1  6  0  0  0
  9  3  1  0  0  0  0
 10  2  2  0  0  0  0
 12  4  1  0  0  0  0
 14 13  1  6  0  0  0
 14 15  1  0  0  0  0
 15 16  1  0  0  0  0
 16 18  1  0  0  0  0
 18 19  1  0  0  0  0
 18 17  2  0  0  0  0
 20 21  2  0  0  0  0
 22 19  1  6  0  0  0
 22 24  1  0  0  0  0
 22 23  1  0  0  0  0
 23 26  1  0  0  0  0
 23 34  1  1  0  0  0
 24 25  2  0  0  0  0
 25 26  1  0  0  0  0
 26 21  1  0  0  0  0
 27 21  1  1  0  0  0
 27 31  1  0  0  0  0
 30 28  1  6  0  0  0
 30 27  1  0  0  0  0
 30 29  1  0  0  0  0
 31 32  2  0  0  0  0
 31 33  1  0  0  0  0
 34 35  1  0  0  0  0
 36 35  1  6  0  0  0
 36 37  1  0  0  0  0
 36 38  1  0  0  0  0
 37 38  1  0  0  0  0
 40 39  1  0  0  0  0
 41 40  1  0  0  0  0
 42 41  1  0  0  0  0
 43 50  1  0  0  0  0
 43 42  1  1  0  0  0
 45 54  1  1  0  0  0
 47 46  1  0  0  0  0
 47 45  1  0  0  0  0
 48 51  1  0  0  0  0
 48 53  1  0  0  0  0
 49 51  1  0  0  0  0
 49 50  1  0  0  0  0
 50 44  2  0  0  0  0
 51 52  2  0  0  0  0
 52 44  1  0  0  0  0
 52 45  1  0  0  0  0
 53 46  2  0  0  0  0
 54 56  1  0  0  0  0
 56 55  1  0  0  0  0
 57 56  1  0  0  0  0
 57 55  1  0  0  0  0
 58 43  1  0  0  0  0
 59 58  1  0  0  0  0
 60 59  1  0  0  0  0
 61 62  1  1  0  0  0
 61 60  1  0  0  0  0
 61 64  1  0  0  0  0
 64 63  1  0  0  0  0
 64 65  1  0  0  0  0
 66 64  2  0  0  0  0
M  END
>  <MODEL>
1

>  <REMARK>
 VINA RESULT:      -1.8      0.000      0.000
  Name = 
  25 active torsions:
  status: ('A' for Active; 'I' for Inactive)
    1  A    between atoms: C_1  and  O_33
    2  A    between atoms: C_1  and  C_61
    3  A    between atoms: C_4  and  C_32
    4  A    between atoms: C_5  and  C_40
    5  A    between atoms: C_7  and  C_35
    6  A    between atoms: O_9  and  C_21
    7  A    between atoms: O_9  and  C_59
    8  A    between atoms: C_13  and  C_40
    9  A    between atoms: C_14  and  O_29
   10  A    between atoms: C_20  and  C_39
   11  A    between atoms: C_21  and  C_32
   12  A    between atoms: C_22  and  N_45
   13  A    between atoms: C_22  and  C_53
   14  A    between atoms: C_22  and  C_64
   15  A    between atoms: C_23  and  O_38
   16  A    between atoms: C_28  and  O_33
   17  A    between atoms: O_29  and  C_54
   18  A    between atoms: C_34  and  C_60
   19  A    between atoms: C_34  and  C_63
   20  A    between atoms: C_35  and  O_38
   21  A    between atoms: C_39  and  C_59
   22  A    between atoms: C_40  and  C_48
   23  A    between atoms: P_42  and  C_60
   24  A    between atoms: N_45  and  C_63
   25  A    between atoms: C_61  and  C_64
                            x       y       z     vdW  Elec       q    Type
                         _______ _______ _______ _____ _____    ______ ____

>  <TORSDO>
F 25

$$$$
=
 OpenBabel11072412433D

 66 72  0  0  1  0  0  0  0  0999 V2000
  161.7200  203.3330  147.2460 C   0  0  0  0  0  0  0  0  0  0  0  0
  159.6280  203.1280  144.1000 C   0  0  0  0  0  3  0  0  0  0  0  0
  160.8150  205.0970  145.1020 C   0  0  2  0  0  3  0  0  0  0  0  0
  159.7690  200.9200  145.0810 C   0  0  0  0  0  3  0  0  0  0  0  0
  162.0810  204.7960  147.2890 C   0  0  1  0  0  3  0  0  0  0  0  0
  159.3050  201.7670  144.0730 C   0  0  0  0  0  3  0  0  0  0  0  0
  160.8880  202.7920  146.1490 C   0  0  0  0  0  0  0  0  0  0  0  0
  162.1720  202.5610  148.1360 O   0  0  0  0  0  0  0  0  0  0  0  0
  161.0760  205.6510  146.5130 C   0  0  1  0  0  3  0  0  0  0  0  0
  160.4160  203.6460  145.1320 C   0  0  0  0  0  0  0  0  0  0  0  0
  162.1380  205.2340  148.6140 O   0  0  0  0  0  1  0  0  0  0  0  0
  160.5550  201.4300  146.1160 C   0  0  0  0  0  3  0  0  0  0  0  0
  163.0510  205.9410  144.7670 O   0  0  0  0  0  1  0  0  0  0  0  0
  161.9440  205.4150  144.1050 C   0  0  2  0  0  3  0  0  0  0  0  0
  161.5380  206.3080  142.9360 C   0  0  0  0  0  2  0  0  0  0  0  0
  162.3410  206.0460  141.7940 O   0  0  0  0  0  0  0  0  0  0  0  0
  162.7910  206.3670  139.5740 O   0  0  0  0  0  0  0  0  0  0  0  0
  162.2260  206.7910  140.6180 C   0  0  0  0  0  0  0  0  0  0  0  0
  161.4340  208.0720  140.5940 C   0  0  0  0  0  2  0  0  0  0  0  0
  159.5670  212.6990  139.5580 O   0  0  0  0  0  0  0  0  0  0  0  0
  160.7960  212.6820  139.8290 C   0  0  0  0  0  0  0  0  0  0  0  0
  161.9520  209.0930  139.5850 C   0  0  1  0  0  3  0  0  0  0  0  0
  160.9080  210.1880  139.3610 C   0  0  1  0  0  3  0  0  0  0  0  0
  163.1860  209.7830  140.1580 C   0  0  0  0  0  3  0  0  0  0  0  0
  162.8930  211.2750  140.2090 C   0  0  0  0  0  3  0  0  0  0  0  0
  161.5230  211.4430  139.7560 N   0  0  0  0  0  0  0  0  0  0  0  0
  161.4630  213.9790  140.2010 C   0  0  2  0  0  3  0  0  0  0  0  0
  163.8630  213.9480  139.4400 C   0  0  0  0  0  1  0  0  0  0  0  0
  162.0770  213.9820  137.8790 O   0  0  0  0  0  1  0  0  0  0  0  0
  162.4600  214.4520  139.1360 C   0  0  1  0  0  3  0  0  0  0  0  0
  162.0460  213.9090  141.5890 C   0  0  0  0  0  0  0  0  0  0  0  0
  163.1940  214.3750  141.8280 O   0  0  0  0  0  0  0  0  0  0  0  0
  161.3130  213.2720  142.6300 N   0  0  0  0  0  1  0  0  0  0  0  0
  160.4180  210.2130  138.0340 O   0  0  0  0  0  0  0  0  0  0  0  0
  159.2280  209.4580  137.9480 C   0  0  0  0  0  2  0  0  0  0  0  0
  158.1840  209.8820  138.9840 C   0  0  2  0  0  3  0  0  0  0  0  0
  156.8410  209.3600  138.6470 C   0  0  0  0  0  2  0  0  0  0  0  0
  157.2000  210.7020  138.4020 O   0  0  0  0  0  0  0  0  0  0  0  0
  161.5280  206.9740  146.4270 O   0  0  0  0  0  0  0  0  0  0  0  0
  162.7270  207.0320  147.1450 C   0  0  0  0  0  2  0  0  0  0  0  0
  162.8560  208.3390  147.9200 C   0  0  0  0  0  2  0  0  0  0  0  0
  161.4990  208.9100  148.2870 C   0  0  0  0  0  2  0  0  0  0  0  0
  161.6720  209.8930  149.4340 C   0  0  2  0  0  3  0  0  0  0  0  0
  161.1690  207.9240  151.0340 C   0  0  0  0  0  3  0  0  0  0  0  0
  160.7230  206.6190  153.1910 C   0  0  1  0  0  3  0  0  0  0  0  0
  161.4720  207.3880  155.4030 N   0  0  0  0  0  0  0  0  0  0  0  0
  160.3340  206.9130  154.6450 C   0  0  0  0  0  2  0  0  0  0  0  0
  161.3680  209.5850  154.3260 C   0  0  0  0  0  2  0  0  0  0  0  0
  161.6350  209.9260  151.8990 O   0  0  0  0  0  0  0  0  0  0  0  0
  161.5140  209.2480  150.7810 C   0  0  0  0  0  0  0  0  0  0  0  0
  161.3980  209.1200  152.9020 C   0  0  0  0  0  0  0  0  0  0  0  0
  161.1010  207.8530  152.4150 C   0  0  0  0  0  0  0  0  0  0  0  0
  161.9580  208.5740  155.2670 C   0  0  0  0  0  3  0  0  0  0  0  0
  161.7530  205.6710  153.1450 O   0  0  0  0  0  0  0  0  0  0  0  0
  161.8910  203.5610  152.0580 C   0  0  0  0  0  2  0  0  0  0  0  0
  161.1050  204.4400  153.0130 C   0  0  0  0  0  3  0  0  0  0  0  0
  160.6460  204.2680  151.5780 C   0  0  0  0  0  2  0  0  0  0  0  0
  160.7510  211.0130  149.2750 N   0  0  0  0  0  2  0  0  0  0  0  0
  161.4830  212.2490  149.5250 C   0  0  0  0  0  2  0  0  0  0  0  0
  160.5220  213.4190  149.7020 C   0  0  0  0  0  2  0  0  0  0  0  0
  159.9350  213.5000  151.1110 C   0  0  2  0  0  3  0  0  0  0  0  0
  160.6510  212.5670  152.0710 C   0  0  0  0  0  1  0  0  0  0  0  0
  157.6110  212.8480  149.5690 O   0  0  0  0  0  0  0  0  0  0  0  0
  158.1380  213.2090  151.1350 P   0  0  0  0  0  0  0  0  0  0  0  0
  157.4110  214.4370  151.6320 O   0  0  0  0  0  1  0  0  0  0  0  0
  157.7980  211.9010  152.1500 O   0  0  0  0  0  1  0  0  0  0  0  0
  1  5  1  0  0  0  0
  1  8  2  0  0  0  0
  2 10  1  0  0  0  0
  3 14  1  6  0  0  0
  3 10  1  0  0  0  0
  3  9  1  0  0  0  0
  4 12  2  0  0  0  0
  5 11  1  1  0  0  0
  6  2  2  0  0  0  0
  6  4  1  0  0  0  0
  7  1  1  0  0  0  0
  9 39  1  6  0  0  0
  9  5  1  0  0  0  0
 10  7  2  0  0  0  0
 12  7  1  0  0  0  0
 14 13  1  1  0  0  0
 15 14  1  0  0  0  0
 16 15  1  0  0  0  0
 17 18  2  0  0  0  0
 18 16  1  0  0  0  0
 19 18  1  0  0  0  0
 20 21  2  0  0  0  0
 22 24  1  0  0  0  0
 22 19  1  1  0  0  0
 23 34  1  6  0  0  0
 23 22  1  0  0  0  0
 23 26  1  0  0  0  0
 24 25  2  0  0  0  0
 26 21  1  0  0  0  0
 26 25  1  0  0  0  0
 27 21  1  6  0  0  0
 27 31  1  0  0  0  0
 29 30  1  0  0  0  0
 30 28  1  1  0  0  0
 30 27  1  0  0  0  0
 31 32  2  0  0  0  0
 31 33  1  0  0  0  0
 35 34  1  0  0  0  0
 36 35  1  6  0  0  0
 37 36  1  0  0  0  0
 38 37  1  0  0  0  0
 38 36  1  0  0  0  0
 39 40  1  0  0  0  0
 40 41  1  0  0  0  0
 41 42  1  0  0  0  0
 43 42  1  6  0  0  0
 43 50  1  0  0  0  0
 44 52  1  0  0  0  0
 45 54  1  1  0  0  0
 45 47  1  0  0  0  0
 47 46  1  0  0  0  0
 48 53  1  0  0  0  0
 49 51  1  0  0  0  0
 50 44  2  0  0  0  0
 50 49  1  0  0  0  0
 51 48  1  0  0  0  0
 52 51  2  0  0  0  0
 52 45  1  0  0  0  0
 53 46  2  0  0  0  0
 55 56  1  0  0  0  0
 56 54  1  0  0  0  0
 57 55  1  0  0  0  0
 57 56  1  0  0  0  0
 58 43  1  0  0  0  0
 58 59  1  0  0  0  0
 59 60  1  0  0  0  0
 60 61  1  0  0  0  0
 61 64  1  0  0  0  0
 61 62  1  1  0  0  0
 63 64  2  0  0  0  0
 64 65  1  0  0  0  0
 64 66  1  0  0  0  0
M  END
>  <MODEL>
2

>  <REMARK>
 VINA RESULT:      -1.1      2.866     11.867
  Name = 
  25 active torsions:
  status: ('A' for Active; 'I' for Inactive)
    1  A    between atoms: C_1  and  O_33
    2  A    between atoms: C_1  and  C_61
    3  A    between atoms: C_4  and  C_32
    4  A    between atoms: C_5  and  C_40
    5  A    between atoms: C_7  and  C_35
    6  A    between atoms: O_9  and  C_21
    7  A    between atoms: O_9  and  C_59
    8  A    between atoms: C_13  and  C_40
    9  A    between atoms: C_14  and  O_29
   10  A    between atoms: C_20  and  C_39
   11  A    between atoms: C_21  and  C_32
   12  A    between atoms: C_22  and  N_45
   13  A    between atoms: C_22  and  C_53
   14  A    between atoms: C_22  and  C_64
   15  A    between atoms: C_23  and  O_38
   16  A    between atoms: C_28  and  O_33
   17  A    between atoms: O_29  and  C_54
   18  A    between atoms: C_34  and  C_60
   19  A    between atoms: C_34  and  C_63
   20  A    between atoms: C_35  and  O_38
   21  A    between atoms: C_39  and  C_59
   22  A    between atoms: C_40  and  C_48
   23  A    between atoms: P_42  and  C_60
   24  A    between atoms: N_45  and  C_63
   25  A    between atoms: C_61  and  C_64
                            x       y       z     vdW  Elec       q    Type
                         _______ _______ _______ _____ _____    ______ ____

>  <TORSDO>
F 25

$$$$
=
 OpenBabel11072412433D

 66 72  0  0  1  0  0  0  0  0999 V2000
  159.0010  212.3970  144.8840 C   0  0  0  0  0  0  0  0  0  0  0  0
  162.6640  213.3290  144.7180 C   0  0  0  0  0  3  0  0  0  0  0  0
  161.0070  213.6910  146.5650 C   0  0  2  0  0  3  0  0  0  0  0  0
  162.0690  212.1620  142.6820 C   0  0  0  0  0  3  0  0  0  0  0  0
  158.5980  212.9430  146.2300 C   0  0  1  0  0  3  0  0  0  0  0  0
  163.0230  212.8120  143.4680 C   0  0  0  0  0  3  0  0  0  0  0  0
  160.3900  212.5370  144.3960 C   0  0  0  0  0  0  0  0  0  0  0  0
  158.1480  211.7750  144.1920 O   0  0  0  0  0  0  0  0  0  0  0  0
  159.5220  214.0760  146.6810 C   0  0  1  0  0  3  0  0  0  0  0  0
  161.3540  213.1960  145.1870 C   0  0  0  0  0  0  0  0  0  0  0  0
  157.2820  213.4090  146.1800 O   0  0  0  0  0  1  0  0  0  0  0  0
  160.7580  212.0270  143.1420 C   0  0  0  0  0  3  0  0  0  0  0  0
  162.5210  213.3670  148.4160 O   0  0  0  0  0  1  0  0  0  0  0  0
  161.4870  212.7690  147.7010 C   0  0  2  0  0  3  0  0  0  0  0  0
  161.8750  211.3590  147.2650 C   0  0  0  0  0  2  0  0  0  0  0  0
  162.3450  210.5980  148.3690 O   0  0  0  0  0  0  0  0  0  0  0  0
  162.2720  208.5430  147.3660 O   0  0  0  0  0  0  0  0  0  0  0  0
  162.1970  209.2110  148.4320 C   0  0  0  0  0  0  0  0  0  0  0  0
  161.9610  208.5230  149.7510 C   0  0  0  0  0  2  0  0  0  0  0  0
  162.2100  203.8900  147.6430 O   0  0  0  0  0  0  0  0  0  0  0  0
  161.8260  203.8970  148.8420 C   0  0  0  0  0  0  0  0  0  0  0  0
  160.8750  207.4530  149.6980 C   0  0  1  0  0  3  0  0  0  0  0  0
  161.2550  206.3670  148.6900 C   0  0  1  0  0  3  0  0  0  0  0  0
  160.7800  206.7660  151.0570 C   0  0  0  0  0  3  0  0  0  0  0  0
  161.0380  205.2820  150.8380 C   0  0  0  0  0  3  0  0  0  0  0  0
  161.3430  205.1190  149.4270 N   0  0  0  0  0  0  0  0  0  0  0  0
  161.8700  202.6050  149.6130 C   0  0  2  0  0  3  0  0  0  0  0  0
  159.9470  202.0340  148.0920 C   0  0  0  0  0  1  0  0  0  0  0  0
  161.9530  200.7690  148.0680 O   0  0  0  0  0  1  0  0  0  0  0  0
  161.1000  201.4790  148.9150 C   0  0  1  0  0  3  0  0  0  0  0  0
  161.4640  202.8190  151.0490 C   0  0  0  0  0  0  0  0  0  0  0  0
  162.2900  203.2700  151.8900 O   0  0  0  0  0  0  0  0  0  0  0  0
  160.1510  202.4660  151.4700 N   0  0  0  0  0  1  0  0  0  0  0  0
  160.3560  206.2960  147.5990 O   0  0  0  0  0  0  0  0  0  0  0  0
  161.0610  205.9860  146.4160 C   0  0  0  0  0  2  0  0  0  0  0  0
  160.1930  205.2620  145.3830 C   0  0  2  0  0  3  0  0  0  0  0  0
  160.9800  204.2840  144.6010 C   0  0  0  0  0  2  0  0  0  0  0  0
  160.6260  205.5430  144.0750 O   0  0  0  0  0  0  0  0  0  0  0  0
  159.2300  214.4450  148.0000 O   0  0  0  0  0  0  0  0  0  0  0  0
  159.3750  213.2920  148.7780 C   0  0  0  0  0  2  0  0  0  0  0  0
  159.2180  213.5910  150.2650 C   0  0  0  0  0  2  0  0  0  0  0  0
  160.2640  212.8700  151.0950 C   0  0  0  0  0  2  0  0  0  0  0  0
  159.6090  211.6900  151.7940 C   0  0  2  0  0  3  0  0  0  0  0  0
  157.3500  211.9540  153.0270 C   0  0  0  0  0  3  0  0  0  0  0  0
  155.6230  212.6670  154.7770 C   0  0  1  0  0  3  0  0  0  0  0  0
  156.2220  213.2670  157.0840 N   0  0  0  0  0  0  0  0  0  0  0  0
  155.4990  213.6960  155.9060 C   0  0  0  0  0  2  0  0  0  0  0  0
  158.3760  213.8050  156.0520 C   0  0  0  0  0  2  0  0  0  0  0  0
  159.2020  212.7370  153.9900 O   0  0  0  0  0  0  0  0  0  0  0  0
  158.7310  212.1060  152.9390 C   0  0  0  0  0  0  0  0  0  0  0  0
  158.2060  213.0120  154.7920 C   0  0  0  0  0  0  0  0  0  0  0  0
  157.0230  212.5430  154.2360 C   0  0  0  0  0  0  0  0  0  0  0  0
  157.5080  213.2950  157.1660 C   0  0  0  0  0  3  0  0  0  0  0  0
  155.1440  211.4210  155.1990 O   0  0  0  0  0  0  0  0  0  0  0  0
  155.4230  210.2490  157.2500 C   0  0  0  0  0  2  0  0  0  0  0  0
  154.9920  211.5420  156.5830 C   0  0  0  0  0  3  0  0  0  0  0  0
  153.9540  210.5460  157.0620 C   0  0  0  0  0  2  0  0  0  0  0  0
  160.6260  210.7400  152.2310 N   0  0  0  0  0  2  0  0  0  0  0  0
  160.2560  210.2450  153.5520 C   0  0  0  0  0  2  0  0  0  0  0  0
  160.6200  208.7710  153.6970 C   0  0  0  0  0  2  0  0  0  0  0  0
  161.0860  208.4090  155.1080 C   0  0  2  0  0  3  0  0  0  0  0  0
  160.0930  207.4980  155.8090 C   0  0  0  0  0  1  0  0  0  0  0  0
  162.1810  211.0550  155.1490 O   0  0  0  0  0  0  0  0  0  0  0  0
  161.4510  209.8770  156.1190 P   0  0  0  0  0  0  0  0  0  0  0  0
  162.3860  209.5180  157.2510 O   0  0  0  0  0  1  0  0  0  0  0  0
  160.0100  210.4940  156.7500 O   0  0  0  0  0  1  0  0  0  0  0  0
  1  5  1  0  0  0  0
  2 10  1  0  0  0  0
  3  9  1  0  0  0  0
  3 14  1  1  0  0  0
  4 12  2  0  0  0  0
  4  6  1  0  0  0  0
  5 11  1  6  0  0  0
  5  9  1  0  0  0  0
  6  2  2  0  0  0  0
  7  1  1  0  0  0  0
  7 10  2  0  0  0  0
  8  1  2  0  0  0  0
  9 39  1  1  0  0  0
 10  3  1  0  0  0  0
 12  7  1  0  0  0  0
 14 13  1  6  0  0  0
 15 14  1  0  0  0  0
 15 16  1  0  0  0  0
 16 18  1  0  0  0  0
 17 18  2  0  0  0  0
 18 19  1  0  0  0  0
 20 21  2  0  0  0  0
 21 26  1  0  0  0  0
 22 19  1  1  0  0  0
 22 24  1  0  0  0  0
 23 34  1  6  0  0  0
 23 26  1  0  0  0  0
 23 22  1  0  0  0  0
 25 24  2  0  0  0  0
 26 25  1  0  0  0  0
 27 21  1  6  0  0  0
 27 31  1  0  0  0  0
 29 30  1  0  0  0  0
 30 28  1  6  0  0  0
 30 27  1  0  0  0  0
 31 33  1  0  0  0  0
 31 32  2  0  0  0  0
 35 34  1  0  0  0  0
 36 35  1  1  0  0  0
 37 36  1  0  0  0  0
 38 37  1  0  0  0  0
 38 36  1  0  0  0  0
 39 40  1  0  0  0  0
 40 41  1  0  0  0  0
 41 42  1  0  0  0  0
 43 42  1  1  0  0  0
 43 58  1  0  0  0  0
 43 50  1  0  0  0  0
 44 52  1  0  0  0  0
 45 54  1  1  0  0  0
 45 47  1  0  0  0  0
 46 53  2  0  0  0  0
 47 46  1  0  0  0  0
 48 53  1  0  0  0  0
 49 51  1  0  0  0  0
 50 44  2  0  0  0  0
 50 49  1  0  0  0  0
 51 48  1  0  0  0  0
 52 45  1  0  0  0  0
 52 51  2  0  0  0  0
 54 56  1  0  0  0  0
 56 57  1  0  0  0  0
 56 55  1  0  0  0  0
 57 55  1  0  0  0  0
 58 59  1  0  0  0  0
 59 60  1  0  0  0  0
 60 61  1  0  0  0  0
 61 62  1  1  0  0  0
 61 64  1  0  0  0  0
 63 64  2  0  0  0  0
 64 66  1  0  0  0  0
 64 65  1  0  0  0  0
M  END
>  <MODEL>
3

>  <REMARK>
 VINA RESULT:      -0.3      4.275     12.372
  Name = 
  25 active torsions:
  status: ('A' for Active; 'I' for Inactive)
    1  A    between atoms: C_1  and  O_33
    2  A    between atoms: C_1  and  C_61
    3  A    between atoms: C_4  and  C_32
    4  A    between atoms: C_5  and  C_40
    5  A    between atoms: C_7  and  C_35
    6  A    between atoms: O_9  and  C_21
    7  A    between atoms: O_9  and  C_59
    8  A    between atoms: C_13  and  C_40
    9  A    between atoms: C_14  and  O_29
   10  A    between atoms: C_20  and  C_39
   11  A    between atoms: C_21  and  C_32
   12  A    between atoms: C_22  and  N_45
   13  A    between atoms: C_22  and  C_53
   14  A    between atoms: C_22  and  C_64
   15  A    between atoms: C_23  and  O_38
   16  A    between atoms: C_28  and  O_33
   17  A    between atoms: O_29  and  C_54
   18  A    between atoms: C_34  and  C_60
   19  A    between atoms: C_34  and  C_63
   20  A    between atoms: C_35  and  O_38
   21  A    between atoms: C_39  and  C_59
   22  A    between atoms: C_40  and  C_48
   23  A    between atoms: P_42  and  C_60
   24  A    between atoms: N_45  and  C_63
   25  A    between atoms: C_61  and  C_64
                            x       y       z     vdW  Elec       q    Type
                         _______ _______ _______ _____ _____    ______ ____

>  <TORSDO>
F 25

$$$$
=
 OpenBabel11072412433D

 66 72  0  0  1  0  0  0  0  0999 V2000
  161.4660  202.8050  147.3020 C   0  0  0  0  0  0  0  0  0  0  0  0
  159.5290  202.9750  144.0550 C   0  0  0  0  0  3  0  0  0  0  0  0
  160.5400  204.8280  145.4110 C   0  0  2  0  0  3  0  0  0  0  0  0
  159.7750  200.6520  144.6900 C   0  0  0  0  0  3  0  0  0  0  0  0
  161.7280  204.2610  147.5890 C   0  0  1  0  0  3  0  0  0  0  0  0
  159.3000  201.6190  143.8010 C   0  0  0  0  0  3  0  0  0  0  0  0
  160.7200  202.3950  146.0920 C   0  0  0  0  0  0  0  0  0  0  0  0
  161.9300  201.9300  148.0840 O   0  0  0  0  0  0  0  0  0  0  0  0
  160.7030  205.1670  146.9030 C   0  0  1  0  0  3  0  0  0  0  0  0
  160.2370  203.3700  145.1950 C   0  0  0  0  0  0  0  0  0  0  0  0
  161.6980  204.4880  148.9670 O   0  0  0  0  0  1  0  0  0  0  0  0
  160.4800  201.0380  145.8320 C   0  0  0  0  0  3  0  0  0  0  0  0
  162.5110  206.2140  145.2720 O   0  0  0  0  0  1  0  0  0  0  0  0
  161.6870  205.3650  144.5360 C   0  0  2  0  0  3  0  0  0  0  0  0
  161.2480  206.0310  143.2360 C   0  0  0  0  0  2  0  0  0  0  0  0
  162.2660  205.9410  142.2500 O   0  0  0  0  0  0  0  0  0  0  0  0
  162.8550  206.1860  140.0530 O   0  0  0  0  0  0  0  0  0  0  0  0
  162.1780  206.6100  141.0270 C   0  0  0  0  0  0  0  0  0  0  0  0
  161.2830  207.8120  140.8720 C   0  0  0  0  0  2  0  0  0  0  0  0
  159.2180  212.2930  139.5950 O   0  0  0  0  0  0  0  0  0  0  0  0
  160.4230  212.3580  139.9560 C   0  0  0  0  0  0  0  0  0  0  0  0
  161.8100  208.8440  139.8800 C   0  0  1  0  0  3  0  0  0  0  0  0
  160.7210  209.8670  139.5550 C   0  0  1  0  0  3  0  0  0  0  0  0
  162.9540  209.6210  140.5250 C   0  0  0  0  0  3  0  0  0  0  0  0
  162.5680  211.0920  140.5190 C   0  0  0  0  0  3  0  0  0  0  0  0
  161.2280  211.1660  139.9650 N   0  0  0  0  0  0  0  0  0  0  0  0
  160.9800  213.7010  140.3450 C   0  0  2  0  0  3  0  0  0  0  0  0
  163.4380  214.2340  140.2260 C   0  0  0  0  0  1  0  0  0  0  0  0
  162.3080  213.2240  138.4010 O   0  0  0  0  0  1  0  0  0  0  0  0
  162.1380  214.1400  139.4410 C   0  0  1  0  0  3  0  0  0  0  0  0
  161.3080  213.7450  141.8160 C   0  0  0  0  0  0  0  0  0  0  0  0
  160.4470  214.1300  142.6540 O   0  0  0  0  0  0  0  0  0  0  0  0
  162.6140  213.3910  142.2570 N   0  0  0  0  0  1  0  0  0  0  0  0
  160.3300  209.8370  138.1950 O   0  0  0  0  0  0  0  0  0  0  0  0
  159.1250  209.1150  138.0590 C   0  0  0  0  0  2  0  0  0  0  0  0
  157.8870  209.9710  138.3380 C   0  0  2  0  0  3  0  0  0  0  0  0
  156.6500  209.1620  138.3180 C   0  0  0  0  0  2  0  0  0  0  0  0
  157.0200  209.9810  137.2320 O   0  0  0  0  0  0  0  0  0  0  0  0
  161.0700  206.5110  147.0460 O   0  0  0  0  0  0  0  0  0  0  0  0
  162.4130  206.5180  147.4330 C   0  0  0  0  0  2  0  0  0  0  0  0
  162.5630  206.6000  148.9490 C   0  0  0  0  0  2  0  0  0  0  0  0
  162.7510  208.0310  149.4170 C   0  0  0  0  0  2  0  0  0  0  0  0
  161.6830  208.3540  150.4490 C   0  0  2  0  0  3  0  0  0  0  0  0
  161.4960  210.7210  149.4230 C   0  0  0  0  0  3  0  0  0  0  0  0
  161.0520  213.2330  149.2110 C   0  0  1  0  0  3  0  0  0  0  0  0
  159.5150  214.4520  150.6930 N   0  0  0  0  0  0  0  0  0  0  0  0
  160.8500  214.4400  150.1360 C   0  0  0  0  0  2  0  0  0  0  0  0
  160.0600  212.6320  152.2370 C   0  0  0  0  0  2  0  0  0  0  0  0
  160.7600  210.3860  151.5000 O   0  0  0  0  0  0  0  0  0  0  0  0
  161.2970  209.8050  150.4510 C   0  0  0  0  0  0  0  0  0  0  0  0
  160.5780  211.6520  151.2280 C   0  0  0  0  0  0  0  0  0  0  0  0
  161.0220  211.9150  149.9380 C   0  0  0  0  0  0  0  0  0  0  0  0
  159.1370  213.6450  151.6230 C   0  0  0  0  0  3  0  0  0  0  0  0
  160.1070  213.2490  148.1780 O   0  0  0  0  0  0  0  0  0  0  0  0
  161.3390  212.9350  146.1680 C   0  0  0  0  0  2  0  0  0  0  0  0
  160.7280  213.9360  147.1310 C   0  0  0  0  0  3  0  0  0  0  0  0
  162.2170  213.6560  147.1630 C   0  0  0  0  0  2  0  0  0  0  0  0
  162.1210  207.9250  151.7730 N   0  0  0  0  0  2  0  0  0  0  0  0
  161.0440  208.1880  152.7210 C   0  0  0  0  0  2  0  0  0  0  0  0
  161.5980  208.3620  154.1310 C   0  0  0  0  0  2  0  0  0  0  0  0
  161.3940  209.7740  154.6810 C   0  0  2  0  0  3  0  0  0  0  0  0
  162.5910  210.2380  155.4910 C   0  0  0  0  0  1  0  0  0  0  0  0
  160.1140  210.9830  156.9400 O   0  0  0  0  0  1  0  0  0  0  0  0
  159.8550  209.9330  155.6400 P   0  0  0  0  0  0  0  0  0  0  0  0
  159.4230  208.5850  156.1700 O   0  0  0  0  0  1  0  0  0  0  0  0
  158.6430  210.5670  154.6480 O   0  0  0  0  0  0  0  0  0  0  0  0
  1  5  1  0  0  0  0
  1  8  2  0  0  0  0
  2 10  1  0  0  0  0
  3 14  1  6  0  0  0
  3  9  1  0  0  0  0
  4 12  2  0  0  0  0
  5 11  1  1  0  0  0
  6  2  2  0  0  0  0
  6  4  1  0  0  0  0
  7  1  1  0  0  0  0
  9 39  1  6  0  0  0
  9  5  1  0  0  0  0
 10  3  1  0  0  0  0
 10  7  2  0  0  0  0
 12  7  1  0  0  0  0
 14 13  1  1  0  0  0
 15 14  1  0  0  0  0
 16 15  1  0  0  0  0
 17 18  2  0  0  0  0
 18 16  1  0  0  0  0
 19 18  1  0  0  0  0
 20 21  2  0  0  0  0
 21 26  1  0  0  0  0
 22 24  1  0  0  0  0
 22 19  1  1  0  0  0
 23 34  1  6  0  0  0
 23 22  1  0  0  0  0
 23 26  1  0  0  0  0
 25 24  2  0  0  0  0
 26 25  1  0  0  0  0
 27 21  1  6  0  0  0
 27 31  1  0  0  0  0
 29 30  1  0  0  0  0
 30 28  1  1  0  0  0
 30 27  1  0  0  0  0
 31 33  1  0  0  0  0
 31 32  2  0  0  0  0
 35 34  1  0  0  0  0
 36 35  1  6  0  0  0
 37 36  1  0  0  0  0
 38 37  1  0  0  0  0
 38 36  1  0  0  0  0
 39 40  1  0  0  0  0
 40 41  1  0  0  0  0
 41 42  1  0  0  0  0
 43 42  1  6  0  0  0
 43 50  1  0  0  0  0
 43 58  1  0  0  0  0
 44 52  1  0  0  0  0
 44 50  2  0  0  0  0
 45 54  1  6  0  0  0
 45 52  1  0  0  0  0
 45 47  1  0  0  0  0
 46 53  2  0  0  0  0
 47 46  1  0  0  0  0
 50 49  1  0  0  0  0
 51 49  1  0  0  0  0
 51 48  1  0  0  0  0
 52 51  2  0  0  0  0
 53 48  1  0  0  0  0
 55 56  1  0  0  0  0
 55 57  1  0  0  0  0
 56 57  1  0  0  0  0
 56 54  1  0  0  0  0
 58 59  1  0  0  0  0
 59 60  1  0  0  0  0
 60 61  1  0  0  0  0
 61 62  1  1  0  0  0
 61 64  1  0  0  0  0
 64 65  1  0  0  0  0
 64 63  1  0  0  0  0
 66 64  2  0  0  0  0
M  END
>  <MODEL>
4

>  <REMARK>
 VINA RESULT:       0.6      3.137     11.659
  Name = 
  25 active torsions:
  status: ('A' for Active; 'I' for Inactive)
    1  A    between atoms: C_1  and  O_33
    2  A    between atoms: C_1  and  C_61
    3  A    between atoms: C_4  and  C_32
    4  A    between atoms: C_5  and  C_40
    5  A    between atoms: C_7  and  C_35
    6  A    between atoms: O_9  and  C_21
    7  A    between atoms: O_9  and  C_59
    8  A    between atoms: C_13  and  C_40
    9  A    between atoms: C_14  and  O_29
   10  A    between atoms: C_20  and  C_39
   11  A    between atoms: C_21  and  C_32
   12  A    between atoms: C_22  and  N_45
   13  A    between atoms: C_22  and  C_53
   14  A    between atoms: C_22  and  C_64
   15  A    between atoms: C_23  and  O_38
   16  A    between atoms: C_28  and  O_33
   17  A    between atoms: O_29  and  C_54
   18  A    between atoms: C_34  and  C_60
   19  A    between atoms: C_34  and  C_63
   20  A    between atoms: C_35  and  O_38
   21  A    between atoms: C_39  and  C_59
   22  A    between atoms: C_40  and  C_48
   23  A    between atoms: P_42  and  C_60
   24  A    between atoms: N_45  and  C_63
   25  A    between atoms: C_61  and  C_64
                            x       y       z     vdW  Elec       q    Type
                         _______ _______ _______ _____ _____    ______ ____

>  <TORSDO>
F 25

$$$$
