=
 OpenBabel11072410283D

 32 36  0  0  1  0  0  0  0  0999 V2000
  160.5680  209.1600  156.7050 C   0  0  2  0  0  3  0  0  0  0  0  0
  158.6360  212.9160  156.2600 C   0  0  0  0  0  2  0  0  0  0  0  0
  161.9570  211.5340  155.8710 O   0  0  0  0  0  0  0  0  0  0  0  0
  160.1790  208.4140  154.3270 C   0  0  0  0  0  0  0  0  0  0  0  0
  162.6730  208.2280  156.1170 O   0  0  0  0  0  0  0  0  0  0  0  0
  160.6910  211.7310  156.4970 C   0  0  2  0  0  3  0  0  0  0  0  0
  157.9500  211.6870  153.8600 C   0  0  0  0  0  2  0  0  0  0  0  0
  160.0940  210.5050  157.2610 C   0  0  0  0  0  2  0  0  0  0  0  0
  157.7490  213.2010  153.8900 C   0  0  2  0  0  3  0  0  0  0  0  0
  160.3280  207.0550  154.0300 C   0  0  0  0  0  3  0  0  0  0  0  0
  160.7290  206.6480  152.7580 C   0  0  0  0  0  3  0  0  0  0  0  0
  162.0380  209.2290  156.4020 C   0  0  0  0  0  0  0  0  0  0  0  0
  159.7510  212.3170  155.5250 N   0  0  1  0  0  0  0  0  0  0  0  0
  160.4130  209.3860  153.3220 C   0  0  0  0  0  0  0  0  0  0  0  0
  160.8330  208.9550  152.0540 C   0  0  0  0  0  3  0  0  0  0  0  0
  160.9850  207.5950  151.7610 C   0  0  0  0  0  0  0  0  0  0  0  0
  157.7530  213.7470  155.3220 C   0  0  0  0  0  2  0  0  0  0  0  0
  159.7370  208.7690  155.6050 O   0  0  0  0  0  0  0  0  0  0  0  0
  160.3660  210.8690  153.6080 C   0  0  2  0  0  3  0  0  0  0  0  0
  162.7180  210.5550  156.5360 C   0  0  0  0  0  2  0  0  0  0  0  0
  159.2550  211.2920  154.5800 C   0  0  2  0  0  3  0  0  0  0  0  0
  160.3520  211.6400  152.4400 O   0  0  0  0  0  1  0  0  0  0  0  0
  161.1750  205.9330  149.9170 N   0  0  0  0  0  0  0  0  0  0  0  0
  162.2670  208.0970  149.3160 S   0  0  0  0  0  0  0  0  0  0  0  0
  161.4150  207.1620  150.4220 C   0  0  0  0  0  0  0  0  0  0  0  0
  162.3420  206.9000  148.1340 C   0  0  0  0  0  3  0  0  0  0  0  0
  161.6770  205.7940  148.6600 C   0  0  0  0  0  0  0  0  0  0  0  0
  161.2220  203.4390  148.8300 N   0  0  0  0  0  1  0  0  0  0  0  0
  161.5580  204.5130  147.9120 C   0  0  0  0  0  2  0  0  0  0  0  0
  156.5630  214.1000  151.8930 O   0  0  0  0  0  0  0  0  0  0  0  0
  155.3730  213.4440  153.7370 O   0  0  0  0  0  1  0  0  0  0  0  0
  156.4940  213.5850  153.1790 C   0  0  0  0  0  0  0  0  0  0  0  0
  1  8  1  6  0  0  0
  3  6  1  0  0  0  0
  3 20  1  0  0  0  0
  4 18  1  0  0  0  0
  5 12  2  0  0  0  0
  6  8  1  6  0  0  0
  7  9  1  0  0  0  0
  9 32  1  1  0  0  0
  9 17  1  0  0  0  0
 10  4  1  0  0  0  0
 11 10  2  0  0  0  0
 12 20  1  0  0  0  0
 12  1  1  0  0  0  0
 13  2  1  1  0  0  0
 13  6  1  0  0  0  0
 14 19  1  0  0  0  0
 14  4  2  0  0  0  0
 15 14  1  0  0  0  0
 16 15  2  0  0  0  0
 16 11  1  0  0  0  0
 17  2  1  0  0  0  0
 18  1  1  0  0  0  0
 19 22  1  6  0  0  0
 19 21  1  0  0  0  0
 21  7  1  6  0  0  0
 21 13  1  0  0  0  0
 23 25  2  0  0  0  0
 24 25  1  0  0  0  0
 25 16  1  0  0  0  0
 26 27  2  0  0  0  0
 26 24  1  0  0  0  0
 27 23  1  0  0  0  0
 29 27  1  0  0  0  0
 29 28  1  0  0  0  0
 30 32  2  0  0  0  0
 32 31  1  0  0  0  0
M  END
>  <MODEL>
1

>  <REMARK>
 VINA RESULT:      -6.4      0.000      0.000
  Name = 
  3 active torsions:
  status: ('A' for Active; 'I' for Inactive)
    1  A    between atoms: C_12  and  C_22
    2  A    between atoms: C_13  and  C_31
    3  A    between atoms: C_24  and  C_26
                            x       y       z     vdW  Elec       q    Type
                         _______ _______ _______ _____ _____    ______ ____

>  <TORSDO>
F 3

$$$$
=
 OpenBabel11072410283D

 32 36  0  0  1  0  0  0  0  0999 V2000
  160.1980  209.9250  156.0290 C   0  0  2  0  0  3  0  0  0  0  0  0
  157.1350  212.5990  157.2580 C   0  0  0  0  0  2  0  0  0  0  0  0
  160.7130  212.6650  156.7240 O   0  0  0  0  0  0  0  0  0  0  0  0
  160.0070  210.4640  153.5720 C   0  0  0  0  0  0  0  0  0  0  0  0
  162.4740  210.1010  155.3720 O   0  0  0  0  0  0  0  0  0  0  0  0
  159.4700  212.1260  157.1670 C   0  0  2  0  0  3  0  0  0  0  0  0
  156.8210  212.6770  154.4950 C   0  0  0  0  0  2  0  0  0  0  0  0
  159.3270  210.5700  157.1100 C   0  0  0  0  0  2  0  0  0  0  0  0
  156.1380  213.8130  155.2530 C   0  0  2  0  0  3  0  0  0  0  0  0
  160.5820  209.5770  152.6560 C   0  0  0  0  0  3  0  0  0  0  0  0
  161.0590  210.0360  151.4290 C   0  0  0  0  0  3  0  0  0  0  0  0
  161.5560  210.5680  156.0250 C   0  0  0  0  0  0  0  0  0  0  0  0
  158.3640  212.8310  156.4960 N   0  0  1  0  0  0  0  0  0  0  0  0
  159.8830  211.8360  153.2430 C   0  0  0  0  0  0  0  0  0  0  0  0
  160.3850  212.2810  152.0100 C   0  0  0  0  0  3  0  0  0  0  0  0
  160.9640  211.3910  151.0970 C   0  0  0  0  0  0  0  0  0  0  0  0
  156.0040  213.4980  156.7480 C   0  0  0  0  0  2  0  0  0  0  0  0
  159.5090  209.9480  154.7730 O   0  0  0  0  0  0  0  0  0  0  0  0
  159.3630  212.8590  154.2280 C   0  0  2  0  0  3  0  0  0  0  0  0
  161.7700  211.7550  156.9090 C   0  0  0  0  0  2  0  0  0  0  0  0
  158.2030  212.3630  155.1020 C   0  0  2  0  0  3  0  0  0  0  0  0
  159.0660  214.0850  153.6210 O   0  0  0  0  0  1  0  0  0  0  0  0
  161.0920  213.0370  149.2330 N   0  0  0  0  0  0  0  0  0  0  0  0
  162.5900  211.0810  148.8310 S   0  0  0  0  0  0  0  0  0  0  0  0
  161.4740  211.8740  149.8040 C   0  0  0  0  0  0  0  0  0  0  0  0
  162.6000  212.2550  147.6250 C   0  0  0  0  0  3  0  0  0  0  0  0
  161.7150  213.2480  148.0430 C   0  0  0  0  0  0  0  0  0  0  0  0
  160.2470  214.2210  146.4070 N   0  0  0  0  0  1  0  0  0  0  0  0
  161.4300  214.4520  147.2170 C   0  0  0  0  0  2  0  0  0  0  0  0
  154.6390  214.0620  153.2810 O   0  0  0  0  0  0  0  0  0  0  0  0
  153.8350  214.4490  155.3900 O   0  0  0  0  0  1  0  0  0  0  0  0
  154.8070  214.1270  154.6560 C   0  0  0  0  0  0  0  0  0  0  0  0
  1  8  1  1  0  0  0
  3 20  1  0  0  0  0
  3  6  1  0  0  0  0
  4 18  1  0  0  0  0
  5 12  2  0  0  0  0
  6  8  1  6  0  0  0
  7  9  1  0  0  0  0
  9 32  1  6  0  0  0
  9 17  1  0  0  0  0
 10  4  2  0  0  0  0
 11 10  1  0  0  0  0
 12  1  1  0  0  0  0
 12 20  1  0  0  0  0
 13  6  1  0  0  0  0
 13  2  1  1  0  0  0
 14  4  1  0  0  0  0
 14 19  1  0  0  0  0
 15 14  2  0  0  0  0
 16 11  2  0  0  0  0
 16 15  1  0  0  0  0
 17  2  1  0  0  0  0
 18  1  1  0  0  0  0
 19 22  1  6  0  0  0
 19 21  1  0  0  0  0
 21  7  1  6  0  0  0
 21 13  1  0  0  0  0
 23 25  2  0  0  0  0
 24 25  1  0  0  0  0
 25 16  1  0  0  0  0
 26 27  2  0  0  0  0
 26 24  1  0  0  0  0
 27 23  1  0  0  0  0
 28 29  1  0  0  0  0
 29 27  1  0  0  0  0
 30 32  2  0  0  0  0
 32 31  1  0  0  0  0
M  END
>  <MODEL>
2

>  <REMARK>
 VINA RESULT:      -3.8      3.247      4.033
  Name = 
  3 active torsions:
  status: ('A' for Active; 'I' for Inactive)
    1  A    between atoms: C_12  and  C_22
    2  A    between atoms: C_13  and  C_31
    3  A    between atoms: C_24  and  C_26
                            x       y       z     vdW  Elec       q    Type
                         _______ _______ _______ _____ _____    ______ ____

>  <TORSDO>
F 3

$$$$
=
 OpenBabel11072410283D

 32 36  0  0  1  0  0  0  0  0999 V2000
  156.5120  212.9390  155.3560 C   0  0  2  0  0  3  0  0  0  0  0  0
  159.5330  210.6390  157.2610 C   0  0  0  0  0  2  0  0  0  0  0  0
  156.7470  210.0950  155.0170 O   0  0  0  0  0  0  0  0  0  0  0  0
  157.8560  213.4140  153.2760 C   0  0  0  0  0  0  0  0  0  0  0  0
  154.9150  212.5910  153.6330 O   0  0  0  0  0  0  0  0  0  0  0  0
  157.4300  210.6550  156.1360 C   0  0  2  0  0  3  0  0  0  0  0  0
  160.9460  211.6710  155.0980 C   0  0  0  0  0  2  0  0  0  0  0  0
  157.0340  212.1140  156.5350 C   0  0  0  0  0  2  0  0  0  0  0  0
  161.6100  210.4870  155.7960 C   0  0  2  0  0  3  0  0  0  0  0  0
  157.4330  214.4530  152.4400 C   0  0  0  0  0  3  0  0  0  0  0  0
  157.6880  214.4090  151.0700 C   0  0  0  0  0  3  0  0  0  0  0  0
  155.5890  212.0970  154.5210 C   0  0  0  0  0  0  0  0  0  0  0  0
  158.8830  210.4810  155.9580 N   0  0  1  0  0  0  0  0  0  0  0  0
  158.5720  212.3180  152.7320 C   0  0  0  0  0  0  0  0  0  0  0  0
  158.8010  212.2850  151.3480 C   0  0  0  0  0  3  0  0  0  0  0  0
  158.3740  213.3240  150.5140 C   0  0  0  0  0  0  0  0  0  0  0  0
  161.0090  210.2340  157.1830 C   0  0  0  0  0  2  0  0  0  0  0  0
  157.6120  213.5240  154.6480 O   0  0  0  0  0  0  0  0  0  0  0  0
  158.9680  211.1200  153.5650 C   0  0  2  0  0  3  0  0  0  0  0  0
  155.4620  210.6470  154.8640 C   0  0  0  0  0  2  0  0  0  0  0  0
  159.4220  211.4620  154.9910 C   0  0  2  0  0  3  0  0  0  0  0  0
  159.8910  210.2960  152.9120 O   0  0  0  0  0  1  0  0  0  0  0  0
  159.8680  213.3530  148.5230 N   0  0  0  0  0  0  0  0  0  0  0  0
  157.4690  213.1280  147.8640 S   0  0  0  0  0  0  0  0  0  0  0  0
  158.6340  213.2760  149.0660 C   0  0  0  0  0  0  0  0  0  0  0  0
  158.5670  213.1600  146.5870 C   0  0  0  0  0  3  0  0  0  0  0  0
  159.8300  213.2820  147.1650 C   0  0  0  0  0  0  0  0  0  0  0  0
  162.2250  213.4890  147.2170 N   0  0  0  0  0  1  0  0  0  0  0  0
  161.0690  213.3740  146.3460 C   0  0  0  0  0  2  0  0  0  0  0  0
  163.8380  210.7860  154.7240 O   0  0  0  0  0  0  0  0  0  0  0  0
  163.6570  210.7550  157.0080 O   0  0  0  0  0  1  0  0  0  0  0  0
  163.0870  210.6820  155.8860 C   0  0  0  0  0  0  0  0  0  0  0  0
  1  8  1  1  0  0  0
  3  6  1  0  0  0  0
  4 18  1  0  0  0  0
  5 12  2  0  0  0  0
  6  8  1  6  0  0  0
  7  9  1  0  0  0  0
  9 32  1  1  0  0  0
  9 17  1  0  0  0  0
 10  4  2  0  0  0  0
 11 10  1  0  0  0  0
 12 20  1  0  0  0  0
 12  1  1  0  0  0  0
 13  6  1  0  0  0  0
 13  2  1  1  0  0  0
 14  4  1  0  0  0  0
 14 19  1  0  0  0  0
 15 14  2  0  0  0  0
 16 11  2  0  0  0  0
 16 15  1  0  0  0  0
 17  2  1  0  0  0  0
 18  1  1  0  0  0  0
 19 22  1  6  0  0  0
 19 21  1  0  0  0  0
 20  3  1  0  0  0  0
 21  7  1  6  0  0  0
 21 13  1  0  0  0  0
 23 25  2  0  0  0  0
 24 25  1  0  0  0  0
 25 16  1  0  0  0  0
 26 27  2  0  0  0  0
 26 24  1  0  0  0  0
 27 23  1  0  0  0  0
 29 27  1  0  0  0  0
 29 28  1  0  0  0  0
 30 32  2  0  0  0  0
 32 31  1  0  0  0  0
M  END
>  <MODEL>
3

>  <REMARK>
 VINA RESULT:      -3.7      4.203      6.383
  Name = 
  3 active torsions:
  status: ('A' for Active; 'I' for Inactive)
    1  A    between atoms: C_12  and  C_22
    2  A    between atoms: C_13  and  C_31
    3  A    between atoms: C_24  and  C_26
                            x       y       z     vdW  Elec       q    Type
                         _______ _______ _______ _____ _____    ______ ____

>  <TORSDO>
F 3

$$$$
=
 OpenBabel11072410283D

 32 36  0  0  1  0  0  0  0  0999 V2000
  162.2580  212.3760  137.9650 C   0  0  2  0  0  3  0  0  0  0  0  0
  158.1560  211.8250  137.0110 C   0  0  0  0  0  2  0  0  0  0  0  0
  160.8240  209.9690  138.6030 O   0  0  0  0  0  0  0  0  0  0  0  0
  161.8370  213.3680  140.2460 C   0  0  0  0  0  0  0  0  0  0  0  0
  163.8770  211.2680  139.3050 O   0  0  0  0  0  0  0  0  0  0  0  0
  160.2290  210.8170  137.6230 C   0  0  2  0  0  3  0  0  0  0  0  0
  157.9540  213.3380  139.3360 C   0  0  0  0  0  2  0  0  0  0  0  0
  161.1450  211.9280  137.0150 C   0  0  0  0  0  2  0  0  0  0  0  0
  156.6700  212.6260  138.9170 C   0  0  2  0  0  3  0  0  0  0  0  0
  162.8810  214.0610  140.8660 C   0  0  0  0  0  3  0  0  0  0  0  0
  162.9760  214.1020  142.2570 C   0  0  0  0  0  3  0  0  0  0  0  0
  162.8580  211.1750  138.6410 C   0  0  0  0  0  0  0  0  0  0  0  0
  158.9530  211.3420  138.1400 N   0  0  1  0  0  0  0  0  0  0  0  0
  160.8510  212.7230  141.0330 C   0  0  0  0  0  0  0  0  0  0  0  0
  160.9760  212.7620  142.4310 C   0  0  0  0  0  3  0  0  0  0  0  0
  162.0240  213.4530  143.0490 C   0  0  0  0  0  0  0  0  0  0  0  0
  156.7290  212.1600  137.4580 C   0  0  0  0  0  2  0  0  0  0  0  0
  161.7630  213.3890  138.8490 O   0  0  0  0  0  0  0  0  0  0  0  0
  159.7570  211.8770  140.4240 C   0  0  2  0  0  3  0  0  0  0  0  0
  162.2120  209.8470  138.4100 C   0  0  0  0  0  2  0  0  0  0  0  0
  159.1820  212.4330  139.1130 C   0  0  2  0  0  3  0  0  0  0  0  0
  158.7470  211.5660  141.3410 O   0  0  0  0  0  1  0  0  0  0  0  0
  161.3660  212.7490  145.3440 N   0  0  0  0  0  0  0  0  0  0  0  0
  163.1940  214.4490  145.3980 S   0  0  0  0  0  0  0  0  0  0  0  0
  162.1310  213.4920  144.5160 C   0  0  0  0  0  0  0  0  0  0  0  0
  162.6710  213.9060  146.9040 C   0  0  0  0  0  3  0  0  0  0  0  0
  161.6680  212.9710  146.6520 C   0  0  0  0  0  0  0  0  0  0  0  0
  161.8650  211.8880  148.7890 N   0  0  0  0  0  1  0  0  0  0  0  0
  160.9330  212.2840  147.7490 C   0  0  0  0  0  2  0  0  0  0  0  0
  154.6550  213.2570  140.2370 O   0  0  0  0  0  1  0  0  0  0  0  0
  155.2180  214.4470  138.3620 O   0  0  0  0  0  0  0  0  0  0  0  0
  155.4790  213.4960  139.1470 C   0  0  0  0  0  0  0  0  0  0  0  0
  1  8  1  1  0  0  0
  1 12  1  0  0  0  0
  1 18  1  0  0  0  0
  2 17  1  0  0  0  0
  4 10  2  0  0  0  0
  4 14  1  0  0  0  0
  6  8  1  1  0  0  0
  6 13  1  0  0  0  0
  6  3  1  0  0  0  0
  9 32  1  6  0  0  0
  9  7  1  0  0  0  0
 10 11  1  0  0  0  0
 11 16  2  0  0  0  0
 12  5  2  0  0  0  0
 13  2  1  6  0  0  0
 13 21  1  0  0  0  0
 14 15  2  0  0  0  0
 15 16  1  0  0  0  0
 16 25  1  0  0  0  0
 17  9  1  0  0  0  0
 18  4  1  0  0  0  0
 19 14  1  0  0  0  0
 19 22  1  1  0  0  0
 20  3  1  0  0  0  0
 20 12  1  0  0  0  0
 21  7  1  1  0  0  0
 21 19  1  0  0  0  0
 23 27  1  0  0  0  0
 24 26  1  0  0  0  0
 25 23  2  0  0  0  0
 25 24  1  0  0  0  0
 27 26  2  0  0  0  0
 27 29  1  0  0  0  0
 29 28  1  0  0  0  0
 31 32  2  0  0  0  0
 32 30  1  0  0  0  0
M  END
>  <MODEL>
4

>  <REMARK>
 VINA RESULT:      -3.5     10.730     14.453
  Name = 
  3 active torsions:
  status: ('A' for Active; 'I' for Inactive)
    1  A    between atoms: C_12  and  C_22
    2  A    between atoms: C_13  and  C_31
    3  A    between atoms: C_24  and  C_26
                            x       y       z     vdW  Elec       q    Type
                         _______ _______ _______ _____ _____    ______ ____

>  <TORSDO>
F 3

$$$$
