=
 OpenBabel11072412133D

 31 35  0  0  1  0  0  0  0  0999 V2000
  161.1600  204.4780  146.8280 S   0  0  0  0  0  0  0  0  0  0  0  0
  161.0820  204.7760  148.4560 C   0  0  0  0  0  0  0  0  0  0  0  0
  160.8470  206.3230  150.2760 C   0  0  0  0  0  0  0  0  0  0  0  0
  161.0580  203.9590  150.7460 C   0  0  0  0  0  0  0  0  0  0  0  0
  160.6190  206.4920  154.8020 N   0  0  0  0  0  0  0  0  0  0  0  0
  161.3320  201.3350  149.8590 C   0  0  0  0  0  3  0  0  0  0  0  0
  160.9210  205.2720  151.2170 C   0  0  0  0  0  0  0  0  0  0  0  0
  160.6410  207.7300  150.7390 C   0  0  0  0  0  2  0  0  0  0  0  0
  160.7350  207.5210  155.6810 C   0  0  0  0  0  2  0  0  0  0  0  0
  160.8100  205.4700  152.6430 N   0  0  0  0  0  2  0  0  0  0  0  0
  161.4200  207.8780  153.0380 C   0  0  1  0  0  3  0  0  0  0  0  0
  160.9420  206.6270  153.4870 C   0  0  0  0  0  0  0  0  0  0  0  0
  160.9430  206.0630  148.9280 N   0  0  0  0  0  0  0  0  0  0  0  0
  161.2510  201.6080  151.1860 N   0  0  0  0  0  0  0  0  0  0  0  0
  161.2030  208.7520  155.2330 C   0  0  0  0  0  3  0  0  0  0  0  0
  161.7940  208.1320  151.6250 C   0  0  0  0  0  2  0  0  0  0  0  0
  161.2800  202.3720  148.9290 C   0  0  0  0  0  3  0  0  0  0  0  0
  161.1170  202.8810  151.6420 C   0  0  0  0  0  3  0  0  0  0  0  0
  161.1410  203.7010  149.3640 C   0  0  0  0  0  0  0  0  0  0  0  0
  161.5360  208.9010  153.9260 N   0  0  0  0  0  0  0  0  0  0  0  0
  160.9050  207.1870  147.9820 C   0  0  0  0  0  2  0  0  0  0  0  0
  161.6520  209.5580  148.4140 N   0  0  0  0  0  2  0  0  0  0  0  0
  161.9780  208.1750  148.2960 C   0  0  0  0  0  0  0  0  0  0  0  0
  163.1650  207.7820  148.4410 O   0  0  0  0  0  0  0  0  0  0  0  0
  162.6580  210.5770  148.6950 C   0  0  0  0  0  2  0  0  0  0  0  0
  163.2060  212.7860  147.9730 C   0  0  0  0  0  2  0  0  0  0  0  0
  162.6600  214.1520  147.5640 C   0  0  0  0  0  2  0  0  0  0  0  0
  161.2760  213.9980  146.9330 C   0  0  0  0  0  2  0  0  0  0  0  0
  160.9780  211.8470  147.5500 C   0  0  0  0  0  2  0  0  0  0  0  0
  161.1200  212.6960  146.4300 O   0  0  0  0  0  0  0  0  0  0  0  0
  162.1290  211.9240  148.4770 N   0  0  0  0  0  0  0  0  0  0  0  0
  1  2  2  0  0  0  0
  2 13  1  0  0  0  0
  2 19  1  0  0  0  0
  3  8  1  0  0  0  0
  3  7  2  0  0  0  0
  4  7  1  0  0  0  0
  4 18  1  0  0  0  0
  5  9  1  0  0  0  0
  6 14  1  0  0  0  0
  7 10  1  0  0  0  0
  8 16  1  0  0  0  0
 10 12  1  0  0  0  0
 11 16  1  6  0  0  0
 11 12  1  0  0  0  0
 11 20  1  0  0  0  0
 12  5  2  0  0  0  0
 13  3  1  0  0  0  0
 14 18  2  0  0  0  0
 15  9  1  0  0  0  0
 17 19  1  0  0  0  0
 17  6  2  0  0  0  0
 19  4  2  0  0  0  0
 20 15  2  0  0  0  0
 21 23  1  0  0  0  0
 21 13  1  0  0  0  0
 22 25  1  0  0  0  0
 23 22  1  0  0  0  0
 23 24  2  0  0  0  0
 26 31  1  0  0  0  0
 27 26  1  0  0  0  0
 28 27  1  0  0  0  0
 29 31  1  0  0  0  0
 30 28  1  0  0  0  0
 30 29  1  0  0  0  0
 31 25  1  0  0  0  0
M  END
>  <MODEL>
1

>  <REMARK>
 VINA RESULT:      -7.8      0.000      0.000
  Name = 
  4 active torsions:
  status: ('A' for Active; 'I' for Inactive)
    1  A    between atoms: C_2  and  N_9
    2  A    between atoms: C_2  and  N_30
    3  A    between atoms: C_8  and  C_13
    4  A    between atoms: C_8  and  N_22
                            x       y       z     vdW  Elec       q    Type
                         _______ _______ _______ _____ _____    ______ ____

>  <TORSDO>
F 4

$$$$
=
 OpenBabel11072412133D

 31 35  0  0  0  0  0  0  0  0999 V2000
  161.1070  210.2770  153.9110 S   0  0  0  0  0  0  0  0  0  0  0  0
  160.8490  211.1610  152.5340 C   0  0  0  0  0  0  0  0  0  0  0  0
  161.2360  211.5200  150.1920 C   0  0  0  0  0  0  0  0  0  0  0  0
  159.7500  213.0050  151.3920 C   0  0  0  0  0  0  0  0  0  0  0  0
  160.0850  214.2620  146.7690 N   0  0  0  0  0  0  0  0  0  0  0  0
  158.4680  213.7560  153.7450 C   0  0  0  0  0  3  0  0  0  0  0  0
  160.3840  212.6460  150.1950 C   0  0  0  0  0  0  0  0  0  0  0  0
  161.8840  211.0730  148.9200 C   0  0  0  0  0  2  0  0  0  0  0  0
  160.6200  214.4530  145.5360 C   0  0  0  0  0  3  0  0  0  0  0  0
  160.0860  213.4230  149.0140 N   0  0  0  0  0  2  0  0  0  0  0  0
  161.9870  212.9870  147.4250 C   0  0  0  0  0  0  0  0  0  0  0  0
  160.7250  213.5420  147.7300 C   0  0  0  0  0  0  0  0  0  0  0  0
  161.4650  210.8140  151.3510 N   0  0  0  0  0  0  0  0  0  0  0  0
  158.2650  214.4530  152.5980 N   0  0  0  0  0  0  0  0  0  0  0  0
  161.8630  213.9020  145.2390 C   0  0  0  0  0  3  0  0  0  0  0  0
  162.7640  212.1810  148.3980 C   0  0  0  0  0  2  0  0  0  0  0  0
  159.3250  212.6570  153.7520 C   0  0  0  0  0  3  0  0  0  0  0  0
  158.8790  214.1050  151.4380 C   0  0  0  0  0  3  0  0  0  0  0  0
  159.9780  212.2670  152.5690 C   0  0  0  0  0  0  0  0  0  0  0  0
  162.5170  213.1850  146.1890 N   0  0  0  0  0  0  0  0  0  0  0  0
  162.3910  209.6730  151.3190 C   0  0  0  0  0  2  0  0  0  0  0  0
  162.0590  207.6280  149.8790 N   0  0  0  0  0  2  0  0  0  0  0  0
  161.6600  208.4120  151.0010 C   0  0  0  0  0  0  0  0  0  0  0  0
  160.6890  208.0550  151.7180 O   0  0  0  0  0  0  0  0  0  0  0  0
  161.3710  206.3980  149.4990 C   0  0  0  0  0  2  0  0  0  0  0  0
  161.3810  204.5270  148.0170 C   0  0  0  0  0  2  0  0  0  0  0  0
  161.6680  204.0430  146.5970 C   0  0  0  0  0  2  0  0  0  0  0  0
  161.4380  205.1770  145.5990 C   0  0  0  0  0  2  0  0  0  0  0  0
  161.2860  206.8180  147.1410 C   0  0  0  0  0  2  0  0  0  0  0  0
  160.5610  206.1290  146.1450 O   0  0  0  0  0  0  0  0  0  0  0  0
  161.8160  205.9190  148.1900 N   0  0  0  0  0  0  0  0  0  0  0  0
  2 19  1  0  0  0  0
  2  1  2  0  0  0  0
  3  7  2  0  0  0  0
  3 13  1  0  0  0  0
  4 18  2  0  0  0  0
  4 19  1  0  0  0  0
  5 12  2  0  0  0  0
  6 17  1  0  0  0  0
  7  4  1  0  0  0  0
  8  3  1  0  0  0  0
  9  5  1  0  0  0  0
 10  7  1  0  0  0  0
 11 12  1  0  0  0  0
 11 16  1  0  0  0  0
 12 10  1  0  0  0  0
 13  2  1  0  0  0  0
 14  6  2  0  0  0  0
 15  9  2  0  0  0  0
 15 20  1  0  0  0  0
 16  8  1  0  0  0  0
 18 14  1  0  0  0  0
 19 17  2  0  0  0  0
 20 11  2  0  0  0  0
 21 13  1  0  0  0  0
 22 23  1  0  0  0  0
 23 21  1  0  0  0  0
 23 24  2  0  0  0  0
 25 22  1  0  0  0  0
 26 31  1  0  0  0  0
 27 26  1  0  0  0  0
 28 30  1  0  0  0  0
 28 27  1  0  0  0  0
 29 31  1  0  0  0  0
 30 29  1  0  0  0  0
 31 25  1  0  0  0  0
M  END
>  <MODEL>
2

>  <REMARK>
 VINA RESULT:      -7.3      3.443      8.446
  Name = 
  4 active torsions:
  status: ('A' for Active; 'I' for Inactive)
    1  A    between atoms: C_2  and  N_9
    2  A    between atoms: C_2  and  N_30
    3  A    between atoms: C_8  and  C_13
    4  A    between atoms: C_8  and  N_22
                            x       y       z     vdW  Elec       q    Type
                         _______ _______ _______ _____ _____    ______ ____

>  <TORSDO>
F 4

$$$$
=
 OpenBabel11072412133D

 31 35  0  0  1  0  0  0  0  0999 V2000
  162.1280  210.3300  153.4240 S   0  0  0  0  0  0  0  0  0  0  0  0
  161.8270  209.0230  152.4500 C   0  0  0  0  0  0  0  0  0  0  0  0
  161.2620  206.7040  152.2020 C   0  0  0  0  0  0  0  0  0  0  0  0
  161.5720  208.0690  150.2280 C   0  0  0  0  0  0  0  0  0  0  0  0
  160.4600  203.5500  149.0430 N   0  0  0  0  0  0  0  0  0  0  0  0
  162.1300  210.5320  149.0580 C   0  0  0  0  0  3  0  0  0  0  0  0
  161.2890  206.8180  150.7930 C   0  0  0  0  0  0  0  0  0  0  0  0
  160.9060  205.3990  152.8410 C   0  0  0  0  0  2  0  0  0  0  0  0
  160.3960  202.1950  149.1060 C   0  0  0  0  0  2  0  0  0  0  0  0
  160.9880  205.7250  149.8990 N   0  0  0  0  0  2  0  0  0  0  0  0
  161.3800  203.6320  151.2390 C   0  0  1  0  0  3  0  0  0  0  0  0
  160.9350  204.2980  150.0750 C   0  0  0  0  0  0  0  0  0  0  0  0
  161.5440  207.7910  152.9970 N   0  0  0  0  0  0  0  0  0  0  0  0
  161.8660  209.4470  148.2860 N   0  0  0  0  0  0  0  0  0  0  0  0
  160.8330  201.5440  150.2550 C   0  0  0  0  0  3  0  0  0  0  0  0
  161.9100  204.3540  152.4220 C   0  0  0  0  0  2  0  0  0  0  0  0
  162.1250  210.4180  150.4470 C   0  0  0  0  0  3  0  0  0  0  0  0
  161.5910  208.2360  148.8350 C   0  0  0  0  0  3  0  0  0  0  0  0
  161.8440  209.1790  151.0500 C   0  0  0  0  0  0  0  0  0  0  0  0
  161.3160  202.2750  151.2920 N   0  0  0  0  0  0  0  0  0  0  0  0
  161.5480  207.6230  154.4570 C   0  0  0  0  0  2  0  0  0  0  0  0
  159.9790  209.4570  155.1930 N   0  0  0  0  0  2  0  0  0  0  0  0
  160.2480  208.0650  155.0400 C   0  0  0  0  0  0  0  0  0  0  0  0
  159.4030  207.2060  155.4060 O   0  0  0  0  0  0  0  0  0  0  0  0
  158.7380  209.9540  155.7790 C   0  0  0  0  0  2  0  0  0  0  0  0
  158.5580  211.3060  153.8190 C   0  0  0  0  0  2  0  0  0  0  0  0
  158.0560  212.6260  153.2380 C   0  0  0  0  0  2  0  0  0  0  0  0
  156.8310  213.1090  154.0140 C   0  0  0  0  0  2  0  0  0  0  0  0
  157.0440  211.6480  155.7200 C   0  0  0  0  0  2  0  0  0  0  0  0
  156.2050  212.0240  154.6490 O   0  0  0  0  0  0  0  0  0  0  0  0
  158.4110  211.2900  155.2810 N   0  0  0  0  0  0  0  0  0  0  0  0
  2 13  1  0  0  0  0
  2  1  2  0  0  0  0
  3  8  1  0  0  0  0
  3 13  1  0  0  0  0
  4  7  1  0  0  0  0
  4 19  1  0  0  0  0
  5  9  1  0  0  0  0
  5 12  2  0  0  0  0
  6 17  1  0  0  0  0
  7  3  2  0  0  0  0
  9 15  1  0  0  0  0
 10 12  1  0  0  0  0
 10  7  1  0  0  0  0
 11 20  1  0  0  0  0
 11 16  1  1  0  0  0
 12 11  1  0  0  0  0
 13 21  1  0  0  0  0
 14 18  1  0  0  0  0
 14  6  2  0  0  0  0
 15 20  2  0  0  0  0
 16  8  1  0  0  0  0
 17 19  2  0  0  0  0
 18  4  2  0  0  0  0
 19  2  1  0  0  0  0
 21 23  1  0  0  0  0
 22 25  1  0  0  0  0
 23 22  1  0  0  0  0
 23 24  2  0  0  0  0
 26 31  1  0  0  0  0
 27 26  1  0  0  0  0
 27 28  1  0  0  0  0
 28 30  1  0  0  0  0
 30 29  1  0  0  0  0
 31 29  1  0  0  0  0
 31 25  1  0  0  0  0
M  END
>  <MODEL>
3

>  <REMARK>
 VINA RESULT:      -7.3      3.614      6.842
  Name = 
  4 active torsions:
  status: ('A' for Active; 'I' for Inactive)
    1  A    between atoms: C_2  and  N_9
    2  A    between atoms: C_2  and  N_30
    3  A    between atoms: C_8  and  C_13
    4  A    between atoms: C_8  and  N_22
                            x       y       z     vdW  Elec       q    Type
                         _______ _______ _______ _____ _____    ______ ____

>  <TORSDO>
F 4

$$$$
=
 OpenBabel11072412133D

 31 35  0  0  1  0  0  0  0  0999 V2000
  162.0190  211.3400  148.2890 S   0  0  0  0  0  0  0  0  0  0  0  0
  161.5700  211.0640  149.8600 C   0  0  0  0  0  0  0  0  0  0  0  0
  161.6040  209.6750  151.8170 C   0  0  0  0  0  0  0  0  0  0  0  0
  160.4510  211.8020  151.8890 C   0  0  0  0  0  0  0  0  0  0  0  0
  160.1450  209.5290  156.1080 N   0  0  0  0  0  0  0  0  0  0  0  0
  159.6720  214.1700  150.6520 C   0  0  0  0  0  3  0  0  0  0  0  0
  160.8310  210.6170  152.5340 C   0  0  0  0  0  0  0  0  0  0  0  0
  162.0770  208.4260  152.4900 C   0  0  0  0  0  2  0  0  0  0  0  0
  160.0570  208.5130  157.0060 C   0  0  0  0  0  2  0  0  0  0  0  0
  160.4540  210.4490  153.9170 N   0  0  0  0  0  2  0  0  0  0  0  0
  160.5850  207.9760  154.3570 C   0  0  1  0  0  3  0  0  0  0  0  0
  160.4080  209.3080  154.7920 C   0  0  0  0  0  0  0  0  0  0  0  0
  161.9430  209.9040  150.5030 N   0  0  0  0  0  0  0  0  0  0  0  0
  159.3310  213.9230  151.9420 N   0  0  0  0  0  0  0  0  0  0  0  0
  160.2340  207.2030  156.5720 C   0  0  0  0  0  3  0  0  0  0  0  0
  160.8810  207.6270  152.9450 C   0  0  0  0  0  2  0  0  0  0  0  0
  160.4160  213.2340  149.9350 C   0  0  0  0  0  3  0  0  0  0  0  0
  159.7000  212.7740  152.5660 C   0  0  0  0  0  3  0  0  0  0  0  0
  160.8160  212.0340  150.5490 C   0  0  0  0  0  0  0  0  0  0  0  0
  160.4910  206.9650  155.2610 N   0  0  0  0  0  0  0  0  0  0  0  0
  162.7100  208.8830  149.7780 C   0  0  0  0  0  2  0  0  0  0  0  0
  161.6280  206.6050  149.8650 N   0  0  0  0  0  2  0  0  0  0  0  0
  161.7980  207.8540  149.1980 C   0  0  0  0  0  0  0  0  0  0  0  0
  161.1960  208.0900  148.1180 O   0  0  0  0  0  0  0  0  0  0  0  0
  160.7710  205.5470  149.3390 C   0  0  0  0  0  2  0  0  0  0  0  0
  160.8420  203.8740  151.0400 C   0  0  0  0  0  2  0  0  0  0  0  0
  161.2050  202.4280  151.3740 C   0  0  0  0  0  2  0  0  0  0  0  0
  161.0500  201.5480  150.1340 C   0  0  0  0  0  2  0  0  0  0  0  0
  160.8300  203.2480  148.6670 C   0  0  0  0  0  2  0  0  0  0  0  0
  160.1550  202.1430  149.2300 O   0  0  0  0  0  0  0  0  0  0  0  0
  161.2850  204.2220  149.6830 N   0  0  0  0  0  0  0  0  0  0  0  0
  1  2  2  0  0  0  0
  2 13  1  0  0  0  0
  2 19  1  0  0  0  0
  3  8  1  0  0  0  0
  3  7  2  0  0  0  0
  4  7  1  0  0  0  0
  4 18  1  0  0  0  0
  5  9  1  0  0  0  0
  6 14  1  0  0  0  0
  7 10  1  0  0  0  0
  8 16  1  0  0  0  0
 10 12  1  0  0  0  0
 11 16  1  1  0  0  0
 11 12  1  0  0  0  0
 11 20  1  0  0  0  0
 12  5  2  0  0  0  0
 13  3  1  0  0  0  0
 14 18  2  0  0  0  0
 15  9  1  0  0  0  0
 17 19  1  0  0  0  0
 17  6  2  0  0  0  0
 19  4  2  0  0  0  0
 20 15  2  0  0  0  0
 21 13  1  0  0  0  0
 23 21  1  0  0  0  0
 23 22  1  0  0  0  0
 24 23  2  0  0  0  0
 25 31  1  0  0  0  0
 25 22  1  0  0  0  0
 26 27  1  0  0  0  0
 28 27  1  0  0  0  0
 29 30  1  0  0  0  0
 29 31  1  0  0  0  0
 30 28  1  0  0  0  0
 31 26  1  0  0  0  0
M  END
>  <MODEL>
4

>  <REMARK>
 VINA RESULT:      -7.1      2.804      7.253
  Name = 
  4 active torsions:
  status: ('A' for Active; 'I' for Inactive)
    1  A    between atoms: C_2  and  N_9
    2  A    between atoms: C_2  and  N_30
    3  A    between atoms: C_8  and  C_13
    4  A    between atoms: C_8  and  N_22
                            x       y       z     vdW  Elec       q    Type
                         _______ _______ _______ _____ _____    ______ ____

>  <TORSDO>
F 4

$$$$
=
 OpenBabel11072412133D

 31 35  0  0  0  0  0  0  0  0999 V2000
  162.4010  205.8040  152.2920 S   0  0  0  0  0  0  0  0  0  0  0  0
  161.8770  207.3550  152.0350 C   0  0  0  0  0  0  0  0  0  0  0  0
  161.5700  209.2270  150.5640 C   0  0  0  0  0  0  0  0  0  0  0  0
  160.8010  209.3760  152.8540 C   0  0  0  0  0  0  0  0  0  0  0  0
  159.8840  213.4360  150.4580 N   0  0  0  0  0  0  0  0  0  0  0  0
  160.4620  208.2300  155.3670 C   0  0  0  0  0  3  0  0  0  0  0  0
  160.9610  209.9750  151.5970 C   0  0  0  0  0  0  0  0  0  0  0  0
  161.7050  209.8120  149.1940 C   0  0  0  0  0  2  0  0  0  0  0  0
  160.0320  214.4530  149.5710 C   0  0  0  0  0  3  0  0  0  0  0  0
  160.4450  211.3110  151.4150 N   0  0  0  0  0  2  0  0  0  0  0  0
  161.6550  212.2340  149.4120 C   0  0  0  0  0  0  0  0  0  0  0  0
  160.6620  212.3200  150.4120 C   0  0  0  0  0  0  0  0  0  0  0  0
  162.0270  207.9510  150.8020 N   0  0  0  0  0  0  0  0  0  0  0  0
  160.0300  209.4930  155.1230 N   0  0  0  0  0  0  0  0  0  0  0  0
  161.0100  214.3620  148.5850 C   0  0  0  0  0  3  0  0  0  0  0  0
  162.5510  211.0590  149.2710 C   0  0  0  0  0  2  0  0  0  0  0  0
  161.0810  207.4960  154.3570 C   0  0  0  0  0  3  0  0  0  0  0  0
  160.1850  210.0730  153.9040 C   0  0  0  0  0  3  0  0  0  0  0  0
  161.2580  208.0640  153.0830 C   0  0  0  0  0  0  0  0  0  0  0  0
  161.7990  213.2580  148.5300 N   0  0  0  0  0  0  0  0  0  0  0  0
  162.6930  207.2200  149.7150 C   0  0  0  0  0  2  0  0  0  0  0  0
  162.1280  205.6900  147.7890 N   0  0  0  0  0  2  0  0  0  0  0  0
  161.7070  206.4010  148.9510 C   0  0  0  0  0  0  0  0  0  0  0  0
  160.5070  206.3550  149.3290 O   0  0  0  0  0  0  0  0  0  0  0  0
  161.2090  204.8920  146.9840 C   0  0  0  0  0  2  0  0  0  0  0  0
  160.9560  202.8480  148.1900 C   0  0  0  0  0  2  0  0  0  0  0  0
  161.1550  201.3330  148.1640 C   0  0  0  0  0  2  0  0  0  0  0  0
  161.0570  200.8150  146.7300 C   0  0  0  0  0  2  0  0  0  0  0  0
  161.1410  202.8430  145.7430 C   0  0  0  0  0  2  0  0  0  0  0  0
  160.3170  201.7140  145.9430 O   0  0  0  0  0  0  0  0  0  0  0  0
  161.5680  203.4740  147.0110 N   0  0  0  0  0  0  0  0  0  0  0  0
  2  1  2  0  0  0  0
  2 19  1  0  0  0  0
  3 13  1  0  0  0  0
  3  7  2  0  0  0  0
  4 19  2  0  0  0  0
  4 18  1  0  0  0  0
  7  4  1  0  0  0  0
  8 16  1  0  0  0  0
  8  3  1  0  0  0  0
  9  5  1  0  0  0  0
 10  7  1  0  0  0  0
 11 12  1  0  0  0  0
 12  5  2  0  0  0  0
 12 10  1  0  0  0  0
 13  2  1  0  0  0  0
 14  6  1  0  0  0  0
 15  9  2  0  0  0  0
 16 11  1  0  0  0  0
 17  6  2  0  0  0  0
 18 14  2  0  0  0  0
 19 17  1  0  0  0  0
 20 15  1  0  0  0  0
 20 11  2  0  0  0  0
 21 13  1  0  0  0  0
 22 23  1  0  0  0  0
 23 24  2  0  0  0  0
 23 21  1  0  0  0  0
 25 31  1  0  0  0  0
 25 22  1  0  0  0  0
 27 26  1  0  0  0  0
 28 27  1  0  0  0  0
 29 30  1  0  0  0  0
 29 31  1  0  0  0  0
 30 28  1  0  0  0  0
 31 26  1  0  0  0  0
M  END
>  <MODEL>
5

>  <REMARK>
 VINA RESULT:      -7.0      2.642      7.268
  Name = 
  4 active torsions:
  status: ('A' for Active; 'I' for Inactive)
    1  A    between atoms: C_2  and  N_9
    2  A    between atoms: C_2  and  N_30
    3  A    between atoms: C_8  and  C_13
    4  A    between atoms: C_8  and  N_22
                            x       y       z     vdW  Elec       q    Type
                         _______ _______ _______ _____ _____    ______ ____

>  <TORSDO>
F 4

$$$$
=
 OpenBabel11072412133D

 31 35  0  0  0  0  0  0  0  0999 V2000
  161.8880  211.1240  154.4250 S   0  0  0  0  0  0  0  0  0  0  0  0
  161.6120  209.5730  153.9100 C   0  0  0  0  0  0  0  0  0  0  0  0
  161.8190  207.8760  152.2260 C   0  0  0  0  0  0  0  0  0  0  0  0
  160.7600  207.3360  154.3340 C   0  0  0  0  0  0  0  0  0  0  0  0
  160.8560  203.5170  151.4230 N   0  0  0  0  0  0  0  0  0  0  0  0
  159.9300  208.0860  156.8820 C   0  0  0  0  0  3  0  0  0  0  0  0
  161.1680  206.9340  153.0550 C   0  0  0  0  0  0  0  0  0  0  0  0
  162.3200  207.4670  150.8780 C   0  0  0  0  0  2  0  0  0  0  0  0
  160.8340  202.7860  150.2790 C   0  0  0  0  0  3  0  0  0  0  0  0
  160.9450  205.5590  152.6750 N   0  0  0  0  0  2  0  0  0  0  0  0
  161.0360  205.5300  150.1610 C   0  0  0  0  0  0  0  0  0  0  0  0
  160.9590  204.8740  151.4100 C   0  0  0  0  0  0  0  0  0  0  0  0
  162.0130  209.1680  152.6560 N   0  0  0  0  0  0  0  0  0  0  0  0
  159.7300  206.8190  156.4380 N   0  0  0  0  0  0  0  0  0  0  0  0
  160.9130  203.4370  149.0510 C   0  0  0  0  0  3  0  0  0  0  0  0
  161.1560  207.0040  150.0370 C   0  0  0  0  0  2  0  0  0  0  0  0
  160.5530  209.0240  156.0600 C   0  0  0  0  0  3  0  0  0  0  0  0
  160.1270  206.4310  155.1990 C   0  0  0  0  0  3  0  0  0  0  0  0
  160.9770  208.6560  154.7710 C   0  0  0  0  0  0  0  0  0  0  0  0
  161.0100  204.7910  149.0210 N   0  0  0  0  0  0  0  0  0  0  0  0
  162.6560  210.1300  151.7500 C   0  0  0  0  0  2  0  0  0  0  0  0
  161.9670  211.2810  149.6120 N   0  0  0  0  0  2  0  0  0  0  0  0
  161.6330  210.8390  150.9260 C   0  0  0  0  0  0  0  0  0  0  0  0
  160.4870  211.0530  151.4010 O   0  0  0  0  0  0  0  0  0  0  0  0
  161.0220  212.0010  148.7650 C   0  0  0  0  0  2  0  0  0  0  0  0
  160.4440  212.6340  146.5370 C   0  0  0  0  0  2  0  0  0  0  0  0
  160.9690  212.9560  145.1400 C   0  0  0  0  0  2  0  0  0  0  0  0
  162.3770  213.5430  145.2300 C   0  0  0  0  0  2  0  0  0  0  0  0
  162.7080  213.0210  147.4010 C   0  0  0  0  0  2  0  0  0  0  0  0
  162.5840  214.1030  146.5020 O   0  0  0  0  0  0  0  0  0  0  0  0
  161.5240  212.1340  147.3970 N   0  0  0  0  0  0  0  0  0  0  0  0
  2  1  2  0  0  0  0
  2 19  1  0  0  0  0
  3 13  1  0  0  0  0
  3  7  2  0  0  0  0
  4 19  2  0  0  0  0
  4 18  1  0  0  0  0
  7  4  1  0  0  0  0
  8  3  1  0  0  0  0
  9  5  1  0  0  0  0
 10  7  1  0  0  0  0
 11 12  1  0  0  0  0
 12  5  2  0  0  0  0
 12 10  1  0  0  0  0
 13  2  1  0  0  0  0
 14  6  1  0  0  0  0
 15  9  2  0  0  0  0
 16 11  1  0  0  0  0
 16  8  1  0  0  0  0
 17  6  2  0  0  0  0
 18 14  2  0  0  0  0
 19 17  1  0  0  0  0
 20 15  1  0  0  0  0
 20 11  2  0  0  0  0
 21 13  1  0  0  0  0
 22 23  1  0  0  0  0
 23 24  2  0  0  0  0
 23 21  1  0  0  0  0
 25 22  1  0  0  0  0
 26 31  1  0  0  0  0
 27 28  1  0  0  0  0
 27 26  1  0  0  0  0
 28 30  1  0  0  0  0
 30 29  1  0  0  0  0
 31 29  1  0  0  0  0
 31 25  1  0  0  0  0
M  END
>  <MODEL>
6

>  <REMARK>
 VINA RESULT:      -7.0      2.449      5.285
  Name = 
  4 active torsions:
  status: ('A' for Active; 'I' for Inactive)
    1  A    between atoms: C_2  and  N_9
    2  A    between atoms: C_2  and  N_30
    3  A    between atoms: C_8  and  C_13
    4  A    between atoms: C_8  and  N_22
                            x       y       z     vdW  Elec       q    Type
                         _______ _______ _______ _____ _____    ______ ____

>  <TORSDO>
F 4

$$$$
=
 OpenBabel11072412133D

 31 35  0  0  1  0  0  0  0  0999 V2000
  162.7710  207.5300  148.4670 S   0  0  0  0  0  0  0  0  0  0  0  0
  162.2980  208.4470  149.7630 C   0  0  0  0  0  0  0  0  0  0  0  0
  161.9040  208.6630  152.1210 C   0  0  0  0  0  0  0  0  0  0  0  0
  161.5570  210.5740  150.6780 C   0  0  0  0  0  0  0  0  0  0  0  0
  160.6030  211.6710  155.2550 N   0  0  0  0  0  0  0  0  0  0  0  0
  161.6060  211.7300  148.1470 C   0  0  0  0  0  3  0  0  0  0  0  0
  161.5230  210.0150  151.9620 C   0  0  0  0  0  0  0  0  0  0  0  0
  161.9370  208.0490  153.4850 C   0  0  0  0  0  2  0  0  0  0  0  0
  160.1950  211.5260  156.5420 C   0  0  0  0  0  2  0  0  0  0  0  0
  161.1490  210.8710  153.0630 N   0  0  0  0  0  2  0  0  0  0  0  0
  160.4330  209.3210  154.9100 C   0  0  1  0  0  3  0  0  0  0  0  0
  160.7380  210.6080  154.4170 C   0  0  0  0  0  0  0  0  0  0  0  0
  162.2660  207.9060  151.0300 N   0  0  0  0  0  0  0  0  0  0  0  0
  161.2360  212.4600  149.2300 N   0  0  0  0  0  0  0  0  0  0  0  0
  159.8990  210.2550  157.0240 C   0  0  0  0  0  3  0  0  0  0  0  0
  160.5520  208.0960  154.0810 C   0  0  0  0  0  2  0  0  0  0  0  0
  161.9630  210.3910  148.2970 C   0  0  0  0  0  3  0  0  0  0  0  0
  161.2050  211.9170  150.4740 C   0  0  0  0  0  3  0  0  0  0  0  0
  161.9420  209.7960  149.5700 C   0  0  0  0  0  0  0  0  0  0  0  0
  160.0220  209.1850  156.1990 N   0  0  0  0  0  0  0  0  0  0  0  0
  162.6150  206.4930  151.2290 C   0  0  0  0  0  2  0  0  0  0  0  0
  161.5540  204.2070  151.0880 N   0  0  0  0  0  2  0  0  0  0  0  0
  161.4130  205.6260  151.0530 C   0  0  0  0  0  0  0  0  0  0  0  0
  160.2850  206.1520  150.8620 O   0  0  0  0  0  0  0  0  0  0  0  0
  160.4250  203.3040  150.8990 C   0  0  0  0  0  2  0  0  0  0  0  0
  161.3480  203.5510  148.7110 C   0  0  0  0  0  2  0  0  0  0  0  0
  161.3450  203.0340  147.2740 C   0  0  0  0  0  2  0  0  0  0  0  0
  160.9890  201.5480  147.2510 C   0  0  0  0  0  2  0  0  0  0  0  0
  160.3020  201.4390  149.3980 C   0  0  0  0  0  2  0  0  0  0  0  0
  161.2780  200.9640  148.4950 O   0  0  0  0  0  0  0  0  0  0  0  0
  160.2810  202.9150  149.4950 N   0  0  0  0  0  0  0  0  0  0  0  0
  1  2  2  0  0  0  0
  2 13  1  0  0  0  0
  3  8  1  0  0  0  0
  4  7  1  0  0  0  0
  5  9  1  0  0  0  0
  6 17  2  0  0  0  0
  6 14  1  0  0  0  0
  7  3  2  0  0  0  0
  7 10  1  0  0  0  0
  8 16  1  0  0  0  0
  9 15  1  0  0  0  0
 10 12  1  0  0  0  0
 11 16  1  1  0  0  0
 11 20  1  0  0  0  0
 12 11  1  0  0  0  0
 12  5  2  0  0  0  0
 13 21  1  0  0  0  0
 13  3  1  0  0  0  0
 14 18  2  0  0  0  0
 17 19  1  0  0  0  0
 18  4  1  0  0  0  0
 19  2  1  0  0  0  0
 19  4  2  0  0  0  0
 20 15  2  0  0  0  0
 23 22  1  0  0  0  0
 23 21  1  0  0  0  0
 24 23  2  0  0  0  0
 25 22  1  0  0  0  0
 26 31  1  0  0  0  0
 27 26  1  0  0  0  0
 28 27  1  0  0  0  0
 28 30  1  0  0  0  0
 29 31  1  0  0  0  0
 30 29  1  0  0  0  0
 31 25  1  0  0  0  0
M  END
>  <MODEL>
7

>  <REMARK>
 VINA RESULT:      -6.8      2.457      7.000
  Name = 
  4 active torsions:
  status: ('A' for Active; 'I' for Inactive)
    1  A    between atoms: C_2  and  N_9
    2  A    between atoms: C_2  and  N_30
    3  A    between atoms: C_8  and  C_13
    4  A    between atoms: C_8  and  N_22
                            x       y       z     vdW  Elec       q    Type
                         _______ _______ _______ _____ _____    ______ ____

>  <TORSDO>
F 4

$$$$
=
 OpenBabel11072412133D

 31 35  0  0  1  0  0  0  0  0999 V2000
  161.5070  213.9740  145.5660 S   0  0  0  0  0  0  0  0  0  0  0  0
  160.3540  214.0300  146.7550 C   0  0  0  0  0  0  0  0  0  0  0  0
  159.7690  214.0590  149.0820 C   0  0  0  0  0  0  0  0  0  0  0  0
  158.0210  214.2080  147.4160 C   0  0  0  0  0  0  0  0  0  0  0  0
  156.1900  214.3250  151.8540 N   0  0  0  0  0  0  0  0  0  0  0  0
  157.2280  214.3150  144.7500 C   0  0  0  0  0  3  0  0  0  0  0  0
  158.3960  214.1560  148.7650 C   0  0  0  0  0  0  0  0  0  0  0  0
  160.2100  214.0600  150.5110 C   0  0  0  0  0  2  0  0  0  0  0  0
  156.0440  214.0700  153.1800 C   0  0  0  0  0  2  0  0  0  0  0  0
  157.3540  214.2560  149.7600 N   0  0  0  0  0  2  0  0  0  0  0  0
  158.3400  213.3010  151.8680 C   0  0  1  0  0  3  0  0  0  0  0  0
  157.3090  213.9660  151.1690 C   0  0  0  0  0  0  0  0  0  0  0  0
  160.7130  213.9830  148.0840 N   0  0  0  0  0  0  0  0  0  0  0  0
  156.3070  214.3730  145.7460 N   0  0  0  0  0  0  0  0  0  0  0  0
  157.0640  213.4170  153.8650 C   0  0  0  0  0  3  0  0  0  0  0  0
  159.6030  212.8730  151.2160 C   0  0  0  0  0  2  0  0  0  0  0  0
  158.5820  214.1990  145.0590 C   0  0  0  0  0  3  0  0  0  0  0  0
  156.6710  214.3230  147.0530 C   0  0  0  0  0  3  0  0  0  0  0  0
  158.9950  214.1450  146.4010 C   0  0  0  0  0  0  0  0  0  0  0  0
  158.1850  213.0470  153.1940 N   0  0  0  0  0  0  0  0  0  0  0  0
  162.1290  213.8410  148.4520 C   0  0  0  0  0  2  0  0  0  0  0  0
  161.8650  211.3520  148.7730 N   0  0  0  0  0  2  0  0  0  0  0  0
  162.5950  212.4430  148.2170 C   0  0  0  0  0  0  0  0  0  0  0  0
  163.6360  212.2380  147.5400 O   0  0  0  0  0  0  0  0  0  0  0  0
  162.2810  209.9640  148.6020 C   0  0  0  0  0  2  0  0  0  0  0  0
  161.5600  207.7120  148.9320 C   0  0  0  0  0  2  0  0  0  0  0  0
  160.9540  206.7120  149.9150 C   0  0  0  0  0  2  0  0  0  0  0  0
  161.3320  207.0880  151.3470 C   0  0  0  0  0  2  0  0  0  0  0  0
  162.1360  209.1370  150.8460 C   0  0  0  0  0  2  0  0  0  0  0  0
  162.5000  207.8680  151.3470 O   0  0  0  0  0  0  0  0  0  0  0  0
  161.5410  209.0700  149.4930 N   0  0  0  0  0  0  0  0  0  0  0  0
  1  2  2  0  0  0  0
  2 13  1  0  0  0  0
  3  8  1  0  0  0  0
  4  7  1  0  0  0  0
  5  9  1  0  0  0  0
  6 17  2  0  0  0  0
  6 14  1  0  0  0  0
  7  3  2  0  0  0  0
  7 10  1  0  0  0  0
  8 16  1  0  0  0  0
  9 15  1  0  0  0  0
 10 12  1  0  0  0  0
 11 16  1  1  0  0  0
 11 20  1  0  0  0  0
 12  5  2  0  0  0  0
 12 11  1  0  0  0  0
 13 21  1  0  0  0  0
 13  3  1  0  0  0  0
 14 18  2  0  0  0  0
 17 19  1  0  0  0  0
 18  4  1  0  0  0  0
 19  2  1  0  0  0  0
 19  4  2  0  0  0  0
 20 15  2  0  0  0  0
 23 21  1  0  0  0  0
 23 22  1  0  0  0  0
 24 23  2  0  0  0  0
 25 22  1  0  0  0  0
 25 31  1  0  0  0  0
 26 31  1  0  0  0  0
 26 27  1  0  0  0  0
 27 28  1  0  0  0  0
 28 30  1  0  0  0  0
 29 30  1  0  0  0  0
 31 29  1  0  0  0  0
M  END
>  <MODEL>
8

>  <REMARK>
 VINA RESULT:      -6.7      4.250      8.510
  Name = 
  4 active torsions:
  status: ('A' for Active; 'I' for Inactive)
    1  A    between atoms: C_2  and  N_9
    2  A    between atoms: C_2  and  N_30
    3  A    between atoms: C_8  and  C_13
    4  A    between atoms: C_8  and  N_22
                            x       y       z     vdW  Elec       q    Type
                         _______ _______ _______ _____ _____    ______ ____

>  <TORSDO>
F 4

$$$$
=
 OpenBabel11072412133D

 31 35  0  0  0  0  0  0  0  0999 V2000
  162.0940  210.5250  153.0030 S   0  0  0  0  0  0  0  0  0  0  0  0
  161.9180  209.1800  152.0500 C   0  0  0  0  0  0  0  0  0  0  0  0
  162.1150  208.1090  149.9120 C   0  0  0  0  0  0  0  0  0  0  0  0
  161.3330  206.8320  151.8120 C   0  0  0  0  0  0  0  0  0  0  0  0
  161.5010  204.1130  147.8570 N   0  0  0  0  0  0  0  0  0  0  0  0
  160.6980  206.6700  154.5170 C   0  0  0  0  0  3  0  0  0  0  0  0
  161.6460  206.8890  150.4470 C   0  0  0  0  0  0  0  0  0  0  0  0
  162.5150  208.1910  148.4730 C   0  0  0  0  0  2  0  0  0  0  0  0
  161.4330  203.7640  146.5470 C   0  0  0  0  0  3  0  0  0  0  0  0
  161.5190  205.6760  149.6740 N   0  0  0  0  0  2  0  0  0  0  0  0
  161.3570  206.4180  147.2760 C   0  0  0  0  0  0  0  0  0  0  0  0
  161.4700  205.4120  148.2610 C   0  0  0  0  0  0  0  0  0  0  0  0
  162.2270  209.2250  150.7090 N   0  0  0  0  0  0  0  0  0  0  0  0
  160.5770  205.5820  153.7150 N   0  0  0  0  0  0  0  0  0  0  0  0
  161.3240  204.7600  145.5810 C   0  0  0  0  0  3  0  0  0  0  0  0
  161.3210  207.8640  147.6100 C   0  0  0  0  0  2  0  0  0  0  0  0
  161.1400  207.8810  153.9880 C   0  0  0  0  0  3  0  0  0  0  0  0
  160.8810  205.6370  152.3930 C   0  0  0  0  0  3  0  0  0  0  0  0
  161.4650  207.9760  152.6230 C   0  0  0  0  0  0  0  0  0  0  0  0
  161.2870  206.0610  145.9670 N   0  0  0  0  0  0  0  0  0  0  0  0
  162.6780  210.4880  150.1060 C   0  0  0  0  0  2  0  0  0  0  0  0
  161.4050  211.5680  148.2140 N   0  0  0  0  0  2  0  0  0  0  0  0
  161.5140  211.2760  149.6060 C   0  0  0  0  0  0  0  0  0  0  0  0
  160.6440  211.6890  150.4170 O   0  0  0  0  0  0  0  0  0  0  0  0
  160.3060  212.3540  147.6640 C   0  0  0  0  0  2  0  0  0  0  0  0
  162.1850  212.9780  146.3300 C   0  0  0  0  0  2  0  0  0  0  0  0
  162.6480  213.6150  145.0210 C   0  0  0  0  0  2  0  0  0  0  0  0
  161.6030  213.3890  143.9280 C   0  0  0  0  0  2  0  0  0  0  0  0
  159.9750  212.6570  145.3100 C   0  0  0  0  0  2  0  0  0  0  0  0
  160.8130  212.2700  144.2410 O   0  0  0  0  0  0  0  0  0  0  0  0
  160.7320  213.1220  146.4930 N   0  0  0  0  0  0  0  0  0  0  0  0
  2 19  1  0  0  0  0
  2  1  2  0  0  0  0
  3  7  2  0  0  0  0
  3 13  1  0  0  0  0
  4 18  2  0  0  0  0
  4 19  1  0  0  0  0
  5 12  2  0  0  0  0
  7  4  1  0  0  0  0
  8  3  1  0  0  0  0
  9  5  1  0  0  0  0
 10  7  1  0  0  0  0
 11 16  1  0  0  0  0
 11 12  1  0  0  0  0
 12 10  1  0  0  0  0
 13  2  1  0  0  0  0
 14  6  2  0  0  0  0
 15 20  1  0  0  0  0
 15  9  2  0  0  0  0
 16  8  1  0  0  0  0
 17  6  1  0  0  0  0
 18 14  1  0  0  0  0
 19 17  2  0  0  0  0
 20 11  2  0  0  0  0
 21 13  1  0  0  0  0
 22 23  1  0  0  0  0
 23 21  1  0  0  0  0
 23 24  2  0  0  0  0
 25 22  1  0  0  0  0
 26 31  1  0  0  0  0
 27 26  1  0  0  0  0
 28 30  1  0  0  0  0
 28 27  1  0  0  0  0
 29 31  1  0  0  0  0
 30 29  1  0  0  0  0
 31 25  1  0  0  0  0
M  END
>  <MODEL>
9

>  <REMARK>
 VINA RESULT:      -6.5      2.608      5.233
  Name = 
  4 active torsions:
  status: ('A' for Active; 'I' for Inactive)
    1  A    between atoms: C_2  and  N_9
    2  A    between atoms: C_2  and  N_30
    3  A    between atoms: C_8  and  C_13
    4  A    between atoms: C_8  and  N_22
                            x       y       z     vdW  Elec       q    Type
                         _______ _______ _______ _____ _____    ______ ____

>  <TORSDO>
F 4

$$$$
