=
 OpenBabel11072415133D

 39 42  0  0  1  0  0  0  0  0999 V2000
  162.3190  211.2680  150.0750 N   0  0  0  0  0  2  0  0  0  0  0  0
  161.6030  209.0310  149.4930 C   0  0  2  0  0  3  0  0  0  0  0  0
  161.8940  210.4070  149.0380 C   0  0  0  0  0  0  0  0  0  0  0  0
  162.3190  210.5240  151.3200 C   0  0  2  0  0  3  0  0  0  0  0  0
  163.5920  210.6990  151.9970 N   0  0  0  0  0  1  0  0  0  0  0  0
  162.0170  206.1930  150.5100 C   0  0  2  0  0  3  0  0  0  0  0  0
  161.7400  210.8020  147.8540 O   0  0  0  0  0  0  0  0  0  0  0  0
  160.0650  209.0350  153.6190 C   0  0  2  0  0  3  0  0  0  0  0  0
  162.1390  209.0510  150.9240 C   0  0  1  0  0  3  0  0  0  0  0  0
  161.3370  208.4340  154.1460 C   0  0  2  0  0  3  0  0  0  0  0  0
  162.3880  207.9940  148.6950 C   0  0  0  0  0  2  0  0  0  0  0  0
  160.8960  206.8650  151.3110 C   0  0  0  0  0  2  0  0  0  0  0  0
  162.0790  207.9790  153.0600 O   0  0  0  0  0  0  0  0  0  0  0  0
  161.9580  206.5530  149.0120 C   0  0  2  0  0  3  0  0  0  0  0  0
  161.2980  208.2200  151.9130 C   0  0  1  0  0  0  0  0  0  0  0  0
  160.1170  208.9220  152.2280 O   0  0  0  0  0  0  0  0  0  0  0  0
  159.9700  210.4440  154.0090 N   0  0  0  0  0  0  0  0  0  0  0  0
  159.1110  211.0550  153.1560 O   0  0  0  0  0  1  0  0  0  0  0  0
  159.2410  210.5450  155.5840 S   0  0  0  0  0  0  0  0  0  0  0  0
  160.2800  210.8730  156.6200 O   0  0  0  0  0  0  0  0  0  0  0  0
  158.5370  209.0730  155.9610 F   0  0  0  0  0  0  0  0  0  0  0  0
  158.1760  211.6060  155.5870 O   0  0  0  0  0  0  0  0  0  0  0  0
  160.5190  206.3310  147.1280 O   0  0  0  0  0  0  0  0  0  0  0  0
  160.6690  206.1790  148.3310 C   0  0  0  0  0  3  0  0  0  0  0  0
  161.0500  207.2880  155.1120 C   0  0  0  0  0  2  0  0  0  0  0  0
  161.3510  207.6540  156.4260 O   0  0  0  0  0  1  0  0  0  0  0  0
  161.9750  204.6840  150.7060 C   0  0  0  0  0  2  0  0  0  0  0  0
  160.6460  204.1160  150.2210 C   0  0  2  0  0  3  0  0  0  0  0  0
  159.7090  203.8310  151.3840 C   0  0  0  0  0  1  0  0  0  0  0  0
  161.3280  200.5430  149.0290 C   0  0  0  0  0  3  0  0  0  0  0  0
  161.1980  200.7100  147.6490 C   0  0  0  0  0  3  0  0  0  0  0  0
  160.8450  202.9010  149.3630 C   0  0  0  0  0  0  0  0  0  0  0  0
  161.2930  201.4280  151.2950 N   0  0  0  0  0  1  0  0  0  0  0  0
  160.8930  201.9680  147.1140 C   0  0  0  0  0  0  0  0  0  0  0  0
  161.1540  201.6290  149.8910 C   0  0  0  0  0  0  0  0  0  0  0  0
  160.7190  203.0570  147.9790 C   0  0  0  0  0  3  0  0  0  0  0  0
  160.7570  202.1400  145.6600 C   0  0  0  0  0  0  0  0  0  0  0  0
  160.1050  201.1790  144.8980 O   0  0  0  0  0  0  0  0  0  0  0  0
  161.2310  203.1600  145.0910 O   0  0  0  0  0  1  0  0  0  0  0  0
  1  4  1  0  0  0  0
  2 11  1  6  0  0  0
  2  9  1  0  0  0  0
  3  2  1  0  0  0  0
  3  1  1  0  0  0  0
  4  5  1  6  0  0  0
  6 27  1  6  0  0  0
  6 12  1  0  0  0  0
  7  3  2  0  0  0  0
  8 17  1  6  0  0  0
  8 10  1  0  0  0  0
  9  4  1  0  0  0  0
  9 15  1  0  0  0  0
 10 25  1  0  0  0  0
 11 14  1  0  0  0  0
 12 15  1  0  0  0  0
 13 10  1  0  0  0  0
 14  6  1  0  0  0  0
 15 16  1  0  0  0  0
 15 13  1  0  0  0  0
 16  8  1  0  0  0  0
 17 19  1  0  0  0  0
 18 17  1  0  0  0  0
 19 22  2  0  0  0  0
 19 21  1  0  0  0  0
 19 20  2  0  0  0  0
 23 24  2  0  0  0  0
 24 14  1  0  0  0  0
 25 26  1  0  0  0  0
 28 27  1  0  0  0  0
 28 29  1  0  0  0  0
 30 35  1  0  0  0  0
 31 30  2  0  0  0  0
 32 35  2  0  0  0  0
 32 28  1  0  0  0  0
 34 31  1  0  0  0  0
 34 36  2  0  0  0  0
 35 33  1  0  0  0  0
 36 32  1  0  0  0  0
 37 34  1  0  0  0  0
 38 37  2  0  0  0  0
 39 37  1  0  0  0  0
M  END
>  <MODEL>
1

>  <REMARK>
 VINA RESULT:      -5.6      0.000      0.000
  Name = 
  8 active torsions:
  status: ('A' for Active; 'I' for Inactive)
    1  A    between atoms: N_1  and  C_17
    2  A    between atoms: N_1  and  S_19
    3  A    between atoms: C_2  and  C_27
    4  A    between atoms: C_9  and  C_11
    5  A    between atoms: C_9  and  C_25
    6  A    between atoms: C_15  and  C_28
    7  A    between atoms: C_16  and  C_25
    8  A    between atoms: C_20  and  C_34
                            x       y       z     vdW  Elec       q    Type
                         _______ _______ _______ _____ _____    ______ ____

>  <TORSDO>
F 8

$$$$
=
 OpenBabel11072415133D

 39 42  0  0  1  0  0  0  0  0999 V2000
  161.5610  209.0090  155.9210 N   0  0  0  0  0  2  0  0  0  0  0  0
  159.5650  210.1290  155.1330 C   0  0  2  0  0  3  0  0  0  0  0  0
  160.2100  209.3250  156.1920 C   0  0  0  0  0  0  0  0  0  0  0  0
  161.9130  209.5680  154.6290 C   0  0  2  0  0  3  0  0  0  0  0  0
  163.1450  210.3280  154.7420 N   0  0  0  0  0  1  0  0  0  0  0  0
  158.8580  212.4880  153.3460 C   0  0  2  0  0  3  0  0  0  0  0  0
  159.6150  208.9140  157.2220 O   0  0  0  0  0  0  0  0  0  0  0  0
  161.2210  209.1320  151.1780 C   0  0  2  0  0  3  0  0  0  0  0  0
  160.7560  210.5060  154.2530 C   0  0  1  0  0  3  0  0  0  0  0  0
  161.9340  210.4510  151.0880 C   0  0  2  0  0  3  0  0  0  0  0  0
  158.9500  211.4090  155.6920 C   0  0  0  0  0  2  0  0  0  0  0  0
  159.0830  211.2410  152.4820 C   0  0  0  0  0  2  0  0  0  0  0  0
  161.4390  211.2750  152.0950 O   0  0  0  0  0  0  0  0  0  0  0  0
  158.1060  212.1630  154.6520 C   0  0  2  0  0  3  0  0  0  0  0  0
  160.4270  210.5450  152.7480 C   0  0  1  0  0  0  0  0  0  0  0  0
  160.3370  209.2270  152.2540 O   0  0  0  0  0  0  0  0  0  0  0  0
  162.1840  208.0500  151.4070 N   0  0  0  0  0  0  0  0  0  0  0  0
  161.9770  207.5690  152.6580 O   0  0  0  0  0  1  0  0  0  0  0  0
  161.8300  206.7400  150.3210 S   0  0  0  0  0  0  0  0  0  0  0  0
  161.9180  205.4250  151.0440 O   0  0  0  0  0  0  0  0  0  0  0  0
  162.9390  206.7500  149.0660 F   0  0  0  0  0  0  0  0  0  0  0  0
  160.4500  206.9080  149.7500 O   0  0  0  0  0  0  0  0  0  0  0  0
  156.1610  210.9960  155.3750 O   0  0  0  0  0  0  0  0  0  0  0  0
  156.7520  211.5360  154.4530 C   0  0  0  0  0  3  0  0  0  0  0  0
  161.7310  211.0990  149.7220 C   0  0  0  0  0  2  0  0  0  0  0  0
  161.9140  210.1710  148.6950 O   0  0  0  0  0  1  0  0  0  0  0  0
  158.1220  213.5560  152.5490 C   0  0  0  0  0  2  0  0  0  0  0  0
  158.5440  213.5230  151.0850 C   0  0  2  0  0  3  0  0  0  0  0  0
  159.7410  214.4260  150.8330 C   0  0  0  0  0  1  0  0  0  0  0  0
  155.0870  214.4530  149.7320 C   0  0  0  0  0  3  0  0  0  0  0  0
  155.3470  214.4530  148.3600 C   0  0  0  0  0  3  0  0  0  0  0  0
  157.4010  213.8550  150.1730 C   0  0  0  0  0  0  0  0  0  0  0  0
  155.8090  214.1620  152.0370 N   0  0  0  0  0  1  0  0  0  0  0  0
  156.6290  214.1550  147.8830 C   0  0  0  0  0  0  0  0  0  0  0  0
  156.1040  214.1560  150.6430 C   0  0  0  0  0  0  0  0  0  0  0  0
  157.6480  213.8570  148.7960 C   0  0  0  0  0  3  0  0  0  0  0  0
  156.8990  214.1560  146.4360 C   0  0  0  0  0  0  0  0  0  0  0  0
  158.1950  214.3230  145.9660 O   0  0  0  0  0  1  0  0  0  0  0  0
  155.9570  214.0070  145.6120 O   0  0  0  0  0  0  0  0  0  0  0  0
  1  3  1  0  0  0  0
  2 11  1  1  0  0  0
  2  3  1  0  0  0  0
  3  7  2  0  0  0  0
  4  5  1  1  0  0  0
  4  1  1  0  0  0  0
  6 27  1  6  0  0  0
  6 14  1  0  0  0  0
  8 17  1  1  0  0  0
  8 16  1  0  0  0  0
  9  4  1  0  0  0  0
  9  2  1  0  0  0  0
 10  8  1  0  0  0  0
 10 13  1  0  0  0  0
 12 15  1  0  0  0  0
 12  6  1  0  0  0  0
 13 15  1  0  0  0  0
 14 11  1  0  0  0  0
 15  9  1  0  0  0  0
 16 15  1  0  0  0  0
 17 18  1  0  0  0  0
 19 20  2  0  0  0  0
 19 17  1  0  0  0  0
 21 19  1  0  0  0  0
 22 19  2  0  0  0  0
 24 14  1  0  0  0  0
 24 23  2  0  0  0  0
 25 10  1  0  0  0  0
 26 25  1  0  0  0  0
 28 27  1  0  0  0  0
 29 28  1  0  0  0  0
 30 35  1  0  0  0  0
 31 30  2  0  0  0  0
 32 35  2  0  0  0  0
 32 28  1  0  0  0  0
 34 31  1  0  0  0  0
 34 36  2  0  0  0  0
 35 33  1  0  0  0  0
 36 32  1  0  0  0  0
 37 34  1  0  0  0  0
 38 37  1  0  0  0  0
 39 37  2  0  0  0  0
M  END
>  <MODEL>
2

>  <REMARK>
 VINA RESULT:      -5.2      4.858      9.009
  Name = 
  8 active torsions:
  status: ('A' for Active; 'I' for Inactive)
    1  A    between atoms: N_1  and  C_17
    2  A    between atoms: N_1  and  S_19
    3  A    between atoms: C_2  and  C_27
    4  A    between atoms: C_9  and  C_11
    5  A    between atoms: C_9  and  C_25
    6  A    between atoms: C_15  and  C_28
    7  A    between atoms: C_16  and  C_25
    8  A    between atoms: C_20  and  C_34
                            x       y       z     vdW  Elec       q    Type
                         _______ _______ _______ _____ _____    ______ ____

>  <TORSDO>
F 8

$$$$
=
 OpenBabel11072415133D

 39 42  0  0  1  0  0  0  0  0999 V2000
  161.4670  205.8080  154.0130 N   0  0  0  0  0  2  0  0  0  0  0  0
  160.6400  207.9700  153.3070 C   0  0  2  0  0  3  0  0  0  0  0  0
  160.6550  206.9160  154.3430 C   0  0  0  0  0  0  0  0  0  0  0  0
  162.0440  206.0360  152.7000 C   0  0  2  0  0  3  0  0  0  0  0  0
  163.4780  205.8150  152.7490 N   0  0  0  0  0  1  0  0  0  0  0  0
  161.5520  210.2650  151.5300 C   0  0  2  0  0  3  0  0  0  0  0  0
  159.9790  206.9640  155.4040 O   0  0  0  0  0  0  0  0  0  0  0  0
  161.0910  206.2260  149.2900 C   0  0  2  0  0  3  0  0  0  0  0  0
  161.7530  207.5060  152.3690 C   0  0  1  0  0  3  0  0  0  0  0  0
  162.4820  206.7740  149.1530 C   0  0  2  0  0  3  0  0  0  0  0  0
  161.0230  209.3310  153.8800 C   0  0  0  0  0  2  0  0  0  0  0  0
  160.8810  209.1880  150.6700 C   0  0  0  0  0  2  0  0  0  0  0  0
  162.6810  207.7000  150.1740 O   0  0  0  0  0  0  0  0  0  0  0  0
  160.8240  210.4750  152.8730 C   0  0  2  0  0  3  0  0  0  0  0  0
  161.4650  207.7830  150.8800 C   0  0  1  0  0  0  0  0  0  0  0  0
  160.5230  206.8470  150.4050 O   0  0  0  0  0  0  0  0  0  0  0  0
  161.1330  204.7740  149.4850 N   0  0  0  0  0  0  0  0  0  0  0  0
  159.9280  204.3850  149.9700 O   0  0  0  0  0  1  0  0  0  0  0  0
  161.3040  204.0010  147.9380 S   0  0  0  0  0  0  0  0  0  0  0  0
  160.8350  202.5740  148.0140 O   0  0  0  0  0  0  0  0  0  0  0  0
  162.9160  204.0240  147.4860 F   0  0  0  0  0  0  0  0  0  0  0  0
  160.5000  204.7390  146.9050 O   0  0  0  0  0  0  0  0  0  0  0  0
  158.7100  211.1660  153.7230 O   0  0  0  0  0  0  0  0  0  0  0  0
  159.3790  210.8770  152.7430 C   0  0  0  0  0  3  0  0  0  0  0  0
  162.6900  207.4290  147.7920 C   0  0  0  0  0  2  0  0  0  0  0  0
  161.4680  207.7750  147.2110 O   0  0  0  0  0  1  0  0  0  0  0  0
  161.6490  211.5740  150.7580 C   0  0  0  0  0  2  0  0  0  0  0  0
  161.5850  211.3190  149.2570 C   0  0  2  0  0  3  0  0  0  0  0  0
  162.9740  211.1270  148.6680 C   0  0  0  0  0  1  0  0  0  0  0  0
  159.4750  214.4180  148.4880 C   0  0  0  0  0  3  0  0  0  0  0  0
  159.4430  214.3590  147.0940 C   0  0  0  0  0  3  0  0  0  0  0  0
  160.8290  212.4000  148.5450 C   0  0  0  0  0  0  0  0  0  0  0  0
  160.1760  213.5300  150.6420 N   0  0  0  0  0  1  0  0  0  0  0  0
  160.0990  213.3270  146.4140 C   0  0  0  0  0  0  0  0  0  0  0  0
  160.1620  213.4460  149.2200 C   0  0  0  0  0  0  0  0  0  0  0  0
  160.7880  212.3520  147.1470 C   0  0  0  0  0  3  0  0  0  0  0  0
  160.0630  213.2690  144.9440 C   0  0  0  0  0  0  0  0  0  0  0  0
  159.5950  212.1310  144.2980 O   0  0  0  0  0  1  0  0  0  0  0  0
  160.4570  214.2500  144.2570 O   0  0  0  0  0  0  0  0  0  0  0  0
  1  3  1  0  0  0  0
  2 11  1  1  0  0  0
  2  3  1  0  0  0  0
  3  7  2  0  0  0  0
  4  5  1  1  0  0  0
  4  1  1  0  0  0  0
  6 27  1  6  0  0  0
  6 14  1  0  0  0  0
  8 17  1  1  0  0  0
  8 16  1  0  0  0  0
  9  4  1  0  0  0  0
  9  2  1  0  0  0  0
 10  8  1  0  0  0  0
 10 13  1  0  0  0  0
 12 15  1  0  0  0  0
 12  6  1  0  0  0  0
 13 15  1  0  0  0  0
 14 11  1  0  0  0  0
 15  9  1  0  0  0  0
 16 15  1  0  0  0  0
 17 18  1  0  0  0  0
 19 20  2  0  0  0  0
 19 17  1  0  0  0  0
 21 19  1  0  0  0  0
 22 19  2  0  0  0  0
 24 14  1  0  0  0  0
 24 23  2  0  0  0  0
 25 10  1  0  0  0  0
 26 25  1  0  0  0  0
 28 27  1  0  0  0  0
 29 28  1  0  0  0  0
 30 35  1  0  0  0  0
 31 30  2  0  0  0  0
 32 35  2  0  0  0  0
 32 28  1  0  0  0  0
 34 31  1  0  0  0  0
 34 36  2  0  0  0  0
 35 33  1  0  0  0  0
 36 32  1  0  0  0  0
 37 34  1  0  0  0  0
 38 37  1  0  0  0  0
 39 37  2  0  0  0  0
M  END
>  <MODEL>
3

>  <REMARK>
 VINA RESULT:      -4.3      3.777      8.433
  Name = 
  8 active torsions:
  status: ('A' for Active; 'I' for Inactive)
    1  A    between atoms: N_1  and  C_17
    2  A    between atoms: N_1  and  S_19
    3  A    between atoms: C_2  and  C_27
    4  A    between atoms: C_9  and  C_11
    5  A    between atoms: C_9  and  C_25
    6  A    between atoms: C_15  and  C_28
    7  A    between atoms: C_16  and  C_25
    8  A    between atoms: C_20  and  C_34
                            x       y       z     vdW  Elec       q    Type
                         _______ _______ _______ _____ _____    ______ ____

>  <TORSDO>
F 8

$$$$
=
 OpenBabel11072415133D

 39 42  0  0  1  0  0  0  0  0999 V2000
  161.5990  205.8880  153.8530 N   0  0  0  0  0  2  0  0  0  0  0  0
  160.7860  208.0250  153.0570 C   0  0  2  0  0  3  0  0  0  0  0  0
  160.8190  207.0290  154.1490 C   0  0  0  0  0  0  0  0  0  0  0  0
  162.1330  206.0330  152.5110 C   0  0  2  0  0  3  0  0  0  0  0  0
  163.5640  205.7870  152.5230 N   0  0  0  0  0  1  0  0  0  0  0  0
  161.6780  210.2010  151.1260 C   0  0  2  0  0  3  0  0  0  0  0  0
  160.1810  207.1490  155.2270 O   0  0  0  0  0  0  0  0  0  0  0  0
  161.0660  206.0560  149.1290 C   0  0  2  0  0  3  0  0  0  0  0  0
  161.8580  207.4890  152.1090 C   0  0  1  0  0  3  0  0  0  0  0  0
  162.4620  206.5670  148.9160 C   0  0  2  0  0  3  0  0  0  0  0  0
  161.2140  209.4080  153.5410 C   0  0  0  0  0  2  0  0  0  0  0  0
  160.9580  209.0920  150.3500 C   0  0  0  0  0  2  0  0  0  0  0  0
  162.7120  207.5430  149.8770 O   0  0  0  0  0  0  0  0  0  0  0  0
  161.0010  210.4980  152.4800 C   0  0  2  0  0  3  0  0  0  0  0  0
  161.5240  207.6890  150.6180 C   0  0  1  0  0  0  0  0  0  0  0  0
  160.5490  206.7480  150.2270 O   0  0  0  0  0  0  0  0  0  0  0  0
  161.0890  204.6160  149.4030 N   0  0  0  0  0  0  0  0  0  0  0  0
  159.8750  204.2680  149.8970 O   0  0  0  0  0  1  0  0  0  0  0  0
  161.2640  203.7580  147.9020 S   0  0  0  0  0  0  0  0  0  0  0  0
  160.7860  202.3400  148.0530 O   0  0  0  0  0  0  0  0  0  0  0  0
  162.8790  203.7470  147.4590 F   0  0  0  0  0  0  0  0  0  0  0  0
  160.4700  204.4430  146.8250 O   0  0  0  0  0  0  0  0  0  0  0  0
  158.9050  211.1900  153.3710 O   0  0  0  0  0  0  0  0  0  0  0  0
  159.5600  210.9210  152.3760 C   0  0  0  0  0  3  0  0  0  0  0  0
  162.6340  207.1430  147.5140 C   0  0  0  0  0  2  0  0  0  0  0  0
  161.4020  207.5070  146.9680 O   0  0  0  0  0  1  0  0  0  0  0  0
  161.7720  211.4630  150.2800 C   0  0  0  0  0  2  0  0  0  0  0  0
  161.7490  211.1190  148.7960 C   0  0  2  0  0  3  0  0  0  0  0  0
  163.1110  210.6430  148.3160 C   0  0  0  0  0  1  0  0  0  0  0  0
  161.4660  214.4530  146.9390 C   0  0  0  0  0  3  0  0  0  0  0  0
  160.1770  214.3400  146.4160 C   0  0  0  0  0  3  0  0  0  0  0  0
  161.2430  212.2640  147.9710 C   0  0  0  0  0  0  0  0  0  0  0  0
  163.3240  213.5680  148.2370 N   0  0  0  0  0  1  0  0  0  0  0  0
  159.4100  213.1950  146.6640 C   0  0  0  0  0  0  0  0  0  0  0  0
  162.0050  213.4240  147.7150 C   0  0  0  0  0  0  0  0  0  0  0  0
  159.9520  212.1630  147.4420 C   0  0  0  0  0  3  0  0  0  0  0  0
  158.0520  213.0790  146.1100 C   0  0  0  0  0  0  0  0  0  0  0  0
  157.1120  212.2620  146.7250 O   0  0  0  0  0  1  0  0  0  0  0  0
  157.7290  213.7200  145.0750 O   0  0  0  0  0  0  0  0  0  0  0  0
  1  3  1  0  0  0  0
  2 11  1  1  0  0  0
  2  3  1  0  0  0  0
  3  7  2  0  0  0  0
  4  5  1  1  0  0  0
  4  1  1  0  0  0  0
  6 27  1  6  0  0  0
  6 14  1  0  0  0  0
  8 17  1  1  0  0  0
  8 16  1  0  0  0  0
  9  4  1  0  0  0  0
  9  2  1  0  0  0  0
 10  8  1  0  0  0  0
 10 13  1  0  0  0  0
 12 15  1  0  0  0  0
 12  6  1  0  0  0  0
 13 15  1  0  0  0  0
 14 11  1  0  0  0  0
 15  9  1  0  0  0  0
 16 15  1  0  0  0  0
 17 18  1  0  0  0  0
 19 20  2  0  0  0  0
 19 17  1  0  0  0  0
 21 19  1  0  0  0  0
 22 19  2  0  0  0  0
 24 14  1  0  0  0  0
 24 23  2  0  0  0  0
 25 10  1  0  0  0  0
 26 25  1  0  0  0  0
 28 27  1  0  0  0  0
 29 28  1  0  0  0  0
 30 35  1  0  0  0  0
 31 34  1  0  0  0  0
 31 30  2  0  0  0  0
 32 28  1  0  0  0  0
 34 36  2  0  0  0  0
 35 32  2  0  0  0  0
 35 33  1  0  0  0  0
 36 32  1  0  0  0  0
 37 34  1  0  0  0  0
 37 38  1  0  0  0  0
 39 37  2  0  0  0  0
M  END
>  <MODEL>
4

>  <REMARK>
 VINA RESULT:      -4.1      3.782      8.475
  Name = 
  8 active torsions:
  status: ('A' for Active; 'I' for Inactive)
    1  A    between atoms: N_1  and  C_17
    2  A    between atoms: N_1  and  S_19
    3  A    between atoms: C_2  and  C_27
    4  A    between atoms: C_9  and  C_11
    5  A    between atoms: C_9  and  C_25
    6  A    between atoms: C_15  and  C_28
    7  A    between atoms: C_16  and  C_25
    8  A    between atoms: C_20  and  C_34
                            x       y       z     vdW  Elec       q    Type
                         _______ _______ _______ _____ _____    ______ ____

>  <TORSDO>
F 8

$$$$
=
 OpenBabel11072415133D

 39 42  0  0  1  0  0  0  0  0999 V2000
  160.5810  213.8300  148.6030 N   0  0  0  0  0  2  0  0  0  0  0  0
  160.8440  211.4350  148.8300 C   0  0  2  0  0  3  0  0  0  0  0  0
  160.7130  212.5970  147.9250 C   0  0  0  0  0  0  0  0  0  0  0  0
  160.5910  213.5730  150.0310 C   0  0  2  0  0  3  0  0  0  0  0  0
  161.5500  214.4490  150.6810 N   0  0  0  0  0  1  0  0  0  0  0  0
  162.0220  209.4740  150.8360 C   0  0  2  0  0  3  0  0  0  0  0  0
  160.6750  212.5080  146.6710 O   0  0  0  0  0  0  0  0  0  0  0  0
  158.5940  212.0870  152.5580 C   0  0  2  0  0  3  0  0  0  0  0  0
  161.0320  212.1110  150.1870 C   0  0  1  0  0  3  0  0  0  0  0  0
  159.8590  212.2480  153.3520 C   0  0  2  0  0  3  0  0  0  0  0  0
  162.0930  210.6140  148.5190 C   0  0  0  0  0  2  0  0  0  0  0  0
  160.5970  209.8440  151.2610 C   0  0  0  0  0  2  0  0  0  0  0  0
  160.9200  211.8230  152.5580 O   0  0  0  0  0  0  0  0  0  0  0  0
  162.1480  209.2970  149.3090 C   0  0  2  0  0  3  0  0  0  0  0  0
  160.3580  211.3600  151.3520 C   0  0  1  0  0  0  0  0  0  0  0  0
  158.9660  211.5820  151.3100 O   0  0  0  0  0  0  0  0  0  0  0  0
  157.9250  213.3820  152.4000 N   0  0  0  0  0  0  0  0  0  0  0  0
  157.2510  213.3620  151.2240 O   0  0  0  0  0  1  0  0  0  0  0  0
  156.7220  213.5510  153.6430 S   0  0  0  0  0  0  0  0  0  0  0  0
  157.3000  214.2600  154.8360 O   0  0  0  0  0  0  0  0  0  0  0  0
  156.1970  212.0310  154.1120 F   0  0  0  0  0  0  0  0  0  0  0  0
  155.5480  214.3280  153.1170 O   0  0  0  0  0  0  0  0  0  0  0  0
  161.1980  208.0440  147.5230 O   0  0  0  0  0  0  0  0  0  0  0  0
  161.2450  208.2430  148.7270 C   0  0  0  0  0  3  0  0  0  0  0  0
  159.8060  211.4440  154.6470 C   0  0  0  0  0  2  0  0  0  0  0  0
  158.8540  210.4270  154.5670 O   0  0  0  0  0  1  0  0  0  0  0  0
  162.4810  208.2180  151.5650 C   0  0  0  0  0  2  0  0  0  0  0  0
  161.3030  207.5320  152.2470 C   0  0  2  0  0  3  0  0  0  0  0  0
  161.3670  207.6930  153.7580 C   0  0  0  0  0  1  0  0  0  0  0  0
  160.9430  203.7230  152.3410 C   0  0  0  0  0  3  0  0  0  0  0  0
  161.0260  203.4300  150.9780 C   0  0  0  0  0  3  0  0  0  0  0  0
  161.2000  206.0890  151.8500 C   0  0  0  0  0  0  0  0  0  0  0  0
  160.9410  205.3140  154.1820 N   0  0  0  0  0  1  0  0  0  0  0  0
  161.1980  204.4570  150.0430 C   0  0  0  0  0  0  0  0  0  0  0  0
  161.0280  205.0450  152.7850 C   0  0  0  0  0  0  0  0  0  0  0  0
  161.2840  205.7830  150.4880 C   0  0  0  0  0  3  0  0  0  0  0  0
  161.2850  204.1440  148.6080 C   0  0  0  0  0  0  0  0  0  0  0  0
  160.9920  202.8650  148.1500 O   0  0  0  0  0  1  0  0  0  0  0  0
  161.6270  205.0320  147.7810 O   0  0  0  0  0  0  0  0  0  0  0  0
  1  4  1  0  0  0  0
  2 11  1  6  0  0  0
  2  9  1  0  0  0  0
  3  1  1  0  0  0  0
  3  2  1  0  0  0  0
  4  9  1  0  0  0  0
  4  5  1  1  0  0  0
  6 12  1  0  0  0  0
  6 27  1  1  0  0  0
  7  3  2  0  0  0  0
  8 17  1  6  0  0  0
  8 10  1  0  0  0  0
  9 15  1  0  0  0  0
 10 25  1  0  0  0  0
 11 14  1  0  0  0  0
 12 15  1  0  0  0  0
 13 10  1  0  0  0  0
 14  6  1  0  0  0  0
 15 13  1  0  0  0  0
 16 15  1  0  0  0  0
 16  8  1  0  0  0  0
 17 19  1  0  0  0  0
 18 17  1  0  0  0  0
 19 21  1  0  0  0  0
 19 20  2  0  0  0  0
 22 19  2  0  0  0  0
 23 24  2  0  0  0  0
 24 14  1  0  0  0  0
 26 25  1  0  0  0  0
 27 28  1  0  0  0  0
 28 29  1  0  0  0  0
 30 35  1  0  0  0  0
 31 30  2  0  0  0  0
 32 28  1  0  0  0  0
 32 35  2  0  0  0  0
 34 36  2  0  0  0  0
 34 31  1  0  0  0  0
 35 33  1  0  0  0  0
 36 32  1  0  0  0  0
 37 34  1  0  0  0  0
 38 37  1  0  0  0  0
 39 37  2  0  0  0  0
M  END
>  <MODEL>
5

>  <REMARK>
 VINA RESULT:      -3.6      2.638      3.758
  Name = 
  8 active torsions:
  status: ('A' for Active; 'I' for Inactive)
    1  A    between atoms: N_1  and  C_17
    2  A    between atoms: N_1  and  S_19
    3  A    between atoms: C_2  and  C_27
    4  A    between atoms: C_9  and  C_11
    5  A    between atoms: C_9  and  C_25
    6  A    between atoms: C_15  and  C_28
    7  A    between atoms: C_16  and  C_25
    8  A    between atoms: C_20  and  C_34
                            x       y       z     vdW  Elec       q    Type
                         _______ _______ _______ _____ _____    ______ ____

>  <TORSDO>
F 8

$$$$
=
 OpenBabel11072415133D

 39 42  0  0  1  0  0  0  0  0999 V2000
  161.5830  205.8400  153.9030 N   0  0  0  0  0  2  0  0  0  0  0  0
  160.4480  207.9680  153.7100 C   0  0  2  0  0  3  0  0  0  0  0  0
  160.6400  206.7210  154.4790 C   0  0  0  0  0  0  0  0  0  0  0  0
  162.0800  206.4350  152.6760 C   0  0  2  0  0  3  0  0  0  0  0  0
  163.5310  206.4120  152.6710 N   0  0  0  0  0  1  0  0  0  0  0  0
  160.9820  210.7090  152.5000 C   0  0  2  0  0  3  0  0  0  0  0  0
  159.9990  206.4350  155.5230 O   0  0  0  0  0  0  0  0  0  0  0  0
  160.9970  207.2550  149.4000 C   0  0  2  0  0  3  0  0  0  0  0  0
  161.5820  207.8880  152.6890 C   0  0  1  0  0  3  0  0  0  0  0  0
  162.2970  208.0070  149.3900 C   0  0  2  0  0  3  0  0  0  0  0  0
  160.6620  209.2060  154.5770 C   0  0  0  0  0  2  0  0  0  0  0  0
  160.4350  209.7710  151.4180 C   0  0  0  0  0  2  0  0  0  0  0  0
  162.4020  208.6980  150.5940 O   0  0  0  0  0  0  0  0  0  0  0  0
  160.2770  210.5080  153.8570 C   0  0  2  0  0  3  0  0  0  0  0  0
  161.2100  208.4490  151.3030 C   0  0  1  0  0  0  0  0  0  0  0  0
  160.3880  207.5230  150.6280 O   0  0  0  0  0  0  0  0  0  0  0  0
  161.2420  205.8160  149.2600 N   0  0  0  0  0  0  0  0  0  0  0  0
  160.1350  205.1620  149.6910 O   0  0  0  0  0  1  0  0  0  0  0  0
  161.4030  205.4330  147.5730 S   0  0  0  0  0  0  0  0  0  0  0  0
  161.2160  203.9570  147.3530 O   0  0  0  0  0  0  0  0  0  0  0  0
  162.9320  205.8740  147.0500 F   0  0  0  0  0  0  0  0  0  0  0  0
  160.3800  206.1920  146.7750 O   0  0  0  0  0  0  0  0  0  0  0  0
  158.2080  211.2900  154.7370 O   0  0  0  0  0  0  0  0  0  0  0  0
  158.7880  210.7230  153.8240 C   0  0  0  0  0  3  0  0  0  0  0  0
  162.3690  208.9750  148.2130 C   0  0  0  0  0  2  0  0  0  0  0  0
  161.3660  209.9420  148.2980 O   0  0  0  0  0  1  0  0  0  0  0  0
  160.8760  212.1580  152.0460 C   0  0  0  0  0  2  0  0  0  0  0  0
  160.1650  212.2500  150.7010 C   0  0  2  0  0  3  0  0  0  0  0  0
  161.0660  212.8610  149.6390 C   0  0  0  0  0  1  0  0  0  0  0  0
  156.9050  214.0750  149.8710 C   0  0  0  0  0  3  0  0  0  0  0  0
  156.4500  214.3720  151.1570 C   0  0  0  0  0  3  0  0  0  0  0  0
  158.8650  212.9880  150.8120 C   0  0  0  0  0  0  0  0  0  0  0  0
  158.5470  213.0970  148.3650 N   0  0  0  0  0  1  0  0  0  0  0  0
  157.1940  213.9840  152.2780 C   0  0  0  0  0  0  0  0  0  0  0  0
  158.1070  213.3860  149.6900 C   0  0  0  0  0  0  0  0  0  0  0  0
  158.4000  213.2930  152.0960 C   0  0  0  0  0  3  0  0  0  0  0  0
  156.7110  214.2990  153.6320 C   0  0  0  0  0  0  0  0  0  0  0  0
  155.3510  214.4500  153.8730 O   0  0  0  0  0  0  0  0  0  0  0  0
  157.5250  214.4340  154.5840 O   0  0  0  0  0  1  0  0  0  0  0  0
  1  3  1  0  0  0  0
  2  3  1  0  0  0  0
  2 11  1  1  0  0  0
  3  7  2  0  0  0  0
  4  5  1  1  0  0  0
  4  9  1  0  0  0  0
  4  1  1  0  0  0  0
  6 27  1  6  0  0  0
  6 14  1  0  0  0  0
  8 17  1  1  0  0  0
  8 16  1  0  0  0  0
  9  2  1  0  0  0  0
 10  8  1  0  0  0  0
 10 13  1  0  0  0  0
 12  6  1  0  0  0  0
 13 15  1  0  0  0  0
 14 11  1  0  0  0  0
 15 12  1  0  0  0  0
 15  9  1  0  0  0  0
 16 15  1  0  0  0  0
 17 18  1  0  0  0  0
 19 17  1  0  0  0  0
 20 19  2  0  0  0  0
 21 19  1  0  0  0  0
 22 19  2  0  0  0  0
 24 14  1  0  0  0  0
 24 23  2  0  0  0  0
 25 26  1  0  0  0  0
 25 10  1  0  0  0  0
 28 32  1  0  0  0  0
 28 27  1  0  0  0  0
 29 28  1  0  0  0  0
 30 31  1  0  0  0  0
 31 34  2  0  0  0  0
 32 36  2  0  0  0  0
 33 35  1  0  0  0  0
 34 37  1  0  0  0  0
 35 30  2  0  0  0  0
 35 32  1  0  0  0  0
 36 34  1  0  0  0  0
 37 38  2  0  0  0  0
 37 39  1  0  0  0  0
M  END
>  <MODEL>
6

>  <REMARK>
 VINA RESULT:      -3.5      4.020      9.211
  Name = 
  8 active torsions:
  status: ('A' for Active; 'I' for Inactive)
    1  A    between atoms: N_1  and  C_17
    2  A    between atoms: N_1  and  S_19
    3  A    between atoms: C_2  and  C_27
    4  A    between atoms: C_9  and  C_11
    5  A    between atoms: C_9  and  C_25
    6  A    between atoms: C_15  and  C_28
    7  A    between atoms: C_16  and  C_25
    8  A    between atoms: C_20  and  C_34
                            x       y       z     vdW  Elec       q    Type
                         _______ _______ _______ _____ _____    ______ ____

>  <TORSDO>
F 8

$$$$
=
 OpenBabel11072415133D

 39 42  0  0  1  0  0  0  0  0999 V2000
  161.4460  205.8370  154.0570 N   0  0  0  0  0  2  0  0  0  0  0  0
  160.6160  208.0270  153.4470 C   0  0  2  0  0  3  0  0  0  0  0  0
  160.6270  206.9260  154.4330 C   0  0  0  0  0  0  0  0  0  0  0  0
  162.0310  206.1280  152.7610 C   0  0  2  0  0  3  0  0  0  0  0  0
  163.4660  205.9100  152.8100 N   0  0  0  0  0  1  0  0  0  0  0  0
  161.5340  210.4060  151.7870 C   0  0  2  0  0  3  0  0  0  0  0  0
  159.9430  206.9220  155.4890 O   0  0  0  0  0  0  0  0  0  0  0  0
  161.1030  206.4750  149.3560 C   0  0  2  0  0  3  0  0  0  0  0  0
  161.7380  207.6110  152.4970 C   0  0  1  0  0  3  0  0  0  0  0  0
  162.4940  207.0330  149.2560 C   0  0  2  0  0  3  0  0  0  0  0  0
  160.9900  209.3610  154.0870 C   0  0  0  0  0  2  0  0  0  0  0  0
  160.8730  209.3690  150.8720 C   0  0  0  0  0  2  0  0  0  0  0  0
  162.6810  207.9100  150.3200 O   0  0  0  0  0  0  0  0  0  0  0  0
  160.7950  210.5510  153.1330 C   0  0  2  0  0  3  0  0  0  0  0  0
  161.4600  207.9560  151.0210 C   0  0  1  0  0  0  0  0  0  0  0  0
  160.5250  207.0410  150.4950 O   0  0  0  0  0  0  0  0  0  0  0  0
  161.1480  205.0160  149.4840 N   0  0  0  0  0  0  0  0  0  0  0  0
  159.9910  204.6130  150.0630 O   0  0  0  0  0  1  0  0  0  0  0  0
  161.1650  204.3100  147.8960 S   0  0  0  0  0  0  0  0  0  0  0  0
  160.8230  205.3460  146.8610 O   0  0  0  0  0  0  0  0  0  0  0  0
  160.0350  203.0760  147.8290 F   0  0  0  0  0  0  0  0  0  0  0  0
  162.5240  203.7380  147.6040 O   0  0  0  0  0  0  0  0  0  0  0  0
  158.6070  210.9550  153.9800 O   0  0  0  0  0  0  0  0  0  0  0  0
  159.3500  210.9530  153.0100 C   0  0  0  0  0  3  0  0  0  0  0  0
  162.7090  207.7520  147.9280 C   0  0  0  0  0  2  0  0  0  0  0  0
  161.7320  208.7270  147.7230 O   0  0  0  0  0  1  0  0  0  0  0  0
  161.6320  211.7490  151.0770 C   0  0  0  0  0  2  0  0  0  0  0  0
  161.3150  211.5990  149.5940 C   0  0  2  0  0  3  0  0  0  0  0  0
  162.5500  211.8280  148.7380 C   0  0  0  0  0  1  0  0  0  0  0  0
  158.9150  213.7560  147.5360 C   0  0  0  0  0  3  0  0  0  0  0  0
  158.0270  214.1640  148.5330 C   0  0  0  0  0  3  0  0  0  0  0  0
  160.1830  212.4910  149.1780 C   0  0  0  0  0  0  0  0  0  0  0  0
  160.8830  212.5220  146.8090 N   0  0  0  0  0  1  0  0  0  0  0  0
  158.2080  213.7440  149.8560 C   0  0  0  0  0  0  0  0  0  0  0  0
  159.9920  212.9220  147.8480 C   0  0  0  0  0  0  0  0  0  0  0  0
  159.2880  212.9080  150.1690 C   0  0  0  0  0  3  0  0  0  0  0  0
  157.2700  214.1760  150.9040 C   0  0  0  0  0  0  0  0  0  0  0  0
  157.6930  214.2830  152.2230 O   0  0  0  0  0  1  0  0  0  0  0  0
  156.0750  214.4530  150.6160 O   0  0  0  0  0  0  0  0  0  0  0  0
  1  3  1  0  0  0  0
  2 11  1  1  0  0  0
  2  3  1  0  0  0  0
  3  7  2  0  0  0  0
  4  5  1  1  0  0  0
  4  1  1  0  0  0  0
  6 27  1  6  0  0  0
  6 14  1  0  0  0  0
  8 17  1  1  0  0  0
  8 16  1  0  0  0  0
  9  4  1  0  0  0  0
  9  2  1  0  0  0  0
 10  8  1  0  0  0  0
 10 13  1  0  0  0  0
 12 15  1  0  0  0  0
 12  6  1  0  0  0  0
 13 15  1  0  0  0  0
 14 11  1  0  0  0  0
 15  9  1  0  0  0  0
 16 15  1  0  0  0  0
 17 18  1  0  0  0  0
 19 17  1  0  0  0  0
 20 19  2  0  0  0  0
 21 19  1  0  0  0  0
 22 19  2  0  0  0  0
 24 14  1  0  0  0  0
 24 23  2  0  0  0  0
 25 10  1  0  0  0  0
 26 25  1  0  0  0  0
 28 27  1  0  0  0  0
 29 28  1  0  0  0  0
 30 35  2  0  0  0  0
 30 31  1  0  0  0  0
 31 34  2  0  0  0  0
 32 28  1  0  0  0  0
 32 36  2  0  0  0  0
 33 35  1  0  0  0  0
 34 36  1  0  0  0  0
 34 37  1  0  0  0  0
 35 32  1  0  0  0  0
 37 38  1  0  0  0  0
 39 37  2  0  0  0  0
M  END
>  <MODEL>
7

>  <REMARK>
 VINA RESULT:      -3.3      3.826      8.788
  Name = 
  8 active torsions:
  status: ('A' for Active; 'I' for Inactive)
    1  A    between atoms: N_1  and  C_17
    2  A    between atoms: N_1  and  S_19
    3  A    between atoms: C_2  and  C_27
    4  A    between atoms: C_9  and  C_11
    5  A    between atoms: C_9  and  C_25
    6  A    between atoms: C_15  and  C_28
    7  A    between atoms: C_16  and  C_25
    8  A    between atoms: C_20  and  C_34
                            x       y       z     vdW  Elec       q    Type
                         _______ _______ _______ _____ _____    ______ ____

>  <TORSDO>
F 8

$$$$
=
 OpenBabel11072415133D

 39 42  0  0  1  0  0  0  0  0999 V2000
  159.4880  208.3170  156.8340 N   0  0  0  0  0  2  0  0  0  0  0  0
  160.9160  207.5650  155.0310 C   0  0  2  0  0  3  0  0  0  0  0  0
  160.4840  207.3980  156.4350 C   0  0  0  0  0  0  0  0  0  0  0  0
  159.1940  209.1920  155.7140 C   0  0  2  0  0  3  0  0  0  0  0  0
  157.7600  209.2470  155.4960 N   0  0  0  0  0  1  0  0  0  0  0  0
  160.8760  207.5220  151.9880 C   0  0  2  0  0  3  0  0  0  0  0  0
  160.9790  206.5540  157.2250 O   0  0  0  0  0  0  0  0  0  0  0  0
  160.6810  211.7880  153.8080 C   0  0  2  0  0  3  0  0  0  0  0  0
  159.8820  208.5550  154.4980 C   0  0  1  0  0  3  0  0  0  0  0  0
  159.5020  211.5160  152.9170 C   0  0  2  0  0  3  0  0  0  0  0  0
  160.7920  206.2630  154.2430 C   0  0  0  0  0  2  0  0  0  0  0  0
  161.3900  208.8820  152.4740 C   0  0  0  0  0  2  0  0  0  0  0  0
  159.3800  210.1360  152.7760 O   0  0  0  0  0  0  0  0  0  0  0  0
  161.4170  206.3570  152.8420 C   0  0  2  0  0  3  0  0  0  0  0  0
  160.4550  209.5650  153.4850 C   0  0  1  0  0  0  0  0  0  0  0  0
  161.2020  210.5440  154.1710 O   0  0  0  0  0  0  0  0  0  0  0  0
  160.2560  212.5270  155.0000 N   0  0  0  0  0  0  0  0  0  0  0  0
  158.9460  212.2530  155.2140 O   0  0  0  0  0  1  0  0  0  0  0  0
  161.1110  211.9090  156.3820 S   0  0  0  0  0  0  0  0  0  0  0  0
  160.1800  211.1200  157.2600 O   0  0  0  0  0  0  0  0  0  0  0  0
  161.7380  213.1890  157.2600 F   0  0  0  0  0  0  0  0  0  0  0  0
  162.2430  211.0290  155.9310 O   0  0  0  0  0  0  0  0  0  0  0  0
  163.5460  205.7920  151.9390 O   0  0  0  0  0  0  0  0  0  0  0  0
  162.9190  206.2550  152.8790 C   0  0  0  0  0  3  0  0  0  0  0  0
  159.6740  212.1780  151.5530 C   0  0  0  0  0  2  0  0  0  0  0  0
  160.0760  213.5080  151.6890 O   0  0  0  0  0  1  0  0  0  0  0  0
  161.2220  207.3210  150.5190 C   0  0  0  0  0  2  0  0  0  0  0  0
  160.4550  206.1360  149.9430 C   0  0  2  0  0  3  0  0  0  0  0  0
  160.3120  205.0190  150.9650 C   0  0  0  0  0  1  0  0  0  0  0  0
  162.4000  205.9330  146.6530 C   0  0  0  0  0  3  0  0  0  0  0  0
  162.1760  204.5980  146.3120 C   0  0  0  0  0  3  0  0  0  0  0  0
  161.0760  205.6420  148.6710 C   0  0  0  0  0  0  0  0  0  0  0  0
  162.0990  207.8290  148.1480 N   0  0  0  0  0  1  0  0  0  0  0  0
  161.4040  203.7750  147.1420 C   0  0  0  0  0  0  0  0  0  0  0  0
  161.8550  206.4620  147.8260 C   0  0  0  0  0  0  0  0  0  0  0  0
  160.8580  204.3070  148.3180 C   0  0  0  0  0  3  0  0  0  0  0  0
  161.1710  202.3680  146.7790 C   0  0  0  0  0  0  0  0  0  0  0  0
  160.6590  202.0420  145.5290 O   0  0  0  0  0  0  0  0  0  0  0  0
  161.4340  201.4470  147.5980 O   0  0  0  0  0  1  0  0  0  0  0  0
  2 11  1  6  0  0  0
  2  3  1  0  0  0  0
  3  1  1  0  0  0  0
  3  7  2  0  0  0  0
  4  5  1  6  0  0  0
  4  1  1  0  0  0  0
  6 27  1  6  0  0  0
  6 12  1  0  0  0  0
  6 14  1  0  0  0  0
  8 16  1  0  0  0  0
  8 17  1  1  0  0  0
  9  2  1  0  0  0  0
  9  4  1  0  0  0  0
 10  8  1  0  0  0  0
 12 15  1  0  0  0  0
 13 10  1  0  0  0  0
 13 15  1  0  0  0  0
 14 24  1  0  0  0  0
 14 11  1  0  0  0  0
 15 16  1  0  0  0  0
 15  9  1  0  0  0  0
 17 18  1  0  0  0  0
 17 19  1  0  0  0  0
 19 21  1  0  0  0  0
 19 20  2  0  0  0  0
 22 19  2  0  0  0  0
 23 24  2  0  0  0  0
 25 26  1  0  0  0  0
 25 10  1  0  0  0  0
 28 27  1  0  0  0  0
 28 29  1  0  0  0  0
 30 35  1  0  0  0  0
 31 30  2  0  0  0  0
 31 34  1  0  0  0  0
 32 28  1  0  0  0  0
 34 36  2  0  0  0  0
 35 33  1  0  0  0  0
 35 32  2  0  0  0  0
 36 32  1  0  0  0  0
 37 34  1  0  0  0  0
 37 39  1  0  0  0  0
 38 37  2  0  0  0  0
M  END
>  <MODEL>
8

>  <REMARK>
 VINA RESULT:      -2.9      2.606      4.711
  Name = 
  8 active torsions:
  status: ('A' for Active; 'I' for Inactive)
    1  A    between atoms: N_1  and  C_17
    2  A    between atoms: N_1  and  S_19
    3  A    between atoms: C_2  and  C_27
    4  A    between atoms: C_9  and  C_11
    5  A    between atoms: C_9  and  C_25
    6  A    between atoms: C_15  and  C_28
    7  A    between atoms: C_16  and  C_25
    8  A    between atoms: C_20  and  C_34
                            x       y       z     vdW  Elec       q    Type
                         _______ _______ _______ _____ _____    ______ ____

>  <TORSDO>
F 8

$$$$
