=
 OpenBabel11072414463D

 45 48  0  0  1  0  0  0  0  0999 V2000
  160.5420  208.9940  152.3500 O   0  0  0  0  0  0  0  0  0  0  0  0
  162.0940  210.3310  153.5670 C   0  0  0  0  0  1  0  0  0  0  0  0
  160.7240  209.6430  153.5900 C   0  0  2  0  0  0  0  0  0  0  0  0
  160.7840  207.6140  152.5310 C   0  0  2  0  0  3  0  0  0  0  0  0
  160.6210  208.5750  154.6800 C   0  0  1  0  0  3  0  0  0  0  0  0
  161.0500  207.3230  153.9920 C   0  0  0  0  0  2  0  0  0  0  0  0
  159.2420  210.9190  155.2430 C   0  0  0  0  0  2  0  0  0  0  0  0
  157.7950  211.0240  155.3550 N   0  0  0  0  0  2  0  0  0  0  0  0
  157.4870  212.7980  153.6670 C   0  0  2  0  0  3  0  0  0  0  0  0
  158.9460  213.1710  153.3230 C   0  0  1  0  0  3  0  0  0  0  0  0
  156.6450  213.8830  153.3930 O   0  0  0  0  0  1  0  0  0  0  0  0
  157.3950  212.4140  155.1570 C   0  0  1  0  0  3  0  0  0  0  0  0
  159.5990  210.6820  153.7790 C   0  0  1  0  0  3  0  0  0  0  0  0
  159.9010  211.9930  153.0420 C   0  0  0  0  0  2  0  0  0  0  0  0
  155.7700  211.6450  156.8770 C   0  0  0  0  0  2  0  0  0  0  0  0
  156.0620  213.1060  157.1380 C   0  0  0  0  0  2  0  0  0  0  0  0
  155.9850  212.5920  155.7110 C   0  0  0  0  0  3  0  0  0  0  0  0
  159.0480  214.1900  152.2690 N   0  0  0  0  0  2  0  0  0  0  0  0
  159.4150  213.5670  150.9990 C   0  0  0  0  0  2  0  0  0  0  0  0
  158.4120  213.9570  149.9340 C   0  0  0  0  0  1  0  0  0  0  0  0
  161.4520  208.8310  155.9350 C   0  0  0  0  0  2  0  0  0  0  0  0
  160.0770  207.2390  156.9400 C   0  0  0  0  0  1  0  0  0  0  0  0
  160.6600  208.5570  157.1200 N   0  0  0  0  0  2  0  0  0  0  0  0
  161.9690  207.1880  151.6760 C   0  0  0  0  0  2  0  0  0  0  0  0
  162.2750  208.2080  150.5830 C   0  0  0  0  0  2  0  0  0  0  0  0
  161.6040  207.8570  149.2580 C   0  0  0  0  0  2  0  0  0  0  0  0
  162.1200  206.5410  148.6760 C   0  0  0  0  0  2  0  0  0  0  0  0
  161.2180  205.9290  147.5950 C   0  0  2  0  0  3  0  0  0  0  0  0
  160.8230  203.8880  149.0500 C   0  0  0  0  0  0  0  0  0  0  0  0
  160.7040  204.6090  150.0750 O   0  0  0  0  0  0  0  0  0  0  0  0
  161.0370  204.4930  147.7710 N   0  0  0  0  0  2  0  0  0  0  0  0
  160.7200  202.4640  149.1850 N   0  0  0  0  0  2  0  0  0  0  0  0
  160.4100  201.7450  146.8770 C   0  0  0  0  0  3  0  0  0  0  0  0
  161.5870  200.2750  148.3940 C   0  0  0  0  0  3  0  0  0  0  0  0
  160.5780  200.8150  145.8450 C   0  0  0  0  0  0  0  0  0  0  0  0
  161.7540  199.3440  147.3660 C   0  0  0  0  0  3  0  0  0  0  0  0
  161.4150  198.7070  145.0970 F   0  0  0  0  0  0  0  0  0  0  0  0
  160.0950  201.0890  144.6080 F   0  0  0  0  0  0  0  0  0  0  0  0
  161.2490  199.6120  146.0910 C   0  0  0  0  0  0  0  0  0  0  0  0
  160.9100  201.4820  148.1580 C   0  0  0  0  0  0  0  0  0  0  0  0
  161.6490  206.2820  146.1640 C   0  0  1  0  0  3  0  0  0  0  0  0
  163.0570  205.7790  145.8470 C   0  0  0  0  0  1  0  0  0  0  0  0
  160.6780  205.7770  145.1920 N   0  0  0  0  0  0  0  0  0  0  0  0
  161.0920  205.0070  144.1280 O   0  0  0  0  0  0  0  0  0  0  0  0
  159.5250  206.2560  145.1690 O   0  0  0  0  0  0  0  0  0  0  0  0
  1  4  1  0  0  0  0
  1  3  1  0  0  0  0
  3  2  1  1  0  0  0
  3 13  1  0  0  0  0
  3  5  1  0  0  0  0
  4 24  1  6  0  0  0
  4  6  1  0  0  0  0
  5 21  1  1  0  0  0
  6  5  1  0  0  0  0
  7  8  1  0  0  0  0
  9 11  1  1  0  0  0
  9 12  1  0  0  0  0
 10 18  1  6  0  0  0
 10  9  1  0  0  0  0
 12  8  1  0  0  0  0
 12 17  1  6  0  0  0
 13 14  1  1  0  0  0
 13  7  1  0  0  0  0
 14 10  1  0  0  0  0
 15 16  1  0  0  0  0
 17 15  1  0  0  0  0
 17 16  1  0  0  0  0
 19 18  1  0  0  0  0
 20 19  1  0  0  0  0
 21 23  1  0  0  0  0
 22 23  1  0  0  0  0
 25 24  1  0  0  0  0
 26 25  1  0  0  0  0
 27 26  1  0  0  0  0
 28 31  1  0  0  0  0
 28 27  1  1  0  0  0
 29 32  1  0  0  0  0
 29 30  2  0  0  0  0
 31 29  1  0  0  0  0
 33 40  1  0  0  0  0
 35 39  1  0  0  0  0
 35 33  2  0  0  0  0
 36 34  1  0  0  0  0
 37 39  1  0  0  0  0
 38 35  1  0  0  0  0
 39 36  2  0  0  0  0
 40 34  2  0  0  0  0
 40 32  1  0  0  0  0
 41 42  1  6  0  0  0
 41 28  1  0  0  0  0
 43 41  1  0  0  0  0
 44 43  2  0  0  0  0
 45 43  2  0  0  0  0
M  END
>  <MODEL>
1

>  <REMARK>
 VINA RESULT:      -7.2      0.000      0.000
  Name = 
  15 active torsions:
  status: ('A' for Active; 'I' for Inactive)
    1  A    between atoms: C_5  and  N_20
    2  A    between atoms: C_5  and  C_41
    3  A    between atoms: C_8  and  N_17
    4  A    between atoms: C_11  and  N_17
    5  A    between atoms: C_21  and  C_37
    6  A    between atoms: C_22  and  C_24
    7  A    between atoms: C_25  and  C_41
    8  A    between atoms: C_25  and  C_43
    9  A    between atoms: N_28  and  C_38
   10  A    between atoms: C_29  and  C_39
   11  A    between atoms: C_30  and  C_39
   12  A    between atoms: C_30  and  C_43
   13  A    between atoms: N_34  and  C_41
   14  A    between atoms: C_35  and  N_42
   15  A    between atoms: C_38  and  C_40
                            x       y       z     vdW  Elec       q    Type
                         _______ _______ _______ _____ _____    ______ ____

>  <TORSDO>
F 15

$$$$
=
 OpenBabel11072414463D

 45 48  0  0  1  0  0  0  0  0999 V2000
  161.0290  206.4660  152.7130 O   0  0  0  0  0  0  0  0  0  0  0  0
  163.2710  206.9430  152.0640 C   0  0  0  0  0  1  0  0  0  0  0  0
  161.8090  206.8700  151.6080 C   0  0  2  0  0  0  0  0  0  0  0  0
  160.3820  207.6060  153.2400 C   0  0  2  0  0  3  0  0  0  0  0  0
  161.2700  208.2240  151.1440 C   0  0  1  0  0  3  0  0  0  0  0  0
  160.6790  208.8140  152.3790 C   0  0  0  0  0  2  0  0  0  0  0  0
  160.5070  204.8510  150.7240 C   0  0  0  0  0  2  0  0  0  0  0  0
  160.9470  203.5240  150.3210 N   0  0  0  0  0  2  0  0  0  0  0  0
  161.6380  204.1170  148.0270 C   0  0  2  0  0  3  0  0  0  0  0  0
  161.1680  205.5840  147.9180 C   0  0  1  0  0  3  0  0  0  0  0  0
  161.7130  203.5480  146.7490 O   0  0  0  0  0  1  0  0  0  0  0  0
  160.6480  203.3260  148.9060 C   0  0  1  0  0  3  0  0  0  0  0  0
  161.6450  205.8350  150.4760 C   0  0  1  0  0  3  0  0  0  0  0  0
  161.5360  206.5050  149.0990 C   0  0  0  0  0  2  0  0  0  0  0  0
  160.7510  201.0530  149.9140 C   0  0  0  0  0  2  0  0  0  0  0  0
  159.4390  201.1710  149.1710 C   0  0  0  0  0  2  0  0  0  0  0  0
  160.6870  201.8300  148.6110 C   0  0  0  0  0  3  0  0  0  0  0  0
  161.5210  206.2100  146.6380 N   0  0  0  0  0  2  0  0  0  0  0  0
  160.3690  206.2070  145.7390 C   0  0  0  0  0  2  0  0  0  0  0  0
  160.7900  205.7050  144.3740 C   0  0  0  0  0  1  0  0  0  0  0  0
  162.2980  209.1630  150.5170 C   0  0  0  0  0  2  0  0  0  0  0  0
  162.0500  211.0960  149.2380 C   0  0  0  0  0  1  0  0  0  0  0  0
  161.8100  210.5300  150.5530 N   0  0  0  0  0  2  0  0  0  0  0  0
  160.8470  207.8400  154.6710 C   0  0  0  0  0  2  0  0  0  0  0  0
  159.7550  208.4770  155.5240 C   0  0  0  0  0  2  0  0  0  0  0  0
  160.2720  209.6560  156.3440 C   0  0  0  0  0  2  0  0  0  0  0  0
  159.8590  211.0020  155.7490 C   0  0  0  0  0  2  0  0  0  0  0  0
  158.5310  210.9740  154.9800 C   0  0  2  0  0  3  0  0  0  0  0  0
  158.9260  213.3180  154.0880 C   0  0  0  0  0  0  0  0  0  0  0  0
  159.4490  213.6720  155.1780 O   0  0  0  0  0  0  0  0  0  0  0  0
  158.4880  211.9670  153.9130 N   0  0  0  0  0  2  0  0  0  0  0  0
  158.8000  214.2780  153.0320 N   0  0  0  0  0  2  0  0  0  0  0  0
  158.9460  213.7030  150.6680 C   0  0  0  0  0  3  0  0  0  0  0  0
  156.7810  214.2680  151.5860 C   0  0  0  0  0  3  0  0  0  0  0  0
  158.3620  213.5030  149.4120 C   0  0  0  0  0  0  0  0  0  0  0  0
  156.1960  214.0710  150.3320 C   0  0  0  0  0  3  0  0  0  0  0  0
  156.4140  213.4980  148.0310 F   0  0  0  0  0  0  0  0  0  0  0  0
  159.1350  213.1210  148.3650 F   0  0  0  0  0  0  0  0  0  0  0  0
  156.9860  213.6890  149.2440 C   0  0  0  0  0  0  0  0  0  0  0  0
  158.1620  214.0880  151.7620 C   0  0  0  0  0  0  0  0  0  0  0  0
  157.2940  211.0520  155.8870 C   0  0  1  0  0  3  0  0  0  0  0  0
  157.5320  211.9400  157.1080 C   0  0  0  0  0  1  0  0  0  0  0  0
  156.1240  211.4990  155.1300 N   0  0  0  0  0  0  0  0  0  0  0  0
  155.6640  212.7900  155.2560 O   0  0  0  0  0  0  0  0  0  0  0  0
  155.3880  210.6540  154.5810 O   0  0  0  0  0  0  0  0  0  0  0  0
  1  4  1  0  0  0  0
  3  2  1  1  0  0  0
  3  1  1  0  0  0  0
  4 24  1  1  0  0  0
  5 21  1  1  0  0  0
  5  3  1  0  0  0  0
  5  6  1  0  0  0  0
  6  4  1  0  0  0  0
  8  7  1  0  0  0  0
  9 11  1  6  0  0  0
  9 12  1  0  0  0  0
 10 18  1  6  0  0  0
 10  9  1  0  0  0  0
 10 14  1  0  0  0  0
 12 17  1  6  0  0  0
 12  8  1  0  0  0  0
 13 14  1  6  0  0  0
 13  7  1  0  0  0  0
 13  3  1  0  0  0  0
 16 15  1  0  0  0  0
 17 16  1  0  0  0  0
 17 15  1  0  0  0  0
 19 18  1  0  0  0  0
 20 19  1  0  0  0  0
 21 23  1  0  0  0  0
 22 23  1  0  0  0  0
 24 25  1  0  0  0  0
 25 26  1  0  0  0  0
 27 26  1  0  0  0  0
 28 27  1  1  0  0  0
 28 41  1  0  0  0  0
 29 30  2  0  0  0  0
 31 29  1  0  0  0  0
 31 28  1  0  0  0  0
 32 29  1  0  0  0  0
 33 40  1  0  0  0  0
 34 40  2  0  0  0  0
 35 33  2  0  0  0  0
 36 34  1  0  0  0  0
 37 39  1  0  0  0  0
 38 35  1  0  0  0  0
 39 35  1  0  0  0  0
 39 36  2  0  0  0  0
 40 32  1  0  0  0  0
 41 42  1  1  0  0  0
 43 44  2  0  0  0  0
 43 41  1  0  0  0  0
 45 43  2  0  0  0  0
M  END
>  <MODEL>
2

>  <REMARK>
 VINA RESULT:      -6.9      3.527     10.606
  Name = 
  15 active torsions:
  status: ('A' for Active; 'I' for Inactive)
    1  A    between atoms: C_5  and  N_20
    2  A    between atoms: C_5  and  C_41
    3  A    between atoms: C_8  and  N_17
    4  A    between atoms: C_11  and  N_17
    5  A    between atoms: C_21  and  C_37
    6  A    between atoms: C_22  and  C_24
    7  A    between atoms: C_25  and  C_41
    8  A    between atoms: C_25  and  C_43
    9  A    between atoms: N_28  and  C_38
   10  A    between atoms: C_29  and  C_39
   11  A    between atoms: C_30  and  C_39
   12  A    between atoms: C_30  and  C_43
   13  A    between atoms: N_34  and  C_41
   14  A    between atoms: C_35  and  N_42
   15  A    between atoms: C_38  and  C_40
                            x       y       z     vdW  Elec       q    Type
                         _______ _______ _______ _____ _____    ______ ____

>  <TORSDO>
F 15

$$$$
=
 OpenBabel11072414463D

 45 48  0  0  1  0  0  0  0  0999 V2000
  160.9260  209.5870  151.3830 O   0  0  0  0  0  0  0  0  0  0  0  0
  162.3150  210.2620  153.1970 C   0  0  0  0  0  1  0  0  0  0  0  0
  160.9190  209.7830  152.7810 C   0  0  2  0  0  0  0  0  0  0  0  0
  161.0320  208.2010  151.1300 C   0  0  2  0  0  3  0  0  0  0  0  0
  160.5390  208.4490  153.4240 C   0  0  1  0  0  3  0  0  0  0  0  0
  160.9990  207.4340  152.4330 C   0  0  0  0  0  2  0  0  0  0  0  0
  159.8640  211.2420  154.6010 C   0  0  0  0  0  2  0  0  0  0  0  0
  158.4870  211.3690  155.0550 N   0  0  0  0  0  2  0  0  0  0  0  0
  157.7390  212.9520  153.3150 C   0  0  2  0  0  3  0  0  0  0  0  0
  159.0600  213.2750  152.5840 C   0  0  1  0  0  3  0  0  0  0  0  0
  156.8340  214.0070  153.1430 O   0  0  0  0  0  1  0  0  0  0  0  0
  158.0240  212.7320  154.8150 C   0  0  1  0  0  3  0  0  0  0  0  0
  159.8540  210.8450  153.1290 C   0  0  1  0  0  3  0  0  0  0  0  0
  159.9400  212.0660  152.2040 C   0  0  0  0  0  2  0  0  0  0  0  0
  156.9260  212.2330  156.9910 C   0  0  0  0  0  2  0  0  0  0  0  0
  157.1940  213.7210  156.9390 C   0  0  0  0  0  2  0  0  0  0  0  0
  156.7900  212.9800  155.6760 C   0  0  0  0  0  3  0  0  0  0  0  0
  158.8800  214.1720  151.4350 N   0  0  0  0  0  2  0  0  0  0  0  0
  158.8120  213.3990  150.1960 C   0  0  0  0  0  2  0  0  0  0  0  0
  157.3850  213.3760  149.6900 C   0  0  0  0  0  1  0  0  0  0  0  0
  161.1360  208.1890  154.8040 C   0  0  0  0  0  2  0  0  0  0  0  0
  160.7580  207.2720  156.9140 C   0  0  0  0  0  1  0  0  0  0  0  0
  160.0930  207.7840  155.7300 N   0  0  0  0  0  2  0  0  0  0  0  0
  162.3220  207.9170  150.3740 C   0  0  0  0  0  2  0  0  0  0  0  0
  162.1190  207.9840  148.8630 C   0  0  0  0  0  2  0  0  0  0  0  0
  161.1130  206.9490  148.3670 C   0  0  0  0  0  2  0  0  0  0  0  0
  160.8430  207.0750  146.8680 C   0  0  0  0  0  2  0  0  0  0  0  0
  160.9750  205.7590  146.0880 C   0  0  2  0  0  3  0  0  0  0  0  0
  160.9620  203.2540  146.4920 C   0  0  0  0  0  0  0  0  0  0  0  0
  160.8700  203.0280  145.2570 O   0  0  0  0  0  0  0  0  0  0  0  0
  161.0640  204.5990  146.9670 N   0  0  0  0  0  2  0  0  0  0  0  0
  160.9840  202.1460  147.4010 N   0  0  0  0  0  2  0  0  0  0  0  0
  160.9370  203.4560  149.4570 C   0  0  0  0  0  3  0  0  0  0  0  0
  161.0660  201.0470  149.6270 C   0  0  0  0  0  3  0  0  0  0  0  0
  160.9450  203.5560  150.8520 C   0  0  0  0  0  0  0  0  0  0  0  0
  161.0750  201.1440  151.0210 C   0  0  0  0  0  3  0  0  0  0  0  0
  161.0250  202.4870  152.9870 F   0  0  0  0  0  0  0  0  0  0  0  0
  160.8750  204.7760  151.4390 F   0  0  0  0  0  0  0  0  0  0  0  0
  161.0160  202.3980  151.6350 C   0  0  0  0  0  0  0  0  0  0  0  0
  160.9990  202.2030  148.8340 C   0  0  0  0  0  0  0  0  0  0  0  0
  162.1000  205.7760  145.0430 C   0  0  1  0  0  3  0  0  0  0  0  0
  163.2470  204.8380  145.4190 C   0  0  0  0  0  1  0  0  0  0  0  0
  161.5760  205.4610  143.7130 N   0  0  0  0  0  0  0  0  0  0  0  0
  162.1640  205.9950  142.5890 O   0  0  0  0  0  0  0  0  0  0  0  0
  160.4500  204.9330  143.6050 O   0  0  0  0  0  0  0  0  0  0  0  0
  1  3  1  0  0  0  0
  3 13  1  0  0  0  0
  3  2  1  1  0  0  0
  3  5  1  0  0  0  0
  4 24  1  1  0  0  0
  4  1  1  0  0  0  0
  4  6  1  0  0  0  0
  5 21  1  1  0  0  0
  6  5  1  0  0  0  0
  7  8  1  0  0  0  0
  9 11  1  1  0  0  0
  9 12  1  0  0  0  0
 10 18  1  6  0  0  0
 10  9  1  0  0  0  0
 12  8  1  0  0  0  0
 12 17  1  1  0  0  0
 13 14  1  6  0  0  0
 13  7  1  0  0  0  0
 14 10  1  0  0  0  0
 16 15  1  0  0  0  0
 17 16  1  0  0  0  0
 17 15  1  0  0  0  0
 19 18  1  0  0  0  0
 20 19  1  0  0  0  0
 21 23  1  0  0  0  0
 23 22  1  0  0  0  0
 25 24  1  0  0  0  0
 26 25  1  0  0  0  0
 27 26  1  0  0  0  0
 28 27  1  1  0  0  0
 28 31  1  0  0  0  0
 29 31  1  0  0  0  0
 29 32  1  0  0  0  0
 30 29  2  0  0  0  0
 32 40  1  0  0  0  0
 33 35  1  0  0  0  0
 34 36  2  0  0  0  0
 35 38  1  0  0  0  0
 35 39  2  0  0  0  0
 36 39  1  0  0  0  0
 39 37  1  0  0  0  0
 40 33  2  0  0  0  0
 40 34  1  0  0  0  0
 41 42  1  1  0  0  0
 41 28  1  0  0  0  0
 43 41  1  0  0  0  0
 44 43  2  0  0  0  0
 45 43  2  0  0  0  0
M  END
>  <MODEL>
3

>  <REMARK>
 VINA RESULT:      -6.0      2.300      2.715
  Name = 
  15 active torsions:
  status: ('A' for Active; 'I' for Inactive)
    1  A    between atoms: C_5  and  N_20
    2  A    between atoms: C_5  and  C_41
    3  A    between atoms: C_8  and  N_17
    4  A    between atoms: C_11  and  N_17
    5  A    between atoms: C_21  and  C_37
    6  A    between atoms: C_22  and  C_24
    7  A    between atoms: C_25  and  C_41
    8  A    between atoms: C_25  and  C_43
    9  A    between atoms: N_28  and  C_38
   10  A    between atoms: C_29  and  C_39
   11  A    between atoms: C_30  and  C_39
   12  A    between atoms: C_30  and  C_43
   13  A    between atoms: N_34  and  C_41
   14  A    between atoms: C_35  and  N_42
   15  A    between atoms: C_38  and  C_40
                            x       y       z     vdW  Elec       q    Type
                         _______ _______ _______ _____ _____    ______ ____

>  <TORSDO>
F 15

$$$$
=
 OpenBabel11072414463D

 45 48  0  0  1  0  0  0  0  0999 V2000
  161.6190  208.9080  148.9460 O   0  0  0  0  0  0  0  0  0  0  0  0
  160.0390  207.9460  150.4470 C   0  0  0  0  0  1  0  0  0  0  0  0
  161.4490  207.8390  149.8530 C   0  0  2  0  0  0  0  0  0  0  0  0
  162.4010  209.9020  149.5750 C   0  0  2  0  0  3  0  0  0  0  0  0
  162.5440  207.9650  150.9120 C   0  0  1  0  0  3  0  0  0  0  0  0
  162.8480  209.4250  150.9380 C   0  0  0  0  0  2  0  0  0  0  0  0
  160.5130  205.5010  149.3920 C   0  0  0  0  0  2  0  0  0  0  0  0
  161.1120  204.1820  149.5240 N   0  0  0  0  0  2  0  0  0  0  0  0
  162.2910  204.1660  147.3550 C   0  0  2  0  0  3  0  0  0  0  0  0
  161.7750  205.4660  146.7000 C   0  0  1  0  0  3  0  0  0  0  0  0
  162.6990  203.2660  146.3630 O   0  0  0  0  0  1  0  0  0  0  0  0
  161.1690  203.5450  148.2120 C   0  0  1  0  0  3  0  0  0  0  0  0
  161.6180  206.5070  149.0920 C   0  0  1  0  0  3  0  0  0  0  0  0
  161.7990  206.7290  147.5840 C   0  0  0  0  0  2  0  0  0  0  0  0
  160.7750  201.6280  149.7490 C   0  0  0  0  0  2  0  0  0  0  0  0
  160.0080  201.3620  148.4720 C   0  0  0  0  0  2  0  0  0  0  0  0
  161.3630  202.0450  148.4130 C   0  0  0  0  0  3  0  0  0  0  0  0
  162.3850  205.7330  145.3910 N   0  0  0  0  0  2  0  0  0  0  0  0
  161.3690  205.6880  144.3420 C   0  0  0  0  0  2  0  0  0  0  0  0
  160.1290  204.9920  144.8650 C   0  0  0  0  0  1  0  0  0  0  0  0
  162.1790  207.4480  152.3020 C   0  0  0  0  0  2  0  0  0  0  0  0
  161.3270  205.4120  153.0510 C   0  0  0  0  0  1  0  0  0  0  0  0
  162.4660  206.0280  152.3960 N   0  0  0  0  0  2  0  0  0  0  0  0
  161.5910  211.1860  149.6960 C   0  0  0  0  0  2  0  0  0  0  0  0
  161.7720  212.0870  148.4780 C   0  0  0  0  0  2  0  0  0  0  0  0
  160.6090  211.9760  147.4960 C   0  0  0  0  0  2  0  0  0  0  0  0
  160.8780  212.7220  146.1900 C   0  0  0  0  0  2  0  0  0  0  0  0
  159.8010  212.5260  145.1140 C   0  0  2  0  0  3  0  0  0  0  0  0
  161.6300  212.5910  143.3550 C   0  0  0  0  0  0  0  0  0  0  0  0
  162.3430  213.3280  144.0850 O   0  0  0  0  0  0  0  0  0  0  0  0
  160.3660  212.1190  143.8320 N   0  0  0  0  0  2  0  0  0  0  0  0
  162.1140  212.2200  142.0570 N   0  0  0  0  0  2  0  0  0  0  0  0
  162.0320  210.3240  140.5280 C   0  0  0  0  0  3  0  0  0  0  0  0
  160.1400  211.8280  140.6020 C   0  0  0  0  0  3  0  0  0  0  0  0
  161.3850  209.5570  139.5530 C   0  0  0  0  0  0  0  0  0  0  0  0
  159.4920  211.0640  139.6280 C   0  0  0  0  0  3  0  0  0  0  0  0
  159.4810  209.1910  138.1580 F   0  0  0  0  0  0  0  0  0  0  0  0
  161.9910  208.4500  139.0570 F   0  0  0  0  0  0  0  0  0  0  0  0
  160.1130  209.9290  139.1020 C   0  0  0  0  0  0  0  0  0  0  0  0
  161.4170  211.4650  141.0570 C   0  0  0  0  0  0  0  0  0  0  0  0
  158.8520  213.7230  144.9690 C   0  0  1  0  0  3  0  0  0  0  0  0
  158.6200  214.0990  143.5060 C   0  0  0  0  0  1  0  0  0  0  0  0
  157.5840  213.4650  145.6550 N   0  0  0  0  0  0  0  0  0  0  0  0
  157.3140  212.2180  146.1720 O   0  0  0  0  0  0  0  0  0  0  0  0
  156.6460  214.2810  145.5400 O   0  0  0  0  0  0  0  0  0  0  0  0
  1  4  1  0  0  0  0
  1  3  1  0  0  0  0
  3  2  1  1  0  0  0
  3  5  1  0  0  0  0
  4 24  1  1  0  0  0
  4  6  1  0  0  0  0
  5  6  1  0  0  0  0
  5 21  1  1  0  0  0
  7  8  1  0  0  0  0
  9 11  1  6  0  0  0
  9 12  1  0  0  0  0
 10 18  1  6  0  0  0
 10  9  1  0  0  0  0
 10 14  1  0  0  0  0
 12 17  1  1  0  0  0
 12  8  1  0  0  0  0
 13 14  1  6  0  0  0
 13  7  1  0  0  0  0
 13  3  1  0  0  0  0
 16 15  1  0  0  0  0
 17 16  1  0  0  0  0
 17 15  1  0  0  0  0
 19 20  1  0  0  0  0
 19 18  1  0  0  0  0
 21 23  1  0  0  0  0
 23 22  1  0  0  0  0
 25 24  1  0  0  0  0
 26 25  1  0  0  0  0
 27 26  1  0  0  0  0
 28 27  1  1  0  0  0
 29 31  1  0  0  0  0
 29 30  2  0  0  0  0
 31 28  1  0  0  0  0
 32 29  1  0  0  0  0
 33 40  1  0  0  0  0
 34 40  2  0  0  0  0
 35 33  2  0  0  0  0
 36 34  1  0  0  0  0
 37 39  1  0  0  0  0
 38 35  1  0  0  0  0
 39 35  1  0  0  0  0
 39 36  2  0  0  0  0
 40 32  1  0  0  0  0
 41 42  1  6  0  0  0
 41 28  1  0  0  0  0
 41 43  1  0  0  0  0
 43 44  2  0  0  0  0
 45 43  2  0  0  0  0
M  END
>  <MODEL>
4

>  <REMARK>
 VINA RESULT:      -5.5      5.061      9.582
  Name = 
  15 active torsions:
  status: ('A' for Active; 'I' for Inactive)
    1  A    between atoms: C_5  and  N_20
    2  A    between atoms: C_5  and  C_41
    3  A    between atoms: C_8  and  N_17
    4  A    between atoms: C_11  and  N_17
    5  A    between atoms: C_21  and  C_37
    6  A    between atoms: C_22  and  C_24
    7  A    between atoms: C_25  and  C_41
    8  A    between atoms: C_25  and  C_43
    9  A    between atoms: N_28  and  C_38
   10  A    between atoms: C_29  and  C_39
   11  A    between atoms: C_30  and  C_39
   12  A    between atoms: C_30  and  C_43
   13  A    between atoms: N_34  and  C_41
   14  A    between atoms: C_35  and  N_42
   15  A    between atoms: C_38  and  C_40
                            x       y       z     vdW  Elec       q    Type
                         _______ _______ _______ _____ _____    ______ ____

>  <TORSDO>
F 15

$$$$
=
 OpenBabel11072414463D

 45 48  0  0  1  0  0  0  0  0999 V2000
  159.9870  209.1700  154.1870 O   0  0  0  0  0  0  0  0  0  0  0  0
  161.8970  210.5730  153.9390 C   0  0  0  0  0  1  0  0  0  0  0  0
  160.4930  210.4400  154.5400 C   0  0  2  0  0  0  0  0  0  0  0  0
  160.1050  208.3180  155.3070 C   0  0  2  0  0  3  0  0  0  0  0  0
  160.4980  210.5160  156.0670 C   0  0  1  0  0  3  0  0  0  0  0  0
  160.6320  209.0930  156.4940 C   0  0  0  0  0  2  0  0  0  0  0  0
  159.0490  212.4960  155.0360 C   0  0  0  0  0  2  0  0  0  0  0  0
  157.6420  212.7670  154.7830 N   0  0  0  0  0  2  0  0  0  0  0  0
  157.8880  213.4730  152.4310 C   0  0  2  0  0  3  0  0  0  0  0  0
  159.4220  213.4950  152.2600 C   0  0  1  0  0  3  0  0  0  0  0  0
  157.2960  214.3420  151.5050 O   0  0  0  0  0  1  0  0  0  0  0  0
  157.5270  213.8980  153.8690 C   0  0  1  0  0  3  0  0  0  0  0  0
  159.5540  211.5260  153.9730 C   0  0  1  0  0  3  0  0  0  0  0  0
  160.1820  212.2580  152.7790 C   0  0  0  0  0  2  0  0  0  0  0  0
  155.1290  213.3130  154.1870 C   0  0  0  0  0  2  0  0  0  0  0  0
  155.5520  214.1820  155.3520 C   0  0  0  0  0  2  0  0  0  0  0  0
  156.1080  214.4520  153.9650 C   0  0  0  0  0  3  0  0  0  0  0  0
  159.8460  213.8340  150.8950 N   0  0  0  0  0  2  0  0  0  0  0  0
  160.2910  212.6320  150.1920 C   0  0  0  0  0  2  0  0  0  0  0  0
  161.0680  213.0280  148.9530 C   0  0  0  0  0  1  0  0  0  0  0  0
  161.5930  211.3850  156.6800 C   0  0  0  0  0  2  0  0  0  0  0  0
  163.9020  211.1110  156.8550 C   0  0  0  0  0  1  0  0  0  0  0  0
  162.6270  210.5470  157.2610 N   0  0  0  0  0  2  0  0  0  0  0  0
  161.0320  207.1580  154.9700 C   0  0  0  0  0  2  0  0  0  0  0  0
  160.4050  206.2100  153.9530 C   0  0  0  0  0  2  0  0  0  0  0  0
  161.4000  205.1740  153.4350 C   0  0  0  0  0  2  0  0  0  0  0  0
  160.9070  204.4800  152.1660 C   0  0  0  0  0  2  0  0  0  0  0  0
  160.6740  205.4230  150.9770 C   0  0  2  0  0  3  0  0  0  0  0  0
  161.0840  203.3420  149.5820 C   0  0  0  0  0  0  0  0  0  0  0  0
  161.1490  202.6290  150.6180 O   0  0  0  0  0  0  0  0  0  0  0  0
  160.8050  204.7410  149.6950 N   0  0  0  0  0  2  0  0  0  0  0  0
  161.2740  202.7280  148.3010 N   0  0  0  0  0  2  0  0  0  0  0  0
  162.0540  204.5700  146.9080 C   0  0  0  0  0  3  0  0  0  0  0  0
  160.6660  202.8670  145.8980 C   0  0  0  0  0  3  0  0  0  0  0  0
  162.1290  205.2380  145.6810 C   0  0  0  0  0  0  0  0  0  0  0  0
  160.7380  203.5320  144.6710 C   0  0  0  0  0  3  0  0  0  0  0  0
  161.5360  205.3600  143.3700 F   0  0  0  0  0  0  0  0  0  0  0  0
  162.8500  206.3820  145.5810 F   0  0  0  0  0  0  0  0  0  0  0  0
  161.4680  204.7190  144.5620 C   0  0  0  0  0  0  0  0  0  0  0  0
  161.3210  203.3820  147.0260 C   0  0  0  0  0  0  0  0  0  0  0  0
  161.5190  206.7040  151.0350 C   0  0  1  0  0  3  0  0  0  0  0  0
  163.0070  206.4040  151.2050 C   0  0  0  0  0  1  0  0  0  0  0  0
  161.2800  207.5350  149.8530 N   0  0  0  0  0  0  0  0  0  0  0  0
  160.5640  207.0410  148.7870 O   0  0  0  0  0  0  0  0  0  0  0  0
  161.9430  208.5810  149.6940 O   0  0  0  0  0  0  0  0  0  0  0  0
  1  3  1  0  0  0  0
  1  4  1  0  0  0  0
  3  2  1  6  0  0  0
  3  5  1  0  0  0  0
  4 24  1  6  0  0  0
  4  6  1  0  0  0  0
  5  6  1  0  0  0  0
  5 21  1  6  0  0  0
  8  7  1  0  0  0  0
  9 11  1  6  0  0  0
  9 12  1  0  0  0  0
 10 18  1  6  0  0  0
 10  9  1  0  0  0  0
 10 14  1  0  0  0  0
 12 17  1  6  0  0  0
 12  8  1  0  0  0  0
 13 14  1  6  0  0  0
 13  3  1  0  0  0  0
 13  7  1  0  0  0  0
 15 16  1  0  0  0  0
 17 15  1  0  0  0  0
 17 16  1  0  0  0  0
 19 18  1  0  0  0  0
 20 19  1  0  0  0  0
 21 23  1  0  0  0  0
 22 23  1  0  0  0  0
 25 24  1  0  0  0  0
 26 25  1  0  0  0  0
 27 26  1  0  0  0  0
 28 41  1  0  0  0  0
 28 27  1  1  0  0  0
 29 31  1  0  0  0  0
 29 30  2  0  0  0  0
 31 28  1  0  0  0  0
 32 29  1  0  0  0  0
 33 40  1  0  0  0  0
 34 40  2  0  0  0  0
 35 33  2  0  0  0  0
 36 34  1  0  0  0  0
 37 39  1  0  0  0  0
 38 35  1  0  0  0  0
 39 36  2  0  0  0  0
 39 35  1  0  0  0  0
 40 32  1  0  0  0  0
 41 42  1  6  0  0  0
 43 41  1  0  0  0  0
 44 43  2  0  0  0  0
 45 43  2  0  0  0  0
M  END
>  <MODEL>
5

>  <REMARK>
 VINA RESULT:      -5.3      2.468      3.493
  Name = 
  15 active torsions:
  status: ('A' for Active; 'I' for Inactive)
    1  A    between atoms: C_5  and  N_20
    2  A    between atoms: C_5  and  C_41
    3  A    between atoms: C_8  and  N_17
    4  A    between atoms: C_11  and  N_17
    5  A    between atoms: C_21  and  C_37
    6  A    between atoms: C_22  and  C_24
    7  A    between atoms: C_25  and  C_41
    8  A    between atoms: C_25  and  C_43
    9  A    between atoms: N_28  and  C_38
   10  A    between atoms: C_29  and  C_39
   11  A    between atoms: C_30  and  C_39
   12  A    between atoms: C_30  and  C_43
   13  A    between atoms: N_34  and  C_41
   14  A    between atoms: C_35  and  N_42
   15  A    between atoms: C_38  and  C_40
                            x       y       z     vdW  Elec       q    Type
                         _______ _______ _______ _____ _____    ______ ____

>  <TORSDO>
F 15

$$$$
=
 OpenBabel11072414463D

 45 48  0  0  1  0  0  0  0  0999 V2000
  161.7660  206.5130  149.6280 O   0  0  0  0  0  0  0  0  0  0  0  0
  163.2340  206.0360  147.8130 C   0  0  0  0  0  1  0  0  0  0  0  0
  161.7880  205.9820  148.3200 C   0  0  2  0  0  0  0  0  0  0  0  0
  161.2650  207.8320  149.5640 C   0  0  2  0  0  3  0  0  0  0  0  0
  160.8360  206.8280  147.4730 C   0  0  1  0  0  3  0  0  0  0  0  0
  160.8460  208.1580  148.1480 C   0  0  0  0  0  2  0  0  0  0  0  0
  161.9640  203.6220  147.3430 C   0  0  0  0  0  2  0  0  0  0  0  0
  160.9610  202.7460  146.7570 N   0  0  0  0  0  2  0  0  0  0  0  0
  160.0810  201.8330  148.8740 C   0  0  2  0  0  3  0  0  0  0  0  0
  161.0550  202.4310  149.9120 C   0  0  1  0  0  3  0  0  0  0  0  0
  159.5130  200.6570  149.3810 O   0  0  0  0  0  1  0  0  0  0  0  0
  160.8440  201.5380  147.5670 C   0  0  1  0  0  3  0  0  0  0  0  0
  161.2810  204.5250  148.3640 C   0  0  1  0  0  3  0  0  0  0  0  0
  161.3450  203.9400  149.7820 C   0  0  0  0  0  2  0  0  0  0  0  0
  160.4530  200.6930  145.2590 C   0  0  0  0  0  2  0  0  0  0  0  0
  161.2060  199.6250  146.0220 C   0  0  0  0  0  2  0  0  0  0  0  0
  160.1570  200.4630  146.7310 C   0  0  0  0  0  3  0  0  0  0  0  0
  160.7080  202.0840  151.2960 N   0  0  0  0  0  2  0  0  0  0  0  0
  161.5640  202.8120  152.2300 C   0  0  0  0  0  2  0  0  0  0  0  0
  160.8300  204.0330  152.7460 C   0  0  0  0  0  1  0  0  0  0  0  0
  161.2020  206.9520  145.9960 C   0  0  0  0  0  2  0  0  0  0  0  0
  161.1970  205.3800  144.2730 C   0  0  0  0  0  1  0  0  0  0  0  0
  160.3390  206.1010  145.1960 N   0  0  0  0  0  2  0  0  0  0  0  0
  162.3310  208.8060  150.0450 C   0  0  0  0  0  2  0  0  0  0  0  0
  162.2590  209.0250  151.5530 C   0  0  0  0  0  2  0  0  0  0  0  0
  160.8280  209.2320  152.0420 C   0  0  0  0  0  2  0  0  0  0  0  0
  160.6890  209.0030  153.5460 C   0  0  0  0  0  2  0  0  0  0  0  0
  159.9010  210.0950  154.2830 C   0  0  2  0  0  3  0  0  0  0  0  0
  158.2600  211.9060  153.5960 C   0  0  0  0  0  0  0  0  0  0  0  0
  157.5650  211.7030  154.6250 O   0  0  0  0  0  0  0  0  0  0  0  0
  159.4660  211.1630  153.3910 N   0  0  0  0  0  2  0  0  0  0  0  0
  157.8360  212.8990  152.6540 N   0  0  0  0  0  2  0  0  0  0  0  0
  157.6240  213.3250  150.2630 C   0  0  0  0  0  3  0  0  0  0  0  0
  159.8250  213.4150  151.2600 C   0  0  0  0  0  3  0  0  0  0  0  0
  158.1760  213.6320  149.0150 C   0  0  0  0  0  0  0  0  0  0  0  0
  160.3790  213.7200  150.0140 C   0  0  0  0  0  3  0  0  0  0  0  0
  160.0970  214.1250  147.6840 F   0  0  0  0  0  0  0  0  0  0  0  0
  157.3670  213.7470  147.9320 F   0  0  0  0  0  0  0  0  0  0  0  0
  159.5560  213.8280  148.8900 C   0  0  0  0  0  0  0  0  0  0  0  0
  158.4430  213.2120  151.3930 C   0  0  0  0  0  0  0  0  0  0  0  0
  160.6210  210.6420  155.5240 C   0  0  1  0  0  3  0  0  0  0  0  0
  159.8280  210.3910  156.8060 C   0  0  0  0  0  1  0  0  0  0  0  0
  161.9730  210.0880  155.6230 N   0  0  0  0  0  0  0  0  0  0  0  0
  162.2460  209.0710  156.5100 O   0  0  0  0  0  0  0  0  0  0  0  0
  162.9290  210.7040  155.1080 O   0  0  0  0  0  0  0  0  0  0  0  0
  3  2  1  6  0  0  0
  3 13  1  0  0  0  0
  3  1  1  0  0  0  0
  4  1  1  0  0  0  0
  4 24  1  6  0  0  0
  5 21  1  6  0  0  0
  5  6  1  0  0  0  0
  5  3  1  0  0  0  0
  6  4  1  0  0  0  0
  8  7  1  0  0  0  0
  8 12  1  0  0  0  0
  9 11  1  1  0  0  0
  9 10  1  0  0  0  0
 10 18  1  1  0  0  0
 12 17  1  6  0  0  0
 12  9  1  0  0  0  0
 13  7  1  6  0  0  0
 13 14  1  0  0  0  0
 14 10  1  0  0  0  0
 15 16  1  0  0  0  0
 15 17  1  0  0  0  0
 16 17  1  0  0  0  0
 18 19  1  0  0  0  0
 19 20  1  0  0  0  0
 22 23  1  0  0  0  0
 23 21  1  0  0  0  0
 24 25  1  0  0  0  0
 25 26  1  0  0  0  0
 26 27  1  0  0  0  0
 28 27  1  6  0  0  0
 28 41  1  0  0  0  0
 29 30  2  0  0  0  0
 31 29  1  0  0  0  0
 31 28  1  0  0  0  0
 32 29  1  0  0  0  0
 33 40  1  0  0  0  0
 34 40  2  0  0  0  0
 35 33  2  0  0  0  0
 36 34  1  0  0  0  0
 37 39  1  0  0  0  0
 38 35  1  0  0  0  0
 39 35  1  0  0  0  0
 39 36  2  0  0  0  0
 40 32  1  0  0  0  0
 41 43  1  0  0  0  0
 41 42  1  1  0  0  0
 43 44  2  0  0  0  0
 45 43  2  0  0  0  0
M  END
>  <MODEL>
6

>  <REMARK>
 VINA RESULT:      -5.1      3.767     11.218
  Name = 
  15 active torsions:
  status: ('A' for Active; 'I' for Inactive)
    1  A    between atoms: C_5  and  N_20
    2  A    between atoms: C_5  and  C_41
    3  A    between atoms: C_8  and  N_17
    4  A    between atoms: C_11  and  N_17
    5  A    between atoms: C_21  and  C_37
    6  A    between atoms: C_22  and  C_24
    7  A    between atoms: C_25  and  C_41
    8  A    between atoms: C_25  and  C_43
    9  A    between atoms: N_28  and  C_38
   10  A    between atoms: C_29  and  C_39
   11  A    between atoms: C_30  and  C_39
   12  A    between atoms: C_30  and  C_43
   13  A    between atoms: N_34  and  C_41
   14  A    between atoms: C_35  and  N_42
   15  A    between atoms: C_38  and  C_40
                            x       y       z     vdW  Elec       q    Type
                         _______ _______ _______ _____ _____    ______ ____

>  <TORSDO>
F 15

$$$$
=
 OpenBabel11072414463D

 45 48  0  0  1  0  0  0  0  0999 V2000
  159.9120  209.0190  153.8120 O   0  0  0  0  0  0  0  0  0  0  0  0
  161.6580  210.5340  154.3860 C   0  0  0  0  0  1  0  0  0  0  0  0
  160.2450  210.0440  154.7240 C   0  0  2  0  0  0  0  0  0  0  0  0
  160.0590  207.7770  154.4690 C   0  0  2  0  0  3  0  0  0  0  0  0
  160.1500  209.4500  156.1290 C   0  0  1  0  0  3  0  0  0  0  0  0
  160.4210  207.9980  155.9200 C   0  0  0  0  0  2  0  0  0  0  0  0
  158.8610  211.8420  155.9100 C   0  0  0  0  0  2  0  0  0  0  0  0
  157.4290  212.1010  155.9230 N   0  0  0  0  0  2  0  0  0  0  0  0
  157.3330  213.3810  153.8140 C   0  0  2  0  0  3  0  0  0  0  0  0
  158.8290  213.5160  153.4520 C   0  0  1  0  0  3  0  0  0  0  0  0
  156.6070  214.4230  153.2240 O   0  0  0  0  0  1  0  0  0  0  0  0
  157.1730  213.4180  155.3470 C   0  0  1  0  0  3  0  0  0  0  0  0
  159.2230  211.1920  154.5790 C   0  0  1  0  0  3  0  0  0  0  0  0
  159.6690  212.2260  153.5370 C   0  0  0  0  0  2  0  0  0  0  0  0
  154.9850  212.6650  156.2640 C   0  0  0  0  0  2  0  0  0  0  0  0
  155.5960  213.6290  157.2570 C   0  0  0  0  0  2  0  0  0  0  0  0
  155.7750  213.8630  155.7670 C   0  0  0  0  0  3  0  0  0  0  0  0
  159.0530  214.2030  152.1730 N   0  0  0  0  0  2  0  0  0  0  0  0
  159.7870  213.3340  151.2550 C   0  0  0  0  0  2  0  0  0  0  0  0
  159.6480  213.8570  149.8410 C   0  0  0  0  0  1  0  0  0  0  0  0
  161.0980  210.0490  157.1640 C   0  0  0  0  0  2  0  0  0  0  0  0
  163.3990  210.4240  157.2120 C   0  0  0  0  0  1  0  0  0  0  0  0
  162.3890  209.3870  157.0980 N   0  0  0  0  0  2  0  0  0  0  0  0
  161.1330  206.9550  153.7680 C   0  0  0  0  0  2  0  0  0  0  0  0
  162.1210  207.8390  153.0150 C   0  0  0  0  0  2  0  0  0  0  0  0
  161.7860  207.9510  151.5300 C   0  0  0  0  0  2  0  0  0  0  0  0
  161.9580  206.6230  150.7940 C   0  0  0  0  0  2  0  0  0  0  0  0
  160.9090  206.3610  149.7050 C   0  0  2  0  0  3  0  0  0  0  0  0
  161.1470  203.8850  150.2090 C   0  0  0  0  0  0  0  0  0  0  0  0
  161.3800  204.1270  151.4220 O   0  0  0  0  0  0  0  0  0  0  0  0
  160.8600  204.9590  149.3080 N   0  0  0  0  0  2  0  0  0  0  0  0
  161.1560  202.5240  149.7570 N   0  0  0  0  0  2  0  0  0  0  0  0
  161.2670  200.7140  148.1290 C   0  0  0  0  0  3  0  0  0  0  0  0
  160.5800  202.9060  147.3720 C   0  0  0  0  0  3  0  0  0  0  0  0
  161.1230  200.2190  146.8280 C   0  0  0  0  0  0  0  0  0  0  0  0
  160.4360  202.4140  146.0720 C   0  0  0  0  0  3  0  0  0  0  0  0
  160.5670  200.5980  144.5360 F   0  0  0  0  0  0  0  0  0  0  0  0
  161.3770  198.9110  146.5750 F   0  0  0  0  0  0  0  0  0  0  0  0
  160.7080  201.0710  145.7980 C   0  0  0  0  0  0  0  0  0  0  0  0
  160.9990  202.0590  148.4100 C   0  0  0  0  0  0  0  0  0  0  0  0
  161.0330  207.2960  148.4940 C   0  0  1  0  0  3  0  0  0  0  0  0
  162.0360  208.4230  148.7400 C   0  0  0  0  0  1  0  0  0  0  0  0
  161.3760  206.5400  147.2880 N   0  0  0  0  0  0  0  0  0  0  0  0
  160.4280  206.3110  146.3170 O   0  0  0  0  0  0  0  0  0  0  0  0
  162.4340  205.8780  147.2580 O   0  0  0  0  0  0  0  0  0  0  0  0
  1  4  1  0  0  0  0
  1  3  1  0  0  0  0
  3  2  1  6  0  0  0
  3  5  1  0  0  0  0
  4 24  1  6  0  0  0
  4  6  1  0  0  0  0
  5 21  1  1  0  0  0
  6  5  1  0  0  0  0
  7  8  1  0  0  0  0
  9 11  1  6  0  0  0
  9 12  1  0  0  0  0
 10 18  1  6  0  0  0
 10 14  1  0  0  0  0
 10  9  1  0  0  0  0
 12 17  1  6  0  0  0
 12  8  1  0  0  0  0
 13 14  1  6  0  0  0
 13  3  1  0  0  0  0
 13  7  1  0  0  0  0
 15 16  1  0  0  0  0
 17 15  1  0  0  0  0
 17 16  1  0  0  0  0
 19 18  1  0  0  0  0
 20 19  1  0  0  0  0
 23 21  1  0  0  0  0
 23 22  1  0  0  0  0
 25 24  1  0  0  0  0
 26 25  1  0  0  0  0
 27 26  1  0  0  0  0
 28 27  1  1  0  0  0
 29 30  2  0  0  0  0
 31 28  1  0  0  0  0
 31 29  1  0  0  0  0
 32 29  1  0  0  0  0
 33 40  1  0  0  0  0
 34 40  2  0  0  0  0
 35 33  2  0  0  0  0
 36 34  1  0  0  0  0
 37 39  1  0  0  0  0
 38 35  1  0  0  0  0
 39 36  2  0  0  0  0
 39 35  1  0  0  0  0
 40 32  1  0  0  0  0
 41 42  1  1  0  0  0
 41 28  1  0  0  0  0
 43 41  1  0  0  0  0
 44 43  2  0  0  0  0
 45 43  2  0  0  0  0
M  END
>  <MODEL>
7

>  <REMARK>
 VINA RESULT:      -5.0      1.355      2.019
  Name = 
  15 active torsions:
  status: ('A' for Active; 'I' for Inactive)
    1  A    between atoms: C_5  and  N_20
    2  A    between atoms: C_5  and  C_41
    3  A    between atoms: C_8  and  N_17
    4  A    between atoms: C_11  and  N_17
    5  A    between atoms: C_21  and  C_37
    6  A    between atoms: C_22  and  C_24
    7  A    between atoms: C_25  and  C_41
    8  A    between atoms: C_25  and  C_43
    9  A    between atoms: N_28  and  C_38
   10  A    between atoms: C_29  and  C_39
   11  A    between atoms: C_30  and  C_39
   12  A    between atoms: C_30  and  C_43
   13  A    between atoms: N_34  and  C_41
   14  A    between atoms: C_35  and  N_42
   15  A    between atoms: C_38  and  C_40
                            x       y       z     vdW  Elec       q    Type
                         _______ _______ _______ _____ _____    ______ ____

>  <TORSDO>
F 15

$$$$
=
 OpenBabel11072414463D

 45 48  0  0  1  0  0  0  0  0999 V2000
  160.0010  210.5700  153.7520 O   0  0  0  0  0  0  0  0  0  0  0  0
  160.0500  212.6900  154.8380 C   0  0  0  0  0  1  0  0  0  0  0  0
  159.2180  211.7210  153.9900 C   0  0  2  0  0  0  0  0  0  0  0  0
  159.5610  209.5470  154.6200 C   0  0  2  0  0  3  0  0  0  0  0  0
  157.9440  211.2630  154.7000 C   0  0  1  0  0  3  0  0  0  0  0  0
  158.3600  210.0190  155.4100 C   0  0  0  0  0  2  0  0  0  0  0  0
  157.8800  213.5300  152.7690 C   0  0  0  0  0  2  0  0  0  0  0  0
  156.9020  213.4440  151.6950 N   0  0  0  0  0  2  0  0  0  0  0  0
  158.5110  213.3360  149.8270 C   0  0  2  0  0  3  0  0  0  0  0  0
  159.8570  213.5710  150.5480 C   0  0  1  0  0  3  0  0  0  0  0  0
  158.6210  213.7170  148.4830 O   0  0  0  0  0  1  0  0  0  0  0  0
  157.4070  214.1550  150.5250 C   0  0  1  0  0  3  0  0  0  0  0  0
  158.8510  212.3630  152.6350 C   0  0  1  0  0  3  0  0  0  0  0  0
  160.0980  212.7420  151.8250 C   0  0  0  0  0  2  0  0  0  0  0  0
  155.3030  213.2460  149.5550 C   0  0  0  0  0  2  0  0  0  0  0  0
  154.9420  214.4520  150.3960 C   0  0  0  0  0  2  0  0  0  0  0  0
  156.2330  214.4460  149.5960 C   0  0  0  0  0  3  0  0  0  0  0  0
  161.0150  213.4930  149.6480 N   0  0  0  0  0  2  0  0  0  0  0  0
  161.4630  212.1080  149.5200 C   0  0  0  0  0  2  0  0  0  0  0  0
  162.3710  211.9770  148.3150 C   0  0  0  0  0  1  0  0  0  0  0  0
  157.3280  212.2730  155.6640 C   0  0  0  0  0  2  0  0  0  0  0  0
  155.4710  213.6610  155.4150 C   0  0  0  0  0  1  0  0  0  0  0  0
  155.8820  212.2730  155.5270 N   0  0  0  0  0  2  0  0  0  0  0  0
  160.6950  209.1490  155.5560 C   0  0  0  0  0  2  0  0  0  0  0  0
  160.9760  207.6510  155.4980 C   0  0  0  0  0  2  0  0  0  0  0  0
  161.6130  207.2310  154.1750 C   0  0  0  0  0  2  0  0  0  0  0  0
  160.6190  206.5340  153.2480 C   0  0  0  0  0  2  0  0  0  0  0  0
  160.8970  206.7370  151.7520 C   0  0  2  0  0  3  0  0  0  0  0  0
  160.9030  204.2020  151.6300 C   0  0  0  0  0  0  0  0  0  0  0  0
  160.9180  204.1160  152.8860 O   0  0  0  0  0  0  0  0  0  0  0  0
  160.8470  205.4870  151.0030 N   0  0  0  0  0  2  0  0  0  0  0  0
  160.9210  203.0000  150.8500 N   0  0  0  0  0  2  0  0  0  0  0  0
  161.4700  203.9930  148.6920 C   0  0  0  0  0  3  0  0  0  0  0  0
  160.6090  201.7330  148.7370 C   0  0  0  0  0  3  0  0  0  0  0  0
  161.5600  203.9320  147.2970 C   0  0  0  0  0  0  0  0  0  0  0  0
  160.6960  201.6710  147.3430 C   0  0  0  0  0  3  0  0  0  0  0  0
  161.2540  202.7040  145.2710 F   0  0  0  0  0  0  0  0  0  0  0  0
  162.0320  204.9990  146.6070 F   0  0  0  0  0  0  0  0  0  0  0  0
  161.1700  202.7700  146.6220 C   0  0  0  0  0  0  0  0  0  0  0  0
  160.9930  202.8970  149.4210 C   0  0  0  0  0  0  0  0  0  0  0  0
  162.1840  207.5250  151.4680 C   0  0  1  0  0  3  0  0  0  0  0  0
  162.9450  206.9690  150.2650 C   0  0  0  0  0  1  0  0  0  0  0  0
  161.8910  208.9490  151.2950 N   0  0  0  0  0  0  0  0  0  0  0  0
  162.5500  209.8930  152.0500 O   0  0  0  0  0  0  0  0  0  0  0  0
  160.8690  209.2940  150.6670 O   0  0  0  0  0  0  0  0  0  0  0  0
  1  3  1  0  0  0  0
  1  4  1  0  0  0  0
  3  5  1  0  0  0  0
  3  2  1  1  0  0  0
  4  6  1  0  0  0  0
  4 24  1  1  0  0  0
  5  6  1  0  0  0  0
  5 21  1  1  0  0  0
  8  7  1  0  0  0  0
  9 11  1  6  0  0  0
  9 12  1  0  0  0  0
  9 10  1  0  0  0  0
 10 18  1  6  0  0  0
 10 14  1  0  0  0  0
 12 17  1  6  0  0  0
 12  8  1  0  0  0  0
 13 14  1  1  0  0  0
 13  7  1  0  0  0  0
 13  3  1  0  0  0  0
 15 17  1  0  0  0  0
 15 16  1  0  0  0  0
 17 16  1  0  0  0  0
 19 18  1  0  0  0  0
 20 19  1  0  0  0  0
 22 23  1  0  0  0  0
 23 21  1  0  0  0  0
 25 24  1  0  0  0  0
 26 25  1  0  0  0  0
 27 26  1  0  0  0  0
 28 27  1  1  0  0  0
 29 30  2  0  0  0  0
 31 29  1  0  0  0  0
 31 28  1  0  0  0  0
 32 29  1  0  0  0  0
 33 40  1  0  0  0  0
 34 40  2  0  0  0  0
 35 33  2  0  0  0  0
 36 34  1  0  0  0  0
 37 39  1  0  0  0  0
 38 35  1  0  0  0  0
 39 35  1  0  0  0  0
 39 36  2  0  0  0  0
 40 32  1  0  0  0  0
 41 42  1  6  0  0  0
 41 28  1  0  0  0  0
 43 41  1  0  0  0  0
 43 44  2  0  0  0  0
 45 43  2  0  0  0  0
M  END
>  <MODEL>
8

>  <REMARK>
 VINA RESULT:      -4.9      2.718      4.618
  Name = 
  15 active torsions:
  status: ('A' for Active; 'I' for Inactive)
    1  A    between atoms: C_5  and  N_20
    2  A    between atoms: C_5  and  C_41
    3  A    between atoms: C_8  and  N_17
    4  A    between atoms: C_11  and  N_17
    5  A    between atoms: C_21  and  C_37
    6  A    between atoms: C_22  and  C_24
    7  A    between atoms: C_25  and  C_41
    8  A    between atoms: C_25  and  C_43
    9  A    between atoms: N_28  and  C_38
   10  A    between atoms: C_29  and  C_39
   11  A    between atoms: C_30  and  C_39
   12  A    between atoms: C_30  and  C_43
   13  A    between atoms: N_34  and  C_41
   14  A    between atoms: C_35  and  N_42
   15  A    between atoms: C_38  and  C_40
                            x       y       z     vdW  Elec       q    Type
                         _______ _______ _______ _____ _____    ______ ____

>  <TORSDO>
F 15

$$$$
=
 OpenBabel11072414463D

 45 48  0  0  1  0  0  0  0  0999 V2000
  162.0310  208.2700  149.6630 O   0  0  0  0  0  0  0  0  0  0  0  0
  163.5930  206.9500  148.4410 C   0  0  0  0  0  1  0  0  0  0  0  0
  162.1230  207.1300  148.8360 C   0  0  2  0  0  0  0  0  0  0  0  0
  161.5320  209.3410  148.8890 C   0  0  2  0  0  3  0  0  0  0  0  0
  161.2160  207.3720  147.6280 C   0  0  1  0  0  3  0  0  0  0  0  0
  161.1880  208.8580  147.4980 C   0  0  0  0  0  2  0  0  0  0  0  0
  162.1340  204.5800  149.0650 C   0  0  0  0  0  2  0  0  0  0  0  0
  161.0490  203.6110  149.0900 N   0  0  0  0  0  2  0  0  0  0  0  0
  160.4840  203.8500  151.4810 C   0  0  2  0  0  3  0  0  0  0  0  0
  161.6050  204.7850  151.9840 C   0  0  1  0  0  3  0  0  0  0  0  0
  159.9880  203.0890  152.5470 O   0  0  0  0  0  1  0  0  0  0  0  0
  161.0430  202.9270  150.3790 C   0  0  1  0  0  3  0  0  0  0  0  0
  161.6170  205.9020  149.6210 C   0  0  1  0  0  3  0  0  0  0  0  0
  161.8840  206.0360  151.1260 C   0  0  0  0  0  2  0  0  0  0  0  0
  160.0270  201.3260  148.7690 C   0  0  0  0  0  2  0  0  0  0  0  0
  161.0780  200.5800  149.5610 C   0  0  0  0  0  2  0  0  0  0  0  0
  160.2310  201.6430  150.2390 C   0  0  0  0  0  3  0  0  0  0  0  0
  161.4640  205.1440  153.4010 N   0  0  0  0  0  2  0  0  0  0  0  0
  161.5810  206.5910  153.5700 C   0  0  0  0  0  2  0  0  0  0  0  0
  160.7020  207.0420  154.7180 C   0  0  0  0  0  1  0  0  0  0  0  0
  161.6590  206.7080  146.3270 C   0  0  0  0  0  2  0  0  0  0  0  0
  161.1850  205.1100  144.6970 C   0  0  0  0  0  1  0  0  0  0  0  0
  160.6850  205.7110  145.9200 N   0  0  0  0  0  2  0  0  0  0  0  0
  162.5700  210.4530  148.8280 C   0  0  0  0  0  2  0  0  0  0  0  0
  161.9250  211.8170  148.6020 C   0  0  0  0  0  2  0  0  0  0  0  0
  162.8770  212.8060  147.9350 C   0  0  0  0  0  2  0  0  0  0  0  0
  162.1600  213.7300  146.9520 C   0  0  0  0  0  2  0  0  0  0  0  0
  160.9810  213.0800  146.2150 C   0  0  2  0  0  3  0  0  0  0  0  0
  162.3320  213.4830  144.1050 C   0  0  0  0  0  0  0  0  0  0  0  0
  163.1010  214.2710  144.7170 O   0  0  0  0  0  0  0  0  0  0  0  0
  161.2790  212.8210  144.8120 N   0  0  0  0  0  2  0  0  0  0  0  0
  162.5440  213.2500  142.7070 N   0  0  0  0  0  2  0  0  0  0  0  0
  162.3170  211.3780  141.1620 C   0  0  0  0  0  3  0  0  0  0  0  0
  160.3700  212.7360  141.6240 C   0  0  0  0  0  3  0  0  0  0  0  0
  161.5570  210.5810  140.3000 C   0  0  0  0  0  0  0  0  0  0  0  0
  159.6090  211.9420  140.7620 C   0  0  0  0  0  3  0  0  0  0  0  0
  159.4600  210.0970  139.2630 F   0  0  0  0  0  0  0  0  0  0  0  0
  162.1380  209.5300  139.6690 F   0  0  0  0  0  0  0  0  0  0  0  0
  160.2020  210.8650  140.0980 C   0  0  0  0  0  0  0  0  0  0  0  0
  161.7310  212.4620  141.8290 C   0  0  0  0  0  0  0  0  0  0  0  0
  159.6550  213.8340  146.3920 C   0  0  1  0  0  3  0  0  0  0  0  0
  158.8610  213.9130  145.0880 C   0  0  0  0  0  1  0  0  0  0  0  0
  158.8560  213.2320  147.4600 N   0  0  0  0  0  0  0  0  0  0  0  0
  157.7430  212.4800  147.1590 O   0  0  0  0  0  0  0  0  0  0  0  0
  159.0170  213.6140  148.6380 O   0  0  0  0  0  0  0  0  0  0  0  0
  3  2  1  6  0  0  0
  3 13  1  0  0  0  0
  3  1  1  0  0  0  0
  4 24  1  6  0  0  0
  4  1  1  0  0  0  0
  5 21  1  6  0  0  0
  5  3  1  0  0  0  0
  6  5  1  0  0  0  0
  6  4  1  0  0  0  0
  7  8  1  0  0  0  0
  8 12  1  0  0  0  0
  9 10  1  0  0  0  0
  9 11  1  1  0  0  0
 10 18  1  1  0  0  0
 12 17  1  6  0  0  0
 12  9  1  0  0  0  0
 13  7  1  6  0  0  0
 13 14  1  0  0  0  0
 14 10  1  0  0  0  0
 15 16  1  0  0  0  0
 15 17  1  0  0  0  0
 16 17  1  0  0  0  0
 18 19  1  0  0  0  0
 19 20  1  0  0  0  0
 22 23  1  0  0  0  0
 23 21  1  0  0  0  0
 25 24  1  0  0  0  0
 26 25  1  0  0  0  0
 27 26  1  0  0  0  0
 28 41  1  0  0  0  0
 28 27  1  6  0  0  0
 29 30  2  0  0  0  0
 29 31  1  0  0  0  0
 31 28  1  0  0  0  0
 32 29  1  0  0  0  0
 33 40  1  0  0  0  0
 34 40  2  0  0  0  0
 35 33  2  0  0  0  0
 36 34  1  0  0  0  0
 37 39  1  0  0  0  0
 38 35  1  0  0  0  0
 39 35  1  0  0  0  0
 39 36  2  0  0  0  0
 40 32  1  0  0  0  0
 41 42  1  6  0  0  0
 41 43  1  0  0  0  0
 43 45  2  0  0  0  0
 44 43  2  0  0  0  0
M  END
>  <MODEL>
9

>  <REMARK>
 VINA RESULT:      -4.6      4.979      9.862
  Name = 
  15 active torsions:
  status: ('A' for Active; 'I' for Inactive)
    1  A    between atoms: C_5  and  N_20
    2  A    between atoms: C_5  and  C_41
    3  A    between atoms: C_8  and  N_17
    4  A    between atoms: C_11  and  N_17
    5  A    between atoms: C_21  and  C_37
    6  A    between atoms: C_22  and  C_24
    7  A    between atoms: C_25  and  C_41
    8  A    between atoms: C_25  and  C_43
    9  A    between atoms: N_28  and  C_38
   10  A    between atoms: C_29  and  C_39
   11  A    between atoms: C_30  and  C_39
   12  A    between atoms: C_30  and  C_43
   13  A    between atoms: N_34  and  C_41
   14  A    between atoms: C_35  and  N_42
   15  A    between atoms: C_38  and  C_40
                            x       y       z     vdW  Elec       q    Type
                         _______ _______ _______ _____ _____    ______ ____

>  <TORSDO>
F 15

$$$$
