=
 OpenBabel11072414153D

 34 38  0  0  1  0  0  0  0  0999 V2000
  162.6180  209.9950  152.9860 C   0  0  0  0  0  1  0  0  0  0  0  0
  162.1140  209.6580  151.5850 C   0  0  1  0  0  3  0  0  0  0  0  0
  161.6140  204.8010  152.4690 C   0  0  0  0  0  2  0  0  0  0  0  0
  160.4970  205.1830  149.7440 C   0  0  2  0  0  3  0  0  0  0  0  0
  162.4150  208.6900  148.6180 O   0  0  0  0  0  0  0  0  0  0  0  0
  162.0310  206.4170  148.2790 N   0  0  0  0  0  0  0  0  0  0  0  0
  160.7370  206.2960  150.7040 C   0  0  2  0  0  3  0  0  0  0  0  0
  160.9590  207.6880  150.2380 C   0  0  2  0  0  3  0  0  0  0  0  0
  160.3580  203.7780  150.3780 C   0  0  1  0  0  3  0  0  0  0  0  0
  161.4510  205.2820  148.5750 C   0  0  0  0  0  0  0  0  0  0  0  0
  161.8550  207.6390  149.0240 C   0  0  0  0  0  0  0  0  0  0  0  0
  161.6690  208.2290  151.4450 C   0  0  0  0  0  0  0  0  0  0  0  0
  161.6840  203.1110  150.6890 C   0  0  0  0  0  2  0  0  0  0  0  0
  161.2770  206.1340  151.8940 C   0  0  2  0  0  3  0  0  0  0  0  0
  160.8430  203.6340  151.8370 C   0  0  1  0  0  3  0  0  0  0  0  0
  161.8460  207.3420  152.3710 N   0  0  0  0  0  0  0  0  0  0  0  0
  161.6600  204.1570  147.7730 O   0  0  0  0  0  0  0  0  0  0  0  0
  161.7840  204.2430  146.3600 C   0  0  0  0  0  1  0  0  0  0  0  0
  161.1930  210.5980  151.0650 O   0  0  0  0  0  0  0  0  0  0  0  0
  159.5030  210.6010  152.7490 C   0  0  0  0  0  2  0  0  0  0  0  0
  158.0710  213.7140  151.7980 C   0  0  0  0  0  1  0  0  0  0  0  0
  160.6500  211.3520  152.1190 C   0  0  2  0  0  3  0  0  0  0  0  0
  159.1540  212.9520  152.5380 C   0  0  2  0  0  3  0  0  0  0  0  0
  160.1610  212.5730  151.6350 O   0  0  0  0  0  0  0  0  0  0  0  0
  158.5670  211.7020  153.1760 C   0  0  2  0  0  3  0  0  0  0  0  0
  158.4330  211.8220  154.7130 C   0  0  0  0  0  0  0  0  0  0  0  0
  159.1380  213.0800  155.2020 C   0  0  0  0  0  1  0  0  0  0  0  0
  156.9710  211.9140  155.1350 C   0  0  0  0  0  1  0  0  0  0  0  0
  160.8550  209.3610  156.4290 N   0  0  0  0  0  2  0  0  0  0  0  0
  159.0220  210.6540  155.3660 N   0  0  0  0  0  2  0  0  0  0  0  0
  160.3720  210.5710  155.8450 C   0  0  0  0  0  0  0  0  0  0  0  0
  161.1450  211.5620  155.7520 O   0  0  0  0  0  0  0  0  0  0  0  0
  160.3320  207.2420  155.3470 C   0  0  0  0  0  1  0  0  0  0  0  0
  160.0440  208.1560  156.5220 C   0  0  0  0  0  2  0  0  0  0  0  0
  2  1  1  1  0  0  0
  4 10  1  6  0  0  0
  4  9  1  0  0  0  0
  4  7  1  0  0  0  0
  5 11  2  0  0  0  0
  6 10  2  0  0  0  0
  6 11  1  0  0  0  0
  7 14  1  0  0  0  0
  8  7  1  0  0  0  0
  8 12  1  0  0  0  0
  9 13  1  0  0  0  0
  9 15  1  0  0  0  0
 11  8  1  0  0  0  0
 12  2  1  0  0  0  0
 12 16  2  0  0  0  0
 13 15  1  0  0  0  0
 14 16  1  0  0  0  0
 14  3  1  0  0  0  0
 15  3  1  0  0  0  0
 17 10  1  0  0  0  0
 18 17  1  0  0  0  0
 19  2  1  0  0  0  0
 19 22  1  0  0  0  0
 20 25  1  0  0  0  0
 21 23  1  0  0  0  0
 22 20  1  0  0  0  0
 23 25  1  0  0  0  0
 24 22  1  0  0  0  0
 24 23  1  0  0  0  0
 25 26  1  0  0  0  0
 26 28  1  0  0  0  0
 26 27  1  0  0  0  0
 26 30  1  0  0  0  0
 29 34  1  0  0  0  0
 30 31  1  0  0  0  0
 31 29  1  0  0  0  0
 32 31  2  0  0  0  0
 33 34  1  0  0  0  0
M  END
>  <MODEL>
1

>  <REMARK>
 VINA RESULT:      -7.9      0.000      0.000
  Name = 
  7 active torsions:
  status: ('A' for Active; 'I' for Inactive)
    1  A    between atoms: O_1  and  C_17
    2  A    between atoms: N_6  and  C_25
    3  A    between atoms: C_10  and  N_12
    4  A    between atoms: C_10  and  C_31
    5  A    between atoms: C_18  and  O_27
    6  A    between atoms: C_23  and  C_32
    7  A    between atoms: O_27  and  C_32
                            x       y       z     vdW  Elec       q    Type
                         _______ _______ _______ _____ _____    ______ ____

>  <TORSDO>
F 7

$$$$
=
 OpenBabel11072414153D

 34 38  0  0  1  0  0  0  0  0999 V2000
  161.9420  207.3250  153.4660 C   0  0  0  0  0  1  0  0  0  0  0  0
  161.6850  207.3990  151.9630 C   0  0  1  0  0  3  0  0  0  0  0  0
  161.3880  202.4920  151.2920 C   0  0  0  0  0  2  0  0  0  0  0  0
  160.4790  203.6550  148.7150 C   0  0  2  0  0  3  0  0  0  0  0  0
  162.2840  207.3910  148.8860 O   0  0  0  0  0  0  0  0  0  0  0  0
  162.0570  205.3200  147.8440 N   0  0  0  0  0  0  0  0  0  0  0  0
  160.5770  204.4280  149.9840 C   0  0  2  0  0  3  0  0  0  0  0  0
  160.7580  205.9020  149.9820 C   0  0  2  0  0  3  0  0  0  0  0  0
  160.3680  202.1210  148.8800 C   0  0  1  0  0  3  0  0  0  0  0  0
  161.5190  204.1340  147.7270 C   0  0  0  0  0  0  0  0  0  0  0  0
  161.7520  206.2510  148.9010 C   0  0  0  0  0  0  0  0  0  0  0  0
  161.3330  206.0690  151.3580 C   0  0  0  0  0  0  0  0  0  0  0  0
  161.6990  201.4280  149.1010 C   0  0  0  0  0  2  0  0  0  0  0  0
  161.0250  203.9270  151.1160 C   0  0  2  0  0  3  0  0  0  0  0  0
  160.7380  201.5530  150.2670 C   0  0  1  0  0  3  0  0  0  0  0  0
  161.4840  204.9470  151.9860 N   0  0  0  0  0  0  0  0  0  0  0  0
  161.8570  203.3130  146.6470 O   0  0  0  0  0  0  0  0  0  0  0  0
  161.2000  203.4020  145.3900 C   0  0  0  0  0  1  0  0  0  0  0  0
  160.8170  208.4500  151.5810 O   0  0  0  0  0  0  0  0  0  0  0  0
  159.5330  209.4460  153.3290 C   0  0  0  0  0  2  0  0  0  0  0  0
  159.7870  212.7710  152.0940 C   0  0  0  0  0  1  0  0  0  0  0  0
  160.8350  209.4520  152.5660 C   0  0  2  0  0  3  0  0  0  0  0  0
  160.4020  211.6190  152.8660 C   0  0  2  0  0  3  0  0  0  0  0  0
  160.9860  210.7110  151.9680 O   0  0  0  0  0  0  0  0  0  0  0  0
  159.3280  210.8990  153.6680 C   0  0  2  0  0  3  0  0  0  0  0  0
  159.4230  211.1870  155.1860 C   0  0  0  0  0  0  0  0  0  0  0  0
  160.4600  212.2700  155.4490 C   0  0  0  0  0  1  0  0  0  0  0  0
  158.0900  211.6730  155.7410 C   0  0  0  0  0  1  0  0  0  0  0  0
  161.4000  208.3190  156.8410 N   0  0  0  0  0  2  0  0  0  0  0  0
  159.8000  209.9730  155.9080 N   0  0  0  0  0  2  0  0  0  0  0  0
  161.1480  209.5490  156.1610 C   0  0  0  0  0  0  0  0  0  0  0  0
  162.1210  210.2550  155.7830 O   0  0  0  0  0  0  0  0  0  0  0  0
  159.5540  206.9390  156.0530 C   0  0  0  0  0  1  0  0  0  0  0  0
  160.3340  207.4220  157.2610 C   0  0  0  0  0  2  0  0  0  0  0  0
  2  1  1  1  0  0  0
  4 10  1  6  0  0  0
  4  9  1  0  0  0  0
  4  7  1  0  0  0  0
  5 11  2  0  0  0  0
  6 11  1  0  0  0  0
  7 14  1  0  0  0  0
  8  7  1  0  0  0  0
  8 12  1  0  0  0  0
  9 13  1  0  0  0  0
  9 15  1  0  0  0  0
 10  6  2  0  0  0  0
 11  8  1  0  0  0  0
 12  2  1  0  0  0  0
 12 16  2  0  0  0  0
 13 15  1  0  0  0  0
 14  3  1  0  0  0  0
 14 16  1  0  0  0  0
 15  3  1  0  0  0  0
 17 10  1  0  0  0  0
 18 17  1  0  0  0  0
 19  2  1  0  0  0  0
 19 22  1  0  0  0  0
 20 25  1  0  0  0  0
 21 23  1  0  0  0  0
 22 20  1  0  0  0  0
 23 25  1  0  0  0  0
 24 22  1  0  0  0  0
 24 23  1  0  0  0  0
 25 26  1  0  0  0  0
 26 27  1  0  0  0  0
 26 28  1  0  0  0  0
 26 30  1  0  0  0  0
 29 34  1  0  0  0  0
 30 31  1  0  0  0  0
 31 29  1  0  0  0  0
 32 31  2  0  0  0  0
 33 34  1  0  0  0  0
M  END
>  <MODEL>
2

>  <REMARK>
 VINA RESULT:      -7.5      1.421      1.835
  Name = 
  7 active torsions:
  status: ('A' for Active; 'I' for Inactive)
    1  A    between atoms: O_1  and  C_17
    2  A    between atoms: N_6  and  C_25
    3  A    between atoms: C_10  and  N_12
    4  A    between atoms: C_10  and  C_31
    5  A    between atoms: C_18  and  O_27
    6  A    between atoms: C_23  and  C_32
    7  A    between atoms: O_27  and  C_32
                            x       y       z     vdW  Elec       q    Type
                         _______ _______ _______ _____ _____    ______ ____

>  <TORSDO>
F 7

$$$$
=
 OpenBabel11072414153D

 34 38  0  0  1  0  0  0  0  0999 V2000
  161.8670  209.4890  149.5560 C   0  0  0  0  0  1  0  0  0  0  0  0
  161.3040  208.1060  149.8760 C   0  0  1  0  0  3  0  0  0  0  0  0
  160.8560  205.9860  145.4120 C   0  0  0  0  0  2  0  0  0  0  0  0
  162.0420  203.8730  147.1280 C   0  0  2  0  0  3  0  0  0  0  0  0
  160.8400  205.1750  150.8840 O   0  0  0  0  0  0  0  0  0  0  0  0
  160.7820  203.5550  149.2100 N   0  0  0  0  0  0  0  0  0  0  0  0
  162.0140  205.3160  147.4920 C   0  0  2  0  0  3  0  0  0  0  0  0
  162.0670  205.7600  148.9090 C   0  0  2  0  0  3  0  0  0  0  0  0
  161.9040  203.5670  145.6170 C   0  0  1  0  0  3  0  0  0  0  0  0
  161.1310  203.0820  148.0410 C   0  0  0  0  0  0  0  0  0  0  0  0
  161.1850  204.8410  149.7210 C   0  0  0  0  0  0  0  0  0  0  0  0
  161.4680  207.1260  148.7490 C   0  0  0  0  0  0  0  0  0  0  0  0
  160.4720  203.5800  145.1160 C   0  0  0  0  0  2  0  0  0  0  0  0
  161.4460  206.2480  146.7560 C   0  0  2  0  0  3  0  0  0  0  0  0
  161.3920  204.7220  144.7290 C   0  0  1  0  0  3  0  0  0  0  0  0
  161.1180  207.3890  147.5300 N   0  0  0  0  0  0  0  0  0  0  0  0
  160.7150  201.8080  147.6460 O   0  0  0  0  0  0  0  0  0  0  0  0
  161.2170  200.6230  148.2480 C   0  0  0  0  0  1  0  0  0  0  0  0
  161.7060  207.6020  151.1360 O   0  0  0  0  0  0  0  0  0  0  0  0
  161.7220  209.4010  152.7040 C   0  0  0  0  0  2  0  0  0  0  0  0
  161.0690  207.3820  155.5570 C   0  0  0  0  0  1  0  0  0  0  0  0
  160.9570  208.2250  152.1490 C   0  0  2  0  0  3  0  0  0  0  0  0
  160.5480  208.1210  154.3390 C   0  0  2  0  0  3  0  0  0  0  0  0
  160.7210  207.3240  153.1960 O   0  0  0  0  0  0  0  0  0  0  0  0
  161.3140  209.4220  154.1540 C   0  0  2  0  0  3  0  0  0  0  0  0
  160.4770  210.6680  154.5300 C   0  0  0  0  0  0  0  0  0  0  0  0
  159.0970  210.2430  155.0150 C   0  0  0  0  0  1  0  0  0  0  0  0
  161.1390  211.4630  155.6480 C   0  0  0  0  0  1  0  0  0  0  0  0
  159.3560  213.4450  152.1010 N   0  0  0  0  0  2  0  0  0  0  0  0
  160.3300  211.5480  153.3720 N   0  0  0  0  0  2  0  0  0  0  0  0
  159.4500  212.6790  153.3030 C   0  0  0  0  0  0  0  0  0  0  0  0
  158.7500  213.0060  154.2980 O   0  0  0  0  0  0  0  0  0  0  0  0
  160.1880  214.3100  149.9810 C   0  0  0  0  0  1  0  0  0  0  0  0
  160.0880  213.1010  150.8910 C   0  0  0  0  0  2  0  0  0  0  0  0
  2  1  1  6  0  0  0
  2 19  1  0  0  0  0
  3 14  1  0  0  0  0
  4  7  1  0  0  0  0
  4 10  1  1  0  0  0
  6 11  1  0  0  0  0
  7  8  1  0  0  0  0
  8 11  1  0  0  0  0
  9  4  1  0  0  0  0
 10  6  2  0  0  0  0
 11  5  2  0  0  0  0
 12  8  1  0  0  0  0
 12  2  1  0  0  0  0
 13  9  1  0  0  0  0
 14  7  1  0  0  0  0
 14 16  1  0  0  0  0
 15 13  1  0  0  0  0
 15  3  1  0  0  0  0
 15  9  1  0  0  0  0
 16 12  2  0  0  0  0
 17 10  1  0  0  0  0
 17 18  1  0  0  0  0
 19 22  1  0  0  0  0
 20 25  1  0  0  0  0
 22 20  1  0  0  0  0
 22 24  1  0  0  0  0
 23 21  1  0  0  0  0
 24 23  1  0  0  0  0
 25 23  1  0  0  0  0
 25 26  1  0  0  0  0
 26 27  1  0  0  0  0
 26 28  1  0  0  0  0
 29 31  1  0  0  0  0
 30 26  1  0  0  0  0
 31 30  1  0  0  0  0
 31 32  2  0  0  0  0
 33 34  1  0  0  0  0
 34 29  1  0  0  0  0
M  END
>  <MODEL>
3

>  <REMARK>
 VINA RESULT:      -7.4      2.150      4.637
  Name = 
  7 active torsions:
  status: ('A' for Active; 'I' for Inactive)
    1  A    between atoms: O_1  and  C_17
    2  A    between atoms: N_6  and  C_25
    3  A    between atoms: C_10  and  N_12
    4  A    between atoms: C_10  and  C_31
    5  A    between atoms: C_18  and  O_27
    6  A    between atoms: C_23  and  C_32
    7  A    between atoms: O_27  and  C_32
                            x       y       z     vdW  Elec       q    Type
                         _______ _______ _______ _____ _____    ______ ____

>  <TORSDO>
F 7

$$$$
=
 OpenBabel11072414153D

 34 38  0  0  1  0  0  0  0  0999 V2000
  162.6750  209.4180  148.9750 C   0  0  0  0  0  1  0  0  0  0  0  0
  161.9060  208.3730  149.7790 C   0  0  1  0  0  3  0  0  0  0  0  0
  161.1570  211.3990  153.6400 C   0  0  0  0  0  2  0  0  0  0  0  0
  160.1870  208.7500  154.5670 C   0  0  2  0  0  3  0  0  0  0  0  0
  162.3050  206.2310  152.0340 O   0  0  0  0  0  0  0  0  0  0  0  0
  161.8400  206.9750  154.1920 N   0  0  0  0  0  0  0  0  0  0  0  0
  160.4290  209.0890  153.1380 C   0  0  2  0  0  3  0  0  0  0  0  0
  160.7320  208.0390  152.1320 C   0  0  2  0  0  3  0  0  0  0  0  0
  159.9580  209.9580  155.5060 C   0  0  1  0  0  3  0  0  0  0  0  0
  161.1980  207.7320  155.0450 C   0  0  0  0  0  0  0  0  0  0  0  0
  161.6810  207.0470  152.7610 C   0  0  0  0  0  0  0  0  0  0  0  0
  161.4060  208.8920  151.0980 C   0  0  0  0  0  0  0  0  0  0  0  0
  161.2390  210.6270  155.9690 C   0  0  0  0  0  2  0  0  0  0  0  0
  160.9050  210.2460  152.7290 C   0  0  2  0  0  3  0  0  0  0  0  0
  160.3680  211.3410  154.9540 C   0  0  1  0  0  3  0  0  0  0  0  0
  161.5020  210.1350  151.4480 N   0  0  0  0  0  0  0  0  0  0  0  0
  161.3960  207.5650  156.4180 O   0  0  0  0  0  0  0  0  0  0  0  0
  160.4240  206.9610  157.2590 C   0  0  0  0  0  1  0  0  0  0  0  0
  160.9260  207.6800  149.0290 O   0  0  0  0  0  0  0  0  0  0  0  0
  160.6700  206.0870  147.2700 C   0  0  0  0  0  2  0  0  0  0  0  0
  160.8340  203.2220  149.3690 C   0  0  0  0  0  1  0  0  0  0  0  0
  161.5060  206.5420  148.4420 C   0  0  2  0  0  3  0  0  0  0  0  0
  161.5530  204.3190  148.6070 C   0  0  2  0  0  3  0  0  0  0  0  0
  161.5610  205.4950  149.3720 O   0  0  0  0  0  0  0  0  0  0  0  0
  160.8380  204.5900  147.2910 C   0  0  2  0  0  3  0  0  0  0  0  0
  161.6140  204.0500  146.0660 C   0  0  0  0  0  0  0  0  0  0  0  0
  161.1090  204.7130  144.7920 C   0  0  0  0  0  1  0  0  0  0  0  0
  163.1050  204.3410  146.1830 C   0  0  0  0  0  1  0  0  0  0  0  0
  160.2720  200.5260  145.2590 N   0  0  0  0  0  2  0  0  0  0  0  0
  161.4410  202.6020  145.9560 N   0  0  0  0  0  2  0  0  0  0  0  0
  160.3650  201.9510  145.2640 C   0  0  0  0  0  0  0  0  0  0  0  0
  159.4920  202.6280  144.6590 O   0  0  0  0  0  0  0  0  0  0  0  0
  161.3180  198.3260  145.2950 C   0  0  0  0  0  1  0  0  0  0  0  0
  161.2070  199.6750  145.9790 C   0  0  0  0  0  2  0  0  0  0  0  0
  2  1  1  6  0  0  0
  2 12  1  0  0  0  0
  3 15  1  0  0  0  0
  4 10  1  1  0  0  0
  4  9  1  0  0  0  0
  5 11  2  0  0  0  0
  6 10  2  0  0  0  0
  7  4  1  0  0  0  0
  8 11  1  0  0  0  0
  8  7  1  0  0  0  0
  9 13  1  0  0  0  0
 10 17  1  0  0  0  0
 11  6  1  0  0  0  0
 12 16  2  0  0  0  0
 12  8  1  0  0  0  0
 14  7  1  0  0  0  0
 14  3  1  0  0  0  0
 15  9  1  0  0  0  0
 15 13  1  0  0  0  0
 16 14  1  0  0  0  0
 17 18  1  0  0  0  0
 19  2  1  0  0  0  0
 20 25  1  0  0  0  0
 20 22  1  0  0  0  0
 22 19  1  0  0  0  0
 22 24  1  0  0  0  0
 23 21  1  0  0  0  0
 23 24  1  0  0  0  0
 25 23  1  0  0  0  0
 26 28  1  0  0  0  0
 26 25  1  0  0  0  0
 27 26  1  0  0  0  0
 29 31  1  0  0  0  0
 29 34  1  0  0  0  0
 30 26  1  0  0  0  0
 31 30  1  0  0  0  0
 32 31  2  0  0  0  0
 33 34  1  0  0  0  0
M  END
>  <MODEL>
4

>  <REMARK>
 VINA RESULT:      -7.4      2.676      9.054
  Name = 
  7 active torsions:
  status: ('A' for Active; 'I' for Inactive)
    1  A    between atoms: O_1  and  C_17
    2  A    between atoms: N_6  and  C_25
    3  A    between atoms: C_10  and  N_12
    4  A    between atoms: C_10  and  C_31
    5  A    between atoms: C_18  and  O_27
    6  A    between atoms: C_23  and  C_32
    7  A    between atoms: O_27  and  C_32
                            x       y       z     vdW  Elec       q    Type
                         _______ _______ _______ _____ _____    ______ ____

>  <TORSDO>
F 7

$$$$
=
 OpenBabel11072414153D

 34 38  0  0  1  0  0  0  0  0999 V2000
  162.7070  207.9610  150.0020 C   0  0  0  0  0  1  0  0  0  0  0  0
  161.6320  207.3990  150.9290 C   0  0  1  0  0  3  0  0  0  0  0  0
  161.5470  202.4490  151.2610 C   0  0  0  0  0  2  0  0  0  0  0  0
  160.2910  203.0430  148.6370 C   0  0  2  0  0  3  0  0  0  0  0  0
  161.8830  206.8000  147.8630 O   0  0  0  0  0  0  0  0  0  0  0  0
  161.6620  204.5560  147.2760 N   0  0  0  0  0  0  0  0  0  0  0  0
  160.4840  204.0570  149.7110 C   0  0  2  0  0  3  0  0  0  0  0  0
  160.5780  205.5060  149.4030 C   0  0  2  0  0  3  0  0  0  0  0  0
  160.2880  201.5700  149.1080 C   0  0  1  0  0  3  0  0  0  0  0  0
  161.1850  203.3520  147.4560 C   0  0  0  0  0  0  0  0  0  0  0  0
  161.4230  205.6680  148.1620 C   0  0  0  0  0  0  0  0  0  0  0  0
  161.2930  205.9640  150.6400 C   0  0  0  0  0  0  0  0  0  0  0  0
  161.6740  200.9820  149.2960 C   0  0  0  0  0  2  0  0  0  0  0  0
  161.0840  203.8070  150.8560 C   0  0  2  0  0  3  0  0  0  0  0  0
  160.8430  201.3020  150.5240 C   0  0  1  0  0  3  0  0  0  0  0  0
  161.5770  204.9950  151.4510 N   0  0  0  0  0  0  0  0  0  0  0  0
  161.4470  202.3460  146.5230 O   0  0  0  0  0  0  0  0  0  0  0  0
  160.5590  202.0510  145.4530 C   0  0  0  0  0  1  0  0  0  0  0  0
  161.8600  207.6680  152.3000 O   0  0  0  0  0  0  0  0  0  0  0  0
  161.3750  209.9950  152.5130 C   0  0  0  0  0  2  0  0  0  0  0  0
  160.7660  209.9050  156.0140 C   0  0  0  0  0  1  0  0  0  0  0  0
  160.9010  208.5850  152.7630 C   0  0  2  0  0  3  0  0  0  0  0  0
  160.2660  209.6760  154.6010 C   0  0  2  0  0  3  0  0  0  0  0  0
  160.7090  208.4260  154.1420 O   0  0  0  0  0  0  0  0  0  0  0  0
  160.8050  210.7600  153.6780 C   0  0  2  0  0  3  0  0  0  0  0  0
  159.7220  211.7830  153.2610 C   0  0  0  0  0  0  0  0  0  0  0  0
  158.3620  211.1020  153.1820 C   0  0  0  0  0  1  0  0  0  0  0  0
  159.6150  212.9200  154.2700 C   0  0  0  0  0  1  0  0  0  0  0  0
  159.6230  213.7650  149.9540 N   0  0  0  0  0  2  0  0  0  0  0  0
  160.0470  212.3610  151.9580 N   0  0  0  0  0  2  0  0  0  0  0  0
  159.2260  213.2980  151.2440 C   0  0  0  0  0  0  0  0  0  0  0  0
  158.1490  213.7150  151.7460 O   0  0  0  0  0  0  0  0  0  0  0  0
  160.4950  212.8700  147.8630 C   0  0  0  0  0  1  0  0  0  0  0  0
  160.8240  213.2910  149.2830 C   0  0  0  0  0  2  0  0  0  0  0  0
  2  1  1  6  0  0  0
  2 19  1  0  0  0  0
  4 10  1  6  0  0  0
  4  9  1  0  0  0  0
  4  7  1  0  0  0  0
  5 11  2  0  0  0  0
  6 10  2  0  0  0  0
  6 11  1  0  0  0  0
  7 14  1  0  0  0  0
  8  7  1  0  0  0  0
  8 12  1  0  0  0  0
  9 13  1  0  0  0  0
  9 15  1  0  0  0  0
 11  8  1  0  0  0  0
 12  2  1  0  0  0  0
 12 16  2  0  0  0  0
 13 15  1  0  0  0  0
 14  3  1  0  0  0  0
 14 16  1  0  0  0  0
 15  3  1  0  0  0  0
 17 10  1  0  0  0  0
 18 17  1  0  0  0  0
 19 22  1  0  0  0  0
 20 22  1  0  0  0  0
 20 25  1  0  0  0  0
 22 24  1  0  0  0  0
 23 21  1  0  0  0  0
 24 23  1  0  0  0  0
 25 23  1  0  0  0  0
 26 25  1  0  0  0  0
 26 28  1  0  0  0  0
 27 26  1  0  0  0  0
 29 31  1  0  0  0  0
 30 26  1  0  0  0  0
 31 32  2  0  0  0  0
 31 30  1  0  0  0  0
 33 34  1  0  0  0  0
 34 29  1  0  0  0  0
M  END
>  <MODEL>
5

>  <REMARK>
 VINA RESULT:      -7.3      2.340      4.014
  Name = 
  7 active torsions:
  status: ('A' for Active; 'I' for Inactive)
    1  A    between atoms: O_1  and  C_17
    2  A    between atoms: N_6  and  C_25
    3  A    between atoms: C_10  and  N_12
    4  A    between atoms: C_10  and  C_31
    5  A    between atoms: C_18  and  O_27
    6  A    between atoms: C_23  and  C_32
    7  A    between atoms: O_27  and  C_32
                            x       y       z     vdW  Elec       q    Type
                         _______ _______ _______ _____ _____    ______ ____

>  <TORSDO>
F 7

$$$$
=
 OpenBabel11072414153D

 34 38  0  0  1  0  0  0  0  0999 V2000
  160.9570  206.5850  154.2490 C   0  0  0  0  0  1  0  0  0  0  0  0
  161.3730  206.7760  152.7930 C   0  0  1  0  0  3  0  0  0  0  0  0
  161.2060  202.0700  151.2300 C   0  0  0  0  0  2  0  0  0  0  0  0
  160.4610  203.6760  148.8460 C   0  0  2  0  0  3  0  0  0  0  0  0
  162.1870  207.3270  149.8160 O   0  0  0  0  0  0  0  0  0  0  0  0
  162.0690  205.4770  148.4050 N   0  0  0  0  0  0  0  0  0  0  0  0
  160.4560  204.2070  150.2370 C   0  0  2  0  0  3  0  0  0  0  0  0
  160.6120  205.6580  150.5140 C   0  0  2  0  0  3  0  0  0  0  0  0
  160.3640  202.1360  148.7240 C   0  0  1  0  0  3  0  0  0  0  0  0
  161.5600  204.3290  148.0380 C   0  0  0  0  0  0  0  0  0  0  0  0
  161.6740  206.2000  149.5870 C   0  0  0  0  0  0  0  0  0  0  0  0
  161.0870  205.5760  151.9350 C   0  0  0  0  0  0  0  0  0  0  0  0
  161.6880  201.4210  148.9130 C   0  0  0  0  0  2  0  0  0  0  0  0
  160.8320  203.5120  151.2900 C   0  0  2  0  0  3  0  0  0  0  0  0
  160.6460  201.3290  150.0090 C   0  0  1  0  0  3  0  0  0  0  0  0
  161.2110  204.3600  152.3600 N   0  0  0  0  0  0  0  0  0  0  0  0
  161.9860  203.7180  146.8550 O   0  0  0  0  0  0  0  0  0  0  0  0
  161.4090  204.0190  145.5930 C   0  0  0  0  0  1  0  0  0  0  0  0
  160.9390  208.0000  152.2290 O   0  0  0  0  0  0  0  0  0  0  0  0
  160.2440  210.2320  152.7080 C   0  0  0  0  0  2  0  0  0  0  0  0
  162.4570  210.7040  155.4520 C   0  0  0  0  0  1  0  0  0  0  0  0
  160.4560  208.8390  153.2480 C   0  0  2  0  0  3  0  0  0  0  0  0
  161.1520  210.1490  154.9130 C   0  0  2  0  0  3  0  0  0  0  0  0
  161.3870  208.9120  154.2930 O   0  0  0  0  0  0  0  0  0  0  0  0
  160.5610  211.1090  153.8910 C   0  0  2  0  0  3  0  0  0  0  0  0
  159.3270  211.8710  154.4300 C   0  0  0  0  0  0  0  0  0  0  0  0
  158.3520  210.8960  155.0760 C   0  0  0  0  0  1  0  0  0  0  0  0
  159.7260  212.8970  155.4830 C   0  0  0  0  0  1  0  0  0  0  0  0
  156.8570  213.9650  152.3360 N   0  0  0  0  0  2  0  0  0  0  0  0
  158.6530  212.5760  153.3410 N   0  0  0  0  0  2  0  0  0  0  0  0
  157.4540  213.3540  153.4800 C   0  0  0  0  0  0  0  0  0  0  0  0
  156.9160  213.5020  154.6100 O   0  0  0  0  0  0  0  0  0  0  0  0
  156.3000  214.0770  149.9670 C   0  0  0  0  0  1  0  0  0  0  0  0
  157.3840  213.7970  150.9910 C   0  0  0  0  0  2  0  0  0  0  0  0
  2  1  1  1  0  0  0
  3 14  1  0  0  0  0
  4 10  1  1  0  0  0
  4  7  1  0  0  0  0
  6 11  1  0  0  0  0
  7  8  1  0  0  0  0
  7 14  1  0  0  0  0
  8 12  1  0  0  0  0
  9  4  1  0  0  0  0
  9 13  1  0  0  0  0
  9 15  1  0  0  0  0
 10  6  2  0  0  0  0
 11  5  2  0  0  0  0
 11  8  1  0  0  0  0
 12 16  2  0  0  0  0
 12  2  1  0  0  0  0
 13 15  1  0  0  0  0
 14 16  1  0  0  0  0
 15  3  1  0  0  0  0
 17 10  1  0  0  0  0
 18 17  1  0  0  0  0
 19  2  1  0  0  0  0
 19 22  1  0  0  0  0
 20 22  1  0  0  0  0
 20 25  1  0  0  0  0
 22 24  1  0  0  0  0
 23 21  1  0  0  0  0
 24 23  1  0  0  0  0
 25 26  1  0  0  0  0
 25 23  1  0  0  0  0
 26 27  1  0  0  0  0
 26 28  1  0  0  0  0
 29 31  1  0  0  0  0
 30 31  1  0  0  0  0
 30 26  1  0  0  0  0
 31 32  2  0  0  0  0
 33 34  1  0  0  0  0
 34 29  1  0  0  0  0
M  END
>  <MODEL>
6

>  <REMARK>
 VINA RESULT:      -7.3      2.036      3.786
  Name = 
  7 active torsions:
  status: ('A' for Active; 'I' for Inactive)
    1  A    between atoms: O_1  and  C_17
    2  A    between atoms: N_6  and  C_25
    3  A    between atoms: C_10  and  N_12
    4  A    between atoms: C_10  and  C_31
    5  A    between atoms: C_18  and  O_27
    6  A    between atoms: C_23  and  C_32
    7  A    between atoms: O_27  and  C_32
                            x       y       z     vdW  Elec       q    Type
                         _______ _______ _______ _____ _____    ______ ____

>  <TORSDO>
F 7

$$$$
=
 OpenBabel11072414153D

 34 38  0  0  1  0  0  0  0  0999 V2000
  161.4650  206.9660  153.7270 C   0  0  0  0  0  1  0  0  0  0  0  0
  161.5740  207.1120  152.2120 C   0  0  1  0  0  3  0  0  0  0  0  0
  161.3650  202.2930  151.0440 C   0  0  0  0  0  2  0  0  0  0  0  0
  160.4560  203.6970  148.5910 C   0  0  2  0  0  3  0  0  0  0  0  0
  162.1950  207.4260  149.1550 O   0  0  0  0  0  0  0  0  0  0  0  0
  162.0120  205.4670  147.9060 N   0  0  0  0  0  0  0  0  0  0  0  0
  160.5310  204.3390  149.9320 C   0  0  2  0  0  3  0  0  0  0  0  0
  160.6870  205.8080  150.0810 C   0  0  2  0  0  3  0  0  0  0  0  0
  160.3700  202.1520  148.5980 C   0  0  1  0  0  3  0  0  0  0  0  0
  161.4950  204.2900  147.6650 C   0  0  0  0  0  0  0  0  0  0  0  0
  161.6830  206.2810  149.0500 C   0  0  0  0  0  0  0  0  0  0  0  0
  161.2490  205.8450  151.4720 C   0  0  0  0  0  0  0  0  0  0  0  0
  161.7110  201.4630  148.7600 C   0  0  0  0  0  2  0  0  0  0  0  0
  160.9790  203.7330  151.0110 C   0  0  2  0  0  3  0  0  0  0  0  0
  160.7400  201.4530  149.9240 C   0  0  1  0  0  3  0  0  0  0  0  0
  161.4140  204.6670  151.9850 N   0  0  0  0  0  0  0  0  0  0  0  0
  161.8540  203.5890  146.5110 O   0  0  0  0  0  0  0  0  0  0  0  0
  161.2520  203.8410  145.2490 C   0  0  0  0  0  1  0  0  0  0  0  0
  160.9220  208.2580  151.6980 O   0  0  0  0  0  0  0  0  0  0  0  0
  159.6870  209.2320  153.4930 C   0  0  0  0  0  2  0  0  0  0  0  0
  159.7210  212.5380  152.1840 C   0  0  0  0  0  1  0  0  0  0  0  0
  160.9450  209.2810  152.6610 C   0  0  2  0  0  3  0  0  0  0  0  0
  160.4290  211.4320  152.9430 C   0  0  2  0  0  3  0  0  0  0  0  0
  161.0060  210.5320  152.0330 O   0  0  0  0  0  0  0  0  0  0  0  0
  159.4340  210.6810  153.8160 C   0  0  2  0  0  3  0  0  0  0  0  0
  159.5950  211.0040  155.3200 C   0  0  0  0  0  0  0  0  0  0  0  0
  159.6410  209.7160  156.1300 C   0  0  0  0  0  1  0  0  0  0  0  0
  160.8870  211.7680  155.5870 C   0  0  0  0  0  1  0  0  0  0  0  0
  156.0800  212.4110  156.0550 N   0  0  0  0  0  2  0  0  0  0  0  0
  158.4780  211.8260  155.7840 N   0  0  0  0  0  2  0  0  0  0  0  0
  157.0900  211.5100  155.5970 C   0  0  0  0  0  0  0  0  0  0  0  0
  156.7490  210.4410  155.0260 O   0  0  0  0  0  0  0  0  0  0  0  0
  155.1130  214.4530  156.9650 C   0  0  0  0  0  1  0  0  0  0  0  0
  156.3920  213.6900  156.6740 C   0  0  0  0  0  2  0  0  0  0  0  0
  2  1  1  1  0  0  0
  4 10  1  6  0  0  0
  4  9  1  0  0  0  0
  4  7  1  0  0  0  0
  6 11  1  0  0  0  0
  7  8  1  0  0  0  0
  7 14  1  0  0  0  0
  8 12  1  0  0  0  0
  9 13  1  0  0  0  0
  9 15  1  0  0  0  0
 10  6  2  0  0  0  0
 11  5  2  0  0  0  0
 11  8  1  0  0  0  0
 12 16  2  0  0  0  0
 12  2  1  0  0  0  0
 13 15  1  0  0  0  0
 14  3  1  0  0  0  0
 14 16  1  0  0  0  0
 15  3  1  0  0  0  0
 17 10  1  0  0  0  0
 18 17  1  0  0  0  0
 19  2  1  0  0  0  0
 19 22  1  0  0  0  0
 20 25  1  0  0  0  0
 21 23  1  0  0  0  0
 22 20  1  0  0  0  0
 23 25  1  0  0  0  0
 24 22  1  0  0  0  0
 24 23  1  0  0  0  0
 25 26  1  0  0  0  0
 26 28  1  0  0  0  0
 26 30  1  0  0  0  0
 26 27  1  0  0  0  0
 29 34  1  0  0  0  0
 31 30  1  0  0  0  0
 31 29  1  0  0  0  0
 32 31  2  0  0  0  0
 34 33  1  0  0  0  0
M  END
>  <MODEL>
7

>  <REMARK>
 VINA RESULT:      -7.3      1.865      3.167
  Name = 
  7 active torsions:
  status: ('A' for Active; 'I' for Inactive)
    1  A    between atoms: O_1  and  C_17
    2  A    between atoms: N_6  and  C_25
    3  A    between atoms: C_10  and  N_12
    4  A    between atoms: C_10  and  C_31
    5  A    between atoms: C_18  and  O_27
    6  A    between atoms: C_23  and  C_32
    7  A    between atoms: O_27  and  C_32
                            x       y       z     vdW  Elec       q    Type
                         _______ _______ _______ _____ _____    ______ ____

>  <TORSDO>
F 7

$$$$
=
 OpenBabel11072414153D

 34 38  0  0  1  0  0  0  0  0999 V2000
  161.7980  209.6010  148.9550 C   0  0  0  0  0  1  0  0  0  0  0  0
  161.7040  208.1850  149.5160 C   0  0  1  0  0  3  0  0  0  0  0  0
  160.6440  205.8190  145.2850 C   0  0  0  0  0  2  0  0  0  0  0  0
  161.8920  203.7470  147.0070 C   0  0  2  0  0  3  0  0  0  0  0  0
  161.1890  205.3580  150.7700 O   0  0  0  0  0  0  0  0  0  0  0  0
  160.8540  203.6430  149.2290 N   0  0  0  0  0  0  0  0  0  0  0  0
  161.9860  205.2090  147.2710 C   0  0  2  0  0  3  0  0  0  0  0  0
  162.2200  205.7370  148.6390 C   0  0  2  0  0  3  0  0  0  0  0  0
  161.5700  203.3560  145.5450 C   0  0  1  0  0  3  0  0  0  0  0  0
  161.0450  203.0750  148.0660 C   0  0  0  0  0  0  0  0  0  0  0  0
  161.3840  204.9300  149.6030 C   0  0  0  0  0  0  0  0  0  0  0  0
  161.6860  207.1260  148.4490 C   0  0  0  0  0  0  0  0  0  0  0  0
  160.0950  203.4280  145.2000 C   0  0  0  0  0  2  0  0  0  0  0  0
  161.3940  206.1270  146.5360 C   0  0  2  0  0  3  0  0  0  0  0  0
  161.0290  204.4820  144.6390 C   0  0  1  0  0  3  0  0  0  0  0  0
  161.2180  207.3330  147.2600 N   0  0  0  0  0  0  0  0  0  0  0  0
  160.5150  201.8080  147.8080 O   0  0  0  0  0  0  0  0  0  0  0  0
  161.2390  200.6140  148.0690 C   0  0  0  0  0  1  0  0  0  0  0  0
  162.6150  207.9230  150.5670 O   0  0  0  0  0  0  0  0  0  0  0  0
  161.0700  208.2710  152.3520 C   0  0  0  0  0  2  0  0  0  0  0  0
  160.3340  211.6490  151.5210 C   0  0  0  0  0  1  0  0  0  0  0  0
  162.3210  208.7550  151.6600 C   0  0  2  0  0  3  0  0  0  0  0  0
  161.2560  210.6430  152.1850 C   0  0  2  0  0  3  0  0  0  0  0  0
  162.0960  210.0670  151.2190 O   0  0  0  0  0  0  0  0  0  0  0  0
  160.4370  209.5450  152.8460 C   0  0  2  0  0  3  0  0  0  0  0  0
  160.4220  209.6570  154.3890 C   0  0  0  0  0  0  0  0  0  0  0  0
  160.3970  208.2680  155.0140 C   0  0  0  0  0  1  0  0  0  0  0  0
  161.6630  210.3760  154.9040 C   0  0  0  0  0  1  0  0  0  0  0  0
  157.7300  211.4170  156.5170 N   0  0  0  0  0  2  0  0  0  0  0  0
  159.2460  210.4050  154.8310 N   0  0  0  0  0  2  0  0  0  0  0  0
  158.9330  210.7150  156.1970 C   0  0  0  0  0  0  0  0  0  0  0  0
  159.7110  210.3700  157.1260 O   0  0  0  0  0  0  0  0  0  0  0  0
  155.7020  210.7190  155.3630 C   0  0  0  0  0  1  0  0  0  0  0  0
  156.7540  211.8020  155.5090 C   0  0  0  0  0  2  0  0  0  0  0  0
  2  1  1  6  0  0  0
  2 19  1  0  0  0  0
  3 14  1  0  0  0  0
  4  7  1  0  0  0  0
  4 10  1  1  0  0  0
  6 11  1  0  0  0  0
  7  8  1  0  0  0  0
  8 11  1  0  0  0  0
  9  4  1  0  0  0  0
 10  6  2  0  0  0  0
 11  5  2  0  0  0  0
 12  8  1  0  0  0  0
 12  2  1  0  0  0  0
 13  9  1  0  0  0  0
 14 16  1  0  0  0  0
 14  7  1  0  0  0  0
 15 13  1  0  0  0  0
 15  3  1  0  0  0  0
 15  9  1  0  0  0  0
 16 12  2  0  0  0  0
 17 10  1  0  0  0  0
 17 18  1  0  0  0  0
 19 22  1  0  0  0  0
 20 25  1  0  0  0  0
 21 23  1  0  0  0  0
 22 20  1  0  0  0  0
 23 25  1  0  0  0  0
 24 22  1  0  0  0  0
 24 23  1  0  0  0  0
 25 26  1  0  0  0  0
 26 30  1  0  0  0  0
 26 28  1  0  0  0  0
 26 27  1  0  0  0  0
 30 31  1  0  0  0  0
 31 29  1  0  0  0  0
 31 32  2  0  0  0  0
 33 34  1  0  0  0  0
 34 29  1  0  0  0  0
M  END
>  <MODEL>
8

>  <REMARK>
 VINA RESULT:      -7.1      2.009      4.037
  Name = 
  7 active torsions:
  status: ('A' for Active; 'I' for Inactive)
    1  A    between atoms: O_1  and  C_17
    2  A    between atoms: N_6  and  C_25
    3  A    between atoms: C_10  and  N_12
    4  A    between atoms: C_10  and  C_31
    5  A    between atoms: C_18  and  O_27
    6  A    between atoms: C_23  and  C_32
    7  A    between atoms: O_27  and  C_32
                            x       y       z     vdW  Elec       q    Type
                         _______ _______ _______ _____ _____    ______ ____

>  <TORSDO>
F 7

$$$$
=
 OpenBabel11072414153D

 34 38  0  0  1  0  0  0  0  0999 V2000
  162.3310  210.1280  149.7340 C   0  0  0  0  0  1  0  0  0  0  0  0
  161.9890  208.6940  150.1310 C   0  0  1  0  0  3  0  0  0  0  0  0
  160.6280  206.6710  154.4530 C   0  0  0  0  0  2  0  0  0  0  0  0
  160.9440  209.5630  155.0480 C   0  0  2  0  0  3  0  0  0  0  0  0
  160.4480  211.1810  151.2550 O   0  0  0  0  0  0  0  0  0  0  0  0
  159.7180  210.9750  153.4590 N   0  0  0  0  0  0  0  0  0  0  0  0
  161.4910  208.9040  153.8300 C   0  0  2  0  0  3  0  0  0  0  0  0
  161.7510  209.6690  152.5840 C   0  0  2  0  0  3  0  0  0  0  0  0
  160.6570  208.6200  156.2410 C   0  0  1  0  0  3  0  0  0  0  0  0
  159.8230  210.5090  154.6760 C   0  0  0  0  0  0  0  0  0  0  0  0
  160.6040  210.6290  152.3750 C   0  0  0  0  0  0  0  0  0  0  0  0
  161.7270  208.5350  151.6020 C   0  0  0  0  0  0  0  0  0  0  0  0
  159.3300  207.8920  156.1420 C   0  0  0  0  0  2  0  0  0  0  0  0
  161.3110  207.6330  153.5400 C   0  0  2  0  0  3  0  0  0  0  0  0
  160.6100  207.1100  155.9230 C   0  0  1  0  0  3  0  0  0  0  0  0
  161.4730  207.3910  152.1530 N   0  0  0  0  0  0  0  0  0  0  0  0
  158.9330  210.9280  155.6680 O   0  0  0  0  0  0  0  0  0  0  0  0
  157.5410  211.0760  155.4270 C   0  0  0  0  0  1  0  0  0  0  0  0
  161.0110  208.0890  149.3070 O   0  0  0  0  0  0  0  0  0  0  0  0
  160.7080  206.5560  147.5030 C   0  0  0  0  0  2  0  0  0  0  0  0
  160.8210  203.6260  149.5140 C   0  0  0  0  0  1  0  0  0  0  0  0
  161.5610  206.9570  148.6820 C   0  0  2  0  0  3  0  0  0  0  0  0
  161.5590  204.7290  148.7800 C   0  0  2  0  0  3  0  0  0  0  0  0
  161.5980  205.8820  149.5800 O   0  0  0  0  0  0  0  0  0  0  0  0
  160.8420  205.0560  147.4780 C   0  0  2  0  0  3  0  0  0  0  0  0
  161.5980  204.5350  146.2320 C   0  0  0  0  0  0  0  0  0  0  0  0
  161.0580  205.2030  144.9750 C   0  0  0  0  0  1  0  0  0  0  0  0
  163.0880  204.8440  146.3200 C   0  0  0  0  0  1  0  0  0  0  0  0
  160.3960  201.0030  145.2590 N   0  0  0  0  0  2  0  0  0  0  0  0
  161.4410  203.0870  146.1140 N   0  0  0  0  0  2  0  0  0  0  0  0
  160.4910  202.4280  145.2620 C   0  0  0  0  0  0  0  0  0  0  0  0
  159.7330  203.0980  144.5120 O   0  0  0  0  0  0  0  0  0  0  0  0
  161.2060  198.7340  145.6190 C   0  0  0  0  0  1  0  0  0  0  0  0
  161.1960  200.1610  146.1340 C   0  0  0  0  0  2  0  0  0  0  0  0
  2  1  1  6  0  0  0
  2 12  1  0  0  0  0
  3 15  1  0  0  0  0
  4 10  1  6  0  0  0
  4  9  1  0  0  0  0
  5 11  2  0  0  0  0
  6 10  2  0  0  0  0
  7  4  1  0  0  0  0
  8  7  1  0  0  0  0
 10 17  1  0  0  0  0
 11  8  1  0  0  0  0
 11  6  1  0  0  0  0
 12 16  2  0  0  0  0
 12  8  1  0  0  0  0
 13  9  1  0  0  0  0
 14  7  1  0  0  0  0
 14  3  1  0  0  0  0
 15 13  1  0  0  0  0
 15  9  1  0  0  0  0
 16 14  1  0  0  0  0
 18 17  1  0  0  0  0
 19  2  1  0  0  0  0
 20 22  1  0  0  0  0
 22 19  1  0  0  0  0
 22 24  1  0  0  0  0
 23 21  1  0  0  0  0
 23 24  1  0  0  0  0
 25 20  1  0  0  0  0
 25 23  1  0  0  0  0
 26 28  1  0  0  0  0
 26 25  1  0  0  0  0
 27 26  1  0  0  0  0
 29 31  1  0  0  0  0
 29 34  1  0  0  0  0
 30 26  1  0  0  0  0
 31 30  1  0  0  0  0
 32 31  2  0  0  0  0
 33 34  1  0  0  0  0
M  END
>  <MODEL>
9

>  <REMARK>
 VINA RESULT:      -6.7      2.315      8.784
  Name = 
  7 active torsions:
  status: ('A' for Active; 'I' for Inactive)
    1  A    between atoms: O_1  and  C_17
    2  A    between atoms: N_6  and  C_25
    3  A    between atoms: C_10  and  N_12
    4  A    between atoms: C_10  and  C_31
    5  A    between atoms: C_18  and  O_27
    6  A    between atoms: C_23  and  C_32
    7  A    between atoms: O_27  and  C_32
                            x       y       z     vdW  Elec       q    Type
                         _______ _______ _______ _____ _____    ______ ____

>  <TORSDO>
F 7

$$$$
