=
 OpenBabel11072410083D

 43 47  0  0  1  0  0  0  0  0999 V2000
  160.4870  207.2150  156.0510 C   0  0  0  0  0  3  0  0  0  0  0  0
  160.2880  209.4110  154.8720 C   0  0  0  0  0  0  0  0  0  0  0  0
  160.0290  209.9860  156.1540 C   0  0  0  0  0  0  0  0  0  0  0  0
  160.0000  209.2840  157.2470 N   0  0  0  0  0  0  0  0  0  0  0  0
  160.5250  207.9650  154.7690 C   0  0  0  0  0  0  0  0  0  0  0  0
  160.7310  207.3890  153.6240 N   0  0  0  0  0  0  0  0  0  0  0  0
  160.2370  207.8580  157.2080 C   0  0  0  0  0  3  0  0  0  0  0  0
  159.9310  211.7030  154.6410 C   0  0  2  0  0  3  0  0  0  0  0  0
  160.2520  210.3830  153.9670 C   0  0  0  0  0  0  0  0  0  0  0  0
  159.8110  211.3800  156.0690 N   0  0  0  0  0  2  0  0  0  0  0  0
  156.5680  213.8660  151.6330 C   0  0  0  0  0  2  0  0  0  0  0  0
  156.6360  213.1130  154.1270 C   0  0  0  0  0  3  0  0  0  0  0  0
  158.4060  212.7070  152.8620 C   0  0  0  0  0  0  0  0  0  0  0  0
  157.5590  212.5120  154.9170 N   0  0  0  0  0  2  0  0  0  0  0  0
  159.3040  212.8220  151.6680 C   0  0  0  0  0  2  0  0  0  0  0  0
  158.6400  212.2700  154.1400 C   0  0  0  0  0  0  0  0  0  0  0  0
  157.7010  214.0940  150.6120 C   0  0  1  0  0  3  0  0  0  0  0  0
  158.5190  212.9390  150.4930 O   0  0  0  0  0  0  0  0  0  0  0  0
  157.1620  213.2550  152.8600 C   0  0  0  0  0  0  0  0  0  0  0  0
  157.1020  214.4530  149.2620 C   0  0  0  0  0  2  0  0  0  0  0  0
  157.4000  212.5660  147.6590 O   0  0  0  0  0  0  0  0  0  0  0  0
  157.8490  213.7800  148.1630 C   0  0  0  0  0  0  0  0  0  0  0  0
  158.9090  214.2910  147.7170 O   0  0  0  0  0  1  0  0  0  0  0  0
  161.9680  210.1160  152.2080 C   0  0  0  0  0  1  0  0  0  0  0  0
  160.4840  210.2250  152.5000 C   0  0  0  0  0  2  0  0  0  0  0  0
  160.9700  205.9600  153.4830 C   0  0  0  0  0  2  0  0  0  0  0  0
  162.2900  205.7200  152.7670 C   0  0  0  0  0  2  0  0  0  0  0  0
  162.6200  206.8460  151.9010 N   0  0  0  0  0  2  0  0  0  0  0  0
  162.6430  206.3760  150.5220 C   0  0  0  0  0  2  0  0  0  0  0  0
  162.3530  207.5220  149.5660 C   0  0  0  0  0  2  0  0  0  0  0  0
  162.8840  207.2340  148.3060 O   0  0  0  0  0  0  0  0  0  0  0  0
  162.1680  203.4200  145.2710 O   0  0  0  0  0  0  0  0  0  0  0  0
  160.4630  205.1330  148.0360 C   0  0  0  0  0  2  0  0  0  0  0  0
  161.4200  203.5730  146.2760 C   0  0  0  0  0  0  0  0  0  0  0  0
  161.7750  207.1090  147.4650 C   0  0  1  0  0  3  0  0  0  0  0  0
  162.0490  206.0220  146.4400 C   0  0  0  0  0  2  0  0  0  0  0  0
  161.3060  204.8630  146.8910 N   0  0  0  0  0  0  0  0  0  0  0  0
  160.5800  206.6260  148.2830 C   0  0  0  0  0  2  0  0  0  0  0  0
  160.6580  202.4040  146.8210 C   0  0  0  0  0  3  0  0  0  0  0  0
  160.5850  201.5900  149.1870 C   0  0  0  0  0  1  0  0  0  0  0  0
  161.4500  201.7560  147.9510 C   0  0  0  0  0  2  0  0  0  0  0  0
  161.1100  200.1040  145.9370 C   0  0  0  0  0  1  0  0  0  0  0  0
  160.3710  201.4090  145.7030 C   0  0  0  0  0  2  0  0  0  0  0  0
  1  7  2  0  0  0  0
  2  3  1  0  0  0  0
  3  4  2  0  0  0  0
  5  2  1  0  0  0  0
  5  1  1  0  0  0  0
  6  5  2  0  0  0  0
  7  4  1  0  0  0  0
  8 16  1  6  0  0  0
  8 10  1  0  0  0  0
  9  8  1  0  0  0  0
  9  2  2  0  0  0  0
 10  3  1  0  0  0  0
 11 19  1  0  0  0  0
 12 14  1  0  0  0  0
 13 16  2  0  0  0  0
 15 13  1  0  0  0  0
 16 14  1  0  0  0  0
 17 20  1  6  0  0  0
 17 11  1  0  0  0  0
 18 17  1  0  0  0  0
 18 15  1  0  0  0  0
 19 13  1  0  0  0  0
 19 12  2  0  0  0  0
 21 22  2  0  0  0  0
 22 20  1  0  0  0  0
 23 22  1  0  0  0  0
 24 25  1  0  0  0  0
 25  9  1  0  0  0  0
 26  6  1  0  0  0  0
 27 26  1  0  0  0  0
 28 27  1  0  0  0  0
 29 28  1  0  0  0  0
 30 29  1  0  0  0  0
 31 30  1  0  0  0  0
 32 34  2  0  0  0  0
 33 38  1  0  0  0  0
 34 39  1  0  0  0  0
 34 37  1  0  0  0  0
 35 38  1  0  0  0  0
 35 31  1  1  0  0  0
 36 37  1  0  0  0  0
 36 35  1  0  0  0  0
 37 33  1  0  0  0  0
 39 41  1  0  0  0  0
 41 40  1  0  0  0  0
 43 42  1  0  0  0  0
 43 39  1  0  0  0  0
M  END
>  <MODEL>
1

>  <REMARK>
 VINA RESULT:      -6.2      0.000      0.000
  Name = 
  14 active torsions:
  status: ('A' for Active; 'I' for Inactive)
    1  A    between atoms: C_1  and  N_29
    2  A    between atoms: C_1  and  C_30
    3  A    between atoms: C_3  and  C_12
    4  A    between atoms: C_5  and  C_38
    5  A    between atoms: C_12  and  C_22
    6  A    between atoms: C_15  and  C_40
    7  A    between atoms: C_19  and  C_36
    8  A    between atoms: C_21  and  C_38
    9  A    between atoms: C_26  and  C_38
   10  A    between atoms: C_28  and  N_31
   11  A    between atoms: C_28  and  C_32
   12  A    between atoms: C_30  and  N_31
   13  A    between atoms: C_32  and  O_41
   14  A    between atoms: C_33  and  O_41
                            x       y       z     vdW  Elec       q    Type
                         _______ _______ _______ _____ _____    ______ ____

>  <TORSDO>
F 14

$$$$
=
 OpenBabel11072410083D

 43 47  0  0  1  0  0  0  0  0999 V2000
  163.5460  210.6230  138.9950 C   0  0  0  0  0  3  0  0  0  0  0  0
  161.4270  211.7710  139.6630 C   0  0  0  0  0  0  0  0  0  0  0  0
  162.1730  212.9900  139.6380 C   0  0  0  0  0  0  0  0  0  0  0  0
  163.4350  213.0370  139.3330 N   0  0  0  0  0  0  0  0  0  0  0  0
  162.1060  210.5090  139.3420 C   0  0  0  0  0  0  0  0  0  0  0  0
  161.4810  209.3710  139.3840 N   0  0  0  0  0  0  0  0  0  0  0  0
  164.1520  211.8270  138.9980 C   0  0  0  0  0  3  0  0  0  0  0  0
  160.0380  213.5480  140.2530 C   0  0  2  0  0  3  0  0  0  0  0  0
  160.1760  212.0580  140.0040 C   0  0  0  0  0  0  0  0  0  0  0  0
  161.3710  214.1020  139.9840 N   0  0  0  0  0  2  0  0  0  0  0  0
  160.2670  213.8890  145.2400 C   0  0  0  0  0  2  0  0  0  0  0  0
  158.4270  214.2210  143.4250 C   0  0  0  0  0  3  0  0  0  0  0  0
  160.4790  213.7260  142.7580 C   0  0  0  0  0  0  0  0  0  0  0  0
  158.3950  214.1370  142.0720 N   0  0  0  0  0  0  0  0  0  0  0  0
  161.8980  213.2650  142.8890 C   0  0  0  0  0  2  0  0  0  0  0  0
  159.6490  213.8300  141.6700 C   0  0  0  0  0  0  0  0  0  0  0  0
  161.6400  213.1870  145.1750 C   0  0  1  0  0  3  0  0  0  0  0  0
  162.4320  213.7160  144.1220 O   0  0  0  0  0  0  0  0  0  0  0  0
  159.7080  213.9470  143.8560 C   0  0  1  0  0  3  0  0  0  0  0  0
  162.3570  213.3540  146.5050 C   0  0  0  0  0  2  0  0  0  0  0  0
  160.9160  211.5550  147.4570 O   0  0  0  0  0  0  0  0  0  0  0  0
  161.5400  212.7860  147.6140 C   0  0  0  0  0  0  0  0  0  0  0  0
  161.3830  213.4390  148.6780 O   0  0  0  0  0  1  0  0  0  0  0  0
  157.9030  211.4680  139.2310 C   0  0  0  0  0  1  0  0  0  0  0  0
  159.0560  211.0790  140.1370 C   0  0  0  0  0  2  0  0  0  0  0  0
  162.1200  208.1000  139.0720 C   0  0  0  0  0  2  0  0  0  0  0  0
  162.5890  207.4260  140.3530 C   0  0  0  0  0  2  0  0  0  0  0  0
  161.4520  207.0450  141.1830 N   0  0  0  0  0  2  0  0  0  0  0  0
  161.8650  205.9610  142.0630 C   0  0  0  0  0  2  0  0  0  0  0  0
  161.1600  206.0670  143.4050 C   0  0  0  0  0  2  0  0  0  0  0  0
  161.5840  205.0360  144.2480 O   0  0  0  0  0  0  0  0  0  0  0  0
  160.1010  206.0160  148.8420 O   0  0  0  0  0  0  0  0  0  0  0  0
  162.7750  204.1860  147.1120 C   0  0  0  0  0  2  0  0  0  0  0  0
  160.9820  205.1350  148.6400 C   0  0  0  0  0  0  0  0  0  0  0  0
  162.3870  205.6590  145.2060 C   0  0  1  0  0  3  0  0  0  0  0  0
  161.5170  206.1130  146.3650 C   0  0  0  0  0  2  0  0  0  0  0  0
  161.7370  205.1470  147.4220 N   0  0  0  0  0  0  0  0  0  0  0  0
  163.3590  204.6330  145.7850 C   0  0  0  0  0  2  0  0  0  0  0  0
  161.2280  204.0790  149.6740 C   0  0  0  0  0  3  0  0  0  0  0  0
  160.8570  201.7360  148.8740 C   0  0  0  0  0  1  0  0  0  0  0  0
  160.2130  202.9530  149.5110 C   0  0  0  0  0  2  0  0  0  0  0  0
  160.8460  203.6370  152.1100 C   0  0  0  0  0  1  0  0  0  0  0  0
  161.1570  204.6940  151.0660 C   0  0  0  0  0  2  0  0  0  0  0  0
  1  7  2  0  0  0  0
  1  5  1  0  0  0  0
  2  9  2  0  0  0  0
  3  2  1  0  0  0  0
  3 10  1  0  0  0  0
  4  3  2  0  0  0  0
  5  6  2  0  0  0  0
  5  2  1  0  0  0  0
  7  4  1  0  0  0  0
  8 16  1  1  0  0  0
  9 25  1  0  0  0  0
  9  8  1  0  0  0  0
 10  8  1  0  0  0  0
 13 15  1  0  0  0  0
 13 19  1  0  0  0  0
 14 12  2  0  0  0  0
 15 18  1  0  0  0  0
 16 14  1  0  0  0  0
 16 13  2  0  0  0  0
 17 11  1  0  0  0  0
 17 20  1  1  0  0  0
 18 17  1  0  0  0  0
 19 12  1  6  0  0  0
 19 11  1  0  0  0  0
 20 22  1  0  0  0  0
 21 22  2  0  0  0  0
 22 23  1  0  0  0  0
 24 25  1  0  0  0  0
 26  6  1  0  0  0  0
 26 27  1  0  0  0  0
 27 28  1  0  0  0  0
 28 29  1  0  0  0  0
 29 30  1  0  0  0  0
 30 31  1  0  0  0  0
 33 37  1  0  0  0  0
 34 32  2  0  0  0  0
 34 39  1  0  0  0  0
 35 31  1  6  0  0  0
 35 38  1  0  0  0  0
 35 36  1  0  0  0  0
 36 37  1  0  0  0  0
 37 34  1  0  0  0  0
 38 33  1  0  0  0  0
 39 43  1  0  0  0  0
 40 41  1  0  0  0  0
 41 39  1  0  0  0  0
 43 42  1  0  0  0  0
M  END
>  <MODEL>
2

>  <REMARK>
 VINA RESULT:      -6.0      6.232     10.534
  Name = 
  14 active torsions:
  status: ('A' for Active; 'I' for Inactive)
    1  A    between atoms: C_1  and  N_29
    2  A    between atoms: C_1  and  C_30
    3  A    between atoms: C_3  and  C_12
    4  A    between atoms: C_5  and  C_38
    5  A    between atoms: C_12  and  C_22
    6  A    between atoms: C_15  and  C_40
    7  A    between atoms: C_19  and  C_36
    8  A    between atoms: C_21  and  C_38
    9  A    between atoms: C_26  and  C_38
   10  A    between atoms: C_28  and  N_31
   11  A    between atoms: C_28  and  C_32
   12  A    between atoms: C_30  and  N_31
   13  A    between atoms: C_32  and  O_41
   14  A    between atoms: C_33  and  O_41
                            x       y       z     vdW  Elec       q    Type
                         _______ _______ _______ _____ _____    ______ ____

>  <TORSDO>
F 14

$$$$
=
 OpenBabel11072410083D

 43 47  0  0  1  0  0  0  0  0999 V2000
  162.4250  210.1080  151.4710 C   0  0  0  0  0  3  0  0  0  0  0  0
  161.3160  207.9590  150.8330 C   0  0  0  0  0  0  0  0  0  0  0  0
  161.1810  207.7060  152.2330 C   0  0  0  0  0  0  0  0  0  0  0  0
  161.6030  208.5320  153.1420 N   0  0  0  0  0  0  0  0  0  0  0  0
  161.9690  209.1980  150.3890 C   0  0  0  0  0  0  0  0  0  0  0  0
  162.1470  209.4600  149.1300 N   0  0  0  0  0  0  0  0  0  0  0  0
  162.2430  209.7720  152.7640 C   0  0  0  0  0  3  0  0  0  0  0  0
  160.2730  205.9000  151.1550 C   0  0  2  0  0  3  0  0  0  0  0  0
  160.7870  206.9350  150.1730 C   0  0  0  0  0  0  0  0  0  0  0  0
  160.5450  206.4670  152.4820 N   0  0  0  0  0  2  0  0  0  0  0  0
  161.8290  201.5530  149.2250 C   0  0  0  0  0  2  0  0  0  0  0  0
  162.1040  202.7950  151.5000 C   0  0  0  0  0  3  0  0  0  0  0  0
  160.9850  203.8090  149.8810 C   0  0  0  0  0  0  0  0  0  0  0  0
  161.6820  203.9850  151.9940 N   0  0  0  0  0  2  0  0  0  0  0  0
  160.2530  203.9360  148.5800 C   0  0  0  0  0  2  0  0  0  0  0  0
  160.9960  204.5980  151.0030 C   0  0  0  0  0  0  0  0  0  0  0  0
  160.8320  201.7670  148.0670 C   0  0  1  0  0  3  0  0  0  0  0  0
  160.8690  203.1100  147.6060 O   0  0  0  0  0  0  0  0  0  0  0  0
  161.6570  202.6710  150.2010 C   0  0  0  0  0  0  0  0  0  0  0  0
  161.1640  200.8140  146.9310 C   0  0  0  0  0  2  0  0  0  0  0  0
  161.0400  202.6000  145.1950 O   0  0  0  0  0  1  0  0  0  0  0  0
  160.6480  201.3430  145.6370 C   0  0  0  0  0  0  0  0  0  0  0  0
  159.8270  200.6680  144.9640 O   0  0  0  0  0  0  0  0  0  0  0  0
  162.0930  206.6830  148.0900 C   0  0  0  0  0  1  0  0  0  0  0  0
  160.7050  206.7970  148.6880 C   0  0  0  0  0  2  0  0  0  0  0  0
  162.7880  210.6770  148.6530 C   0  0  0  0  0  2  0  0  0  0  0  0
  161.7440  211.6300  148.0920 C   0  0  0  0  0  2  0  0  0  0  0  0
  162.0880  213.0130  148.3990 N   0  0  0  0  0  2  0  0  0  0  0  0
  162.4300  213.6910  147.1550 C   0  0  0  0  0  2  0  0  0  0  0  0
  161.7180  213.0370  145.9810 C   0  0  0  0  0  2  0  0  0  0  0  0
  162.5500  213.0430  144.8590 O   0  0  0  0  0  0  0  0  0  0  0  0
  163.0190  211.9040  140.0900 O   0  0  0  0  0  0  0  0  0  0  0  0
  160.4340  211.9490  142.6980 C   0  0  0  0  0  2  0  0  0  0  0  0
  161.9760  211.5700  140.7160 C   0  0  0  0  0  0  0  0  0  0  0  0
  161.7870  213.6240  143.8440 C   0  0  1  0  0  3  0  0  0  0  0  0
  162.4240  213.3110  142.5020 C   0  0  0  0  0  2  0  0  0  0  0  0
  161.6180  212.2550  141.9220 N   0  0  0  0  0  0  0  0  0  0  0  0
  160.4080  212.9710  143.8190 C   0  0  0  0  0  2  0  0  0  0  0  0
  161.1210  210.4550  140.1960 C   0  0  0  0  0  3  0  0  0  0  0  0
  161.8580  208.0690  140.0130 C   0  0  0  0  0  1  0  0  0  0  0  0
  161.9830  209.4620  139.4240 C   0  0  0  0  0  2  0  0  0  0  0  0
  158.8710  210.0280  139.1820 C   0  0  0  0  0  1  0  0  0  0  0  0
  160.0090  211.0220  139.3220 C   0  0  0  0  0  2  0  0  0  0  0  0
  1  7  2  0  0  0  0
  2  3  1  0  0  0  0
  3 10  1  0  0  0  0
  3  4  2  0  0  0  0
  5  2  1  0  0  0  0
  5  1  1  0  0  0  0
  6  5  2  0  0  0  0
  7  4  1  0  0  0  0
  8 16  1  1  0  0  0
  8 10  1  0  0  0  0
  9  2  2  0  0  0  0
  9  8  1  0  0  0  0
 11 19  1  0  0  0  0
 12 14  1  0  0  0  0
 13 19  1  0  0  0  0
 13 16  2  0  0  0  0
 15 13  1  0  0  0  0
 16 14  1  0  0  0  0
 17 20  1  6  0  0  0
 17 11  1  0  0  0  0
 18 17  1  0  0  0  0
 18 15  1  0  0  0  0
 19 12  2  0  0  0  0
 21 22  1  0  0  0  0
 22 20  1  0  0  0  0
 23 22  2  0  0  0  0
 24 25  1  0  0  0  0
 25  9  1  0  0  0  0
 26  6  1  0  0  0  0
 27 28  1  0  0  0  0
 27 26  1  0  0  0  0
 29 28  1  0  0  0  0
 30 29  1  0  0  0  0
 31 30  1  0  0  0  0
 32 34  2  0  0  0  0
 33 38  1  0  0  0  0
 34 37  1  0  0  0  0
 35 31  1  1  0  0  0
 36 35  1  0  0  0  0
 37 36  1  0  0  0  0
 37 33  1  0  0  0  0
 38 35  1  0  0  0  0
 39 34  1  0  0  0  0
 41 40  1  0  0  0  0
 41 39  1  0  0  0  0
 42 43  1  0  0  0  0
 43 39  1  0  0  0  0
M  END
>  <MODEL>
3

>  <REMARK>
 VINA RESULT:      -5.3      4.701      9.181
  Name = 
  14 active torsions:
  status: ('A' for Active; 'I' for Inactive)
    1  A    between atoms: C_1  and  N_29
    2  A    between atoms: C_1  and  C_30
    3  A    between atoms: C_3  and  C_12
    4  A    between atoms: C_5  and  C_38
    5  A    between atoms: C_12  and  C_22
    6  A    between atoms: C_15  and  C_40
    7  A    between atoms: C_19  and  C_36
    8  A    between atoms: C_21  and  C_38
    9  A    between atoms: C_26  and  C_38
   10  A    between atoms: C_28  and  N_31
   11  A    between atoms: C_28  and  C_32
   12  A    between atoms: C_30  and  N_31
   13  A    between atoms: C_32  and  O_41
   14  A    between atoms: C_33  and  O_41
                            x       y       z     vdW  Elec       q    Type
                         _______ _______ _______ _____ _____    ______ ____

>  <TORSDO>
F 14

$$$$
=
 OpenBabel11072410083D

 43 47  0  0  1  0  0  0  0  0999 V2000
  160.4120  207.4490  155.9660 C   0  0  0  0  0  3  0  0  0  0  0  0
  160.4340  209.5620  154.6280 C   0  0  0  0  0  0  0  0  0  0  0  0
  160.0740  210.2360  155.8360 C   0  0  0  0  0  0  0  0  0  0  0  0
  159.9050  209.6170  156.9640 N   0  0  0  0  0  0  0  0  0  0  0  0
  160.6120  208.1040  154.6480 C   0  0  0  0  0  0  0  0  0  0  0  0
  160.9040  207.4400  153.5710 N   0  0  0  0  0  0  0  0  0  0  0  0
  160.0780  208.1830  157.0460 C   0  0  0  0  0  3  0  0  0  0  0  0
  160.2070  211.8430  154.2080 C   0  0  2  0  0  3  0  0  0  0  0  0
  160.5330  210.4670  153.6610 C   0  0  0  0  0  0  0  0  0  0  0  0
  159.9310  211.6290  155.6340 N   0  0  0  0  0  2  0  0  0  0  0  0
  157.2790  213.9720  150.7540 C   0  0  0  0  0  2  0  0  0  0  0  0
  157.0360  213.3150  153.2640 C   0  0  0  0  0  3  0  0  0  0  0  0
  158.9280  212.8150  152.2280 C   0  0  0  0  0  0  0  0  0  0  0  0
  157.8440  212.7220  154.1780 N   0  0  0  0  0  2  0  0  0  0  0  0
  159.9600  212.8600  151.1440 C   0  0  0  0  0  2  0  0  0  0  0  0
  159.0000  212.4230  153.5410 C   0  0  0  0  0  0  0  0  0  0  0  0
  158.5290  214.1310  149.8630 C   0  0  1  0  0  3  0  0  0  0  0  0
  159.3200  212.9520  149.8820 O   0  0  0  0  0  0  0  0  0  0  0  0
  157.7090  213.3950  152.0630 C   0  0  0  0  0  0  0  0  0  0  0  0
  158.1000  214.4520  148.4410 C   0  0  0  0  0  2  0  0  0  0  0  0
  160.0250  213.5290  147.1530 O   0  0  0  0  0  1  0  0  0  0  0  0
  158.6790  213.4660  147.4860 C   0  0  0  0  0  0  0  0  0  0  0  0
  157.9390  212.6000  146.9510 O   0  0  0  0  0  0  0  0  0  0  0  0
  162.4020  210.0240  152.1070 C   0  0  0  0  0  1  0  0  0  0  0  0
  160.9020  210.1950  152.2400 C   0  0  0  0  0  2  0  0  0  0  0  0
  161.0890  205.9950  153.5520 C   0  0  0  0  0  2  0  0  0  0  0  0
  161.3150  205.5180  152.1260 C   0  0  0  0  0  2  0  0  0  0  0  0
  160.4830  204.3570  151.8310 N   0  0  0  0  0  2  0  0  0  0  0  0
  161.1870  203.1610  152.2730 C   0  0  0  0  0  2  0  0  0  0  0  0
  161.7660  202.4140  151.0820 C   0  0  0  0  0  2  0  0  0  0  0  0
  161.0850  201.2080  150.9010 O   0  0  0  0  0  0  0  0  0  0  0  0
  160.3580  205.5950  148.7830 O   0  0  0  0  0  0  0  0  0  0  0  0
  161.6570  202.2700  147.9190 C   0  0  0  0  0  2  0  0  0  0  0  0
  161.0540  204.7220  148.1960 C   0  0  0  0  0  0  0  0  0  0  0  0
  160.3090  201.3970  149.7550 C   0  0  1  0  0  3  0  0  0  0  0  0
  160.0170  202.8790  149.5920 C   0  0  0  0  0  2  0  0  0  0  0  0
  160.9110  203.3400  148.5480 N   0  0  0  0  0  0  0  0  0  0  0  0
  161.1200  200.9880  148.5290 C   0  0  0  0  0  2  0  0  0  0  0  0
  162.0310  205.1360  147.1380 C   0  0  0  0  0  3  0  0  0  0  0  0
  162.5760  207.3720  148.1240 C   0  0  0  0  0  1  0  0  0  0  0  0
  161.9650  206.6460  146.9390 C   0  0  0  0  0  2  0  0  0  0  0  0
  162.0100  205.2720  144.6370 C   0  0  0  0  0  1  0  0  0  0  0  0
  161.7340  204.3920  145.8420 C   0  0  0  0  0  2  0  0  0  0  0  0
  1  7  2  0  0  0  0
  2  5  1  0  0  0  0
  2  3  1  0  0  0  0
  3  4  2  0  0  0  0
  4  7  1  0  0  0  0
  5  1  1  0  0  0  0
  6  5  2  0  0  0  0
  8 16  1  6  0  0  0
  8 10  1  0  0  0  0
  9  8  1  0  0  0  0
  9  2  2  0  0  0  0
 10  3  1  0  0  0  0
 11 19  1  0  0  0  0
 12 14  1  0  0  0  0
 13 16  2  0  0  0  0
 15 13  1  0  0  0  0
 16 14  1  0  0  0  0
 17 20  1  6  0  0  0
 17 18  1  0  0  0  0
 17 11  1  0  0  0  0
 18 15  1  0  0  0  0
 19 13  1  0  0  0  0
 19 12  2  0  0  0  0
 21 22  1  0  0  0  0
 22 20  1  0  0  0  0
 23 22  2  0  0  0  0
 24 25  1  0  0  0  0
 25  9  1  0  0  0  0
 26  6  1  0  0  0  0
 27 26  1  0  0  0  0
 28 27  1  0  0  0  0
 28 29  1  0  0  0  0
 30 29  1  0  0  0  0
 31 30  1  0  0  0  0
 33 38  1  0  0  0  0
 33 37  1  0  0  0  0
 34 37  1  0  0  0  0
 34 32  2  0  0  0  0
 35 31  1  1  0  0  0
 36 35  1  0  0  0  0
 37 36  1  0  0  0  0
 38 35  1  0  0  0  0
 39 34  1  0  0  0  0
 41 39  1  0  0  0  0
 41 40  1  0  0  0  0
 42 43  1  0  0  0  0
 43 39  1  0  0  0  0
M  END
>  <MODEL>
4

>  <REMARK>
 VINA RESULT:      -5.3      1.548      2.964
  Name = 
  14 active torsions:
  status: ('A' for Active; 'I' for Inactive)
    1  A    between atoms: C_1  and  N_29
    2  A    between atoms: C_1  and  C_30
    3  A    between atoms: C_3  and  C_12
    4  A    between atoms: C_5  and  C_38
    5  A    between atoms: C_12  and  C_22
    6  A    between atoms: C_15  and  C_40
    7  A    between atoms: C_19  and  C_36
    8  A    between atoms: C_21  and  C_38
    9  A    between atoms: C_26  and  C_38
   10  A    between atoms: C_28  and  N_31
   11  A    between atoms: C_28  and  C_32
   12  A    between atoms: C_30  and  N_31
   13  A    between atoms: C_32  and  O_41
   14  A    between atoms: C_33  and  O_41
                            x       y       z     vdW  Elec       q    Type
                         _______ _______ _______ _____ _____    ______ ____

>  <TORSDO>
F 14

$$$$
=
 OpenBabel11072410083D

 43 47  0  0  1  0  0  0  0  0999 V2000
  160.0400  214.2460  148.8090 C   0  0  0  0  0  3  0  0  0  0  0  0
  161.0240  212.1080  149.6530 C   0  0  0  0  0  0  0  0  0  0  0  0
  161.8660  212.1320  148.4990 C   0  0  0  0  0  0  0  0  0  0  0  0
  161.8160  213.0790  147.6110 N   0  0  0  0  0  0  0  0  0  0  0  0
  160.0490  213.1880  149.8520 C   0  0  0  0  0  0  0  0  0  0  0  0
  159.2380  213.1940  150.8660 N   0  0  0  0  0  0  0  0  0  0  0  0
  160.8830  214.1740  147.7600 C   0  0  0  0  0  3  0  0  0  0  0  0
  162.4080  210.2320  149.6570 C   0  0  2  0  0  3  0  0  0  0  0  0
  161.3200  211.0220  150.3590 C   0  0  0  0  0  0  0  0  0  0  0  0
  162.7320  211.0150  148.4580 N   0  0  0  0  0  2  0  0  0  0  0  0
  160.9980  205.4390  149.9530 C   0  0  0  0  0  2  0  0  0  0  0  0
  161.4370  207.1450  148.0320 C   0  0  0  0  0  3  0  0  0  0  0  0
  161.6260  207.8500  150.1220 C   0  0  0  0  0  0  0  0  0  0  0  0
  161.8050  208.4490  147.9790 N   0  0  0  0  0  0  0  0  0  0  0  0
  161.7460  207.7350  151.6110 C   0  0  0  0  0  2  0  0  0  0  0  0
  161.9230  208.8730  149.2590 C   0  0  0  0  0  0  0  0  0  0  0  0
  161.3990  205.4650  151.4430 C   0  0  1  0  0  3  0  0  0  0  0  0
  160.9490  206.6570  152.0700 O   0  0  0  0  0  0  0  0  0  0  0  0
  161.3450  206.7630  149.3550 C   0  0  1  0  0  3  0  0  0  0  0  0
  160.8150  204.2500  152.1450 C   0  0  0  0  0  2  0  0  0  0  0  0
  160.5290  202.6480  150.2570 O   0  0  0  0  0  0  0  0  0  0  0  0
  161.1900  203.0010  151.4260 C   0  0  0  0  0  0  0  0  0  0  0  0
  162.0780  202.2450  151.8980 O   0  0  0  0  0  1  0  0  0  0  0  0
  161.7430  210.4280  152.7200 C   0  0  0  0  0  1  0  0  0  0  0  0
  160.6870  210.6150  151.6480 C   0  0  0  0  0  2  0  0  0  0  0  0
  158.2590  214.2470  151.0960 C   0  0  0  0  0  2  0  0  0  0  0  0
  157.1690  213.7490  152.0330 C   0  0  0  0  0  2  0  0  0  0  0  0
  155.9150  214.4510  151.7870 N   0  0  0  0  0  2  0  0  0  0  0  0
  155.0560  214.2830  152.9510 C   0  0  0  0  0  2  0  0  0  0  0  0
  155.8830  213.9210  154.1740 C   0  0  0  0  0  2  0  0  0  0  0  0
  155.0820  213.9630  155.3180 O   0  0  0  0  0  0  0  0  0  0  0  0
  158.5360  210.6090  154.2740 O   0  0  0  0  0  0  0  0  0  0  0  0
  156.9900  212.1900  157.2070 C   0  0  0  0  0  2  0  0  0  0  0  0
  158.4320  211.0600  155.4480 C   0  0  0  0  0  0  0  0  0  0  0  0
  155.0560  212.6490  155.7920 C   0  0  1  0  0  3  0  0  0  0  0  0
  156.0550  211.8180  155.0060 C   0  0  0  0  0  2  0  0  0  0  0  0
  157.2030  211.6600  155.8760 N   0  0  0  0  0  0  0  0  0  0  0  0
  155.5380  212.6300  157.2400 C   0  0  0  0  0  2  0  0  0  0  0  0
  159.5980  210.9700  156.3860 C   0  0  0  0  0  3  0  0  0  0  0  0
  160.2040  213.3750  156.7200 C   0  0  0  0  0  1  0  0  0  0  0  0
  160.6050  212.0680  156.0620 C   0  0  0  0  0  2  0  0  0  0  0  0
  161.3900  209.4540  157.2600 C   0  0  0  0  0  1  0  0  0  0  0  0
  160.2320  209.5880  156.2870 C   0  0  0  0  0  2  0  0  0  0  0  0
  1  5  1  0  0  0  0
  2  5  1  0  0  0  0
  2  9  2  0  0  0  0
  3  2  1  0  0  0  0
  4  7  1  0  0  0  0
  4  3  2  0  0  0  0
  5  6  2  0  0  0  0
  6 26  1  0  0  0  0
  7  1  2  0  0  0  0
  8 16  1  6  0  0  0
  8  9  1  0  0  0  0
  9 25  1  0  0  0  0
 10  3  1  0  0  0  0
 10  8  1  0  0  0  0
 11 17  1  0  0  0  0
 13 15  1  0  0  0  0
 14 12  2  0  0  0  0
 14 16  1  0  0  0  0
 15 18  1  0  0  0  0
 16 13  2  0  0  0  0
 17 18  1  0  0  0  0
 17 20  1  1  0  0  0
 19 12  1  6  0  0  0
 19 11  1  0  0  0  0
 19 13  1  0  0  0  0
 21 22  2  0  0  0  0
 22 23  1  0  0  0  0
 22 20  1  0  0  0  0
 25 24  1  0  0  0  0
 26 27  1  0  0  0  0
 28 27  1  0  0  0  0
 28 29  1  0  0  0  0
 29 30  1  0  0  0  0
 30 31  1  0  0  0  0
 32 34  2  0  0  0  0
 33 38  1  0  0  0  0
 34 37  1  0  0  0  0
 34 39  1  0  0  0  0
 35 31  1  6  0  0  0
 35 38  1  0  0  0  0
 36 35  1  0  0  0  0
 36 37  1  0  0  0  0
 37 33  1  0  0  0  0
 41 39  1  0  0  0  0
 41 40  1  0  0  0  0
 43 39  1  0  0  0  0
 43 42  1  0  0  0  0
M  END
>  <MODEL>
5

>  <REMARK>
 VINA RESULT:      -5.2      3.275     10.129
  Name = 
  14 active torsions:
  status: ('A' for Active; 'I' for Inactive)
    1  A    between atoms: C_1  and  N_29
    2  A    between atoms: C_1  and  C_30
    3  A    between atoms: C_3  and  C_12
    4  A    between atoms: C_5  and  C_38
    5  A    between atoms: C_12  and  C_22
    6  A    between atoms: C_15  and  C_40
    7  A    between atoms: C_19  and  C_36
    8  A    between atoms: C_21  and  C_38
    9  A    between atoms: C_26  and  C_38
   10  A    between atoms: C_28  and  N_31
   11  A    between atoms: C_28  and  C_32
   12  A    between atoms: C_30  and  N_31
   13  A    between atoms: C_32  and  O_41
   14  A    between atoms: C_33  and  O_41
                            x       y       z     vdW  Elec       q    Type
                         _______ _______ _______ _____ _____    ______ ____

>  <TORSDO>
F 14

$$$$
=
 OpenBabel11072410083D

 43 47  0  0  1  0  0  0  0  0999 V2000
  160.8100  204.0590  148.9570 C   0  0  0  0  0  3  0  0  0  0  0  0
  161.3900  205.8750  150.5760 C   0  0  0  0  0  0  0  0  0  0  0  0
  161.7350  204.8370  151.4950 C   0  0  0  0  0  0  0  0  0  0  0  0
  161.6380  203.5750  151.2000 N   0  0  0  0  0  0  0  0  0  0  0  0
  160.8930  205.5150  149.2410 C   0  0  0  0  0  0  0  0  0  0  0  0
  160.5350  206.4200  148.3820 N   0  0  0  0  0  0  0  0  0  0  0  0
  161.1660  203.1620  149.8980 C   0  0  0  0  0  3  0  0  0  0  0  0
  162.1000  206.8170  152.5860 C   0  0  2  0  0  3  0  0  0  0  0  0
  161.6020  207.0430  151.1720 C   0  0  0  0  0  0  0  0  0  0  0  0
  162.1790  205.3580  152.7320 N   0  0  0  0  0  2  0  0  0  0  0  0
  159.6790  210.0830  155.5040 C   0  0  0  0  0  2  0  0  0  0  0  0
  159.7570  207.4890  155.2650 C   0  0  0  0  0  3  0  0  0  0  0  0
  160.9530  208.7080  153.8550 C   0  0  0  0  0  0  0  0  0  0  0  0
  160.4140  206.6250  154.4510 N   0  0  0  0  0  0  0  0  0  0  0  0
  161.6230  209.9350  153.3190 C   0  0  0  0  0  2  0  0  0  0  0  0
  161.1460  207.3750  153.5950 C   0  0  0  0  0  0  0  0  0  0  0  0
  160.6330  211.1790  154.9850 C   0  0  1  0  0  3  0  0  0  0  0  0
  160.8160  211.0710  153.5810 O   0  0  0  0  0  0  0  0  0  0  0  0
  160.1030  208.7780  154.9150 C   0  0  1  0  0  3  0  0  0  0  0  0
  160.0730  212.5470  155.3380 C   0  0  0  0  0  2  0  0  0  0  0  0
  159.1400  213.0810  153.0880 O   0  0  0  0  0  0  0  0  0  0  0  0
  158.9290  212.8880  154.4470 C   0  0  0  0  0  0  0  0  0  0  0  0
  157.7770  213.0390  154.9310 O   0  0  0  0  0  1  0  0  0  0  0  0
  162.4500  208.6790  149.5240 C   0  0  0  0  0  1  0  0  0  0  0  0
  161.3840  208.3900  150.5640 C   0  0  0  0  0  2  0  0  0  0  0  0
  160.0390  206.1020  147.0500 C   0  0  0  0  0  2  0  0  0  0  0  0
  161.1740  206.1770  146.0400 C   0  0  0  0  0  2  0  0  0  0  0  0
  160.6560  206.1510  144.6770 N   0  0  0  0  0  2  0  0  0  0  0  0
  161.5510  205.3450  143.8590 C   0  0  0  0  0  2  0  0  0  0  0  0
  162.1910  206.1970  142.7740 C   0  0  0  0  0  2  0  0  0  0  0  0
  161.4660  206.0770  141.5860 O   0  0  0  0  0  0  0  0  0  0  0  0
  160.0140  208.2990  137.4370 O   0  0  0  0  0  0  0  0  0  0  0  0
  162.2460  208.9150  140.2880 C   0  0  0  0  0  2  0  0  0  0  0  0
  160.6600  208.9490  138.3050 C   0  0  0  0  0  0  0  0  0  0  0  0
  162.3430  206.4950  140.5820 C   0  0  1  0  0  3  0  0  0  0  0  0
  161.5480  206.8070  139.3260 C   0  0  0  0  0  2  0  0  0  0  0  0
  161.4630  208.2520  139.2660 N   0  0  0  0  0  0  0  0  0  0  0  0
  162.9970  207.8080  141.0050 C   0  0  0  0  0  2  0  0  0  0  0  0
  160.5790  210.4450  138.3270 C   0  0  0  0  0  3  0  0  0  0  0  0
  159.0450  211.6800  139.8720 C   0  0  0  0  0  1  0  0  0  0  0  0
  159.1410  210.8790  138.5860 C   0  0  0  0  0  2  0  0  0  0  0  0
  162.6080  211.1870  137.0580 C   0  0  0  0  0  1  0  0  0  0  0  0
  161.1010  211.0090  137.0110 C   0  0  0  0  0  2  0  0  0  0  0  0
  1  5  1  0  0  0  0
  1  7  2  0  0  0  0
  2  9  2  0  0  0  0
  2  3  1  0  0  0  0
  3 10  1  0  0  0  0
  4  3  2  0  0  0  0
  5  2  1  0  0  0  0
  6  5  2  0  0  0  0
  7  4  1  0  0  0  0
  8 10  1  0  0  0  0
  8 16  1  1  0  0  0
  9  8  1  0  0  0  0
 13 19  1  0  0  0  0
 14 12  2  0  0  0  0
 15 18  1  0  0  0  0
 15 13  1  0  0  0  0
 16 13  2  0  0  0  0
 16 14  1  0  0  0  0
 17 20  1  6  0  0  0
 17 11  1  0  0  0  0
 18 17  1  0  0  0  0
 19 12  1  6  0  0  0
 19 11  1  0  0  0  0
 21 22  2  0  0  0  0
 22 23  1  0  0  0  0
 22 20  1  0  0  0  0
 24 25  1  0  0  0  0
 25  9  1  0  0  0  0
 26  6  1  0  0  0  0
 27 26  1  0  0  0  0
 28 27  1  0  0  0  0
 29 28  1  0  0  0  0
 30 29  1  0  0  0  0
 31 30  1  0  0  0  0
 32 34  2  0  0  0  0
 33 38  1  0  0  0  0
 34 39  1  0  0  0  0
 34 37  1  0  0  0  0
 35 38  1  0  0  0  0
 35 31  1  1  0  0  0
 36 35  1  0  0  0  0
 37 36  1  0  0  0  0
 37 33  1  0  0  0  0
 39 41  1  0  0  0  0
 41 40  1  0  0  0  0
 43 42  1  0  0  0  0
 43 39  1  0  0  0  0
M  END
>  <MODEL>
6

>  <REMARK>
 VINA RESULT:      -4.9      4.908      7.771
  Name = 
  14 active torsions:
  status: ('A' for Active; 'I' for Inactive)
    1  A    between atoms: C_1  and  N_29
    2  A    between atoms: C_1  and  C_30
    3  A    between atoms: C_3  and  C_12
    4  A    between atoms: C_5  and  C_38
    5  A    between atoms: C_12  and  C_22
    6  A    between atoms: C_15  and  C_40
    7  A    between atoms: C_19  and  C_36
    8  A    between atoms: C_21  and  C_38
    9  A    between atoms: C_26  and  C_38
   10  A    between atoms: C_28  and  N_31
   11  A    between atoms: C_28  and  C_32
   12  A    between atoms: C_30  and  N_31
   13  A    between atoms: C_32  and  O_41
   14  A    between atoms: C_33  and  O_41
                            x       y       z     vdW  Elec       q    Type
                         _______ _______ _______ _____ _____    ______ ____

>  <TORSDO>
F 14

$$$$
=
 OpenBabel11072410083D

 43 47  0  0  1  0  0  0  0  0999 V2000
  162.3720  210.0600  151.5270 C   0  0  0  0  0  3  0  0  0  0  0  0
  161.2430  207.9090  150.9310 C   0  0  0  0  0  0  0  0  0  0  0  0
  161.1340  207.6690  152.3350 C   0  0  0  0  0  0  0  0  0  0  0  0
  161.5770  208.5020  153.2280 N   0  0  0  0  0  0  0  0  0  0  0  0
  161.8910  209.1420  150.4630 C   0  0  0  0  0  0  0  0  0  0  0  0
  162.0450  209.3910  149.1980 N   0  0  0  0  0  0  0  0  0  0  0  0
  162.2140  209.7370  152.8260 C   0  0  0  0  0  3  0  0  0  0  0  0
  160.1990  205.8570  151.2920 C   0  0  2  0  0  3  0  0  0  0  0  0
  160.6980  206.8810  150.2910 C   0  0  0  0  0  0  0  0  0  0  0  0
  160.5000  206.4350  152.6080 N   0  0  0  0  0  2  0  0  0  0  0  0
  161.7810  201.5360  149.3250 C   0  0  0  0  0  2  0  0  0  0  0  0
  161.9860  202.7270  151.6340 C   0  0  0  0  0  3  0  0  0  0  0  0
  160.9360  203.7870  149.9990 C   0  0  0  0  0  0  0  0  0  0  0  0
  161.5590  203.9100  152.1390 N   0  0  0  0  0  2  0  0  0  0  0  0
  160.2520  203.9490  148.6760 C   0  0  0  0  0  2  0  0  0  0  0  0
  160.9140  204.5510  151.1370 C   0  0  0  0  0  0  0  0  0  0  0  0
  160.8290  201.7860  148.1370 C   0  0  1  0  0  3  0  0  0  0  0  0
  160.8950  203.1370  147.7070 O   0  0  0  0  0  0  0  0  0  0  0  0
  161.5850  202.6350  150.3180 C   0  0  0  0  0  0  0  0  0  0  0  0
  161.1920  200.8540  146.9930 C   0  0  0  0  0  2  0  0  0  0  0  0
  159.8040  200.7000  144.9260 O   0  0  0  0  0  0  0  0  0  0  0  0
  160.7180  201.4100  145.6950 C   0  0  0  0  0  0  0  0  0  0  0  0
  161.1740  202.5050  145.2750 O   0  0  0  0  0  1  0  0  0  0  0  0
  161.9610  206.6120  148.1840 C   0  0  0  0  0  1  0  0  0  0  0  0
  160.5850  206.7300  148.8090 C   0  0  0  0  0  2  0  0  0  0  0  0
  162.6800  210.6020  148.6970 C   0  0  0  0  0  2  0  0  0  0  0  0
  161.6270  211.6580  148.3990 C   0  0  0  0  0  2  0  0  0  0  0  0
  162.2420  212.9690  148.2300 N   0  0  0  0  0  2  0  0  0  0  0  0
  161.2820  213.9860  148.6380 C   0  0  0  0  0  2  0  0  0  0  0  0
  160.5830  213.5720  149.9230 C   0  0  0  0  0  2  0  0  0  0  0  0
  159.5340  214.4530  150.1980 O   0  0  0  0  0  0  0  0  0  0  0  0
  159.0220  211.1140  153.7830 O   0  0  0  0  0  0  0  0  0  0  0  0
  157.2910  214.0760  152.4710 C   0  0  0  0  0  2  0  0  0  0  0  0
  158.3040  212.1520  153.7830 C   0  0  0  0  0  0  0  0  0  0  0  0
  158.4070  213.6410  150.3470 C   0  0  1  0  0  3  0  0  0  0  0  0
  158.7300  212.5150  151.3120 C   0  0  0  0  0  2  0  0  0  0  0  0
  158.1070  212.8840  152.5670 N   0  0  0  0  0  0  0  0  0  0  0  0
  157.2910  214.4510  151.0010 C   0  0  0  0  0  2  0  0  0  0  0  0
  157.6670  212.6150  155.0580 C   0  0  0  0  0  3  0  0  0  0  0  0
  159.7060  213.5150  156.1960 C   0  0  0  0  0  1  0  0  0  0  0  0
  158.6410  212.4340  156.2160 C   0  0  0  0  0  2  0  0  0  0  0  0
  155.8580  212.0770  156.7050 C   0  0  0  0  0  1  0  0  0  0  0  0
  156.3720  211.8470  155.2960 C   0  0  0  0  0  2  0  0  0  0  0  0
  1  7  2  0  0  0  0
  2  3  1  0  0  0  0
  3 10  1  0  0  0  0
  3  4  2  0  0  0  0
  5  2  1  0  0  0  0
  5  1  1  0  0  0  0
  6  5  2  0  0  0  0
  7  4  1  0  0  0  0
  8 16  1  6  0  0  0
  8 10  1  0  0  0  0
  9  2  2  0  0  0  0
  9  8  1  0  0  0  0
 11 19  1  0  0  0  0
 12 14  1  0  0  0  0
 13 19  1  0  0  0  0
 13 16  2  0  0  0  0
 15 13  1  0  0  0  0
 16 14  1  0  0  0  0
 17 20  1  6  0  0  0
 17 11  1  0  0  0  0
 18 17  1  0  0  0  0
 18 15  1  0  0  0  0
 19 12  2  0  0  0  0
 21 22  2  0  0  0  0
 22 20  1  0  0  0  0
 23 22  1  0  0  0  0
 24 25  1  0  0  0  0
 25  9  1  0  0  0  0
 26  6  1  0  0  0  0
 27 26  1  0  0  0  0
 28 27  1  0  0  0  0
 28 29  1  0  0  0  0
 29 30  1  0  0  0  0
 30 31  1  0  0  0  0
 33 37  1  0  0  0  0
 34 32  2  0  0  0  0
 34 39  1  0  0  0  0
 35 31  1  1  0  0  0
 35 38  1  0  0  0  0
 35 36  1  0  0  0  0
 36 37  1  0  0  0  0
 37 34  1  0  0  0  0
 38 33  1  0  0  0  0
 39 43  1  0  0  0  0
 39 41  1  0  0  0  0
 40 41  1  0  0  0  0
 43 42  1  0  0  0  0
M  END
>  <MODEL>
7

>  <REMARK>
 VINA RESULT:      -4.7      2.404      9.895
  Name = 
  14 active torsions:
  status: ('A' for Active; 'I' for Inactive)
    1  A    between atoms: C_1  and  N_29
    2  A    between atoms: C_1  and  C_30
    3  A    between atoms: C_3  and  C_12
    4  A    between atoms: C_5  and  C_38
    5  A    between atoms: C_12  and  C_22
    6  A    between atoms: C_15  and  C_40
    7  A    between atoms: C_19  and  C_36
    8  A    between atoms: C_21  and  C_38
    9  A    between atoms: C_26  and  C_38
   10  A    between atoms: C_28  and  N_31
   11  A    between atoms: C_28  and  C_32
   12  A    between atoms: C_30  and  N_31
   13  A    between atoms: C_32  and  O_41
   14  A    between atoms: C_33  and  O_41
                            x       y       z     vdW  Elec       q    Type
                         _______ _______ _______ _____ _____    ______ ____

>  <TORSDO>
F 14

$$$$
=
 OpenBabel11072410083D

 43 47  0  0  1  0  0  0  0  0999 V2000
  160.9590  204.7930  151.1350 C   0  0  0  0  0  3  0  0  0  0  0  0
  161.1580  206.9950  152.3030 C   0  0  0  0  0  0  0  0  0  0  0  0
  161.3760  206.2480  153.5020 C   0  0  0  0  0  0  0  0  0  0  0  0
  161.3880  204.9500  153.5310 N   0  0  0  0  0  0  0  0  0  0  0  0
  160.9270  206.2750  151.0440 C   0  0  0  0  0  0  0  0  0  0  0  0
  160.6900  206.9060  149.9340 N   0  0  0  0  0  0  0  0  0  0  0  0
  161.1780  204.1890  152.3200 C   0  0  0  0  0  3  0  0  0  0  0  0
  161.4520  208.4610  154.0910 C   0  0  2  0  0  3  0  0  0  0  0  0
  161.2080  208.2870  152.6050 C   0  0  0  0  0  0  0  0  0  0  0  0
  161.5660  207.0950  154.6190 N   0  0  0  0  0  2  0  0  0  0  0  0
  158.3500  212.1060  155.5530 C   0  0  0  0  0  2  0  0  0  0  0  0
  158.6640  209.5800  156.1130 C   0  0  0  0  0  3  0  0  0  0  0  0
  159.9750  210.4820  154.5740 C   0  0  0  0  0  0  0  0  0  0  0  0
  159.5060  208.6060  155.6890 N   0  0  0  0  0  2  0  0  0  0  0  0
  160.6280  211.5780  153.7890 C   0  0  0  0  0  2  0  0  0  0  0  0
  160.3070  209.1640  154.7520 C   0  0  0  0  0  0  0  0  0  0  0  0
  159.2900  213.1150  154.8610 C   0  0  1  0  0  3  0  0  0  0  0  0
  159.7050  212.6360  153.5910 O   0  0  0  0  0  0  0  0  0  0  0  0
  158.9630  210.7480  155.4420 C   0  0  0  0  0  0  0  0  0  0  0  0
  158.5780  214.4490  154.7120 C   0  0  0  0  0  2  0  0  0  0  0  0
  156.1100  214.1520  154.5130 O   0  0  0  0  0  1  0  0  0  0  0  0
  157.3440  214.2940  153.8910 C   0  0  0  0  0  0  0  0  0  0  0  0
  157.4240  214.2520  152.6360 O   0  0  0  0  0  0  0  0  0  0  0  0
  162.4010  209.9340  151.2000 C   0  0  0  0  0  1  0  0  0  0  0  0
  161.0460  209.4190  151.6440 C   0  0  0  0  0  2  0  0  0  0  0  0
  160.4570  206.2270  148.6660 C   0  0  0  0  0  2  0  0  0  0  0  0
  160.8310  207.1410  147.5100 C   0  0  0  0  0  2  0  0  0  0  0  0
  162.1680  206.8310  147.0160 N   0  0  0  0  0  2  0  0  0  0  0  0
  162.0390  206.1070  145.7590 C   0  0  0  0  0  2  0  0  0  0  0  0
  160.8110  206.5780  144.9970 C   0  0  0  0  0  2  0  0  0  0  0  0
  159.9570  205.4990  144.7580 O   0  0  0  0  0  0  0  0  0  0  0  0
  162.2710  202.9700  148.2970 O   0  0  0  0  0  0  0  0  0  0  0  0
  159.9320  202.3750  145.5280 C   0  0  0  0  0  2  0  0  0  0  0  0
  161.3410  202.4250  147.6410 C   0  0  0  0  0  0  0  0  0  0  0  0
  160.8030  204.4150  144.5110 C   0  0  1  0  0  3  0  0  0  0  0  0
  161.6010  204.1100  145.7660 C   0  0  0  0  0  2  0  0  0  0  0  0
  160.9760  202.9440  146.3550 N   0  0  0  0  0  0  0  0  0  0  0  0
  159.9580  203.1740  144.2370 C   0  0  0  0  0  2  0  0  0  0  0  0
  160.6200  201.2420  148.2120 C   0  0  0  0  0  3  0  0  0  0  0  0
  161.1650  200.9530  150.6380 C   0  0  0  0  0  1  0  0  0  0  0  0
  160.1860  201.5460  149.6420 C   0  0  0  0  0  2  0  0  0  0  0  0
  161.5810  199.4540  146.7450 C   0  0  0  0  0  1  0  0  0  0  0  0
  161.5200  200.0140  148.1540 C   0  0  0  0  0  2  0  0  0  0  0  0
  1  7  2  0  0  0  0
  2  9  2  0  0  0  0
  2  3  1  0  0  0  0
  3  4  2  0  0  0  0
  3 10  1  0  0  0  0
  5  1  1  0  0  0  0
  5  2  1  0  0  0  0
  6  5  2  0  0  0  0
  7  4  1  0  0  0  0
  8 10  1  0  0  0  0
  8 16  1  1  0  0  0
  9  8  1  0  0  0  0
 13 16  2  0  0  0  0
 13 19  1  0  0  0  0
 14 12  1  0  0  0  0
 15 13  1  0  0  0  0
 16 14  1  0  0  0  0
 17 20  1  6  0  0  0
 17 11  1  0  0  0  0
 18 15  1  0  0  0  0
 18 17  1  0  0  0  0
 19 11  1  0  0  0  0
 19 12  2  0  0  0  0
 22 21  1  0  0  0  0
 22 20  1  0  0  0  0
 23 22  2  0  0  0  0
 24 25  1  0  0  0  0
 25  9  1  0  0  0  0
 26  6  1  0  0  0  0
 27 26  1  0  0  0  0
 28 27  1  0  0  0  0
 29 28  1  0  0  0  0
 30 29  1  0  0  0  0
 31 30  1  0  0  0  0
 33 37  1  0  0  0  0
 34 39  1  0  0  0  0
 34 32  2  0  0  0  0
 35 31  1  1  0  0  0
 35 36  1  0  0  0  0
 36 37  1  0  0  0  0
 37 34  1  0  0  0  0
 38 35  1  0  0  0  0
 38 33  1  0  0  0  0
 39 41  1  0  0  0  0
 41 40  1  0  0  0  0
 42 43  1  0  0  0  0
 43 39  1  0  0  0  0
M  END
>  <MODEL>
8

>  <REMARK>
 VINA RESULT:      -4.5      2.474      4.187
  Name = 
  14 active torsions:
  status: ('A' for Active; 'I' for Inactive)
    1  A    between atoms: C_1  and  N_29
    2  A    between atoms: C_1  and  C_30
    3  A    between atoms: C_3  and  C_12
    4  A    between atoms: C_5  and  C_38
    5  A    between atoms: C_12  and  C_22
    6  A    between atoms: C_15  and  C_40
    7  A    between atoms: C_19  and  C_36
    8  A    between atoms: C_21  and  C_38
    9  A    between atoms: C_26  and  C_38
   10  A    between atoms: C_28  and  N_31
   11  A    between atoms: C_28  and  C_32
   12  A    between atoms: C_30  and  N_31
   13  A    between atoms: C_32  and  O_41
   14  A    between atoms: C_33  and  O_41
                            x       y       z     vdW  Elec       q    Type
                         _______ _______ _______ _____ _____    ______ ____

>  <TORSDO>
F 14

$$$$
=
 OpenBabel11072410083D

 43 47  0  0  1  0  0  0  0  0999 V2000
  162.4220  210.3330  151.5300 C   0  0  0  0  0  3  0  0  0  0  0  0
  161.3290  208.1870  150.8570 C   0  0  0  0  0  0  0  0  0  0  0  0
  161.1170  207.9500  152.2500 C   0  0  0  0  0  0  0  0  0  0  0  0
  161.4980  208.7830  153.1720 N   0  0  0  0  0  0  0  0  0  0  0  0
  162.0150  209.4150  150.4350 C   0  0  0  0  0  0  0  0  0  0  0  0
  162.2620  209.6610  149.1840 N   0  0  0  0  0  0  0  0  0  0  0  0
  162.1690  210.0140  152.8140 C   0  0  0  0  0  3  0  0  0  0  0  0
  160.2510  206.1410  151.1450 C   0  0  2  0  0  3  0  0  0  0  0  0
  160.8260  207.1600  150.1810 C   0  0  0  0  0  0  0  0  0  0  0  0
  160.4580  206.7200  152.4780 N   0  0  0  0  0  2  0  0  0  0  0  0
  161.7600  201.6950  149.4120 C   0  0  0  0  0  2  0  0  0  0  0  0
  162.0850  203.0540  151.6120 C   0  0  0  0  0  3  0  0  0  0  0  0
  160.9320  203.9840  149.9670 C   0  0  0  0  0  0  0  0  0  0  0  0
  161.6760  204.2690  152.0530 N   0  0  0  0  0  2  0  0  0  0  0  0
  160.1730  204.0450  148.6780 C   0  0  0  0  0  2  0  0  0  0  0  0
  160.9690  204.8310  151.0460 C   0  0  0  0  0  0  0  0  0  0  0  0
  160.7390  201.8510  148.2660 C   0  0  1  0  0  3  0  0  0  0  0  0
  160.7670  203.1680  147.7350 O   0  0  0  0  0  0  0  0  0  0  0  0
  161.6100  202.8630  150.3310 C   0  0  0  0  0  0  0  0  0  0  0  0
  161.0450  200.8390  147.1740 C   0  0  0  0  0  2  0  0  0  0  0  0
  161.2210  202.6970  145.5200 O   0  0  0  0  0  1  0  0  0  0  0  0
  160.7690  201.4210  145.8300 C   0  0  0  0  0  0  0  0  0  0  0  0
  160.0940  200.7720  144.9900 O   0  0  0  0  0  0  0  0  0  0  0  0
  162.2210  206.7240  148.1880 C   0  0  0  0  0  1  0  0  0  0  0  0
  160.8210  207.0060  148.6960 C   0  0  0  0  0  2  0  0  0  0  0  0
  162.9390  210.8670  148.7280 C   0  0  0  0  0  2  0  0  0  0  0  0
  161.9160  211.9410  148.3900 C   0  0  0  0  0  2  0  0  0  0  0  0
  160.9740  211.4610  147.3860 N   0  0  0  0  0  2  0  0  0  0  0  0
  160.4520  212.6080  146.6570 C   0  0  0  0  0  2  0  0  0  0  0  0
  161.5870  213.5180  146.2130 C   0  0  0  0  0  2  0  0  0  0  0  0
  161.4450  213.8300  144.8590 O   0  0  0  0  0  0  0  0  0  0  0  0
  161.3060  211.8570  140.3470 O   0  0  0  0  0  0  0  0  0  0  0  0
  163.1370  214.4500  142.1950 C   0  0  0  0  0  2  0  0  0  0  0  0
  161.9530  212.9220  140.5480 C   0  0  0  0  0  0  0  0  0  0  0  0
  162.5480  213.2460  144.2330 C   0  0  1  0  0  3  0  0  0  0  0  0
  162.0740  212.4450  143.0340 C   0  0  0  0  0  2  0  0  0  0  0  0
  162.3810  213.2580  141.8740 N   0  0  0  0  0  0  0  0  0  0  0  0
  163.4480  214.3470  143.6770 C   0  0  0  0  0  2  0  0  0  0  0  0
  162.2640  213.8310  139.3990 C   0  0  0  0  0  3  0  0  0  0  0  0
  161.5710  214.4440  137.0730 C   0  0  0  0  0  1  0  0  0  0  0  0
  161.1670  213.7240  138.3460 C   0  0  0  0  0  2  0  0  0  0  0  0
  163.7710  211.9780  138.6450 C   0  0  0  0  0  1  0  0  0  0  0  0
  163.6280  213.4790  138.8180 C   0  0  0  0  0  2  0  0  0  0  0  0
  1  7  2  0  0  0  0
  2  3  1  0  0  0  0
  3 10  1  0  0  0  0
  3  4  2  0  0  0  0
  5  2  1  0  0  0  0
  5  1  1  0  0  0  0
  6  5  2  0  0  0  0
  7  4  1  0  0  0  0
  8 16  1  1  0  0  0
  8 10  1  0  0  0  0
  9  2  2  0  0  0  0
  9  8  1  0  0  0  0
 11 19  1  0  0  0  0
 12 14  1  0  0  0  0
 13 19  1  0  0  0  0
 13 16  2  0  0  0  0
 15 13  1  0  0  0  0
 16 14  1  0  0  0  0
 17 20  1  6  0  0  0
 17 11  1  0  0  0  0
 18 17  1  0  0  0  0
 18 15  1  0  0  0  0
 19 12  2  0  0  0  0
 21 22  1  0  0  0  0
 22 20  1  0  0  0  0
 23 22  2  0  0  0  0
 24 25  1  0  0  0  0
 25  9  1  0  0  0  0
 26  6  1  0  0  0  0
 27 26  1  0  0  0  0
 28 27  1  0  0  0  0
 29 28  1  0  0  0  0
 30 29  1  0  0  0  0
 31 30  1  0  0  0  0
 32 34  2  0  0  0  0
 33 38  1  0  0  0  0
 34 37  1  0  0  0  0
 35 31  1  6  0  0  0
 36 35  1  0  0  0  0
 37 33  1  0  0  0  0
 37 36  1  0  0  0  0
 38 35  1  0  0  0  0
 39 34  1  0  0  0  0
 40 41  1  0  0  0  0
 41 39  1  0  0  0  0
 42 43  1  0  0  0  0
 43 39  1  0  0  0  0
M  END
>  <MODEL>
9

>  <REMARK>
 VINA RESULT:      -4.4      5.309      9.839
  Name = 
  14 active torsions:
  status: ('A' for Active; 'I' for Inactive)
    1  A    between atoms: C_1  and  N_29
    2  A    between atoms: C_1  and  C_30
    3  A    between atoms: C_3  and  C_12
    4  A    between atoms: C_5  and  C_38
    5  A    between atoms: C_12  and  C_22
    6  A    between atoms: C_15  and  C_40
    7  A    between atoms: C_19  and  C_36
    8  A    between atoms: C_21  and  C_38
    9  A    between atoms: C_26  and  C_38
   10  A    between atoms: C_28  and  N_31
   11  A    between atoms: C_28  and  C_32
   12  A    between atoms: C_30  and  N_31
   13  A    between atoms: C_32  and  O_41
   14  A    between atoms: C_33  and  O_41
                            x       y       z     vdW  Elec       q    Type
                         _______ _______ _______ _____ _____    ______ ____

>  <TORSDO>
F 14

$$$$
