=
 OpenBabel11072414123D

 28 33  0  0  1  0  0  0  0  0999 V2000
  161.1860  205.9880  151.4050 C   0  0  0  0  0  0  0  0  0  0  0  0
  161.2490  205.2250  150.2140 C   0  0  0  0  0  0  0  0  0  0  0  0
  160.9480  203.2130  151.5250 C   0  0  0  0  0  3  0  0  0  0  0  0
  160.8610  203.9620  152.6540 N   0  0  0  0  0  0  0  0  0  0  0  0
  161.1420  203.8310  150.2910 C   0  0  0  0  0  3  0  0  0  0  0  0
  160.9760  205.3160  152.6190 C   0  0  0  0  0  3  0  0  0  0  0  0
  160.5740  211.9740  151.1410 C   0  0  0  0  0  2  0  0  0  0  0  0
  161.2110  209.6740  152.0910 C   0  0  1  0  0  0  0  0  0  0  0  0
  160.7690  208.2650  152.2630 C   0  0  0  0  0  3  0  0  0  0  0  0
  162.4270  208.1560  150.6010 C   0  0  0  0  0  2  0  0  0  0  0  0
  161.4050  207.4500  151.4310 C   0  0  0  0  0  0  0  0  0  0  0  0
  162.2710  209.6140  150.9990 C   0  0  2  0  0  0  0  0  0  0  0  0
  160.1530  210.7850  151.9940 C   0  0  0  0  0  2  0  0  0  0  0  0
  161.0540  211.4780  149.7830 C   0  0  2  0  0  3  0  0  0  0  0  0
  162.6590  210.0090  152.4200 C   0  0  0  0  0  2  0  0  0  0  0  0
  162.3680  210.7280  149.9560 C   0  0  0  0  0  2  0  0  0  0  0  0
  162.5950  212.5470  148.1230 C   0  0  0  0  0  1  0  0  0  0  0  0
  161.2270  212.6200  148.7810 C   0  0  1  0  0  3  0  0  0  0  0  0
  160.9090  212.6110  146.5870 C   0  0  0  0  0  1  0  0  0  0  0  0
  160.2260  212.5970  147.8050 O   0  0  0  0  0  0  0  0  0  0  0  0
  160.2140  206.2590  145.4550 C   0  0  0  0  0  3  0  0  0  0  0  0
  160.7870  206.5350  146.8010 C   0  0  0  0  0  0  0  0  0  0  0  0
  161.3530  205.8430  148.9230 N   0  0  0  0  0  0  0  0  0  0  0  0
  162.4360  205.7660  145.5180 N   0  0  0  0  0  0  0  0  0  0  0  0
  161.3470  205.8060  144.6290 N   0  0  0  0  0  0  0  0  0  0  0  0
  162.5460  205.7600  148.0870 C   0  0  0  0  0  2  0  0  0  0  0  0
  162.0510  206.2530  146.7820 C   0  0  0  0  0  0  0  0  0  0  0  0
  160.1900  206.2220  148.1230 C   0  0  0  0  0  3  0  0  0  0  0  0
  1 11  1  0  0  0  0
  1  6  1  0  0  0  0
  2  5  1  0  0  0  0
  2  1  2  0  0  0  0
  3  4  1  0  0  0  0
  5  3  2  0  0  0  0
  6  4  2  0  0  0  0
  7 13  1  0  0  0  0
  8 13  1  6  0  0  0
  8  9  1  0  0  0  0
  8 15  1  0  0  0  0
 10 12  1  0  0  0  0
 10 11  1  0  0  0  0
 11  9  2  0  0  0  0
 12 16  1  6  0  0  0
 12  8  1  0  0  0  0
 12 15  1  0  0  0  0
 14 18  1  6  0  0  0
 14 16  1  0  0  0  0
 14  7  1  0  0  0  0
 18 17  1  6  0  0  0
 19 20  1  0  0  0  0
 20 18  1  0  0  0  0
 21 22  1  0  0  0  0
 22 28  2  0  0  0  0
 23  2  1  0  0  0  0
 24 27  2  0  0  0  0
 25 21  2  0  0  0  0
 25 24  1  0  0  0  0
 26 23  1  0  0  0  0
 27 22  1  0  0  0  0
 27 26  1  0  0  0  0
 28 23  1  0  0  0  0
M  END
>  <MODEL>
1

>  <REMARK>
 VINA RESULT:      -7.0      0.000      0.000
  Name = 
  4 active torsions:
  status: ('A' for Active; 'I' for Inactive)
    1  A    between atoms: C_4  and  C_16
    2  A    between atoms: C_5  and  C_19
    3  A    between atoms: C_5  and  O_26
    4  A    between atoms: N_6  and  C_13
                            x       y       z     vdW  Elec       q    Type
                         _______ _______ _______ _____ _____    ______ ____

>  <TORSDO>
F 4

$$$$
=
 OpenBabel11072414123D

 28 33  0  0  1  0  0  0  0  0999 V2000
  160.7800  208.4640  154.7920 C   0  0  0  0  0  0  0  0  0  0  0  0
  160.0890  209.6990  154.8200 C   0  0  0  0  0  0  0  0  0  0  0  0
  160.0380  209.5790  157.2370 C   0  0  0  0  0  3  0  0  0  0  0  0
  160.7270  208.4100  157.1930 N   0  0  0  0  0  0  0  0  0  0  0  0
  159.7100  210.2410  156.0550 C   0  0  0  0  0  3  0  0  0  0  0  0
  161.0970  207.8470  156.0120 C   0  0  0  0  0  3  0  0  0  0  0  0
  160.6230  205.7130  149.4360 C   0  0  0  0  0  2  0  0  0  0  0  0
  161.3600  207.3740  151.2510 C   0  0  1  0  0  0  0  0  0  0  0  0
  160.8910  208.2800  152.3330 C   0  0  0  0  0  3  0  0  0  0  0  0
  161.8300  206.4530  153.4730 C   0  0  0  0  0  2  0  0  0  0  0  0
  161.1160  207.7640  153.5340 C   0  0  0  0  0  0  0  0  0  0  0  0
  161.9520  206.1770  151.9840 C   0  0  2  0  0  0  0  0  0  0  0  0
  160.4360  207.0920  150.0570 C   0  0  0  0  0  2  0  0  0  0  0  0
  160.5420  204.6520  150.5250 C   0  0  2  0  0  3  0  0  0  0  0  0
  162.8530  207.0900  151.1610 C   0  0  0  0  0  2  0  0  0  0  0  0
  161.7630  204.7640  151.4290 C   0  0  0  0  0  2  0  0  0  0  0  0
  161.0870  203.1810  148.5720 C   0  0  0  0  0  1  0  0  0  0  0  0
  160.4430  203.2400  149.9470 C   0  0  1  0  0  3  0  0  0  0  0  0
  161.0000  201.0990  150.0840 C   0  0  0  0  0  1  0  0  0  0  0  0
  161.0390  202.3000  150.7940 O   0  0  0  0  0  0  0  0  0  0  0  0
  160.2210  213.4550  151.5540 C   0  0  0  0  0  3  0  0  0  0  0  0
  160.0260  212.0400  151.9750 C   0  0  0  0  0  0  0  0  0  0  0  0
  159.8230  210.4450  153.6230 N   0  0  0  0  0  0  0  0  0  0  0  0
  158.0170  212.9940  151.8860 N   0  0  0  0  0  0  0  0  0  0  0  0
  158.8680  214.0280  151.4570 N   0  0  0  0  0  0  0  0  0  0  0  0
  158.4810  210.8330  153.2010 C   0  0  0  0  0  2  0  0  0  0  0  0
  158.7600  211.8250  152.1370 C   0  0  0  0  0  0  0  0  0  0  0  0
  160.8300  211.2660  152.9540 C   0  0  0  0  0  3  0  0  0  0  0  0
  1  2  2  0  0  0  0
  1  6  1  0  0  0  0
  2  5  1  0  0  0  0
  4  3  1  0  0  0  0
  5  3  2  0  0  0  0
  6  4  2  0  0  0  0
  7 13  1  0  0  0  0
  7 14  1  0  0  0  0
  8 13  1  6  0  0  0
  8 12  1  0  0  0  0
  8  9  1  0  0  0  0
  9 11  2  0  0  0  0
 10 11  1  0  0  0  0
 11  1  1  0  0  0  0
 12 15  1  6  0  0  0
 12 10  1  0  0  0  0
 14 18  1  6  0  0  0
 14 16  1  0  0  0  0
 15  8  1  0  0  0  0
 16 12  1  0  0  0  0
 18 17  1  6  0  0  0
 18 20  1  0  0  0  0
 19 20  1  0  0  0  0
 21 22  1  0  0  0  0
 22 27  1  0  0  0  0
 22 28  2  0  0  0  0
 23  2  1  0  0  0  0
 24 27  2  0  0  0  0
 25 21  2  0  0  0  0
 25 24  1  0  0  0  0
 26 23  1  0  0  0  0
 27 26  1  0  0  0  0
 28 23  1  0  0  0  0
M  END
>  <MODEL>
2

>  <REMARK>
 VINA RESULT:      -6.8      4.381      7.351
  Name = 
  4 active torsions:
  status: ('A' for Active; 'I' for Inactive)
    1  A    between atoms: C_4  and  C_16
    2  A    between atoms: C_5  and  C_19
    3  A    between atoms: C_5  and  O_26
    4  A    between atoms: N_6  and  C_13
                            x       y       z     vdW  Elec       q    Type
                         _______ _______ _______ _____ _____    ______ ____

>  <TORSDO>
F 4

$$$$
=
 OpenBabel11072414123D

 28 33  0  0  1  0  0  0  0  0999 V2000
  161.8030  207.6270  149.0080 C   0  0  0  0  0  0  0  0  0  0  0  0
  161.5370  207.3520  150.3710 C   0  0  0  0  0  0  0  0  0  0  0  0
  161.9510  209.6810  150.8880 C   0  0  0  0  0  3  0  0  0  0  0  0
  162.1740  209.9320  149.5720 N   0  0  0  0  0  0  0  0  0  0  0  0
  161.6290  208.3910  151.3070 C   0  0  0  0  0  3  0  0  0  0  0  0
  162.1090  208.9460  148.6390 C   0  0  0  0  0  3  0  0  0  0  0  0
  160.4250  203.5050  144.8380 C   0  0  0  0  0  2  0  0  0  0  0  0
  161.5850  205.5330  145.9050 C   0  0  1  0  0  0  0  0  0  0  0  0
  161.3860  206.7470  146.7390 C   0  0  0  0  0  3  0  0  0  0  0  0
  162.4820  205.2370  148.1660 C   0  0  0  0  0  2  0  0  0  0  0  0
  161.8410  206.5720  147.9730 C   0  0  0  0  0  0  0  0  0  0  0  0
  162.2760  204.5410  146.8310 C   0  0  2  0  0  0  0  0  0  0  0  0
  160.4200  205.0140  145.0480 C   0  0  0  0  0  2  0  0  0  0  0  0
  160.5400  202.8060  146.1870 C   0  0  2  0  0  3  0  0  0  0  0  0
  163.0150  205.0960  145.6180 C   0  0  0  0  0  2  0  0  0  0  0  0
  161.9270  203.0530  146.7650 C   0  0  0  0  0  2  0  0  0  0  0  0
  159.9910  200.9130  144.6410 C   0  0  0  0  0  1  0  0  0  0  0  0
  160.2720  201.3040  146.0820 C   0  0  1  0  0  3  0  0  0  0  0  0
  161.2990  199.3500  145.8850 C   0  0  0  0  0  1  0  0  0  0  0  0
  161.3470  200.5610  146.5780 O   0  0  0  0  0  0  0  0  0  0  0  0
  161.8410  202.5790  151.7520 C   0  0  0  0  0  3  0  0  0  0  0  0
  161.2070  203.9240  151.6800 C   0  0  0  0  0  0  0  0  0  0  0  0
  161.1120  206.0550  150.8140 N   0  0  0  0  0  0  0  0  0  0  0  0
  160.2620  202.6550  150.1140 N   0  0  0  0  0  0  0  0  0  0  0  0
  161.1500  201.7620  150.7390 N   0  0  0  0  0  0  0  0  0  0  0  0
  160.1660  205.2240  150.0770 C   0  0  0  0  0  2  0  0  0  0  0  0
  160.3100  203.9120  150.7460 C   0  0  0  0  0  0  0  0  0  0  0  0
  161.8740  205.2470  151.7640 C   0  0  0  0  0  3  0  0  0  0  0  0
  1  2  1  0  0  0  0
  2 23  1  0  0  0  0
  2  5  2  0  0  0  0
  3  5  1  0  0  0  0
  4  3  2  0  0  0  0
  6  1  2  0  0  0  0
  6  4  1  0  0  0  0
  7 13  1  0  0  0  0
  7 14  1  0  0  0  0
  8 13  1  6  0  0  0
  8  9  1  0  0  0  0
  8 12  1  0  0  0  0
  9 11  2  0  0  0  0
 11 10  1  0  0  0  0
 11  1  1  0  0  0  0
 12 15  1  6  0  0  0
 12 10  1  0  0  0  0
 14 18  1  6  0  0  0
 14 16  1  0  0  0  0
 15  8  1  0  0  0  0
 16 12  1  0  0  0  0
 18 17  1  6  0  0  0
 18 20  1  0  0  0  0
 19 20  1  0  0  0  0
 22 21  1  0  0  0  0
 22 28  2  0  0  0  0
 23 28  1  0  0  0  0
 24 25  1  0  0  0  0
 24 27  2  0  0  0  0
 25 21  2  0  0  0  0
 26 27  1  0  0  0  0
 26 23  1  0  0  0  0
 27 22  1  0  0  0  0
M  END
>  <MODEL>
3

>  <REMARK>
 VINA RESULT:      -6.8      3.468      7.516
  Name = 
  4 active torsions:
  status: ('A' for Active; 'I' for Inactive)
    1  A    between atoms: C_4  and  C_16
    2  A    between atoms: C_5  and  C_19
    3  A    between atoms: C_5  and  O_26
    4  A    between atoms: N_6  and  C_13
                            x       y       z     vdW  Elec       q    Type
                         _______ _______ _______ _____ _____    ______ ____

>  <TORSDO>
F 4

$$$$
=
 OpenBabel11072414123D

 28 33  0  0  1  0  0  0  0  0999 V2000
  160.8570  203.4930  150.2470 C   0  0  0  0  0  0  0  0  0  0  0  0
  160.9580  203.2560  148.8550 C   0  0  0  0  0  0  0  0  0  0  0  0
  160.3150  200.9530  149.2350 C   0  0  0  0  0  3  0  0  0  0  0  0
  160.1940  201.2070  150.5640 N   0  0  0  0  0  0  0  0  0  0  0  0
  160.6970  201.9710  148.3620 C   0  0  0  0  0  3  0  0  0  0  0  0
  160.4550  202.4370  151.0790 C   0  0  0  0  0  3  0  0  0  0  0  0
  161.2730  208.3450  153.7920 C   0  0  0  0  0  2  0  0  0  0  0  0
  162.0340  206.2990  152.4390 C   0  0  1  0  0  0  0  0  0  0  0  0
  161.7230  204.8870  152.0920 C   0  0  0  0  0  3  0  0  0  0  0  0
  161.1740  206.0960  150.1540 C   0  0  0  0  0  2  0  0  0  0  0  0
  161.2260  204.7840  150.8660 C   0  0  0  0  0  0  0  0  0  0  0  0
  161.6610  207.0920  151.1940 C   0  0  2  0  0  0  0  0  0  0  0  0
  161.5800  206.8530  153.7990 C   0  0  0  0  0  2  0  0  0  0  0  0
  160.3040  208.6580  152.6590 C   0  0  2  0  0  3  0  0  0  0  0  0
  163.1170  207.0050  151.6360 C   0  0  0  0  0  2  0  0  0  0  0  0
  161.0130  208.4720  151.3240 C   0  0  0  0  0  2  0  0  0  0  0  0
  159.6920  210.5270  154.2110 C   0  0  0  0  0  1  0  0  0  0  0  0
  159.7360  210.0740  152.7610 C   0  0  1  0  0  3  0  0  0  0  0  0
  159.8920  212.2200  152.2310 C   0  0  0  0  0  1  0  0  0  0  0  0
  160.4840  210.9780  152.0000 O   0  0  0  0  0  0  0  0  0  0  0  0
  160.4680  206.2610  144.9170 C   0  0  0  0  0  3  0  0  0  0  0  0
  160.9720  205.8740  146.2630 C   0  0  0  0  0  0  0  0  0  0  0  0
  161.2570  204.3080  147.9260 N   0  0  0  0  0  0  0  0  0  0  0  0
  162.5740  205.4050  144.7900 N   0  0  0  0  0  0  0  0  0  0  0  0
  161.5760  205.9840  143.9860 N   0  0  0  0  0  0  0  0  0  0  0  0
  162.4830  204.3580  147.1360 C   0  0  0  0  0  2  0  0  0  0  0  0
  162.1730  205.4070  146.1390 C   0  0  0  0  0  0  0  0  0  0  0  0
  160.2330  205.1700  147.3400 C   0  0  0  0  0  3  0  0  0  0  0  0
  1 11  1  0  0  0  0
  1  6  1  0  0  0  0
  2  1  2  0  0  0  0
  3  4  1  0  0  0  0
  4  6  2  0  0  0  0
  5  2  1  0  0  0  0
  5  3  2  0  0  0  0
  7 13  1  0  0  0  0
  8 15  1  1  0  0  0
  8 13  1  0  0  0  0
  9  8  1  0  0  0  0
 10 11  1  0  0  0  0
 11  9  2  0  0  0  0
 12 10  1  6  0  0  0
 12 16  1  0  0  0  0
 12 15  1  0  0  0  0
 12  8  1  0  0  0  0
 14 18  1  1  0  0  0
 14  7  1  0  0  0  0
 16 14  1  0  0  0  0
 18 17  1  1  0  0  0
 20 19  1  0  0  0  0
 20 18  1  0  0  0  0
 21 22  1  0  0  0  0
 22 28  2  0  0  0  0
 23  2  1  0  0  0  0
 24 27  2  0  0  0  0
 25 24  1  0  0  0  0
 25 21  2  0  0  0  0
 26 23  1  0  0  0  0
 27 22  1  0  0  0  0
 27 26  1  0  0  0  0
 28 23  1  0  0  0  0
M  END
>  <MODEL>
4

>  <REMARK>
 VINA RESULT:      -6.2      2.341      3.356
  Name = 
  4 active torsions:
  status: ('A' for Active; 'I' for Inactive)
    1  A    between atoms: C_4  and  C_16
    2  A    between atoms: C_5  and  C_19
    3  A    between atoms: C_5  and  O_26
    4  A    between atoms: N_6  and  C_13
                            x       y       z     vdW  Elec       q    Type
                         _______ _______ _______ _____ _____    ______ ____

>  <TORSDO>
F 4

$$$$
=
 OpenBabel11072414123D

 28 33  0  0  1  0  0  0  0  0999 V2000
  161.6330  207.2830  151.2410 C   0  0  0  0  0  0  0  0  0  0  0  0
  161.9010  208.0850  150.1050 C   0  0  0  0  0  0  0  0  0  0  0  0
  162.0500  210.0220  151.5490 C   0  0  0  0  0  3  0  0  0  0  0  0
  161.8220  209.2330  152.6310 N   0  0  0  0  0  0  0  0  0  0  0  0
  162.0940  209.4620  150.2730 C   0  0  0  0  0  3  0  0  0  0  0  0
  161.6140  207.8960  152.5040 C   0  0  0  0  0  3  0  0  0  0  0  0
  161.7460  201.3290  150.3390 C   0  0  0  0  0  2  0  0  0  0  0  0
  161.3760  203.5560  151.5640 C   0  0  1  0  0  0  0  0  0  0  0  0
  161.9410  204.9050  151.8300 C   0  0  0  0  0  3  0  0  0  0  0  0
  160.1610  205.3030  150.3490 C   0  0  0  0  0  2  0  0  0  0  0  0
  161.3030  205.8450  151.1440 C   0  0  0  0  0  0  0  0  0  0  0  0
  160.2340  203.8040  150.5880 C   0  0  2  0  0  0  0  0  0  0  0  0
  162.3310  202.3900  151.2620 C   0  0  0  0  0  2  0  0  0  0  0  0
  161.1920  201.9950  149.0870 C   0  0  2  0  0  3  0  0  0  0  0  0
  159.9400  203.2910  151.9930 C   0  0  0  0  0  2  0  0  0  0  0  0
  159.9610  202.8130  149.4540 C   0  0  0  0  0  2  0  0  0  0  0  0
  160.4580  201.6880  146.7120 C   0  0  0  0  0  1  0  0  0  0  0  0
  160.8430  200.9790  147.9990 C   0  0  1  0  0  3  0  0  0  0  0  0
  161.5810  199.4540  146.5700 C   0  0  0  0  0  1  0  0  0  0  0  0
  161.9070  200.1020  147.7620 O   0  0  0  0  0  0  0  0  0  0  0  0
  160.7240  205.5820  145.9660 C   0  0  0  0  0  3  0  0  0  0  0  0
  161.4850  206.5780  146.7690 C   0  0  0  0  0  0  0  0  0  0  0  0
  162.0440  207.5190  148.7950 N   0  0  0  0  0  0  0  0  0  0  0  0
  162.7100  204.7210  146.6720 N   0  0  0  0  0  0  0  0  0  0  0  0
  161.5920  204.3940  145.8840 N   0  0  0  0  0  0  0  0  0  0  0  0
  163.0730  206.5440  148.4490 C   0  0  0  0  0  2  0  0  0  0  0  0
  162.6080  206.0470  147.1340 C   0  0  0  0  0  0  0  0  0  0  0  0
  160.9610  207.4920  147.8140 C   0  0  0  0  0  3  0  0  0  0  0  0
  1  6  1  0  0  0  0
  2  5  1  0  0  0  0
  2  1  2  0  0  0  0
  3  4  1  0  0  0  0
  5  3  2  0  0  0  0
  6  4  2  0  0  0  0
  7 13  1  0  0  0  0
  8 13  1  6  0  0  0
  8  9  1  0  0  0  0
  8 15  1  0  0  0  0
 10 12  1  0  0  0  0
 10 11  1  0  0  0  0
 11  1  1  0  0  0  0
 11  9  2  0  0  0  0
 12 16  1  6  0  0  0
 12  8  1  0  0  0  0
 12 15  1  0  0  0  0
 14 18  1  6  0  0  0
 14 16  1  0  0  0  0
 14  7  1  0  0  0  0
 18 17  1  6  0  0  0
 19 20  1  0  0  0  0
 20 18  1  0  0  0  0
 21 22  1  0  0  0  0
 22 27  1  0  0  0  0
 22 28  2  0  0  0  0
 23  2  1  0  0  0  0
 24 27  2  0  0  0  0
 25 21  2  0  0  0  0
 25 24  1  0  0  0  0
 26 23  1  0  0  0  0
 27 26  1  0  0  0  0
 28 23  1  0  0  0  0
M  END
>  <MODEL>
5

>  <REMARK>
 VINA RESULT:      -5.8      3.200      6.660
  Name = 
  4 active torsions:
  status: ('A' for Active; 'I' for Inactive)
    1  A    between atoms: C_4  and  C_16
    2  A    between atoms: C_5  and  C_19
    3  A    between atoms: C_5  and  O_26
    4  A    between atoms: N_6  and  C_13
                            x       y       z     vdW  Elec       q    Type
                         _______ _______ _______ _____ _____    ______ ____

>  <TORSDO>
F 4

$$$$
=
 OpenBabel11072414123D

 28 33  0  0  1  0  0  0  0  0999 V2000
  161.0900  204.5230  150.9460 C   0  0  0  0  0  0  0  0  0  0  0  0
  161.1940  204.0270  149.6240 C   0  0  0  0  0  0  0  0  0  0  0  0
  160.8350  201.7880  150.4720 C   0  0  0  0  0  3  0  0  0  0  0  0
  160.7090  202.2850  151.7290 N   0  0  0  0  0  0  0  0  0  0  0  0
  161.0780  202.6490  149.4020 C   0  0  0  0  0  3  0  0  0  0  0  0
  160.8310  203.6150  151.9840 C   0  0  0  0  0  3  0  0  0  0  0  0
  161.2900  209.9060  153.6410 C   0  0  0  0  0  2  0  0  0  0  0  0
  162.1290  207.8210  152.3990 C   0  0  1  0  0  0  0  0  0  0  0  0
  162.0470  206.3380  152.3190 C   0  0  0  0  0  3  0  0  0  0  0  0
  160.8280  207.0880  150.4560 C   0  0  0  0  0  2  0  0  0  0  0  0
  161.3140  205.9450  151.2860 C   0  0  0  0  0  0  0  0  0  0  0  0
  161.3220  208.3140  151.2050 C   0  0  2  0  0  0  0  0  0  0  0  0
  161.8950  208.5120  153.7510 C   0  0  0  0  0  2  0  0  0  0  0  0
  160.0430  209.8510  152.7680 C   0  0  2  0  0  3  0  0  0  0  0  0
  162.8270  208.5550  151.2620 C   0  0  0  0  0  2  0  0  0  0  0  0
  160.4500  209.5640  151.3280 C   0  0  0  0  0  2  0  0  0  0  0  0
  159.0430  211.5750  154.2840 C   0  0  0  0  0  1  0  0  0  0  0  0
  159.2320  211.1450  152.8390 C   0  0  1  0  0  3  0  0  0  0  0  0
  158.7930  212.9650  151.6520 C   0  0  0  0  0  1  0  0  0  0  0  0
  159.8450  212.1700  152.1110 O   0  0  0  0  0  0  0  0  0  0  0  0
  160.2050  206.2080  145.2600 C   0  0  0  0  0  3  0  0  0  0  0  0
  160.8330  206.1090  146.6060 C   0  0  0  0  0  0  0  0  0  0  0  0
  161.3490  204.9010  148.4960 N   0  0  0  0  0  0  0  0  0  0  0  0
  162.3490  205.4600  145.1110 N   0  0  0  0  0  0  0  0  0  0  0  0
  161.2570  205.8230  144.3030 N   0  0  0  0  0  0  0  0  0  0  0  0
  162.5060  204.8690  147.6090 C   0  0  0  0  0  2  0  0  0  0  0  0
  162.0510  205.6940  146.4670 C   0  0  0  0  0  0  0  0  0  0  0  0
  160.2260  205.5800  147.8530 C   0  0  0  0  0  3  0  0  0  0  0  0
  1 11  1  0  0  0  0
  1  6  1  0  0  0  0
  2  1  2  0  0  0  0
  3  4  1  0  0  0  0
  4  6  2  0  0  0  0
  5  2  1  0  0  0  0
  5  3  2  0  0  0  0
  7 13  1  0  0  0  0
  8 15  1  6  0  0  0
  8 13  1  0  0  0  0
  9  8  1  0  0  0  0
 10 11  1  0  0  0  0
 11  9  2  0  0  0  0
 12 10  1  6  0  0  0
 12 15  1  0  0  0  0
 12 16  1  0  0  0  0
 12  8  1  0  0  0  0
 14 18  1  6  0  0  0
 14  7  1  0  0  0  0
 16 14  1  0  0  0  0
 18 17  1  1  0  0  0
 19 20  1  0  0  0  0
 20 18  1  0  0  0  0
 21 22  1  0  0  0  0
 22 28  2  0  0  0  0
 23  2  1  0  0  0  0
 24 27  2  0  0  0  0
 25 24  1  0  0  0  0
 25 21  2  0  0  0  0
 26 23  1  0  0  0  0
 27 22  1  0  0  0  0
 27 26  1  0  0  0  0
 28 23  1  0  0  0  0
M  END
>  <MODEL>
6

>  <REMARK>
 VINA RESULT:      -5.6      2.128      2.719
  Name = 
  4 active torsions:
  status: ('A' for Active; 'I' for Inactive)
    1  A    between atoms: C_4  and  C_16
    2  A    between atoms: C_5  and  C_19
    3  A    between atoms: C_5  and  O_26
    4  A    between atoms: N_6  and  C_13
                            x       y       z     vdW  Elec       q    Type
                         _______ _______ _______ _____ _____    ______ ____

>  <TORSDO>
F 4

$$$$
=
 OpenBabel11072414123D

 28 33  0  0  1  0  0  0  0  0999 V2000
  161.2280  205.3510  151.6200 C   0  0  0  0  0  0  0  0  0  0  0  0
  161.4270  206.5850  150.9560 C   0  0  0  0  0  0  0  0  0  0  0  0
  161.5090  207.6920  153.1080 C   0  0  0  0  0  3  0  0  0  0  0  0
  161.3460  206.4950  153.7290 N   0  0  0  0  0  0  0  0  0  0  0  0
  161.5520  207.7560  151.7160 C   0  0  0  0  0  3  0  0  0  0  0  0
  161.2060  205.3410  153.0230 C   0  0  0  0  0  3  0  0  0  0  0  0
  161.6630  200.3710  148.2610 C   0  0  0  0  0  2  0  0  0  0  0  0
  161.1360  201.8430  150.2980 C   0  0  1  0  0  0  0  0  0  0  0  0
  161.6240  202.9600  151.1500 C   0  0  0  0  0  3  0  0  0  0  0  0
  159.8910  203.9110  149.8810 C   0  0  0  0  0  2  0  0  0  0  0  0
  160.9710  204.0870  150.8970 C   0  0  0  0  0  0  0  0  0  0  0  0
  160.0260  202.4580  149.4570 C   0  0  2  0  0  0  0  0  0  0  0  0
  162.1570  200.9460  149.5820 C   0  0  0  0  0  2  0  0  0  0  0  0
  161.1310  201.4980  147.3850 C   0  0  2  0  0  3  0  0  0  0  0  0
  159.6970  201.3830  150.4870 C   0  0  0  0  0  2  0  0  0  0  0  0
  159.8480  202.0460  147.9950 C   0  0  0  0  0  2  0  0  0  0  0  0
  161.1480  199.5510  145.8090 C   0  0  0  0  0  1  0  0  0  0  0  0
  160.8780  201.0400  145.9480 C   0  0  1  0  0  3  0  0  0  0  0  0
  159.7060  202.2550  144.5110 C   0  0  0  0  0  1  0  0  0  0  0  0
  159.5700  201.3280  145.5460 O   0  0  0  0  0  0  0  0  0  0  0  0
  160.5310  205.7170  146.1370 C   0  0  0  0  0  3  0  0  0  0  0  0
  161.0660  206.4900  147.2910 C   0  0  0  0  0  0  0  0  0  0  0  0
  161.5700  206.6650  149.5310 N   0  0  0  0  0  0  0  0  0  0  0  0
  162.7490  205.3040  146.4430 N   0  0  0  0  0  0  0  0  0  0  0  0
  161.6850  204.9930  145.5770 N   0  0  0  0  0  0  0  0  0  0  0  0
  162.7860  206.2790  148.8220 C   0  0  0  0  0  2  0  0  0  0  0  0
  162.3290  206.2320  147.4150 C   0  0  0  0  0  0  0  0  0  0  0  0
  160.4310  206.7000  148.6160 C   0  0  0  0  0  3  0  0  0  0  0  0
  1  6  1  0  0  0  0
  2  1  2  0  0  0  0
  2  5  1  0  0  0  0
  3  4  1  0  0  0  0
  5  3  2  0  0  0  0
  6  4  2  0  0  0  0
  7 13  1  0  0  0  0
  8 13  1  6  0  0  0
  8 15  1  0  0  0  0
  8  9  1  0  0  0  0
 10 11  1  0  0  0  0
 11  9  2  0  0  0  0
 11  1  1  0  0  0  0
 12 16  1  6  0  0  0
 12 10  1  0  0  0  0
 12  8  1  0  0  0  0
 12 15  1  0  0  0  0
 14 18  1  6  0  0  0
 14 16  1  0  0  0  0
 14  7  1  0  0  0  0
 18 17  1  1  0  0  0
 19 20  1  0  0  0  0
 20 18  1  0  0  0  0
 21 22  1  0  0  0  0
 22 27  1  0  0  0  0
 22 28  2  0  0  0  0
 23  2  1  0  0  0  0
 24 27  2  0  0  0  0
 25 21  2  0  0  0  0
 25 24  1  0  0  0  0
 26 23  1  0  0  0  0
 27 26  1  0  0  0  0
 28 23  1  0  0  0  0
M  END
>  <MODEL>
7

>  <REMARK>
 VINA RESULT:      -5.5      3.472      6.921
  Name = 
  4 active torsions:
  status: ('A' for Active; 'I' for Inactive)
    1  A    between atoms: C_4  and  C_16
    2  A    between atoms: C_5  and  C_19
    3  A    between atoms: C_5  and  O_26
    4  A    between atoms: N_6  and  C_13
                            x       y       z     vdW  Elec       q    Type
                         _______ _______ _______ _____ _____    ______ ____

>  <TORSDO>
F 4

$$$$
=
 OpenBabel11072414123D

 28 33  0  0  1  0  0  0  0  0999 V2000
  161.7190  208.4550  150.0630 C   0  0  0  0  0  0  0  0  0  0  0  0
  161.7940  209.6050  150.8860 C   0  0  0  0  0  0  0  0  0  0  0  0
  162.3880  210.9170  148.9400 C   0  0  0  0  0  3  0  0  0  0  0  0
  162.2820  209.8090  148.1620 N   0  0  0  0  0  0  0  0  0  0  0  0
  162.1460  210.8320  150.3110 C   0  0  0  0  0  3  0  0  0  0  0  0
  161.9580  208.5990  148.6880 C   0  0  0  0  0  3  0  0  0  0  0  0
  162.0610  202.6400  151.5960 C   0  0  0  0  0  2  0  0  0  0  0  0
  161.7500  205.1730  151.8780 C   0  0  1  0  0  0  0  0  0  0  0  0
  162.2640  206.5130  151.4870 C   0  0  0  0  0  3  0  0  0  0  0  0
  160.2520  206.2920  150.2950 C   0  0  0  0  0  2  0  0  0  0  0  0
  161.4680  207.1010  150.6030 C   0  0  0  0  0  0  0  0  0  0  0  0
  160.4550  205.0140  151.0930 C   0  0  2  0  0  0  0  0  0  0  0  0
  162.7170  203.9790  151.9070 C   0  0  0  0  0  2  0  0  0  0  0  0
  161.2770  202.7500  150.2950 C   0  0  2  0  0  3  0  0  0  0  0  0
  160.4190  205.1120  152.6140 C   0  0  0  0  0  2  0  0  0  0  0  0
  160.0700  203.6540  150.5100 C   0  0  0  0  0  2  0  0  0  0  0  0
  159.3320  201.3890  149.4940 C   0  0  0  0  0  1  0  0  0  0  0  0
  160.8250  201.3840  149.7770 C   0  0  1  0  0  3  0  0  0  0  0  0
  161.2080  201.9970  147.6820 C   0  0  0  0  0  1  0  0  0  0  0  0
  161.5290  201.0190  148.6250 O   0  0  0  0  0  0  0  0  0  0  0  0
  159.3800  210.6150  155.1200 C   0  0  0  0  0  3  0  0  0  0  0  0
  160.2490  209.8050  154.2250 C   0  0  0  0  0  0  0  0  0  0  0  0
  161.4590  209.5630  152.2800 N   0  0  0  0  0  0  0  0  0  0  0  0
  161.5820  210.9950  155.5530 N   0  0  0  0  0  0  0  0  0  0  0  0
  160.3000  211.3420  156.0130 N   0  0  0  0  0  0  0  0  0  0  0  0
  162.3810  209.9540  153.3410 C   0  0  0  0  0  2  0  0  0  0  0  0
  161.4880  210.0450  154.5180 C   0  0  0  0  0  0  0  0  0  0  0  0
  160.0810  209.5660  152.7700 C   0  0  0  0  0  3  0  0  0  0  0  0
  1 11  1  0  0  0  0
  1  2  1  0  0  0  0
  2 23  1  0  0  0  0
  3  5  1  0  0  0  0
  4  6  1  0  0  0  0
  4  3  2  0  0  0  0
  5  2  2  0  0  0  0
  6  1  2  0  0  0  0
  7 13  1  0  0  0  0
  8  9  1  6  0  0  0
  8 13  1  0  0  0  0
  8 15  1  0  0  0  0
 10 11  1  0  0  0  0
 11  9  2  0  0  0  0
 12 10  1  6  0  0  0
 12  8  1  0  0  0  0
 12 15  1  0  0  0  0
 14 18  1  1  0  0  0
 14 16  1  0  0  0  0
 14  7  1  0  0  0  0
 16 12  1  0  0  0  0
 18 17  1  6  0  0  0
 19 20  1  0  0  0  0
 20 18  1  0  0  0  0
 21 25  2  0  0  0  0
 22 27  1  0  0  0  0
 22 21  1  0  0  0  0
 23 28  1  0  0  0  0
 23 26  1  0  0  0  0
 24 25  1  0  0  0  0
 26 27  1  0  0  0  0
 27 24  2  0  0  0  0
 28 22  2  0  0  0  0
M  END
>  <MODEL>
8

>  <REMARK>
 VINA RESULT:      -5.3      3.662      7.918
  Name = 
  4 active torsions:
  status: ('A' for Active; 'I' for Inactive)
    1  A    between atoms: C_4  and  C_16
    2  A    between atoms: C_5  and  C_19
    3  A    between atoms: C_5  and  O_26
    4  A    between atoms: N_6  and  C_13
                            x       y       z     vdW  Elec       q    Type
                         _______ _______ _______ _____ _____    ______ ____

>  <TORSDO>
F 4

$$$$
=
 OpenBabel11072414123D

 28 33  0  0  1  0  0  0  0  0999 V2000
  161.4500  209.4800  139.4980 C   0  0  0  0  0  0  0  0  0  0  0  0
  161.1450  209.5440  138.1170 C   0  0  0  0  0  0  0  0  0  0  0  0
  161.9510  207.2750  137.8680 C   0  0  0  0  0  3  0  0  0  0  0  0
  162.2100  207.2210  139.2000 N   0  0  0  0  0  0  0  0  0  0  0  0
  161.4150  208.4330  137.3070 C   0  0  0  0  0  3  0  0  0  0  0  0
  161.9750  208.2850  140.0130 C   0  0  0  0  0  3  0  0  0  0  0  0
  161.8580  213.4020  144.0510 C   0  0  0  0  0  2  0  0  0  0  0  0
  161.8780  212.5320  141.6350 C   0  0  1  0  0  0  0  0  0  0  0  0
  162.3200  211.4260  140.7450 C   0  0  0  0  0  3  0  0  0  0  0  0
  160.0000  211.1170  140.9490 C   0  0  0  0  0  2  0  0  0  0  0  0
  161.3060  210.6410  140.4030 C   0  0  0  0  0  0  0  0  0  0  0  0
  160.3780  212.3250  141.7880 C   0  0  2  0  0  0  0  0  0  0  0  0
  162.6880  212.8410  142.9040 C   0  0  0  0  0  2  0  0  0  0  0  0
  160.6630  212.4930  144.3050 C   0  0  2  0  0  3  0  0  0  0  0  0
  160.9090  213.5570  141.0640 C   0  0  0  0  0  2  0  0  0  0  0  0
  159.6960  212.5930  143.1310 C   0  0  0  0  0  2  0  0  0  0  0  0
  158.4520  212.5800  145.4780 C   0  0  0  0  0  1  0  0  0  0  0  0
  159.9440  212.8360  145.6100 C   0  0  1  0  0  3  0  0  0  0  0  0
  160.8040  213.0600  147.6400 C   0  0  0  0  0  1  0  0  0  0  0  0
  160.4610  212.1040  146.6830 O   0  0  0  0  0  0  0  0  0  0  0  0
  159.8740  214.3060  137.4180 C   0  0  0  0  0  3  0  0  0  0  0  0
  160.0590  212.8860  137.0110 C   0  0  0  0  0  0  0  0  0  0  0  0
  160.5070  210.6890  137.5340 N   0  0  0  0  0  0  0  0  0  0  0  0
  157.9170  213.1510  137.5530 N   0  0  0  0  0  0  0  0  0  0  0  0
  158.4370  214.4470  137.7140 N   0  0  0  0  0  0  0  0  0  0  0  0
  159.0590  210.8500  137.4560 C   0  0  0  0  0  2  0  0  0  0  0  0
  158.9190  212.2780  137.0910 C   0  0  0  0  0  0  0  0  0  0  0  0
  161.1770  211.9780  137.3700 C   0  0  0  0  0  3  0  0  0  0  0  0
  1  6  1  0  0  0  0
  1 11  1  0  0  0  0
  2  1  2  0  0  0  0
  3  4  1  0  0  0  0
  4  6  2  0  0  0  0
  5  3  2  0  0  0  0
  5  2  1  0  0  0  0
  7 14  1  0  0  0  0
  8  9  1  6  0  0  0
  8 12  1  0  0  0  0
  8 13  1  0  0  0  0
 11  9  2  0  0  0  0
 11 10  1  0  0  0  0
 12 10  1  6  0  0  0
 12 16  1  0  0  0  0
 13  7  1  0  0  0  0
 14 18  1  1  0  0  0
 15  8  1  0  0  0  0
 15 12  1  0  0  0  0
 16 14  1  0  0  0  0
 18 17  1  6  0  0  0
 18 20  1  0  0  0  0
 20 19  1  0  0  0  0
 21 25  2  0  0  0  0
 22 27  1  0  0  0  0
 22 28  2  0  0  0  0
 22 21  1  0  0  0  0
 23  2  1  0  0  0  0
 24 25  1  0  0  0  0
 26 23  1  0  0  0  0
 27 26  1  0  0  0  0
 27 24  2  0  0  0  0
 28 23  1  0  0  0  0
M  END
>  <MODEL>
9

>  <REMARK>
 VINA RESULT:      -5.2      6.904     10.728
  Name = 
  4 active torsions:
  status: ('A' for Active; 'I' for Inactive)
    1  A    between atoms: C_4  and  C_16
    2  A    between atoms: C_5  and  C_19
    3  A    between atoms: C_5  and  O_26
    4  A    between atoms: N_6  and  C_13
                            x       y       z     vdW  Elec       q    Type
                         _______ _______ _______ _____ _____    ______ ____

>  <TORSDO>
F 4

$$$$
