=
 OpenBabel11072411213D

 42 46  0  0  1  0  0  0  0  0999 V2000
  160.5380  210.8280  153.8000 C   0  0  0  0  0  2  0  0  0  0  0  0
  160.8950  210.5320  152.3610 C   0  0  0  0  0  0  0  0  0  0  0  0
  159.4430  210.6470  152.7570 C   0  0  0  0  0  2  0  0  0  0  0  0
  160.9440  213.1740  147.0420 C   0  0  2  0  0  0  0  0  0  0  0  0
  160.3050  212.7230  151.2430 C   0  0  0  0  0  2  0  0  0  0  0  0
  161.6690  212.0120  147.7830 C   0  0  0  0  0  2  0  0  0  0  0  0
  161.0620  211.7590  149.1780 C   0  0  1  0  0  3  0  0  0  0  0  0
  162.0340  211.2760  150.2220 C   0  0  0  0  0  2  0  0  0  0  0  0
  161.4240  211.7230  151.5560 C   0  0  2  0  0  3  0  0  0  0  0  0
  159.4760  213.1850  147.4720 C   0  0  1  0  0  3  0  0  0  0  0  0
  159.5460  213.7820  145.1430 C   0  0  0  0  0  2  0  0  0  0  0  0
  160.4820  213.0230  149.7740 C   0  0  1  0  0  3  0  0  0  0  0  0
  159.2750  213.5500  148.9630 C   0  0  2  0  0  3  0  0  0  0  0  0
  161.8860  213.3530  144.7930 O   0  0  0  0  0  1  0  0  0  0  0  0
  160.7730  212.9580  145.5360 C   0  0  1  0  0  3  0  0  0  0  0  0
  158.7470  214.0090  146.4300 C   0  0  1  0  0  3  0  0  0  0  0  0
  156.4180  214.3760  145.6230 O   0  0  0  0  0  0  0  0  0  0  0  0
  156.9630  212.4290  146.7000 O   0  0  0  0  0  1  0  0  0  0  0  0
  157.3330  213.5510  146.2620 C   0  0  0  0  0  0  0  0  0  0  0  0
  156.9990  214.0710  149.5760 O   0  0  0  0  0  1  0  0  0  0  0  0
  157.9270  213.0340  149.4740 C   0  0  0  0  0  2  0  0  0  0  0  0
  162.8530  214.3230  147.7090 C   0  0  0  0  0  1  0  0  0  0  0  0
  161.5020  214.4500  147.3450 O   0  0  0  0  0  0  0  0  0  0  0  0
  160.5200  208.1010  152.2840 C   0  0  0  0  0  3  0  0  0  0  0  0
  161.3460  209.1260  152.0960 C   0  0  0  0  0  3  0  0  0  0  0  0
  160.9580  206.7000  152.0150 C   0  0  0  0  0  2  0  0  0  0  0  0
  162.2690  206.7100  151.2460 C   0  0  0  0  0  2  0  0  0  0  0  0
  162.1730  205.8470  149.9970 C   0  0  2  0  0  3  0  0  0  0  0  0
  162.1640  206.6900  148.8140 N   0  0  0  0  0  2  0  0  0  0  0  0
  161.1930  206.1070  147.8970 C   0  0  0  0  0  2  0  0  0  0  0  0
  161.5890  206.3240  146.4410 C   0  0  2  0  0  3  0  0  0  0  0  0
  160.3660  206.4040  145.5470 C   0  0  0  0  0  1  0  0  0  0  0  0
  163.2420  204.4050  145.5860 C   0  0  0  0  0  3  0  0  0  0  0  0
  162.4950  205.2700  145.9730 C   0  0  0  0  0  0  0  0  0  0  0  0
  160.9570  205.0440  150.0500 N   0  0  0  0  0  2  0  0  0  0  0  0
  160.8700  200.8940  149.1780 C   0  0  0  0  0  3  0  0  0  0  0  0
  160.8310  203.1950  148.4220 C   0  0  0  0  0  3  0  0  0  0  0  0
  160.9590  201.3310  150.5010 C   0  0  0  0  0  3  0  0  0  0  0  0
  161.0870  203.1290  152.2160 C   0  0  0  0  0  1  0  0  0  0  0  0
  160.9170  203.6430  149.7510 C   0  0  0  0  0  0  0  0  0  0  0  0
  160.9850  202.7000  150.7930 C   0  0  0  0  0  0  0  0  0  0  0  0
  160.8040  201.8250  148.1380 C   0  0  0  0  0  3  0  0  0  0  0  0
  2  3  1  0  0  0  0
  2  1  1  0  0  0  0
  3  1  1  0  0  0  0
  4 23  1  1  0  0  0
  4 10  1  0  0  0  0
  4  6  1  0  0  0  0
  5  9  1  0  0  0  0
  7  6  1  6  0  0  0
  7 12  1  0  0  0  0
  7  8  1  0  0  0  0
  9  8  1  6  0  0  0
  9  2  1  0  0  0  0
 10 13  1  0  0  0  0
 11 15  1  0  0  0  0
 11 16  1  0  0  0  0
 12  5  1  0  0  0  0
 13 21  1  0  0  0  0
 13 12  1  0  0  0  0
 14 15  1  0  0  0  0
 15  4  1  0  0  0  0
 16 10  1  0  0  0  0
 17 19  2  0  0  0  0
 19 16  1  0  0  0  0
 19 18  1  0  0  0  0
 21 20  1  0  0  0  0
 23 22  1  0  0  0  0
 25 24  2  0  0  0  0
 25  2  1  0  0  0  0
 26 24  1  0  0  0  0
 27 26  1  0  0  0  0
 28 35  1  0  0  0  0
 28 27  1  0  0  0  0
 29 28  1  0  0  0  0
 30 29  1  0  0  0  0
 31 30  1  0  0  0  0
 32 31  1  0  0  0  0
 33 34  3  0  0  0  0
 34 31  1  0  0  0  0
 36 38  1  0  0  0  0
 37 40  2  0  0  0  0
 38 41  2  0  0  0  0
 40 35  1  0  0  0  0
 40 41  1  0  0  0  0
 41 39  1  0  0  0  0
 42 37  1  0  0  0  0
 42 36  2  0  0  0  0
M  END
>  <MODEL>
1

>  <REMARK>
 VINA RESULT:      -6.5      0.000      0.000
  Name = 
  14 active torsions:
  status: ('A' for Active; 'I' for Inactive)
    1  A    between atoms: C_1  and  O_41
    2  A    between atoms: C_3  and  C_14
    3  A    between atoms: C_3  and  C_20
    4  A    between atoms: C_6  and  C_29
    5  A    between atoms: C_6  and  C_40
    6  A    between atoms: C_9  and  C_13
    7  A    between atoms: C_9  and  C_17
    8  A    between atoms: C_17  and  C_34
    9  A    between atoms: N_18  and  C_29
   10  A    between atoms: N_18  and  C_34
   11  A    between atoms: C_24  and  C_37
   12  A    between atoms: C_28  and  C_31
   13  A    between atoms: C_32  and  N_35
   14  A    between atoms: C_34  and  N_35
                            x       y       z     vdW  Elec       q    Type
                         _______ _______ _______ _____ _____    ______ ____

>  <TORSDO>
F 14

$$$$
=
 OpenBabel11072411213D

 42 46  0  0  1  0  0  0  0  0999 V2000
  161.4700  208.0660  155.7610 C   0  0  0  0  0  2  0  0  0  0  0  0
  161.2760  208.3080  154.2810 C   0  0  0  0  0  0  0  0  0  0  0  0
  160.0810  207.9770  155.1430 C   0  0  0  0  0  2  0  0  0  0  0  0
  158.1000  213.1300  152.8900 C   0  0  2  0  0  0  0  0  0  0  0  0
  160.9440  210.7170  154.9770 C   0  0  0  0  0  2  0  0  0  0  0  0
  158.5910  211.8120  152.2200 C   0  0  0  0  0  2  0  0  0  0  0  0
  159.3060  210.8920  153.2290 C   0  0  1  0  0  3  0  0  0  0  0  0
  160.4140  210.0490  152.6530 C   0  0  0  0  0  2  0  0  0  0  0  0
  161.3470  209.7720  153.8390 C   0  0  2  0  0  3  0  0  0  0  0  0
  157.7410  212.8300  154.3460 C   0  0  1  0  0  3  0  0  0  0  0  0
  156.1610  214.4530  153.5370 C   0  0  0  0  0  2  0  0  0  0  0  0
  159.9810  211.6830  154.3280 C   0  0  1  0  0  3  0  0  0  0  0  0
  158.9630  212.4380  155.2130 C   0  0  2  0  0  3  0  0  0  0  0  0
  156.8420  214.4110  151.2310 O   0  0  0  0  0  1  0  0  0  0  0  0
  156.7460  213.6330  152.3850 C   0  0  1  0  0  3  0  0  0  0  0  0
  156.8810  213.9900  154.8070 C   0  0  1  0  0  3  0  0  0  0  0  0
  155.8740  214.2080  157.0750 O   0  0  0  0  0  1  0  0  0  0  0  0
  155.0930  212.6170  155.6240 O   0  0  0  0  0  0  0  0  0  0  0  0
  155.8970  213.5620  155.8470 C   0  0  0  0  0  0  0  0  0  0  0  0
  157.8110  210.5030  156.0820 O   0  0  0  0  0  1  0  0  0  0  0  0
  158.5240  211.6450  156.4480 C   0  0  0  0  0  2  0  0  0  0  0  0
  159.7930  214.1500  151.6640 C   0  0  0  0  0  1  0  0  0  0  0  0
  159.0940  214.1520  152.8820 O   0  0  0  0  0  0  0  0  0  0  0  0
  160.8240  206.4090  152.7810 C   0  0  0  0  0  3  0  0  0  0  0  0
  161.7160  207.1830  153.3920 C   0  0  0  0  0  3  0  0  0  0  0  0
  161.2530  205.2930  151.8900 C   0  0  0  0  0  2  0  0  0  0  0  0
  160.3470  205.2310  150.6700 C   0  0  0  0  0  2  0  0  0  0  0  0
  160.7900  204.1280  149.7210 C   0  0  2  0  0  3  0  0  0  0  0  0
  161.3740  203.0320  150.4770 N   0  0  0  0  0  2  0  0  0  0  0  0
  161.8170  202.0460  149.4990 C   0  0  0  0  0  2  0  0  0  0  0  0
  160.6400  201.3320  148.8440 C   0  0  2  0  0  3  0  0  0  0  0  0
  159.8650  200.5090  149.8560 C   0  0  0  0  0  1  0  0  0  0  0  0
  161.4550  199.7890  146.8180 C   0  0  0  0  0  3  0  0  0  0  0  0
  161.0850  200.4850  147.7310 C   0  0  0  0  0  0  0  0  0  0  0  0
  161.7620  204.6590  148.7730 N   0  0  0  0  0  2  0  0  0  0  0  0
  160.8980  205.3020  144.6710 C   0  0  0  0  0  3  0  0  0  0  0  0
  161.6560  203.8410  146.4480 C   0  0  0  0  0  3  0  0  0  0  0  0
  160.7170  206.3320  145.5960 C   0  0  0  0  0  3  0  0  0  0  0  0
  160.7950  207.2460  147.9090 C   0  0  0  0  0  1  0  0  0  0  0  0
  161.4810  204.8740  147.3840 C   0  0  0  0  0  0  0  0  0  0  0  0
  161.0050  206.1240  146.9500 C   0  0  0  0  0  0  0  0  0  0  0  0
  161.3680  204.0570  145.0950 C   0  0  0  0  0  3  0  0  0  0  0  0
  2  3  1  0  0  0  0
  2  1  1  0  0  0  0
  3  1  1  0  0  0  0
  4 23  1  6  0  0  0
  4 10  1  0  0  0  0
  6  4  1  0  0  0  0
  7  6  1  6  0  0  0
  7 12  1  0  0  0  0
  8  7  1  0  0  0  0
  9  8  1  6  0  0  0
  9  2  1  0  0  0  0
  9  5  1  0  0  0  0
 10 16  1  0  0  0  0
 10 13  1  0  0  0  0
 11 16  1  0  0  0  0
 12  5  1  0  0  0  0
 12 13  1  0  0  0  0
 13 21  1  0  0  0  0
 14 15  1  0  0  0  0
 15  4  1  0  0  0  0
 15 11  1  0  0  0  0
 16 19  1  0  0  0  0
 18 19  2  0  0  0  0
 19 17  1  0  0  0  0
 20 21  1  0  0  0  0
 22 23  1  0  0  0  0
 24 25  2  0  0  0  0
 25  2  1  0  0  0  0
 26 24  1  0  0  0  0
 27 26  1  0  0  0  0
 28 29  1  0  0  0  0
 28 27  1  0  0  0  0
 30 29  1  0  0  0  0
 31 30  1  0  0  0  0
 31 32  1  0  0  0  0
 33 34  3  0  0  0  0
 34 31  1  0  0  0  0
 35 28  1  0  0  0  0
 36 42  2  0  0  0  0
 36 38  1  0  0  0  0
 37 40  2  0  0  0  0
 38 41  2  0  0  0  0
 40 35  1  0  0  0  0
 41 40  1  0  0  0  0
 41 39  1  0  0  0  0
 42 37  1  0  0  0  0
M  END
>  <MODEL>
2

>  <REMARK>
 VINA RESULT:      -6.3      3.441      5.813
  Name = 
  14 active torsions:
  status: ('A' for Active; 'I' for Inactive)
    1  A    between atoms: C_1  and  O_41
    2  A    between atoms: C_3  and  C_14
    3  A    between atoms: C_3  and  C_20
    4  A    between atoms: C_6  and  C_29
    5  A    between atoms: C_6  and  C_40
    6  A    between atoms: C_9  and  C_13
    7  A    between atoms: C_9  and  C_17
    8  A    between atoms: C_17  and  C_34
    9  A    between atoms: N_18  and  C_29
   10  A    between atoms: N_18  and  C_34
   11  A    between atoms: C_24  and  C_37
   12  A    between atoms: C_28  and  C_31
   13  A    between atoms: C_32  and  N_35
   14  A    between atoms: C_34  and  N_35
                            x       y       z     vdW  Elec       q    Type
                         _______ _______ _______ _____ _____    ______ ____

>  <TORSDO>
F 14

$$$$
=
 OpenBabel11072411213D

 42 46  0  0  1  0  0  0  0  0999 V2000
  160.3690  210.5750  154.1730 C   0  0  0  0  0  2  0  0  0  0  0  0
  160.6650  210.3480  152.7080 C   0  0  0  0  0  0  0  0  0  0  0  0
  159.2330  210.4930  153.1630 C   0  0  0  0  0  2  0  0  0  0  0  0
  160.7650  213.1880  147.4930 C   0  0  2  0  0  0  0  0  0  0  0  0
  160.1050  212.5870  151.6730 C   0  0  0  0  0  2  0  0  0  0  0  0
  161.4740  211.9900  148.1930 C   0  0  0  0  0  2  0  0  0  0  0  0
  160.8580  211.6920  149.5740 C   0  0  1  0  0  3  0  0  0  0  0  0
  161.8210  211.1590  150.6030 C   0  0  0  0  0  2  0  0  0  0  0  0
  161.2100  211.5620  151.9510 C   0  0  2  0  0  3  0  0  0  0  0  0
  159.2960  213.2000  147.9180 C   0  0  1  0  0  3  0  0  0  0  0  0
  159.3830  213.8850  145.6140 C   0  0  0  0  0  2  0  0  0  0  0  0
  160.2910  212.9400  150.2160 C   0  0  1  0  0  3  0  0  0  0  0  0
  159.0930  213.5110  149.4220 C   0  0  2  0  0  3  0  0  0  0  0  0
  161.7190  213.4410  145.2560 O   0  0  0  0  0  1  0  0  0  0  0  0
  160.5980  213.0320  145.9800 C   0  0  1  0  0  3  0  0  0  0  0  0
  158.5810  214.0720  146.9050 C   0  0  1  0  0  3  0  0  0  0  0  0
  156.1320  214.4480  147.1690 O   0  0  0  0  0  1  0  0  0  0  0  0
  156.8940  212.5400  146.1550 O   0  0  0  0  0  0  0  0  0  0  0  0
  157.1630  213.6370  146.7150 C   0  0  0  0  0  0  0  0  0  0  0  0
  156.9460  214.0340  150.3920 O   0  0  0  0  0  1  0  0  0  0  0  0
  157.7370  212.9920  149.9080 C   0  0  0  0  0  2  0  0  0  0  0  0
  162.7380  214.3540  147.8920 C   0  0  0  0  0  1  0  0  0  0  0  0
  161.3370  214.4460  147.8460 O   0  0  0  0  0  0  0  0  0  0  0  0
  160.4460  207.9050  152.9190 C   0  0  0  0  0  3  0  0  0  0  0  0
  161.0520  208.9440  152.3500 C   0  0  0  0  0  3  0  0  0  0  0  0
  160.8190  206.5060  152.5630 C   0  0  0  0  0  2  0  0  0  0  0  0
  161.5070  206.4860  151.2070 C   0  0  0  0  0  2  0  0  0  0  0  0
  160.9750  205.3510  150.3450 C   0  0  2  0  0  3  0  0  0  0  0  0
  160.7290  204.1800  151.1700 N   0  0  0  0  0  2  0  0  0  0  0  0
  160.1740  203.1620  150.2870 C   0  0  0  0  0  2  0  0  0  0  0  0
  160.7670  201.7850  150.5680 C   0  0  2  0  0  3  0  0  0  0  0  0
  161.9470  201.8800  151.5170 C   0  0  0  0  0  1  0  0  0  0  0  0
  161.4850  200.5600  148.3030 C   0  0  0  0  0  3  0  0  0  0  0  0
  161.1630  201.1130  149.3260 C   0  0  0  0  0  0  0  0  0  0  0  0
  161.9410  205.0350  149.3000 N   0  0  0  0  0  2  0  0  0  0  0  0
  161.0060  205.1480  145.1640 C   0  0  0  0  0  3  0  0  0  0  0  0
  161.6010  203.8850  147.1440 C   0  0  0  0  0  3  0  0  0  0  0  0
  161.0350  206.3280  145.9100 C   0  0  0  0  0  3  0  0  0  0  0  0
  161.3620  207.5750  148.0380 C   0  0  0  0  0  1  0  0  0  0  0  0
  161.6350  205.0690  147.9000 C   0  0  0  0  0  0  0  0  0  0  0  0
  161.3460  206.2950  147.2740 C   0  0  0  0  0  0  0  0  0  0  0  0
  161.2900  203.9260  145.7800 C   0  0  0  0  0  3  0  0  0  0  0  0
  2  3  1  0  0  0  0
  2  1  1  0  0  0  0
  3  1  1  0  0  0  0
  4 23  1  1  0  0  0
  4 10  1  0  0  0  0
  4  6  1  0  0  0  0
  5  9  1  0  0  0  0
  7  6  1  6  0  0  0
  7 12  1  0  0  0  0
  7  8  1  0  0  0  0
  9  8  1  6  0  0  0
  9  2  1  0  0  0  0
 10 13  1  0  0  0  0
 11 15  1  0  0  0  0
 11 16  1  0  0  0  0
 12  5  1  0  0  0  0
 13 21  1  0  0  0  0
 13 12  1  0  0  0  0
 14 15  1  0  0  0  0
 15  4  1  0  0  0  0
 16 10  1  0  0  0  0
 18 19  2  0  0  0  0
 19 16  1  0  0  0  0
 19 17  1  0  0  0  0
 21 20  1  0  0  0  0
 23 22  1  0  0  0  0
 25  2  1  0  0  0  0
 25 24  2  0  0  0  0
 26 24  1  0  0  0  0
 27 26  1  0  0  0  0
 28 29  1  0  0  0  0
 28 27  1  0  0  0  0
 30 31  1  0  0  0  0
 30 29  1  0  0  0  0
 31 32  1  0  0  0  0
 33 34  3  0  0  0  0
 34 31  1  0  0  0  0
 35 28  1  0  0  0  0
 36 42  2  0  0  0  0
 36 38  1  0  0  0  0
 37 40  2  0  0  0  0
 38 41  2  0  0  0  0
 40 35  1  0  0  0  0
 41 40  1  0  0  0  0
 41 39  1  0  0  0  0
 42 37  1  0  0  0  0
M  END
>  <MODEL>
3

>  <REMARK>
 VINA RESULT:      -6.2      0.906      2.914
  Name = 
  14 active torsions:
  status: ('A' for Active; 'I' for Inactive)
    1  A    between atoms: C_1  and  O_41
    2  A    between atoms: C_3  and  C_14
    3  A    between atoms: C_3  and  C_20
    4  A    between atoms: C_6  and  C_29
    5  A    between atoms: C_6  and  C_40
    6  A    between atoms: C_9  and  C_13
    7  A    between atoms: C_9  and  C_17
    8  A    between atoms: C_17  and  C_34
    9  A    between atoms: N_18  and  C_29
   10  A    between atoms: N_18  and  C_34
   11  A    between atoms: C_24  and  C_37
   12  A    between atoms: C_28  and  C_31
   13  A    between atoms: C_32  and  N_35
   14  A    between atoms: C_34  and  N_35
                            x       y       z     vdW  Elec       q    Type
                         _______ _______ _______ _____ _____    ______ ____

>  <TORSDO>
F 14

$$$$
=
 OpenBabel11072411213D

 42 46  0  0  1  0  0  0  0  0999 V2000
  159.5920  213.8150  147.7730 C   0  0  0  0  0  2  0  0  0  0  0  0
  160.2420  213.2760  149.0260 C   0  0  0  0  0  0  0  0  0  0  0  0
  161.0130  214.2230  148.1380 C   0  0  0  0  0  2  0  0  0  0  0  0
  157.6240  212.1990  154.2470 C   0  0  2  0  0  0  0  0  0  0  0  0
  160.6490  213.4810  151.5140 C   0  0  0  0  0  2  0  0  0  0  0  0
  157.2260  212.4530  152.7630 C   0  0  0  0  0  2  0  0  0  0  0  0
  158.4630  212.5430  151.8480 C   0  0  1  0  0  3  0  0  0  0  0  0
  158.3220  213.4710  150.6700 C   0  0  0  0  0  2  0  0  0  0  0  0
  159.7580  213.8980  150.3390 C   0  0  2  0  0  3  0  0  0  0  0  0
  158.9050  211.3640  154.2710 C   0  0  1  0  0  3  0  0  0  0  0  0
  157.5390  210.6340  156.1110 C   0  0  0  0  0  2  0  0  0  0  0  0
  159.6710  213.0740  152.5900 C   0  0  1  0  0  3  0  0  0  0  0  0
  160.1380  212.1120  153.7070 C   0  0  2  0  0  3  0  0  0  0  0  0
  155.5770  211.9070  155.5510 O   0  0  0  0  0  1  0  0  0  0  0  0
  156.6850  211.2580  155.0060 C   0  0  1  0  0  3  0  0  0  0  0  0
  158.9970  210.7880  155.6700 C   0  0  1  0  0  3  0  0  0  0  0  0
  161.0380  209.4000  156.0120 O   0  0  0  0  0  1  0  0  0  0  0  0
  159.0760  208.4110  155.3630 O   0  0  0  0  0  0  0  0  0  0  0  0
  159.6940  209.4650  155.6730 C   0  0  0  0  0  0  0  0  0  0  0  0
  160.6420  210.0200  152.6140 O   0  0  0  0  0  1  0  0  0  0  0  0
  161.2140  211.1240  153.2480 C   0  0  0  0  0  2  0  0  0  0  0  0
  157.0860  214.4520  154.4510 C   0  0  0  0  0  1  0  0  0  0  0  0
  157.8720  213.4070  154.9630 O   0  0  0  0  0  0  0  0  0  0  0  0
  161.9780  211.5580  148.7180 C   0  0  0  0  0  3  0  0  0  0  0  0
  160.7000  211.8500  148.9390 C   0  0  0  0  0  3  0  0  0  0  0  0
  162.4420  210.1430  148.6370 C   0  0  0  0  0  2  0  0  0  0  0  0
  161.9470  209.3700  149.8490 C   0  0  0  0  0  2  0  0  0  0  0  0
  161.8230  207.8870  149.5330 C   0  0  2  0  0  3  0  0  0  0  0  0
  161.3880  207.7110  148.1570 N   0  0  0  0  0  2  0  0  0  0  0  0
  162.3880  206.8710  147.5110 C   0  0  0  0  0  2  0  0  0  0  0  0
  161.7930  206.0650  146.3620 C   0  0  2  0  0  3  0  0  0  0  0  0
  160.3370  206.4260  146.1350 C   0  0  0  0  0  1  0  0  0  0  0  0
  162.0420  203.4380  146.7940 C   0  0  0  0  0  3  0  0  0  0  0  0
  161.9310  204.6230  146.5980 C   0  0  0  0  0  0  0  0  0  0  0  0
  160.8670  207.2700  150.4440 N   0  0  0  0  0  2  0  0  0  0  0  0
  161.0490  203.1960  151.6100 C   0  0  0  0  0  3  0  0  0  0  0  0
  160.7660  204.8700  149.8830 C   0  0  0  0  0  3  0  0  0  0  0  0
  161.2050  204.2060  152.5620 C   0  0  0  0  0  3  0  0  0  0  0  0
  161.3180  206.6010  153.2240 C   0  0  0  0  0  1  0  0  0  0  0  0
  160.9180  205.8920  150.8350 C   0  0  0  0  0  0  0  0  0  0  0  0
  161.1420  205.5510  152.1810 C   0  0  0  0  0  0  0  0  0  0  0  0
  160.8280  203.5270  150.2700 C   0  0  0  0  0  3  0  0  0  0  0  0
  1  3  1  0  0  0  0
  1  2  1  0  0  0  0
  3  2  1  0  0  0  0
  4 10  1  0  0  0  0
  4 23  1  1  0  0  0
  4 15  1  0  0  0  0
  5 12  1  0  0  0  0
  6  4  1  0  0  0  0
  7  8  1  6  0  0  0
  7 12  1  0  0  0  0
  7  6  1  0  0  0  0
  9  2  1  6  0  0  0
  9  8  1  0  0  0  0
  9  5  1  0  0  0  0
 10 16  1  0  0  0  0
 12 13  1  0  0  0  0
 13 10  1  0  0  0  0
 15 14  1  0  0  0  0
 15 11  1  0  0  0  0
 16 19  1  0  0  0  0
 16 11  1  0  0  0  0
 18 19  2  0  0  0  0
 19 17  1  0  0  0  0
 20 21  1  0  0  0  0
 21 13  1  0  0  0  0
 22 23  1  0  0  0  0
 24 25  2  0  0  0  0
 25  2  1  0  0  0  0
 26 24  1  0  0  0  0
 26 27  1  0  0  0  0
 28 27  1  0  0  0  0
 28 35  1  0  0  0  0
 29 28  1  0  0  0  0
 30 29  1  0  0  0  0
 31 34  1  0  0  0  0
 31 30  1  0  0  0  0
 32 31  1  0  0  0  0
 34 33  3  0  0  0  0
 35 40  1  0  0  0  0
 36 38  1  0  0  0  0
 37 42  1  0  0  0  0
 37 40  2  0  0  0  0
 40 41  1  0  0  0  0
 41 38  2  0  0  0  0
 41 39  1  0  0  0  0
 42 36  2  0  0  0  0
M  END
>  <MODEL>
4

>  <REMARK>
 VINA RESULT:      -6.1      3.067      6.129
  Name = 
  14 active torsions:
  status: ('A' for Active; 'I' for Inactive)
    1  A    between atoms: C_1  and  O_41
    2  A    between atoms: C_3  and  C_14
    3  A    between atoms: C_3  and  C_20
    4  A    between atoms: C_6  and  C_29
    5  A    between atoms: C_6  and  C_40
    6  A    between atoms: C_9  and  C_13
    7  A    between atoms: C_9  and  C_17
    8  A    between atoms: C_17  and  C_34
    9  A    between atoms: N_18  and  C_29
   10  A    between atoms: N_18  and  C_34
   11  A    between atoms: C_24  and  C_37
   12  A    between atoms: C_28  and  C_31
   13  A    between atoms: C_32  and  N_35
   14  A    between atoms: C_34  and  N_35
                            x       y       z     vdW  Elec       q    Type
                         _______ _______ _______ _____ _____    ______ ____

>  <TORSDO>
F 14

$$$$
=
 OpenBabel11072411213D

 42 46  0  0  1  0  0  0  0  0999 V2000
  161.5540  207.7870  155.1560 C   0  0  0  0  0  2  0  0  0  0  0  0
  161.2650  208.0600  153.6980 C   0  0  0  0  0  0  0  0  0  0  0  0
  160.1250  207.7350  154.6320 C   0  0  0  0  0  2  0  0  0  0  0  0
  158.1490  213.0600  152.9480 C   0  0  2  0  0  0  0  0  0  0  0  0
  161.1760  210.4620  154.4830 C   0  0  0  0  0  2  0  0  0  0  0  0
  158.4550  211.7390  152.1810 C   0  0  0  0  0  2  0  0  0  0  0  0
  159.2800  210.7590  153.0380 C   0  0  1  0  0  3  0  0  0  0  0  0
  160.2330  209.8820  152.2690 C   0  0  0  0  0  2  0  0  0  0  0  0
  161.3350  209.5300  153.2770 C   0  0  2  0  0  3  0  0  0  0  0  0
  158.0220  212.7380  154.4380 C   0  0  1  0  0  3  0  0  0  0  0  0
  156.4130  214.4530  153.9350 C   0  0  0  0  0  2  0  0  0  0  0  0
  160.1680  211.4890  154.0230 C   0  0  1  0  0  3  0  0  0  0  0  0
  159.3500  212.2660  155.0800 C   0  0  2  0  0  3  0  0  0  0  0  0
  156.6980  214.4410  151.5470 O   0  0  0  0  0  1  0  0  0  0  0  0
  156.7560  213.6390  152.6870 C   0  0  1  0  0  3  0  0  0  0  0  0
  157.3110  213.9240  155.0570 C   0  0  1  0  0  3  0  0  0  0  0  0
  156.2600  214.4260  157.2600 O   0  0  0  0  0  1  0  0  0  0  0  0
  156.0200  212.3490  156.3240 O   0  0  0  0  0  0  0  0  0  0  0  0
  156.4920  213.5140  156.2400 C   0  0  0  0  0  0  0  0  0  0  0  0
  160.1780  211.5150  157.2200 O   0  0  0  0  0  1  0  0  0  0  0  0
  159.0840  211.4620  156.3560 C   0  0  0  0  0  2  0  0  0  0  0  0
  159.3740  214.3300  151.4340 C   0  0  0  0  0  1  0  0  0  0  0  0
  159.1770  214.0340  152.7930 O   0  0  0  0  0  0  0  0  0  0  0  0
  161.1840  205.7070  152.9780 C   0  0  0  0  0  3  0  0  0  0  0  0
  161.6230  206.9430  152.7620 C   0  0  0  0  0  3  0  0  0  0  0  0
  161.5290  204.5930  152.0480 C   0  0  0  0  0  2  0  0  0  0  0  0
  160.7510  204.7470  150.7510 C   0  0  0  0  0  2  0  0  0  0  0  0
  161.3990  203.9460  149.6310 C   0  0  2  0  0  3  0  0  0  0  0  0
  161.7240  204.8260  148.5210 N   0  0  0  0  0  2  0  0  0  0  0  0
  160.5570  205.6730  148.3090 C   0  0  0  0  0  2  0  0  0  0  0  0
  160.9100  206.9410  147.5390 C   0  0  2  0  0  3  0  0  0  0  0  0
  161.7770  206.6270  146.3340 C   0  0  0  0  0  1  0  0  0  0  0  0
  162.1200  208.7250  149.1200 C   0  0  0  0  0  3  0  0  0  0  0  0
  161.5740  207.9210  148.4050 C   0  0  0  0  0  0  0  0  0  0  0  0
  160.4900  202.8960  149.1900 N   0  0  0  0  0  2  0  0  0  0  0  0
  161.2180  200.4560  145.7980 C   0  0  0  0  0  3  0  0  0  0  0  0
  160.6060  202.6010  146.7440 C   0  0  0  0  0  3  0  0  0  0  0  0
  161.3420  199.9260  147.0840 C   0  0  0  0  0  3  0  0  0  0  0  0
  161.2470  200.1280  149.5620 C   0  0  0  0  0  1  0  0  0  0  0  0
  160.7250  202.0730  148.0400 C   0  0  0  0  0  0  0  0  0  0  0  0
  161.1000  200.7270  148.2050 C   0  0  0  0  0  0  0  0  0  0  0  0
  160.8490  201.7930  145.6270 C   0  0  0  0  0  3  0  0  0  0  0  0
  2  3  1  0  0  0  0
  2  1  1  0  0  0  0
  3  1  1  0  0  0  0
  4 23  1  6  0  0  0
  4 10  1  0  0  0  0
  6  4  1  0  0  0  0
  7  6  1  6  0  0  0
  7 12  1  0  0  0  0
  8  7  1  0  0  0  0
  9  8  1  6  0  0  0
  9  2  1  0  0  0  0
  9  5  1  0  0  0  0
 10 16  1  0  0  0  0
 10 13  1  0  0  0  0
 11 16  1  0  0  0  0
 12  5  1  0  0  0  0
 12 13  1  0  0  0  0
 13 21  1  0  0  0  0
 14 15  1  0  0  0  0
 15  4  1  0  0  0  0
 15 11  1  0  0  0  0
 16 19  1  0  0  0  0
 19 18  2  0  0  0  0
 19 17  1  0  0  0  0
 21 20  1  0  0  0  0
 22 23  1  0  0  0  0
 25 24  2  0  0  0  0
 25  2  1  0  0  0  0
 26 24  1  0  0  0  0
 27 26  1  0  0  0  0
 28 27  1  0  0  0  0
 29 28  1  0  0  0  0
 30 29  1  0  0  0  0
 31 30  1  0  0  0  0
 31 34  1  0  0  0  0
 32 31  1  0  0  0  0
 34 33  3  0  0  0  0
 35 28  1  0  0  0  0
 36 38  1  0  0  0  0
 37 40  2  0  0  0  0
 38 41  2  0  0  0  0
 40 41  1  0  0  0  0
 40 35  1  0  0  0  0
 41 39  1  0  0  0  0
 42 36  2  0  0  0  0
 42 37  1  0  0  0  0
M  END
>  <MODEL>
5

>  <REMARK>
 VINA RESULT:      -5.9      3.358      5.447
  Name = 
  14 active torsions:
  status: ('A' for Active; 'I' for Inactive)
    1  A    between atoms: C_1  and  O_41
    2  A    between atoms: C_3  and  C_14
    3  A    between atoms: C_3  and  C_20
    4  A    between atoms: C_6  and  C_29
    5  A    between atoms: C_6  and  C_40
    6  A    between atoms: C_9  and  C_13
    7  A    between atoms: C_9  and  C_17
    8  A    between atoms: C_17  and  C_34
    9  A    between atoms: N_18  and  C_29
   10  A    between atoms: N_18  and  C_34
   11  A    between atoms: C_24  and  C_37
   12  A    between atoms: C_28  and  C_31
   13  A    between atoms: C_32  and  N_35
   14  A    between atoms: C_34  and  N_35
                            x       y       z     vdW  Elec       q    Type
                         _______ _______ _______ _____ _____    ______ ____

>  <TORSDO>
F 14

$$$$
=
 OpenBabel11072411213D

 42 46  0  0  1  0  0  0  0  0999 V2000
  161.5040  207.6490  153.3770 C   0  0  0  0  0  2  0  0  0  0  0  0
  161.9080  207.4090  151.9400 C   0  0  0  0  0  0  0  0  0  0  0  0
  160.4700  207.7340  152.2620 C   0  0  0  0  0  2  0  0  0  0  0  0
  161.4970  212.0610  148.2700 C   0  0  2  0  0  0  0  0  0  0  0  0
  162.2910  209.9090  151.8760 C   0  0  0  0  0  2  0  0  0  0  0  0
  161.6550  210.5130  148.1930 C   0  0  0  0  0  2  0  0  0  0  0  0
  161.5660  209.8610  149.5860 C   0  0  1  0  0  3  0  0  0  0  0  0
  162.3990  208.6180  149.7660 C   0  0  0  0  0  2  0  0  0  0  0  0
  162.6770  208.5530  151.2730 C   0  0  2  0  0  3  0  0  0  0  0  0
  160.5650  212.3970  149.4350 C   0  0  1  0  0  3  0  0  0  0  0  0
  160.1090  213.9700  147.6740 C   0  0  0  0  0  2  0  0  0  0  0  0
  162.0580  210.7920  150.6730 C   0  0  1  0  0  3  0  0  0  0  0  0
  161.1600  212.0420  150.8210 C   0  0  2  0  0  3  0  0  0  0  0  0
  161.4840  212.9440  145.9900 O   0  0  0  0  0  1  0  0  0  0  0  0
  160.7030  212.6770  147.1150 C   0  0  1  0  0  3  0  0  0  0  0  0
  160.1060  213.8220  149.1990 C   0  0  1  0  0  3  0  0  0  0  0  0
  158.5850  214.3950  151.0870 O   0  0  0  0  0  1  0  0  0  0  0  0
  157.7170  213.9330  149.0180 O   0  0  0  0  0  0  0  0  0  0  0  0
  158.7350  214.0530  149.7500 C   0  0  0  0  0  0  0  0  0  0  0  0
  160.5070  212.2180  153.1380 O   0  0  0  0  0  1  0  0  0  0  0  0
  160.0520  211.8760  151.8640 C   0  0  0  0  0  2  0  0  0  0  0  0
  163.7820  212.0530  147.8360 C   0  0  0  0  0  1  0  0  0  0  0  0
  162.7370  212.7280  148.4890 O   0  0  0  0  0  0  0  0  0  0  0  0
  161.1400  205.0990  151.5770 C   0  0  0  0  0  3  0  0  0  0  0  0
  162.1420  205.9720  151.5790 C   0  0  0  0  0  3  0  0  0  0  0  0
  161.3630  203.6700  151.2120 C   0  0  0  0  0  2  0  0  0  0  0  0
  160.5030  203.3060  150.0120 C   0  0  0  0  0  2  0  0  0  0  0  0
  161.3570  203.1320  148.7650 C   0  0  2  0  0  3  0  0  0  0  0  0
  161.9700  204.4010  148.4080 N   0  0  0  0  0  2  0  0  0  0  0  0
  162.1900  204.3620  146.9680 C   0  0  0  0  0  2  0  0  0  0  0  0
  162.0320  205.7390  146.3340 C   0  0  2  0  0  3  0  0  0  0  0  0
  161.0840  206.6080  147.1390 C   0  0  0  0  0  1  0  0  0  0  0  0
  161.1970  205.5540  143.8010 C   0  0  0  0  0  3  0  0  0  0  0  0
  161.5750  205.6360  144.9440 C   0  0  0  0  0  0  0  0  0  0  0  0
  160.5280  202.6480  147.6680 N   0  0  0  0  0  2  0  0  0  0  0  0
  161.2760  199.0580  145.5360 C   0  0  0  0  0  3  0  0  0  0  0  0
  161.4750  200.3730  147.5610 C   0  0  0  0  0  3  0  0  0  0  0  0
  160.5930  200.1110  144.9220 C   0  0  0  0  0  3  0  0  0  0  0  0
  159.6110  202.3970  144.9350 C   0  0  0  0  0  1  0  0  0  0  0  0
  160.7920  201.4370  146.9490 C   0  0  0  0  0  0  0  0  0  0  0  0
  160.3470  201.2980  145.6220 C   0  0  0  0  0  0  0  0  0  0  0  0
  161.7180  199.1890  146.8550 C   0  0  0  0  0  3  0  0  0  0  0  0
  2  3  1  0  0  0  0
  2  1  1  0  0  0  0
  3  1  1  0  0  0  0
  4 23  1  1  0  0  0
  4 10  1  0  0  0  0
  6  4  1  0  0  0  0
  7  6  1  6  0  0  0
  7  8  1  0  0  0  0
  7 12  1  0  0  0  0
  9  8  1  6  0  0  0
  9  5  1  0  0  0  0
  9  2  1  0  0  0  0
 10 13  1  0  0  0  0
 11 16  1  0  0  0  0
 12 13  1  0  0  0  0
 12  5  1  0  0  0  0
 13 21  1  0  0  0  0
 14 15  1  0  0  0  0
 15 11  1  0  0  0  0
 15  4  1  0  0  0  0
 16 10  1  0  0  0  0
 16 19  1  0  0  0  0
 18 19  2  0  0  0  0
 19 17  1  0  0  0  0
 21 20  1  0  0  0  0
 22 23  1  0  0  0  0
 24 25  2  0  0  0  0
 25  2  1  0  0  0  0
 26 24  1  0  0  0  0
 27 26  1  0  0  0  0
 28 27  1  0  0  0  0
 29 28  1  0  0  0  0
 30 29  1  0  0  0  0
 31 30  1  0  0  0  0
 31 32  1  0  0  0  0
 33 34  3  0  0  0  0
 34 31  1  0  0  0  0
 35 28  1  0  0  0  0
 36 42  1  0  0  0  0
 38 36  2  0  0  0  0
 38 41  1  0  0  0  0
 39 41  1  0  0  0  0
 40 37  1  0  0  0  0
 40 35  1  0  0  0  0
 41 40  2  0  0  0  0
 42 37  2  0  0  0  0
M  END
>  <MODEL>
6

>  <REMARK>
 VINA RESULT:      -5.7      1.968      3.395
  Name = 
  14 active torsions:
  status: ('A' for Active; 'I' for Inactive)
    1  A    between atoms: C_1  and  O_41
    2  A    between atoms: C_3  and  C_14
    3  A    between atoms: C_3  and  C_20
    4  A    between atoms: C_6  and  C_29
    5  A    between atoms: C_6  and  C_40
    6  A    between atoms: C_9  and  C_13
    7  A    between atoms: C_9  and  C_17
    8  A    between atoms: C_17  and  C_34
    9  A    between atoms: N_18  and  C_29
   10  A    between atoms: N_18  and  C_34
   11  A    between atoms: C_24  and  C_37
   12  A    between atoms: C_28  and  C_31
   13  A    between atoms: C_32  and  N_35
   14  A    between atoms: C_34  and  N_35
                            x       y       z     vdW  Elec       q    Type
                         _______ _______ _______ _____ _____    ______ ____

>  <TORSDO>
F 14

$$$$
=
 OpenBabel11072411213D

 42 46  0  0  1  0  0  0  0  0999 V2000
  161.8140  207.6750  153.3460 C   0  0  0  0  0  2  0  0  0  0  0  0
  161.5300  208.8060  152.3850 C   0  0  0  0  0  0  0  0  0  0  0  0
  160.4690  207.7630  152.6380 C   0  0  0  0  0  2  0  0  0  0  0  0
  157.2820  212.6350  153.9870 C   0  0  2  0  0  0  0  0  0  0  0  0
  160.6170  209.9970  154.4200 C   0  0  0  0  0  2  0  0  0  0  0  0
  158.0840  212.2340  152.7130 C   0  0  0  0  0  2  0  0  0  0  0  0
  158.9960  211.0190  152.9720 C   0  0  1  0  0  3  0  0  0  0  0  0
  160.2790  211.0020  152.1830 C   0  0  0  0  0  2  0  0  0  0  0  0
  161.2440  210.1640  153.0320 C   0  0  2  0  0  3  0  0  0  0  0  0
  156.9980  211.3710  154.8010 C   0  0  1  0  0  3  0  0  0  0  0  0
  155.0750  212.8010  155.0020 C   0  0  0  0  0  2  0  0  0  0  0  0
  159.4510  210.9580  154.4140 C   0  0  1  0  0  3  0  0  0  0  0  0
  158.2740  210.7180  155.3880 C   0  0  2  0  0  3  0  0  0  0  0  0
  155.7590  214.4530  153.3940 O   0  0  0  0  0  1  0  0  0  0  0  0
  155.8490  213.0990  153.7170 C   0  0  1  0  0  3  0  0  0  0  0  0
  155.8790  211.7370  155.7550 C   0  0  1  0  0  3  0  0  0  0  0  0
  154.2280  210.5680  157.2100 O   0  0  0  0  0  1  0  0  0  0  0  0
  155.0200  209.5390  155.3230 O   0  0  0  0  0  0  0  0  0  0  0  0
  155.0230  210.5530  156.0720 C   0  0  0  0  0  0  0  0  0  0  0  0
  159.2190  208.6100  156.0890 O   0  0  0  0  0  1  0  0  0  0  0  0
  158.0350  209.2380  155.7010 C   0  0  0  0  0  2  0  0  0  0  0  0
  159.0560  214.1340  154.1120 C   0  0  0  0  0  1  0  0  0  0  0  0
  157.9960  213.5450  154.8200 O   0  0  0  0  0  0  0  0  0  0  0  0
  161.5790  208.0960  150.0280 C   0  0  0  0  0  3  0  0  0  0  0  0
  162.1990  208.6840  151.0470 C   0  0  0  0  0  3  0  0  0  0  0  0
  162.2340  207.9770  148.6930 C   0  0  0  0  0  2  0  0  0  0  0  0
  162.8300  206.5870  148.5350 C   0  0  0  0  0  2  0  0  0  0  0  0
  161.9960  205.7440  147.5830 C   0  0  2  0  0  3  0  0  0  0  0  0
  161.4510  206.5840  146.5300 N   0  0  0  0  0  2  0  0  0  0  0  0
  160.5400  205.7450  145.7620 C   0  0  0  0  0  2  0  0  0  0  0  0
  161.2910  204.7330  144.9030 C   0  0  2  0  0  3  0  0  0  0  0  0
  161.3890  205.2020  143.4630 C   0  0  0  0  0  1  0  0  0  0  0  0
  160.1420  202.3220  145.0170 C   0  0  0  0  0  3  0  0  0  0  0  0
  160.6610  203.4100  144.9670 C   0  0  0  0  0  0  0  0  0  0  0  0
  160.9180  205.0970  148.3190 N   0  0  0  0  0  2  0  0  0  0  0  0
  161.3730  201.4010  150.3500 C   0  0  0  0  0  3  0  0  0  0  0  0
  161.2080  202.6470  148.2800 C   0  0  0  0  0  3  0  0  0  0  0  0
  161.2310  202.5870  151.0740 C   0  0  0  0  0  3  0  0  0  0  0  0
  160.9340  205.0530  151.2130 C   0  0  0  0  0  1  0  0  0  0  0  0
  161.0620  203.8440  149.0000 C   0  0  0  0  0  0  0  0  0  0  0  0
  161.0770  203.8080  150.4070 C   0  0  0  0  0  0  0  0  0  0  0  0
  161.3600  201.4290  148.9530 C   0  0  0  0  0  3  0  0  0  0  0  0
  2  3  1  0  0  0  0
  2  9  1  0  0  0  0
  2  1  1  0  0  0  0
  3  1  1  0  0  0  0
  4 10  1  0  0  0  0
  4 23  1  1  0  0  0
  6  7  1  0  0  0  0
  6  4  1  0  0  0  0
  7  8  1  6  0  0  0
  7 12  1  0  0  0  0
  9  8  1  6  0  0  0
  9  5  1  0  0  0  0
 10 13  1  0  0  0  0
 10 16  1  0  0  0  0
 11 16  1  0  0  0  0
 12  5  1  0  0  0  0
 12 13  1  0  0  0  0
 13 21  1  0  0  0  0
 14 15  1  0  0  0  0
 15  4  1  0  0  0  0
 15 11  1  0  0  0  0
 16 19  1  0  0  0  0
 18 19  2  0  0  0  0
 19 17  1  0  0  0  0
 21 20  1  0  0  0  0
 22 23  1  0  0  0  0
 24 25  2  0  0  0  0
 25  2  1  0  0  0  0
 26 24  1  0  0  0  0
 27 26  1  0  0  0  0
 28 35  1  0  0  0  0
 28 27  1  0  0  0  0
 29 28  1  0  0  0  0
 30 29  1  0  0  0  0
 31 34  1  0  0  0  0
 31 30  1  0  0  0  0
 32 31  1  0  0  0  0
 34 33  3  0  0  0  0
 35 40  1  0  0  0  0
 36 38  1  0  0  0  0
 37 42  1  0  0  0  0
 37 40  2  0  0  0  0
 40 41  1  0  0  0  0
 41 38  2  0  0  0  0
 41 39  1  0  0  0  0
 42 36  2  0  0  0  0
M  END
>  <MODEL>
7

>  <REMARK>
 VINA RESULT:      -5.4      4.070      5.848
  Name = 
  14 active torsions:
  status: ('A' for Active; 'I' for Inactive)
    1  A    between atoms: C_1  and  O_41
    2  A    between atoms: C_3  and  C_14
    3  A    between atoms: C_3  and  C_20
    4  A    between atoms: C_6  and  C_29
    5  A    between atoms: C_6  and  C_40
    6  A    between atoms: C_9  and  C_13
    7  A    between atoms: C_9  and  C_17
    8  A    between atoms: C_17  and  C_34
    9  A    between atoms: N_18  and  C_29
   10  A    between atoms: N_18  and  C_34
   11  A    between atoms: C_24  and  C_37
   12  A    between atoms: C_28  and  C_31
   13  A    between atoms: C_32  and  N_35
   14  A    between atoms: C_34  and  N_35
                            x       y       z     vdW  Elec       q    Type
                         _______ _______ _______ _____ _____    ______ ____

>  <TORSDO>
F 14

$$$$
=
 OpenBabel11072411213D

 42 46  0  0  1  0  0  0  0  0999 V2000
  161.4360  206.7480  152.9090 C   0  0  0  0  0  2  0  0  0  0  0  0
  161.6070  207.8790  151.9210 C   0  0  0  0  0  0  0  0  0  0  0  0
  162.7640  206.9490  152.1920 C   0  0  0  0  0  2  0  0  0  0  0  0
  161.5510  204.5820  146.9810 C   0  0  2  0  0  0  0  0  0  0  0  0
  160.0730  206.4060  150.5520 C   0  0  0  0  0  2  0  0  0  0  0  0
  162.3390  205.7830  147.5840 C   0  0  0  0  0  2  0  0  0  0  0  0
  161.9040  206.0810  149.0320 C   0  0  1  0  0  3  0  0  0  0  0  0
  161.9750  207.5300  149.4370 C   0  0  0  0  0  2  0  0  0  0  0  0
  160.9390  207.6710  150.5590 C   0  0  2  0  0  3  0  0  0  0  0  0
  161.2160  203.6040  148.1090 C   0  0  1  0  0  3  0  0  0  0  0  0
  161.6970  202.2990  146.1470 C   0  0  0  0  0  2  0  0  0  0  0  0
  160.4580  205.7040  149.2710 C   0  0  1  0  0  3  0  0  0  0  0  0
  160.2230  204.1810  149.1480 C   0  0  2  0  0  3  0  0  0  0  0  0
  162.4540  204.1100  144.7590 O   0  0  0  0  0  1  0  0  0  0  0  0
  162.3810  203.6650  146.0790 C   0  0  1  0  0  3  0  0  0  0  0  0
  160.8610  202.2970  147.4300 C   0  0  1  0  0  3  0  0  0  0  0  0
  162.4840  200.5750  148.2110 O   0  0  0  0  0  0  0  0  0  0  0  0
  160.3620  200.6220  149.0730 O   0  0  0  0  0  1  0  0  0  0  0  0
  161.2110  201.1230  148.2880 C   0  0  0  0  0  0  0  0  0  0  0  0
  161.5750  203.6720  151.0820 O   0  0  0  0  0  1  0  0  0  0  0  0
  160.3370  203.4380  150.4820 C   0  0  0  0  0  2  0  0  0  0  0  0
  160.4610  206.2550  145.7900 C   0  0  0  0  0  1  0  0  0  0  0  0
  160.3290  204.9820  146.3660 O   0  0  0  0  0  0  0  0  0  0  0  0
  160.6940  209.9590  152.8700 C   0  0  0  0  0  3  0  0  0  0  0  0
  161.7610  209.2390  152.5350 C   0  0  0  0  0  3  0  0  0  0  0  0
  160.8390  211.3080  153.4880 C   0  0  0  0  0  2  0  0  0  0  0  0
  159.6220  211.6140  154.3470 C   0  0  0  0  0  2  0  0  0  0  0  0
  159.9890  212.5350  155.5010 C   0  0  2  0  0  3  0  0  0  0  0  0
  159.9250  211.8040  156.7550 N   0  0  0  0  0  2  0  0  0  0  0  0
  159.4940  210.4520  156.4240 C   0  0  0  0  0  2  0  0  0  0  0  0
  160.4370  209.4010  156.9990 C   0  0  2  0  0  3  0  0  0  0  0  0
  161.8820  209.7190  156.6640 C   0  0  0  0  0  1  0  0  0  0  0  0
  159.7970  206.9530  156.1360 C   0  0  0  0  0  3  0  0  0  0  0  0
  160.0870  208.0570  156.5270 C   0  0  0  0  0  0  0  0  0  0  0  0
  159.0730  213.6690  155.5320 N   0  0  0  0  0  2  0  0  0  0  0  0
  155.7650  214.0610  152.9060 C   0  0  0  0  0  3  0  0  0  0  0  0
  158.1320  214.3270  153.3480 C   0  0  0  0  0  3  0  0  0  0  0  0
  155.5840  213.5460  154.1910 C   0  0  0  0  0  3  0  0  0  0  0  0
  156.4420  212.8590  156.4240 C   0  0  0  0  0  1  0  0  0  0  0  0
  157.9570  213.8130  154.6440 C   0  0  0  0  0  0  0  0  0  0  0  0
  156.6730  213.4180  155.0620 C   0  0  0  0  0  0  0  0  0  0  0  0
  157.0390  214.4530  152.4840 C   0  0  0  0  0  3  0  0  0  0  0  0
  2  3  1  0  0  0  0
  2 25  1  0  0  0  0
  2  1  1  0  0  0  0
  3  1  1  0  0  0  0
  4 23  1  6  0  0  0
  4  6  1  0  0  0  0
  4 10  1  0  0  0  0
  5  9  1  0  0  0  0
  7  6  1  6  0  0  0
  7 12  1  0  0  0  0
  7  8  1  0  0  0  0
  9  8  1  6  0  0  0
  9  2  1  0  0  0  0
 10 13  1  0  0  0  0
 11 16  1  0  0  0  0
 12  5  1  0  0  0  0
 13 12  1  0  0  0  0
 13 21  1  0  0  0  0
 14 15  1  0  0  0  0
 15 11  1  0  0  0  0
 15  4  1  0  0  0  0
 16 10  1  0  0  0  0
 16 19  1  0  0  0  0
 17 19  2  0  0  0  0
 19 18  1  0  0  0  0
 21 20  1  0  0  0  0
 22 23  1  0  0  0  0
 24 26  1  0  0  0  0
 25 24  2  0  0  0  0
 26 27  1  0  0  0  0
 27 28  1  0  0  0  0
 28 35  1  0  0  0  0
 28 29  1  0  0  0  0
 30 29  1  0  0  0  0
 30 31  1  0  0  0  0
 32 31  1  0  0  0  0
 33 34  3  0  0  0  0
 34 31  1  0  0  0  0
 36 38  1  0  0  0  0
 37 40  2  0  0  0  0
 38 41  2  0  0  0  0
 40 41  1  0  0  0  0
 40 35  1  0  0  0  0
 41 39  1  0  0  0  0
 42 36  2  0  0  0  0
 42 37  1  0  0  0  0
M  END
>  <MODEL>
8

>  <REMARK>
 VINA RESULT:      -5.3      5.033      9.829
  Name = 
  14 active torsions:
  status: ('A' for Active; 'I' for Inactive)
    1  A    between atoms: C_1  and  O_41
    2  A    between atoms: C_3  and  C_14
    3  A    between atoms: C_3  and  C_20
    4  A    between atoms: C_6  and  C_29
    5  A    between atoms: C_6  and  C_40
    6  A    between atoms: C_9  and  C_13
    7  A    between atoms: C_9  and  C_17
    8  A    between atoms: C_17  and  C_34
    9  A    between atoms: N_18  and  C_29
   10  A    between atoms: N_18  and  C_34
   11  A    between atoms: C_24  and  C_37
   12  A    between atoms: C_28  and  C_31
   13  A    between atoms: C_32  and  N_35
   14  A    between atoms: C_34  and  N_35
                            x       y       z     vdW  Elec       q    Type
                         _______ _______ _______ _____ _____    ______ ____

>  <TORSDO>
F 14

$$$$
=
 OpenBabel11072411213D

 42 46  0  0  1  0  0  0  0  0999 V2000
  161.7540  206.7830  152.6370 C   0  0  0  0  0  2  0  0  0  0  0  0
  161.6550  207.9950  151.7390 C   0  0  0  0  0  0  0  0  0  0  0  0
  162.9810  207.2900  151.8900 C   0  0  0  0  0  2  0  0  0  0  0  0
  161.5210  204.6000  146.8680 C   0  0  2  0  0  0  0  0  0  0  0  0
  160.0970  206.5010  150.4210 C   0  0  0  0  0  2  0  0  0  0  0  0
  162.3220  205.8100  147.4360 C   0  0  0  0  0  2  0  0  0  0  0  0
  161.9070  206.1390  148.8840 C   0  0  1  0  0  3  0  0  0  0  0  0
  161.9880  207.5960  149.2580 C   0  0  0  0  0  2  0  0  0  0  0  0
  160.9680  207.7620  150.3910 C   0  0  2  0  0  3  0  0  0  0  0  0
  161.1990  203.6470  148.0200 C   0  0  1  0  0  3  0  0  0  0  0  0
  161.6490  202.3010  146.0780 C   0  0  0  0  0  2  0  0  0  0  0  0
  160.4630  205.7720  149.1490 C   0  0  1  0  0  3  0  0  0  0  0  0
  160.2220  204.2480  149.0600 C   0  0  2  0  0  3  0  0  0  0  0  0
  162.3930  204.0810  144.6440 O   0  0  0  0  0  1  0  0  0  0  0  0
  162.3360  203.6630  145.9740 C   0  0  1  0  0  3  0  0  0  0  0  0
  160.8300  202.3270  147.3720 C   0  0  1  0  0  3  0  0  0  0  0  0
  160.4730  200.9490  149.4170 O   0  0  0  0  0  1  0  0  0  0  0  0
  162.1350  200.3970  147.9410 O   0  0  0  0  0  0  0  0  0  0  0  0
  161.1880  201.1690  148.2480 C   0  0  0  0  0  0  0  0  0  0  0  0
  161.6540  203.6190  150.8990 O   0  0  0  0  0  1  0  0  0  0  0  0
  160.3510  203.5310  150.4080 C   0  0  0  0  0  2  0  0  0  0  0  0
  160.4540  206.1930  145.5510 C   0  0  0  0  0  1  0  0  0  0  0  0
  160.2920  204.9920  146.2620 O   0  0  0  0  0  0  0  0  0  0  0  0
  160.5310  210.1130  152.2990 C   0  0  0  0  0  3  0  0  0  0  0  0
  161.5790  209.3100  152.4570 C   0  0  0  0  0  3  0  0  0  0  0  0
  160.4450  211.4180  153.0140 C   0  0  0  0  0  2  0  0  0  0  0  0
  159.0450  211.9940  152.8670 C   0  0  0  0  0  2  0  0  0  0  0  0
  158.9780  213.4080  153.4250 C   0  0  2  0  0  3  0  0  0  0  0  0
  157.8130  213.5450  154.2830 N   0  0  0  0  0  2  0  0  0  0  0  0
  157.2230  212.2160  154.3940 C   0  0  0  0  0  2  0  0  0  0  0  0
  157.1720  211.7400  155.8410 C   0  0  2  0  0  3  0  0  0  0  0  0
  156.8800  212.8900  156.7870 C   0  0  0  0  0  1  0  0  0  0  0  0
  159.4420  210.5140  156.5420 C   0  0  0  0  0  3  0  0  0  0  0  0
  158.4180  211.0670  156.2240 C   0  0  0  0  0  0  0  0  0  0  0  0
  158.9100  214.3650  152.3280 N   0  0  0  0  0  2  0  0  0  0  0  0
  156.6630  213.7560  148.7820 C   0  0  0  0  0  3  0  0  0  0  0  0
  156.7450  214.2720  151.1470 C   0  0  0  0  0  3  0  0  0  0  0  0
  158.0550  213.6360  148.7610 C   0  0  0  0  0  3  0  0  0  0  0  0
  160.2820  213.7020  149.8670 C   0  0  0  0  0  1  0  0  0  0  0  0
  158.1450  214.1500  151.1350 C   0  0  0  0  0  0  0  0  0  0  0  0
  158.7990  213.8330  149.9300 C   0  0  0  0  0  0  0  0  0  0  0  0
  156.0080  214.0730  149.9740 C   0  0  0  0  0  3  0  0  0  0  0  0
  2  3  1  0  0  0  0
  2 25  1  0  0  0  0
  2  1  1  0  0  0  0
  3  1  1  0  0  0  0
  4 23  1  6  0  0  0
  4  6  1  0  0  0  0
  4 10  1  0  0  0  0
  7  6  1  6  0  0  0
  7 12  1  0  0  0  0
  7  8  1  0  0  0  0
  9  8  1  6  0  0  0
  9  5  1  0  0  0  0
  9  2  1  0  0  0  0
 10 13  1  0  0  0  0
 11 16  1  0  0  0  0
 12  5  1  0  0  0  0
 13 12  1  0  0  0  0
 13 21  1  0  0  0  0
 14 15  1  0  0  0  0
 15 11  1  0  0  0  0
 15  4  1  0  0  0  0
 16 10  1  0  0  0  0
 16 19  1  0  0  0  0
 18 19  2  0  0  0  0
 19 17  1  0  0  0  0
 21 20  1  0  0  0  0
 22 23  1  0  0  0  0
 24 25  2  0  0  0  0
 24 26  1  0  0  0  0
 27 26  1  0  0  0  0
 27 28  1  0  0  0  0
 28 29  1  0  0  0  0
 29 30  1  0  0  0  0
 30 31  1  0  0  0  0
 31 34  1  0  0  0  0
 31 32  1  0  0  0  0
 34 33  3  0  0  0  0
 35 28  1  0  0  0  0
 36 42  1  0  0  0  0
 38 36  2  0  0  0  0
 38 41  1  0  0  0  0
 39 41  1  0  0  0  0
 40 37  1  0  0  0  0
 40 35  1  0  0  0  0
 41 40  2  0  0  0  0
 42 37  2  0  0  0  0
M  END
>  <MODEL>
9

>  <REMARK>
 VINA RESULT:      -5.3      4.647      9.793
  Name = 
  14 active torsions:
  status: ('A' for Active; 'I' for Inactive)
    1  A    between atoms: C_1  and  O_41
    2  A    between atoms: C_3  and  C_14
    3  A    between atoms: C_3  and  C_20
    4  A    between atoms: C_6  and  C_29
    5  A    between atoms: C_6  and  C_40
    6  A    between atoms: C_9  and  C_13
    7  A    between atoms: C_9  and  C_17
    8  A    between atoms: C_17  and  C_34
    9  A    between atoms: N_18  and  C_29
   10  A    between atoms: N_18  and  C_34
   11  A    between atoms: C_24  and  C_37
   12  A    between atoms: C_28  and  C_31
   13  A    between atoms: C_32  and  N_35
   14  A    between atoms: C_34  and  N_35
                            x       y       z     vdW  Elec       q    Type
                         _______ _______ _______ _____ _____    ______ ____

>  <TORSDO>
F 14

$$$$
