=
 OpenBabel11072415223D

 63 67  0  0  1  0  0  0  0  0999 V2000
  160.8480  211.2940  148.1120 C   0  0  1  0  0  3  0  0  0  0  0  0
  163.1910  211.9490  148.8710 O   0  0  0  0  0  0  0  0  0  0  0  0
  162.1760  213.2300  147.0890 C   0  0  1  0  0  3  0  0  0  0  0  0
  161.0420  212.2340  146.9200 C   0  0  2  0  0  3  0  0  0  0  0  0
  161.7940  210.1070  147.9450 C   0  0  1  0  0  3  0  0  0  0  0  0
  161.8470  214.3540  148.0640 C   0  0  0  0  0  1  0  0  0  0  0  0
  163.3780  212.4380  147.5590 C   0  0  0  0  0  2  0  0  0  0  0  0
  162.0490  211.1070  149.0600 C   0  0  2  0  0  3  0  0  0  0  0  0
  159.7380  212.8740  146.4530 C   0  0  0  0  0  2  0  0  0  0  0  0
  159.0610  212.0470  145.5150 O   0  0  0  0  0  0  0  0  0  0  0  0
  159.8880  210.7910  143.7830 O   0  0  0  0  0  0  0  0  0  0  0  0
  159.5120  211.9170  144.2020 C   0  0  0  0  0  0  0  0  0  0  0  0
  159.5290  213.0450  143.3220 N   0  0  0  0  0  0  0  0  0  0  0  0
  160.7710  214.4290  141.9140 O   0  0  0  0  0  0  0  0  0  0  0  0
  160.7710  213.5990  142.8620 C   0  0  0  0  0  0  0  0  0  0  0  0
  162.0610  213.2460  143.5380 C   0  0  2  0  0  3  0  0  0  0  0  0
  162.9820  214.4490  143.5550 C   0  0  0  0  0  1  0  0  0  0  0  0
  162.6890  212.1810  142.8820 O   0  0  0  0  0  0  0  0  0  0  0  0
  163.1460  212.9760  139.3260 N   0  0  0  0  0  2  0  0  0  0  0  0
  161.6610  211.0370  139.4880 C   0  0  0  0  0  2  0  0  0  0  0  0
  161.9200  210.9420  140.9880 C   0  0  0  0  0  2  0  0  0  0  0  0
  163.5060  212.8580  140.7390 C   0  0  0  0  0  2  0  0  0  0  0  0
  162.3230  212.3090  141.5400 C   0  0  2  0  0  3  0  0  0  0  0  0
  162.6270  211.7270  137.3090 C   0  0  0  0  0  1  0  0  0  0  0  0
  162.8810  211.6390  138.7980 C   0  0  1  0  0  3  0  0  0  0  0  0
  158.3360  213.4560  142.7670 O   0  0  0  0  0  0  0  0  0  0  0  0
  158.1350  213.4570  141.3880 C   0  0  0  0  0  0  0  0  0  0  0  0
  156.9830  213.1140  140.4810 C   0  0  2  0  0  3  0  0  0  0  0  0
  158.9220  213.7360  140.3340 N   0  0  0  0  0  0  0  0  0  0  0  0
  157.8440  213.4350  139.4130 C   0  0  1  0  0  3  0  0  0  0  0  0
  157.7300  210.8450  139.0480 C   0  0  0  0  0  1  0  0  0  0  0  0
  158.1460  212.2080  138.5880 C   0  0  0  0  0  0  0  0  0  0  0  0
  158.9400  212.3040  137.5870 N   0  0  0  0  0  2  0  0  0  0  0  0
  155.8800  214.1570  140.6080 C   0  0  0  0  0  2  0  0  0  0  0  0
  154.5460  213.6060  140.1250 C   0  0  0  0  0  2  0  0  0  0  0  0
  153.4540  213.8980  141.1350 C   0  0  0  0  0  1  0  0  0  0  0  0
  161.1780  208.9510  148.4950 O   0  0  0  0  0  0  0  0  0  0  0  0
  161.7260  207.6690  148.4000 C   0  0  0  0  0  0  0  0  0  0  0  0
  163.3140  207.4250  148.0620 S   0  0  0  0  0  0  0  0  0  0  0  0
  160.8590  206.4910  148.6920 C   0  0  2  0  0  3  0  0  0  0  0  0
  160.7910  207.4620  150.8130 N   0  0  0  0  0  0  0  0  0  0  0  0
  160.3770  206.5740  150.0470 N   0  0  0  0  0  0  0  0  0  0  0  0
  160.3360  207.5000  152.1750 C   0  0  0  0  0  2  0  0  0  0  0  0
  161.5070  207.7750  153.1070 C   0  0  1  0  0  3  0  0  0  0  0  0
  160.5050  208.4570  155.2520 N   0  0  0  0  0  0  0  0  0  0  0  0
  159.8040  207.2550  154.7150 C   0  0  0  0  0  2  0  0  0  0  0  0
  161.1690  207.3330  154.5280 C   0  0  1  0  0  3  0  0  0  0  0  0
  160.5340  209.7140  155.9220 C   0  0  0  0  0  0  0  0  0  0  0  0
  160.6050  209.7610  157.2420 C   0  0  0  0  0  2  0  0  0  0  0  0
  160.5270  210.9820  155.1350 C   0  0  0  0  0  2  0  0  0  0  0  0
  159.2940  211.0850  154.2460 C   0  0  0  0  0  2  0  0  0  0  0  0
  159.6270  211.6930  152.9270 C   0  0  0  0  0  0  0  0  0  0  0  0
  160.7660  211.5260  152.4180 O   0  0  0  0  0  1  0  0  0  0  0  0
  158.6770  212.4640  152.2680 O   0  0  0  0  0  0  0  0  0  0  0  0
  162.6150  205.6880  152.6310 O   0  0  0  0  0  1  0  0  0  0  0  0
  162.7640  207.0770  152.5960 C   0  0  0  0  0  2  0  0  0  0  0  0
  161.6320  205.3070  148.5340 O   0  0  0  0  0  0  0  0  0  0  0  0
  160.8200  203.1010  148.1480 C   0  0  0  0  0  2  0  0  0  0  0  0
  161.2860  204.2560  147.6800 C   0  0  0  0  0  0  0  0  0  0  0  0
  160.6510  203.5820  145.1310 O   0  0  0  0  0  0  0  0  0  0  0  0
  163.1930  203.9540  145.6040 O   0  0  0  0  0  1  0  0  0  0  0  0
  161.4070  206.0550  145.4920 O   0  0  0  0  0  1  0  0  0  0  0  0
  161.6060  204.4330  145.9310 P   0  0  0  0  0  0  0  0  0  0  0  0
  1  8  1  0  0  0  0
  2  8  1  0  0  0  0
  3  7  1  0  0  0  0
  3  6  1  0  0  0  0
  4  3  1  0  0  0  0
  4  1  1  0  0  0  0
  5  1  1  0  0  0  0
  5 37  1  0  0  0  0
  5  8  1  0  0  0  0
  7  2  1  0  0  0  0
  9  4  1  0  0  0  0
 10  9  1  0  0  0  0
 11 12  2  0  0  0  0
 12 10  1  0  0  0  0
 13 12  1  0  0  0  0
 14 15  2  0  0  0  0
 15 13  1  0  0  0  0
 15 16  1  0  0  0  0
 16 17  1  0  0  0  0
 18 16  1  0  0  0  0
 19 22  1  0  0  0  0
 20 21  1  0  0  0  0
 21 23  1  0  0  0  0
 22 23  1  0  0  0  0
 23 18  1  0  0  0  0
 24 25  1  0  0  0  0
 25 19  1  0  0  0  0
 25 20  1  0  0  0  0
 26 13  1  0  0  0  0
 27 26  1  0  0  0  0
 28 34  1  0  0  0  0
 28 27  1  0  0  0  0
 29 27  2  0  0  0  0
 30 29  1  0  0  0  0
 30 28  1  0  0  0  0
 32 31  1  0  0  0  0
 32 30  1  0  0  0  0
 33 32  2  0  0  0  0
 35 34  1  0  0  0  0
 35 36  1  0  0  0  0
 38 37  1  0  0  0  0
 38 40  1  0  0  0  0
 39 38  2  0  0  0  0
 40 42  1  0  0  0  0
 41 43  1  0  0  0  0
 42 41  2  0  0  0  0
 43 44  1  0  0  0  0
 44 47  1  0  0  0  0
 45 48  1  0  0  0  0
 46 45  1  0  0  0  0
 47 46  1  0  0  0  0
 47 45  1  0  0  0  0
 48 49  2  0  0  0  0
 50 48  1  0  0  0  0
 51 50  1  0  0  0  0
 52 51  1  0  0  0  0
 53 52  1  0  0  0  0
 54 52  2  0  0  0  0
 56 55  1  0  0  0  0
 56 44  1  0  0  0  0
 57 40  1  0  0  0  0
 59 58  2  0  0  0  0
 59 57  1  0  0  0  0
 60 63  2  0  0  0  0
 61 63  1  0  0  0  0
 62 63  1  0  0  0  0
 63 59  1  0  0  0  0
M  END
>  <MODEL>
1

>  <REMARK>
 VINA RESULT:      -2.2      0.000      0.000
  Name = 
  26 active torsions:
  status: ('A' for Active; 'I' for Inactive)
    1  A    between atoms: C_1  and  C_6
    2  A    between atoms: C_1  and  C_18
    3  A    between atoms: C_2  and  O_52
    4  A    between atoms: C_4  and  N_22
    5  A    between atoms: C_4  and  O_42
    6  A    between atoms: C_4  and  C_45
    7  A    between atoms: C_7  and  O_56
    8  A    between atoms: C_7  and  C_62
    9  A    between atoms: C_8  and  C_19
   10  A    between atoms: C_8  and  C_34
   11  A    between atoms: N_11  and  C_13
   12  A    between atoms: O_12  and  C_36
   13  A    between atoms: O_12  and  C_45
   14  A    between atoms: C_13  and  C_47
   15  A    between atoms: O_15  and  C_16
   16  A    between atoms: O_15  and  C_48
   17  A    between atoms: C_18  and  C_24
   18  A    between atoms: N_20  and  C_24
   19  A    between atoms: C_26  and  C_48
   20  A    between atoms: N_28  and  O_52
   21  A    between atoms: C_33  and  C_47
   22  A    between atoms: C_35  and  C_40
   23  A    between atoms: C_38  and  O_56
   24  A    between atoms: O_42  and  C_58
   25  A    between atoms: C_47  and  C_53
   26  A    between atoms: C_58  and  P_60
                            x       y       z     vdW  Elec       q    Type
                         _______ _______ _______ _____ _____    ______ ____

>  <TORSDO>
F 26

$$$$
=
 OpenBabel11072415223D

 63 67  0  0  1  0  0  0  0  0999 V2000
  160.3150  211.6000  145.9590 C   0  0  1  0  0  3  0  0  0  0  0  0
  158.9700  213.5300  146.9400 O   0  0  0  0  0  0  0  0  0  0  0  0
  160.2160  213.9320  144.9070 C   0  0  1  0  0  3  0  0  0  0  0  0
  160.9670  212.6170  145.0190 C   0  0  2  0  0  3  0  0  0  0  0  0
  160.7910  211.8880  147.3820 C   0  0  1  0  0  3  0  0  0  0  0  0
  158.9380  213.8250  144.0840 C   0  0  0  0  0  1  0  0  0  0  0  0
  159.9150  214.3790  146.3220 C   0  0  0  0  0  2  0  0  0  0  0  0
  159.3390  212.1490  147.0180 C   0  0  2  0  0  3  0  0  0  0  0  0
  161.3450  212.0170  143.6690 C   0  0  0  0  0  2  0  0  0  0  0  0
  160.5290  212.5330  142.6240 O   0  0  0  0  0  0  0  0  0  0  0  0
  161.5110  214.4520  141.8400 O   0  0  0  0  0  0  0  0  0  0  0  0
  161.0690  213.3000  141.5920 C   0  0  0  0  0  0  0  0  0  0  0  0
  161.1470  212.7790  140.2610 N   0  0  0  0  0  0  0  0  0  0  0  0
  160.6010  213.0390  138.0080 O   0  0  0  0  0  0  0  0  0  0  0  0
  160.3530  213.3420  139.2050 C   0  0  0  0  0  0  0  0  0  0  0  0
  159.1940  214.2400  139.5180 C   0  0  2  0  0  3  0  0  0  0  0  0
  158.6640  213.9360  140.9040 C   0  0  0  0  0  1  0  0  0  0  0  0
  158.1730  214.0750  138.5760 O   0  0  0  0  0  0  0  0  0  0  0  0
  155.0170  213.7540  140.4250 N   0  0  0  0  0  2  0  0  0  0  0  0
  155.2700  211.7780  139.0010 C   0  0  0  0  0  2  0  0  0  0  0  0
  156.4850  212.4020  138.3220 C   0  0  0  0  0  2  0  0  0  0  0  0
  156.1090  214.4340  139.7300 C   0  0  0  0  0  2  0  0  0  0  0  0
  157.1470  213.4140  139.2560 C   0  0  2  0  0  3  0  0  0  0  0  0
  153.1200  212.2630  140.1420 C   0  0  0  0  0  1  0  0  0  0  0  0
  154.3290  212.8820  139.4740 C   0  0  1  0  0  3  0  0  0  0  0  0
  162.1420  211.8710  139.9750 O   0  0  0  0  0  0  0  0  0  0  0  0
  161.8610  210.6520  139.3590 C   0  0  0  0  0  0  0  0  0  0  0  0
  160.7300  209.6610  139.4290 C   0  0  2  0  0  3  0  0  0  0  0  0
  162.5260  209.8780  138.4840 N   0  0  0  0  0  0  0  0  0  0  0  0
  161.4600  208.8960  138.4980 C   0  0  1  0  0  3  0  0  0  0  0  0
  162.3380  207.5290  140.5510 C   0  0  0  0  0  1  0  0  0  0  0  0
  161.9120  207.5950  139.1170 C   0  0  0  0  0  0  0  0  0  0  0  0
  162.1270  206.5830  138.3630 N   0  0  0  0  0  2  0  0  0  0  0  0
  159.4790  210.2380  138.7790 C   0  0  0  0  0  2  0  0  0  0  0  0
  158.5200  209.1330  138.3600 C   0  0  0  0  0  2  0  0  0  0  0  0
  157.6960  209.5720  137.1650 C   0  0  0  0  0  1  0  0  0  0  0  0
  160.8750  210.6620  148.0930 O   0  0  0  0  0  0  0  0  0  0  0  0
  161.7240  210.4630  149.1850 C   0  0  0  0  0  0  0  0  0  0  0  0
  162.9840  209.4120  149.1270 S   0  0  0  0  0  0  0  0  0  0  0  0
  161.5270  211.2900  150.4110 C   0  0  2  0  0  3  0  0  0  0  0  0
  161.1870  209.2020  151.3980 N   0  0  0  0  0  0  0  0  0  0  0  0
  161.3530  210.4260  151.5510 N   0  0  0  0  0  0  0  0  0  0  0  0
  160.9660  208.3630  152.5420 C   0  0  0  0  0  2  0  0  0  0  0  0
  161.6310  207.0110  152.3310 C   0  0  1  0  0  3  0  0  0  0  0  0
  160.8640  205.0670  151.0250 N   0  0  0  0  0  0  0  0  0  0  0  0
  161.1300  204.6670  152.4380 C   0  0  0  0  0  2  0  0  0  0  0  0
  160.5760  205.9130  152.2220 C   0  0  1  0  0  3  0  0  0  0  0  0
  160.8800  204.8400  149.6190 C   0  0  0  0  0  0  0  0  0  0  0  0
  160.8710  203.6050  149.1450 C   0  0  0  0  0  2  0  0  0  0  0  0
  160.8620  205.9950  148.6740 C   0  0  0  0  0  2  0  0  0  0  0  0
  161.8230  205.7840  147.5110 C   0  0  0  0  0  2  0  0  0  0  0  0
  161.1170  205.8750  146.2010 C   0  0  0  0  0  0  0  0  0  0  0  0
  161.5680  205.2740  145.1910 O   0  0  0  0  0  0  0  0  0  0  0  0
  159.9660  206.6460  146.0960 O   0  0  0  0  0  1  0  0  0  0  0  0
  163.7800  206.5040  151.3640 O   0  0  0  0  0  1  0  0  0  0  0  0
  162.5210  207.0470  151.0930 C   0  0  0  0  0  2  0  0  0  0  0  0
  160.3630  212.0890  150.2380 O   0  0  0  0  0  0  0  0  0  0  0  0
  160.2550  214.3430  151.0040 C   0  0  0  0  0  2  0  0  0  0  0  0
  159.9380  213.0590  151.1500 C   0  0  0  0  0  0  0  0  0  0  0  0
  158.7780  211.0490  152.5550 O   0  0  0  0  0  0  0  0  0  0  0  0
  157.6010  213.3760  152.7230 O   0  0  0  0  0  1  0  0  0  0  0  0
  160.0050  212.8630  153.9780 O   0  0  0  0  0  1  0  0  0  0  0  0
  159.0600  212.5310  152.6140 P   0  0  0  0  0  0  0  0  0  0  0  0
  1  8  1  0  0  0  0
  1  5  1  0  0  0  0
  2  8  1  0  0  0  0
  3  4  1  0  0  0  0
  3  7  1  0  0  0  0
  4  1  1  0  0  0  0
  5 37  1  0  0  0  0
  6  3  1  0  0  0  0
  7  2  1  0  0  0  0
  8  5  1  0  0  0  0
  9  4  1  0  0  0  0
 10  9  1  0  0  0  0
 12 11  2  0  0  0  0
 12 10  1  0  0  0  0
 13 12  1  0  0  0  0
 14 15  2  0  0  0  0
 15 16  1  0  0  0  0
 15 13  1  0  0  0  0
 16 17  1  0  0  0  0
 18 23  1  0  0  0  0
 18 16  1  0  0  0  0
 20 25  1  0  0  0  0
 21 20  1  0  0  0  0
 21 23  1  0  0  0  0
 22 19  1  0  0  0  0
 23 22  1  0  0  0  0
 25 24  1  0  0  0  0
 25 19  1  0  0  0  0
 26 13  1  0  0  0  0
 27 28  1  0  0  0  0
 27 26  1  0  0  0  0
 29 30  1  0  0  0  0
 29 27  2  0  0  0  0
 30 32  1  0  0  0  0
 30 28  1  0  0  0  0
 32 31  1  0  0  0  0
 33 32  2  0  0  0  0
 34 28  1  0  0  0  0
 35 34  1  0  0  0  0
 36 35  1  0  0  0  0
 37 38  1  0  0  0  0
 38 40  1  0  0  0  0
 39 38  2  0  0  0  0
 40 42  1  0  0  0  0
 41 42  2  0  0  0  0
 41 43  1  0  0  0  0
 44 43  1  0  0  0  0
 45 47  1  0  0  0  0
 45 46  1  0  0  0  0
 47 44  1  0  0  0  0
 47 46  1  0  0  0  0
 48 45  1  0  0  0  0
 49 48  2  0  0  0  0
 50 48  1  0  0  0  0
 51 50  1  0  0  0  0
 52 51  1  0  0  0  0
 53 52  2  0  0  0  0
 54 52  1  0  0  0  0
 56 55  1  0  0  0  0
 56 44  1  0  0  0  0
 57 40  1  0  0  0  0
 57 59  1  0  0  0  0
 58 59  2  0  0  0  0
 59 63  1  0  0  0  0
 60 63  2  0  0  0  0
 63 61  1  0  0  0  0
 63 62  1  0  0  0  0
M  END
>  <MODEL>
2

>  <REMARK>
 VINA RESULT:      -0.6      2.602      6.384
  Name = 
  26 active torsions:
  status: ('A' for Active; 'I' for Inactive)
    1  A    between atoms: C_1  and  C_6
    2  A    between atoms: C_1  and  C_18
    3  A    between atoms: C_2  and  O_52
    4  A    between atoms: C_4  and  N_22
    5  A    between atoms: C_4  and  O_42
    6  A    between atoms: C_4  and  C_45
    7  A    between atoms: C_7  and  O_56
    8  A    between atoms: C_7  and  C_62
    9  A    between atoms: C_8  and  C_19
   10  A    between atoms: C_8  and  C_34
   11  A    between atoms: N_11  and  C_13
   12  A    between atoms: O_12  and  C_36
   13  A    between atoms: O_12  and  C_45
   14  A    between atoms: C_13  and  C_47
   15  A    between atoms: O_15  and  C_16
   16  A    between atoms: O_15  and  C_48
   17  A    between atoms: C_18  and  C_24
   18  A    between atoms: N_20  and  C_24
   19  A    between atoms: C_26  and  C_48
   20  A    between atoms: N_28  and  O_52
   21  A    between atoms: C_33  and  C_47
   22  A    between atoms: C_35  and  C_40
   23  A    between atoms: C_38  and  O_56
   24  A    between atoms: O_42  and  C_58
   25  A    between atoms: C_47  and  C_53
   26  A    between atoms: C_58  and  P_60
                            x       y       z     vdW  Elec       q    Type
                         _______ _______ _______ _____ _____    ______ ____

>  <TORSDO>
F 26

$$$$
