=
 OpenBabel11072413123D

 34 37  0  0  1  0  0  0  0  0999 V2000
  161.0600  204.8910  151.0120 C   0  0  0  0  0  0  0  0  0  0  0  0
  161.4200  202.0930  151.7480 O   0  0  0  0  0  0  0  0  0  0  0  0
  160.9340  202.3770  150.6220 C   0  0  0  0  0  0  0  0  0  0  0  0
  161.5240  204.7780  152.1770 O   0  0  0  0  0  0  0  0  0  0  0  0
  160.7220  203.7380  150.2340 N   0  0  0  0  0  2  0  0  0  0  0  0
  160.6140  201.3260  149.7100 N   0  0  0  0  0  2  0  0  0  0  0  0
  160.8640  206.2450  150.4240 C   0  0  0  0  0  2  0  0  0  0  0  0
  161.7330  209.4300  151.8080 C   0  0  1  0  0  3  0  0  0  0  0  0
  161.0060  208.1430  151.9870 C   0  0  2  0  0  3  0  0  0  0  0  0
  161.0790  207.7820  153.4580 C   0  0  0  0  0  2  0  0  0  0  0  0
  160.3700  208.8410  154.3260 C   0  0  2  0  0  3  0  0  0  0  0  0
  160.3450  210.2780  153.7580 C   0  0  1  0  0  0  0  0  0  0  0  0
  162.0330  209.5400  150.4470 O   0  0  0  0  0  0  0  0  0  0  0  0
  161.4000  209.8810  154.7760 C   0  0  0  0  0  2  0  0  0  0  0  0
  160.8640  210.5590  152.3300 C   0  0  0  0  0  2  0  0  0  0  0  0
  161.7910  207.2450  151.0930 C   0  0  2  0  0  3  0  0  0  0  0  0
  162.3520  208.2200  150.0600 C   0  0  0  0  0  2  0  0  0  0  0  0
  159.2090  211.1780  154.2800 C   0  0  2  0  0  3  0  0  0  0  0  0
  158.1820  211.3170  153.3370 O   0  0  0  0  0  1  0  0  0  0  0  0
  159.7210  212.5590  154.7020 C   0  0  1  0  0  3  0  0  0  0  0  0
  159.1700  213.5450  153.8830 O   0  0  0  0  0  1  0  0  0  0  0  0
  159.3480  212.8600  156.1450 C   0  0  0  0  0  1  0  0  0  0  0  0
  160.0460  201.5940  148.5090 O   0  0  0  0  0  0  0  0  0  0  0  0
  161.0690  201.5430  147.6190 N   0  0  0  0  0  2  0  0  0  0  0  0
  160.5090  201.8610  146.3120 C   0  0  1  0  0  3  0  0  0  0  0  0
  161.2660  203.0290  145.6640 C   0  0  1  0  0  3  0  0  0  0  0  0
  160.4080  203.7240  144.8050 O   0  0  0  0  0  1  0  0  0  0  0  0
  163.3320  204.8090  146.1450 S   0  0  0  0  0  0  0  0  0  0  0  0
  160.9970  205.2710  146.7910 C   0  0  0  0  0  2  0  0  0  0  0  0
  162.1290  206.1570  146.3240 C   0  0  0  0  0  2  0  0  0  0  0  0
  161.8100  203.9910  146.7270 C   0  0  1  0  0  3  0  0  0  0  0  0
  160.5580  200.6090  145.4410 C   0  0  0  0  0  2  0  0  0  0  0  0
  161.3370  199.4950  146.1210 C   0  0  0  0  0  2  0  0  0  0  0  0
  161.3630  198.2570  145.2470 C   0  0  0  0  0  1  0  0  0  0  0  0
  1  4  2  0  0  0  0
  3  2  2  0  0  0  0
  5  3  1  0  0  0  0
  5  1  1  0  0  0  0
  6  3  1  0  0  0  0
  7  1  1  0  0  0  0
  8  9  1  0  0  0  0
  8 15  1  6  0  0  0
  9 10  1  1  0  0  0
 11 10  1  6  0  0  0
 11 14  1  0  0  0  0
 12 18  1  1  0  0  0
 12 11  1  0  0  0  0
 12 14  1  0  0  0  0
 13  8  1  0  0  0  0
 15 12  1  0  0  0  0
 16  7  1  6  0  0  0
 16  9  1  0  0  0  0
 17 13  1  0  0  0  0
 17 16  1  0  0  0  0
 18 19  1  6  0  0  0
 18 20  1  0  0  0  0
 20 22  1  1  0  0  0
 21 20  1  0  0  0  0
 23  6  1  0  0  0  0
 24 23  1  0  0  0  0
 25 32  1  6  0  0  0
 25 24  1  0  0  0  0
 26 27  1  6  0  0  0
 26 25  1  0  0  0  0
 28 30  1  0  0  0  0
 28 31  1  0  0  0  0
 30 29  1  0  0  0  0
 31 26  1  6  0  0  0
 31 29  1  0  0  0  0
 32 33  1  0  0  0  0
 34 33  1  0  0  0  0
M  END
>  <MODEL>
1

>  <REMARK>
 VINA RESULT:      -7.7      0.000      0.000
  Name = 
  11 active torsions:
  status: ('A' for Active; 'I' for Inactive)
    1  A    between atoms: C_2  and  C_5
    2  A    between atoms: C_2  and  C_28
    3  A    between atoms: C_6  and  C_8
    4  A    between atoms: C_8  and  C_22
    5  A    between atoms: O_13  and  N_31
    6  A    between atoms: O_13  and  N_33
    7  A    between atoms: C_14  and  C_19
    8  A    between atoms: C_14  and  C_21
    9  A    between atoms: C_14  and  N_31
   10  A    between atoms: C_16  and  C_21
   11  A    between atoms: C_19  and  C_23
                            x       y       z     vdW  Elec       q    Type
                         _______ _______ _______ _____ _____    ______ ____

>  <TORSDO>
F 11

$$$$
=
 OpenBabel11072413123D

 34 37  0  0  1  0  0  0  0  0999 V2000
  160.9920  205.9850  151.9540 C   0  0  0  0  0  0  0  0  0  0  0  0
  161.4840  203.1250  152.2210 O   0  0  0  0  0  0  0  0  0  0  0  0
  161.1090  203.5860  151.1100 C   0  0  0  0  0  0  0  0  0  0  0  0
  161.3270  205.6840  153.1290 O   0  0  0  0  0  0  0  0  0  0  0  0
  160.8360  204.9800  150.9470 N   0  0  0  0  0  2  0  0  0  0  0  0
  160.9780  202.7060  149.9930 N   0  0  0  0  0  2  0  0  0  0  0  0
  160.7580  207.4120  151.5960 C   0  0  0  0  0  2  0  0  0  0  0  0
  161.4250  210.3940  153.4610 C   0  0  1  0  0  3  0  0  0  0  0  0
  160.7000  209.0950  153.3930 C   0  0  2  0  0  3  0  0  0  0  0  0
  160.6150  208.5490  154.8060 C   0  0  0  0  0  2  0  0  0  0  0  0
  159.8000  209.4890  155.7170 C   0  0  2  0  0  3  0  0  0  0  0  0
  159.8180  210.9870  155.3370 C   0  0  1  0  0  0  0  0  0  0  0  0
  161.8710  210.6760  152.1660 O   0  0  0  0  0  0  0  0  0  0  0  0
  160.7610  210.4630  156.4060 C   0  0  0  0  0  2  0  0  0  0  0  0
  160.4880  211.4480  154.0220 C   0  0  0  0  0  2  0  0  0  0  0  0
  161.5910  208.3180  152.4850 C   0  0  2  0  0  3  0  0  0  0  0  0
  162.2490  209.4170  151.6530 C   0  0  0  0  0  2  0  0  0  0  0  0
  158.6200  211.8130  155.8390 C   0  0  2  0  0  3  0  0  0  0  0  0
  158.2820  211.4880  157.1590 O   0  0  0  0  0  1  0  0  0  0  0  0
  157.3950  211.6550  154.9320 C   0  0  1  0  0  3  0  0  0  0  0  0
  156.3960  210.9400  155.5960 O   0  0  0  0  0  1  0  0  0  0  0  0
  156.8370  213.0100  154.5290 C   0  0  0  0  0  1  0  0  0  0  0  0
  160.5310  203.1600  148.7970 O   0  0  0  0  0  0  0  0  0  0  0  0
  161.5310  202.8850  147.9230 N   0  0  0  0  0  2  0  0  0  0  0  0
  161.4290  203.8580  146.8430 C   0  0  1  0  0  3  0  0  0  0  0  0
  162.6640  204.7700  146.8120 C   0  0  1  0  0  3  0  0  0  0  0  0
  163.4760  204.4230  145.7280 O   0  0  0  0  0  1  0  0  0  0  0  0
  160.4460  206.4280  146.7930 S   0  0  0  0  0  0  0  0  0  0  0  0
  162.5320  207.0050  147.9770 C   0  0  0  0  0  2  0  0  0  0  0  0
  161.0750  207.2860  148.2650 C   0  0  0  0  0  2  0  0  0  0  0  0
  162.2570  206.2440  146.6920 C   0  0  1  0  0  3  0  0  0  0  0  0
  161.2520  203.1110  145.5250 C   0  0  0  0  0  2  0  0  0  0  0  0
  160.7960  201.6800  145.7600 C   0  0  0  0  0  2  0  0  0  0  0  0
  159.6550  201.3280  144.8260 C   0  0  0  0  0  1  0  0  0  0  0  0
  1  4  2  0  0  0  0
  3  2  2  0  0  0  0
  5  3  1  0  0  0  0
  5  1  1  0  0  0  0
  6  3  1  0  0  0  0
  7  1  1  0  0  0  0
  8 15  1  6  0  0  0
  9  8  1  0  0  0  0
  9 10  1  1  0  0  0
 11 10  1  6  0  0  0
 11 14  1  0  0  0  0
 12 11  1  0  0  0  0
 12 18  1  1  0  0  0
 12 14  1  0  0  0  0
 13  8  1  0  0  0  0
 15 12  1  0  0  0  0
 16  7  1  6  0  0  0
 16  9  1  0  0  0  0
 17 13  1  0  0  0  0
 17 16  1  0  0  0  0
 18 19  1  1  0  0  0
 20 22  1  1  0  0  0
 20 21  1  0  0  0  0
 20 18  1  0  0  0  0
 23  6  1  0  0  0  0
 24 23  1  0  0  0  0
 25 32  1  6  0  0  0
 25 24  1  0  0  0  0
 26 27  1  6  0  0  0
 26 25  1  0  0  0  0
 28 30  1  0  0  0  0
 29 30  1  0  0  0  0
 31 28  1  0  0  0  0
 31 26  1  1  0  0  0
 31 29  1  0  0  0  0
 32 33  1  0  0  0  0
 34 33  1  0  0  0  0
M  END
>  <MODEL>
2

>  <REMARK>
 VINA RESULT:      -6.9      1.782      2.296
  Name = 
  11 active torsions:
  status: ('A' for Active; 'I' for Inactive)
    1  A    between atoms: C_2  and  C_5
    2  A    between atoms: C_2  and  C_28
    3  A    between atoms: C_6  and  C_8
    4  A    between atoms: C_8  and  C_22
    5  A    between atoms: O_13  and  N_31
    6  A    between atoms: O_13  and  N_33
    7  A    between atoms: C_14  and  C_19
    8  A    between atoms: C_14  and  C_21
    9  A    between atoms: C_14  and  N_31
   10  A    between atoms: C_16  and  C_21
   11  A    between atoms: C_19  and  C_23
                            x       y       z     vdW  Elec       q    Type
                         _______ _______ _______ _____ _____    ______ ____

>  <TORSDO>
F 11

$$$$
=
 OpenBabel11072413123D

 34 37  0  0  1  0  0  0  0  0999 V2000
  161.2890  207.0200  153.9520 C   0  0  0  0  0  0  0  0  0  0  0  0
  159.5060  207.2120  156.2490 O   0  0  0  0  0  0  0  0  0  0  0  0
  160.2480  208.1880  155.9610 C   0  0  0  0  0  0  0  0  0  0  0  0
  160.6420  205.9540  154.1220 O   0  0  0  0  0  0  0  0  0  0  0  0
  161.1520  208.1220  154.8540 N   0  0  0  0  0  2  0  0  0  0  0  0
  160.1670  209.3850  156.7350 N   0  0  0  0  0  2  0  0  0  0  0  0
  162.2100  207.1460  152.7880 C   0  0  0  0  0  2  0  0  0  0  0  0
  161.7060  207.7700  149.2990 C   0  0  1  0  0  3  0  0  0  0  0  0
  161.6550  206.7860  150.4160 C   0  0  2  0  0  3  0  0  0  0  0  0
  160.4900  205.8530  150.1440 C   0  0  0  0  0  2  0  0  0  0  0  0
  160.7040  205.0630  148.8370 C   0  0  2  0  0  3  0  0  0  0  0  0
  161.5640  205.7570  147.7570 C   0  0  1  0  0  0  0  0  0  0  0  0
  162.4710  208.8520  149.7480 O   0  0  0  0  0  0  0  0  0  0  0  0
  160.0480  205.8290  147.6850 C   0  0  0  0  0  2  0  0  0  0  0  0
  162.2830  207.0890  148.0730 C   0  0  0  0  0  2  0  0  0  0  0  0
  161.4610  207.6900  151.5840 C   0  0  2  0  0  3  0  0  0  0  0  0
  162.1040  208.9900  151.1040 C   0  0  0  0  0  2  0  0  0  0  0  0
  162.2440  204.8160  146.7450 C   0  0  2  0  0  3  0  0  0  0  0  0
  163.4050  205.3860  146.2070 O   0  0  0  0  0  1  0  0  0  0  0  0
  161.2920  204.4050  145.6170 C   0  0  1  0  0  3  0  0  0  0  0  0
  161.7780  204.8610  144.3900 O   0  0  0  0  0  1  0  0  0  0  0  0
  161.1470  202.8940  145.5510 C   0  0  0  0  0  1  0  0  0  0  0  0
  160.9850  210.4360  156.4810 O   0  0  0  0  0  0  0  0  0  0  0  0
  160.2760  211.5290  156.8600 N   0  0  0  0  0  2  0  0  0  0  0  0
  159.3730  211.8490  155.7630 C   0  0  1  0  0  3  0  0  0  0  0  0
  158.6040  213.1470  156.0510 C   0  0  1  0  0  3  0  0  0  0  0  0
  158.7900  214.0450  154.9960 O   0  0  0  0  0  1  0  0  0  0  0  0
  156.1650  213.4470  154.7730 S   0  0  0  0  0  0  0  0  0  0  0  0
  156.7780  211.4040  156.0110 C   0  0  0  0  0  2  0  0  0  0  0  0
  155.9410  211.6460  154.7760 C   0  0  0  0  0  2  0  0  0  0  0  0
  157.1050  212.8710  156.2250 C   0  0  1  0  0  3  0  0  0  0  0  0
  160.1830  211.9520  154.4750 C   0  0  0  0  0  2  0  0  0  0  0  0
  159.6550  211.0000  153.4140 C   0  0  0  0  0  2  0  0  0  0  0  0
  158.8190  211.7530  152.3970 C   0  0  0  0  0  1  0  0  0  0  0  0
  1  4  2  0  0  0  0
  1  5  1  0  0  0  0
  3  2  2  0  0  0  0
  3  6  1  0  0  0  0
  5  3  1  0  0  0  0
  7  1  1  0  0  0  0
  8 15  1  6  0  0  0
  8 13  1  0  0  0  0
  8  9  1  0  0  0  0
  9 10  1  6  0  0  0
  9 16  1  0  0  0  0
 11 14  1  6  0  0  0
 11 10  1  0  0  0  0
 12 18  1  6  0  0  0
 12 15  1  0  0  0  0
 12 11  1  0  0  0  0
 13 17  1  0  0  0  0
 14 12  1  0  0  0  0
 16  7  1  1  0  0  0
 17 16  1  0  0  0  0
 18 19  1  6  0  0  0
 20 22  1  6  0  0  0
 20 18  1  0  0  0  0
 21 20  1  0  0  0  0
 23  6  1  0  0  0  0
 23 24  1  0  0  0  0
 25 32  1  6  0  0  0
 25 26  1  0  0  0  0
 25 24  1  0  0  0  0
 26 27  1  6  0  0  0
 28 30  1  0  0  0  0
 28 31  1  0  0  0  0
 29 31  1  0  0  0  0
 30 29  1  0  0  0  0
 31 26  1  6  0  0  0
 33 32  1  0  0  0  0
 34 33  1  0  0  0  0
M  END
>  <MODEL>
3

>  <REMARK>
 VINA RESULT:      -6.5      4.064     10.216
  Name = 
  11 active torsions:
  status: ('A' for Active; 'I' for Inactive)
    1  A    between atoms: C_2  and  C_5
    2  A    between atoms: C_2  and  C_28
    3  A    between atoms: C_6  and  C_8
    4  A    between atoms: C_8  and  C_22
    5  A    between atoms: O_13  and  N_31
    6  A    between atoms: O_13  and  N_33
    7  A    between atoms: C_14  and  C_19
    8  A    between atoms: C_14  and  C_21
    9  A    between atoms: C_14  and  N_31
   10  A    between atoms: C_16  and  C_21
   11  A    between atoms: C_19  and  C_23
                            x       y       z     vdW  Elec       q    Type
                         _______ _______ _______ _____ _____    ______ ____

>  <TORSDO>
F 11

$$$$
=
 OpenBabel11072413123D

 34 37  0  0  1  0  0  0  0  0999 V2000
  161.2930  207.3380  153.7850 C   0  0  0  0  0  0  0  0  0  0  0  0
  159.4200  207.3310  156.0190 O   0  0  0  0  0  0  0  0  0  0  0  0
  159.9770  208.4090  155.6830 C   0  0  0  0  0  0  0  0  0  0  0  0
  160.8510  206.1810  154.0110 O   0  0  0  0  0  0  0  0  0  0  0  0
  160.9180  208.4470  154.6060 N   0  0  0  0  0  2  0  0  0  0  0  0
  159.6440  209.6150  156.3720 N   0  0  0  0  0  2  0  0  0  0  0  0
  162.2160  207.5630  152.6390 C   0  0  0  0  0  2  0  0  0  0  0  0
  161.6390  207.9360  149.1260 C   0  0  1  0  0  3  0  0  0  0  0  0
  161.6320  207.0290  150.3060 C   0  0  2  0  0  3  0  0  0  0  0  0
  160.4880  206.0510  150.1200 C   0  0  0  0  0  2  0  0  0  0  0  0
  160.7000  205.1790  148.8660 C   0  0  2  0  0  3  0  0  0  0  0  0
  161.5240  205.8190  147.7260 C   0  0  1  0  0  0  0  0  0  0  0  0
  162.3820  209.0640  149.4860 O   0  0  0  0  0  0  0  0  0  0  0  0
  160.0060  205.8490  147.6760 C   0  0  0  0  0  2  0  0  0  0  0  0
  162.2130  207.1870  147.9370 C   0  0  0  0  0  2  0  0  0  0  0  0
  161.4340  208.0050  151.4140 C   0  0  2  0  0  3  0  0  0  0  0  0
  162.0340  209.2850  150.8360 C   0  0  0  0  0  2  0  0  0  0  0  0
  162.2120  204.8300  146.7670 C   0  0  2  0  0  3  0  0  0  0  0  0
  163.4100  205.3480  146.2580 O   0  0  0  0  0  1  0  0  0  0  0  0
  161.2910  204.4150  145.6150 C   0  0  1  0  0  3  0  0  0  0  0  0
  161.8030  204.8770  144.4020 O   0  0  0  0  0  1  0  0  0  0  0  0
  161.1580  202.9020  145.5420 C   0  0  0  0  0  1  0  0  0  0  0  0
  160.2590  210.7840  156.0680 O   0  0  0  0  0  0  0  0  0  0  0  0
  159.2600  211.7000  156.0100 N   0  0  0  0  0  2  0  0  0  0  0  0
  159.6650  212.7070  155.0390 C   0  0  1  0  0  3  0  0  0  0  0  0
  159.1380  212.3580  153.6390 C   0  0  1  0  0  3  0  0  0  0  0  0
  157.9570  211.6190  153.7540 O   0  0  0  0  0  1  0  0  0  0  0  0
  159.6420  213.5170  151.1750 S   0  0  0  0  0  0  0  0  0  0  0  0
  157.4450  213.6540  152.2870 C   0  0  0  0  0  2  0  0  0  0  0  0
  157.8590  213.5720  150.8360 C   0  0  0  0  0  2  0  0  0  0  0  0
  158.8660  213.6270  152.8210 C   0  0  1  0  0  3  0  0  0  0  0  0
  159.1590  214.0690  155.5040 C   0  0  0  0  0  2  0  0  0  0  0  0
  158.0400  213.9220  156.5220 C   0  0  0  0  0  2  0  0  0  0  0  0
  156.7140  214.3340  155.9130 C   0  0  0  0  0  1  0  0  0  0  0  0
  1  4  2  0  0  0  0
  1  5  1  0  0  0  0
  3  2  2  0  0  0  0
  3  6  1  0  0  0  0
  5  3  1  0  0  0  0
  7  1  1  0  0  0  0
  8 15  1  6  0  0  0
  8 13  1  0  0  0  0
  8  9  1  0  0  0  0
  9 10  1  6  0  0  0
  9 16  1  0  0  0  0
 11 14  1  6  0  0  0
 11 10  1  0  0  0  0
 12 18  1  6  0  0  0
 12 15  1  0  0  0  0
 12 11  1  0  0  0  0
 13 17  1  0  0  0  0
 14 12  1  0  0  0  0
 16  7  1  1  0  0  0
 17 16  1  0  0  0  0
 18 19  1  6  0  0  0
 20 22  1  6  0  0  0
 20 18  1  0  0  0  0
 21 20  1  0  0  0  0
 23  6  1  0  0  0  0
 24 23  1  0  0  0  0
 25 32  1  1  0  0  0
 25 24  1  0  0  0  0
 26 27  1  1  0  0  0
 26 25  1  0  0  0  0
 28 31  1  0  0  0  0
 29 31  1  0  0  0  0
 30 28  1  0  0  0  0
 30 29  1  0  0  0  0
 31 26  1  1  0  0  0
 32 33  1  0  0  0  0
 34 33  1  0  0  0  0
M  END
>  <MODEL>
4

>  <REMARK>
 VINA RESULT:      -6.2      3.762     10.246
  Name = 
  11 active torsions:
  status: ('A' for Active; 'I' for Inactive)
    1  A    between atoms: C_2  and  C_5
    2  A    between atoms: C_2  and  C_28
    3  A    between atoms: C_6  and  C_8
    4  A    between atoms: C_8  and  C_22
    5  A    between atoms: O_13  and  N_31
    6  A    between atoms: O_13  and  N_33
    7  A    between atoms: C_14  and  C_19
    8  A    between atoms: C_14  and  C_21
    9  A    between atoms: C_14  and  N_31
   10  A    between atoms: C_16  and  C_21
   11  A    between atoms: C_19  and  C_23
                            x       y       z     vdW  Elec       q    Type
                         _______ _______ _______ _____ _____    ______ ____

>  <TORSDO>
F 11

$$$$
=
 OpenBabel11072413123D

 34 37  0  0  1  0  0  0  0  0999 V2000
  161.2060  208.0320  150.6320 C   0  0  0  0  0  0  0  0  0  0  0  0
  162.5460  210.5530  151.2170 O   0  0  0  0  0  0  0  0  0  0  0  0
  161.9130  209.9640  152.1330 C   0  0  0  0  0  0  0  0  0  0  0  0
  161.7620  208.5050  149.6070 O   0  0  0  0  0  0  0  0  0  0  0  0
  161.2250  208.7360  151.8780 N   0  0  0  0  0  2  0  0  0  0  0  0
  161.9050  210.5170  153.4490 N   0  0  0  0  0  2  0  0  0  0  0  0
  160.5200  206.7120  150.5560 C   0  0  0  0  0  2  0  0  0  0  0  0
  161.6170  203.8380  148.7270 C   0  0  1  0  0  3  0  0  0  0  0  0
  161.3580  205.3040  148.7180 C   0  0  2  0  0  3  0  0  0  0  0  0
  162.3990  205.9430  147.8190 C   0  0  0  0  0  2  0  0  0  0  0  0
  162.2660  205.4390  146.3680 C   0  0  2  0  0  3  0  0  0  0  0  0
  161.6860  204.0170  146.1940 C   0  0  1  0  0  0  0  0  0  0  0  0
  160.9630  203.3180  149.8480 O   0  0  0  0  0  0  0  0  0  0  0  0
  163.1890  204.2320  146.1780 C   0  0  0  0  0  2  0  0  0  0  0  0
  161.1330  203.2470  147.4150 C   0  0  0  0  0  2  0  0  0  0  0  0
  161.5090  205.6290  150.1640 C   0  0  2  0  0  3  0  0  0  0  0  0
  161.1430  204.3080  150.8380 C   0  0  0  0  0  2  0  0  0  0  0  0
  161.0310  203.7300  144.8300 C   0  0  2  0  0  3  0  0  0  0  0  0
  160.7590  204.9100  144.1260 O   0  0  0  0  0  1  0  0  0  0  0  0
  159.7500  202.9000  144.9730 C   0  0  1  0  0  3  0  0  0  0  0  0
  158.8360  203.2550  143.9810 O   0  0  0  0  0  1  0  0  0  0  0  0
  160.0480  201.4150  144.8520 C   0  0  0  0  0  1  0  0  0  0  0  0
  161.1960  209.9340  154.4460 O   0  0  0  0  0  0  0  0  0  0  0  0
  161.4310  210.7030  155.5380 N   0  0  0  0  0  2  0  0  0  0  0  0
  160.2230  210.6630  156.3510 C   0  0  1  0  0  3  0  0  0  0  0  0
  159.2610  211.7930  155.9540 C   0  0  1  0  0  3  0  0  0  0  0  0
  159.9530  212.7580  155.2160 O   0  0  0  0  0  1  0  0  0  0  0  0
  156.4960  211.6530  155.9040 S   0  0  0  0  0  0  0  0  0  0  0  0
  157.8440  212.1100  153.8900 C   0  0  0  0  0  2  0  0  0  0  0  0
  156.4770  212.5740  154.3390 C   0  0  0  0  0  2  0  0  0  0  0  0
  158.0930  211.2540  155.1190 C   0  0  1  0  0  3  0  0  0  0  0  0
  159.5700  209.2930  156.1940 C   0  0  0  0  0  2  0  0  0  0  0  0
  160.2040  208.2720  157.1260 C   0  0  0  0  0  2  0  0  0  0  0  0
  160.2420  206.9070  156.4670 C   0  0  0  0  0  1  0  0  0  0  0  0
  1  5  1  0  0  0  0
  2  3  2  0  0  0  0
  3  6  1  0  0  0  0
  4  1  2  0  0  0  0
  5  3  1  0  0  0  0
  6 23  1  0  0  0  0
  7  1  1  0  0  0  0
  8 15  1  6  0  0  0
  8 13  1  0  0  0  0
  9 10  1  6  0  0  0
  9  8  1  0  0  0  0
  9 16  1  0  0  0  0
 11 14  1  1  0  0  0
 11 10  1  0  0  0  0
 12 18  1  6  0  0  0
 12 11  1  0  0  0  0
 12 15  1  0  0  0  0
 13 17  1  0  0  0  0
 14 12  1  0  0  0  0
 16  7  1  1  0  0  0
 16 17  1  0  0  0  0
 18 19  1  1  0  0  0
 18 20  1  0  0  0  0
 20 22  1  6  0  0  0
 21 20  1  0  0  0  0
 23 24  1  0  0  0  0
 24 25  1  0  0  0  0
 25 32  1  6  0  0  0
 26 27  1  6  0  0  0
 26 25  1  0  0  0  0
 29 30  1  0  0  0  0
 29 31  1  0  0  0  0
 30 28  1  0  0  0  0
 31 28  1  0  0  0  0
 31 26  1  1  0  0  0
 32 33  1  0  0  0  0
 34 33  1  0  0  0  0
M  END
>  <MODEL>
5

>  <REMARK>
 VINA RESULT:      -5.9      3.620     10.457
  Name = 
  11 active torsions:
  status: ('A' for Active; 'I' for Inactive)
    1  A    between atoms: C_2  and  C_5
    2  A    between atoms: C_2  and  C_28
    3  A    between atoms: C_6  and  C_8
    4  A    between atoms: C_8  and  C_22
    5  A    between atoms: O_13  and  N_31
    6  A    between atoms: O_13  and  N_33
    7  A    between atoms: C_14  and  C_19
    8  A    between atoms: C_14  and  C_21
    9  A    between atoms: C_14  and  N_31
   10  A    between atoms: C_16  and  C_21
   11  A    between atoms: C_19  and  C_23
                            x       y       z     vdW  Elec       q    Type
                         _______ _______ _______ _____ _____    ______ ____

>  <TORSDO>
F 11

$$$$
=
 OpenBabel11072413123D

 34 37  0  0  1  0  0  0  0  0999 V2000
  161.7020  208.6240  150.7430 C   0  0  0  0  0  0  0  0  0  0  0  0
  163.0600  208.3720  148.1760 O   0  0  0  0  0  0  0  0  0  0  0  0
  162.1860  207.5240  148.4980 C   0  0  0  0  0  0  0  0  0  0  0  0
  162.5650  209.5280  150.5880 O   0  0  0  0  0  0  0  0  0  0  0  0
  161.5150  207.6030  149.7590 N   0  0  0  0  0  2  0  0  0  0  0  0
  161.8450  206.4850  147.5810 N   0  0  0  0  0  2  0  0  0  0  0  0
  160.8530  208.6170  151.9660 C   0  0  0  0  0  2  0  0  0  0  0  0
  159.7350  211.6350  153.5330 C   0  0  1  0  0  3  0  0  0  0  0  0
  159.8500  210.1530  153.6100 C   0  0  2  0  0  3  0  0  0  0  0  0
  160.0610  209.7890  155.0670 C   0  0  0  0  0  2  0  0  0  0  0  0
  158.8500  210.2060  155.9250 C   0  0  2  0  0  3  0  0  0  0  0  0
  158.0420  211.4210  155.4150 C   0  0  1  0  0  0  0  0  0  0  0  0
  159.9680  211.9910  152.2010 O   0  0  0  0  0  0  0  0  0  0  0  0
  159.1020  211.6090  156.4860 C   0  0  0  0  0  2  0  0  0  0  0  0
  158.3640  212.0460  154.0380 C   0  0  0  0  0  2  0  0  0  0  0  0
  161.0340  209.9130  152.7370 C   0  0  2  0  0  3  0  0  0  0  0  0
  160.9870  211.1070  151.7850 C   0  0  0  0  0  2  0  0  0  0  0  0
  156.5800  211.4930  155.8920 C   0  0  2  0  0  3  0  0  0  0  0  0
  155.7180  210.8020  155.0310 O   0  0  0  0  0  1  0  0  0  0  0  0
  156.1030  212.9400  156.0570 C   0  0  1  0  0  3  0  0  0  0  0  0
  155.4090  213.3490  154.9170 O   0  0  0  0  0  1  0  0  0  0  0  0
  155.1840  213.0760  157.2610 C   0  0  0  0  0  1  0  0  0  0  0  0
  160.9430  205.5280  147.9150 O   0  0  0  0  0  0  0  0  0  0  0  0
  161.1630  204.5190  147.0350 N   0  0  0  0  0  2  0  0  0  0  0  0
  161.4760  203.3340  147.8220 C   0  0  1  0  0  3  0  0  0  0  0  0
  160.6590  203.3110  149.1220 C   0  0  1  0  0  3  0  0  0  0  0  0
  159.9030  202.1360  149.1800 O   0  0  0  0  0  1  0  0  0  0  0  0
  161.0840  204.7580  151.4450 S   0  0  0  0  0  0  0  0  0  0  0  0
  161.2490  202.2990  151.3580 C   0  0  0  0  0  2  0  0  0  0  0  0
  160.7940  203.2620  152.4310 C   0  0  0  0  0  2  0  0  0  0  0  0
  161.5760  203.3860  150.3500 C   0  0  1  0  0  3  0  0  0  0  0  0
  161.2090  202.0960  146.9710 C   0  0  0  0  0  2  0  0  0  0  0  0
  160.7950  202.4770  145.5590 C   0  0  0  0  0  2  0  0  0  0  0  0
  160.0660  201.3270  144.8920 C   0  0  0  0  0  1  0  0  0  0  0  0
  1  7  1  0  0  0  0
  2  3  2  0  0  0  0
  3  5  1  0  0  0  0
  4  1  2  0  0  0  0
  5  1  1  0  0  0  0
  6 23  1  0  0  0  0
  6  3  1  0  0  0  0
  8  9  1  0  0  0  0
  8 15  1  6  0  0  0
  9 10  1  1  0  0  0
 11 10  1  6  0  0  0
 11 14  1  0  0  0  0
 12 18  1  1  0  0  0
 12 11  1  0  0  0  0
 12 14  1  0  0  0  0
 13  8  1  0  0  0  0
 15 12  1  0  0  0  0
 16  7  1  6  0  0  0
 16  9  1  0  0  0  0
 17 13  1  0  0  0  0
 17 16  1  0  0  0  0
 18 19  1  6  0  0  0
 18 20  1  0  0  0  0
 20 22  1  1  0  0  0
 21 20  1  0  0  0  0
 24 25  1  0  0  0  0
 24 23  1  0  0  0  0
 25 32  1  6  0  0  0
 25 26  1  0  0  0  0
 26 27  1  1  0  0  0
 28 30  1  0  0  0  0
 29 30  1  0  0  0  0
 31 26  1  6  0  0  0
 31 29  1  0  0  0  0
 31 28  1  0  0  0  0
 33 32  1  0  0  0  0
 34 33  1  0  0  0  0
M  END
>  <MODEL>
6

>  <REMARK>
 VINA RESULT:      -5.8      2.394      4.096
  Name = 
  11 active torsions:
  status: ('A' for Active; 'I' for Inactive)
    1  A    between atoms: C_2  and  C_5
    2  A    between atoms: C_2  and  C_28
    3  A    between atoms: C_6  and  C_8
    4  A    between atoms: C_8  and  C_22
    5  A    between atoms: O_13  and  N_31
    6  A    between atoms: O_13  and  N_33
    7  A    between atoms: C_14  and  C_19
    8  A    between atoms: C_14  and  C_21
    9  A    between atoms: C_14  and  N_31
   10  A    between atoms: C_16  and  C_21
   11  A    between atoms: C_19  and  C_23
                            x       y       z     vdW  Elec       q    Type
                         _______ _______ _______ _____ _____    ______ ____

>  <TORSDO>
F 11

$$$$
=
 OpenBabel11072413123D

 34 37  0  0  1  0  0  0  0  0999 V2000
  161.4250  207.8470  151.1040 C   0  0  0  0  0  0  0  0  0  0  0  0
  162.5980  210.3020  152.1520 O   0  0  0  0  0  0  0  0  0  0  0  0
  161.3470  210.1550  152.1770 C   0  0  0  0  0  0  0  0  0  0  0  0
  162.6780  207.8500  150.9760 O   0  0  0  0  0  0  0  0  0  0  0  0
  160.7340  208.9740  151.6520 N   0  0  0  0  0  2  0  0  0  0  0  0
  160.5330  211.1720  152.7610 N   0  0  0  0  0  2  0  0  0  0  0  0
  160.6440  206.6500  150.6870 C   0  0  0  0  0  2  0  0  0  0  0  0
  161.5930  203.7780  148.7730 C   0  0  1  0  0  3  0  0  0  0  0  0
  161.3940  205.2540  148.8020 C   0  0  2  0  0  3  0  0  0  0  0  0
  162.4450  205.8710  147.9010 C   0  0  0  0  0  2  0  0  0  0  0  0
  162.2680  205.4080  146.4410 C   0  0  2  0  0  3  0  0  0  0  0  0
  161.6270  204.0160  146.2440 C   0  0  1  0  0  0  0  0  0  0  0  0
  160.9370  203.2580  149.8920 O   0  0  0  0  0  0  0  0  0  0  0  0
  163.1380  204.1700  146.2070 C   0  0  0  0  0  2  0  0  0  0  0  0
  161.0630  203.2400  147.4560 C   0  0  0  0  0  2  0  0  0  0  0  0
  161.5820  205.5370  150.2530 C   0  0  2  0  0  3  0  0  0  0  0  0
  161.1730  204.2160  150.9020 C   0  0  0  0  0  2  0  0  0  0  0  0
  160.9390  203.7880  144.8850 C   0  0  2  0  0  3  0  0  0  0  0  0
  160.5900  204.9980  144.2710 O   0  0  0  0  0  1  0  0  0  0  0  0
  159.7020  202.8920  145.0130 C   0  0  1  0  0  3  0  0  0  0  0  0
  158.7790  203.2040  144.0140 O   0  0  0  0  0  1  0  0  0  0  0  0
  160.0790  201.4250  144.8860 C   0  0  0  0  0  1  0  0  0  0  0  0
  159.1810  211.0680  152.7620 O   0  0  0  0  0  0  0  0  0  0  0  0
  158.7450  212.1860  153.3950 N   0  0  0  0  0  2  0  0  0  0  0  0
  158.6990  211.8760  154.8170 C   0  0  1  0  0  3  0  0  0  0  0  0
  160.0290  212.2340  155.4970 C   0  0  1  0  0  3  0  0  0  0  0  0
  159.8860  213.4310  156.2050 O   0  0  0  0  0  1  0  0  0  0  0  0
  159.7490  209.5210  155.9780 S   0  0  0  0  0  0  0  0  0  0  0  0
  161.9050  210.6980  156.1970 C   0  0  0  0  0  2  0  0  0  0  0  0
  161.5370  209.2980  155.7610 C   0  0  0  0  0  2  0  0  0  0  0  0
  160.4720  211.1240  156.4590 C   0  0  1  0  0  3  0  0  0  0  0  0
  157.5290  212.6280  155.4460 C   0  0  0  0  0  2  0  0  0  0  0  0
  156.5350  211.6680  156.0800 C   0  0  0  0  0  2  0  0  0  0  0  0
  155.9350  210.7570  155.0280 C   0  0  0  0  0  1  0  0  0  0  0  0
  1  5  1  0  0  0  0
  2  3  2  0  0  0  0
  3  6  1  0  0  0  0
  4  1  2  0  0  0  0
  5  3  1  0  0  0  0
  6 23  1  0  0  0  0
  7  1  1  0  0  0  0
  8 15  1  6  0  0  0
  8  9  1  0  0  0  0
  8 13  1  0  0  0  0
  9 10  1  6  0  0  0
  9 16  1  0  0  0  0
 11 14  1  1  0  0  0
 11 10  1  0  0  0  0
 12 18  1  6  0  0  0
 12 11  1  0  0  0  0
 12 15  1  0  0  0  0
 13 17  1  0  0  0  0
 14 12  1  0  0  0  0
 16  7  1  1  0  0  0
 16 17  1  0  0  0  0
 18 19  1  1  0  0  0
 18 20  1  0  0  0  0
 20 22  1  6  0  0  0
 21 20  1  0  0  0  0
 23 24  1  0  0  0  0
 24 25  1  0  0  0  0
 25 32  1  1  0  0  0
 25 26  1  0  0  0  0
 26 27  1  1  0  0  0
 28 31  1  0  0  0  0
 29 31  1  0  0  0  0
 30 28  1  0  0  0  0
 30 29  1  0  0  0  0
 31 26  1  6  0  0  0
 32 33  1  0  0  0  0
 34 33  1  0  0  0  0
M  END
>  <MODEL>
7

>  <REMARK>
 VINA RESULT:      -5.8      3.395     10.682
  Name = 
  11 active torsions:
  status: ('A' for Active; 'I' for Inactive)
    1  A    between atoms: C_2  and  C_5
    2  A    between atoms: C_2  and  C_28
    3  A    between atoms: C_6  and  C_8
    4  A    between atoms: C_8  and  C_22
    5  A    between atoms: O_13  and  N_31
    6  A    between atoms: O_13  and  N_33
    7  A    between atoms: C_14  and  C_19
    8  A    between atoms: C_14  and  C_21
    9  A    between atoms: C_14  and  N_31
   10  A    between atoms: C_16  and  C_21
   11  A    between atoms: C_19  and  C_23
                            x       y       z     vdW  Elec       q    Type
                         _______ _______ _______ _____ _____    ______ ____

>  <TORSDO>
F 11

$$$$
=
 OpenBabel11072413123D

 34 37  0  0  1  0  0  0  0  0999 V2000
  161.4720  209.5380  154.6230 C   0  0  0  0  0  0  0  0  0  0  0  0
  162.6480  210.3250  152.0740 O   0  0  0  0  0  0  0  0  0  0  0  0
  161.9010  209.3110  152.1230 C   0  0  0  0  0  0  0  0  0  0  0  0
  162.2150  210.5460  154.7510 O   0  0  0  0  0  0  0  0  0  0  0  0
  161.3240  208.8830  153.3600 N   0  0  0  0  0  2  0  0  0  0  0  0
  161.6070  208.5970  150.9230 N   0  0  0  0  0  2  0  0  0  0  0  0
  160.7260  209.0180  155.8020 C   0  0  0  0  0  2  0  0  0  0  0  0
  159.4260  212.3440  156.0480 C   0  0  1  0  0  3  0  0  0  0  0  0
  159.3840  211.0320  155.3460 C   0  0  2  0  0  3  0  0  0  0  0  0
  157.9470  210.7870  154.9280 C   0  0  0  0  0  2  0  0  0  0  0  0
  157.4650  211.8630  153.9330 C   0  0  2  0  0  3  0  0  0  0  0  0
  158.1370  213.2490  154.0550 C   0  0  1  0  0  0  0  0  0  0  0  0
  160.6130  212.3710  156.7860 O   0  0  0  0  0  0  0  0  0  0  0  0
  156.7940  212.9940  154.7170 C   0  0  0  0  0  2  0  0  0  0  0  0
  159.3290  213.4540  155.0180 C   0  0  0  0  0  2  0  0  0  0  0  0
  159.8790  210.1210  156.4150 C   0  0  2  0  0  3  0  0  0  0  0  0
  160.7500  211.0480  157.2600 C   0  0  0  0  0  2  0  0  0  0  0  0
  158.1080  214.1140  152.7810 C   0  0  2  0  0  3  0  0  0  0  0  0
  156.9380  213.9080  152.0400 O   0  0  0  0  0  1  0  0  0  0  0  0
  159.3360  213.8730  151.8980 C   0  0  1  0  0  3  0  0  0  0  0  0
  159.6290  212.5090  151.8470 O   0  0  0  0  0  1  0  0  0  0  0  0
  159.0950  214.3720  150.4820 C   0  0  0  0  0  1  0  0  0  0  0  0
  160.8460  207.4760  150.9470 O   0  0  0  0  0  0  0  0  0  0  0  0
  161.6290  206.5100  150.4050 N   0  0  0  0  0  2  0  0  0  0  0  0
  160.8340  205.8450  149.3820 C   0  0  1  0  0  3  0  0  0  0  0  0
  161.1780  206.3850  147.9860 C   0  0  1  0  0  3  0  0  0  0  0  0
  162.4150  207.0350  148.0280 O   0  0  0  0  0  1  0  0  0  0  0  0
  160.4990  205.7770  145.3710 S   0  0  0  0  0  0  0  0  0  0  0  0
  162.6330  205.0770  146.3920 C   0  0  0  0  0  2  0  0  0  0  0  0
  162.2480  205.4790  144.9860 C   0  0  0  0  0  2  0  0  0  0  0  0
  161.2330  205.2510  146.9550 C   0  0  1  0  0  3  0  0  0  0  0  0
  161.0740  204.3410  149.4750 C   0  0  0  0  0  2  0  0  0  0  0  0
  160.4640  203.7630  150.7420 C   0  0  0  0  0  2  0  0  0  0  0  0
  161.5420  203.1600  151.6210 C   0  0  0  0  0  1  0  0  0  0  0  0
  1  4  2  0  0  0  0
  1  7  1  0  0  0  0
  2  3  2  0  0  0  0
  3  5  1  0  0  0  0
  5  1  1  0  0  0  0
  6 23  1  0  0  0  0
  6  3  1  0  0  0  0
  8 15  1  6  0  0  0
  8 13  1  0  0  0  0
  9 10  1  1  0  0  0
  9  8  1  0  0  0  0
  9 16  1  0  0  0  0
 11 12  1  0  0  0  0
 11 14  1  1  0  0  0
 11 10  1  0  0  0  0
 12 18  1  6  0  0  0
 12 14  1  0  0  0  0
 12 15  1  0  0  0  0
 13 17  1  0  0  0  0
 16  7  1  6  0  0  0
 16 17  1  0  0  0  0
 18 19  1  6  0  0  0
 20 22  1  6  0  0  0
 20 18  1  0  0  0  0
 21 20  1  0  0  0  0
 24 23  1  0  0  0  0
 25 32  1  6  0  0  0
 25 24  1  0  0  0  0
 26 27  1  1  0  0  0
 26 25  1  0  0  0  0
 28 31  1  0  0  0  0
 29 31  1  0  0  0  0
 30 28  1  0  0  0  0
 30 29  1  0  0  0  0
 31 26  1  1  0  0  0
 32 33  1  0  0  0  0
 33 34  1  0  0  0  0
M  END
>  <MODEL>
8

>  <REMARK>
 VINA RESULT:      -5.6      3.235      5.418
  Name = 
  11 active torsions:
  status: ('A' for Active; 'I' for Inactive)
    1  A    between atoms: C_2  and  C_5
    2  A    between atoms: C_2  and  C_28
    3  A    between atoms: C_6  and  C_8
    4  A    between atoms: C_8  and  C_22
    5  A    between atoms: O_13  and  N_31
    6  A    between atoms: O_13  and  N_33
    7  A    between atoms: C_14  and  C_19
    8  A    between atoms: C_14  and  C_21
    9  A    between atoms: C_14  and  N_31
   10  A    between atoms: C_16  and  C_21
   11  A    between atoms: C_19  and  C_23
                            x       y       z     vdW  Elec       q    Type
                         _______ _______ _______ _____ _____    ______ ____

>  <TORSDO>
F 11

$$$$
=
 OpenBabel11072413123D

 34 37  0  0  1  0  0  0  0  0999 V2000
  162.0970  206.7340  148.0480 C   0  0  0  0  0  0  0  0  0  0  0  0
  163.4500  205.2130  145.9610 O   0  0  0  0  0  0  0  0  0  0  0  0
  162.2710  204.9060  146.2830 C   0  0  0  0  0  0  0  0  0  0  0  0
  163.2730  207.1440  147.8700 O   0  0  0  0  0  0  0  0  0  0  0  0
  161.5830  205.6160  147.3180 N   0  0  0  0  0  2  0  0  0  0  0  0
  161.6050  203.8530  145.5880 N   0  0  0  0  0  2  0  0  0  0  0  0
  161.2160  207.4250  149.0300 C   0  0  0  0  0  2  0  0  0  0  0  0
  161.7320  210.0710  151.3850 C   0  0  1  0  0  3  0  0  0  0  0  0
  161.2380  208.6870  151.1440 C   0  0  2  0  0  3  0  0  0  0  0  0
  161.5310  207.8780  152.3930 C   0  0  0  0  0  2  0  0  0  0  0  0
  160.7690  208.4380  153.6100 C   0  0  2  0  0  3  0  0  0  0  0  0
  160.4580  209.9520  153.5790 C   0  0  1  0  0  0  0  0  0  0  0  0
  161.8550  210.6810  150.1320 O   0  0  0  0  0  0  0  0  0  0  0  0
  161.6700  209.4410  154.3380 C   0  0  0  0  0  2  0  0  0  0  0  0
  160.7630  210.7820  152.3110 C   0  0  0  0  0  2  0  0  0  0  0  0
  162.0460  208.2990  149.9540 C   0  0  2  0  0  3  0  0  0  0  0  0
  162.3290  209.6470  149.2950 C   0  0  0  0  0  2  0  0  0  0  0  0
  159.2630  210.4020  154.4400 C   0  0  2  0  0  3  0  0  0  0  0  0
  158.3360  211.1420  153.6940 O   0  0  0  0  0  1  0  0  0  0  0  0
  159.7100  211.2060  155.6640 C   0  0  1  0  0  3  0  0  0  0  0  0
  160.0840  212.4960  155.2800 O   0  0  0  0  0  1  0  0  0  0  0  0
  158.5910  211.3090  156.6870 C   0  0  0  0  0  1  0  0  0  0  0  0
  160.3550  203.4660  145.9400 O   0  0  0  0  0  0  0  0  0  0  0  0
  160.4000  202.1100  145.9540 N   0  0  0  0  0  2  0  0  0  0  0  0
  161.1080  201.7220  147.1660 C   0  0  1  0  0  3  0  0  0  0  0  0
  160.4030  202.2820  148.4110 C   0  0  1  0  0  3  0  0  0  0  0  0
  159.5250  201.3230  148.9240 O   0  0  0  0  0  1  0  0  0  0  0  0
  160.8250  204.0910  150.4660 S   0  0  0  0  0  0  0  0  0  0  0  0
  161.3910  201.6970  150.6590 C   0  0  0  0  0  2  0  0  0  0  0  0
  160.8980  202.7220  151.6560 C   0  0  0  0  0  2  0  0  0  0  0  0
  161.4210  202.6680  149.4920 C   0  0  1  0  0  3  0  0  0  0  0  0
  161.2020  200.2000  147.2140 C   0  0  0  0  0  2  0  0  0  0  0  0
  160.8500  199.5850  145.8690 C   0  0  0  0  0  2  0  0  0  0  0  0
  161.6570  198.3220  145.6380 C   0  0  0  0  0  1  0  0  0  0  0  0
  1  7  1  0  0  0  0
  2  3  2  0  0  0  0
  3  5  1  0  0  0  0
  4  1  2  0  0  0  0
  5  1  1  0  0  0  0
  6 23  1  0  0  0  0
  6  3  1  0  0  0  0
  8 15  1  1  0  0  0
  9  8  1  0  0  0  0
  9 10  1  1  0  0  0
 11 10  1  6  0  0  0
 11 14  1  0  0  0  0
 12 11  1  0  0  0  0
 12 14  1  0  0  0  0
 12 18  1  1  0  0  0
 13  8  1  0  0  0  0
 15 12  1  0  0  0  0
 16  7  1  6  0  0  0
 16  9  1  0  0  0  0
 17 16  1  0  0  0  0
 17 13  1  0  0  0  0
 18 19  1  6  0  0  0
 18 20  1  0  0  0  0
 20 22  1  1  0  0  0
 21 20  1  0  0  0  0
 23 24  1  0  0  0  0
 24 25  1  0  0  0  0
 25 32  1  1  0  0  0
 25 26  1  0  0  0  0
 26 27  1  1  0  0  0
 28 30  1  0  0  0  0
 29 30  1  0  0  0  0
 31 26  1  6  0  0  0
 31 28  1  0  0  0  0
 31 29  1  0  0  0  0
 33 32  1  0  0  0  0
 34 33  1  0  0  0  0
M  END
>  <MODEL>
9

>  <REMARK>
 VINA RESULT:      -5.5      1.997      3.131
  Name = 
  11 active torsions:
  status: ('A' for Active; 'I' for Inactive)
    1  A    between atoms: C_2  and  C_5
    2  A    between atoms: C_2  and  C_28
    3  A    between atoms: C_6  and  C_8
    4  A    between atoms: C_8  and  C_22
    5  A    between atoms: O_13  and  N_31
    6  A    between atoms: O_13  and  N_33
    7  A    between atoms: C_14  and  C_19
    8  A    between atoms: C_14  and  C_21
    9  A    between atoms: C_14  and  N_31
   10  A    between atoms: C_16  and  C_21
   11  A    between atoms: C_19  and  C_23
                            x       y       z     vdW  Elec       q    Type
                         _______ _______ _______ _____ _____    ______ ____

>  <TORSDO>
F 11

$$$$
