=
 OpenBabel11072414143D

 34 38  0  0  1  0  0  0  0  0999 V2000
  161.0840  203.2940  146.6730 C   0  0  2  0  0  3  0  0  0  0  0  0
  162.1780  204.5850  144.8680 C   0  0  0  0  0  1  0  0  0  0  0  0
  160.8160  200.9720  147.5600 C   0  0  0  0  0  2  0  0  0  0  0  0
  161.1110  203.7520  147.9110 C   0  0  0  0  0  0  0  0  0  0  0  0
  160.8490  205.5710  146.7120 C   0  0  2  0  0  3  0  0  0  0  0  0
  161.2500  201.8300  146.3580 C   0  0  1  0  0  3  0  0  0  0  0  0
  160.6270  206.8980  146.3660 O   0  0  0  0  0  1  0  0  0  0  0  0
  161.2130  202.9620  149.0500 C   0  0  0  0  0  0  0  0  0  0  0  0
  160.7880  205.6830  151.7140 C   0  0  0  0  0  2  0  0  0  0  0  0
  160.4520  201.4730  145.1970 N   0  0  0  0  0  1  0  0  0  0  0  0
  161.4290  201.4760  148.8800 C   0  0  0  0  0  2  0  0  0  0  0  0
  160.9310  204.4420  145.7210 C   0  0  2  0  0  3  0  0  0  0  0  0
  161.0110  205.0150  150.3790 C   0  0  0  0  0  0  0  0  0  0  0  0
  161.3570  204.8750  152.8730 C   0  0  2  0  0  3  0  0  0  0  0  0
  160.8060  203.4600  152.8020 C   0  0  0  0  0  2  0  0  0  0  0  0
  161.3450  202.7700  151.5560 C   0  0  0  0  0  2  0  0  0  0  0  0
  161.1550  203.5950  150.3070 C   0  0  0  0  0  0  0  0  0  0  0  0
  160.9430  205.7920  149.1890 C   0  0  0  0  0  0  0  0  0  0  0  0
  160.9730  205.1130  147.9560 C   0  0  0  0  0  0  0  0  0  0  0  0
  160.8310  207.2970  149.2480 C   0  0  0  0  0  2  0  0  0  0  0  0
  162.1690  208.0190  149.4680 C   0  0  1  0  0  3  0  0  0  0  0  0
  162.4070  209.1350  148.4680 C   0  0  0  0  0  1  0  0  0  0  0  0
  162.3310  208.5440  150.8820 C   0  0  0  0  0  2  0  0  0  0  0  0
  161.9580  210.3260  150.9170 S   0  0  0  0  0  0  0  0  0  0  0  0
  161.6780  210.6230  156.1840 C   0  0  0  0  0  1  0  0  0  0  0  0
  159.0850  211.3990  153.5050 C   0  0  0  0  0  3  0  0  0  0  0  0
  161.1150  211.1750  154.8920 C   0  0  1  0  0  3  0  0  0  0  0  0
  161.0020  210.2610  152.4690 C   0  0  2  0  0  3  0  0  0  0  0  0
  159.7510  211.0960  152.3870 C   0  0  0  0  0  3  0  0  0  0  0  0
  161.8810  210.5870  153.6930 C   0  0  0  0  0  2  0  0  0  0  0  0
  159.6080  210.9180  154.8250 C   0  0  0  0  0  2  0  0  0  0  0  0
  160.9600  205.5330  154.1850 C   0  0  0  0  0  2  0  0  0  0  0  0
  160.3040  207.6250  155.2470 N   0  0  0  0  0  1  0  0  0  0  0  0
  160.8310  207.0400  154.0270 C   0  0  0  0  0  2  0  0  0  0  0  0
  1  4  1  6  0  0  0
  3 11  1  0  0  0  0
  4 19  2  0  0  0  0
  4  8  1  0  0  0  0
  5  7  1  1  0  0  0
  5 19  1  0  0  0  0
  6 10  1  6  0  0  0
  6  1  1  0  0  0  0
  6  3  1  0  0  0  0
  8 17  2  0  0  0  0
  9 14  1  0  0  0  0
 11  8  1  0  0  0  0
 12  2  1  6  0  0  0
 12  1  1  0  0  0  0
 12  5  1  0  0  0  0
 13  9  1  0  0  0  0
 14 32  1  1  0  0  0
 15 14  1  0  0  0  0
 16 15  1  0  0  0  0
 17 13  1  0  0  0  0
 17 16  1  0  0  0  0
 18 20  1  0  0  0  0
 18 13  2  0  0  0  0
 19 18  1  0  0  0  0
 20 21  1  0  0  0  0
 21 22  1  6  0  0  0
 21 23  1  0  0  0  0
 23 24  1  0  0  0  0
 26 31  1  0  0  0  0
 27 25  1  1  0  0  0
 28 24  1  6  0  0  0
 28 30  1  0  0  0  0
 29 28  1  0  0  0  0
 29 26  2  0  0  0  0
 30 27  1  0  0  0  0
 31 27  1  0  0  0  0
 34 32  1  0  0  0  0
 34 33  1  0  0  0  0
M  END
>  <MODEL>
1

>  <REMARK>
 VINA RESULT:      -9.2      0.000      0.000
  Name = 
  7 active torsions:
  status: ('A' for Active; 'I' for Inactive)
    1  A    between atoms: C_1  and  C_6
    2  A    between atoms: C_1  and  C_12
    3  A    between atoms: C_6  and  S_31
    4  A    between atoms: C_7  and  C_14
    5  A    between atoms: C_12  and  C_33
    6  A    between atoms: C_14  and  C_25
    7  A    between atoms: C_17  and  S_31
                            x       y       z     vdW  Elec       q    Type
                         _______ _______ _______ _____ _____    ______ ____

>  <TORSDO>
F 7

$$$$
=
 OpenBabel11072414143D

 34 38  0  0  1  0  0  0  0  0999 V2000
  161.1270  203.1550  146.9290 C   0  0  2  0  0  3  0  0  0  0  0  0
  162.2310  204.1950  144.9740 C   0  0  0  0  0  1  0  0  0  0  0  0
  160.8540  200.9720  148.1160 C   0  0  0  0  0  2  0  0  0  0  0  0
  161.1460  203.7750  148.0940 C   0  0  0  0  0  0  0  0  0  0  0  0
  160.8900  205.4180  146.6610 C   0  0  2  0  0  3  0  0  0  0  0  0
  161.2950  201.6630  146.8130 C   0  0  1  0  0  3  0  0  0  0  0  0
  160.6700  206.6860  146.1390 O   0  0  0  0  0  1  0  0  0  0  0  0
  161.2410  203.1440  149.3290 C   0  0  0  0  0  0  0  0  0  0  0  0
  160.7990  206.1960  151.6030 C   0  0  0  0  0  2  0  0  0  0  0  0
  160.5050  201.1530  145.7060 N   0  0  0  0  0  1  0  0  0  0  0  0
  161.4590  201.6500  149.3600 C   0  0  0  0  0  2  0  0  0  0  0  0
  160.9790  204.1660  145.8310 C   0  0  2  0  0  3  0  0  0  0  0  0
  161.0300  205.3570  150.3700 C   0  0  0  0  0  0  0  0  0  0  0  0
  161.3610  205.5520  152.8630 C   0  0  2  0  0  3  0  0  0  0  0  0
  160.8110  204.1390  152.9790 C   0  0  0  0  0  2  0  0  0  0  0  0
  161.3580  203.2900  151.8390 C   0  0  0  0  0  2  0  0  0  0  0  0
  161.1750  203.9390  150.4900 C   0  0  0  0  0  0  0  0  0  0  0  0
  160.9690  205.9670  149.0870 C   0  0  0  0  0  0  0  0  0  0  0  0
  161.0070  205.1290  147.9560 C   0  0  0  0  0  0  0  0  0  0  0  0
  160.8560  207.4660  148.9440 C   0  0  0  0  0  2  0  0  0  0  0  0
  162.1860  208.2170  149.1110 C   0  0  1  0  0  3  0  0  0  0  0  0
  163.3560  207.4930  148.4690 C   0  0  0  0  0  1  0  0  0  0  0  0
  162.1230  209.6490  148.6140 C   0  0  0  0  0  2  0  0  0  0  0  0
  161.8920  210.7740  150.0270 S   0  0  0  0  0  0  0  0  0  0  0  0
  160.9790  213.0740  145.3600 C   0  0  0  0  0  1  0  0  0  0  0  0
  160.1100  214.1870  148.8970 C   0  0  0  0  0  3  0  0  0  0  0  0
  160.4910  212.9610  146.7880 C   0  0  1  0  0  3  0  0  0  0  0  0
  161.6370  212.2640  149.0070 C   0  0  2  0  0  3  0  0  0  0  0  0
  160.6330  213.1990  149.6280 C   0  0  0  0  0  3  0  0  0  0  0  0
  161.3190  211.9030  147.5420 C   0  0  0  0  0  2  0  0  0  0  0  0
  160.5180  214.3340  147.4620 C   0  0  0  0  0  2  0  0  0  0  0  0
  160.9560  206.3780  154.0720 C   0  0  0  0  0  2  0  0  0  0  0  0
  161.1880  208.6640  154.8830 N   0  0  0  0  0  1  0  0  0  0  0  0
  160.8610  207.8550  153.7220 C   0  0  0  0  0  2  0  0  0  0  0  0
  1  4  1  6  0  0  0
  3 11  1  0  0  0  0
  4  8  1  0  0  0  0
  5  7  1  1  0  0  0
  5 19  1  0  0  0  0
  6 10  1  6  0  0  0
  6  1  1  0  0  0  0
  6  3  1  0  0  0  0
  8 11  1  0  0  0  0
  8 17  2  0  0  0  0
  9 14  1  0  0  0  0
 12  2  1  6  0  0  0
 12  5  1  0  0  0  0
 12  1  1  0  0  0  0
 13 17  1  0  0  0  0
 13  9  1  0  0  0  0
 14 15  1  0  0  0  0
 14 32  1  1  0  0  0
 16 15  1  0  0  0  0
 17 16  1  0  0  0  0
 18 13  2  0  0  0  0
 19  4  2  0  0  0  0
 19 18  1  0  0  0  0
 20 18  1  0  0  0  0
 20 21  1  0  0  0  0
 21 22  1  6  0  0  0
 23 21  1  0  0  0  0
 23 24  1  0  0  0  0
 26 29  2  0  0  0  0
 27 25  1  6  0  0  0
 27 31  1  0  0  0  0
 27 30  1  0  0  0  0
 28 29  1  0  0  0  0
 28 24  1  1  0  0  0
 30 28  1  0  0  0  0
 31 26  1  0  0  0  0
 34 32  1  0  0  0  0
 34 33  1  0  0  0  0
M  END
>  <MODEL>
2

>  <REMARK>
 VINA RESULT:      -8.8      2.074      3.331
  Name = 
  7 active torsions:
  status: ('A' for Active; 'I' for Inactive)
    1  A    between atoms: C_1  and  C_6
    2  A    between atoms: C_1  and  C_12
    3  A    between atoms: C_6  and  S_31
    4  A    between atoms: C_7  and  C_14
    5  A    between atoms: C_12  and  C_33
    6  A    between atoms: C_14  and  C_25
    7  A    between atoms: C_17  and  S_31
                            x       y       z     vdW  Elec       q    Type
                         _______ _______ _______ _____ _____    ______ ____

>  <TORSDO>
F 7

$$$$
=
 OpenBabel11072414143D

 34 38  0  0  1  0  0  0  0  0999 V2000
  161.3840  209.2410  153.0210 C   0  0  2  0  0  3  0  0  0  0  0  0
  160.5660  211.2850  151.8910 C   0  0  0  0  0  1  0  0  0  0  0  0
  161.3300  208.0370  155.2110 C   0  0  0  0  0  2  0  0  0  0  0  0
  161.3250  208.0820  152.3930 C   0  0  0  0  0  0  0  0  0  0  0  0
  161.8690  209.4850  150.7960 C   0  0  2  0  0  3  0  0  0  0  0  0
  161.0770  209.3740  154.4900 C   0  0  1  0  0  3  0  0  0  0  0  0
  162.2610  209.9840  149.5600 O   0  0  0  0  0  1  0  0  0  0  0  0
  161.0580  206.8610  153.0020 C   0  0  0  0  0  0  0  0  0  0  0  0
  161.6040  204.5530  149.9910 C   0  0  0  0  0  2  0  0  0  0  0  0
  161.9060  210.4070  155.0850 N   0  0  0  0  0  1  0  0  0  0  0  0
  160.6890  206.8500  154.4660 C   0  0  0  0  0  2  0  0  0  0  0  0
  161.7290  210.3210  152.0390 C   0  0  2  0  0  3  0  0  0  0  0  0
  161.3990  205.8030  150.8130 C   0  0  0  0  0  0  0  0  0  0  0  0
  160.8710  203.3490  150.5660 C   0  0  2  0  0  3  0  0  0  0  0  0
  161.2650  203.1860  152.0260 C   0  0  0  0  0  2  0  0  0  0  0  0
  160.7370  204.3710  152.8250 C   0  0  0  0  0  2  0  0  0  0  0  0
  161.1020  205.6980  152.2080 C   0  0  0  0  0  0  0  0  0  0  0  0
  161.6330  207.0750  150.2220 C   0  0  0  0  0  0  0  0  0  0  0  0
  161.6110  208.2050  151.0610 C   0  0  0  0  0  0  0  0  0  0  0  0
  161.9090  207.2060  148.7430 C   0  0  0  0  0  2  0  0  0  0  0  0
  161.2760  206.1010  147.8850 C   0  0  1  0  0  3  0  0  0  0  0  0
  160.2600  206.6340  146.8920 C   0  0  0  0  0  1  0  0  0  0  0  0
  162.3050  205.2470  147.1680 C   0  0  0  0  0  2  0  0  0  0  0  0
  162.2150  205.5600  145.3760 S   0  0  0  0  0  0  0  0  0  0  0  0
  161.2610  200.5040  146.5730 C   0  0  0  0  0  1  0  0  0  0  0  0
  159.3320  202.9520  144.3840 C   0  0  0  0  0  3  0  0  0  0  0  0
  160.6180  201.8090  146.1550 C   0  0  1  0  0  3  0  0  0  0  0  0
  161.5120  203.9290  144.9620 C   0  0  2  0  0  3  0  0  0  0  0  0
  160.0970  204.0450  144.4600 C   0  0  0  0  0  3  0  0  0  0  0  0
  161.6750  202.9280  146.1230 C   0  0  0  0  0  2  0  0  0  0  0  0
  159.8920  201.6310  144.8200 C   0  0  0  0  0  2  0  0  0  0  0  0
  161.2500  202.1070  149.7750 C   0  0  0  0  0  2  0  0  0  0  0  0
  158.9870  201.3370  149.3040 N   0  0  0  0  0  1  0  0  0  0  0  0
  160.2310  200.9970  149.9730 C   0  0  0  0  0  2  0  0  0  0  0  0
  1  4  1  6  0  0  0
  1  6  1  0  0  0  0
  4  8  1  0  0  0  0
  5  7  1  1  0  0  0
  5 19  1  0  0  0  0
  5 12  1  0  0  0  0
  6 10  1  1  0  0  0
  6  3  1  0  0  0  0
  8 11  1  0  0  0  0
  9 14  1  0  0  0  0
  9 13  1  0  0  0  0
 11  3  1  0  0  0  0
 12  2  1  6  0  0  0
 12  1  1  0  0  0  0
 13 17  1  0  0  0  0
 14 32  1  6  0  0  0
 14 15  1  0  0  0  0
 15 16  1  0  0  0  0
 17 16  1  0  0  0  0
 17  8  2  0  0  0  0
 18 13  2  0  0  0  0
 18 19  1  0  0  0  0
 19  4  2  0  0  0  0
 20 18  1  0  0  0  0
 21 22  1  6  0  0  0
 21 20  1  0  0  0  0
 23 21  1  0  0  0  0
 24 23  1  0  0  0  0
 26 29  2  0  0  0  0
 26 31  1  0  0  0  0
 27 25  1  6  0  0  0
 28 24  1  1  0  0  0
 28 30  1  0  0  0  0
 29 28  1  0  0  0  0
 30 27  1  0  0  0  0
 31 27  1  0  0  0  0
 32 34  1  0  0  0  0
 33 34  1  0  0  0  0
M  END
>  <MODEL>
3

>  <REMARK>
 VINA RESULT:      -8.7      2.139      8.011
  Name = 
  7 active torsions:
  status: ('A' for Active; 'I' for Inactive)
    1  A    between atoms: C_1  and  C_6
    2  A    between atoms: C_1  and  C_12
    3  A    between atoms: C_6  and  S_31
    4  A    between atoms: C_7  and  C_14
    5  A    between atoms: C_12  and  C_33
    6  A    between atoms: C_14  and  C_25
    7  A    between atoms: C_17  and  S_31
                            x       y       z     vdW  Elec       q    Type
                         _______ _______ _______ _____ _____    ______ ____

>  <TORSDO>
F 7

$$$$
=
 OpenBabel11072414143D

 34 38  0  0  1  0  0  0  0  0999 V2000
  161.1150  203.2680  148.3540 C   0  0  2  0  0  3  0  0  0  0  0  0
  162.2330  203.7340  146.1960 C   0  0  0  0  0  1  0  0  0  0  0  0
  160.8200  201.4860  150.0830 C   0  0  0  0  0  2  0  0  0  0  0  0
  161.1370  204.1780  149.3090 C   0  0  0  0  0  0  0  0  0  0  0  0
  160.9000  205.3760  147.4870 C   0  0  2  0  0  3  0  0  0  0  0  0
  161.2700  201.7970  148.6440 C   0  0  1  0  0  3  0  0  0  0  0  0
  160.6920  206.4600  146.6420 O   0  0  0  0  0  1  0  0  0  0  0  0
  161.2240  203.9010  150.6690 C   0  0  0  0  0  0  0  0  0  0  0  0
  160.8040  207.4560  152.0370 C   0  0  0  0  0  2  0  0  0  0  0  0
  160.4780  201.0150  147.7110 N   0  0  0  0  0  1  0  0  0  0  0  0
  161.4290  202.4680  151.1020 C   0  0  0  0  0  2  0  0  0  0  0  0
  160.9780  203.9470  147.0240 C   0  0  2  0  0  3  0  0  0  0  0  0
  161.0310  206.3140  151.0760 C   0  0  0  0  0  0  0  0  0  0  0  0
  161.3580  207.1690  153.4260 C   0  0  2  0  0  3  0  0  0  0  0  0
  160.7950  205.8440  153.9150 C   0  0  0  0  0  2  0  0  0  0  0  0
  161.3370  204.7150  153.0480 C   0  0  0  0  0  2  0  0  0  0  0  0
  161.1630  204.9800  151.5730 C   0  0  0  0  0  0  0  0  0  0  0  0
  160.9780  206.5570  149.6760 C   0  0  0  0  0  0  0  0  0  0  0  0
  161.0110  205.4460  148.8120 C   0  0  0  0  0  0  0  0  0  0  0  0
  160.8790  207.9630  149.1350 C   0  0  0  0  0  2  0  0  0  0  0  0
  162.2260  208.6930  149.0280 C   0  0  1  0  0  3  0  0  0  0  0  0
  163.2620  207.9080  148.2440 C   0  0  0  0  0  1  0  0  0  0  0  0
  162.0960  210.0940  148.4610 C   0  0  0  0  0  2  0  0  0  0  0  0
  161.9090  211.2880  149.8230 S   0  0  0  0  0  0  0  0  0  0  0  0
  160.3510  213.1630  145.1360 C   0  0  0  0  0  1  0  0  0  0  0  0
  159.5520  214.3250  148.6740 C   0  0  0  0  0  3  0  0  0  0  0  0
  159.9800  213.0560  146.6000 C   0  0  1  0  0  3  0  0  0  0  0  0
  161.3620  212.6640  148.7590 C   0  0  2  0  0  3  0  0  0  0  0  0
  160.2680  213.4690  149.4090 C   0  0  0  0  0  3  0  0  0  0  0  0
  161.0090  212.1790  147.3380 C   0  0  0  0  0  2  0  0  0  0  0  0
  159.8390  214.4530  147.2070 C   0  0  0  0  0  2  0  0  0  0  0  0
  160.9570  208.2940  154.3670 C   0  0  0  0  0  2  0  0  0  0  0  0
  161.7190  208.3250  156.6820 N   0  0  0  0  0  1  0  0  0  0  0  0
  160.7250  207.7740  155.7770 C   0  0  0  0  0  2  0  0  0  0  0  0
  1  6  1  0  0  0  0
  1  4  1  6  0  0  0
  3 11  1  0  0  0  0
  4  8  1  0  0  0  0
  5  7  1  1  0  0  0
  5 19  1  0  0  0  0
  6 10  1  6  0  0  0
  6  3  1  0  0  0  0
  8 11  1  0  0  0  0
  8 17  2  0  0  0  0
  9 14  1  0  0  0  0
 12  2  1  6  0  0  0
 12  5  1  0  0  0  0
 12  1  1  0  0  0  0
 13 17  1  0  0  0  0
 13  9  1  0  0  0  0
 14 15  1  0  0  0  0
 14 32  1  1  0  0  0
 16 15  1  0  0  0  0
 17 16  1  0  0  0  0
 18 13  2  0  0  0  0
 19  4  2  0  0  0  0
 19 18  1  0  0  0  0
 20 18  1  0  0  0  0
 21 22  1  6  0  0  0
 21 20  1  0  0  0  0
 23 21  1  0  0  0  0
 23 24  1  0  0  0  0
 26 29  2  0  0  0  0
 27 25  1  6  0  0  0
 27 31  1  0  0  0  0
 27 30  1  0  0  0  0
 28 29  1  0  0  0  0
 28 24  1  1  0  0  0
 30 28  1  0  0  0  0
 31 26  1  0  0  0  0
 32 34  1  0  0  0  0
 34 33  1  0  0  0  0
M  END
>  <MODEL>
4

>  <REMARK>
 VINA RESULT:      -8.3      2.393      3.764
  Name = 
  7 active torsions:
  status: ('A' for Active; 'I' for Inactive)
    1  A    between atoms: C_1  and  C_6
    2  A    between atoms: C_1  and  C_12
    3  A    between atoms: C_6  and  S_31
    4  A    between atoms: C_7  and  C_14
    5  A    between atoms: C_12  and  C_33
    6  A    between atoms: C_14  and  C_25
    7  A    between atoms: C_17  and  S_31
                            x       y       z     vdW  Elec       q    Type
                         _______ _______ _______ _____ _____    ______ ____

>  <TORSDO>
F 7

$$$$
=
 OpenBabel11072414143D

 34 38  0  0  1  0  0  0  0  0999 V2000
  161.0890  203.2460  148.2490 C   0  0  2  0  0  3  0  0  0  0  0  0
  162.1720  203.7160  146.0750 C   0  0  0  0  0  1  0  0  0  0  0  0
  160.8310  201.4660  149.9860 C   0  0  0  0  0  2  0  0  0  0  0  0
  161.1180  204.1580  149.2030 C   0  0  0  0  0  0  0  0  0  0  0  0
  160.8460  205.3510  147.3820 C   0  0  2  0  0  3  0  0  0  0  0  0
  161.2580  201.7770  148.5400 C   0  0  1  0  0  3  0  0  0  0  0  0
  160.6190  206.4310  146.5380 O   0  0  0  0  0  1  0  0  0  0  0  0
  161.2270  203.8850  150.5620 C   0  0  0  0  0  0  0  0  0  0  0  0
  160.8030  207.4400  151.9290 C   0  0  0  0  0  2  0  0  0  0  0  0
  160.4570  200.9880  147.6210 N   0  0  0  0  0  1  0  0  0  0  0  0
  161.4470  202.4540  150.9950 C   0  0  0  0  0  2  0  0  0  0  0  0
  160.9280  203.9210  146.9210 C   0  0  2  0  0  3  0  0  0  0  0  0
  161.0230  206.2970  150.9670 C   0  0  0  0  0  0  0  0  0  0  0  0
  161.3790  207.1590  153.3100 C   0  0  2  0  0  3  0  0  0  0  0  0
  160.8310  205.8310  153.8100 C   0  0  0  0  0  2  0  0  0  0  0  0
  161.3680  204.7040  152.9370 C   0  0  0  0  0  2  0  0  0  0  0  0
  161.1710  204.9650  151.4640 C   0  0  0  0  0  0  0  0  0  0  0  0
  160.9490  206.5370  149.5670 C   0  0  0  0  0  0  0  0  0  0  0  0
  160.9760  205.4240  148.7050 C   0  0  0  0  0  0  0  0  0  0  0  0
  160.8320  207.9410  149.0240 C   0  0  0  0  0  2  0  0  0  0  0  0
  162.1600  208.7120  148.9810 C   0  0  1  0  0  3  0  0  0  0  0  0
  163.2600  207.9510  148.2650 C   0  0  0  0  0  1  0  0  0  0  0  0
  162.0180  210.1020  148.3910 C   0  0  0  0  0  2  0  0  0  0  0  0
  161.9560  211.3310  149.7320 S   0  0  0  0  0  0  0  0  0  0  0  0
  162.7060  213.8830  145.1690 C   0  0  0  0  0  1  0  0  0  0  0  0
  159.7530  213.8980  147.5740 C   0  0  0  0  0  3  0  0  0  0  0  0
  161.6550  213.3290  146.1060 C   0  0  1  0  0  3  0  0  0  0  0  0
  161.6540  212.7550  148.6350 C   0  0  2  0  0  3  0  0  0  0  0  0
  160.1880  213.0850  148.5410 C   0  0  0  0  0  3  0  0  0  0  0  0
  162.3320  212.5700  147.2620 C   0  0  0  0  0  2  0  0  0  0  0  0
  160.7350  214.4530  146.5850 C   0  0  0  0  0  2  0  0  0  0  0  0
  160.9840  208.2830  154.2540 C   0  0  0  0  0  2  0  0  0  0  0  0
  160.3120  210.6200  154.4150 N   0  0  0  0  0  1  0  0  0  0  0  0
  160.6970  209.5670  153.4910 C   0  0  0  0  0  2  0  0  0  0  0  0
  1  6  1  0  0  0  0
  1  4  1  6  0  0  0
  3 11  1  0  0  0  0
  4  8  1  0  0  0  0
  5  7  1  1  0  0  0
  5 19  1  0  0  0  0
  6 10  1  6  0  0  0
  6  3  1  0  0  0  0
  8 11  1  0  0  0  0
  8 17  2  0  0  0  0
  9 14  1  0  0  0  0
 12  2  1  6  0  0  0
 12  5  1  0  0  0  0
 12  1  1  0  0  0  0
 13 17  1  0  0  0  0
 13  9  1  0  0  0  0
 14 15  1  0  0  0  0
 14 32  1  1  0  0  0
 16 15  1  0  0  0  0
 17 16  1  0  0  0  0
 18 13  2  0  0  0  0
 19  4  2  0  0  0  0
 19 18  1  0  0  0  0
 20 18  1  0  0  0  0
 21 22  1  6  0  0  0
 21 20  1  0  0  0  0
 23 21  1  0  0  0  0
 23 24  1  0  0  0  0
 26 29  2  0  0  0  0
 27 25  1  6  0  0  0
 27 31  1  0  0  0  0
 27 30  1  0  0  0  0
 28 24  1  1  0  0  0
 29 28  1  0  0  0  0
 30 28  1  0  0  0  0
 31 26  1  0  0  0  0
 34 32  1  0  0  0  0
 34 33  1  0  0  0  0
M  END
>  <MODEL>
5

>  <REMARK>
 VINA RESULT:      -8.2      2.474      3.929
  Name = 
  7 active torsions:
  status: ('A' for Active; 'I' for Inactive)
    1  A    between atoms: C_1  and  C_6
    2  A    between atoms: C_1  and  C_12
    3  A    between atoms: C_6  and  S_31
    4  A    between atoms: C_7  and  C_14
    5  A    between atoms: C_12  and  C_33
    6  A    between atoms: C_14  and  C_25
    7  A    between atoms: C_17  and  S_31
                            x       y       z     vdW  Elec       q    Type
                         _______ _______ _______ _____ _____    ______ ____

>  <TORSDO>
F 7

$$$$
=
 OpenBabel11072414143D

 34 38  0  0  1  0  0  0  0  0999 V2000
  158.9430  211.4970  154.1480 C   0  0  2  0  0  3  0  0  0  0  0  0
  160.1510  210.5690  156.0970 C   0  0  0  0  0  1  0  0  0  0  0  0
  157.2910  213.2580  153.5010 C   0  0  0  0  0  2  0  0  0  0  0  0
  159.5920  211.7060  153.0180 C   0  0  0  0  0  0  0  0  0  0  0  0
  160.4640  209.8310  153.7530 C   0  0  2  0  0  3  0  0  0  0  0  0
  157.9060  212.4600  154.6650 C   0  0  1  0  0  3  0  0  0  0  0  0
  161.2060  208.6580  153.8090 O   0  0  0  0  0  1  0  0  0  0  0  0
  159.3550  212.7640  152.1480 C   0  0  0  0  0  0  0  0  0  0  0  0
  161.7090  211.7450  149.3000 C   0  0  0  0  0  2  0  0  0  0  0  0
  156.8550  211.7380  155.3620 N   0  0  0  0  0  1  0  0  0  0  0  0
  158.3690  213.8310  152.5620 C   0  0  0  0  0  2  0  0  0  0  0  0
  159.4540  210.2420  154.7890 C   0  0  2  0  0  3  0  0  0  0  0  0
  161.0440  211.7920  150.6550 C   0  0  0  0  0  0  0  0  0  0  0  0
  161.7630  213.1110  148.6290 C   0  0  2  0  0  3  0  0  0  0  0  0
  160.3600  213.6970  148.5960 C   0  0  0  0  0  2  0  0  0  0  0  0
  159.9030  213.9900  150.0190 C   0  0  0  0  0  2  0  0  0  0  0  0
  160.0820  212.8100  150.9420 C   0  0  0  0  0  0  0  0  0  0  0  0
  161.2800  210.7440  151.5870 C   0  0  0  0  0  0  0  0  0  0  0  0
  160.5070  210.7210  152.7630 C   0  0  0  0  0  0  0  0  0  0  0  0
  162.3210  209.6830  151.3160 C   0  0  0  0  0  2  0  0  0  0  0  0
  161.7970  208.4750  150.5250 C   0  0  1  0  0  3  0  0  0  0  0  0
  161.9560  208.6390  149.0250 C   0  0  0  0  0  1  0  0  0  0  0  0
  162.4120  207.1630  150.9740 C   0  0  0  0  0  2  0  0  0  0  0  0
  161.0950  206.0180  151.4930 S   0  0  0  0  0  0  0  0  0  0  0  0
  160.8300  201.0350  149.7610 C   0  0  0  0  0  1  0  0  0  0  0  0
  161.1980  204.3150  147.8610 C   0  0  0  0  0  3  0  0  0  0  0  0
  160.5710  202.4780  149.3880 C   0  0  1  0  0  3  0  0  0  0  0  0
  161.5030  204.7340  150.2640 C   0  0  2  0  0  3  0  0  0  0  0  0
  161.2340  205.2030  148.8590 C   0  0  0  0  0  3  0  0  0  0  0  0
  160.8320  203.3880  150.6040 C   0  0  0  0  0  2  0  0  0  0  0  0
  161.4060  202.8610  148.1640 C   0  0  0  0  0  2  0  0  0  0  0  0
  162.3040  212.9530  147.2170 C   0  0  0  0  0  2  0  0  0  0  0  0
  161.8160  213.2970  144.8540 N   0  0  0  0  0  1  0  0  0  0  0  0
  161.2270  213.2360  146.1810 C   0  0  0  0  0  2  0  0  0  0  0  0
  1  4  1  1  0  0  0
  1  6  1  0  0  0  0
  1 12  1  0  0  0  0
  3  6  1  0  0  0  0
  5  7  1  6  0  0  0
  5 12  1  0  0  0  0
  6 10  1  6  0  0  0
  8 11  1  0  0  0  0
  8  4  2  0  0  0  0
  9 13  1  0  0  0  0
 11  3  1  0  0  0  0
 12  2  1  1  0  0  0
 13 17  2  0  0  0  0
 13 18  1  0  0  0  0
 14 32  1  6  0  0  0
 14  9  1  0  0  0  0
 15 14  1  0  0  0  0
 15 16  1  0  0  0  0
 16 17  1  0  0  0  0
 17  8  1  0  0  0  0
 18 19  2  0  0  0  0
 19  4  1  0  0  0  0
 19  5  1  0  0  0  0
 20 18  1  0  0  0  0
 21 22  1  6  0  0  0
 21 23  1  0  0  0  0
 21 20  1  0  0  0  0
 23 24  1  0  0  0  0
 26 31  1  0  0  0  0
 26 29  2  0  0  0  0
 27 25  1  1  0  0  0
 27 30  1  0  0  0  0
 28 30  1  0  0  0  0
 28 24  1  1  0  0  0
 29 28  1  0  0  0  0
 31 27  1  0  0  0  0
 33 34  1  0  0  0  0
 34 32  1  0  0  0  0
M  END
>  <MODEL>
6

>  <REMARK>
 VINA RESULT:      -7.7      3.411      9.547
  Name = 
  7 active torsions:
  status: ('A' for Active; 'I' for Inactive)
    1  A    between atoms: C_1  and  C_6
    2  A    between atoms: C_1  and  C_12
    3  A    between atoms: C_6  and  S_31
    4  A    between atoms: C_7  and  C_14
    5  A    between atoms: C_12  and  C_33
    6  A    between atoms: C_14  and  C_25
    7  A    between atoms: C_17  and  S_31
                            x       y       z     vdW  Elec       q    Type
                         _______ _______ _______ _____ _____    ______ ____

>  <TORSDO>
F 7

$$$$
=
 OpenBabel11072414143D

 34 38  0  0  1  0  0  0  0  0999 V2000
  160.8280  202.5390  148.6830 C   0  0  2  0  0  3  0  0  0  0  0  0
  159.0690  201.2110  149.8070 C   0  0  0  0  0  1  0  0  0  0  0  0
  161.8840  202.9350  146.4520 C   0  0  0  0  0  2  0  0  0  0  0  0
  160.9500  203.8240  148.9580 C   0  0  0  0  0  0  0  0  0  0  0  0
  160.4580  202.9440  150.9060 C   0  0  2  0  0  3  0  0  0  0  0  0
  160.9890  202.0000  147.2850 C   0  0  1  0  0  3  0  0  0  0  0  0
  160.2430  202.8080  152.2720 O   0  0  0  0  0  1  0  0  0  0  0  0
  161.3090  204.8030  148.0380 C   0  0  0  0  0  0  0  0  0  0  0  0
  161.5690  207.7980  150.4150 C   0  0  0  0  0  2  0  0  0  0  0  0
  161.5820  200.6740  147.3240 N   0  0  0  0  0  1  0  0  0  0  0  0
  161.4600  204.4100  146.5870 C   0  0  0  0  0  2  0  0  0  0  0  0
  160.4640  201.7960  149.9330 C   0  0  2  0  0  3  0  0  0  0  0  0
  161.2460  206.4230  149.8810 C   0  0  0  0  0  0  0  0  0  0  0  0
  161.4980  208.8740  149.3400 C   0  0  2  0  0  3  0  0  0  0  0  0
  162.3730  208.4560  148.1690 C   0  0  0  0  0  2  0  0  0  0  0  0
  161.7780  207.2190  147.5100 C   0  0  0  0  0  2  0  0  0  0  0  0
  161.4690  206.1240  148.5010 C   0  0  0  0  0  0  0  0  0  0  0  0
  160.8480  205.3980  150.7830 C   0  0  0  0  0  0  0  0  0  0  0  0
  160.7320  204.0880  150.2820 C   0  0  0  0  0  0  0  0  0  0  0  0
  160.5700  205.7060  152.2350 C   0  0  0  0  0  2  0  0  0  0  0  0
  161.8190  205.7070  153.1290 C   0  0  1  0  0  3  0  0  0  0  0  0
  163.0990  205.4540  152.3530 C   0  0  0  0  0  1  0  0  0  0  0  0
  161.9530  206.9710  153.9570 C   0  0  0  0  0  2  0  0  0  0  0  0
  160.4520  207.2020  154.9620 S   0  0  0  0  0  0  0  0  0  0  0  0
  160.0790  211.8140  152.4130 C   0  0  0  0  0  1  0  0  0  0  0  0
  159.4360  210.9250  156.0600 C   0  0  0  0  0  3  0  0  0  0  0  0
  159.5680  211.0210  153.5970 C   0  0  1  0  0  3  0  0  0  0  0  0
  160.5250  209.0240  154.9450 C   0  0  2  0  0  3  0  0  0  0  0  0
  159.7350  209.6230  156.0790 C   0  0  0  0  0  3  0  0  0  0  0  0
  160.1490  209.5950  153.5630 C   0  0  0  0  0  2  0  0  0  0  0  0
  159.8770  211.7640  154.8980 C   0  0  0  0  0  2  0  0  0  0  0  0
  161.9820  210.1930  149.9190 C   0  0  0  0  0  2  0  0  0  0  0  0
  161.4690  212.3500  148.9080 N   0  0  0  0  0  1  0  0  0  0  0  0
  162.3290  211.1820  148.8180 C   0  0  0  0  0  2  0  0  0  0  0  0
  1  4  1  6  0  0  0
  1 12  1  0  0  0  0
  3 11  1  0  0  0  0
  3  6  1  0  0  0  0
  4 19  1  0  0  0  0
  5  7  1  1  0  0  0
  6 10  1  1  0  0  0
  6  1  1  0  0  0  0
  8 17  1  0  0  0  0
  8  4  2  0  0  0  0
 11  8  1  0  0  0  0
 12  2  1  6  0  0  0
 12  5  1  0  0  0  0
 13  9  1  0  0  0  0
 13 18  1  0  0  0  0
 14 32  1  1  0  0  0
 14  9  1  0  0  0  0
 15 14  1  0  0  0  0
 16 15  1  0  0  0  0
 16 17  1  0  0  0  0
 17 13  2  0  0  0  0
 18 20  1  0  0  0  0
 19 18  2  0  0  0  0
 19  5  1  0  0  0  0
 20 21  1  0  0  0  0
 21 22  1  6  0  0  0
 21 23  1  0  0  0  0
 23 24  1  0  0  0  0
 26 29  2  0  0  0  0
 27 25  1  6  0  0  0
 27 31  1  0  0  0  0
 28 24  1  6  0  0  0
 28 29  1  0  0  0  0
 30 27  1  0  0  0  0
 30 28  1  0  0  0  0
 31 26  1  0  0  0  0
 34 33  1  0  0  0  0
 34 32  1  0  0  0  0
M  END
>  <MODEL>
7

>  <REMARK>
 VINA RESULT:      -7.7      2.435      4.323
  Name = 
  7 active torsions:
  status: ('A' for Active; 'I' for Inactive)
    1  A    between atoms: C_1  and  C_6
    2  A    between atoms: C_1  and  C_12
    3  A    between atoms: C_6  and  S_31
    4  A    between atoms: C_7  and  C_14
    5  A    between atoms: C_12  and  C_33
    6  A    between atoms: C_14  and  C_25
    7  A    between atoms: C_17  and  S_31
                            x       y       z     vdW  Elec       q    Type
                         _______ _______ _______ _____ _____    ______ ____

>  <TORSDO>
F 7

$$$$
=
 OpenBabel11072414143D

 34 38  0  0  1  0  0  0  0  0999 V2000
  159.8810  210.3150  154.3900 C   0  0  2  0  0  3  0  0  0  0  0  0
  161.2920  208.9140  155.8630 C   0  0  0  0  0  1  0  0  0  0  0  0
  158.4200  212.3430  154.3990 C   0  0  0  0  0  2  0  0  0  0  0  0
  160.3220  210.6490  153.1920 C   0  0  0  0  0  0  0  0  0  0  0  0
  161.0260  208.5840  153.4220 C   0  0  2  0  0  3  0  0  0  0  0  0
  159.1220  211.2800  155.2630 C   0  0  1  0  0  3  0  0  0  0  0  0
  161.5790  207.3430  153.1330 O   0  0  0  0  0  1  0  0  0  0  0  0
  160.0820  211.8680  152.5680 C   0  0  0  0  0  0  0  0  0  0  0  0
  161.6530  211.1210  149.1540 C   0  0  0  0  0  2  0  0  0  0  0  0
  158.1310  210.5700  156.0530 N   0  0  0  0  0  1  0  0  0  0  0  0
  159.3680  212.9490  153.3470 C   0  0  0  0  0  2  0  0  0  0  0  0
  160.3120  208.9130  154.7040 C   0  0  2  0  0  3  0  0  0  0  0  0
  161.2800  210.9960  150.6120 C   0  0  0  0  0  0  0  0  0  0  0  0
  161.7810  212.5700  148.7060 C   0  0  2  0  0  3  0  0  0  0  0  0
  160.5040  213.3110  149.0700 C   0  0  0  0  0  2  0  0  0  0  0  0
  160.3820  213.3900  150.5860 C   0  0  0  0  0  2  0  0  0  0  0  0
  160.5580  212.0490  151.2550 C   0  0  0  0  0  0  0  0  0  0  0  0
  161.5330  209.7750  151.2970 C   0  0  0  0  0  0  0  0  0  0  0  0
  161.0100  209.6280  152.5950 C   0  0  0  0  0  0  0  0  0  0  0  0
  162.3280  208.6690  150.6460 C   0  0  0  0  0  2  0  0  0  0  0  0
  161.7040  208.1230  149.3530 C   0  0  1  0  0  3  0  0  0  0  0  0
  162.7300  207.8790  148.2610 C   0  0  0  0  0  1  0  0  0  0  0  0
  160.8770  206.8710  149.5780 C   0  0  0  0  0  2  0  0  0  0  0  0
  160.9100  205.8400  148.0780 S   0  0  0  0  0  0  0  0  0  0  0  0
  161.2280  200.5760  148.3850 C   0  0  0  0  0  1  0  0  0  0  0  0
  161.0990  203.2270  151.1170 C   0  0  0  0  0  3  0  0  0  0  0  0
  161.5490  201.8690  149.1050 C   0  0  1  0  0  3  0  0  0  0  0  0
  160.5880  204.2720  148.9520 C   0  0  2  0  0  3  0  0  0  0  0  0
  160.9910  204.3490  150.4000 C   0  0  0  0  0  3  0  0  0  0  0  0
  161.1990  203.0690  148.2050 C   0  0  0  0  0  2  0  0  0  0  0  0
  160.8350  201.9060  150.4580 C   0  0  0  0  0  2  0  0  0  0  0  0
  162.0060  212.6110  147.2030 C   0  0  0  0  0  2  0  0  0  0  0  0
  160.9490  214.0970  145.5860 N   0  0  0  0  0  1  0  0  0  0  0  0
  161.9130  214.0330  146.6720 C   0  0  0  0  0  2  0  0  0  0  0  0
  1  4  1  1  0  0  0
  1 12  1  0  0  0  0
  1  6  1  0  0  0  0
  3  6  1  0  0  0  0
  5  7  1  6  0  0  0
  5 12  1  0  0  0  0
  6 10  1  6  0  0  0
  8  4  2  0  0  0  0
  8 11  1  0  0  0  0
  9 13  1  0  0  0  0
 11  3  1  0  0  0  0
 12  2  1  1  0  0  0
 13 17  2  0  0  0  0
 13 18  1  0  0  0  0
 14 32  1  6  0  0  0
 14 15  1  0  0  0  0
 14  9  1  0  0  0  0
 15 16  1  0  0  0  0
 16 17  1  0  0  0  0
 17  8  1  0  0  0  0
 18 19  2  0  0  0  0
 19  4  1  0  0  0  0
 19  5  1  0  0  0  0
 20 18  1  0  0  0  0
 21 22  1  6  0  0  0
 21 23  1  0  0  0  0
 21 20  1  0  0  0  0
 24 23  1  0  0  0  0
 27 25  1  6  0  0  0
 27 31  1  0  0  0  0
 28 24  1  6  0  0  0
 28 29  1  0  0  0  0
 29 26  2  0  0  0  0
 30 28  1  0  0  0  0
 30 27  1  0  0  0  0
 31 26  1  0  0  0  0
 33 34  1  0  0  0  0
 34 32  1  0  0  0  0
M  END
>  <MODEL>
8

>  <REMARK>
 VINA RESULT:      -7.3      3.189      9.203
  Name = 
  7 active torsions:
  status: ('A' for Active; 'I' for Inactive)
    1  A    between atoms: C_1  and  C_6
    2  A    between atoms: C_1  and  C_12
    3  A    between atoms: C_6  and  S_31
    4  A    between atoms: C_7  and  C_14
    5  A    between atoms: C_12  and  C_33
    6  A    between atoms: C_14  and  C_25
    7  A    between atoms: C_17  and  S_31
                            x       y       z     vdW  Elec       q    Type
                         _______ _______ _______ _____ _____    ______ ____

>  <TORSDO>
F 7

$$$$
=
 OpenBabel11072414143D

 34 38  0  0  1  0  0  0  0  0999 V2000
  161.3360  204.0540  148.3390 C   0  0  2  0  0  3  0  0  0  0  0  0
  162.7750  204.7470  146.4490 C   0  0  0  0  0  1  0  0  0  0  0  0
  160.6080  202.0450  149.6360 C   0  0  0  0  0  2  0  0  0  0  0  0
  161.3400  204.7600  149.4540 C   0  0  0  0  0  0  0  0  0  0  0  0
  161.4870  206.2950  147.8930 C   0  0  2  0  0  3  0  0  0  0  0  0
  161.2770  202.5480  148.3440 C   0  0  1  0  0  3  0  0  0  0  0  0
  161.5220  207.5330  147.2640 O   0  0  0  0  0  1  0  0  0  0  0  0
  161.2150  204.2280  150.7320 C   0  0  0  0  0  0  0  0  0  0  0  0
  161.0420  207.4930  152.7310 C   0  0  0  0  0  2  0  0  0  0  0  0
  160.5260  202.0710  147.1950 N   0  0  0  0  0  1  0  0  0  0  0  0
  161.1890  202.7260  150.8900 C   0  0  0  0  0  2  0  0  0  0  0  0
  161.4570  204.9790  147.1650 C   0  0  2  0  0  3  0  0  0  0  0  0
  161.2560  206.5270  151.5900 C   0  0  0  0  0  0  0  0  0  0  0  0
  161.3710  206.8800  154.0850 C   0  0  2  0  0  3  0  0  0  0  0  0
  160.5950  205.5810  154.2370 C   0  0  0  0  0  2  0  0  0  0  0  0
  161.1090  204.5660  153.2240 C   0  0  0  0  0  2  0  0  0  0  0  0
  161.1630  205.1200  151.8220 C   0  0  0  0  0  0  0  0  0  0  0  0
  161.4170  207.0300  150.2690 C   0  0  0  0  0  0  0  0  0  0  0  0
  161.4310  206.1030  149.2100 C   0  0  0  0  0  0  0  0  0  0  0  0
  161.5570  208.5110  150.0120 C   0  0  0  0  0  2  0  0  0  0  0  0
  161.6970  209.3600  151.2850 C   0  0  1  0  0  3  0  0  0  0  0  0
  162.8980  210.2860  151.2460 C   0  0  0  0  0  1  0  0  0  0  0  0
  160.4420  210.1480  151.6100 C   0  0  0  0  0  2  0  0  0  0  0  0
  160.7420  211.1950  153.0700 S   0  0  0  0  0  0  0  0  0  0  0  0
  155.8940  210.9070  155.1490 C   0  0  0  0  0  1  0  0  0  0  0  0
  157.8280  213.8700  153.7400 C   0  0  0  0  0  3  0  0  0  0  0  0
  157.0700  211.8270  154.9000 C   0  0  1  0  0  3  0  0  0  0  0  0
  159.0240  211.7930  153.1960 C   0  0  2  0  0  3  0  0  0  0  0  0
  158.9650  213.2900  153.3480 C   0  0  0  0  0  3  0  0  0  0  0  0
  158.2350  211.0320  154.2810 C   0  0  0  0  0  2  0  0  0  0  0  0
  156.6330  213.0160  154.0420 C   0  0  0  0  0  2  0  0  0  0  0  0
  160.9860  207.8580  155.1840 C   0  0  0  0  0  2  0  0  0  0  0  0
  160.1560  206.8830  157.2570 N   0  0  0  0  0  1  0  0  0  0  0  0
  159.7630  207.3730  155.9470 C   0  0  0  0  0  2  0  0  0  0  0  0
  1  6  1  0  0  0  0
  1  4  1  1  0  0  0
  3 11  1  0  0  0  0
  4  8  1  0  0  0  0
  5  7  1  6  0  0  0
  5 19  1  0  0  0  0
  6 10  1  6  0  0  0
  6  3  1  0  0  0  0
  8 11  1  0  0  0  0
  8 17  2  0  0  0  0
  9 14  1  0  0  0  0
 12  2  1  1  0  0  0
 12  5  1  0  0  0  0
 12  1  1  0  0  0  0
 13 17  1  0  0  0  0
 13  9  1  0  0  0  0
 14 15  1  0  0  0  0
 14 32  1  1  0  0  0
 16 15  1  0  0  0  0
 17 16  1  0  0  0  0
 18 13  2  0  0  0  0
 19  4  2  0  0  0  0
 19 18  1  0  0  0  0
 20 18  1  0  0  0  0
 20 21  1  0  0  0  0
 21 22  1  6  0  0  0
 21 23  1  0  0  0  0
 23 24  1  0  0  0  0
 26 31  1  0  0  0  0
 27 25  1  6  0  0  0
 28 24  1  1  0  0  0
 28 29  1  0  0  0  0
 28 30  1  0  0  0  0
 29 26  2  0  0  0  0
 30 27  1  0  0  0  0
 31 27  1  0  0  0  0
 32 34  1  0  0  0  0
 34 33  1  0  0  0  0
M  END
>  <MODEL>
9

>  <REMARK>
 VINA RESULT:      -7.0      1.616      2.569
  Name = 
  7 active torsions:
  status: ('A' for Active; 'I' for Inactive)
    1  A    between atoms: C_1  and  C_6
    2  A    between atoms: C_1  and  C_12
    3  A    between atoms: C_6  and  S_31
    4  A    between atoms: C_7  and  C_14
    5  A    between atoms: C_12  and  C_33
    6  A    between atoms: C_14  and  C_25
    7  A    between atoms: C_17  and  S_31
                            x       y       z     vdW  Elec       q    Type
                         _______ _______ _______ _____ _____    ______ ____

>  <TORSDO>
F 7

$$$$
