=
 OpenBabel11072415243D

 25 27  0  0  1  0  0  0  0  0999 V2000
  161.3130  210.5130  153.2740 C   0  0  0  0  0  0  0  0  0  0  0  0
  161.3740  210.6670  154.7800 C   0  0  1  0  0  3  0  0  0  0  0  0
  159.2120  211.9460  154.6100 C   0  0  0  0  0  2  0  0  0  0  0  0
  160.3980  211.1710  152.5480 C   0  0  0  0  0  3  0  0  0  0  0  0
  159.4650  212.1990  153.1300 C   0  0  1  0  0  3  0  0  0  0  0  0
  160.5530  211.8430  155.3260 C   0  0  0  0  0  2  0  0  0  0  0  0
  159.7080  207.3580  155.6510 C   0  0  0  0  0  3  0  0  0  0  0  0
  161.0350  209.3810  155.4860 C   0  0  0  0  0  0  0  0  0  0  0  0
  161.4090  207.8160  157.2610 N   0  0  0  0  0  0  0  0  0  0  0  0
  160.0170  208.5500  154.9980 C   0  0  0  0  0  3  0  0  0  0  0  0
  160.4230  207.0040  156.7950 C   0  0  0  0  0  3  0  0  0  0  0  0
  161.7320  208.9840  156.6420 C   0  0  0  0  0  0  0  0  0  0  0  0
  162.8280  209.8210  157.2110 C   0  0  0  0  0  1  0  0  0  0  0  0
  162.2110  209.5760  152.6620 N   0  0  0  0  0  2  0  0  0  0  0  0
  161.4760  207.3850  151.9640 C   0  0  0  0  0  3  0  0  0  0  0  0
  160.8220  205.5400  150.5740 O   0  0  0  0  0  0  0  0  0  0  0  0
  161.6500  207.5300  149.6170 N   0  0  0  0  0  0  0  0  0  0  0  0
  162.0210  208.8200  150.1640 C   0  0  0  0  0  2  0  0  0  0  0  0
  161.2830  206.7040  150.7030 C   0  0  0  0  0  0  0  0  0  0  0  0
  161.9080  208.6030  151.6530 C   0  0  0  0  0  0  0  0  0  0  0  0
  161.1900  207.3580  148.3560 O   0  0  0  0  0  1  0  0  0  0  0  0
  158.2300  212.2000  152.4260 O   0  0  0  0  0  0  0  0  0  0  0  0
  157.7980  213.3280  150.3270 O   0  0  0  0  0  0  0  0  0  0  0  0
  157.7810  213.3140  151.7180 C   0  0  0  0  0  0  0  0  0  0  0  0
  157.3580  214.3200  152.3430 O   0  0  0  0  0  1  0  0  0  0  0  0
  1  2  1  0  0  0  0
  2  6  1  0  0  0  0
  2  8  1  1  0  0  0
  3  6  1  0  0  0  0
  4  5  1  0  0  0  0
  4  1  2  0  0  0  0
  5 22  1  6  0  0  0
  5  3  1  0  0  0  0
  7 11  1  0  0  0  0
  8 12  2  0  0  0  0
 10  8  1  0  0  0  0
 10  7  2  0  0  0  0
 11  9  2  0  0  0  0
 12 13  1  0  0  0  0
 12  9  1  0  0  0  0
 14  1  1  0  0  0  0
 16 19  2  0  0  0  0
 17 18  1  0  0  0  0
 17 19  1  0  0  0  0
 18 20  1  0  0  0  0
 19 15  1  0  0  0  0
 20 15  2  0  0  0  0
 20 14  1  0  0  0  0
 21 17  1  0  0  0  0
 23 24  2  0  0  0  0
 24 25  1  0  0  0  0
 24 22  1  0  0  0  0
M  END
>  <MODEL>
1

>  <REMARK>
 VINA RESULT:      -5.8      0.000      0.000
  Name = 
  5 active torsions:
  status: ('A' for Active; 'I' for Inactive)
    1  A    between atoms: C_3  and  N_21
    2  A    between atoms: C_4  and  C_7
    3  A    between atoms: C_9  and  O_24
    4  A    between atoms: C_17  and  N_21
    5  A    between atoms: C_22  and  O_24
                            x       y       z     vdW  Elec       q    Type
                         _______ _______ _______ _____ _____    ______ ____

>  <TORSDO>
F 5

$$$$
=
 OpenBabel11072415243D

 25 27  0  0  1  0  0  0  0  0999 V2000
  161.3810  208.2390  151.4850 C   0  0  0  0  0  0  0  0  0  0  0  0
  161.8450  209.2000  152.5600 C   0  0  1  0  0  3  0  0  0  0  0  0
  162.2320  210.8720  150.7180 C   0  0  0  0  0  2  0  0  0  0  0  0
  161.5200  208.5350  150.1850 C   0  0  0  0  0  3  0  0  0  0  0  0
  162.2550  209.7510  149.6890 C   0  0  1  0  0  3  0  0  0  0  0  0
  162.7480  210.3300  152.0460 C   0  0  0  0  0  2  0  0  0  0  0  0
  158.7250  211.1430  153.5440 C   0  0  0  0  0  3  0  0  0  0  0  0
  160.6910  209.7350  153.3640 C   0  0  0  0  0  0  0  0  0  0  0  0
  159.4340  209.8240  155.4020 N   0  0  0  0  0  0  0  0  0  0  0  0
  159.7940  210.6520  152.7980 C   0  0  0  0  0  3  0  0  0  0  0  0
  158.5590  210.7130  154.8600 C   0  0  0  0  0  3  0  0  0  0  0  0
  160.4860  209.3280  154.6960 C   0  0  0  0  0  0  0  0  0  0  0  0
  161.4010  208.3530  155.3570 C   0  0  0  0  0  1  0  0  0  0  0  0
  160.7110  207.0400  151.9050 N   0  0  0  0  0  2  0  0  0  0  0  0
  161.2210  204.6980  152.1940 C   0  0  0  0  0  3  0  0  0  0  0  0
  161.5500  202.3660  151.7270 O   0  0  0  0  0  0  0  0  0  0  0  0
  161.0740  203.8840  149.9860 N   0  0  0  0  0  0  0  0  0  0  0  0
  160.7330  205.2940  149.9570 C   0  0  0  0  0  2  0  0  0  0  0  0
  161.3140  203.5390  151.3350 C   0  0  0  0  0  0  0  0  0  0  0  0
  160.8930  205.7110  151.3980 C   0  0  0  0  0  0  0  0  0  0  0  0
  160.6680  202.9990  149.0460 O   0  0  0  0  0  1  0  0  0  0  0  0
  161.6860  210.2080  148.4700 O   0  0  0  0  0  0  0  0  0  0  0  0
  163.0510  212.0940  147.8000 O   0  0  0  0  0  0  0  0  0  0  0  0
  161.8030  211.5330  148.0470 C   0  0  0  0  0  0  0  0  0  0  0  0
  160.7680  212.2290  147.8910 O   0  0  0  0  0  1  0  0  0  0  0  0
  1 14  1  0  0  0  0
  1  2  1  0  0  0  0
  2  8  1  6  0  0  0
  3  6  1  0  0  0  0
  4  1  2  0  0  0  0
  5 22  1  6  0  0  0
  5  4  1  0  0  0  0
  5  3  1  0  0  0  0
  6  2  1  0  0  0  0
  7 11  1  0  0  0  0
  8 12  2  0  0  0  0
 10  8  1  0  0  0  0
 10  7  2  0  0  0  0
 11  9  2  0  0  0  0
 12 13  1  0  0  0  0
 12  9  1  0  0  0  0
 17 19  1  0  0  0  0
 18 17  1  0  0  0  0
 18 20  1  0  0  0  0
 19 16  2  0  0  0  0
 19 15  1  0  0  0  0
 20 14  1  0  0  0  0
 20 15  2  0  0  0  0
 21 17  1  0  0  0  0
 23 24  2  0  0  0  0
 24 22  1  0  0  0  0
 25 24  1  0  0  0  0
M  END
>  <MODEL>
2

>  <REMARK>
 VINA RESULT:      -5.5      2.602      4.047
  Name = 
  5 active torsions:
  status: ('A' for Active; 'I' for Inactive)
    1  A    between atoms: C_3  and  N_21
    2  A    between atoms: C_4  and  C_7
    3  A    between atoms: C_9  and  O_24
    4  A    between atoms: C_17  and  N_21
    5  A    between atoms: C_22  and  O_24
                            x       y       z     vdW  Elec       q    Type
                         _______ _______ _______ _____ _____    ______ ____

>  <TORSDO>
F 5

$$$$
=
 OpenBabel11072415243D

 25 27  0  0  1  0  0  0  0  0999 V2000
  161.8350  208.2410  149.2390 C   0  0  0  0  0  0  0  0  0  0  0  0
  160.7060  207.5420  149.9670 C   0  0  1  0  0  3  0  0  0  0  0  0
  161.1320  205.5650  148.4680 C   0  0  0  0  0  2  0  0  0  0  0  0
  162.3900  207.7030  148.1440 C   0  0  0  0  0  3  0  0  0  0  0  0
  161.8630  206.4600  147.4770 C   0  0  1  0  0  3  0  0  0  0  0  0
  160.0660  206.3900  149.1800 C   0  0  0  0  0  2  0  0  0  0  0  0
  162.0990  205.4540  152.8280 C   0  0  0  0  0  3  0  0  0  0  0  0
  161.1190  207.1060  151.3480 C   0  0  0  0  0  0  0  0  0  0  0  0
  161.3060  207.5290  153.6990 N   0  0  0  0  0  0  0  0  0  0  0  0
  161.7140  205.8530  151.5490 C   0  0  0  0  0  3  0  0  0  0  0  0
  161.8840  206.3150  153.9030 C   0  0  0  0  0  3  0  0  0  0  0  0
  160.9220  207.9440  152.4610 C   0  0  0  0  0  0  0  0  0  0  0  0
  160.2970  209.2910  152.3150 C   0  0  0  0  0  1  0  0  0  0  0  0
  162.3470  209.4550  149.8090 N   0  0  0  0  0  2  0  0  0  0  0  0
  161.2370  211.5930  149.9600 C   0  0  0  0  0  3  0  0  0  0  0  0
  160.6330  213.8780  149.5390 O   0  0  0  0  0  0  0  0  0  0  0  0
  162.1910  212.7740  148.1550 N   0  0  0  0  0  0  0  0  0  0  0  0
  162.8210  211.4690  148.2070 C   0  0  0  0  0  2  0  0  0  0  0  0
  161.2850  212.8450  149.2380 C   0  0  0  0  0  0  0  0  0  0  0  0
  162.1180  210.7980  149.3610 C   0  0  0  0  0  0  0  0  0  0  0  0
  162.7670  213.8590  147.5880 O   0  0  0  0  0  1  0  0  0  0  0  0
  162.9270  205.7360  146.8730 O   0  0  0  0  0  0  0  0  0  0  0  0
  161.7920  205.4390  144.7530 O   0  0  0  0  0  0  0  0  0  0  0  0
  162.7680  205.0530  145.6660 C   0  0  0  0  0  0  0  0  0  0  0  0
  163.5130  204.0760  145.4020 O   0  0  0  0  0  1  0  0  0  0  0  0
  1 14  1  0  0  0  0
  1  2  1  0  0  0  0
  2  8  1  1  0  0  0
  3  6  1  0  0  0  0
  4  1  2  0  0  0  0
  5 22  1  1  0  0  0
  5  4  1  0  0  0  0
  5  3  1  0  0  0  0
  6  2  1  0  0  0  0
  7 11  1  0  0  0  0
  8 10  1  0  0  0  0
  8 12  2  0  0  0  0
  9 11  2  0  0  0  0
 10  7  2  0  0  0  0
 12  9  1  0  0  0  0
 13 12  1  0  0  0  0
 17 18  1  0  0  0  0
 17 19  1  0  0  0  0
 18 20  1  0  0  0  0
 19 16  2  0  0  0  0
 19 15  1  0  0  0  0
 20 14  1  0  0  0  0
 20 15  2  0  0  0  0
 21 17  1  0  0  0  0
 23 24  2  0  0  0  0
 24 22  1  0  0  0  0
 25 24  1  0  0  0  0
M  END
>  <MODEL>
3

>  <REMARK>
 VINA RESULT:      -5.4      3.151      6.952
  Name = 
  5 active torsions:
  status: ('A' for Active; 'I' for Inactive)
    1  A    between atoms: C_3  and  N_21
    2  A    between atoms: C_4  and  C_7
    3  A    between atoms: C_9  and  O_24
    4  A    between atoms: C_17  and  N_21
    5  A    between atoms: C_22  and  O_24
                            x       y       z     vdW  Elec       q    Type
                         _______ _______ _______ _____ _____    ______ ____

>  <TORSDO>
F 5

$$$$
=
 OpenBabel11072415243D

 25 27  0  0  1  0  0  0  0  0999 V2000
  160.4830  209.9760  152.7820 C   0  0  0  0  0  0  0  0  0  0  0  0
  160.4520  208.9440  153.8900 C   0  0  1  0  0  3  0  0  0  0  0  0
  161.8180  207.4650  152.3780 C   0  0  0  0  0  2  0  0  0  0  0  0
  160.9710  209.6760  151.5700 C   0  0  0  0  0  3  0  0  0  0  0  0
  161.3910  208.2870  151.1690 C   0  0  1  0  0  3  0  0  0  0  0  0
  160.7040  207.5060  153.4170 C   0  0  0  0  0  2  0  0  0  0  0  0
  163.1030  210.7350  155.9510 C   0  0  0  0  0  3  0  0  0  0  0  0
  161.3630  209.3200  155.0280 C   0  0  0  0  0  0  0  0  0  0  0  0
  162.1600  208.9770  157.2610 N   0  0  0  0  0  0  0  0  0  0  0  0
  162.2630  210.3860  154.8940 C   0  0  0  0  0  3  0  0  0  0  0  0
  163.0370  210.0090  157.1400 C   0  0  0  0  0  3  0  0  0  0  0  0
  161.3290  208.6160  156.2460 C   0  0  0  0  0  0  0  0  0  0  0  0
  160.3920  207.4740  156.4540 C   0  0  0  0  0  1  0  0  0  0  0  0
  160.0530  211.3100  153.0980 N   0  0  0  0  0  2  0  0  0  0  0  0
  158.1770  211.0780  154.5990 C   0  0  0  0  0  3  0  0  0  0  0  0
  156.1010  211.5000  155.7290 O   0  0  0  0  0  0  0  0  0  0  0  0
  156.7660  212.8330  153.9010 N   0  0  0  0  0  0  0  0  0  0  0  0
  157.9720  212.8950  153.0990 C   0  0  0  0  0  2  0  0  0  0  0  0
  156.9290  211.7730  154.8210 C   0  0  0  0  0  0  0  0  0  0  0  0
  158.7750  211.7210  153.6010 C   0  0  0  0  0  0  0  0  0  0  0  0
  155.9590  213.8970  154.1190 O   0  0  0  0  0  1  0  0  0  0  0  0
  162.4550  208.3450  150.2290 O   0  0  0  0  0  0  0  0  0  0  0  0
  162.3230  207.3170  148.0400 O   0  0  0  0  0  0  0  0  0  0  0  0
  162.2270  208.4390  148.8560 C   0  0  0  0  0  0  0  0  0  0  0  0
  161.9340  209.5510  148.3490 O   0  0  0  0  0  1  0  0  0  0  0  0
  1 14  1  0  0  0  0
  1  2  1  0  0  0  0
  2  8  1  1  0  0  0
  3  6  1  0  0  0  0
  4  1  2  0  0  0  0
  5 22  1  6  0  0  0
  5  4  1  0  0  0  0
  5  3  1  0  0  0  0
  6  2  1  0  0  0  0
  7 11  1  0  0  0  0
  8 12  2  0  0  0  0
 10  8  1  0  0  0  0
 10  7  2  0  0  0  0
 11  9  2  0  0  0  0
 12 13  1  0  0  0  0
 12  9  1  0  0  0  0
 14 20  1  0  0  0  0
 15 19  1  0  0  0  0
 17 21  1  0  0  0  0
 17 19  1  0  0  0  0
 18 20  1  0  0  0  0
 18 17  1  0  0  0  0
 19 16  2  0  0  0  0
 20 15  2  0  0  0  0
 23 24  2  0  0  0  0
 24 22  1  0  0  0  0
 25 24  1  0  0  0  0
M  END
>  <MODEL>
4

>  <REMARK>
 VINA RESULT:      -5.0      2.104      5.598
  Name = 
  5 active torsions:
  status: ('A' for Active; 'I' for Inactive)
    1  A    between atoms: C_3  and  N_21
    2  A    between atoms: C_4  and  C_7
    3  A    between atoms: C_9  and  O_24
    4  A    between atoms: C_17  and  N_21
    5  A    between atoms: C_22  and  O_24
                            x       y       z     vdW  Elec       q    Type
                         _______ _______ _______ _____ _____    ______ ____

>  <TORSDO>
F 5

$$$$
=
 OpenBabel11072415243D

 25 27  0  0  1  0  0  0  0  0999 V2000
  161.2840  207.7650  150.5370 C   0  0  0  0  0  0  0  0  0  0  0  0
  162.0680  208.3240  151.7070 C   0  0  1  0  0  3  0  0  0  0  0  0
  162.3050  210.4430  150.3700 C   0  0  0  0  0  2  0  0  0  0  0  0
  161.2060  208.4290  149.3750 C   0  0  0  0  0  3  0  0  0  0  0  0
  161.9830  209.6860  149.0900 C   0  0  1  0  0  3  0  0  0  0  0  0
  162.9930  209.4930  151.3430 C   0  0  0  0  0  2  0  0  0  0  0  0
  159.7020  210.2310  153.9990 C   0  0  0  0  0  3  0  0  0  0  0  0
  161.1700  208.6680  152.8660 C   0  0  0  0  0  0  0  0  0  0  0  0
  160.1290  208.0800  154.9420 N   0  0  0  0  0  0  0  0  0  0  0  0
  160.5350  209.9170  152.9270 C   0  0  0  0  0  3  0  0  0  0  0  0
  159.5090  209.2890  155.0090 C   0  0  0  0  0  3  0  0  0  0  0  0
  160.9460  207.7470  153.9060 C   0  0  0  0  0  0  0  0  0  0  0  0
  161.5880  206.4010  153.9000 C   0  0  0  0  0  1  0  0  0  0  0  0
  160.5570  206.5430  150.7430 N   0  0  0  0  0  2  0  0  0  0  0  0
  160.5290  204.1300  150.6900 C   0  0  0  0  0  3  0  0  0  0  0  0
  160.6810  201.8690  149.8970 O   0  0  0  0  0  0  0  0  0  0  0  0
  161.2690  203.6740  148.4980 N   0  0  0  0  0  0  0  0  0  0  0  0
  161.1920  205.1150  148.6440 C   0  0  0  0  0  2  0  0  0  0  0  0
  160.8240  203.1060  149.7130 C   0  0  0  0  0  0  0  0  0  0  0  0
  160.7480  205.2880  150.0760 C   0  0  0  0  0  0  0  0  0  0  0  0
  161.2010  203.0410  147.3050 O   0  0  0  0  0  1  0  0  0  0  0  0
  161.2530  210.5270  148.2060 O   0  0  0  0  0  0  0  0  0  0  0  0
  160.6810  212.8710  148.4130 O   0  0  0  0  0  1  0  0  0  0  0  0
  161.5720  211.8740  148.0310 C   0  0  0  0  0  0  0  0  0  0  0  0
  162.6760  212.1900  147.5190 O   0  0  0  0  0  0  0  0  0  0  0  0
  1 14  1  0  0  0  0
  1  2  1  0  0  0  0
  2  8  1  1  0  0  0
  3  6  1  0  0  0  0
  4  1  2  0  0  0  0
  5 22  1  6  0  0  0
  5  4  1  0  0  0  0
  5  3  1  0  0  0  0
  6  2  1  0  0  0  0
  7 11  1  0  0  0  0
  8 10  1  0  0  0  0
  8 12  2  0  0  0  0
  9 11  2  0  0  0  0
 10  7  2  0  0  0  0
 12  9  1  0  0  0  0
 13 12  1  0  0  0  0
 17 18  1  0  0  0  0
 17 19  1  0  0  0  0
 18 20  1  0  0  0  0
 19 16  2  0  0  0  0
 19 15  1  0  0  0  0
 20 15  2  0  0  0  0
 20 14  1  0  0  0  0
 21 17  1  0  0  0  0
 24 22  1  0  0  0  0
 24 23  1  0  0  0  0
 25 24  2  0  0  0  0
M  END
>  <MODEL>
5

>  <REMARK>
 VINA RESULT:      -4.8      2.774      4.300
  Name = 
  5 active torsions:
  status: ('A' for Active; 'I' for Inactive)
    1  A    between atoms: C_3  and  N_21
    2  A    between atoms: C_4  and  C_7
    3  A    between atoms: C_9  and  O_24
    4  A    between atoms: C_17  and  N_21
    5  A    between atoms: C_22  and  O_24
                            x       y       z     vdW  Elec       q    Type
                         _______ _______ _______ _____ _____    ______ ____

>  <TORSDO>
F 5

$$$$
=
 OpenBabel11072415243D

 25 27  0  0  1  0  0  0  0  0999 V2000
  161.8460  209.9660  150.4650 C   0  0  0  0  0  0  0  0  0  0  0  0
  162.2200  208.6340  151.0830 C   0  0  1  0  0  3  0  0  0  0  0  0
  160.4510  209.0850  152.8160 C   0  0  0  0  0  2  0  0  0  0  0  0
  161.0050  210.8050  151.0860 C   0  0  0  0  0  2  0  0  0  0  0  0
  160.4810  210.5690  152.4770 C   0  0  1  0  0  3  0  0  0  0  0  0
  161.8320  208.4950  152.5610 C   0  0  0  0  0  2  0  0  0  0  0  0
  160.7580  206.6120  148.2090 C   0  0  0  0  0  3  0  0  0  0  0  0
  161.7090  207.4780  150.2650 C   0  0  0  0  0  0  0  0  0  0  0  0
  161.2390  205.1410  150.0260 N   0  0  0  0  0  0  0  0  0  0  0  0
  161.2280  207.6850  148.9650 C   0  0  0  0  0  3  0  0  0  0  0  0
  160.7710  205.3320  148.7630 C   0  0  0  0  0  3  0  0  0  0  0  0
  161.7040  206.1700  150.7850 C   0  0  0  0  0  0  0  0  0  0  0  0
  162.2050  205.8810  152.1600 C   0  0  0  0  0  1  0  0  0  0  0  0
  162.3550  210.2610  149.1550 N   0  0  0  0  0  0  0  0  0  0  0  0
  162.9010  212.4290  148.2450 C   0  0  0  0  0  3  0  0  0  0  0  0
  162.7820  214.4520  146.9570 O   0  0  0  0  0  0  0  0  0  0  0  0
  161.0030  212.9040  146.9280 N   0  0  0  0  0  0  0  0  0  0  0  0
  160.8210  211.5830  147.4990 C   0  0  0  0  0  2  0  0  0  0  0  0
  162.2700  213.3700  147.3470 C   0  0  0  0  0  0  0  0  0  0  0  0
  162.0620  211.4020  148.3380 C   0  0  0  0  0  0  0  0  0  0  0  0
  160.3880  213.3190  145.7960 O   0  0  0  0  0  1  0  0  0  0  0  0
  159.1780  211.1190  152.6130 O   0  0  0  0  0  0  0  0  0  0  0  0
  157.4750  211.7470  154.2170 O   0  0  0  0  0  0  0  0  0  0  0  0
  158.7830  211.8220  153.7520 C   0  0  0  0  0  0  0  0  0  0  0  0
  159.6200  212.5340  154.3630 O   0  0  0  0  0  1  0  0  0  0  0  0
  1  2  1  0  0  0  0
  1  4  1  0  0  0  0
  2  8  1  6  0  0  0
  2  6  1  0  0  0  0
  4  5  1  0  0  0  0
  5 22  1  6  0  0  0
  5  3  1  0  0  0  0
  6  3  1  0  0  0  0
  7 11  2  0  0  0  0
  7 10  1  0  0  0  0
  8 12  1  0  0  0  0
  9 12  2  0  0  0  0
 10  8  2  0  0  0  0
 11  9  1  0  0  0  0
 12 13  1  0  0  0  0
 14  1  2  0  0  0  0
 15 20  2  0  0  0  0
 16 19  2  0  0  0  0
 17 19  1  0  0  0  0
 17 18  1  0  0  0  0
 18 20  1  0  0  0  0
 19 15  1  0  0  0  0
 20 14  1  0  0  0  0
 21 17  1  0  0  0  0
 22 24  1  0  0  0  0
 24 23  2  0  0  0  0
 24 25  1  0  0  0  0
M  END
>  <MODEL>
6

>  <REMARK>
 VINA RESULT:      -4.6      3.396      5.534
  Name = 
  5 active torsions:
  status: ('A' for Active; 'I' for Inactive)
    1  A    between atoms: C_3  and  N_21
    2  A    between atoms: C_4  and  C_7
    3  A    between atoms: C_9  and  O_24
    4  A    between atoms: C_17  and  N_21
    5  A    between atoms: C_22  and  O_24
                            x       y       z     vdW  Elec       q    Type
                         _______ _______ _______ _____ _____    ______ ____

>  <TORSDO>
F 5

$$$$
=
 OpenBabel11072415243D

 25 27  0  0  1  0  0  0  0  0999 V2000
  160.4080  210.7640  152.6970 C   0  0  0  0  0  0  0  0  0  0  0  0
  160.1190  210.0180  153.9830 C   0  0  1  0  0  3  0  0  0  0  0  0
  161.3590  208.0690  152.9830 C   0  0  0  0  0  2  0  0  0  0  0  0
  160.9450  210.1380  151.6400 C   0  0  0  0  0  3  0  0  0  0  0  0
  161.1730  208.6510  151.5890 C   0  0  1  0  0  3  0  0  0  0  0  0
  160.1800  208.4900  153.8520 C   0  0  0  0  0  2  0  0  0  0  0  0
  163.1620  210.8320  156.1190 C   0  0  0  0  0  3  0  0  0  0  0  0
  160.9760  210.5110  155.1180 C   0  0  0  0  0  0  0  0  0  0  0  0
  161.1970  211.5620  157.2600 N   0  0  0  0  0  0  0  0  0  0  0  0
  162.3710  210.3720  155.0680 C   0  0  0  0  0  3  0  0  0  0  0  0
  162.5500  211.4310  157.2200 C   0  0  0  0  0  3  0  0  0  0  0  0
  160.4010  211.1220  156.2480 C   0  0  0  0  0  0  0  0  0  0  0  0
  158.9250  211.3040  156.3620 C   0  0  0  0  0  1  0  0  0  0  0  0
  160.1680  212.1800  152.6770 N   0  0  0  0  0  2  0  0  0  0  0  0
  158.6630  213.2510  151.1240 C   0  0  0  0  0  3  0  0  0  0  0  0
  156.7250  214.3400  150.2170 O   0  0  0  0  0  0  0  0  0  0  0  0
  156.8830  213.9000  152.5280 N   0  0  0  0  0  0  0  0  0  0  0  0
  157.8480  213.1880  153.3440 C   0  0  0  0  0  2  0  0  0  0  0  0
  157.3650  213.8840  151.2000 C   0  0  0  0  0  0  0  0  0  0  0  0
  158.9440  212.8560  152.3620 C   0  0  0  0  0  0  0  0  0  0  0  0
  155.5740  214.0130  152.8490 O   0  0  0  0  0  1  0  0  0  0  0  0
  162.3100  208.3530  150.7900 O   0  0  0  0  0  0  0  0  0  0  0  0
  162.1230  206.8400  148.9070 O   0  0  0  0  0  1  0  0  0  0  0  0
  162.2130  208.1320  149.4150 C   0  0  0  0  0  0  0  0  0  0  0  0
  162.2100  209.1110  148.6270 O   0  0  0  0  0  0  0  0  0  0  0  0
  1  2  1  0  0  0  0
  2  8  1  1  0  0  0
  3  6  1  0  0  0  0
  4  1  2  0  0  0  0
  5 22  1  6  0  0  0
  5  4  1  0  0  0  0
  5  3  1  0  0  0  0
  6  2  1  0  0  0  0
  7 11  1  0  0  0  0
  8 12  2  0  0  0  0
 10  8  1  0  0  0  0
 10  7  2  0  0  0  0
 11  9  2  0  0  0  0
 12 13  1  0  0  0  0
 12  9  1  0  0  0  0
 14  1  1  0  0  0  0
 15 19  1  0  0  0  0
 15 20  2  0  0  0  0
 16 19  2  0  0  0  0
 17 21  1  0  0  0  0
 17 18  1  0  0  0  0
 19 17  1  0  0  0  0
 20 14  1  0  0  0  0
 20 18  1  0  0  0  0
 23 24  1  0  0  0  0
 24 22  1  0  0  0  0
 25 24  2  0  0  0  0
M  END
>  <MODEL>
7

>  <REMARK>
 VINA RESULT:      -4.6      2.228      5.754
  Name = 
  5 active torsions:
  status: ('A' for Active; 'I' for Inactive)
    1  A    between atoms: C_3  and  N_21
    2  A    between atoms: C_4  and  C_7
    3  A    between atoms: C_9  and  O_24
    4  A    between atoms: C_17  and  N_21
    5  A    between atoms: C_22  and  O_24
                            x       y       z     vdW  Elec       q    Type
                         _______ _______ _______ _____ _____    ______ ____

>  <TORSDO>
F 5

$$$$
=
 OpenBabel11072415243D

 25 27  0  0  1  0  0  0  0  0999 V2000
  161.4000  207.7280  150.0590 C   0  0  0  0  0  0  0  0  0  0  0  0
  162.2090  208.1040  151.2830 C   0  0  1  0  0  3  0  0  0  0  0  0
  162.3310  210.4320  150.3320 C   0  0  0  0  0  2  0  0  0  0  0  0
  161.2590  208.5810  149.0340 C   0  0  0  0  0  3  0  0  0  0  0  0
  161.9850  209.8970  148.9490 C   0  0  1  0  0  3  0  0  0  0  0  0
  163.0830  209.3530  151.1010 C   0  0  0  0  0  2  0  0  0  0  0  0
  159.8560  209.4880  153.9360 C   0  0  0  0  0  3  0  0  0  0  0  0
  161.3450  208.2080  152.5120 C   0  0  0  0  0  0  0  0  0  0  0  0
  160.4160  207.2360  154.4950 N   0  0  0  0  0  0  0  0  0  0  0  0
  160.6580  209.3960  152.7990 C   0  0  0  0  0  3  0  0  0  0  0  0
  159.7470  208.3850  154.7820 C   0  0  0  0  0  3  0  0  0  0  0  0
  161.2050  207.1190  153.3930 C   0  0  0  0  0  0  0  0  0  0  0  0
  161.9060  205.8270  153.1430 C   0  0  0  0  0  1  0  0  0  0  0  0
  160.7210  206.4630  150.0700 N   0  0  0  0  0  2  0  0  0  0  0  0
  161.3830  205.4590  147.9780 C   0  0  0  0  0  3  0  0  0  0  0  0
  161.9550  203.8170  146.3220 O   0  0  0  0  0  0  0  0  0  0  0  0
  161.1560  203.1580  148.4400 N   0  0  0  0  0  0  0  0  0  0  0  0
  160.8310  203.8830  149.6530 C   0  0  0  0  0  2  0  0  0  0  0  0
  161.5280  204.1130  147.4680 C   0  0  0  0  0  0  0  0  0  0  0  0
  160.9740  205.3250  149.2350 C   0  0  0  0  0  0  0  0  0  0  0  0
  161.5800  201.8730  148.4290 O   0  0  0  0  0  1  0  0  0  0  0  0
  161.1970  210.8510  148.2490 O   0  0  0  0  0  0  0  0  0  0  0  0
  162.7880  212.5600  147.6070 O   0  0  0  0  0  0  0  0  0  0  0  0
  161.5650  212.1930  148.1580 C   0  0  0  0  0  0  0  0  0  0  0  0
  160.7840  213.0820  148.5810 O   0  0  0  0  0  1  0  0  0  0  0  0
  1 14  1  0  0  0  0
  1  2  1  0  0  0  0
  2  8  1  1  0  0  0
  3  6  1  0  0  0  0
  4  1  2  0  0  0  0
  5 22  1  1  0  0  0
  5  4  1  0  0  0  0
  5  3  1  0  0  0  0
  6  2  1  0  0  0  0
  7 11  1  0  0  0  0
  8 10  1  0  0  0  0
  8 12  2  0  0  0  0
  9 11  2  0  0  0  0
 10  7  2  0  0  0  0
 12  9  1  0  0  0  0
 13 12  1  0  0  0  0
 15 20  2  0  0  0  0
 16 19  2  0  0  0  0
 17 18  1  0  0  0  0
 19 15  1  0  0  0  0
 19 17  1  0  0  0  0
 20 18  1  0  0  0  0
 20 14  1  0  0  0  0
 21 17  1  0  0  0  0
 23 24  2  0  0  0  0
 24 22  1  0  0  0  0
 24 25  1  0  0  0  0
M  END
>  <MODEL>
8

>  <REMARK>
 VINA RESULT:      -4.3      2.921      4.574
  Name = 
  5 active torsions:
  status: ('A' for Active; 'I' for Inactive)
    1  A    between atoms: C_3  and  N_21
    2  A    between atoms: C_4  and  C_7
    3  A    between atoms: C_9  and  O_24
    4  A    between atoms: C_17  and  N_21
    5  A    between atoms: C_22  and  O_24
                            x       y       z     vdW  Elec       q    Type
                         _______ _______ _______ _____ _____    ______ ____

>  <TORSDO>
F 5

$$$$
=
 OpenBabel11072415243D

 25 27  0  0  1  0  0  0  0  0999 V2000
  160.4980  206.3400  149.1730 C   0  0  0  0  0  0  0  0  0  0  0  0
  160.7480  206.8740  147.7780 C   0  0  1  0  0  3  0  0  0  0  0  0
  162.2330  208.6050  148.8450 C   0  0  0  0  0  2  0  0  0  0  0  0
  160.9300  207.0020  150.2560 C   0  0  0  0  0  3  0  0  0  0  0  0
  161.5630  208.3660  150.1920 C   0  0  1  0  0  3  0  0  0  0  0  0
  161.2210  208.3340  147.7390 C   0  0  0  0  0  2  0  0  0  0  0  0
  163.7120  204.6830  146.8280 C   0  0  0  0  0  3  0  0  0  0  0  0
  161.6660  205.9740  146.9940 C   0  0  0  0  0  0  0  0  0  0  0  0
  162.1820  204.7540  144.9980 N   0  0  0  0  0  0  0  0  0  0  0  0
  162.8670  205.5190  147.5560 C   0  0  0  0  0  3  0  0  0  0  0  0
  163.3490  204.3070  145.5350 C   0  0  0  0  0  3  0  0  0  0  0  0
  161.3380  205.5690  145.6860 C   0  0  0  0  0  0  0  0  0  0  0  0
  160.0750  206.0150  145.0310 C   0  0  0  0  0  1  0  0  0  0  0  0
  159.8570  205.0600  149.2930 N   0  0  0  0  0  2  0  0  0  0  0  0
  160.5360  202.7620  149.0070 C   0  0  0  0  0  3  0  0  0  0  0  0
  161.4700  200.5940  149.4450 O   0  0  0  0  0  0  0  0  0  0  0  0
  161.3680  202.2220  151.1470 N   0  0  0  0  0  0  0  0  0  0  0  0
  160.9670  203.6160  151.1710 C   0  0  0  0  0  2  0  0  0  0  0  0
  161.1460  201.7460  149.8360 C   0  0  0  0  0  0  0  0  0  0  0  0
  160.4260  203.8380  149.7800 C   0  0  0  0  0  0  0  0  0  0  0  0
  162.2820  201.6940  151.9930 O   0  0  0  0  0  1  0  0  0  0  0  0
  162.5170  208.5160  151.2350 O   0  0  0  0  0  0  0  0  0  0  0  0
  161.4020  208.4790  153.3850 O   0  0  0  0  0  1  0  0  0  0  0  0
  162.1990  209.1280  152.4480 C   0  0  0  0  0  0  0  0  0  0  0  0
  162.6350  210.2810  152.6960 O   0  0  0  0  0  0  0  0  0  0  0  0
  1 14  1  0  0  0  0
  1  4  2  0  0  0  0
  2  8  1  1  0  0  0
  2  1  1  0  0  0  0
  3  5  1  0  0  0  0
  5  4  1  0  0  0  0
  5 22  1  1  0  0  0
  6  2  1  0  0  0  0
  6  3  1  0  0  0  0
  7 10  1  0  0  0  0
  8 10  2  0  0  0  0
  9 11  1  0  0  0  0
  9 12  2  0  0  0  0
 11  7  2  0  0  0  0
 12  8  1  0  0  0  0
 13 12  1  0  0  0  0
 14 20  1  0  0  0  0
 15 20  2  0  0  0  0
 15 19  1  0  0  0  0
 16 19  2  0  0  0  0
 17 18  1  0  0  0  0
 17 21  1  0  0  0  0
 19 17  1  0  0  0  0
 20 18  1  0  0  0  0
 22 24  1  0  0  0  0
 24 25  2  0  0  0  0
 24 23  1  0  0  0  0
M  END
>  <MODEL>
9

>  <REMARK>
 VINA RESULT:      -4.3      4.354      7.879
  Name = 
  5 active torsions:
  status: ('A' for Active; 'I' for Inactive)
    1  A    between atoms: C_3  and  N_21
    2  A    between atoms: C_4  and  C_7
    3  A    between atoms: C_9  and  O_24
    4  A    between atoms: C_17  and  N_21
    5  A    between atoms: C_22  and  O_24
                            x       y       z     vdW  Elec       q    Type
                         _______ _______ _______ _____ _____    ______ ____

>  <TORSDO>
F 5

$$$$
