=
 OpenBabel11072413443D

 44 48  0  0  1  0  0  0  0  0999 V2000
  160.7110  210.8660  154.9290 N   0  0  0  0  0  0  0  0  0  0  0  0
  160.1350  210.7140  153.6050 C   0  0  1  0  0  3  0  0  0  0  0  0
  159.1050  212.6590  154.7040 C   0  0  1  0  0  3  0  0  0  0  0  0
  160.0850  211.9600  155.5700 C   0  0  0  0  0  0  0  0  0  0  0  0
  159.3040  211.9950  153.3380 C   0  0  1  0  0  3  0  0  0  0  0  0
  160.3300  212.2900  156.7610 O   0  0  0  0  0  0  0  0  0  0  0  0
  156.8740  213.3650  155.5570 O   0  0  0  0  0  0  0  0  0  0  0  0
  155.9380  211.5120  155.7730 C   0  0  0  0  0  0  0  0  0  0  0  0
  155.7500  212.8340  155.9350 N   0  0  0  0  0  0  0  0  0  0  0  0
  157.1580  211.1970  155.2970 N   0  0  0  0  0  0  0  0  0  0  0  0
  154.9420  210.5420  156.0770 N   0  0  0  0  0  1  0  0  0  0  0  0
  157.7050  212.4210  155.1750 C   0  0  0  0  0  0  0  0  0  0  0  0
  161.3890  209.7910  155.6430 C   0  0  0  0  0  2  0  0  0  0  0  0
  160.3700  208.8520  156.2610 C   0  0  0  0  0  3  0  0  0  0  0  0
  160.3870  207.5400  155.5070 C   0  0  0  0  0  2  0  0  0  0  0  0
  161.0890  207.6540  156.8430 C   0  0  0  0  0  2  0  0  0  0  0  0
  159.9840  212.9150  152.4890 O   0  0  0  0  0  0  0  0  0  0  0  0
  158.0150  214.3620  149.6920 N   0  0  0  0  0  0  0  0  0  0  0  0
  159.5520  213.3270  151.2180 C   0  0  0  0  0  0  0  0  0  0  0  0
  158.4270  214.4460  147.3220 N   0  0  0  0  0  1  0  0  0  0  0  0
  160.3780  213.0250  150.1340 C   0  0  0  0  0  3  0  0  0  0  0  0
  157.4510  214.3710  152.0200 N   0  0  0  0  0  1  0  0  0  0  0  0
  158.3430  214.0190  150.9670 C   0  0  0  0  0  0  0  0  0  0  0  0
  160.0170  213.3920  148.8390 C   0  0  0  0  0  3  0  0  0  0  0  0
  158.8150  214.0680  148.6360 C   0  0  0  0  0  0  0  0  0  0  0  0
  161.1820  210.3580  152.5480 C   0  0  0  0  0  2  0  0  0  0  0  0
  160.8230  209.1440  151.8300 N   0  0  0  0  0  2  0  0  0  0  0  0
  161.8190  208.1460  152.1770 C   0  0  0  0  0  2  0  0  0  0  0  0
  162.2460  207.4010  150.9320 C   0  0  0  0  0  2  0  0  0  0  0  0
  161.0510  207.1620  150.0350 C   0  0  0  0  0  2  0  0  0  0  0  0
  162.0280  208.4240  148.2810 O   0  0  0  0  0  0  0  0  0  0  0  0
  161.4480  207.3540  148.6080 C   0  0  0  0  0  0  0  0  0  0  0  0
  161.2090  206.3080  147.5950 C   0  0  0  0  0  0  0  0  0  0  0  0
  160.3990  206.5420  146.5630 C   0  0  0  0  0  2  0  0  0  0  0  0
  160.8500  201.6970  148.1550 C   0  0  0  0  0  2  0  0  0  0  0  0
  162.2320  204.4720  146.2320 C   0  0  1  0  0  3  0  0  0  0  0  0
  161.3750  204.0170  148.4300 N   0  0  0  0  0  2  0  0  0  0  0  0
  161.7590  203.0190  146.2660 C   0  0  1  0  0  3  0  0  0  0  0  0
  162.0270  205.0480  147.6400 C   0  0  2  0  0  3  0  0  0  0  0  0
  161.2110  202.8620  147.6350 C   0  0  0  0  0  0  0  0  0  0  0  0
  163.5850  204.5160  145.9010 O   0  0  0  0  0  1  0  0  0  0  0  0
  160.2580  203.8590  144.4610 O   0  0  0  0  0  0  0  0  0  0  0  0
  160.7160  202.7890  145.2160 C   0  0  0  0  0  0  0  0  0  0  0  0
  160.2370  201.6410  145.0240 O   0  0  0  0  0  1  0  0  0  0  0  0
  1  4  1  0  0  0  0
  1 13  1  0  0  0  0
  2 26  1  6  0  0  0
  2  1  1  0  0  0  0
  3 12  1  1  0  0  0
  3  4  1  0  0  0  0
  4  6  2  0  0  0  0
  5 17  1  6  0  0  0
  5  2  1  0  0  0  0
  5  3  1  0  0  0  0
  7  9  1  0  0  0  0
  8  9  2  0  0  0  0
  8 11  1  0  0  0  0
 10  8  1  0  0  0  0
 12 10  2  0  0  0  0
 12  7  1  0  0  0  0
 13 14  1  0  0  0  0
 14 16  1  0  0  0  0
 15 14  1  0  0  0  0
 15 16  1  0  0  0  0
 18 23  1  0  0  0  0
 19 17  1  0  0  0  0
 20 25  1  0  0  0  0
 21 19  1  0  0  0  0
 23 19  2  0  0  0  0
 23 22  1  0  0  0  0
 24 21  2  0  0  0  0
 25 24  1  0  0  0  0
 25 18  2  0  0  0  0
 27 28  1  0  0  0  0
 27 26  1  0  0  0  0
 29 28  1  0  0  0  0
 30 29  1  0  0  0  0
 31 32  2  0  0  0  0
 32 30  1  0  0  0  0
 33 32  1  0  0  0  0
 34 33  2  0  0  0  0
 36 41  1  1  0  0  0
 36 38  1  0  0  0  0
 36 39  1  0  0  0  0
 38 43  1  6  0  0  0
 38 40  1  0  0  0  0
 39 33  1  6  0  0  0
 39 37  1  0  0  0  0
 40 35  2  0  0  0  0
 40 37  1  0  0  0  0
 42 43  2  0  0  0  0
 44 43  1  0  0  0  0
M  END
>  <MODEL>
1

>  <REMARK>
 VINA RESULT:      -7.5      0.000      0.000
  Name = 
  14 active torsions:
  status: ('A' for Active; 'I' for Inactive)
    1  A    between atoms: N_2  and  C_15
    2  A    between atoms: C_5  and  C_15
    3  A    between atoms: C_6  and  O_21
    4  A    between atoms: C_10  and  C_16
    5  A    between atoms: C_10  and  C_23
    6  A    between atoms: C_16  and  C_35
    7  A    between atoms: C_19  and  C_26
    8  A    between atoms: O_21  and  C_25
    9  A    between atoms: C_22  and  C_40
   10  A    between atoms: C_23  and  C_28
   11  A    between atoms: C_26  and  N_38
   12  A    between atoms: C_28  and  C_31
   13  A    between atoms: C_30  and  C_41
   14  A    between atoms: C_35  and  N_38
                            x       y       z     vdW  Elec       q    Type
                         _______ _______ _______ _____ _____    ______ ____

>  <TORSDO>
F 14

$$$$
=
 OpenBabel11072413443D

 44 48  0  0  1  0  0  0  0  0999 V2000
  160.9140  211.0760  154.5220 N   0  0  0  0  0  0  0  0  0  0  0  0
  160.2020  210.8170  153.2830 C   0  0  1  0  0  3  0  0  0  0  0  0
  159.1310  212.7070  154.4370 C   0  0  1  0  0  3  0  0  0  0  0  0
  160.2670  212.1360  155.2000 C   0  0  0  0  0  0  0  0  0  0  0  0
  159.2290  212.0070  153.0780 C   0  0  1  0  0  3  0  0  0  0  0  0
  160.6190  212.5370  156.3410 O   0  0  0  0  0  0  0  0  0  0  0  0
  157.1690  213.1510  155.9050 O   0  0  0  0  0  0  0  0  0  0  0  0
  156.1190  211.3580  155.7020 C   0  0  0  0  0  0  0  0  0  0  0  0
  156.0880  212.5560  156.3140 N   0  0  0  0  0  0  0  0  0  0  0  0
  157.1970  211.1850  154.9130 N   0  0  0  0  0  0  0  0  0  0  0  0
  155.1100  210.3700  155.8750 N   0  0  0  0  0  1  0  0  0  0  0  0
  157.8240  212.3650  155.0810 C   0  0  0  0  0  0  0  0  0  0  0  0
  161.7690  210.0980  155.1820 C   0  0  0  0  0  2  0  0  0  0  0  0
  160.9200  209.0640  155.9000 C   0  0  0  0  0  3  0  0  0  0  0  0
  161.1700  207.7050  155.2830 C   0  0  0  0  0  2  0  0  0  0  0  0
  161.8300  208.0730  156.5940 C   0  0  0  0  0  2  0  0  0  0  0  0
  159.7150  212.9470  152.1250 O   0  0  0  0  0  0  0  0  0  0  0  0
  158.9640  213.6620  148.5580 N   0  0  0  0  0  0  0  0  0  0  0  0
  159.0710  213.3060  150.9300 C   0  0  0  0  0  0  0  0  0  0  0  0
  156.9670  214.4520  147.4730 N   0  0  0  0  0  1  0  0  0  0  0  0
  157.7390  213.7160  151.0210 C   0  0  0  0  0  3  0  0  0  0  0  0
  161.0300  212.8690  149.4750 N   0  0  0  0  0  1  0  0  0  0  0  0
  159.6790  213.2830  149.6520 C   0  0  0  0  0  0  0  0  0  0  0  0
  157.0310  214.0960  149.8820 C   0  0  0  0  0  3  0  0  0  0  0  0
  157.6700  214.0630  148.6440 C   0  0  0  0  0  0  0  0  0  0  0  0
  161.1470  210.5110  152.1190 C   0  0  0  0  0  2  0  0  0  0  0  0
  161.9160  209.2990  152.3600 N   0  0  0  0  0  2  0  0  0  0  0  0
  161.7130  208.4430  151.2050 C   0  0  0  0  0  2  0  0  0  0  0  0
  161.0330  207.1620  151.6360 C   0  0  0  0  0  2  0  0  0  0  0  0
  161.9080  205.9730  151.3030 C   0  0  0  0  0  2  0  0  0  0  0  0
  160.5100  204.0840  150.9840 O   0  0  0  0  0  0  0  0  0  0  0  0
  161.1510  205.0210  150.4360 C   0  0  0  0  0  0  0  0  0  0  0  0
  161.1100  205.1800  148.9700 C   0  0  0  0  0  0  0  0  0  0  0  0
  160.5270  206.2460  148.4230 C   0  0  0  0  0  2  0  0  0  0  0  0
  160.6020  201.5400  146.1070 C   0  0  0  0  0  2  0  0  0  0  0  0
  162.1150  204.8040  146.7060 C   0  0  1  0  0  3  0  0  0  0  0  0
  161.1870  202.9650  147.9410 N   0  0  0  0  0  2  0  0  0  0  0  0
  161.5990  203.7720  145.7040 C   0  0  1  0  0  3  0  0  0  0  0  0
  161.8890  204.2250  148.1090 C   0  0  2  0  0  3  0  0  0  0  0  0
  161.0110  202.7150  146.5620 C   0  0  0  0  0  0  0  0  0  0  0  0
  163.4780  205.0160  146.5010 O   0  0  0  0  0  1  0  0  0  0  0  0
  159.8010  203.5810  143.9880 O   0  0  0  0  0  0  0  0  0  0  0  0
  160.5790  204.3920  144.8000 C   0  0  0  0  0  0  0  0  0  0  0  0
  160.4320  205.6420  144.7550 O   0  0  0  0  0  1  0  0  0  0  0  0
  1 13  1  0  0  0  0
  1  4  1  0  0  0  0
  2 26  1  6  0  0  0
  2  1  1  0  0  0  0
  3 12  1  1  0  0  0
  3  4  1  0  0  0  0
  4  6  2  0  0  0  0
  5 17  1  6  0  0  0
  5  2  1  0  0  0  0
  5  3  1  0  0  0  0
  7  9  1  0  0  0  0
  8 11  1  0  0  0  0
  8  9  2  0  0  0  0
 10 12  2  0  0  0  0
 10  8  1  0  0  0  0
 12  7  1  0  0  0  0
 13 14  1  0  0  0  0
 14 16  1  0  0  0  0
 15 14  1  0  0  0  0
 15 16  1  0  0  0  0
 18 25  2  0  0  0  0
 18 23  1  0  0  0  0
 19 21  1  0  0  0  0
 19 17  1  0  0  0  0
 20 25  1  0  0  0  0
 22 23  1  0  0  0  0
 23 19  2  0  0  0  0
 24 21  2  0  0  0  0
 25 24  1  0  0  0  0
 26 27  1  0  0  0  0
 28 29  1  0  0  0  0
 28 27  1  0  0  0  0
 30 29  1  0  0  0  0
 32 31  2  0  0  0  0
 32 30  1  0  0  0  0
 33 32  1  0  0  0  0
 34 33  2  0  0  0  0
 35 40  2  0  0  0  0
 36 41  1  6  0  0  0
 36 39  1  0  0  0  0
 37 39  1  0  0  0  0
 38 43  1  6  0  0  0
 38 40  1  0  0  0  0
 38 36  1  0  0  0  0
 39 33  1  1  0  0  0
 40 37  1  0  0  0  0
 42 43  2  0  0  0  0
 44 43  1  0  0  0  0
M  END
>  <MODEL>
2

>  <REMARK>
 VINA RESULT:      -7.2      1.382      1.765
  Name = 
  14 active torsions:
  status: ('A' for Active; 'I' for Inactive)
    1  A    between atoms: N_2  and  C_15
    2  A    between atoms: C_5  and  C_15
    3  A    between atoms: C_6  and  O_21
    4  A    between atoms: C_10  and  C_16
    5  A    between atoms: C_10  and  C_23
    6  A    between atoms: C_16  and  C_35
    7  A    between atoms: C_19  and  C_26
    8  A    between atoms: O_21  and  C_25
    9  A    between atoms: C_22  and  C_40
   10  A    between atoms: C_23  and  C_28
   11  A    between atoms: C_26  and  N_38
   12  A    between atoms: C_28  and  C_31
   13  A    between atoms: C_30  and  C_41
   14  A    between atoms: C_35  and  N_38
                            x       y       z     vdW  Elec       q    Type
                         _______ _______ _______ _____ _____    ______ ____

>  <TORSDO>
F 14

$$$$
=
 OpenBabel11072413443D

 44 48  0  0  1  0  0  0  0  0999 V2000
  160.9930  210.8240  154.8380 N   0  0  0  0  0  0  0  0  0  0  0  0
  160.4660  210.5880  153.5060 C   0  0  1  0  0  3  0  0  0  0  0  0
  159.3110  212.5250  154.4880 C   0  0  1  0  0  3  0  0  0  0  0  0
  160.2960  211.9120  155.4120 C   0  0  0  0  0  0  0  0  0  0  0  0
  159.5840  211.8150  153.1580 C   0  0  1  0  0  3  0  0  0  0  0  0
  160.4880  212.3040  156.5940 O   0  0  0  0  0  0  0  0  0  0  0  0
  157.0340  211.5490  154.2330 O   0  0  0  0  0  0  0  0  0  0  0  0
  156.1290  212.2160  155.9920 C   0  0  0  0  0  0  0  0  0  0  0  0
  155.9030  211.5070  154.8720 N   0  0  0  0  0  0  0  0  0  0  0  0
  157.3820  212.7040  156.0760 N   0  0  0  0  0  0  0  0  0  0  0  0
  155.1380  212.4290  156.9900 N   0  0  0  0  0  1  0  0  0  0  0  0
  157.9100  212.2410  154.9270 C   0  0  0  0  0  0  0  0  0  0  0  0
  161.6980  209.8140  155.6170 C   0  0  0  0  0  2  0  0  0  0  0  0
  160.7460  209.1560  156.6000 C   0  0  0  0  0  3  0  0  0  0  0  0
  160.2570  207.8490  156.0140 C   0  0  0  0  0  2  0  0  0  0  0  0
  161.3440  207.8460  157.0660 C   0  0  0  0  0  2  0  0  0  0  0  0
  160.2470  212.7300  152.2900 O   0  0  0  0  0  0  0  0  0  0  0  0
  158.1930  214.1510  149.5410 N   0  0  0  0  0  0  0  0  0  0  0  0
  159.7830  213.1430  151.0310 C   0  0  0  0  0  0  0  0  0  0  0  0
  158.5650  214.2710  147.1650 N   0  0  0  0  0  1  0  0  0  0  0  0
  160.5990  212.8750  149.9300 C   0  0  0  0  0  3  0  0  0  0  0  0
  157.6670  214.1200  151.8770 N   0  0  0  0  0  1  0  0  0  0  0  0
  158.5510  213.8030  150.8070 C   0  0  0  0  0  0  0  0  0  0  0  0
  160.2070  213.2460  148.6450 C   0  0  0  0  0  3  0  0  0  0  0  0
  158.9840  213.8910  148.4690 C   0  0  0  0  0  0  0  0  0  0  0  0
  161.5610  210.2380  152.4960 C   0  0  0  0  0  2  0  0  0  0  0  0
  161.0310  209.4720  151.3780 N   0  0  0  0  0  2  0  0  0  0  0  0
  160.6390  208.1790  151.9080 C   0  0  0  0  0  2  0  0  0  0  0  0
  161.7600  207.6180  152.7570 C   0  0  0  0  0  2  0  0  0  0  0  0
  161.7080  206.1060  152.7490 C   0  0  0  0  0  2  0  0  0  0  0  0
  163.0150  206.2560  150.7760 O   0  0  0  0  0  0  0  0  0  0  0  0
  162.1560  205.5950  151.4190 C   0  0  0  0  0  0  0  0  0  0  0  0
  161.6430  204.3260  150.8690 C   0  0  0  0  0  0  0  0  0  0  0  0
  161.9080  203.1710  151.4800 C   0  0  0  0  0  2  0  0  0  0  0  0
  160.4840  206.8060  147.1000 C   0  0  0  0  0  2  0  0  0  0  0  0
  161.1790  203.5280  148.5400 C   0  0  1  0  0  3  0  0  0  0  0  0
  160.4790  205.7190  149.2330 N   0  0  0  0  0  2  0  0  0  0  0  0
  161.1770  204.4360  147.3120 C   0  0  1  0  0  3  0  0  0  0  0  0
  160.6720  204.3650  149.7230 C   0  0  2  0  0  3  0  0  0  0  0  0
  160.7820  205.7590  147.8550 C   0  0  0  0  0  0  0  0  0  0  0  0
  160.3200  202.4500  148.3270 O   0  0  0  0  0  1  0  0  0  0  0  0
  162.7450  203.8650  145.4590 O   0  0  0  0  0  0  0  0  0  0  0  0
  162.5390  204.4700  146.6900 C   0  0  0  0  0  0  0  0  0  0  0  0
  163.5030  205.0240  147.2800 O   0  0  0  0  0  1  0  0  0  0  0  0
  1  4  1  0  0  0  0
  1 13  1  0  0  0  0
  2 26  1  6  0  0  0
  2  1  1  0  0  0  0
  3 12  1  1  0  0  0
  3  4  1  0  0  0  0
  4  6  2  0  0  0  0
  5 17  1  6  0  0  0
  5  2  1  0  0  0  0
  5  3  1  0  0  0  0
  7  9  1  0  0  0  0
  7 12  1  0  0  0  0
  8 10  1  0  0  0  0
  8 11  1  0  0  0  0
  9  8  2  0  0  0  0
 12 10  2  0  0  0  0
 13 14  1  0  0  0  0
 14 16  1  0  0  0  0
 15 14  1  0  0  0  0
 15 16  1  0  0  0  0
 18 23  1  0  0  0  0
 19 17  1  0  0  0  0
 20 25  1  0  0  0  0
 21 19  1  0  0  0  0
 23 19  2  0  0  0  0
 23 22  1  0  0  0  0
 24 21  2  0  0  0  0
 25 24  1  0  0  0  0
 25 18  2  0  0  0  0
 27 28  1  0  0  0  0
 27 26  1  0  0  0  0
 28 29  1  0  0  0  0
 30 29  1  0  0  0  0
 31 32  2  0  0  0  0
 32 30  1  0  0  0  0
 33 32  1  0  0  0  0
 33 34  2  0  0  0  0
 35 40  2  0  0  0  0
 36 41  1  6  0  0  0
 36 39  1  0  0  0  0
 37 39  1  0  0  0  0
 38 43  1  1  0  0  0
 38 40  1  0  0  0  0
 38 36  1  0  0  0  0
 39 33  1  1  0  0  0
 40 37  1  0  0  0  0
 42 43  2  0  0  0  0
 43 44  1  0  0  0  0
M  END
>  <MODEL>
3

>  <REMARK>
 VINA RESULT:      -6.0      1.432      2.288
  Name = 
  14 active torsions:
  status: ('A' for Active; 'I' for Inactive)
    1  A    between atoms: N_2  and  C_15
    2  A    between atoms: C_5  and  C_15
    3  A    between atoms: C_6  and  O_21
    4  A    between atoms: C_10  and  C_16
    5  A    between atoms: C_10  and  C_23
    6  A    between atoms: C_16  and  C_35
    7  A    between atoms: C_19  and  C_26
    8  A    between atoms: O_21  and  C_25
    9  A    between atoms: C_22  and  C_40
   10  A    between atoms: C_23  and  C_28
   11  A    between atoms: C_26  and  N_38
   12  A    between atoms: C_28  and  C_31
   13  A    between atoms: C_30  and  C_41
   14  A    between atoms: C_35  and  N_38
                            x       y       z     vdW  Elec       q    Type
                         _______ _______ _______ _____ _____    ______ ____

>  <TORSDO>
F 14

$$$$
=
 OpenBabel11072413443D

 44 48  0  0  1  0  0  0  0  0999 V2000
  160.9850  210.1730  154.2100 N   0  0  0  0  0  0  0  0  0  0  0  0
  160.4680  209.9010  152.8810 C   0  0  1  0  0  3  0  0  0  0  0  0
  159.7890  212.1680  153.5520 C   0  0  1  0  0  3  0  0  0  0  0  0
  160.5560  211.4610  154.6060 C   0  0  0  0  0  0  0  0  0  0  0  0
  159.9290  211.2490  152.3350 C   0  0  1  0  0  3  0  0  0  0  0  0
  160.7930  211.9440  155.7450 O   0  0  0  0  0  0  0  0  0  0  0  0
  157.6480  211.3490  154.5270 O   0  0  0  0  0  0  0  0  0  0  0  0
  156.3990  212.9750  154.1370 C   0  0  0  0  0  0  0  0  0  0  0  0
  156.4210  211.7450  154.6830 N   0  0  0  0  0  0  0  0  0  0  0  0
  157.5890  213.3640  153.6410 N   0  0  0  0  0  0  0  0  0  0  0  0
  155.2290  213.7830  154.0880 N   0  0  0  0  0  1  0  0  0  0  0  0
  158.3450  212.2860  153.9240 C   0  0  0  0  0  0  0  0  0  0  0  0
  161.3890  209.1320  155.1480 C   0  0  0  0  0  2  0  0  0  0  0  0
  160.1740  208.5840  155.8740 C   0  0  0  0  0  3  0  0  0  0  0  0
  160.1660  207.0760  155.7530 C   0  0  0  0  0  2  0  0  0  0  0  0
  160.6350  207.7290  157.0350 C   0  0  0  0  0  2  0  0  0  0  0  0
  160.8300  211.8590  151.4150 O   0  0  0  0  0  0  0  0  0  0  0  0
  160.7350  212.9560  147.8680 N   0  0  0  0  0  0  0  0  0  0  0  0
  160.4690  212.4710  150.2040 C   0  0  0  0  0  0  0  0  0  0  0  0
  159.2370  214.4240  146.6880 N   0  0  0  0  0  1  0  0  0  0  0  0
  159.3460  213.3000  150.2170 C   0  0  0  0  0  3  0  0  0  0  0  0
  162.3150  211.4710  148.8850 N   0  0  0  0  0  1  0  0  0  0  0  0
  161.1660  212.3060  148.9830 C   0  0  0  0  0  0  0  0  0  0  0  0
  158.9270  213.9510  149.0580 C   0  0  0  0  0  3  0  0  0  0  0  0
  159.6450  213.7640  147.8780 C   0  0  0  0  0  0  0  0  0  0  0  0
  161.4810  209.1720  151.9970 C   0  0  0  0  0  2  0  0  0  0  0  0
  161.8790  207.8990  152.5780 N   0  0  0  0  0  2  0  0  0  0  0  0
  161.1750  206.8670  151.8380 C   0  0  0  0  0  2  0  0  0  0  0  0
  162.1500  205.7850  151.4260 C   0  0  0  0  0  2  0  0  0  0  0  0
  161.4150  204.4800  151.2110 C   0  0  0  0  0  2  0  0  0  0  0  0
  160.4710  205.4500  149.2630 O   0  0  0  0  0  0  0  0  0  0  0  0
  160.9270  204.4060  149.8010 C   0  0  0  0  0  0  0  0  0  0  0  0
  161.0060  203.1540  149.0240 C   0  0  0  0  0  0  0  0  0  0  0  0
  160.3250  202.0760  149.4110 C   0  0  0  0  0  2  0  0  0  0  0  0
  160.2350  203.3930  144.4350 C   0  0  0  0  0  2  0  0  0  0  0  0
  162.1440  204.5810  147.3070 C   0  0  1  0  0  3  0  0  0  0  0  0
  160.8530  202.6700  146.6330 N   0  0  0  0  0  2  0  0  0  0  0  0
  161.5760  204.8580  145.9160 C   0  0  1  0  0  3  0  0  0  0  0  0
  161.7120  203.1600  147.6970 C   0  0  2  0  0  3  0  0  0  0  0  0
  160.7670  203.6510  145.6210 C   0  0  0  0  0  0  0  0  0  0  0  0
  163.5360  204.6520  147.2680 O   0  0  0  0  0  1  0  0  0  0  0  0
  160.7530  206.9150  147.0600 O   0  0  0  0  0  1  0  0  0  0  0  0
  160.7410  206.1010  145.9370 C   0  0  0  0  0  0  0  0  0  0  0  0
  160.0150  206.4070  144.9550 O   0  0  0  0  0  0  0  0  0  0  0  0
  1  4  1  0  0  0  0
  1 13  1  0  0  0  0
  2 26  1  6  0  0  0
  2  1  1  0  0  0  0
  3 12  1  1  0  0  0
  3  4  1  0  0  0  0
  4  6  2  0  0  0  0
  5 17  1  6  0  0  0
  5  2  1  0  0  0  0
  5  3  1  0  0  0  0
  7  9  1  0  0  0  0
  8  9  2  0  0  0  0
 10 12  2  0  0  0  0
 10  8  1  0  0  0  0
 11  8  1  0  0  0  0
 12  7  1  0  0  0  0
 13 14  1  0  0  0  0
 14 16  1  0  0  0  0
 15 14  1  0  0  0  0
 15 16  1  0  0  0  0
 18 25  2  0  0  0  0
 18 23  1  0  0  0  0
 19 21  1  0  0  0  0
 19 17  1  0  0  0  0
 20 25  1  0  0  0  0
 22 23  1  0  0  0  0
 23 19  2  0  0  0  0
 24 21  2  0  0  0  0
 25 24  1  0  0  0  0
 26 27  1  0  0  0  0
 28 27  1  0  0  0  0
 29 28  1  0  0  0  0
 30 29  1  0  0  0  0
 31 32  2  0  0  0  0
 32 30  1  0  0  0  0
 33 34  2  0  0  0  0
 33 32  1  0  0  0  0
 35 40  2  0  0  0  0
 36 41  1  6  0  0  0
 36 39  1  0  0  0  0
 37 39  1  0  0  0  0
 38 43  1  1  0  0  0
 38 36  1  0  0  0  0
 39 33  1  1  0  0  0
 40 38  1  0  0  0  0
 40 37  1  0  0  0  0
 43 42  1  0  0  0  0
 44 43  2  0  0  0  0
M  END
>  <MODEL>
4

>  <REMARK>
 VINA RESULT:      -5.8      1.693      2.605
  Name = 
  14 active torsions:
  status: ('A' for Active; 'I' for Inactive)
    1  A    between atoms: N_2  and  C_15
    2  A    between atoms: C_5  and  C_15
    3  A    between atoms: C_6  and  O_21
    4  A    between atoms: C_10  and  C_16
    5  A    between atoms: C_10  and  C_23
    6  A    between atoms: C_16  and  C_35
    7  A    between atoms: C_19  and  C_26
    8  A    between atoms: O_21  and  C_25
    9  A    between atoms: C_22  and  C_40
   10  A    between atoms: C_23  and  C_28
   11  A    between atoms: C_26  and  N_38
   12  A    between atoms: C_28  and  C_31
   13  A    between atoms: C_30  and  C_41
   14  A    between atoms: C_35  and  N_38
                            x       y       z     vdW  Elec       q    Type
                         _______ _______ _______ _____ _____    ______ ____

>  <TORSDO>
F 14

$$$$
=
 OpenBabel11072413443D

 44 48  0  0  1  0  0  0  0  0999 V2000
  161.7850  206.0030  147.1540 N   0  0  0  0  0  0  0  0  0  0  0  0
  160.8360  206.3600  148.1920 C   0  0  1  0  0  3  0  0  0  0  0  0
  161.9800  204.2810  148.8400 C   0  0  1  0  0  3  0  0  0  0  0  0
  162.4090  204.7860  147.5120 C   0  0  0  0  0  0  0  0  0  0  0  0
  161.1290  205.4270  149.3950 C   0  0  1  0  0  3  0  0  0  0  0  0
  163.2320  204.1900  146.7680 O   0  0  0  0  0  0  0  0  0  0  0  0
  161.2040  202.2080  147.6990 O   0  0  0  0  0  0  0  0  0  0  0  0
  159.7060  201.5820  149.0100 C   0  0  0  0  0  0  0  0  0  0  0  0
  160.3240  201.2660  147.8580 N   0  0  0  0  0  0  0  0  0  0  0  0
  160.1800  202.7050  149.5840 N   0  0  0  0  0  0  0  0  0  0  0  0
  158.6530  200.8050  149.5670 N   0  0  0  0  0  1  0  0  0  0  0  0
  161.1370  203.0530  148.7020 C   0  0  0  0  0  0  0  0  0  0  0  0
  161.7100  206.4990  145.7850 C   0  0  0  0  0  2  0  0  0  0  0  0
  160.5290  205.8710  145.0680 C   0  0  0  0  0  3  0  0  0  0  0  0
  160.9610  205.4540  143.6790 C   0  0  0  0  0  2  0  0  0  0  0  0
  160.8420  204.4190  144.7760 C   0  0  0  0  0  2  0  0  0  0  0  0
  161.8720  206.0800  150.4200 O   0  0  0  0  0  0  0  0  0  0  0  0
  160.8620  205.4110  153.9310 N   0  0  0  0  0  0  0  0  0  0  0  0
  161.4670  206.2280  151.7560 C   0  0  0  0  0  0  0  0  0  0  0  0
  160.2170  206.8890  155.7180 N   0  0  0  0  0  1  0  0  0  0  0  0
  161.2440  207.5280  152.2160 C   0  0  0  0  0  3  0  0  0  0  0  0
  161.4810  203.8030  152.2680 N   0  0  0  0  0  1  0  0  0  0  0  0
  161.2670  205.1550  152.6570 C   0  0  0  0  0  0  0  0  0  0  0  0
  160.8310  207.7590  153.5270 C   0  0  0  0  0  3  0  0  0  0  0  0
  160.6430  206.6730  154.3800 C   0  0  0  0  0  0  0  0  0  0  0  0
  160.8310  207.8610  148.4900 C   0  0  0  0  0  2  0  0  0  0  0  0
  162.1800  208.3730  148.6740 N   0  0  0  0  0  2  0  0  0  0  0  0
  162.0460  209.7640  149.0690 C   0  0  0  0  0  2  0  0  0  0  0  0
  161.9610  209.8570  150.5770 C   0  0  0  0  0  2  0  0  0  0  0  0
  161.2050  211.1040  150.9770 C   0  0  0  0  0  2  0  0  0  0  0  0
  161.9700  210.7020  153.1860 O   0  0  0  0  0  0  0  0  0  0  0  0
  161.0330  211.1320  152.4610 C   0  0  0  0  0  0  0  0  0  0  0  0
  159.8150  211.6840  153.0840 C   0  0  0  0  0  0  0  0  0  0  0  0
  158.6850  211.7850  152.3850 C   0  0  0  0  0  2  0  0  0  0  0  0
  157.7380  214.2820  156.3460 C   0  0  0  0  0  1  0  0  0  0  0  0
  158.8910  210.9820  155.3050 C   0  0  1  0  0  3  0  0  0  0  0  0
  159.3320  213.3000  154.8530 N   0  0  0  0  0  0  0  0  0  0  0  0
  157.9110  211.8200  156.1250 C   0  0  1  0  0  3  0  0  0  0  0  0
  159.8120  211.9600  154.5620 C   0  0  2  0  0  3  0  0  0  0  0  0
  158.2340  213.2150  155.7370 C   0  0  0  0  0  0  0  0  0  0  0  0
  159.6500  210.1810  156.1580 O   0  0  0  0  0  1  0  0  0  0  0  0
  155.5040  211.5880  156.7330 O   0  0  0  0  0  1  0  0  0  0  0  0
  156.5010  211.4550  155.7770 C   0  0  0  0  0  0  0  0  0  0  0  0
  156.2130  211.0110  154.6350 O   0  0  0  0  0  0  0  0  0  0  0  0
  1  4  1  0  0  0  0
  1  2  1  0  0  0  0
  2 26  1  1  0  0  0
  2  5  1  0  0  0  0
  3 12  1  6  0  0  0
  3  5  1  0  0  0  0
  4  3  1  0  0  0  0
  5 17  1  1  0  0  0
  6  4  2  0  0  0  0
  7  9  1  0  0  0  0
  7 12  1  0  0  0  0
  8 11  1  0  0  0  0
  8 10  1  0  0  0  0
  9  8  2  0  0  0  0
 12 10  2  0  0  0  0
 13  1  1  0  0  0  0
 14 13  1  0  0  0  0
 15 16  1  0  0  0  0
 15 14  1  0  0  0  0
 16 14  1  0  0  0  0
 17 19  1  0  0  0  0
 18 25  1  0  0  0  0
 19 21  2  0  0  0  0
 19 23  1  0  0  0  0
 21 24  1  0  0  0  0
 22 23  1  0  0  0  0
 23 18  2  0  0  0  0
 24 25  2  0  0  0  0
 25 20  1  0  0  0  0
 26 27  1  0  0  0  0
 27 28  1  0  0  0  0
 28 29  1  0  0  0  0
 29 30  1  0  0  0  0
 30 32  1  0  0  0  0
 32 33  1  0  0  0  0
 32 31  2  0  0  0  0
 34 33  2  0  0  0  0
 36 38  1  0  0  0  0
 36 41  1  1  0  0  0
 37 40  2  0  0  0  0
 38 43  1  6  0  0  0
 39 33  1  6  0  0  0
 39 37  1  0  0  0  0
 39 36  1  0  0  0  0
 40 38  1  0  0  0  0
 40 35  1  0  0  0  0
 43 42  1  0  0  0  0
 44 43  2  0  0  0  0
M  END
>  <MODEL>
5

>  <REMARK>
 VINA RESULT:      -4.8      2.726     10.550
  Name = 
  14 active torsions:
  status: ('A' for Active; 'I' for Inactive)
    1  A    between atoms: N_2  and  C_15
    2  A    between atoms: C_5  and  C_15
    3  A    between atoms: C_6  and  O_21
    4  A    between atoms: C_10  and  C_16
    5  A    between atoms: C_10  and  C_23
    6  A    between atoms: C_16  and  C_35
    7  A    between atoms: C_19  and  C_26
    8  A    between atoms: O_21  and  C_25
    9  A    between atoms: C_22  and  C_40
   10  A    between atoms: C_23  and  C_28
   11  A    between atoms: C_26  and  N_38
   12  A    between atoms: C_28  and  C_31
   13  A    between atoms: C_30  and  C_41
   14  A    between atoms: C_35  and  N_38
                            x       y       z     vdW  Elec       q    Type
                         _______ _______ _______ _____ _____    ______ ____

>  <TORSDO>
F 14

$$$$
=
 OpenBabel11072413443D

 44 48  0  0  1  0  0  0  0  0999 V2000
  161.1800  205.4710  151.7740 N   0  0  0  0  0  0  0  0  0  0  0  0
  162.2570  205.6300  150.8140 C   0  0  1  0  0  3  0  0  0  0  0  0
  160.5070  204.2140  149.8220 C   0  0  1  0  0  3  0  0  0  0  0  0
  160.1980  204.6230  151.2140 C   0  0  0  0  0  0  0  0  0  0  0  0
  161.7350  205.0590  149.4700 C   0  0  1  0  0  3  0  0  0  0  0  0
  159.1750  204.2450  151.8450 O   0  0  0  0  0  0  0  0  0  0  0  0
  161.0960  201.9990  150.7980 O   0  0  0  0  0  0  0  0  0  0  0  0
  161.3650  200.8710  149.0630 C   0  0  0  0  0  0  0  0  0  0  0  0
  161.4090  200.8010  150.4060 N   0  0  0  0  0  0  0  0  0  0  0  0
  161.0280  202.0890  148.5990 N   0  0  0  0  0  0  0  0  0  0  0  0
  161.6490  199.7630  148.2170 N   0  0  0  0  0  1  0  0  0  0  0  0
  160.8650  202.7620  149.7540 C   0  0  0  0  0  0  0  0  0  0  0  0
  161.3370  205.6900  153.2070 C   0  0  0  0  0  2  0  0  0  0  0  0
  160.6880  207.0010  153.6090 C   0  0  0  0  0  3  0  0  0  0  0  0
  160.1120  206.8610  155.0010 C   0  0  0  0  0  2  0  0  0  0  0  0
  161.4290  207.5770  154.7960 C   0  0  0  0  0  2  0  0  0  0  0  0
  161.3280  206.0840  148.5670 O   0  0  0  0  0  0  0  0  0  0  0  0
  162.3760  205.4530  145.0600 N   0  0  0  0  0  0  0  0  0  0  0  0
  161.3600  205.9970  147.1660 C   0  0  0  0  0  0  0  0  0  0  0  0
  161.2650  205.8560  142.9630 N   0  0  0  0  0  1  0  0  0  0  0  0
  160.2400  206.4590  146.4720 C   0  0  0  0  0  3  0  0  0  0  0  0
  163.6190  204.9830  147.0520 N   0  0  0  0  0  1  0  0  0  0  0  0
  162.4460  205.4810  146.4190 C   0  0  0  0  0  0  0  0  0  0  0  0
  160.1970  206.4160  145.0790 C   0  0  0  0  0  3  0  0  0  0  0  0
  161.2890  205.9030  144.3830 C   0  0  0  0  0  0  0  0  0  0  0  0
  162.7990  207.0600  150.7730 C   0  0  0  0  0  2  0  0  0  0  0  0
  161.7280  208.0320  150.6140 N   0  0  0  0  0  2  0  0  0  0  0  0
  162.3560  209.3410  150.5860 C   0  0  0  0  0  2  0  0  0  0  0  0
  162.3240  209.9490  151.9710 C   0  0  0  0  0  2  0  0  0  0  0  0
  160.9110  210.3570  152.3260 C   0  0  0  0  0  2  0  0  0  0  0  0
  161.8280  210.8680  154.4530 O   0  0  0  0  0  0  0  0  0  0  0  0
  160.9150  211.1070  153.6180 C   0  0  0  0  0  0  0  0  0  0  0  0
  159.9020  212.1390  153.9120 C   0  0  0  0  0  0  0  0  0  0  0  0
  159.1630  212.6570  152.9320 C   0  0  0  0  0  2  0  0  0  0  0  0
  156.8700  214.4530  156.5860 C   0  0  0  0  0  1  0  0  0  0  0  0
  158.7240  211.3700  155.9850 C   0  0  1  0  0  3  0  0  0  0  0  0
  158.8470  213.7100  155.4580 N   0  0  0  0  0  0  0  0  0  0  0  0
  157.4870  212.0530  156.5660 C   0  0  1  0  0  3  0  0  0  0  0  0
  159.5870  212.4650  155.3450 C   0  0  2  0  0  3  0  0  0  0  0  0
  157.6380  213.4670  156.1460 C   0  0  0  0  0  0  0  0  0  0  0  0
  159.4390  210.7470  157.0080 O   0  0  0  0  0  1  0  0  0  0  0  0
  156.2130  211.0340  154.6810 O   0  0  0  0  0  0  0  0  0  0  0  0
  156.2430  211.4330  156.0090 C   0  0  0  0  0  0  0  0  0  0  0  0
  155.2180  211.2860  156.7250 O   0  0  0  0  0  1  0  0  0  0  0  0
  1 13  1  0  0  0  0
  2 26  1  6  0  0  0
  2  1  1  0  0  0  0
  3 12  1  1  0  0  0
  3  4  1  0  0  0  0
  4  1  1  0  0  0  0
  4  6  2  0  0  0  0
  5 17  1  6  0  0  0
  5  3  1  0  0  0  0
  5  2  1  0  0  0  0
  8  9  2  0  0  0  0
  9  7  1  0  0  0  0
 10  8  1  0  0  0  0
 10 12  2  0  0  0  0
 11  8  1  0  0  0  0
 12  7  1  0  0  0  0
 13 14  1  0  0  0  0
 14 16  1  0  0  0  0
 14 15  1  0  0  0  0
 16 15  1  0  0  0  0
 18 23  1  0  0  0  0
 19 17  1  0  0  0  0
 20 25  1  0  0  0  0
 21 19  1  0  0  0  0
 23 22  1  0  0  0  0
 23 19  2  0  0  0  0
 24 21  2  0  0  0  0
 25 18  2  0  0  0  0
 25 24  1  0  0  0  0
 27 26  1  0  0  0  0
 28 27  1  0  0  0  0
 28 29  1  0  0  0  0
 29 30  1  0  0  0  0
 30 32  1  0  0  0  0
 32 33  1  0  0  0  0
 32 31  2  0  0  0  0
 34 33  2  0  0  0  0
 36 38  1  0  0  0  0
 36 41  1  1  0  0  0
 37 40  2  0  0  0  0
 38 43  1  6  0  0  0
 39 33  1  6  0  0  0
 39 37  1  0  0  0  0
 39 36  1  0  0  0  0
 40 38  1  0  0  0  0
 40 35  1  0  0  0  0
 42 43  2  0  0  0  0
 43 44  1  0  0  0  0
M  END
>  <MODEL>
6

>  <REMARK>
 VINA RESULT:      -4.6      2.982     10.136
  Name = 
  14 active torsions:
  status: ('A' for Active; 'I' for Inactive)
    1  A    between atoms: N_2  and  C_15
    2  A    between atoms: C_5  and  C_15
    3  A    between atoms: C_6  and  O_21
    4  A    between atoms: C_10  and  C_16
    5  A    between atoms: C_10  and  C_23
    6  A    between atoms: C_16  and  C_35
    7  A    between atoms: C_19  and  C_26
    8  A    between atoms: O_21  and  C_25
    9  A    between atoms: C_22  and  C_40
   10  A    between atoms: C_23  and  C_28
   11  A    between atoms: C_26  and  N_38
   12  A    between atoms: C_28  and  C_31
   13  A    between atoms: C_30  and  C_41
   14  A    between atoms: C_35  and  N_38
                            x       y       z     vdW  Elec       q    Type
                         _______ _______ _______ _____ _____    ______ ____

>  <TORSDO>
F 14

$$$$
=
 OpenBabel11072413443D

 44 48  0  0  1  0  0  0  0  0999 V2000
  161.8330  205.8810  147.0750 N   0  0  0  0  0  0  0  0  0  0  0  0
  160.8800  206.3000  148.0870 C   0  0  1  0  0  3  0  0  0  0  0  0
  161.9960  204.2450  148.8470 C   0  0  1  0  0  3  0  0  0  0  0  0
  162.4410  204.6770  147.5000 C   0  0  0  0  0  0  0  0  0  0  0  0
  161.1530  205.4260  149.3370 C   0  0  1  0  0  3  0  0  0  0  0  0
  163.2630  204.0360  146.7930 O   0  0  0  0  0  0  0  0  0  0  0  0
  161.2610  202.0840  147.8510 O   0  0  0  0  0  0  0  0  0  0  0  0
  159.6640  201.6030  149.1060 C   0  0  0  0  0  0  0  0  0  0  0  0
  160.3540  201.1720  148.0340 N   0  0  0  0  0  0  0  0  0  0  0  0
  160.1190  202.7680  149.6050 N   0  0  0  0  0  0  0  0  0  0  0  0
  158.5590  200.8950  149.6560 N   0  0  0  0  0  1  0  0  0  0  0  0
  161.1410  203.0200  148.7650 C   0  0  0  0  0  0  0  0  0  0  0  0
  161.7740  206.3090  145.6830 C   0  0  0  0  0  2  0  0  0  0  0  0
  161.8380  205.1020  144.7640 C   0  0  0  0  0  3  0  0  0  0  0  0
  160.4300  204.6400  144.4570 C   0  0  0  0  0  2  0  0  0  0  0  0
  161.1980  205.4550  143.4380 C   0  0  0  0  0  2  0  0  0  0  0  0
  161.8960  206.1220  150.3340 O   0  0  0  0  0  0  0  0  0  0  0  0
  160.9350  205.5480  153.8750 N   0  0  0  0  0  0  0  0  0  0  0  0
  161.5000  206.3050  151.6680 C   0  0  0  0  0  0  0  0  0  0  0  0
  160.2750  207.0690  155.6200 N   0  0  0  0  0  1  0  0  0  0  0  0
  161.2520  207.6140  152.0880 C   0  0  0  0  0  3  0  0  0  0  0  0
  161.5740  203.8990  152.2600 N   0  0  0  0  0  1  0  0  0  0  0  0
  161.3330  205.2590  152.6070 C   0  0  0  0  0  0  0  0  0  0  0  0
  160.8480  207.8800  153.3950 C   0  0  0  0  0  3  0  0  0  0  0  0
  160.6920  206.8190  154.2850 C   0  0  0  0  0  0  0  0  0  0  0  0
  160.8880  207.8140  148.3080 C   0  0  0  0  0  2  0  0  0  0  0  0
  162.2440  208.3430  148.3260 N   0  0  0  0  0  2  0  0  0  0  0  0
  162.2470  209.4450  149.2710 C   0  0  0  0  0  2  0  0  0  0  0  0
  161.7690  210.7050  148.5820 C   0  0  0  0  0  2  0  0  0  0  0  0
  161.9550  211.8970  149.4950 C   0  0  0  0  0  2  0  0  0  0  0  0
  160.0220  212.9330  148.5920 O   0  0  0  0  0  0  0  0  0  0  0  0
  160.6590  212.6280  149.6350 C   0  0  0  0  0  0  0  0  0  0  0  0
  160.1020  212.9600  150.9600 C   0  0  0  0  0  0  0  0  0  0  0  0
  159.7560  214.2140  151.2510 C   0  0  0  0  0  2  0  0  0  0  0  0
  161.4390  210.9760  154.9570 C   0  0  0  0  0  1  0  0  0  0  0  0
  158.7070  212.2950  152.9320 C   0  0  1  0  0  3  0  0  0  0  0  0
  160.9220  211.4070  152.6590 N   0  0  0  0  0  0  0  0  0  0  0  0
  159.2760  212.0040  154.3200 C   0  0  1  0  0  3  0  0  0  0  0  0
  159.7580  211.8460  151.9080 C   0  0  2  0  0  3  0  0  0  0  0  0
  160.6470  211.5120  154.0400 C   0  0  0  0  0  0  0  0  0  0  0  0
  157.5320  211.5690  152.7460 O   0  0  0  0  0  1  0  0  0  0  0  0
  160.1120  213.3270  156.2610 O   0  0  0  0  0  1  0  0  0  0  0  0
  159.2870  213.2520  155.1480 C   0  0  0  0  0  0  0  0  0  0  0  0
  158.5450  214.2250  154.8560 O   0  0  0  0  0  0  0  0  0  0  0  0
  1  4  1  0  0  0  0
  1  2  1  0  0  0  0
  2 26  1  1  0  0  0
  2  5  1  0  0  0  0
  3 12  1  6  0  0  0
  3  5  1  0  0  0  0
  4  3  1  0  0  0  0
  5 17  1  1  0  0  0
  6  4  2  0  0  0  0
  7  9  1  0  0  0  0
  7 12  1  0  0  0  0
  8 10  1  0  0  0  0
  8 11  1  0  0  0  0
  9  8  2  0  0  0  0
 12 10  2  0  0  0  0
 13  1  1  0  0  0  0
 14 13  1  0  0  0  0
 15 14  1  0  0  0  0
 16 15  1  0  0  0  0
 16 14  1  0  0  0  0
 17 19  1  0  0  0  0
 18 25  1  0  0  0  0
 19 21  2  0  0  0  0
 19 23  1  0  0  0  0
 21 24  1  0  0  0  0
 22 23  1  0  0  0  0
 23 18  2  0  0  0  0
 24 25  2  0  0  0  0
 25 20  1  0  0  0  0
 26 27  1  0  0  0  0
 27 28  1  0  0  0  0
 29 28  1  0  0  0  0
 29 30  1  0  0  0  0
 30 32  1  0  0  0  0
 31 32  2  0  0  0  0
 32 33  1  0  0  0  0
 33 34  2  0  0  0  0
 36 41  1  6  0  0  0
 36 38  1  0  0  0  0
 37 40  2  0  0  0  0
 38 43  1  1  0  0  0
 39 33  1  6  0  0  0
 39 37  1  0  0  0  0
 39 36  1  0  0  0  0
 40 38  1  0  0  0  0
 40 35  1  0  0  0  0
 43 42  1  0  0  0  0
 44 43  2  0  0  0  0
M  END
>  <MODEL>
7

>  <REMARK>
 VINA RESULT:      -4.5      2.761     10.305
  Name = 
  14 active torsions:
  status: ('A' for Active; 'I' for Inactive)
    1  A    between atoms: N_2  and  C_15
    2  A    between atoms: C_5  and  C_15
    3  A    between atoms: C_6  and  O_21
    4  A    between atoms: C_10  and  C_16
    5  A    between atoms: C_10  and  C_23
    6  A    between atoms: C_16  and  C_35
    7  A    between atoms: C_19  and  C_26
    8  A    between atoms: O_21  and  C_25
    9  A    between atoms: C_22  and  C_40
   10  A    between atoms: C_23  and  C_28
   11  A    between atoms: C_26  and  N_38
   12  A    between atoms: C_28  and  C_31
   13  A    between atoms: C_30  and  C_41
   14  A    between atoms: C_35  and  N_38
                            x       y       z     vdW  Elec       q    Type
                         _______ _______ _______ _____ _____    ______ ____

>  <TORSDO>
F 14

$$$$
