=
 OpenBabel11072413583D

 29 32  0  0  1  0  0  0  0  0999 V2000
  160.6560  207.0060  154.3650 N   0  0  0  0  0  0  0  0  0  0  0  0
  162.3590  209.1470  150.2300 C   0  0  0  0  0  3  0  0  0  0  0  0
  159.7520  210.6310  154.0320 C   0  0  0  0  0  0  0  0  0  0  0  0
  162.3980  207.8800  150.7220 N   0  0  0  0  0  0  0  0  0  0  0  0
  160.6190  208.2880  153.9080 C   0  0  0  0  0  0  0  0  0  0  0  0
  158.6960  211.7200  154.6390 S   0  0  0  0  0  0  0  0  0  0  0  0
  161.8240  207.5740  151.9180 C   0  0  0  0  0  0  0  0  0  0  0  0
  161.2410  206.0030  153.6550 C   0  0  0  0  0  3  0  0  0  0  0  0
  161.8410  206.2640  152.4200 C   0  0  0  0  0  0  0  0  0  0  0  0
  161.1950  208.5880  152.6600 C   0  0  0  0  0  0  0  0  0  0  0  0
  161.1450  209.8780  152.1230 C   0  0  0  0  0  0  0  0  0  0  0  0
  160.0670  209.3720  154.8010 C   0  0  1  0  0  3  0  0  0  0  0  0
  161.7300  210.1320  150.9240 N   0  0  0  0  0  0  0  0  0  0  0  0
  160.4110  210.9040  152.7930 N   0  0  0  0  0  2  0  0  0  0  0  0
  160.5820  210.4590  157.2610 O   0  0  0  0  0  1  0  0  0  0  0  0
  162.5110  210.7090  155.5120 O   0  0  0  0  0  0  0  0  0  0  0  0
  161.9300  208.2930  156.7080 O   0  0  0  0  0  1  0  0  0  0  0  0
  161.2700  209.7370  156.1260 P   0  0  0  0  0  0  0  0  0  0  0  0
  162.5120  205.1490  151.6800 C   0  0  0  0  0  2  0  0  0  0  0  0
  161.2950  200.9710  149.5340 C   0  0  0  0  0  1  0  0  0  0  0  0
  159.4910  202.1070  150.5110 F   0  0  0  0  0  0  0  0  0  0  0  0
  160.6440  202.3160  149.7790 C   0  0  1  0  0  0  0  0  0  0  0  0
  160.9000  205.3790  148.5070 C   0  0  0  0  0  2  0  0  0  0  0  0
  161.5520  204.4800  150.7500 C   0  0  0  0  0  0  0  0  0  0  0  0
  162.4720  203.6580  147.8930 F   0  0  0  0  0  0  0  0  0  0  0  0
  161.1350  204.0140  147.8480 C   0  0  1  0  0  3  0  0  0  0  0  0
  161.5930  203.1460  150.6150 C   0  0  0  0  0  3  0  0  0  0  0  0
  160.5600  205.3150  149.9980 C   0  0  0  0  0  2  0  0  0  0  0  0
  160.2370  202.9090  148.4140 C   0  0  0  0  0  2  0  0  0  0  0  0
  2  4  2  0  0  0  0
  2 13  1  0  0  0  0
  3  6  2  0  0  0  0
  3 12  1  0  0  0  0
  4  7  1  0  0  0  0
  5  1  1  0  0  0  0
  5 12  1  0  0  0  0
  7  9  2  0  0  0  0
  7 10  1  0  0  0  0
  8  1  2  0  0  0  0
  9  8  1  0  0  0  0
 10  5  2  0  0  0  0
 11 10  1  0  0  0  0
 11 14  1  0  0  0  0
 12 18  1  1  0  0  0
 13 11  2  0  0  0  0
 14  3  1  0  0  0  0
 16 18  2  0  0  0  0
 18 17  1  0  0  0  0
 18 15  1  0  0  0  0
 19  9  1  0  0  0  0
 22 20  1  6  0  0  0
 22 21  1  0  0  0  0
 22 27  1  0  0  0  0
 23 28  1  0  0  0  0
 24 19  1  0  0  0  0
 26 25  1  1  0  0  0
 26 29  1  0  0  0  0
 26 23  1  0  0  0  0
 27 24  2  0  0  0  0
 28 24  1  0  0  0  0
 29 22  1  0  0  0  0
M  END
>  <MODEL>
1

>  <REMARK>
 VINA RESULT:      -8.3      0.000      0.000
  Name = 
  3 active torsions:
  status: ('A' for Active; 'I' for Inactive)
    1  A    between atoms: P_7  and  C_27
    2  A    between atoms: C_12  and  C_20
    3  A    between atoms: C_20  and  C_22
                            x       y       z     vdW  Elec       q    Type
                         _______ _______ _______ _____ _____    ______ ____

>  <TORSDO>
F 3

$$$$
=
 OpenBabel11072413583D

 29 32  0  0  1  0  0  0  0  0999 V2000
  161.4390  210.8100  152.3580 N   0  0  0  0  0  0  0  0  0  0  0  0
  160.7480  206.5930  154.8720 C   0  0  0  0  0  3  0  0  0  0  0  0
  159.8260  211.2730  155.7120 C   0  0  0  0  0  0  0  0  0  0  0  0
  161.3270  206.8970  153.6800 N   0  0  0  0  0  0  0  0  0  0  0  0
  160.8340  210.5330  153.5460 C   0  0  0  0  0  0  0  0  0  0  0  0
  159.5370  212.4450  156.8140 S   0  0  0  0  0  0  0  0  0  0  0  0
  161.3770  208.1820  153.2340 C   0  0  0  0  0  0  0  0  0  0  0  0
  162.0160  209.8400  151.5980 C   0  0  0  0  0  3  0  0  0  0  0  0
  161.9940  208.5050  152.0150 C   0  0  0  0  0  0  0  0  0  0  0  0
  160.8080  209.2060  154.0100 C   0  0  0  0  0  0  0  0  0  0  0  0
  160.2410  208.8720  155.2440 C   0  0  0  0  0  0  0  0  0  0  0  0
  160.1060  211.6360  154.2760 C   0  0  1  0  0  3  0  0  0  0  0  0
  160.2180  207.5760  155.6480 N   0  0  0  0  0  0  0  0  0  0  0  0
  159.7610  209.9020  156.1110 N   0  0  0  0  0  2  0  0  0  0  0  0
  158.6120  211.5100  151.9850 O   0  0  0  0  0  0  0  0  0  0  0  0
  158.2720  213.6750  153.4130 O   0  0  0  0  0  1  0  0  0  0  0  0
  157.2600  211.2330  154.2000 O   0  0  0  0  0  1  0  0  0  0  0  0
  158.5410  212.0050  153.4110 P   0  0  0  0  0  0  0  0  0  0  0  0
  162.6000  207.4530  151.1400 C   0  0  0  0  0  2  0  0  0  0  0  0
  161.7350  202.6960  151.5440 C   0  0  0  0  0  1  0  0  0  0  0  0
  159.9600  204.0560  152.2500 F   0  0  0  0  0  0  0  0  0  0  0  0
  160.9250  203.9450  151.2670 C   0  0  1  0  0  0  0  0  0  0  0  0
  160.4660  205.9910  148.6850 C   0  0  0  0  0  2  0  0  0  0  0  0
  161.6190  206.3570  150.8760 C   0  0  0  0  0  0  0  0  0  0  0  0
  162.1700  204.2890  148.6170 F   0  0  0  0  0  0  0  0  0  0  0  0
  160.8050  204.4960  148.7110 C   0  0  1  0  0  3  0  0  0  0  0  0
  161.8530  205.1350  151.3780 C   0  0  0  0  0  3  0  0  0  0  0  0
  160.3950  206.6510  150.0660 C   0  0  0  0  0  2  0  0  0  0  0  0
  160.2050  203.7620  149.9150 C   0  0  0  0  0  2  0  0  0  0  0  0
  1  5  1  0  0  0  0
  2 13  1  0  0  0  0
  3 14  1  0  0  0  0
  3  6  2  0  0  0  0
  4  2  2  0  0  0  0
  5 10  2  0  0  0  0
  5 12  1  0  0  0  0
  7  4  1  0  0  0  0
  7 10  1  0  0  0  0
  8  9  1  0  0  0  0
  8  1  2  0  0  0  0
  9  7  2  0  0  0  0
 10 11  1  0  0  0  0
 11 13  2  0  0  0  0
 11 14  1  0  0  0  0
 12 18  1  6  0  0  0
 12  3  1  0  0  0  0
 15 18  2  0  0  0  0
 18 16  1  0  0  0  0
 18 17  1  0  0  0  0
 19  9  1  0  0  0  0
 22 27  1  0  0  0  0
 22 20  1  1  0  0  0
 22 21  1  0  0  0  0
 23 26  1  0  0  0  0
 23 28  1  0  0  0  0
 24 19  1  0  0  0  0
 24 27  2  0  0  0  0
 26 25  1  1  0  0  0
 26 29  1  0  0  0  0
 28 24  1  0  0  0  0
 29 22  1  0  0  0  0
M  END
>  <MODEL>
2

>  <REMARK>
 VINA RESULT:      -7.3      2.393      3.354
  Name = 
  3 active torsions:
  status: ('A' for Active; 'I' for Inactive)
    1  A    between atoms: P_7  and  C_27
    2  A    between atoms: C_12  and  C_20
    3  A    between atoms: C_20  and  C_22
                            x       y       z     vdW  Elec       q    Type
                         _______ _______ _______ _____ _____    ______ ____

>  <TORSDO>
F 3

$$$$
=
 OpenBabel11072413583D

 29 32  0  0  1  0  0  0  0  0999 V2000
  161.8800  210.3640  152.3950 N   0  0  0  0  0  0  0  0  0  0  0  0
  160.1250  206.8880  155.4650 C   0  0  0  0  0  3  0  0  0  0  0  0
  160.0880  211.7300  155.3940 C   0  0  0  0  0  0  0  0  0  0  0  0
  160.8620  206.8540  154.3230 N   0  0  0  0  0  0  0  0  0  0  0  0
  161.1230  210.4290  153.5260 C   0  0  0  0  0  0  0  0  0  0  0  0
  159.9400  213.1210  156.2400 S   0  0  0  0  0  0  0  0  0  0  0  0
  161.2100  208.0020  153.6790 C   0  0  0  0  0  0  0  0  0  0  0  0
  162.3170  209.1810  151.8860 C   0  0  0  0  0  3  0  0  0  0  0  0
  161.9900  207.9740  152.5130 C   0  0  0  0  0  0  0  0  0  0  0  0
  160.7890  209.2390  154.1960 C   0  0  0  0  0  0  0  0  0  0  0  0
  160.0540  209.2500  155.3860 C   0  0  0  0  0  0  0  0  0  0  0  0
  160.5670  211.7620  153.9640 C   0  0  1  0  0  3  0  0  0  0  0  0
  159.7340  208.0780  155.9930 N   0  0  0  0  0  0  0  0  0  0  0  0
  159.7130  210.4930  156.0030 N   0  0  0  0  0  2  0  0  0  0  0  0
  158.2250  211.0890  152.7160 O   0  0  0  0  0  1  0  0  0  0  0  0
  159.8100  212.6460  151.3360 O   0  0  0  0  0  0  0  0  0  0  0  0
  158.3810  213.5730  153.5050 O   0  0  0  0  0  1  0  0  0  0  0  0
  159.1950  212.2390  152.8580 P   0  0  0  0  0  0  0  0  0  0  0  0
  162.4510  206.6850  151.9080 C   0  0  0  0  0  2  0  0  0  0  0  0
  161.6400  203.3990  148.4310 C   0  0  0  0  0  1  0  0  0  0  0  0
  159.6910  204.2570  149.4110 F   0  0  0  0  0  0  0  0  0  0  0  0
  160.9450  204.6320  148.9670 C   0  0  1  0  0  0  0  0  0  0  0  0
  161.3700  207.9230  148.7430 C   0  0  0  0  0  2  0  0  0  0  0  0
  161.6600  206.3660  150.6800 C   0  0  0  0  0  0  0  0  0  0  0  0
  163.0380  206.4080  147.8900 F   0  0  0  0  0  0  0  0  0  0  0  0
  161.7220  206.8130  147.7460 C   0  0  1  0  0  3  0  0  0  0  0  0
  161.7370  205.1330  150.1540 C   0  0  0  0  0  3  0  0  0  0  0  0
  160.7950  207.4260  150.0720 C   0  0  0  0  0  2  0  0  0  0  0  0
  160.7560  205.6250  147.8010 C   0  0  0  0  0  2  0  0  0  0  0  0
  1  5  1  0  0  0  0
  2 13  1  0  0  0  0
  3 14  1  0  0  0  0
  3  6  2  0  0  0  0
  4  2  2  0  0  0  0
  5 12  1  0  0  0  0
  5 10  2  0  0  0  0
  7 10  1  0  0  0  0
  7  4  1  0  0  0  0
  8  1  2  0  0  0  0
  8  9  1  0  0  0  0
  9  7  2  0  0  0  0
 10 11  1  0  0  0  0
 11 13  2  0  0  0  0
 11 14  1  0  0  0  0
 12 18  1  6  0  0  0
 12  3  1  0  0  0  0
 15 18  1  0  0  0  0
 16 18  2  0  0  0  0
 18 17  1  0  0  0  0
 19  9  1  0  0  0  0
 22 20  1  6  0  0  0
 22 21  1  0  0  0  0
 22 27  1  0  0  0  0
 23 28  1  0  0  0  0
 24 19  1  0  0  0  0
 26 29  1  0  0  0  0
 26 25  1  1  0  0  0
 26 23  1  0  0  0  0
 27 24  2  0  0  0  0
 28 24  1  0  0  0  0
 29 22  1  0  0  0  0
M  END
>  <MODEL>
3

>  <REMARK>
 VINA RESULT:      -6.9      2.514      3.544
  Name = 
  3 active torsions:
  status: ('A' for Active; 'I' for Inactive)
    1  A    between atoms: P_7  and  C_27
    2  A    between atoms: C_12  and  C_20
    3  A    between atoms: C_20  and  C_22
                            x       y       z     vdW  Elec       q    Type
                         _______ _______ _______ _____ _____    ______ ____

>  <TORSDO>
F 3

$$$$
=
 OpenBabel11072413583D

 29 32  0  0  1  0  0  0  0  0999 V2000
  160.5130  205.6870  148.9840 N   0  0  0  0  0  0  0  0  0  0  0  0
  161.3000  200.9540  150.2340 C   0  0  0  0  0  3  0  0  0  0  0  0
  160.5600  203.3220  146.0750 C   0  0  0  0  0  0  0  0  0  0  0  0
  161.1530  202.1060  150.9420 N   0  0  0  0  0  0  0  0  0  0  0  0
  160.6770  204.5540  148.2480 C   0  0  0  0  0  0  0  0  0  0  0  0
  160.0910  203.2480  144.5110 S   0  0  0  0  0  0  0  0  0  0  0  0
  160.9360  203.2930  150.3130 C   0  0  0  0  0  0  0  0  0  0  0  0
  160.5450  205.6750  150.3450 C   0  0  0  0  0  3  0  0  0  0  0  0
  160.7610  204.4800  151.0390 C   0  0  0  0  0  0  0  0  0  0  0  0
  160.8770  203.3290  148.9090 C   0  0  0  0  0  0  0  0  0  0  0  0
  161.0050  202.1290  148.2030 C   0  0  0  0  0  0  0  0  0  0  0  0
  160.7560  204.6590  146.7440 C   0  0  1  0  0  3  0  0  0  0  0  0
  161.2180  200.9690  148.8770 N   0  0  0  0  0  0  0  0  0  0  0  0
  160.8310  202.1110  146.7850 N   0  0  0  0  0  2  0  0  0  0  0  0
  163.4590  204.3290  146.4620 O   0  0  0  0  0  1  0  0  0  0  0  0
  162.7070  206.7130  147.2300 O   0  0  0  0  0  1  0  0  0  0  0  0
  162.3350  205.8280  144.6450 O   0  0  0  0  0  0  0  0  0  0  0  0
  162.3730  205.3620  146.2700 P   0  0  0  0  0  0  0  0  0  0  0  0
  160.8320  204.5030  152.5340 C   0  0  0  0  0  2  0  0  0  0  0  0
  159.8140  208.3880  155.2580 C   0  0  0  0  0  1  0  0  0  0  0  0
  161.9560  207.5040  155.6120 F   0  0  0  0  0  0  0  0  0  0  0  0
  161.0430  207.7840  154.6140 C   0  0  1  0  0  0  0  0  0  0  0  0
  162.3040  207.5950  151.5410 C   0  0  0  0  0  2  0  0  0  0  0  0
  161.3270  205.8270  153.0190 C   0  0  0  0  0  0  0  0  0  0  0  0
  160.0820  208.4540  151.9080 F   0  0  0  0  0  0  0  0  0  0  0  0
  161.4210  208.6740  152.1810 C   0  0  1  0  0  3  0  0  0  0  0  0
  160.6350  206.4780  153.9660 C   0  0  0  0  0  3  0  0  0  0  0  0
  162.5900  206.3910  152.4420 C   0  0  0  0  0  2  0  0  0  0  0  0
  161.6700  208.8430  153.6830 C   0  0  0  0  0  2  0  0  0  0  0  0
  1  8  1  0  0  0  0
  2  4  2  0  0  0  0
  3 12  1  0  0  0  0
  3 14  1  0  0  0  0
  5 10  1  0  0  0  0
  5  1  2  0  0  0  0
  6  3  2  0  0  0  0
  7  4  1  0  0  0  0
  7  9  1  0  0  0  0
  8  9  2  0  0  0  0
  9 19  1  0  0  0  0
 10  7  2  0  0  0  0
 11 13  2  0  0  0  0
 11 10  1  0  0  0  0
 12 18  1  1  0  0  0
 12  5  1  0  0  0  0
 13  2  1  0  0  0  0
 14 11  1  0  0  0  0
 17 18  2  0  0  0  0
 18 15  1  0  0  0  0
 18 16  1  0  0  0  0
 19 24  1  0  0  0  0
 22 20  1  1  0  0  0
 22 21  1  0  0  0  0
 23 26  1  0  0  0  0
 23 28  1  0  0  0  0
 24 27  2  0  0  0  0
 26 25  1  1  0  0  0
 26 29  1  0  0  0  0
 27 22  1  0  0  0  0
 28 24  1  0  0  0  0
 29 22  1  0  0  0  0
M  END
>  <MODEL>
4

>  <REMARK>
 VINA RESULT:      -6.7      5.624      7.993
  Name = 
  3 active torsions:
  status: ('A' for Active; 'I' for Inactive)
    1  A    between atoms: P_7  and  C_27
    2  A    between atoms: C_12  and  C_20
    3  A    between atoms: C_20  and  C_22
                            x       y       z     vdW  Elec       q    Type
                         _______ _______ _______ _____ _____    ______ ____

>  <TORSDO>
F 3

$$$$
=
 OpenBabel11072413583D

 29 32  0  0  1  0  0  0  0  0999 V2000
  160.9710  209.8150  152.8710 N   0  0  0  0  0  0  0  0  0  0  0  0
  160.1240  206.9530  156.8310 C   0  0  0  0  0  3  0  0  0  0  0  0
  160.2700  211.7260  156.0220 C   0  0  0  0  0  0  0  0  0  0  0  0
  160.4630  206.7010  155.5390 N   0  0  0  0  0  0  0  0  0  0  0  0
  160.6110  210.0980  154.1540 C   0  0  0  0  0  0  0  0  0  0  0  0
  160.4530  213.2250  156.6450 S   0  0  0  0  0  0  0  0  0  0  0  0
  160.6400  207.7150  154.6490 C   0  0  0  0  0  0  0  0  0  0  0  0
  161.1760  208.5390  152.4440 C   0  0  0  0  0  3  0  0  0  0  0  0
  161.0110  207.4620  153.3200 C   0  0  0  0  0  0  0  0  0  0  0  0
  160.4540  209.0430  155.0710 C   0  0  0  0  0  0  0  0  0  0  0  0
  160.1310  209.2800  156.4100 C   0  0  0  0  0  0  0  0  0  0  0  0
  160.2770  211.5210  154.5280 C   0  0  1  0  0  3  0  0  0  0  0  0
  159.9680  208.2340  157.2610 N   0  0  0  0  0  0  0  0  0  0  0  0
  160.0530  210.6200  156.9010 N   0  0  0  0  0  2  0  0  0  0  0  0
  158.5660  211.5170  152.3900 O   0  0  0  0  0  0  0  0  0  0  0  0
  158.4350  213.6410  153.9110 O   0  0  0  0  0  1  0  0  0  0  0  0
  157.4250  211.2050  154.7170 O   0  0  0  0  0  1  0  0  0  0  0  0
  158.6480  211.9650  153.8310 P   0  0  0  0  0  0  0  0  0  0  0  0
  161.2050  206.0670  152.8120 C   0  0  0  0  0  2  0  0  0  0  0  0
  161.9420  208.8360  148.8960 C   0  0  0  0  0  1  0  0  0  0  0  0
  163.7120  207.3780  149.3850 F   0  0  0  0  0  0  0  0  0  0  0  0
  162.3320  207.4470  149.3540 C   0  0  1  0  0  0  0  0  0  0  0  0
  160.8260  204.4940  149.6340 C   0  0  0  0  0  2  0  0  0  0  0  0
  161.6480  206.0830  151.3850 C   0  0  0  0  0  0  0  0  0  0  0  0
  159.5580  206.4760  149.1130 F   0  0  0  0  0  0  0  0  0  0  0  0
  160.5660  205.6460  148.6550 C   0  0  1  0  0  3  0  0  0  0  0  0
  161.8160  207.2600  150.7650 C   0  0  0  0  0  3  0  0  0  0  0  0
  161.9020  204.7830  150.6840 C   0  0  0  0  0  2  0  0  0  0  0  0
  161.8310  206.4340  148.3030 C   0  0  0  0  0  2  0  0  0  0  0  0
  1  5  1  0  0  0  0
  2 13  1  0  0  0  0
  3  6  2  0  0  0  0
  3 14  1  0  0  0  0
  4  2  2  0  0  0  0
  5 12  1  0  0  0  0
  5 10  2  0  0  0  0
  7 10  1  0  0  0  0
  7  4  1  0  0  0  0
  8  1  2  0  0  0  0
  8  9  1  0  0  0  0
  9  7  2  0  0  0  0
 10 11  1  0  0  0  0
 11 14  1  0  0  0  0
 11 13  2  0  0  0  0
 12 18  1  1  0  0  0
 12  3  1  0  0  0  0
 15 18  2  0  0  0  0
 18 16  1  0  0  0  0
 18 17  1  0  0  0  0
 19  9  1  0  0  0  0
 22 20  1  6  0  0  0
 22 21  1  0  0  0  0
 22 27  1  0  0  0  0
 23 28  1  0  0  0  0
 24 19  1  0  0  0  0
 26 25  1  1  0  0  0
 26 23  1  0  0  0  0
 27 24  2  0  0  0  0
 28 24  1  0  0  0  0
 29 26  1  0  0  0  0
 29 22  1  0  0  0  0
M  END
>  <MODEL>
5

>  <REMARK>
 VINA RESULT:      -5.9      2.617      4.296
  Name = 
  3 active torsions:
  status: ('A' for Active; 'I' for Inactive)
    1  A    between atoms: P_7  and  C_27
    2  A    between atoms: C_12  and  C_20
    3  A    between atoms: C_20  and  C_22
                            x       y       z     vdW  Elec       q    Type
                         _______ _______ _______ _____ _____    ______ ____

>  <TORSDO>
F 3

$$$$
=
 OpenBabel11072413583D

 29 32  0  0  1  0  0  0  0  0999 V2000
  160.6810  207.1160  154.1810 N   0  0  0  0  0  0  0  0  0  0  0  0
  162.3510  209.2960  150.0530 C   0  0  0  0  0  3  0  0  0  0  0  0
  159.8990  210.7770  153.9590 C   0  0  0  0  0  0  0  0  0  0  0  0
  162.3570  208.0170  150.5140 N   0  0  0  0  0  0  0  0  0  0  0  0
  160.6780  208.4090  153.7560 C   0  0  0  0  0  0  0  0  0  0  0  0
  158.9000  211.8880  154.6200 S   0  0  0  0  0  0  0  0  0  0  0  0
  161.8040  207.7030  151.7170 C   0  0  0  0  0  0  0  0  0  0  0  0
  161.2100  206.1110  153.4320 C   0  0  0  0  0  3  0  0  0  0  0  0
  161.7870  206.3810  152.1870 C   0  0  0  0  0  0  0  0  0  0  0  0
  161.2310  208.7200  152.5000 C   0  0  0  0  0  0  0  0  0  0  0  0
  161.2140  210.0230  151.9950 C   0  0  0  0  0  0  0  0  0  0  0  0
  160.1890  209.4900  154.6890 C   0  0  1  0  0  3  0  0  0  0  0  0
  161.7760  210.2860  150.7870 N   0  0  0  0  0  0  0  0  0  0  0  0
  160.5340  211.0580  152.7090 N   0  0  0  0  0  2  0  0  0  0  0  0
  161.9560  208.4580  156.5080 O   0  0  0  0  0  1  0  0  0  0  0  0
  160.7410  210.6490  157.2610 O   0  0  0  0  0  1  0  0  0  0  0  0
  162.7290  210.6660  155.3490 O   0  0  0  0  0  0  0  0  0  0  0  0
  161.4390  209.7790  155.9880 P   0  0  0  0  0  0  0  0  0  0  0  0
  162.3980  205.2620  151.4030 C   0  0  0  0  0  2  0  0  0  0  0  0
  162.6630  203.7520  146.7990 C   0  0  0  0  0  1  0  0  0  0  0  0
  160.8870  202.8190  148.0120 F   0  0  0  0  0  0  0  0  0  0  0  0
  161.5700  204.0040  147.8160 C   0  0  1  0  0  0  0  0  0  0  0  0
  160.0560  206.6670  149.1110 C   0  0  0  0  0  2  0  0  0  0  0  0
  161.6300  205.0190  150.1440 C   0  0  0  0  0  0  0  0  0  0  0  0
  161.9990  206.9200  147.7080 F   0  0  0  0  0  0  0  0  0  0  0  0
  160.6900  206.4680  147.7290 C   0  0  1  0  0  3  0  0  0  0  0  0
  162.2300  204.3920  149.1220 C   0  0  0  0  0  3  0  0  0  0  0  0
  160.2050  205.4730  150.0580 C   0  0  0  0  0  2  0  0  0  0  0  0
  160.5820  205.0280  147.2190 C   0  0  0  0  0  2  0  0  0  0  0  0
  2  4  2  0  0  0  0
  2 13  1  0  0  0  0
  3  6  2  0  0  0  0
  3 12  1  0  0  0  0
  4  7  1  0  0  0  0
  5  1  1  0  0  0  0
  5 12  1  0  0  0  0
  7  9  2  0  0  0  0
  7 10  1  0  0  0  0
  8  1  2  0  0  0  0
  9  8  1  0  0  0  0
 10  5  2  0  0  0  0
 11 10  1  0  0  0  0
 11 14  1  0  0  0  0
 12 18  1  1  0  0  0
 13 11  2  0  0  0  0
 14  3  1  0  0  0  0
 17 18  2  0  0  0  0
 18 15  1  0  0  0  0
 18 16  1  0  0  0  0
 19  9  1  0  0  0  0
 22 20  1  6  0  0  0
 22 21  1  0  0  0  0
 22 27  1  0  0  0  0
 23 28  1  0  0  0  0
 24 19  1  0  0  0  0
 26 25  1  1  0  0  0
 26 23  1  0  0  0  0
 27 24  2  0  0  0  0
 28 24  1  0  0  0  0
 29 26  1  0  0  0  0
 29 22  1  0  0  0  0
M  END
>  <MODEL>
6

>  <REMARK>
 VINA RESULT:      -5.6      1.209      1.721
  Name = 
  3 active torsions:
  status: ('A' for Active; 'I' for Inactive)
    1  A    between atoms: P_7  and  C_27
    2  A    between atoms: C_12  and  C_20
    3  A    between atoms: C_20  and  C_22
                            x       y       z     vdW  Elec       q    Type
                         _______ _______ _______ _____ _____    ______ ____

>  <TORSDO>
F 3

$$$$
=
 OpenBabel11072413583D

 29 32  0  0  1  0  0  0  0  0999 V2000
  161.1190  208.7880  153.4480 N   0  0  0  0  0  0  0  0  0  0  0  0
  160.1500  212.9100  150.8690 C   0  0  0  0  0  3  0  0  0  0  0  0
  158.9170  211.2370  155.2430 C   0  0  0  0  0  0  0  0  0  0  0  0
  160.8350  211.7670  150.5990 N   0  0  0  0  0  0  0  0  0  0  0  0
  160.4450  209.9310  153.7550 C   0  0  0  0  0  0  0  0  0  0  0  0
  157.8720  211.2980  156.4990 S   0  0  0  0  0  0  0  0  0  0  0  0
  160.9330  210.7740  151.5250 C   0  0  0  0  0  0  0  0  0  0  0  0
  161.6940  208.5940  152.2300 C   0  0  0  0  0  3  0  0  0  0  0  0
  161.6180  209.5820  151.2440 C   0  0  0  0  0  0  0  0  0  0  0  0
  160.3300  210.9410  152.7830 C   0  0  0  0  0  0  0  0  0  0  0  0
  159.6100  212.1140  153.0290 C   0  0  0  0  0  0  0  0  0  0  0  0
  159.9410  210.1330  155.1630 C   0  0  1  0  0  3  0  0  0  0  0  0
  159.5380  213.0750  152.0720 N   0  0  0  0  0  0  0  0  0  0  0  0
  158.8850  212.2650  154.2510 N   0  0  0  0  0  2  0  0  0  0  0  0
  161.5550  209.3770  157.2420 O   0  0  0  0  0  1  0  0  0  0  0  0
  161.0380  211.9380  157.1130 O   0  0  0  0  0  1  0  0  0  0  0  0
  162.7540  210.7040  155.3410 O   0  0  0  0  0  0  0  0  0  0  0  0
  161.3500  210.5090  156.2630 P   0  0  0  0  0  0  0  0  0  0  0  0
  162.2940  209.3580  149.9270 C   0  0  0  0  0  2  0  0  0  0  0  0
  160.6480  206.2030  146.6280 C   0  0  0  0  0  1  0  0  0  0  0  0
  162.8920  205.8810  147.2250 F   0  0  0  0  0  0  0  0  0  0  0  0
  161.6560  206.1930  147.7570 C   0  0  1  0  0  0  0  0  0  0  0  0
  161.5450  206.0670  151.0790 C   0  0  0  0  0  2  0  0  0  0  0  0
  162.2200  207.9170  149.5350 C   0  0  0  0  0  0  0  0  0  0  0  0
  159.5310  206.3730  149.7930 F   0  0  0  0  0  0  0  0  0  0  0  0
  160.5750  205.4980  150.0370 C   0  0  1  0  0  3  0  0  0  0  0  0
  161.7260  207.5910  148.3310 C   0  0  0  0  0  3  0  0  0  0  0  0
  162.7070  206.8730  150.4920 C   0  0  0  0  0  2  0  0  0  0  0  0
  161.2670  205.0680  148.7400 C   0  0  0  0  0  2  0  0  0  0  0  0
  1  5  1  0  0  0  0
  2 13  1  0  0  0  0
  3  6  2  0  0  0  0
  4  2  2  0  0  0  0
  4  7  1  0  0  0  0
  5 12  1  0  0  0  0
  7 10  1  0  0  0  0
  8  1  2  0  0  0  0
  9  7  2  0  0  0  0
  9  8  1  0  0  0  0
 10 11  1  0  0  0  0
 10  5  2  0  0  0  0
 11 14  1  0  0  0  0
 12  3  1  0  0  0  0
 12 18  1  1  0  0  0
 13 11  2  0  0  0  0
 14  3  1  0  0  0  0
 17 18  2  0  0  0  0
 18 16  1  0  0  0  0
 18 15  1  0  0  0  0
 19  9  1  0  0  0  0
 21 22  1  0  0  0  0
 22 20  1  6  0  0  0
 22 27  1  0  0  0  0
 22 29  1  0  0  0  0
 24 19  1  0  0  0  0
 24 28  1  0  0  0  0
 26 25  1  6  0  0  0
 26 23  1  0  0  0  0
 27 24  2  0  0  0  0
 28 23  1  0  0  0  0
 29 26  1  0  0  0  0
M  END
>  <MODEL>
7

>  <REMARK>
 VINA RESULT:      -5.4      2.019      3.410
  Name = 
  3 active torsions:
  status: ('A' for Active; 'I' for Inactive)
    1  A    between atoms: P_7  and  C_27
    2  A    between atoms: C_12  and  C_20
    3  A    between atoms: C_20  and  C_22
                            x       y       z     vdW  Elec       q    Type
                         _______ _______ _______ _____ _____    ______ ____

>  <TORSDO>
F 3

$$$$
