=
 OpenBabel11072410323D

 32 35  0  0  1  0  0  0  0  0999 V2000
  158.9450  213.0500  153.9960 C   0  0  0  0  0  3  0  0  0  0  0  0
  161.9850  208.2740  152.1540 C   0  0  1  0  0  3  0  0  0  0  0  0
  161.3890  210.7030  154.0770 C   0  0  0  0  0  2  0  0  0  0  0  0
  161.2730  213.2200  148.7400 C   0  0  0  0  0  2  0  0  0  0  0  0
  157.6180  210.9940  154.3880 C   0  0  0  0  0  1  0  0  0  0  0  0
  160.5650  210.2800  152.8640 C   0  0  1  0  0  3  0  0  0  0  0  0
  158.1320  213.4530  152.8010 C   0  0  2  0  0  3  0  0  0  0  0  0
  161.3340  211.7160  148.5030 C   0  0  0  0  0  2  0  0  0  0  0  0
  160.6130  210.4200  155.3610 C   0  0  0  0  0  2  0  0  0  0  0  0
  160.0400  213.6420  149.4920 C   0  0  0  0  0  0  0  0  0  0  0  0
  160.9880  211.0130  151.6230 C   0  0  0  0  0  0  0  0  0  0  0  0
  158.7200  211.9530  154.7280 C   0  0  0  0  0  0  0  0  0  0  0  0
  159.0620  214.1420  151.8090 C   0  0  0  0  0  2  0  0  0  0  0  0
  159.0660  211.3110  157.1060 C   0  0  0  0  0  1  0  0  0  0  0  0
  159.7670  213.1960  150.8740 C   0  0  0  0  0  0  0  0  0  0  0  0
  162.6050  209.2040  151.0870 C   0  0  0  0  0  2  0  0  0  0  0  0
  160.6130  208.7630  152.6600 C   0  0  0  0  0  2  0  0  0  0  0  0
  159.7360  211.6030  155.7760 C   0  0  1  0  0  3  0  0  0  0  0  0
  161.6180  210.2120  150.5030 C   0  0  2  0  0  3  0  0  0  0  0  0
  159.2510  214.4530  148.9390 O   0  0  0  0  0  0  0  0  0  0  0  0
  160.3610  212.1170  151.3150 C   0  0  0  0  0  0  0  0  0  0  0  0
  162.3320  211.0750  149.4600 C   0  0  0  0  0  2  0  0  0  0  0  0
  161.8980  206.8300  151.6490 C   0  0  0  0  0  3  0  0  0  0  0  0
  160.5650  205.2350  150.1800 C   0  0  0  0  0  2  0  0  0  0  0  0
  160.9210  206.7020  150.4690 C   0  0  0  0  0  2  0  0  0  0  0  0
  161.4200  204.3550  150.8670 O   0  0  0  0  0  0  0  0  0  0  0  0
  161.5200  205.8570  152.7770 C   0  0  0  0  0  2  0  0  0  0  0  0
  161.0980  204.4850  152.2290 C   0  0  0  0  0  2  0  0  0  0  0  0
  157.0520  214.4450  153.2110 C   0  0  0  0  0  2  0  0  0  0  0  0
  155.7330  214.0870  152.6150 C   0  0  0  0  0  0  0  0  0  0  0  0
  155.5110  214.2750  151.2580 O   0  0  0  0  0  0  0  0  0  0  0  0
  154.8150  213.6330  153.3450 O   0  0  0  0  0  1  0  0  0  0  0  0
  1 12  2  0  0  0  0
  2 23  1  6  0  0  0
  2 17  1  0  0  0  0
  3  9  1  0  0  0  0
  4 10  1  0  0  0  0
  5 12  1  0  0  0  0
  6 17  1  6  0  0  0
  6  3  1  0  0  0  0
  7 29  1  1  0  0  0
  7  1  1  0  0  0  0
  8  4  1  0  0  0  0
  8 22  1  0  0  0  0
  9 18  1  0  0  0  0
 10 15  1  0  0  0  0
 11  6  1  0  0  0  0
 12 18  1  0  0  0  0
 13  7  1  0  0  0  0
 15 21  2  0  0  0  0
 15 13  1  0  0  0  0
 16  2  1  0  0  0  0
 18 14  1  1  0  0  0
 19 22  1  6  0  0  0
 19 16  1  0  0  0  0
 19 11  1  0  0  0  0
 20 10  2  0  0  0  0
 21 11  2  0  0  0  0
 23 27  1  0  0  0  0
 24 25  1  0  0  0  0
 24 26  1  0  0  0  0
 25 23  1  0  0  0  0
 26 28  1  0  0  0  0
 28 27  1  0  0  0  0
 30 29  1  0  0  0  0
 30 32  1  0  0  0  0
 31 30  2  0  0  0  0
M  END
>  <MODEL>
1

>  <REMARK>
 VINA RESULT:      -6.7      0.000      0.000
  Name = 
  3 active torsions:
  status: ('A' for Active; 'I' for Inactive)
    1  A    between atoms: C_2  and  C_15
    2  A    between atoms: C_7  and  C_14
    3  A    between atoms: C_14  and  C_22
                            x       y       z     vdW  Elec       q    Type
                         _______ _______ _______ _____ _____    ______ ____

>  <TORSDO>
F 3

$$$$
=
 OpenBabel11072410323D

 32 35  0  0  1  0  0  0  0  0999 V2000
  161.5580  204.9440  149.8230 C   0  0  0  0  0  3  0  0  0  0  0  0
  162.1950  210.7490  148.6640 C   0  0  1  0  0  3  0  0  0  0  0  0
  163.0880  207.7240  148.6280 C   0  0  0  0  0  2  0  0  0  0  0  0
  161.6260  208.5750  154.2820 C   0  0  0  0  0  2  0  0  0  0  0  0
  159.9700  205.6370  148.0500 C   0  0  0  0  0  1  0  0  0  0  0  0
  161.7780  208.2780  149.1800 C   0  0  1  0  0  3  0  0  0  0  0  0
  160.4940  204.8940  150.8800 C   0  0  2  0  0  3  0  0  0  0  0  0
  161.1710  209.8200  153.5310 C   0  0  0  0  0  2  0  0  0  0  0  0
  162.8210  206.9180  147.3590 C   0  0  0  0  0  2  0  0  0  0  0  0
  160.9490  207.3210  153.8000 C   0  0  0  0  0  0  0  0  0  0  0  0
  161.8740  208.5740  150.6490 C   0  0  0  0  0  0  0  0  0  0  0  0
  161.3380  205.2650  148.5430 C   0  0  0  0  0  0  0  0  0  0  0  0
  161.1210  205.3240  152.2000 C   0  0  0  0  0  2  0  0  0  0  0  0
  162.3800  204.6710  146.3650 C   0  0  0  0  0  1  0  0  0  0  0  0
  161.1180  206.8130  152.4230 C   0  0  0  0  0  0  0  0  0  0  0  0
  162.5880  210.9020  150.1500 C   0  0  0  0  0  2  0  0  0  0  0  0
  161.3190  209.5090  148.3920 C   0  0  0  0  0  2  0  0  0  0  0  0
  162.5390  205.4450  147.6610 C   0  0  1  0  0  3  0  0  0  0  0  0
  161.7750  210.0180  151.0940 C   0  0  2  0  0  3  0  0  0  0  0  0
  160.2670  206.6560  154.6230 O   0  0  0  0  0  0  0  0  0  0  0  0
  161.5110  207.6430  151.4900 C   0  0  0  0  0  0  0  0  0  0  0  0
  162.2400  210.2490  152.5320 C   0  0  0  0  0  2  0  0  0  0  0  0
  161.5230  212.0200  148.1340 C   0  0  0  0  0  3  0  0  0  0  0  0
  161.9470  214.2520  146.9840 C   0  0  0  0  0  2  0  0  0  0  0  0
  162.4740  212.8310  147.2370 C   0  0  0  0  0  2  0  0  0  0  0  0
  160.6070  214.3820  147.3910 O   0  0  0  0  0  0  0  0  0  0  0  0
  160.9780  212.8920  149.2770 C   0  0  0  0  0  2  0  0  0  0  0  0
  160.6180  214.3050  148.7950 C   0  0  0  0  0  2  0  0  0  0  0  0
  159.9770  203.4710  151.0370 C   0  0  0  0  0  2  0  0  0  0  0  0
  161.0520  202.4720  150.7740 C   0  0  0  0  0  0  0  0  0  0  0  0
  161.0980  201.8080  149.5550 O   0  0  0  0  0  0  0  0  0  0  0  0
  161.9040  202.2140  151.6630 O   0  0  0  0  0  1  0  0  0  0  0  0
  1  7  1  0  0  0  0
  2 23  1  1  0  0  0
  2 16  1  0  0  0  0
  3  6  1  0  0  0  0
  5 12  1  0  0  0  0
  6 17  1  6  0  0  0
  6 11  1  0  0  0  0
  7 29  1  1  0  0  0
  7 13  1  0  0  0  0
  8  4  1  0  0  0  0
  9 18  1  0  0  0  0
  9  3  1  0  0  0  0
 10  4  1  0  0  0  0
 10 20  2  0  0  0  0
 11 19  1  0  0  0  0
 11 21  2  0  0  0  0
 12  1  2  0  0  0  0
 13 15  1  0  0  0  0
 15 10  1  0  0  0  0
 17  2  1  0  0  0  0
 18 14  1  6  0  0  0
 18 12  1  0  0  0  0
 19 16  1  6  0  0  0
 19 22  1  0  0  0  0
 21 15  2  0  0  0  0
 22  8  1  0  0  0  0
 23 27  1  0  0  0  0
 24 25  1  0  0  0  0
 24 26  1  0  0  0  0
 25 23  1  0  0  0  0
 26 28  1  0  0  0  0
 28 27  1  0  0  0  0
 30 29  1  0  0  0  0
 30 32  1  0  0  0  0
 31 30  2  0  0  0  0
M  END
>  <MODEL>
2

>  <REMARK>
 VINA RESULT:      -5.9      3.188      8.558
  Name = 
  3 active torsions:
  status: ('A' for Active; 'I' for Inactive)
    1  A    between atoms: C_2  and  C_15
    2  A    between atoms: C_7  and  C_14
    3  A    between atoms: C_14  and  C_22
                            x       y       z     vdW  Elec       q    Type
                         _______ _______ _______ _____ _____    ______ ____

>  <TORSDO>
F 3

$$$$
=
 OpenBabel11072410323D

 32 35  0  0  1  0  0  0  0  0999 V2000
  160.6900  209.8610  154.7320 C   0  0  0  0  0  3  0  0  0  0  0  0
  161.4780  205.1280  151.2090 C   0  0  1  0  0  3  0  0  0  0  0  0
  162.1000  206.9550  153.7040 C   0  0  0  0  0  2  0  0  0  0  0  0
  162.1020  210.8160  149.2400 C   0  0  0  0  0  2  0  0  0  0  0  0
  158.7830  208.2960  154.9710 C   0  0  0  0  0  1  0  0  0  0  0  0
  161.0070  207.1790  152.6630 C   0  0  1  0  0  3  0  0  0  0  0  0
  159.9090  210.8240  153.8870 C   0  0  2  0  0  3  0  0  0  0  0  0
  161.5780  209.5030  148.6700 C   0  0  0  0  0  2  0  0  0  0  0  0
  161.4760  206.5680  155.0430 C   0  0  0  0  0  2  0  0  0  0  0  0
  161.2340  211.3620  150.3400 C   0  0  0  0  0  0  0  0  0  0  0  0
  161.4740  208.0710  151.5480 C   0  0  0  0  0  0  0  0  0  0  0  0
  160.1950  208.7250  155.2380 C   0  0  0  0  0  0  0  0  0  0  0  0
  160.8640  211.4470  152.8760 C   0  0  0  0  0  2  0  0  0  0  0  0
  160.6380  207.3490  157.2600 C   0  0  0  0  0  1  0  0  0  0  0  0
  161.0300  210.6430  151.6150 C   0  0  0  0  0  0  0  0  0  0  0  0
  162.2250  206.0870  150.2540 C   0  0  0  0  0  2  0  0  0  0  0  0
  160.4700  205.8490  152.1260 C   0  0  0  0  0  2  0  0  0  0  0  0
  161.1610  207.7910  155.9060 C   0  0  1  0  0  3  0  0  0  0  0  0
  161.5950  207.4750  150.1620 C   0  0  2  0  0  3  0  0  0  0  0  0
  160.7190  212.5010  150.1860 O   0  0  0  0  0  0  0  0  0  0  0  0
  161.2510  209.3540  151.6510 C   0  0  0  0  0  0  0  0  0  0  0  0
  162.4080  208.3370  149.1940 C   0  0  0  0  0  2  0  0  0  0  0  0
  160.8000  203.9930  150.4350 C   0  0  0  0  0  3  0  0  0  0  0  0
  160.7310  201.4680  150.1140 C   0  0  0  0  0  2  0  0  0  0  0  0
  161.1090  202.6210  151.0580 C   0  0  0  0  0  2  0  0  0  0  0  0
  159.9450  201.9210  149.0390 O   0  0  0  0  0  0  0  0  0  0  0  0
  161.1830  204.0130  148.9470 C   0  0  0  0  0  2  0  0  0  0  0  0
  160.7960  202.7050  148.2400 C   0  0  0  0  0  2  0  0  0  0  0  0
  159.3360  211.9380  154.7520 C   0  0  0  0  0  2  0  0  0  0  0  0
  157.9130  211.6710  155.1090 C   0  0  0  0  0  0  0  0  0  0  0  0
  156.9560  211.5600  154.1080 O   0  0  0  0  0  0  0  0  0  0  0  0
  157.5750  211.5660  156.3160 O   0  0  0  0  0  1  0  0  0  0  0  0
  1 12  2  0  0  0  0
  2 23  1  6  0  0  0
  2 17  1  0  0  0  0
  3  9  1  0  0  0  0
  4 10  1  0  0  0  0
  5 12  1  0  0  0  0
  6 17  1  6  0  0  0
  6  3  1  0  0  0  0
  7  1  1  0  0  0  0
  7 29  1  1  0  0  0
  8 22  1  0  0  0  0
  8  4  1  0  0  0  0
  9 18  1  0  0  0  0
 10 15  1  0  0  0  0
 11 21  2  0  0  0  0
 11  6  1  0  0  0  0
 12 18  1  0  0  0  0
 13  7  1  0  0  0  0
 15 21  2  0  0  0  0
 15 13  1  0  0  0  0
 16  2  1  0  0  0  0
 18 14  1  1  0  0  0
 19 22  1  6  0  0  0
 19 16  1  0  0  0  0
 19 11  1  0  0  0  0
 20 10  2  0  0  0  0
 23 25  1  0  0  0  0
 24 25  1  0  0  0  0
 26 24  1  0  0  0  0
 27 23  1  0  0  0  0
 28 27  1  0  0  0  0
 28 26  1  0  0  0  0
 29 30  1  0  0  0  0
 30 32  1  0  0  0  0
 31 30  2  0  0  0  0
M  END
>  <MODEL>
3

>  <REMARK>
 VINA RESULT:      -5.8      2.154      3.498
  Name = 
  3 active torsions:
  status: ('A' for Active; 'I' for Inactive)
    1  A    between atoms: C_2  and  C_15
    2  A    between atoms: C_7  and  C_14
    3  A    between atoms: C_14  and  C_22
                            x       y       z     vdW  Elec       q    Type
                         _______ _______ _______ _____ _____    ______ ____

>  <TORSDO>
F 3

$$$$
=
 OpenBabel11072410323D

 32 35  0  0  1  0  0  0  0  0999 V2000
  161.6560  203.6430  148.1560 C   0  0  0  0  0  3  0  0  0  0  0  0
  162.1350  209.5260  148.9350 C   0  0  1  0  0  3  0  0  0  0  0  0
  163.1390  206.6870  147.9960 C   0  0  0  0  0  2  0  0  0  0  0  0
  161.3670  205.6660  153.5320 C   0  0  0  0  0  2  0  0  0  0  0  0
  160.1330  204.8340  146.6040 C   0  0  0  0  0  1  0  0  0  0  0  0
  161.7840  207.0120  148.6170 C   0  0  1  0  0  3  0  0  0  0  0  0
  160.5430  203.2390  149.0790 C   0  0  2  0  0  3  0  0  0  0  0  0
  160.9050  207.0760  153.1880 C   0  0  0  0  0  2  0  0  0  0  0  0
  162.9660  206.3220  146.5230 C   0  0  0  0  0  2  0  0  0  0  0  0
  160.7620  204.6180  152.6380 C   0  0  0  0  0  0  0  0  0  0  0  0
  161.7960  206.8260  150.1070 C   0  0  0  0  0  0  0  0  0  0  0  0
  161.4870  204.3500  147.0330 C   0  0  0  0  0  0  0  0  0  0  0  0
  161.0870  203.2380  150.5020 C   0  0  0  0  0  2  0  0  0  0  0  0
  162.6580  204.5000  144.8450 C   0  0  0  0  0  1  0  0  0  0  0  0
  161.0180  204.5780  151.1840 C   0  0  0  0  0  0  0  0  0  0  0  0
  162.4470  209.2050  150.4140 C   0  0  0  0  0  2  0  0  0  0  0  0
  161.3200  208.4210  148.2340 C   0  0  0  0  0  2  0  0  0  0  0  0
  162.7230  204.8250  146.3260 C   0  0  1  0  0  3  0  0  0  0  0  0
  161.6210  208.0510  150.9790 C   0  0  2  0  0  3  0  0  0  0  0  0
  160.0640  203.7120  153.1670 O   0  0  0  0  0  0  0  0  0  0  0  0
  161.4260  205.6690  150.5870 C   0  0  0  0  0  0  0  0  0  0  0  0
  162.0060  207.8210  152.4420 C   0  0  0  0  0  2  0  0  0  0  0  0
  161.4440  210.8860  148.7970 C   0  0  0  0  0  3  0  0  0  0  0  0
  161.7740  213.3030  148.0660 C   0  0  0  0  0  2  0  0  0  0  0  0
  162.2690  211.8540  147.9320 C   0  0  0  0  0  2  0  0  0  0  0  0
  160.5270  213.3600  148.7150 O   0  0  0  0  0  0  0  0  0  0  0  0
  161.1370  211.5080  150.1690 C   0  0  0  0  0  2  0  0  0  0  0  0
  160.7680  212.9950  150.0510 C   0  0  0  0  0  2  0  0  0  0  0  0
  160.0720  201.8300  148.7460 C   0  0  0  0  0  2  0  0  0  0  0  0
  161.0830  201.0980  147.9310 C   0  0  0  0  0  0  0  0  0  0  0  0
  161.0020  201.1170  146.5450 O   0  0  0  0  0  0  0  0  0  0  0  0
  161.9970  200.4460  148.4980 O   0  0  0  0  0  1  0  0  0  0  0  0
  1  7  1  0  0  0  0
  2 23  1  1  0  0  0
  2 16  1  0  0  0  0
  5 12  1  0  0  0  0
  6  3  1  1  0  0  0
  6 11  1  0  0  0  0
  7 29  1  6  0  0  0
  7 13  1  0  0  0  0
  8  4  1  0  0  0  0
  9  3  1  0  0  0  0
 10 20  2  0  0  0  0
 10  4  1  0  0  0  0
 11 21  2  0  0  0  0
 11 19  1  0  0  0  0
 12  1  2  0  0  0  0
 13 15  1  0  0  0  0
 15 10  1  0  0  0  0
 17  6  1  0  0  0  0
 17  2  1  0  0  0  0
 18 14  1  6  0  0  0
 18  9  1  0  0  0  0
 18 12  1  0  0  0  0
 19 16  1  6  0  0  0
 19 22  1  0  0  0  0
 21 15  2  0  0  0  0
 22  8  1  0  0  0  0
 23 27  1  0  0  0  0
 24 26  1  0  0  0  0
 25 24  1  0  0  0  0
 25 23  1  0  0  0  0
 26 28  1  0  0  0  0
 28 27  1  0  0  0  0
 30 32  1  0  0  0  0
 30 29  1  0  0  0  0
 31 30  2  0  0  0  0
M  END
>  <MODEL>
4

>  <REMARK>
 VINA RESULT:      -5.2      3.412      9.536
  Name = 
  3 active torsions:
  status: ('A' for Active; 'I' for Inactive)
    1  A    between atoms: C_2  and  C_15
    2  A    between atoms: C_7  and  C_14
    3  A    between atoms: C_14  and  C_22
                            x       y       z     vdW  Elec       q    Type
                         _______ _______ _______ _____ _____    ______ ____

>  <TORSDO>
F 3

$$$$
=
 OpenBabel11072410323D

 32 35  0  0  1  0  0  0  0  0999 V2000
  161.3020  203.1960  145.9220 C   0  0  0  0  0  3  0  0  0  0  0  0
  161.8010  207.6510  149.8400 C   0  0  1  0  0  3  0  0  0  0  0  0
  162.7590  205.8620  147.4240 C   0  0  0  0  0  2  0  0  0  0  0  0
  161.3310  201.8550  151.5150 C   0  0  0  0  0  2  0  0  0  0  0  0
  159.6830  204.9920  145.3790 C   0  0  0  0  0  1  0  0  0  0  0  0
  161.4430  205.7340  148.1840 C   0  0  1  0  0  3  0  0  0  0  0  0
  160.2490  202.3030  146.5120 C   0  0  2  0  0  3  0  0  0  0  0  0
  160.8420  203.1980  152.0430 C   0  0  0  0  0  2  0  0  0  0  0  0
  162.4990  206.3770  146.0100 C   0  0  0  0  0  2  0  0  0  0  0  0
  160.6770  201.4640  150.2180 C   0  0  0  0  0  0  0  0  0  0  0  0
  161.5460  204.7470  149.3130 C   0  0  0  0  0  0  0  0  0  0  0  0
  161.0630  204.4030  145.3980 C   0  0  0  0  0  0  0  0  0  0  0  0
  160.8780  201.5270  147.6620 C   0  0  0  0  0  2  0  0  0  0  0  0
  162.0990  205.7950  143.6170 C   0  0  0  0  0  1  0  0  0  0  0  0
  160.8450  202.2540  148.9800 C   0  0  0  0  0  0  0  0  0  0  0  0
  162.2040  206.5700  150.8680 C   0  0  0  0  0  2  0  0  0  0  0  0
  160.9500  207.0970  148.6790 C   0  0  0  0  0  2  0  0  0  0  0  0
  162.2520  205.2380  145.0200 C   0  0  1  0  0  3  0  0  0  0  0  0
  161.4190  205.2670  150.7280 C   0  0  2  0  0  3  0  0  0  0  0  0
  160.0170  200.3920  150.1800 O   0  0  0  0  0  0  0  0  0  0  0  0
  161.2100  203.5060  149.0790 C   0  0  0  0  0  0  0  0  0  0  0  0
  161.8920  204.2740  151.7910 C   0  0  0  0  0  2  0  0  0  0  0  0
  161.0970  208.8290  150.5210 C   0  0  0  0  0  3  0  0  0  0  0  0
  161.4000  211.2210  151.3370 C   0  0  0  0  0  2  0  0  0  0  0  0
  161.9080  210.1280  150.3840 C   0  0  0  0  0  2  0  0  0  0  0  0
  160.1570  210.8760  151.8970 O   0  0  0  0  0  0  0  0  0  0  0  0
  160.7920  208.5300  151.9970 C   0  0  0  0  0  2  0  0  0  0  0  0
  160.4080  209.8020  152.7690 C   0  0  0  0  0  2  0  0  0  0  0  0
  159.7650  201.3040  145.4700 C   0  0  0  0  0  2  0  0  0  0  0  0
  160.5660  200.0480  145.5100 C   0  0  0  0  0  0  0  0  0  0  0  0
  161.4300  199.8090  146.5700 O   0  0  0  0  0  1  0  0  0  0  0  0
  160.4750  199.2120  144.5730 O   0  0  0  0  0  0  0  0  0  0  0  0
  1  7  1  0  0  0  0
  2 23  1  1  0  0  0
  2 16  1  0  0  0  0
  4  8  1  0  0  0  0
  5 12  1  0  0  0  0
  6  3  1  1  0  0  0
  6 17  1  0  0  0  0
  6 11  1  0  0  0  0
  7 29  1  6  0  0  0
  7 13  1  0  0  0  0
  9  3  1  0  0  0  0
 10  4  1  0  0  0  0
 11 19  1  0  0  0  0
 12  1  2  0  0  0  0
 13 15  1  0  0  0  0
 15 21  2  0  0  0  0
 15 10  1  0  0  0  0
 17  2  1  0  0  0  0
 18 14  1  6  0  0  0
 18 12  1  0  0  0  0
 18  9  1  0  0  0  0
 19 16  1  6  0  0  0
 19 22  1  0  0  0  0
 20 10  2  0  0  0  0
 21 11  2  0  0  0  0
 22  8  1  0  0  0  0
 23 27  1  0  0  0  0
 24 26  1  0  0  0  0
 25 23  1  0  0  0  0
 25 24  1  0  0  0  0
 26 28  1  0  0  0  0
 27 28  1  0  0  0  0
 29 30  1  0  0  0  0
 30 31  1  0  0  0  0
 32 30  2  0  0  0  0
M  END
>  <MODEL>
5

>  <REMARK>
 VINA RESULT:      -4.7      4.003     10.537
  Name = 
  3 active torsions:
  status: ('A' for Active; 'I' for Inactive)
    1  A    between atoms: C_2  and  C_15
    2  A    between atoms: C_7  and  C_14
    3  A    between atoms: C_14  and  C_22
                            x       y       z     vdW  Elec       q    Type
                         _______ _______ _______ _____ _____    ______ ____

>  <TORSDO>
F 3

$$$$
=
 OpenBabel11072410323D

 32 35  0  0  1  0  0  0  0  0999 V2000
  159.7380  211.3570  155.3180 C   0  0  0  0  0  3  0  0  0  0  0  0
  162.3850  208.3950  150.8840 C   0  0  1  0  0  3  0  0  0  0  0  0
  162.2780  209.7880  153.7120 C   0  0  0  0  0  2  0  0  0  0  0  0
  159.9560  213.8890  150.1590 C   0  0  0  0  0  2  0  0  0  0  0  0
  158.8720  209.0370  155.2080 C   0  0  0  0  0  1  0  0  0  0  0  0
  161.1180  209.6270  152.7330 C   0  0  1  0  0  3  0  0  0  0  0  0
  158.5070  211.9410  154.6870 C   0  0  2  0  0  3  0  0  0  0  0  0
  160.0860  212.6230  149.3220 C   0  0  0  0  0  2  0  0  0  0  0  0
  162.0580  208.9010  154.9350 C   0  0  0  0  0  2  0  0  0  0  0  0
  159.0450  213.7160  151.3430 C   0  0  0  0  0  0  0  0  0  0  0  0
  160.9790  210.8220  151.8340 C   0  0  0  0  0  0  0  0  0  0  0  0
  159.9130  210.0550  155.5690 C   0  0  0  0  0  0  0  0  0  0  0  0
  158.9320  213.1320  153.8380 C   0  0  0  0  0  2  0  0  0  0  0  0
  161.1680  208.7330  157.2610 C   0  0  0  0  0  1  0  0  0  0  0  0
  159.3440  212.7680  152.4360 C   0  0  0  0  0  0  0  0  0  0  0  0
  162.4710  209.7560  150.1580 C   0  0  0  0  0  2  0  0  0  0  0  0
  161.2490  208.3330  151.9240 C   0  0  0  0  0  2  0  0  0  0  0  0
  161.2720  209.6200  156.0330 C   0  0  1  0  0  3  0  0  0  0  0  0
  161.2380  210.6350  150.3550 C   0  0  2  0  0  3  0  0  0  0  0  0
  158.0270  214.4530  151.4270 O   0  0  0  0  0  0  0  0  0  0  0  0
  160.1690  211.7790  152.2020 C   0  0  0  0  0  0  0  0  0  0  0  0
  161.4270  211.9500  149.5950 C   0  0  0  0  0  2  0  0  0  0  0  0
  162.2750  207.2390  149.8840 C   0  0  0  0  0  3  0  0  0  0  0  0
  161.9050  206.6610  147.4320 C   0  0  0  0  0  2  0  0  0  0  0  0
  162.3530  207.7390  148.4320 C   0  0  0  0  0  2  0  0  0  0  0  0
  161.8010  205.4010  148.0490 O   0  0  0  0  0  0  0  0  0  0  0  0
  160.9960  206.4160  150.1080 C   0  0  0  0  0  2  0  0  0  0  0  0
  160.7010  205.4860  148.9210 C   0  0  0  0  0  2  0  0  0  0  0  0
  157.5520  212.4380  155.7630 C   0  0  0  0  0  2  0  0  0  0  0  0
  156.3190  211.6030  155.8220 C   0  0  0  0  0  0  0  0  0  0  0  0
  155.8000  211.0490  154.6600 O   0  0  0  0  0  0  0  0  0  0  0  0
  155.7360  211.4160  156.9220 O   0  0  0  0  0  1  0  0  0  0  0  0
  1 12  2  0  0  0  0
  2 23  1  6  0  0  0
  2 17  1  0  0  0  0
  3  9  1  0  0  0  0
  4 10  1  0  0  0  0
  5 12  1  0  0  0  0
  6 17  1  6  0  0  0
  6  3  1  0  0  0  0
  7  1  1  0  0  0  0
  7 29  1  1  0  0  0
  8 22  1  0  0  0  0
  8  4  1  0  0  0  0
  9 18  1  0  0  0  0
 10 20  2  0  0  0  0
 10 15  1  0  0  0  0
 11 21  2  0  0  0  0
 11  6  1  0  0  0  0
 12 18  1  0  0  0  0
 13  7  1  0  0  0  0
 15 13  1  0  0  0  0
 16 19  1  0  0  0  0
 16  2  1  0  0  0  0
 18 14  1  1  0  0  0
 19 22  1  6  0  0  0
 19 11  1  0  0  0  0
 21 15  2  0  0  0  0
 23 27  1  0  0  0  0
 24 26  1  0  0  0  0
 24 25  1  0  0  0  0
 25 23  1  0  0  0  0
 26 28  1  0  0  0  0
 28 27  1  0  0  0  0
 29 30  1  0  0  0  0
 30 32  1  0  0  0  0
 31 30  2  0  0  0  0
M  END
>  <MODEL>
6

>  <REMARK>
 VINA RESULT:      -4.6      1.789      2.508
  Name = 
  3 active torsions:
  status: ('A' for Active; 'I' for Inactive)
    1  A    between atoms: C_2  and  C_15
    2  A    between atoms: C_7  and  C_14
    3  A    between atoms: C_14  and  C_22
                            x       y       z     vdW  Elec       q    Type
                         _______ _______ _______ _____ _____    ______ ____

>  <TORSDO>
F 3

$$$$
