=
 OpenBabel11072412343D

 51 55  0  0  1  0  0  0  0  0999 V2000
  162.8450  204.6000  148.1390 C   0  0  0  0  0  2  0  0  0  0  0  0
  162.2540  206.1470  153.9040 C   0  0  0  0  0  3  0  0  0  0  0  0
  161.2710  204.0670  149.8540 C   0  0  2  0  0  3  0  0  0  0  0  0
  160.8250  208.1600  151.1990 N   0  0  2  0  0  0  0  0  0  0  0  0
  161.3450  209.4640  151.6100 C   0  0  1  0  0  3  0  0  0  0  0  0
  162.2970  210.0470  150.5410 C   0  0  0  0  0  2  0  0  0  0  0  0
  161.9360  203.9580  151.1550 N   0  0  0  0  0  0  0  0  0  0  0  0
  162.9140  207.1830  148.2540 C   0  0  0  0  0  2  0  0  0  0  0  0
  162.1380  208.3090  148.9980 C   0  0  1  0  0  3  0  0  0  0  0  0
  161.5790  204.8220  152.0690 C   0  0  0  0  0  0  0  0  0  0  0  0
  160.8020  207.0880  152.1970 C   0  0  2  0  0  3  0  0  0  0  0  0
  161.5730  207.2500  153.3670 C   0  0  0  0  0  2  0  0  0  0  0  0
  159.7610  204.2440  149.9670 C   0  0  0  0  0  2  0  0  0  0  0  0
  160.5590  205.7650  151.7820 C   0  0  1  0  0  3  0  0  0  0  0  0
  160.8920  207.7640  149.7680 C   0  0  0  0  0  2  0  0  0  0  0  0
  161.9730  203.5120  148.6970 N   0  0  0  0  0  0  0  0  0  0  0  0
  159.6390  205.4890  150.8210 C   0  0  0  0  0  2  0  0  0  0  0  0
  162.3250  204.9850  153.1960 N   0  0  0  0  0  0  0  0  0  0  0  0
  163.0430  208.9510  149.9390 N   0  0  0  0  0  2  0  0  0  0  0  0
  162.0880  205.9360  147.9210 C   0  0  1  0  0  3  0  0  0  0  0  0
  159.8010  206.2120  145.0380 C   0  0  0  0  0  3  0  0  0  0  0  0
  162.1610  205.7390  145.1270 S   0  0  0  0  0  0  0  0  0  0  0  0
  160.1150  206.2650  146.3750 N   0  0  0  0  0  0  0  0  0  0  0  0
  160.8160  205.9130  144.1690 N   0  0  0  0  0  0  0  0  0  0  0  0
  161.4270  206.0160  146.5890 C   0  0  0  0  0  0  0  0  0  0  0  0
  160.2160  210.4220  151.8940 C   0  0  0  0  0  3  0  0  0  0  0  0
  160.4480  211.5410  152.5790 C   0  0  0  0  0  3  0  0  0  0  0  0
  159.3190  212.4680  152.9210 C   0  0  2  0  0  3  0  0  0  0  0  0
  157.2240  211.9500  154.0390 C   0  0  0  0  0  1  0  0  0  0  0  0
  157.9480  211.8380  152.7330 C   0  0  0  0  0  2  0  0  0  0  0  0
  159.4660  213.7590  152.1360 C   0  0  0  0  0  2  0  0  0  0  0  0
  160.2300  213.6390  149.8120 C   0  0  0  0  0  3  0  0  0  0  0  0
  157.9670  213.0590  150.2810 O   0  0  0  0  0  1  0  0  0  0  0  0
  159.2230  213.5050  150.6860 C   0  0  0  0  0  0  0  0  0  0  0  0
  160.1500  213.3320  148.3370 C   0  0  1  0  0  3  0  0  0  0  0  0
  160.9440  212.1500  147.9600 N   0  0  0  0  0  2  0  0  0  0  0  0
  162.3350  212.4970  147.7020 C   0  0  0  0  0  2  0  0  0  0  0  0
  162.4090  213.6930  146.7750 C   0  0  0  0  0  2  0  0  0  0  0  0
  162.9640  213.2830  145.4160 C   0  0  0  0  0  2  0  0  0  0  0  0
  161.9780  213.6680  144.3190 C   0  0  0  0  0  2  0  0  0  0  0  0
  161.8570  212.5910  143.3490 N   0  0  0  0  0  1  0  0  0  0  0  0
  158.7260  213.3230  147.7810 C   0  0  0  0  0  2  0  0  0  0  0  0
  158.5800  212.6550  145.1070 S   0  0  0  0  0  1  0  0  0  0  0  0
  158.6610  213.9440  146.3870 C   0  0  0  0  0  2  0  0  0  0  0  0
  161.0470  203.1080  147.6450 C   0  0  0  0  0  2  0  0  0  0  0  0
  160.7610  201.6180  147.7390 C   0  0  2  0  0  3  0  0  0  0  0  0
  161.4960  201.0430  148.7910 O   0  0  0  0  0  1  0  0  0  0  0  0
  161.1590  200.9510  146.4260 C   0  0  0  0  0  2  0  0  0  0  0  0
  160.3350  201.4140  145.2730 C   0  0  0  0  0  0  0  0  0  0  0  0
  160.3890  202.7360  144.8550 O   0  0  0  0  0  1  0  0  0  0  0  0
  159.6080  200.5960  144.6560 O   0  0  0  0  0  0  0  0  0  0  0  0
  1 16  1  0  0  0  0
  3 13  1  1  0  0  0
  3  7  1  0  0  0  0
  4 15  1  6  0  0  0
  4  5  1  0  0  0  0
  4 11  1  0  0  0  0
  5 26  1  6  0  0  0
  6  5  1  0  0  0  0
  7 10  2  0  0  0  0
  9  8  1  1  0  0  0
  9 15  1  0  0  0  0
  9 19  1  0  0  0  0
 10 18  1  0  0  0  0
 11 12  1  6  0  0  0
 12  2  1  0  0  0  0
 13 17  1  0  0  0  0
 14 17  1  6  0  0  0
 14 10  1  0  0  0  0
 14 11  1  0  0  0  0
 16  3  1  0  0  0  0
 18  2  2  0  0  0  0
 19  6  1  0  0  0  0
 20 25  1  6  0  0  0
 20  1  1  0  0  0  0
 20  8  1  0  0  0  0
 21 23  1  0  0  0  0
 22 25  1  0  0  0  0
 23 25  2  0  0  0  0
 24 21  2  0  0  0  0
 24 22  1  0  0  0  0
 26 27  2  0  0  0  0
 27 28  1  0  0  0  0
 28 31  1  6  0  0  0
 30 28  1  0  0  0  0
 30 29  1  0  0  0  0
 32 34  2  0  0  0  0
 33 34  1  0  0  0  0
 34 31  1  0  0  0  0
 35 42  1  1  0  0  0
 35 32  1  0  0  0  0
 36 35  1  0  0  0  0
 37 36  1  0  0  0  0
 38 37  1  0  0  0  0
 39 38  1  0  0  0  0
 40 39  1  0  0  0  0
 41 40  1  0  0  0  0
 43 44  1  0  0  0  0
 44 42  1  0  0  0  0
 45 46  1  0  0  0  0
 45 16  1  0  0  0  0
 46 47  1  1  0  0  0
 48 46  1  0  0  0  0
 49 48  1  0  0  0  0
 50 49  1  0  0  0  0
 51 49  2  0  0  0  0
M  END
>  <MODEL>
1

>  <REMARK>
 VINA RESULT:      -2.0      0.000      0.000
  Name = 
  18 active torsions:
  status: ('A' for Active; 'I' for Inactive)
    1  A    between atoms: C_1  and  C_3
    2  A    between atoms: C_1  and  C_13
    3  A    between atoms: C_2  and  C_8
    4  A    between atoms: C_2  and  C_32
    5  A    between atoms: C_4  and  C_48
    6  A    between atoms: C_4  and  C_50
    7  A    between atoms: C_4  and  C_51
    8  A    between atoms: C_8  and  C_16
    9  A    between atoms: C_8  and  N_17
   10  A    between atoms: C_11  and  C_37
   11  A    between atoms: C_12  and  C_39
   12  A    between atoms: C_12  and  C_45
   13  A    between atoms: C_13  and  C_41
   14  A    between atoms: N_17  and  C_41
   15  A    between atoms: C_19  and  C_45
   16  A    between atoms: N_35  and  C_39
   17  A    between atoms: C_40  and  C_49
   18  A    between atoms: C_42  and  C_48
                            x       y       z     vdW  Elec       q    Type
                         _______ _______ _______ _____ _____    ______ ____

>  <TORSDO>
F 18

$$$$
=
 OpenBabel11072412343D

 51 55  0  0  1  0  0  0  0  0999 V2000
  162.8560  204.3910  148.1790 C   0  0  0  0  0  2  0  0  0  0  0  0
  162.0940  206.2570  153.8280 C   0  0  0  0  0  3  0  0  0  0  0  0
  161.1980  204.0010  149.8530 C   0  0  2  0  0  3  0  0  0  0  0  0
  160.8440  208.1710  150.9680 N   0  0  2  0  0  0  0  0  0  0  0  0
  161.3940  209.4770  151.3330 C   0  0  1  0  0  3  0  0  0  0  0  0
  162.4070  209.9720  150.2760 C   0  0  0  0  0  2  0  0  0  0  0  0
  161.8070  203.9390  151.1830 N   0  0  0  0  0  0  0  0  0  0  0  0
  163.0120  206.9730  148.1650 C   0  0  0  0  0  2  0  0  0  0  0  0
  162.2470  208.1610  148.8180 C   0  0  1  0  0  3  0  0  0  0  0  0
  161.4450  204.8610  152.0370 C   0  0  0  0  0  0  0  0  0  0  0  0
  160.7450  207.1550  152.0180 C   0  0  2  0  0  3  0  0  0  0  0  0
  161.4740  207.3520  153.2090 C   0  0  0  0  0  2  0  0  0  0  0  0
  159.6920  204.2330  149.8940 C   0  0  0  0  0  2  0  0  0  0  0  0
  160.4710  205.8210  151.6600 C   0  0  1  0  0  3  0  0  0  0  0  0
  160.9530  207.6990  149.5620 C   0  0  0  0  0  2  0  0  0  0  0  0
  161.9250  203.3630  148.7560 N   0  0  0  0  0  0  0  0  0  0  0  0
  159.5800  205.5250  150.6780 C   0  0  0  0  0  2  0  0  0  0  0  0
  162.1520  205.0570  153.1840 N   0  0  0  0  0  0  0  0  0  0  0  0
  163.1370  208.8210  149.7620 N   0  0  0  0  0  2  0  0  0  0  0  0
  162.1560  205.7380  147.8620 C   0  0  1  0  0  3  0  0  0  0  0  0
  159.9970  205.9470  144.8770 C   0  0  0  0  0  3  0  0  0  0  0  0
  162.3270  205.3800  145.0890 S   0  0  0  0  0  0  0  0  0  0  0  0
  160.2600  206.0620  146.2210 N   0  0  0  0  0  0  0  0  0  0  0  0
  161.0290  205.5550  144.0680 N   0  0  0  0  0  0  0  0  0  0  0  0
  161.5510  205.7700  146.5020 C   0  0  0  0  0  0  0  0  0  0  0  0
  160.2890  210.4850  151.5210 C   0  0  0  0  0  3  0  0  0  0  0  0
  160.5270  211.7810  151.3170 C   0  0  0  0  0  3  0  0  0  0  0  0
  159.4510  212.7970  151.5630 C   0  0  2  0  0  3  0  0  0  0  0  0
  160.4510  214.3420  149.9740 C   0  0  0  0  0  1  0  0  0  0  0  0
  159.1660  213.6730  150.3530 C   0  0  0  0  0  2  0  0  0  0  0  0
  159.7990  213.6180  152.7910 C   0  0  0  0  0  2  0  0  0  0  0  0
  158.2340  212.0740  153.8720 C   0  0  0  0  0  3  0  0  0  0  0  0
  158.9040  214.0190  155.0750 O   0  0  0  0  0  1  0  0  0  0  0  0
  158.9240  213.2210  153.9340 C   0  0  0  0  0  0  0  0  0  0  0  0
  157.3840  211.5090  154.9840 C   0  0  1  0  0  3  0  0  0  0  0  0
  158.1620  211.2190  156.2010 N   0  0  0  0  0  2  0  0  0  0  0  0
  159.0170  210.0520  156.0280 C   0  0  0  0  0  2  0  0  0  0  0  0
  159.9990  209.9520  157.1770 C   0  0  0  0  0  2  0  0  0  0  0  0
  161.2200  209.1360  156.7690 C   0  0  0  0  0  2  0  0  0  0  0  0
  162.1690  210.0030  155.9500 C   0  0  0  0  0  2  0  0  0  0  0  0
  162.9950  210.8160  156.8270 N   0  0  0  0  0  1  0  0  0  0  0  0
  156.0990  212.2950  155.2440 C   0  0  0  0  0  2  0  0  0  0  0  0
  154.6910  211.0360  157.2560 S   0  0  0  0  0  1  0  0  0  0  0  0
  155.7880  212.3900  156.7360 C   0  0  0  0  0  2  0  0  0  0  0  0
  161.0270  202.9360  147.6880 C   0  0  0  0  0  2  0  0  0  0  0  0
  160.7290  201.4500  147.8140 C   0  0  2  0  0  3  0  0  0  0  0  0
  161.4600  200.8920  148.8770 O   0  0  0  0  0  1  0  0  0  0  0  0
  161.1200  200.7520  146.5160 C   0  0  0  0  0  2  0  0  0  0  0  0
  160.4070  201.3050  145.3290 C   0  0  0  0  0  0  0  0  0  0  0  0
  159.7780  200.4580  144.4280 O   0  0  0  0  0  0  0  0  0  0  0  0
  160.3480  202.5490  145.1580 O   0  0  0  0  0  1  0  0  0  0  0  0
  1 16  1  0  0  0  0
  3 13  1  1  0  0  0
  3  7  1  0  0  0  0
  4 15  1  6  0  0  0
  4  5  1  0  0  0  0
  4 11  1  0  0  0  0
  5 26  1  6  0  0  0
  6  5  1  0  0  0  0
  7 10  2  0  0  0  0
  9  8  1  1  0  0  0
  9 15  1  0  0  0  0
  9 19  1  0  0  0  0
 10 18  1  0  0  0  0
 11 12  1  6  0  0  0
 12  2  1  0  0  0  0
 13 17  1  0  0  0  0
 14 17  1  6  0  0  0
 14 11  1  0  0  0  0
 14 10  1  0  0  0  0
 16  3  1  0  0  0  0
 18  2  2  0  0  0  0
 19  6  1  0  0  0  0
 20 25  1  6  0  0  0
 20  8  1  0  0  0  0
 20  1  1  0  0  0  0
 21 23  1  0  0  0  0
 22 25  1  0  0  0  0
 23 25  2  0  0  0  0
 24 21  2  0  0  0  0
 24 22  1  0  0  0  0
 27 26  2  0  0  0  0
 27 28  1  0  0  0  0
 28 30  1  6  0  0  0
 28 31  1  0  0  0  0
 29 30  1  0  0  0  0
 31 34  1  0  0  0  0
 32 34  2  0  0  0  0
 34 33  1  0  0  0  0
 35 32  1  6  0  0  0
 35 42  1  0  0  0  0
 35 36  1  0  0  0  0
 37 36  1  0  0  0  0
 37 38  1  0  0  0  0
 39 38  1  0  0  0  0
 40 39  1  0  0  0  0
 40 41  1  0  0  0  0
 42 44  1  0  0  0  0
 44 43  1  0  0  0  0
 45 46  1  0  0  0  0
 45 16  1  0  0  0  0
 46 47  1  1  0  0  0
 48 46  1  0  0  0  0
 49 48  1  0  0  0  0
 50 49  2  0  0  0  0
 51 49  1  0  0  0  0
M  END
>  <MODEL>
2

>  <REMARK>
 VINA RESULT:      -1.4      2.656      5.038
  Name = 
  18 active torsions:
  status: ('A' for Active; 'I' for Inactive)
    1  A    between atoms: C_1  and  C_3
    2  A    between atoms: C_1  and  C_13
    3  A    between atoms: C_2  and  C_8
    4  A    between atoms: C_2  and  C_32
    5  A    between atoms: C_4  and  C_48
    6  A    between atoms: C_4  and  C_50
    7  A    between atoms: C_4  and  C_51
    8  A    between atoms: C_8  and  C_16
    9  A    between atoms: C_8  and  N_17
   10  A    between atoms: C_11  and  C_37
   11  A    between atoms: C_12  and  C_39
   12  A    between atoms: C_12  and  C_45
   13  A    between atoms: C_13  and  C_41
   14  A    between atoms: N_17  and  C_41
   15  A    between atoms: C_19  and  C_45
   16  A    between atoms: N_35  and  C_39
   17  A    between atoms: C_40  and  C_49
   18  A    between atoms: C_42  and  C_48
                            x       y       z     vdW  Elec       q    Type
                         _______ _______ _______ _____ _____    ______ ____

>  <TORSDO>
F 18

$$$$
=
 OpenBabel11072412343D

 51 55  0  0  1  0  0  0  0  0999 V2000
  162.7470  204.0830  148.1450 C   0  0  0  0  0  2  0  0  0  0  0  0
  162.3380  206.3360  153.6890 C   0  0  0  0  0  3  0  0  0  0  0  0
  161.2100  203.7960  149.9510 C   0  0  2  0  0  3  0  0  0  0  0  0
  160.8730  208.0320  150.7920 N   0  0  2  0  0  0  0  0  0  0  0  0
  161.4270  209.3650  151.0270 C   0  0  1  0  0  3  0  0  0  0  0  0
  162.3600  209.7930  149.8720 C   0  0  0  0  0  2  0  0  0  0  0  0
  161.9080  203.8340  151.2380 N   0  0  0  0  0  0  0  0  0  0  0  0
  162.8650  206.6580  147.9400 C   0  0  0  0  0  2  0  0  0  0  0  0
  162.1290  207.8830  148.5590 C   0  0  1  0  0  3  0  0  0  0  0  0
  161.5900  204.8100  152.0480 C   0  0  0  0  0  0  0  0  0  0  0  0
  160.8580  207.0910  151.9150 C   0  0  2  0  0  3  0  0  0  0  0  0
  161.6620  207.3790  153.0370 C   0  0  0  0  0  2  0  0  0  0  0  0
  159.7070  204.0170  150.0770 C   0  0  0  0  0  2  0  0  0  0  0  0
  160.5800  205.7320  151.6720 C   0  0  1  0  0  3  0  0  0  0  0  0
  160.8940  207.4620  149.4190 C   0  0  0  0  0  2  0  0  0  0  0  0
  161.8710  203.0890  148.8540 N   0  0  0  0  0  0  0  0  0  0  0  0
  159.6300  205.3600  150.7750 C   0  0  0  0  0  2  0  0  0  0  0  0
  162.3700  205.0940  153.1280 N   0  0  0  0  0  0  0  0  0  0  0  0
  163.0700  208.6150  149.3910 N   0  0  0  0  0  2  0  0  0  0  0  0
  162.0080  205.3970  147.7830 C   0  0  1  0  0  3  0  0  0  0  0  0
  159.7240  205.6100  144.8930 C   0  0  0  0  0  3  0  0  0  0  0  0
  161.8210  204.4560  145.1510 S   0  0  0  0  0  0  0  0  0  0  0  0
  160.1300  205.9130  146.1700 N   0  0  0  0  0  0  0  0  0  0  0  0
  160.5320  204.7860  144.1570 N   0  0  0  0  0  0  0  0  0  0  0  0
  161.3130  205.3270  146.4680 C   0  0  0  0  0  0  0  0  0  0  0  0
  160.3230  210.3740  151.2190 C   0  0  0  0  0  3  0  0  0  0  0  0
  160.5980  211.6770  151.1830 C   0  0  0  0  0  3  0  0  0  0  0  0
  159.5170  212.6870  151.4350 C   0  0  2  0  0  3  0  0  0  0  0  0
  160.5080  213.8940  149.5720 C   0  0  0  0  0  1  0  0  0  0  0  0
  159.2040  213.5460  150.2210 C   0  0  0  0  0  2  0  0  0  0  0  0
  159.8770  213.5240  152.6490 C   0  0  0  0  0  2  0  0  0  0  0  0
  160.0340  212.3010  154.7650 C   0  0  0  0  0  3  0  0  0  0  0  0
  157.9010  213.1330  154.1040 O   0  0  0  0  0  1  0  0  0  0  0  0
  159.2610  212.9380  153.8750 C   0  0  0  0  0  0  0  0  0  0  0  0
  159.5610  211.7380  156.0830 C   0  0  1  0  0  3  0  0  0  0  0  0
  158.5350  212.5800  156.7230 N   0  0  0  0  0  2  0  0  0  0  0  0
  157.4290  211.7830  157.2350 C   0  0  0  0  0  2  0  0  0  0  0  0
  156.1590  212.6110  157.2590 C   0  0  0  0  0  2  0  0  0  0  0  0
  155.3080  212.3220  156.0280 C   0  0  0  0  0  2  0  0  0  0  0  0
  155.6220  210.9260  155.5000 C   0  0  0  0  0  2  0  0  0  0  0  0
  154.6710  209.9610  156.0280 N   0  0  0  0  0  1  0  0  0  0  0  0
  159.2000  210.2540  156.0310 C   0  0  0  0  0  2  0  0  0  0  0  0
  161.7290  209.2730  156.5390 S   0  0  0  0  0  1  0  0  0  0  0  0
  160.3170  209.4230  155.4030 C   0  0  0  0  0  2  0  0  0  0  0  0
  160.9100  202.5790  147.8820 C   0  0  0  0  0  2  0  0  0  0  0  0
  160.7360  201.0780  148.0520 C   0  0  2  0  0  3  0  0  0  0  0  0
  160.9840  200.7040  149.3850 O   0  0  0  0  0  1  0  0  0  0  0  0
  161.7190  200.3560  147.1370 C   0  0  0  0  0  2  0  0  0  0  0  0
  161.0650  199.7850  145.9260 C   0  0  0  0  0  0  0  0  0  0  0  0
  161.1840  198.4350  145.6320 O   0  0  0  0  0  1  0  0  0  0  0  0
  160.3740  200.5250  145.1810 O   0  0  0  0  0  0  0  0  0  0  0  0
  1 16  1  0  0  0  0
  3 13  1  1  0  0  0
  3  7  1  0  0  0  0
  4 15  1  6  0  0  0
  4  5  1  0  0  0  0
  4 11  1  0  0  0  0
  5 26  1  6  0  0  0
  6  5  1  0  0  0  0
  7 10  2  0  0  0  0
  9  8  1  1  0  0  0
  9 19  1  0  0  0  0
  9 15  1  0  0  0  0
 10 18  1  0  0  0  0
 11 12  1  6  0  0  0
 12  2  1  0  0  0  0
 13 17  1  0  0  0  0
 14 17  1  6  0  0  0
 14 11  1  0  0  0  0
 14 10  1  0  0  0  0
 16  3  1  0  0  0  0
 18  2  2  0  0  0  0
 19  6  1  0  0  0  0
 20 25  1  6  0  0  0
 20  8  1  0  0  0  0
 20  1  1  0  0  0  0
 21 23  1  0  0  0  0
 22 25  1  0  0  0  0
 23 25  2  0  0  0  0
 24 21  2  0  0  0  0
 24 22  1  0  0  0  0
 27 26  2  0  0  0  0
 27 28  1  0  0  0  0
 28 30  1  6  0  0  0
 28 31  1  0  0  0  0
 29 30  1  0  0  0  0
 31 34  1  0  0  0  0
 34 33  1  0  0  0  0
 34 32  2  0  0  0  0
 35 32  1  6  0  0  0
 35 36  1  0  0  0  0
 36 37  1  0  0  0  0
 37 38  1  0  0  0  0
 39 38  1  0  0  0  0
 40 39  1  0  0  0  0
 40 41  1  0  0  0  0
 42 35  1  0  0  0  0
 44 42  1  0  0  0  0
 44 43  1  0  0  0  0
 45 46  1  0  0  0  0
 45 16  1  0  0  0  0
 46 47  1  1  0  0  0
 48 46  1  0  0  0  0
 49 48  1  0  0  0  0
 50 49  1  0  0  0  0
 51 49  2  0  0  0  0
M  END
>  <MODEL>
3

>  <REMARK>
 VINA RESULT:      -1.0      2.711      5.326
  Name = 
  18 active torsions:
  status: ('A' for Active; 'I' for Inactive)
    1  A    between atoms: C_1  and  C_3
    2  A    between atoms: C_1  and  C_13
    3  A    between atoms: C_2  and  C_8
    4  A    between atoms: C_2  and  C_32
    5  A    between atoms: C_4  and  C_48
    6  A    between atoms: C_4  and  C_50
    7  A    between atoms: C_4  and  C_51
    8  A    between atoms: C_8  and  C_16
    9  A    between atoms: C_8  and  N_17
   10  A    between atoms: C_11  and  C_37
   11  A    between atoms: C_12  and  C_39
   12  A    between atoms: C_12  and  C_45
   13  A    between atoms: C_13  and  C_41
   14  A    between atoms: N_17  and  C_41
   15  A    between atoms: C_19  and  C_45
   16  A    between atoms: N_35  and  C_39
   17  A    between atoms: C_40  and  C_49
   18  A    between atoms: C_42  and  C_48
                            x       y       z     vdW  Elec       q    Type
                         _______ _______ _______ _____ _____    ______ ____

>  <TORSDO>
F 18

$$$$
=
 OpenBabel11072412343D

 51 55  0  0  1  0  0  0  0  0999 V2000
  160.9420  211.8840  155.7000 C   0  0  0  0  0  2  0  0  0  0  0  0
  160.5030  214.1230  150.1520 C   0  0  0  0  0  3  0  0  0  0  0  0
  159.1130  212.4490  154.2710 C   0  0  2  0  0  3  0  0  0  0  0  0
  160.8000  210.5260  150.7750 N   0  0  2  0  0  0  0  0  0  0  0  0
  161.8860  210.2400  149.8380 C   0  0  1  0  0  3  0  0  0  0  0  0
  163.1390  209.7200  150.5780 C   0  0  0  0  0  2  0  0  0  0  0  0
  159.4230  213.6400  153.4770 N   0  0  0  0  0  0  0  0  0  0  0  0
  162.3970  210.4060  154.1550 C   0  0  0  0  0  2  0  0  0  0  0  0
  162.2700  209.7710  152.7390 C   0  0  1  0  0  3  0  0  0  0  0  0
  159.4740  213.4820  152.1800 C   0  0  0  0  0  0  0  0  0  0  0  0
  160.0560  211.7760  150.5970 C   0  0  2  0  0  3  0  0  0  0  0  0
  160.6180  212.7760  149.7770 C   0  0  0  0  0  2  0  0  0  0  0  0
  157.9480  211.6410  153.7100 C   0  0  0  0  0  2  0  0  0  0  0  0
  159.1880  212.2120  151.6160 C   0  0  1  0  0  3  0  0  0  0  0  0
  160.8360  209.9370  152.1390 C   0  0  0  0  0  2  0  0  0  0  0  0
  159.5490  212.4460  155.6670 N   0  0  0  0  0  0  0  0  0  0  0  0
  158.4100  211.3330  152.3010 C   0  0  0  0  0  2  0  0  0  0  0  0
  160.0230  214.4440  151.3870 N   0  0  0  0  0  0  0  0  0  0  0  0
  163.2380  210.4070  151.8590 N   0  0  0  0  0  2  0  0  0  0  0  0
  161.0790  210.5490  154.9230 C   0  0  1  0  0  3  0  0  0  0  0  0
  161.0510  207.6030  157.1450 C   0  0  0  0  0  3  0  0  0  0  0  0
  159.2990  208.5750  155.8100 S   0  0  0  0  0  0  0  0  0  0  0  0
  161.6340  208.6970  156.5530 N   0  0  0  0  0  0  0  0  0  0  0  0
  159.7400  207.3510  156.8410 N   0  0  0  0  0  0  0  0  0  0  0  0
  160.7610  209.3580  155.7590 C   0  0  0  0  0  0  0  0  0  0  0  0
  161.4390  209.2510  148.7920 C   0  0  0  0  0  3  0  0  0  0  0  0
  162.2700  208.2920  148.3830 C   0  0  0  0  0  3  0  0  0  0  0  0
  161.8570  207.3430  147.2970 C   0  0  2  0  0  3  0  0  0  0  0  0
  160.0820  206.1370  146.1530 C   0  0  0  0  0  1  0  0  0  0  0  0
  160.3950  206.9340  147.3830 C   0  0  0  0  0  2  0  0  0  0  0  0
  162.7860  206.1440  147.2890 C   0  0  0  0  0  2  0  0  0  0  0  0
  161.4730  205.4190  149.2260 C   0  0  0  0  0  3  0  0  0  0  0  0
  162.5200  203.7470  147.8900 O   0  0  0  0  0  1  0  0  0  0  0  0
  162.2540  205.0800  148.1910 C   0  0  0  0  0  0  0  0  0  0  0  0
  160.7980  204.4470  150.1620 C   0  0  1  0  0  3  0  0  0  0  0  0
  160.1730  203.3170  149.4530 N   0  0  0  0  0  2  0  0  0  0  0  0
  160.3770  202.0600  150.1590 C   0  0  0  0  0  2  0  0  0  0  0  0
  161.0470  201.0530  149.2450 C   0  0  0  0  0  2  0  0  0  0  0  0
  160.9850  201.5220  147.7960 C   0  0  0  0  0  2  0  0  0  0  0  0
  161.0800  200.3210  146.8610 C   0  0  0  0  0  2  0  0  0  0  0  0
  160.6630  200.6920  145.5190 N   0  0  0  0  0  1  0  0  0  0  0  0
  161.6630  204.0290  151.3520 C   0  0  0  0  0  2  0  0  0  0  0  0
  162.0820  206.2750  152.9010 S   0  0  0  0  0  1  0  0  0  0  0  0
  161.2060  204.7020  152.6450 C   0  0  0  0  0  2  0  0  0  0  0  0
  158.7090  211.5860  156.4940 C   0  0  0  0  0  2  0  0  0  0  0  0
  157.6260  212.4070  157.1760 C   0  0  2  0  0  3  0  0  0  0  0  0
  156.4320  211.6690  157.2600 O   0  0  0  0  0  1  0  0  0  0  0  0
  157.3770  213.6730  156.3640 C   0  0  0  0  0  2  0  0  0  0  0  0
  155.9720  213.7750  155.8750 C   0  0  0  0  0  0  0  0  0  0  0  0
  154.9940  214.3660  156.6620 O   0  0  0  0  0  1  0  0  0  0  0  0
  155.6770  213.3510  154.7300 O   0  0  0  0  0  0  0  0  0  0  0  0
  2 18  2  0  0  0  0
  3 13  1  1  0  0  0
  3 16  1  0  0  0  0
  4 15  1  1  0  0  0
  5 26  1  6  0  0  0
  5  6  1  0  0  0  0
  5  4  1  0  0  0  0
  6 19  1  0  0  0  0
  7  3  1  0  0  0  0
  8 20  1  0  0  0  0
  9 15  1  6  0  0  0
  9  8  1  0  0  0  0
 10  7  2  0  0  0  0
 11 12  1  1  0  0  0
 11  4  1  0  0  0  0
 11 14  1  0  0  0  0
 12  2  1  0  0  0  0
 14 10  1  0  0  0  0
 14 17  1  1  0  0  0
 16  1  1  0  0  0  0
 16 45  1  0  0  0  0
 17 13  1  0  0  0  0
 18 10  1  0  0  0  0
 19  9  1  0  0  0  0
 20  1  1  0  0  0  0
 20 25  1  1  0  0  0
 22 24  1  0  0  0  0
 23 21  1  0  0  0  0
 24 21  2  0  0  0  0
 25 22  1  0  0  0  0
 25 23  2  0  0  0  0
 27 26  2  0  0  0  0
 28 31  1  1  0  0  0
 28 30  1  0  0  0  0
 28 27  1  0  0  0  0
 29 30  1  0  0  0  0
 31 34  1  0  0  0  0
 33 34  1  0  0  0  0
 34 32  2  0  0  0  0
 35 32  1  6  0  0  0
 35 42  1  0  0  0  0
 36 37  1  0  0  0  0
 36 35  1  0  0  0  0
 38 37  1  0  0  0  0
 39 38  1  0  0  0  0
 40 39  1  0  0  0  0
 41 40  1  0  0  0  0
 42 44  1  0  0  0  0
 44 43  1  0  0  0  0
 45 46  1  0  0  0  0
 46 47  1  6  0  0  0
 48 46  1  0  0  0  0
 49 48  1  0  0  0  0
 49 50  1  0  0  0  0
 51 49  2  0  0  0  0
M  END
>  <MODEL>
4

>  <REMARK>
 VINA RESULT:      -0.5      3.514     10.271
  Name = 
  18 active torsions:
  status: ('A' for Active; 'I' for Inactive)
    1  A    between atoms: C_1  and  C_3
    2  A    between atoms: C_1  and  C_13
    3  A    between atoms: C_2  and  C_8
    4  A    between atoms: C_2  and  C_32
    5  A    between atoms: C_4  and  C_48
    6  A    between atoms: C_4  and  C_50
    7  A    between atoms: C_4  and  C_51
    8  A    between atoms: C_8  and  C_16
    9  A    between atoms: C_8  and  N_17
   10  A    between atoms: C_11  and  C_37
   11  A    between atoms: C_12  and  C_39
   12  A    between atoms: C_12  and  C_45
   13  A    between atoms: C_13  and  C_41
   14  A    between atoms: N_17  and  C_41
   15  A    between atoms: C_19  and  C_45
   16  A    between atoms: N_35  and  C_39
   17  A    between atoms: C_40  and  C_49
   18  A    between atoms: C_42  and  C_48
                            x       y       z     vdW  Elec       q    Type
                         _______ _______ _______ _____ _____    ______ ____

>  <TORSDO>
F 18

$$$$
=
 OpenBabel11072412343D

 51 55  0  0  1  0  0  0  0  0999 V2000
  160.7100  212.0380  155.8830 C   0  0  0  0  0  2  0  0  0  0  0  0
  160.3480  214.1430  150.2770 C   0  0  0  0  0  3  0  0  0  0  0  0
  158.9100  212.4280  154.3620 C   0  0  2  0  0  3  0  0  0  0  0  0
  160.9070  210.5940  150.9850 N   0  0  2  0  0  0  0  0  0  0  0  0
  162.0550  210.3820  150.1030 C   0  0  1  0  0  3  0  0  0  0  0  0
  163.3110  209.9790  150.9090 C   0  0  0  0  0  2  0  0  0  0  0  0
  159.1580  213.6270  153.5590 N   0  0  0  0  0  0  0  0  0  0  0  0
  162.3500  210.6590  154.4340 C   0  0  0  0  0  2  0  0  0  0  0  0
  162.3410  209.9940  153.0270 C   0  0  1  0  0  3  0  0  0  0  0  0
  159.2820  213.4530  152.2690 C   0  0  0  0  0  0  0  0  0  0  0  0
  160.0730  211.7750  150.7490 C   0  0  2  0  0  3  0  0  0  0  0  0
  160.5900  212.8040  149.9350 C   0  0  0  0  0  2  0  0  0  0  0  0
  157.8410  211.5180  153.7660 C   0  0  0  0  0  2  0  0  0  0  0  0
  159.1270  212.1540  151.7190 C   0  0  1  0  0  3  0  0  0  0  0  0
  160.9280  210.0320  152.3610 C   0  0  0  0  0  2  0  0  0  0  0  0
  159.2800  212.4840  155.7760 N   0  0  0  0  0  0  0  0  0  0  0  0
  158.3920  211.2260  152.3850 C   0  0  0  0  0  2  0  0  0  0  0  0
  159.7870  214.4430  151.4830 N   0  0  0  0  0  0  0  0  0  0  0  0
  163.2940  210.6920  152.1790 N   0  0  0  0  0  2  0  0  0  0  0  0
  160.9910  210.7060  155.1400 C   0  0  1  0  0  3  0  0  0  0  0  0
  161.1230  207.6740  157.2380 C   0  0  0  0  0  3  0  0  0  0  0  0
  159.2440  208.8400  156.2860 S   0  0  0  0  0  0  0  0  0  0  0  0
  161.6780  208.7450  156.5790 N   0  0  0  0  0  0  0  0  0  0  0  0
  159.7620  207.5390  157.1780 N   0  0  0  0  0  0  0  0  0  0  0  0
  160.7330  209.5070  155.9840 C   0  0  0  0  0  0  0  0  0  0  0  0
  161.7380  209.3430  149.0580 C   0  0  0  0  0  3  0  0  0  0  0  0
  162.2410  208.1130  149.1680 C   0  0  0  0  0  3  0  0  0  0  0  0
  161.9840  207.0910  148.1000 C   0  0  2  0  0  3  0  0  0  0  0  0
  160.4440  206.3510  149.8300 C   0  0  0  0  0  1  0  0  0  0  0  0
  160.7520  206.2410  148.3680 C   0  0  0  0  0  2  0  0  0  0  0  0
  163.2270  206.2450  147.8960 C   0  0  0  0  0  2  0  0  0  0  0  0
  161.7480  204.4630  147.0960 C   0  0  0  0  0  3  0  0  0  0  0  0
  163.8380  204.7680  145.9930 O   0  0  0  0  0  1  0  0  0  0  0  0
  162.9220  205.1010  146.9880 C   0  0  0  0  0  0  0  0  0  0  0  0
  161.2740  203.3520  146.1920 C   0  0  1  0  0  3  0  0  0  0  0  0
  160.4270  202.3720  146.8930 N   0  0  0  0  0  2  0  0  0  0  0  0
  161.1590  201.6860  147.9490 C   0  0  0  0  0  2  0  0  0  0  0  0
  161.4010  202.6280  149.1110 C   0  0  0  0  0  2  0  0  0  0  0  0
  161.1040  201.9330  150.4340 C   0  0  0  0  0  2  0  0  0  0  0  0
  160.6590  202.9610  151.4690 C   0  0  0  0  0  2  0  0  0  0  0  0
  161.7940  203.7530  151.9130 N   0  0  0  0  0  1  0  0  0  0  0  0
  160.6910  203.8380  144.8650 C   0  0  0  0  0  2  0  0  0  0  0  0
  160.7130  205.6620  142.7940 S   0  0  0  0  0  1  0  0  0  0  0  0
  161.2450  205.2060  144.4720 C   0  0  0  0  0  2  0  0  0  0  0  0
  158.4750  211.5710  156.5820 C   0  0  0  0  0  2  0  0  0  0  0  0
  157.3260  212.3210  157.2380 C   0  0  2  0  0  3  0  0  0  0  0  0
  156.1140  211.6410  157.0290 O   0  0  0  0  0  1  0  0  0  0  0  0
  157.2310  213.7160  156.6280 C   0  0  0  0  0  2  0  0  0  0  0  0
  155.8630  214.0300  156.1250 C   0  0  0  0  0  0  0  0  0  0  0  0
  155.5430  213.8370  154.7890 O   0  0  0  0  0  0  0  0  0  0  0  0
  154.9840  214.4450  156.9210 O   0  0  0  0  0  1  0  0  0  0  0  0
  2 18  2  0  0  0  0
  3 13  1  1  0  0  0
  3 16  1  0  0  0  0
  4 15  1  1  0  0  0
  5 26  1  6  0  0  0
  5  6  1  0  0  0  0
  5  4  1  0  0  0  0
  6 19  1  0  0  0  0
  7  3  1  0  0  0  0
  8 20  1  0  0  0  0
  9 15  1  6  0  0  0
  9  8  1  0  0  0  0
 10  7  2  0  0  0  0
 11 12  1  1  0  0  0
 11  4  1  0  0  0  0
 11 14  1  0  0  0  0
 12  2  1  0  0  0  0
 14 10  1  0  0  0  0
 14 17  1  1  0  0  0
 16  1  1  0  0  0  0
 16 45  1  0  0  0  0
 17 13  1  0  0  0  0
 18 10  1  0  0  0  0
 19  9  1  0  0  0  0
 20  1  1  0  0  0  0
 20 25  1  1  0  0  0
 22 24  1  0  0  0  0
 23 21  1  0  0  0  0
 24 21  2  0  0  0  0
 25 22  1  0  0  0  0
 25 23  2  0  0  0  0
 26 27  2  0  0  0  0
 28 31  1  1  0  0  0
 28 30  1  0  0  0  0
 28 27  1  0  0  0  0
 30 29  1  0  0  0  0
 33 34  1  0  0  0  0
 34 32  2  0  0  0  0
 34 31  1  0  0  0  0
 35 42  1  6  0  0  0
 35 36  1  0  0  0  0
 35 32  1  0  0  0  0
 36 37  1  0  0  0  0
 37 38  1  0  0  0  0
 38 39  1  0  0  0  0
 39 40  1  0  0  0  0
 40 41  1  0  0  0  0
 43 44  1  0  0  0  0
 44 42  1  0  0  0  0
 45 46  1  0  0  0  0
 46 47  1  6  0  0  0
 48 46  1  0  0  0  0
 49 48  1  0  0  0  0
 49 51  1  0  0  0  0
 50 49  2  0  0  0  0
M  END
>  <MODEL>
5

>  <REMARK>
 VINA RESULT:       0.4      3.473     10.252
  Name = 
  18 active torsions:
  status: ('A' for Active; 'I' for Inactive)
    1  A    between atoms: C_1  and  C_3
    2  A    between atoms: C_1  and  C_13
    3  A    between atoms: C_2  and  C_8
    4  A    between atoms: C_2  and  C_32
    5  A    between atoms: C_4  and  C_48
    6  A    between atoms: C_4  and  C_50
    7  A    between atoms: C_4  and  C_51
    8  A    between atoms: C_8  and  C_16
    9  A    between atoms: C_8  and  N_17
   10  A    between atoms: C_11  and  C_37
   11  A    between atoms: C_12  and  C_39
   12  A    between atoms: C_12  and  C_45
   13  A    between atoms: C_13  and  C_41
   14  A    between atoms: N_17  and  C_41
   15  A    between atoms: C_19  and  C_45
   16  A    between atoms: N_35  and  C_39
   17  A    between atoms: C_40  and  C_49
   18  A    between atoms: C_42  and  C_48
                            x       y       z     vdW  Elec       q    Type
                         _______ _______ _______ _____ _____    ______ ____

>  <TORSDO>
F 18

$$$$
