=
 OpenBabel11072413083D

 35 38  0  0  1  0  0  0  0  0999 V2000
  160.7160  203.9220  150.4390 N   0  0  0  0  0  1  0  0  0  0  0  0
  160.7590  206.9520  154.6940 C   0  0  0  0  0  1  0  0  0  0  0  0
  162.8380  207.5640  149.6210 O   0  0  0  0  0  0  0  0  0  0  0  0
  161.5310  208.4370  152.8230 C   0  0  0  0  0  0  0  0  0  0  0  0
  161.1050  205.9930  152.4170 C   0  0  0  0  0  0  0  0  0  0  0  0
  160.7680  204.8660  152.8750 O   0  0  0  0  0  0  0  0  0  0  0  0
  161.1930  205.2090  150.0470 C   0  0  0  0  0  0  0  0  0  0  0  0
  161.4570  206.1650  150.9820 C   0  0  0  0  0  0  0  0  0  0  0  0
  162.0100  208.6010  151.5730 C   0  0  0  0  0  0  0  0  0  0  0  0
  162.1200  207.4520  150.6510 C   0  0  0  0  0  0  0  0  0  0  0  0
  161.1460  207.1290  153.2990 N   0  0  0  0  0  0  0  0  0  0  0  0
  161.4220  209.6170  153.7450 C   0  0  0  0  0  1  0  0  0  0  0  0
  160.4910  206.3880  147.9480 C   0  0  0  0  0  3  0  0  0  0  0  0
  161.4600  205.7930  145.8120 C   0  0  0  0  0  3  0  0  0  0  0  0
  162.1820  204.6590  147.8260 C   0  0  0  0  0  3  0  0  0  0  0  0
  160.5720  206.5660  146.5650 C   0  0  0  0  0  3  0  0  0  0  0  0
  163.1160  204.0830  145.7090 F   0  0  0  0  0  0  0  0  0  0  0  0
  161.3100  205.4460  148.5920 C   0  0  0  0  0  0  0  0  0  0  0  0
  162.2630  204.8390  146.4410 C   0  0  0  0  0  0  0  0  0  0  0  0
  162.4280  209.9560  151.0780 C   0  0  0  0  0  2  0  0  0  0  0  0
  161.9620  211.7510  149.4460 C   0  0  1  0  0  3  0  0  0  0  0  0
  161.2080  210.2730  147.6580 O   0  0  0  0  0  1  0  0  0  0  0  0
  161.4600  210.4390  150.0140 C   0  0  1  0  0  3  0  0  0  0  0  0
  162.1570  210.4450  148.6690 C   0  0  2  0  0  3  0  0  0  0  0  0
  160.7840  212.6070  148.9650 C   0  0  2  0  0  3  0  0  0  0  0  0
  161.0650  213.1390  147.6150 N   0  0  0  0  0  0  0  0  0  0  0  0
  162.6220  214.4530  146.2210 C   0  0  0  0  0  2  0  0  0  0  0  0
  159.8450  213.5890  146.8980 C   0  0  1  0  0  0  0  0  0  0  0  0
  160.1910  214.3250  145.5910 C   0  0  0  0  0  2  0  0  0  0  0  0
  162.0930  214.1890  147.6350 C   0  0  0  0  0  2  0  0  0  0  0  0
  158.9940  212.3830  146.5340 C   0  0  0  0  0  1  0  0  0  0  0  0
  161.6200  214.0440  145.1390 C   0  0  0  0  0  2  0  0  0  0  0  0
  159.0850  214.4530  147.6910 O   0  0  0  0  0  1  0  0  0  0  0  0
  159.7160  213.1220  151.1770 C   0  0  0  0  0  1  0  0  0  0  0  0
  160.4620  213.7010  149.9910 C   0  0  0  0  0  2  0  0  0  0  0  0
  3 10  2  0  0  0  0
  4 11  1  0  0  0  0
  4 12  1  0  0  0  0
  5  6  2  0  0  0  0
  5 11  1  0  0  0  0
  7  1  1  0  0  0  0
  7  8  2  0  0  0  0
  8  5  1  0  0  0  0
  9  4  2  0  0  0  0
 10  8  1  0  0  0  0
 10  9  1  0  0  0  0
 11  2  1  0  0  0  0
 13 18  1  0  0  0  0
 14 19  2  0  0  0  0
 14 16  1  0  0  0  0
 15 18  2  0  0  0  0
 16 13  2  0  0  0  0
 17 19  1  0  0  0  0
 18  7  1  0  0  0  0
 19 15  1  0  0  0  0
 20  9  1  0  0  0  0
 21 25  1  6  0  0  0
 21 23  1  0  0  0  0
 23 20  1  1  0  0  0
 24 22  1  6  0  0  0
 24 21  1  0  0  0  0
 24 23  1  0  0  0  0
 25 35  1  1  0  0  0
 26 30  1  0  0  0  0
 26 25  1  0  0  0  0
 27 30  1  0  0  0  0
 28 31  1  6  0  0  0
 28 26  1  0  0  0  0
 28 33  1  0  0  0  0
 29 28  1  0  0  0  0
 32 29  1  0  0  0  0
 32 27  1  0  0  0  0
 35 34  1  0  0  0  0
M  END
>  <MODEL>
1

>  <REMARK>
 VINA RESULT:      -7.4      0.000      0.000
  Name = 
  6 active torsions:
  status: ('A' for Active; 'I' for Inactive)
    1  A    between atoms: C_3  and  C_24
    2  A    between atoms: C_3  and  C_29
    3  A    between atoms: N_5  and  C_31
    4  A    between atoms: C_7  and  C_31
    5  A    between atoms: C_19  and  C_26
    6  A    between atoms: C_30  and  C_31
                            x       y       z     vdW  Elec       q    Type
                         _______ _______ _______ _____ _____    ______ ____

>  <TORSDO>
F 6

$$$$
=
 OpenBabel11072413083D

 35 38  0  0  1  0  0  0  0  0999 V2000
  161.4570  205.2220  147.4160 N   0  0  0  0  0  1  0  0  0  0  0  0
  162.3590  210.2210  148.6340 C   0  0  0  0  0  1  0  0  0  0  0  0
  160.3150  205.9640  151.4880 O   0  0  0  0  0  0  0  0  0  0  0  0
  161.9250  209.0780  150.8270 C   0  0  0  0  0  0  0  0  0  0  0  0
  161.6910  207.8170  148.6650 C   0  0  0  0  0  0  0  0  0  0  0  0
  161.7430  207.8190  147.4040 O   0  0  0  0  0  0  0  0  0  0  0  0
  161.3130  205.3530  148.8300 C   0  0  0  0  0  0  0  0  0  0  0  0
  161.3400  206.5830  149.4180 C   0  0  0  0  0  0  0  0  0  0  0  0
  161.4560  208.0310  151.5350 C   0  0  0  0  0  0  0  0  0  0  0  0
  161.0190  206.7950  150.8530 C   0  0  0  0  0  0  0  0  0  0  0  0
  161.9780  209.0290  149.3850 N   0  0  0  0  0  0  0  0  0  0  0  0
  162.3700  210.3240  151.5370 C   0  0  0  0  0  1  0  0  0  0  0  0
  161.5800  204.0380  150.9480 C   0  0  0  0  0  3  0  0  0  0  0  0
  161.1120  201.6640  150.9970 C   0  0  0  0  0  3  0  0  0  0  0  0
  160.8140  202.9140  148.9450 C   0  0  0  0  0  3  0  0  0  0  0  0
  161.5250  202.8300  151.6480 C   0  0  0  0  0  3  0  0  0  0  0  0
  160.3680  200.5730  149.0130 F   0  0  0  0  0  0  0  0  0  0  0  0
  161.2050  204.0920  149.5950 C   0  0  0  0  0  0  0  0  0  0  0  0
  160.7590  201.7050  149.6460 C   0  0  0  0  0  0  0  0  0  0  0  0
  161.3830  208.0820  153.0340 C   0  0  0  0  0  2  0  0  0  0  0  0
  160.0040  209.6320  154.3750 C   0  0  1  0  0  3  0  0  0  0  0  0
  161.8780  210.8440  155.3590 O   0  0  0  0  0  1  0  0  0  0  0  0
  161.2330  209.5190  153.4960 C   0  0  1  0  0  3  0  0  0  0  0  0
  161.4020  209.5800  155.0010 C   0  0  2  0  0  3  0  0  0  0  0  0
  159.4050  211.0400  154.2710 C   0  0  2  0  0  3  0  0  0  0  0  0
  158.1750  211.1250  155.0860 N   0  0  0  0  0  0  0  0  0  0  0  0
  155.7060  211.1360  155.0630 C   0  0  0  0  0  2  0  0  0  0  0  0
  158.2930  212.0680  156.2270 C   0  0  1  0  0  0  0  0  0  0  0  0
  156.9400  212.2910  156.9260 C   0  0  0  0  0  2  0  0  0  0  0  0
  156.9880  211.4170  154.2700 C   0  0  0  0  0  2  0  0  0  0  0  0
  159.2540  211.5010  157.2590 C   0  0  0  0  0  1  0  0  0  0  0  0
  155.9310  211.2020  156.5760 C   0  0  0  0  0  2  0  0  0  0  0  0
  158.7700  213.3120  155.8040 O   0  0  0  0  0  1  0  0  0  0  0  0
  159.7630  212.7940  152.5110 C   0  0  0  0  0  1  0  0  0  0  0  0
  159.1840  211.4220  152.8020 C   0  0  0  0  0  2  0  0  0  0  0  0
  1  7  1  0  0  0  0
  2 11  1  0  0  0  0
  4  9  2  0  0  0  0
  4 12  1  0  0  0  0
  5 11  1  0  0  0  0
  5  8  1  0  0  0  0
  6  5  2  0  0  0  0
  7  8  2  0  0  0  0
  7 18  1  0  0  0  0
  8 10  1  0  0  0  0
  9 20  1  0  0  0  0
 10  3  2  0  0  0  0
 10  9  1  0  0  0  0
 11  4  1  0  0  0  0
 13 16  1  0  0  0  0
 14 16  2  0  0  0  0
 15 18  1  0  0  0  0
 15 19  2  0  0  0  0
 17 19  1  0  0  0  0
 18 13  2  0  0  0  0
 19 14  1  0  0  0  0
 21 25  1  6  0  0  0
 21 24  1  0  0  0  0
 23 20  1  1  0  0  0
 23 21  1  0  0  0  0
 23 24  1  0  0  0  0
 24 22  1  6  0  0  0
 25 35  1  6  0  0  0
 25 26  1  0  0  0  0
 26 28  1  0  0  0  0
 27 32  1  0  0  0  0
 28 29  1  0  0  0  0
 28 31  1  1  0  0  0
 30 27  1  0  0  0  0
 30 26  1  0  0  0  0
 32 29  1  0  0  0  0
 33 28  1  0  0  0  0
 34 35  1  0  0  0  0
M  END
>  <MODEL>
2

>  <REMARK>
 VINA RESULT:      -7.0      3.612      6.342
  Name = 
  6 active torsions:
  status: ('A' for Active; 'I' for Inactive)
    1  A    between atoms: C_3  and  C_24
    2  A    between atoms: C_3  and  C_29
    3  A    between atoms: N_5  and  C_31
    4  A    between atoms: C_7  and  C_31
    5  A    between atoms: C_19  and  C_26
    6  A    between atoms: C_30  and  C_31
                            x       y       z     vdW  Elec       q    Type
                         _______ _______ _______ _____ _____    ______ ____

>  <TORSDO>
F 6

$$$$
=
 OpenBabel11072413083D

 35 38  0  0  1  0  0  0  0  0999 V2000
  159.5040  212.3390  153.9640 N   0  0  0  0  0  1  0  0  0  0  0  0
  159.7040  214.2100  149.0910 C   0  0  0  0  0  1  0  0  0  0  0  0
  162.4170  210.1640  151.6800 O   0  0  0  0  0  0  0  0  0  0  0  0
  160.9730  212.0450  149.0160 C   0  0  0  0  0  0  0  0  0  0  0  0
  160.0940  212.9310  151.1970 C   0  0  0  0  0  0  0  0  0  0  0  0
  159.4800  213.8390  151.8250 O   0  0  0  0  0  0  0  0  0  0  0  0
  160.2800  211.4290  153.1850 C   0  0  0  0  0  0  0  0  0  0  0  0
  160.6320  211.7380  151.9050 C   0  0  0  0  0  0  0  0  0  0  0  0
  161.6120  211.0340  149.6390 C   0  0  0  0  0  0  0  0  0  0  0  0
  161.5820  210.9170  151.1110 C   0  0  0  0  0  0  0  0  0  0  0  0
  160.2730  213.0540  149.7750 N   0  0  0  0  0  0  0  0  0  0  0  0
  161.0100  212.1450  147.5180 C   0  0  0  0  0  1  0  0  0  0  0  0
  161.2010  210.0900  155.0940 C   0  0  0  0  0  3  0  0  0  0  0  0
  161.3310  207.6770  154.9650 C   0  0  0  0  0  3  0  0  0  0  0  0
  160.4060  208.9410  153.1180 C   0  0  0  0  0  3  0  0  0  0  0  0
  161.5550  208.8650  155.6660 C   0  0  0  0  0  3  0  0  0  0  0  0
  160.5520  206.5640  153.0070 F   0  0  0  0  0  0  0  0  0  0  0  0
  160.6060  210.1350  153.8240 C   0  0  0  0  0  0  0  0  0  0  0  0
  160.7590  207.7150  153.6910 C   0  0  0  0  0  0  0  0  0  0  0  0
  162.3570  209.9910  148.8550 C   0  0  0  0  0  2  0  0  0  0  0  0
  162.6410  207.5700  148.4550 C   0  0  1  0  0  3  0  0  0  0  0  0
  162.6470  206.9280  150.8080 O   0  0  0  0  0  1  0  0  0  0  0  0
  161.9190  208.6050  149.2930 C   0  0  1  0  0  3  0  0  0  0  0  0
  163.1050  207.8710  149.8840 C   0  0  2  0  0  3  0  0  0  0  0  0
  161.7830  206.3070  148.3170 C   0  0  2  0  0  3  0  0  0  0  0  0
  161.6180  205.9630  146.8890 N   0  0  0  0  0  0  0  0  0  0  0  0
  160.1650  206.1370  144.9010 C   0  0  0  0  0  2  0  0  0  0  0  0
  162.1340  204.6120  146.5490 C   0  0  1  0  0  0  0  0  0  0  0  0
  161.7600  204.2040  145.1130 C   0  0  0  0  0  2  0  0  0  0  0  0
  160.2320  206.1390  146.4320 C   0  0  0  0  0  2  0  0  0  0  0  0
  163.6500  204.6060  146.6480 C   0  0  0  0  0  1  0  0  0  0  0  0
  161.3500  205.4060  144.2670 C   0  0  0  0  0  2  0  0  0  0  0  0
  161.6220  203.6450  147.4190 O   0  0  0  0  0  1  0  0  0  0  0  0
  160.1810  205.2990  149.9670 C   0  0  0  0  0  1  0  0  0  0  0  0
  160.4490  206.4810  149.0550 C   0  0  0  0  0  2  0  0  0  0  0  0
  2 11  1  0  0  0  0
  4  9  2  0  0  0  0
  4 11  1  0  0  0  0
  5  6  2  0  0  0  0
  5  8  1  0  0  0  0
  7 18  1  0  0  0  0
  7  1  1  0  0  0  0
  8  7  2  0  0  0  0
  9 10  1  0  0  0  0
 10  3  2  0  0  0  0
 10  8  1  0  0  0  0
 11  5  1  0  0  0  0
 12  4  1  0  0  0  0
 13 16  1  0  0  0  0
 14 16  2  0  0  0  0
 15 19  2  0  0  0  0
 15 18  1  0  0  0  0
 17 19  1  0  0  0  0
 18 13  2  0  0  0  0
 19 14  1  0  0  0  0
 20  9  1  0  0  0  0
 21 25  1  1  0  0  0
 21 23  1  0  0  0  0
 21 24  1  0  0  0  0
 23 20  1  6  0  0  0
 23 24  1  0  0  0  0
 24 22  1  1  0  0  0
 25 35  1  6  0  0  0
 26 25  1  0  0  0  0
 27 30  1  0  0  0  0
 28 31  1  1  0  0  0
 28 26  1  0  0  0  0
 28 33  1  0  0  0  0
 29 28  1  0  0  0  0
 30 26  1  0  0  0  0
 32 27  1  0  0  0  0
 32 29  1  0  0  0  0
 35 34  1  0  0  0  0
M  END
>  <MODEL>
3

>  <REMARK>
 VINA RESULT:      -6.4      2.627      7.366
  Name = 
  6 active torsions:
  status: ('A' for Active; 'I' for Inactive)
    1  A    between atoms: C_3  and  C_24
    2  A    between atoms: C_3  and  C_29
    3  A    between atoms: N_5  and  C_31
    4  A    between atoms: C_7  and  C_31
    5  A    between atoms: C_19  and  C_26
    6  A    between atoms: C_30  and  C_31
                            x       y       z     vdW  Elec       q    Type
                         _______ _______ _______ _____ _____    ______ ____

>  <TORSDO>
F 6

$$$$
=
 OpenBabel11072413083D

 35 38  0  0  1  0  0  0  0  0999 V2000
  160.5970  212.7850  150.7860 N   0  0  0  0  0  1  0  0  0  0  0  0
  161.2080  208.4660  153.6600 C   0  0  0  0  0  1  0  0  0  0  0  0
  161.5730  209.4640  148.2460 O   0  0  0  0  0  0  0  0  0  0  0  0
  162.1250  207.8840  151.3970 C   0  0  0  0  0  0  0  0  0  0  0  0
  161.0280  210.1110  151.7930 C   0  0  0  0  0  0  0  0  0  0  0  0
  160.4340  210.8960  152.5830 O   0  0  0  0  0  0  0  0  0  0  0  0
  161.1700  211.7860  149.9440 C   0  0  0  0  0  0  0  0  0  0  0  0
  161.3010  210.5020  150.3830 C   0  0  0  0  0  0  0  0  0  0  0  0
  162.2460  208.1340  150.0780 C   0  0  0  0  0  0  0  0  0  0  0  0
  161.7210  209.3870  149.4960 C   0  0  0  0  0  0  0  0  0  0  0  0
  161.4480  208.8190  152.2650 N   0  0  0  0  0  0  0  0  0  0  0  0
  162.6700  206.6080  151.9710 C   0  0  0  0  0  1  0  0  0  0  0  0
  163.0290  212.4660  148.4050 C   0  0  0  0  0  3  0  0  0  0  0  0
  162.5580  213.2310  146.1580 C   0  0  0  0  0  3  0  0  0  0  0  0
  160.7440  212.5500  147.6100 C   0  0  0  0  0  3  0  0  0  0  0  0
  163.4760  212.9500  147.1730 C   0  0  0  0  0  3  0  0  0  0  0  0
  160.3010  213.3160  145.3970 F   0  0  0  0  0  0  0  0  0  0  0  0
  161.6600  212.2430  148.6260 C   0  0  0  0  0  0  0  0  0  0  0  0
  161.1920  213.0340  146.3770 C   0  0  0  0  0  0  0  0  0  0  0  0
  162.9350  207.1590  149.1660 C   0  0  0  0  0  2  0  0  0  0  0  0
  161.6290  205.1120  148.7120 C   0  0  1  0  0  3  0  0  0  0  0  0
  159.5650  206.2620  148.1060 O   0  0  0  0  0  1  0  0  0  0  0  0
  161.9220  206.5190  148.2340 C   0  0  1  0  0  3  0  0  0  0  0  0
  160.6420  206.2490  148.9960 C   0  0  2  0  0  3  0  0  0  0  0  0
  161.2450  204.2180  147.5260 C   0  0  2  0  0  3  0  0  0  0  0  0
  161.3870  202.7950  147.9010 N   0  0  0  0  0  0  0  0  0  0  0  0
  161.3500  200.4590  147.1050 C   0  0  0  0  0  2  0  0  0  0  0  0
  160.8130  202.4810  149.2350 C   0  0  1  0  0  0  0  0  0  0  0  0
  160.7900  200.9660  149.5030 C   0  0  0  0  0  2  0  0  0  0  0  0
  160.8640  201.8930  146.8660 C   0  0  0  0  0  2  0  0  0  0  0  0
  161.6610  203.1260  150.3190 C   0  0  0  0  0  1  0  0  0  0  0  0
  161.7240  200.2060  148.5670 C   0  0  0  0  0  2  0  0  0  0  0  0
  159.5040  202.9590  149.3440 O   0  0  0  0  0  1  0  0  0  0  0  0
  161.1380  204.9840  145.1380 C   0  0  0  0  0  1  0  0  0  0  0  0
  162.0570  204.5990  146.2820 C   0  0  0  0  0  2  0  0  0  0  0  0
  3 10  2  0  0  0  0
  4 12  1  0  0  0  0
  4 11  1  0  0  0  0
  5 11  1  0  0  0  0
  5  6  2  0  0  0  0
  7  8  2  0  0  0  0
  7  1  1  0  0  0  0
  8  5  1  0  0  0  0
  9  4  2  0  0  0  0
 10  9  1  0  0  0  0
 10  8  1  0  0  0  0
 11  2  1  0  0  0  0
 13 18  1  0  0  0  0
 14 19  2  0  0  0  0
 14 16  1  0  0  0  0
 15 18  2  0  0  0  0
 16 13  2  0  0  0  0
 17 19  1  0  0  0  0
 18  7  1  0  0  0  0
 19 15  1  0  0  0  0
 20  9  1  0  0  0  0
 21 25  1  6  0  0  0
 21 24  1  0  0  0  0
 23 21  1  0  0  0  0
 23 24  1  0  0  0  0
 23 20  1  1  0  0  0
 24 22  1  6  0  0  0
 25 35  1  6  0  0  0
 25 26  1  0  0  0  0
 26 28  1  0  0  0  0
 27 32  1  0  0  0  0
 28 33  1  0  0  0  0
 28 29  1  0  0  0  0
 28 31  1  1  0  0  0
 30 27  1  0  0  0  0
 30 26  1  0  0  0  0
 32 29  1  0  0  0  0
 34 35  1  0  0  0  0
M  END
>  <MODEL>
4

>  <REMARK>
 VINA RESULT:      -5.4      2.864      8.062
  Name = 
  6 active torsions:
  status: ('A' for Active; 'I' for Inactive)
    1  A    between atoms: C_3  and  C_24
    2  A    between atoms: C_3  and  C_29
    3  A    between atoms: N_5  and  C_31
    4  A    between atoms: C_7  and  C_31
    5  A    between atoms: C_19  and  C_26
    6  A    between atoms: C_30  and  C_31
                            x       y       z     vdW  Elec       q    Type
                         _______ _______ _______ _____ _____    ______ ____

>  <TORSDO>
F 6

$$$$
=
 OpenBabel11072413083D

 35 38  0  0  1  0  0  0  0  0999 V2000
  159.4720  212.9750  153.7580 N   0  0  0  0  0  1  0  0  0  0  0  0
  160.9530  212.4220  148.7790 C   0  0  0  0  0  1  0  0  0  0  0  0
  162.2710  209.7380  153.4150 O   0  0  0  0  0  0  0  0  0  0  0  0
  161.7570  210.3460  149.9380 C   0  0  0  0  0  0  0  0  0  0  0  0
  160.6770  212.1990  151.2480 C   0  0  0  0  0  0  0  0  0  0  0  0
  160.1500  213.3450  151.2620 O   0  0  0  0  0  0  0  0  0  0  0  0
  160.1840  211.7420  153.6550 C   0  0  0  0  0  0  0  0  0  0  0  0
  160.8240  211.4070  152.4990 C   0  0  0  0  0  0  0  0  0  0  0  0
  162.0540  209.6680  151.0650 C   0  0  0  0  0  0  0  0  0  0  0  0
  161.7250  210.2290  152.3910 C   0  0  0  0  0  0  0  0  0  0  0  0
  161.1410  211.6500  150.0020 N   0  0  0  0  0  0  0  0  0  0  0  0
  162.0950  209.7570  148.5980 C   0  0  0  0  0  1  0  0  0  0  0  0
  160.5450  211.2950  156.0950 C   0  0  0  0  0  3  0  0  0  0  0  0
  160.1090  209.1050  157.0290 C   0  0  0  0  0  3  0  0  0  0  0  0
  159.7200  209.5160  154.6750 C   0  0  0  0  0  3  0  0  0  0  0  0
  160.5310  210.4270  157.1910 C   0  0  0  0  0  3  0  0  0  0  0  0
  159.3060  207.3640  155.6130 F   0  0  0  0  0  0  0  0  0  0  0  0
  160.1200  210.8500  154.8330 C   0  0  0  0  0  0  0  0  0  0  0  0
  159.7060  208.6490  155.7720 C   0  0  0  0  0  0  0  0  0  0  0  0
  162.7100  208.3180  151.0050 C   0  0  0  0  0  2  0  0  0  0  0  0
  162.0740  205.9700  150.5740 C   0  0  1  0  0  3  0  0  0  0  0  0
  161.4370  205.4580  152.8710 O   0  0  0  0  0  1  0  0  0  0  0  0
  161.6940  207.2350  151.3170 C   0  0  1  0  0  3  0  0  0  0  0  0
  162.3760  206.1110  152.0690 C   0  0  2  0  0  3  0  0  0  0  0  0
  160.8210  205.1470  150.2530 C   0  0  2  0  0  3  0  0  0  0  0  0
  161.2090  203.8540  149.6500 N   0  0  0  0  0  0  0  0  0  0  0  0
  161.5630  202.6030  147.5510 C   0  0  0  0  0  2  0  0  0  0  0  0
  160.7110  202.6800  150.4120 C   0  0  1  0  0  0  0  0  0  0  0  0
  160.9490  201.3630  149.6520 C   0  0  0  0  0  2  0  0  0  0  0  0
  160.8360  203.7690  148.2310 C   0  0  0  0  0  2  0  0  0  0  0  0
  161.4470  202.5850  151.7380 C   0  0  0  0  0  1  0  0  0  0  0  0
  161.9900  201.5230  148.5480 C   0  0  0  0  0  2  0  0  0  0  0  0
  159.3410  202.7900  150.6660 O   0  0  0  0  0  1  0  0  0  0  0  0
  160.6070  206.6630  148.2640 C   0  0  0  0  0  1  0  0  0  0  0  0
  159.8570  205.9560  149.3770 C   0  0  0  0  0  2  0  0  0  0  0  0
  2 11  1  0  0  0  0
  4 11  1  0  0  0  0
  4  9  2  0  0  0  0
  5  6  2  0  0  0  0
  5  8  1  0  0  0  0
  7  1  1  0  0  0  0
  7 18  1  0  0  0  0
  8  7  2  0  0  0  0
  9 10  1  0  0  0  0
 10  8  1  0  0  0  0
 10  3  2  0  0  0  0
 11  5  1  0  0  0  0
 12  4  1  0  0  0  0
 13 16  1  0  0  0  0
 14 16  2  0  0  0  0
 15 18  1  0  0  0  0
 15 19  2  0  0  0  0
 17 19  1  0  0  0  0
 18 13  2  0  0  0  0
 19 14  1  0  0  0  0
 20  9  1  0  0  0  0
 21 25  1  1  0  0  0
 21 23  1  0  0  0  0
 21 24  1  0  0  0  0
 23 20  1  6  0  0  0
 23 24  1  0  0  0  0
 24 22  1  1  0  0  0
 25 35  1  6  0  0  0
 26 25  1  0  0  0  0
 26 28  1  0  0  0  0
 27 30  1  0  0  0  0
 27 32  1  0  0  0  0
 28 33  1  0  0  0  0
 28 31  1  1  0  0  0
 29 28  1  0  0  0  0
 30 26  1  0  0  0  0
 32 29  1  0  0  0  0
 34 35  1  0  0  0  0
M  END
>  <MODEL>
5

>  <REMARK>
 VINA RESULT:      -5.3      3.092      8.621
  Name = 
  6 active torsions:
  status: ('A' for Active; 'I' for Inactive)
    1  A    between atoms: C_3  and  C_24
    2  A    between atoms: C_3  and  C_29
    3  A    between atoms: N_5  and  C_31
    4  A    between atoms: C_7  and  C_31
    5  A    between atoms: C_19  and  C_26
    6  A    between atoms: C_30  and  C_31
                            x       y       z     vdW  Elec       q    Type
                         _______ _______ _______ _____ _____    ______ ____

>  <TORSDO>
F 6

$$$$
=
 OpenBabel11072413083D

 35 38  0  0  1  0  0  0  0  0999 V2000
  161.2790  205.1340  147.3390 N   0  0  0  0  0  1  0  0  0  0  0  0
  162.2970  210.1670  148.3000 C   0  0  0  0  0  1  0  0  0  0  0  0
  160.4520  206.0330  151.4550 O   0  0  0  0  0  0  0  0  0  0  0  0
  162.0230  209.1080  150.5600 C   0  0  0  0  0  0  0  0  0  0  0  0
  161.6200  207.7710  148.4700 C   0  0  0  0  0  0  0  0  0  0  0  0
  161.5770  207.7270  147.2100 O   0  0  0  0  0  0  0  0  0  0  0  0
  161.2420  205.3180  148.7540 C   0  0  0  0  0  0  0  0  0  0  0  0
  161.3210  206.5680  149.2920 C   0  0  0  0  0  0  0  0  0  0  0  0
  161.6040  208.0910  151.3400 C   0  0  0  0  0  0  0  0  0  0  0  0
  161.1100  206.8350  150.7390 C   0  0  0  0  0  0  0  0  0  0  0  0
  161.9670  209.0070  149.1210 N   0  0  0  0  0  0  0  0  0  0  0  0
  162.5280  210.3750  151.1890 C   0  0  0  0  0  1  0  0  0  0  0  0
  161.5850  204.0990  150.9180 C   0  0  0  0  0  3  0  0  0  0  0  0
  161.1910  201.7160  151.0710 C   0  0  0  0  0  3  0  0  0  0  0  0
  160.8200  202.8720  148.9760 C   0  0  0  0  0  3  0  0  0  0  0  0
  161.5790  202.9190  151.6670 C   0  0  0  0  0  3  0  0  0  0  0  0
  160.4480  200.5230  149.1460 F   0  0  0  0  0  0  0  0  0  0  0  0
  161.1860  204.0870  149.5710 C   0  0  0  0  0  0  0  0  0  0  0  0
  160.8140  201.6920  149.7260 C   0  0  0  0  0  0  0  0  0  0  0  0
  161.6450  208.1970  152.8380 C   0  0  0  0  0  2  0  0  0  0  0  0
  160.7540  209.8820  154.4080 C   0  0  1  0  0  3  0  0  0  0  0  0
  159.1180  210.8220  152.8630 O   0  0  0  0  0  1  0  0  0  0  0  0
  160.3830  208.8710  153.3430 C   0  0  1  0  0  3  0  0  0  0  0  0
  160.4240  210.3420  152.9840 C   0  0  2  0  0  3  0  0  0  0  0  0
  159.6040  210.0430  155.4110 C   0  0  2  0  0  3  0  0  0  0  0  0
  159.4170  211.4730  155.7370 N   0  0  0  0  0  0  0  0  0  0  0  0
  160.4020  213.4720  156.7990 C   0  0  0  0  0  2  0  0  0  0  0  0
  158.0190  211.8090  156.1100 C   0  0  1  0  0  0  0  0  0  0  0  0
  157.9010  213.2480  156.6430 C   0  0  0  0  0  2  0  0  0  0  0  0
  160.3700  211.9400  156.7530 C   0  0  0  0  0  2  0  0  0  0  0  0
  157.1240  211.6980  154.8860 C   0  0  0  0  0  1  0  0  0  0  0  0
  159.1110  214.0970  156.2640 C   0  0  0  0  0  2  0  0  0  0  0  0
  157.5400  210.9430  157.0970 O   0  0  0  0  0  1  0  0  0  0  0  0
  160.3810  207.8070  156.2450 C   0  0  0  0  0  1  0  0  0  0  0  0
  159.8450  209.1680  156.6470 C   0  0  0  0  0  2  0  0  0  0  0  0
  1  7  1  0  0  0  0
  2 11  1  0  0  0  0
  4 12  1  0  0  0  0
  4  9  2  0  0  0  0
  5 11  1  0  0  0  0
  5  8  1  0  0  0  0
  6  5  2  0  0  0  0
  7  8  2  0  0  0  0
  7 18  1  0  0  0  0
  8 10  1  0  0  0  0
  9 20  1  0  0  0  0
 10  9  1  0  0  0  0
 10  3  2  0  0  0  0
 11  4  1  0  0  0  0
 13 16  1  0  0  0  0
 14 16  2  0  0  0  0
 15 18  1  0  0  0  0
 15 19  2  0  0  0  0
 17 19  1  0  0  0  0
 18 13  2  0  0  0  0
 19 14  1  0  0  0  0
 21 25  1  1  0  0  0
 23 20  1  6  0  0  0
 23 21  1  0  0  0  0
 24 22  1  1  0  0  0
 24 23  1  0  0  0  0
 24 21  1  0  0  0  0
 25 26  1  0  0  0  0
 25 35  1  1  0  0  0
 26 28  1  0  0  0  0
 26 30  1  0  0  0  0
 28 31  1  6  0  0  0
 28 29  1  0  0  0  0
 28 33  1  0  0  0  0
 30 27  1  0  0  0  0
 32 29  1  0  0  0  0
 32 27  1  0  0  0  0
 34 35  1  0  0  0  0
M  END
>  <MODEL>
6

>  <REMARK>
 VINA RESULT:      -5.2      3.463      6.377
  Name = 
  6 active torsions:
  status: ('A' for Active; 'I' for Inactive)
    1  A    between atoms: C_3  and  C_24
    2  A    between atoms: C_3  and  C_29
    3  A    between atoms: N_5  and  C_31
    4  A    between atoms: C_7  and  C_31
    5  A    between atoms: C_19  and  C_26
    6  A    between atoms: C_30  and  C_31
                            x       y       z     vdW  Elec       q    Type
                         _______ _______ _______ _____ _____    ______ ____

>  <TORSDO>
F 6

$$$$
=
 OpenBabel11072413083D

 35 38  0  0  1  0  0  0  0  0999 V2000
  161.8530  206.4510  153.4430 N   0  0  0  0  0  1  0  0  0  0  0  0
  159.6680  210.0350  156.5510 C   0  0  0  0  0  1  0  0  0  0  0  0
  160.8580  209.9520  151.1650 O   0  0  0  0  0  0  0  0  0  0  0  0
  159.2330  210.8410  154.2140 C   0  0  0  0  0  0  0  0  0  0  0  0
  160.6400  208.7970  154.6160 C   0  0  0  0  0  0  0  0  0  0  0  0
  161.1730  207.9980  155.4350 O   0  0  0  0  0  0  0  0  0  0  0  0
  161.3090  207.4720  152.6060 C   0  0  0  0  0  0  0  0  0  0  0  0
  160.8080  208.6180  153.1490 C   0  0  0  0  0  0  0  0  0  0  0  0
  159.4940  210.8080  152.8910 C   0  0  0  0  0  0  0  0  0  0  0  0
  160.3950  209.7840  152.3250 C   0  0  0  0  0  0  0  0  0  0  0  0
  159.8560  209.8970  155.1110 N   0  0  0  0  0  0  0  0  0  0  0  0
  158.3100  211.8860  154.7700 C   0  0  0  0  0  1  0  0  0  0  0  0
  160.5190  206.0890  150.6700 C   0  0  0  0  0  3  0  0  0  0  0  0
  161.2900  206.5520  148.4230 C   0  0  0  0  0  3  0  0  0  0  0  0
  162.0440  207.9260  150.2690 C   0  0  0  0  0  3  0  0  0  0  0  0
  160.5260  205.7840  149.3050 C   0  0  0  0  0  3  0  0  0  0  0  0
  162.7980  208.3600  148.0490 F   0  0  0  0  0  0  0  0  0  0  0  0
  161.2630  207.1750  151.1580 C   0  0  0  0  0  0  0  0  0  0  0  0
  162.0500  207.6210  148.9040 C   0  0  0  0  0  0  0  0  0  0  0  0
  158.8620  211.7980  151.9540 C   0  0  0  0  0  2  0  0  0  0  0  0
  159.2470  213.2470  149.9910 C   0  0  1  0  0  3  0  0  0  0  0  0
  161.1430  214.4520  150.9400 O   0  0  0  0  0  1  0  0  0  0  0  0
  159.9230  212.4190  151.0650 C   0  0  1  0  0  3  0  0  0  0  0  0
  159.8780  213.9260  151.2110 C   0  0  2  0  0  3  0  0  0  0  0  0
  160.1120  213.2830  148.7250 C   0  0  2  0  0  3  0  0  0  0  0  0
  159.2850  213.6620  147.5610 N   0  0  0  0  0  0  0  0  0  0  0  0
  156.9970  213.8370  146.6490 C   0  0  0  0  0  2  0  0  0  0  0  0
  159.9110  213.3130  146.2600 C   0  0  1  0  0  0  0  0  0  0  0  0
  158.9410  213.5280  145.0840 C   0  0  0  0  0  2  0  0  0  0  0  0
  157.9160  213.1350  147.6560 C   0  0  0  0  0  2  0  0  0  0  0  0
  161.1230  214.1990  146.0230 C   0  0  0  0  0  1  0  0  0  0  0  0
  157.7700  214.4270  145.4680 C   0  0  0  0  0  2  0  0  0  0  0  0
  160.3210  211.9770  146.2420 O   0  0  0  0  0  1  0  0  0  0  0  0
  162.3380  212.1230  148.7210 C   0  0  0  0  0  1  0  0  0  0  0  0
  160.8420  211.9470  148.5370 C   0  0  0  0  0  2  0  0  0  0  0  0
  3 10  2  0  0  0  0
  4 12  1  0  0  0  0
  4 11  1  0  0  0  0
  5 11  1  0  0  0  0
  5  6  2  0  0  0  0
  7  8  2  0  0  0  0
  7  1  1  0  0  0  0
  8  5  1  0  0  0  0
  9  4  2  0  0  0  0
 10  9  1  0  0  0  0
 10  8  1  0  0  0  0
 11  2  1  0  0  0  0
 13 18  1  0  0  0  0
 14 19  2  0  0  0  0
 14 16  1  0  0  0  0
 15 18  2  0  0  0  0
 16 13  2  0  0  0  0
 17 19  1  0  0  0  0
 18  7  1  0  0  0  0
 19 15  1  0  0  0  0
 20  9  1  0  0  0  0
 21 25  1  6  0  0  0
 21 23  1  0  0  0  0
 21 24  1  0  0  0  0
 23 24  1  0  0  0  0
 23 20  1  1  0  0  0
 24 22  1  6  0  0  0
 25 35  1  6  0  0  0
 26 30  1  0  0  0  0
 26 25  1  0  0  0  0
 27 30  1  0  0  0  0
 28 31  1  6  0  0  0
 28 26  1  0  0  0  0
 29 32  1  0  0  0  0
 29 28  1  0  0  0  0
 32 27  1  0  0  0  0
 33 28  1  0  0  0  0
 35 34  1  0  0  0  0
M  END
>  <MODEL>
7

>  <REMARK>
 VINA RESULT:      -4.9      2.211      3.563
  Name = 
  6 active torsions:
  status: ('A' for Active; 'I' for Inactive)
    1  A    between atoms: C_3  and  C_24
    2  A    between atoms: C_3  and  C_29
    3  A    between atoms: N_5  and  C_31
    4  A    between atoms: C_7  and  C_31
    5  A    between atoms: C_19  and  C_26
    6  A    between atoms: C_30  and  C_31
                            x       y       z     vdW  Elec       q    Type
                         _______ _______ _______ _____ _____    ______ ____

>  <TORSDO>
F 6

$$$$
