=
 OpenBabel11072413323D

 36 39  0  0  1  0  0  0  0  0999 V2000
  160.1560  211.7150  153.1700 C   0  0  1  0  0  3  0  0  0  0  0  0
  158.8720  214.1790  149.0940 N   0  0  0  0  0  2  0  0  0  0  0  0
  160.0570  213.7300  148.4830 N   0  0  0  0  0  0  0  0  0  0  0  0
  157.9810  213.0680  153.0940 C   0  0  0  0  0  0  0  0  0  0  0  0
  158.5640  213.8200  150.4450 C   0  0  0  0  0  0  0  0  0  0  0  0
  160.6470  212.5750  150.4720 N   0  0  0  0  0  2  0  0  0  0  0  0
  157.4010  214.2760  151.0560 C   0  0  0  0  0  3  0  0  0  0  0  0
  159.4470  212.9920  151.1380 C   0  0  0  0  0  0  0  0  0  0  0  0
  157.1010  213.9140  152.3700 C   0  0  0  0  0  0  0  0  0  0  0  0
  160.9060  212.9750  149.1190 C   0  0  0  0  0  0  0  0  0  0  0  0
  159.1650  212.5990  152.4590 C   0  0  0  0  0  0  0  0  0  0  0  0
  162.1670  212.5560  148.4490 C   0  0  0  0  0  1  0  0  0  0  0  0
  155.8360  214.4530  152.9490 C   0  0  0  0  0  1  0  0  0  0  0  0
  157.6790  212.6230  154.5100 C   0  0  1  0  0  3  0  0  0  0  0  0
  157.6290  213.7510  155.5490 C   0  0  1  0  0  3  0  0  0  0  0  0
  155.9630  213.9850  156.1300 Cl  0  0  0  0  0  0  0  0  0  0  0  0
  158.4290  213.4310  156.6300 F   0  0  0  0  0  0  0  0  0  0  0  0
  156.5050  211.6420  154.5950 C   0  0  0  0  0  2  0  0  0  0  0  0
  156.8260  210.5400  155.3860 O   0  0  0  0  0  1  0  0  0  0  0  0
  160.4240  212.2020  154.4820 O   0  0  0  0  0  0  0  0  0  0  0  0
  161.0920  211.4440  155.4460 C   0  0  0  0  0  0  0  0  0  0  0  0
  162.2700  211.0660  155.2240 O   0  0  0  0  0  0  0  0  0  0  0  0
  160.4550  211.1060  156.7520 C   0  0  0  0  0  1  0  0  0  0  0  0
  159.6820  210.2620  153.1930 C   0  0  0  0  0  2  0  0  0  0  0  0
  162.3560  207.5680  151.2370 C   0  0  0  0  0  3  0  0  0  0  0  0
  161.1870  208.1850  153.2230 C   0  0  0  0  0  0  0  0  0  0  0  0
  160.6810  209.3370  152.5710 C   0  0  0  0  0  0  0  0  0  0  0  0
  161.8980  208.7080  150.5740 C   0  0  0  0  0  3  0  0  0  0  0  0
  161.9940  207.3330  152.5270 N   0  0  0  0  0  0  0  0  0  0  0  0
  161.0520  209.5870  151.2450 C   0  0  0  0  0  3  0  0  0  0  0  0
  161.7810  208.0230  155.6170 N   0  0  0  0  0  0  0  0  0  0  0  0
  160.8590  207.8540  154.6280 C   0  0  0  0  0  0  0  0  0  0  0  0
  159.3150  206.9560  156.2650 C   0  0  0  0  0  3  0  0  0  0  0  0
  159.6080  207.3040  154.9420 C   0  0  0  0  0  3  0  0  0  0  0  0
  160.2740  207.1480  157.2610 C   0  0  0  0  0  3  0  0  0  0  0  0
  161.5160  207.6850  156.9130 C   0  0  0  0  0  3  0  0  0  0  0  0
  1 24  1  1  0  0  0
  1 20  1  0  0  0  0
  2  5  1  0  0  0  0
  3  2  1  0  0  0  0
  3 10  2  0  0  0  0
  4 14  1  0  0  0  0
  5  7  2  0  0  0  0
  5  8  1  0  0  0  0
  6  8  1  0  0  0  0
  7  9  1  0  0  0  0
  8 11  2  0  0  0  0
  9 13  1  0  0  0  0
  9  4  2  0  0  0  0
 10  6  1  0  0  0  0
 11  4  1  0  0  0  0
 11  1  1  0  0  0  0
 12 10  1  0  0  0  0
 14 18  1  6  0  0  0
 14 15  1  0  0  0  0
 15 16  1  1  0  0  0
 15 17  1  0  0  0  0
 18 19  1  0  0  0  0
 20 21  1  0  0  0  0
 21 23  1  0  0  0  0
 22 21  2  0  0  0  0
 25 29  1  0  0  0  0
 26 32  1  0  0  0  0
 27 24  1  0  0  0  0
 27 26  1  0  0  0  0
 28 25  2  0  0  0  0
 28 30  1  0  0  0  0
 29 26  2  0  0  0  0
 30 27  2  0  0  0  0
 31 36  1  0  0  0  0
 32 34  1  0  0  0  0
 32 31  2  0  0  0  0
 33 35  1  0  0  0  0
 34 33  2  0  0  0  0
 36 35  2  0  0  0  0
M  END
>  <MODEL>
1

>  <REMARK>
 VINA RESULT:      -5.1      0.000      0.000
  Name = 
  9 active torsions:
  status: ('A' for Active; 'I' for Inactive)
    1  A    between atoms: C_2  and  C_31
    2  A    between atoms: C_3  and  O_6
    3  A    between atoms: C_4  and  C_31
    4  A    between atoms: O_6  and  C_22
    5  A    between atoms: C_7  and  C_10
    6  A    between atoms: C_11  and  C_33
    7  A    between atoms: C_13  and  C_31
    8  A    between atoms: C_22  and  C_28
    9  A    between atoms: C_22  and  C_33
                            x       y       z     vdW  Elec       q    Type
                         _______ _______ _______ _____ _____    ______ ____

>  <TORSDO>
F 9

$$$$
=
 OpenBabel11072413323D

 36 39  0  0  1  0  0  0  0  0999 V2000
  161.0540  210.5060  153.5490 C   0  0  1  0  0  3  0  0  0  0  0  0
  162.0440  207.8980  149.4810 N   0  0  0  0  0  2  0  0  0  0  0  0
  162.1690  209.1050  148.7700 N   0  0  0  0  0  0  0  0  0  0  0  0
  161.0870  207.9450  153.6170 C   0  0  0  0  0  0  0  0  0  0  0  0
  161.7120  207.8990  150.8730 C   0  0  0  0  0  0  0  0  0  0  0  0
  161.6680  210.3220  150.7470 N   0  0  0  0  0  2  0  0  0  0  0  0
  161.5720  206.7050  151.5740 C   0  0  0  0  0  3  0  0  0  0  0  0
  161.5430  209.1220  151.5220 C   0  0  0  0  0  0  0  0  0  0  0  0
  161.2580  206.7140  152.9330 C   0  0  0  0  0  0  0  0  0  0  0  0
  161.9940  210.2570  149.3510 C   0  0  0  0  0  0  0  0  0  0  0  0
  161.2400  209.1620  152.8960 C   0  0  0  0  0  0  0  0  0  0  0  0
  162.0950  211.5090  148.5540 C   0  0  0  0  0  1  0  0  0  0  0  0
  161.1210  205.3880  153.6050 C   0  0  0  0  0  1  0  0  0  0  0  0
  160.7790  208.0010  155.1000 C   0  0  1  0  0  3  0  0  0  0  0  0
  159.3410  207.6270  155.4800 C   0  0  1  0  0  3  0  0  0  0  0  0
  159.3310  206.6100  156.9400 Cl  0  0  0  0  0  0  0  0  0  0  0  0
  158.6090  208.7710  155.7380 F   0  0  0  0  0  0  0  0  0  0  0  0
  161.8500  207.3260  155.9620 C   0  0  0  0  0  2  0  0  0  0  0  0
  162.2120  208.1320  157.0390 O   0  0  0  0  0  1  0  0  0  0  0  0
  162.2750  210.9720  154.1160 O   0  0  0  0  0  0  0  0  0  0  0  0
  162.4850  211.0530  155.4930 C   0  0  0  0  0  0  0  0  0  0  0  0
  163.6530  210.9510  155.9460 O   0  0  0  0  0  0  0  0  0  0  0  0
  161.3580  211.2990  156.4410 C   0  0  0  0  0  1  0  0  0  0  0  0
  160.4640  211.5200  152.5680 C   0  0  0  0  0  2  0  0  0  0  0  0
  156.7360  212.9840  154.0480 C   0  0  0  0  0  3  0  0  0  0  0  0
  158.3620  212.9650  152.3020 C   0  0  0  0  0  0  0  0  0  0  0  0
  159.1900  212.1170  153.0790 C   0  0  0  0  0  0  0  0  0  0  0  0
  157.5390  212.1710  154.8490 C   0  0  0  0  0  3  0  0  0  0  0  0
  157.1560  213.3560  152.8090 N   0  0  0  0  0  0  0  0  0  0  0  0
  158.7640  211.7330  154.3550 C   0  0  0  0  0  3  0  0  0  0  0  0
  159.9690  213.9780  150.7200 N   0  0  0  0  0  0  0  0  0  0  0  0
  158.7410  213.4320  150.9500 C   0  0  0  0  0  0  0  0  0  0  0  0
  158.1590  213.8490  148.6350 C   0  0  0  0  0  3  0  0  0  0  0  0
  157.8110  213.3710  149.9030 C   0  0  0  0  0  3  0  0  0  0  0  0
  159.4260  214.3940  148.4240 C   0  0  0  0  0  3  0  0  0  0  0  0
  160.3260  214.4530  149.4910 C   0  0  0  0  0  3  0  0  0  0  0  0
  1 24  1  6  0  0  0
  1 20  1  0  0  0  0
  2  5  1  0  0  0  0
  3 10  2  0  0  0  0
  3  2  1  0  0  0  0
  4 14  1  0  0  0  0
  5  8  2  0  0  0  0
  5  7  1  0  0  0  0
  6  8  1  0  0  0  0
  7  9  2  0  0  0  0
  8 11  1  0  0  0  0
  9 13  1  0  0  0  0
  9  4  1  0  0  0  0
 10  6  1  0  0  0  0
 11  1  1  0  0  0  0
 11  4  2  0  0  0  0
 12 10  1  0  0  0  0
 14 15  1  0  0  0  0
 14 18  1  1  0  0  0
 15 17  1  1  0  0  0
 15 16  1  0  0  0  0
 18 19  1  0  0  0  0
 20 21  1  0  0  0  0
 21 22  2  0  0  0  0
 21 23  1  0  0  0  0
 24 27  1  0  0  0  0
 25 28  1  0  0  0  0
 26 29  1  0  0  0  0
 26 27  2  0  0  0  0
 27 30  1  0  0  0  0
 29 25  2  0  0  0  0
 30 28  2  0  0  0  0
 31 32  1  0  0  0  0
 32 26  1  0  0  0  0
 33 34  1  0  0  0  0
 34 32  2  0  0  0  0
 35 33  2  0  0  0  0
 35 36  1  0  0  0  0
 36 31  2  0  0  0  0
M  END
>  <MODEL>
2

>  <REMARK>
 VINA RESULT:      -5.0      2.422      6.420
  Name = 
  9 active torsions:
  status: ('A' for Active; 'I' for Inactive)
    1  A    between atoms: C_2  and  C_31
    2  A    between atoms: C_3  and  O_6
    3  A    between atoms: C_4  and  C_31
    4  A    between atoms: O_6  and  C_22
    5  A    between atoms: C_7  and  C_10
    6  A    between atoms: C_11  and  C_33
    7  A    between atoms: C_13  and  C_31
    8  A    between atoms: C_22  and  C_28
    9  A    between atoms: C_22  and  C_33
                            x       y       z     vdW  Elec       q    Type
                         _______ _______ _______ _____ _____    ______ ____

>  <TORSDO>
F 9

$$$$
=
 OpenBabel11072413323D

 36 39  0  0  1  0  0  0  0  0999 V2000
  160.7670  210.6960  152.7490 C   0  0  1  0  0  3  0  0  0  0  0  0
  160.0260  214.3250  149.4910 N   0  0  0  0  0  2  0  0  0  0  0  0
  160.9980  213.7400  148.6590 N   0  0  0  0  0  0  0  0  0  0  0  0
  159.0700  212.5550  153.2300 C   0  0  0  0  0  0  0  0  0  0  0  0
  159.7010  213.7440  150.7580 C   0  0  0  0  0  0  0  0  0  0  0  0
  161.3380  212.0220  150.2640 N   0  0  0  0  0  2  0  0  0  0  0  0
  158.7510  214.3310  151.5890 C   0  0  0  0  0  3  0  0  0  0  0  0
  160.3460  212.5690  151.1440 C   0  0  0  0  0  0  0  0  0  0  0  0
  158.4320  213.7540  152.8180 C   0  0  0  0  0  0  0  0  0  0  0  0
  161.6270  212.6550  149.0100 C   0  0  0  0  0  0  0  0  0  0  0  0
  160.0340  211.9570  152.3720 C   0  0  0  0  0  0  0  0  0  0  0  0
  162.6770  212.0910  148.1190 C   0  0  0  0  0  1  0  0  0  0  0  0
  157.4070  214.4530  153.6490 C   0  0  0  0  0  1  0  0  0  0  0  0
  158.7290  211.8770  154.5420 C   0  0  1  0  0  3  0  0  0  0  0  0
  158.9070  212.7500  155.7900 C   0  0  1  0  0  3  0  0  0  0  0  0
  158.9840  211.7350  157.2500 Cl  0  0  0  0  0  0  0  0  0  0  0  0
  160.0820  213.4730  155.6970 F   0  0  0  0  0  0  0  0  0  0  0  0
  157.4040  211.1120  154.4960 C   0  0  0  0  0  2  0  0  0  0  0  0
  156.4330  211.7380  155.2750 O   0  0  0  0  0  1  0  0  0  0  0  0
  160.9210  210.6000  154.1620 O   0  0  0  0  0  0  0  0  0  0  0  0
  162.1650  210.6750  154.7920 C   0  0  0  0  0  0  0  0  0  0  0  0
  163.2100  210.6600  154.0940 O   0  0  0  0  0  0  0  0  0  0  0  0
  162.2820  210.8120  156.2730 C   0  0  0  0  0  1  0  0  0  0  0  0
  160.0750  209.4620  152.1710 C   0  0  0  0  0  2  0  0  0  0  0  0
  161.6540  205.9960  154.1020 C   0  0  0  0  0  3  0  0  0  0  0  0
  161.2200  207.1690  152.0710 C   0  0  0  0  0  0  0  0  0  0  0  0
  160.5710  208.1960  152.7990 C   0  0  0  0  0  0  0  0  0  0  0  0
  160.9980  206.9770  154.8470 C   0  0  0  0  0  3  0  0  0  0  0  0
  161.7520  206.1120  152.7500 N   0  0  0  0  0  0  0  0  0  0  0  0
  160.4640  208.0820  154.1890 C   0  0  0  0  0  3  0  0  0  0  0  0
  162.1490  208.1370  149.9940 N   0  0  0  0  0  0  0  0  0  0  0  0
  161.3630  207.2020  150.5970 C   0  0  0  0  0  0  0  0  0  0  0  0
  160.7430  206.3610  148.4110 C   0  0  0  0  0  3  0  0  0  0  0  0
  160.6360  206.3020  149.8050 C   0  0  0  0  0  3  0  0  0  0  0  0
  161.5630  207.3220  147.8190 C   0  0  0  0  0  3  0  0  0  0  0  0
  162.2640  208.2130  148.6360 C   0  0  0  0  0  3  0  0  0  0  0  0
  1 24  1  1  0  0  0
  1 20  1  0  0  0  0
  2  5  1  0  0  0  0
  3 10  2  0  0  0  0
  3  2  1  0  0  0  0
  4 14  1  0  0  0  0
  5  8  2  0  0  0  0
  5  7  1  0  0  0  0
  6  8  1  0  0  0  0
  7  9  2  0  0  0  0
  8 11  1  0  0  0  0
  9  4  1  0  0  0  0
  9 13  1  0  0  0  0
 10  6  1  0  0  0  0
 11  1  1  0  0  0  0
 11  4  2  0  0  0  0
 12 10  1  0  0  0  0
 14 18  1  6  0  0  0
 14 15  1  0  0  0  0
 15 17  1  6  0  0  0
 15 16  1  0  0  0  0
 18 19  1  0  0  0  0
 20 21  1  0  0  0  0
 21 23  1  0  0  0  0
 22 21  2  0  0  0  0
 24 27  1  0  0  0  0
 25 28  1  0  0  0  0
 26 29  1  0  0  0  0
 26 27  2  0  0  0  0
 27 30  1  0  0  0  0
 29 25  2  0  0  0  0
 30 28  2  0  0  0  0
 31 32  1  0  0  0  0
 32 26  1  0  0  0  0
 33 34  1  0  0  0  0
 34 32  2  0  0  0  0
 35 33  2  0  0  0  0
 35 36  1  0  0  0  0
 36 31  2  0  0  0  0
M  END
>  <MODEL>
3

>  <REMARK>
 VINA RESULT:      -4.8      1.669      3.368
  Name = 
  9 active torsions:
  status: ('A' for Active; 'I' for Inactive)
    1  A    between atoms: C_2  and  C_31
    2  A    between atoms: C_3  and  O_6
    3  A    between atoms: C_4  and  C_31
    4  A    between atoms: O_6  and  C_22
    5  A    between atoms: C_7  and  C_10
    6  A    between atoms: C_11  and  C_33
    7  A    between atoms: C_13  and  C_31
    8  A    between atoms: C_22  and  C_28
    9  A    between atoms: C_22  and  C_33
                            x       y       z     vdW  Elec       q    Type
                         _______ _______ _______ _____ _____    ______ ____

>  <TORSDO>
F 9

$$$$
=
 OpenBabel11072413323D

 36 39  0  0  1  0  0  0  0  0999 V2000
  161.2200  210.4410  152.1850 C   0  0  1  0  0  3  0  0  0  0  0  0
  160.9420  205.5400  151.7030 N   0  0  0  0  0  2  0  0  0  0  0  0
  161.0240  205.7000  150.3080 N   0  0  0  0  0  0  0  0  0  0  0  0
  160.9960  208.9380  154.2480 C   0  0  0  0  0  0  0  0  0  0  0  0
  160.9490  206.6770  152.5720 C   0  0  0  0  0  0  0  0  0  0  0  0
  161.1350  208.0560  150.5840 N   0  0  0  0  0  2  0  0  0  0  0  0
  160.8520  206.5220  153.9510 C   0  0  0  0  0  3  0  0  0  0  0  0
  161.0680  207.9490  152.0120 C   0  0  0  0  0  0  0  0  0  0  0  0
  160.8700  207.6340  154.7930 C   0  0  0  0  0  0  0  0  0  0  0  0
  161.1140  206.8790  149.7640 C   0  0  0  0  0  0  0  0  0  0  0  0
  161.1030  209.0890  152.8370 C   0  0  0  0  0  0  0  0  0  0  0  0
  161.1580  207.0070  148.2820 C   0  0  0  0  0  1  0  0  0  0  0  0
  160.7540  207.3760  156.2590 C   0  0  0  0  0  1  0  0  0  0  0  0
  161.0530  210.1710  155.1270 C   0  0  1  0  0  3  0  0  0  0  0  0
  160.0810  210.1690  156.3130 C   0  0  1  0  0  3  0  0  0  0  0  0
  160.2260  211.6850  157.2350 Cl  0  0  0  0  0  0  0  0  0  0  0  0
  158.7810  210.0570  155.8570 F   0  0  0  0  0  0  0  0  0  0  0  0
  162.4830  210.5850  155.4900 C   0  0  0  0  0  2  0  0  0  0  0  0
  162.9080  209.9570  156.6590 O   0  0  0  0  0  1  0  0  0  0  0  0
  162.1990  210.4270  151.1510 O   0  0  0  0  0  0  0  0  0  0  0  0
  162.0340  211.1110  149.9450 C   0  0  0  0  0  0  0  0  0  0  0  0
  161.9660  212.3660  149.9530 O   0  0  0  0  0  0  0  0  0  0  0  0
  161.9750  210.3890  148.6400 C   0  0  0  0  0  1  0  0  0  0  0  0
  159.8630  210.9250  151.6710 C   0  0  0  0  0  2  0  0  0  0  0  0
  158.5160  214.4530  153.6640 C   0  0  0  0  0  3  0  0  0  0  0  0
  158.7750  213.2470  151.6220 C   0  0  0  0  0  0  0  0  0  0  0  0
  159.4460  212.2100  152.3160 C   0  0  0  0  0  0  0  0  0  0  0  0
  159.1970  213.4630  154.3740 C   0  0  0  0  0  3  0  0  0  0  0  0
  158.3200  214.3250  152.3240 N   0  0  0  0  0  0  0  0  0  0  0  0
  159.6540  212.3370  153.6940 C   0  0  0  0  0  3  0  0  0  0  0  0
  159.5290  213.4660  149.2780 N   0  0  0  0  0  0  0  0  0  0  0  0
  158.5270  213.2020  150.1630 C   0  0  0  0  0  0  0  0  0  0  0  0
  156.9970  212.9410  148.3030 C   0  0  0  0  0  3  0  0  0  0  0  0
  157.2360  212.9440  149.6820 C   0  0  0  0  0  3  0  0  0  0  0  0
  158.0430  213.2050  147.4180 C   0  0  0  0  0  3  0  0  0  0  0  0
  159.3150  213.4720  147.9300 C   0  0  0  0  0  3  0  0  0  0  0  0
  1 24  1  6  0  0  0
  1 11  1  0  0  0  0
  2  5  1  0  0  0  0
  3  2  1  0  0  0  0
  4  9  1  0  0  0  0
  4 14  1  0  0  0  0
  5  7  1  0  0  0  0
  6  8  1  0  0  0  0
  7  9  2  0  0  0  0
  8  5  2  0  0  0  0
  8 11  1  0  0  0  0
  9 13  1  0  0  0  0
 10  3  2  0  0  0  0
 10  6  1  0  0  0  0
 11  4  2  0  0  0  0
 12 10  1  0  0  0  0
 14 18  1  1  0  0  0
 14 15  1  0  0  0  0
 15 17  1  6  0  0  0
 15 16  1  0  0  0  0
 18 19  1  0  0  0  0
 20  1  1  0  0  0  0
 21 22  2  0  0  0  0
 21 20  1  0  0  0  0
 23 21  1  0  0  0  0
 24 27  1  0  0  0  0
 25 28  1  0  0  0  0
 26 27  2  0  0  0  0
 26 29  1  0  0  0  0
 27 30  1  0  0  0  0
 29 25  2  0  0  0  0
 30 28  2  0  0  0  0
 31 32  1  0  0  0  0
 32 26  1  0  0  0  0
 33 34  1  0  0  0  0
 34 32  2  0  0  0  0
 35 36  1  0  0  0  0
 35 33  2  0  0  0  0
 36 31  2  0  0  0  0
M  END
>  <MODEL>
4

>  <REMARK>
 VINA RESULT:      -4.6      2.325      6.867
  Name = 
  9 active torsions:
  status: ('A' for Active; 'I' for Inactive)
    1  A    between atoms: C_2  and  C_31
    2  A    between atoms: C_3  and  O_6
    3  A    between atoms: C_4  and  C_31
    4  A    between atoms: O_6  and  C_22
    5  A    between atoms: C_7  and  C_10
    6  A    between atoms: C_11  and  C_33
    7  A    between atoms: C_13  and  C_31
    8  A    between atoms: C_22  and  C_28
    9  A    between atoms: C_22  and  C_33
                            x       y       z     vdW  Elec       q    Type
                         _______ _______ _______ _____ _____    ______ ____

>  <TORSDO>
F 9

$$$$
=
 OpenBabel11072413323D

 36 39  0  0  1  0  0  0  0  0999 V2000
  160.6830  209.9320  152.8080 C   0  0  1  0  0  3  0  0  0  0  0  0
  161.2000  205.0300  152.9890 N   0  0  0  0  0  2  0  0  0  0  0  0
  161.0970  204.9940  151.5860 N   0  0  0  0  0  0  0  0  0  0  0  0
  160.9540  208.7310  155.0550 C   0  0  0  0  0  0  0  0  0  0  0  0
  161.1090  206.2690  153.6980 C   0  0  0  0  0  0  0  0  0  0  0  0
  160.8310  207.3540  151.5460 N   0  0  0  0  0  2  0  0  0  0  0  0
  161.1950  206.3040  155.0870 C   0  0  0  0  0  3  0  0  0  0  0  0
  160.9440  207.4480  152.9720 C   0  0  0  0  0  0  0  0  0  0  0  0
  161.1150  207.5160  155.7720 C   0  0  0  0  0  0  0  0  0  0  0  0
  160.9210  206.0810  150.8910 C   0  0  0  0  0  0  0  0  0  0  0  0
  160.8750  208.6880  153.6350 C   0  0  0  0  0  0  0  0  0  0  0  0
  160.7760  205.9950  149.4120 C   0  0  0  0  0  1  0  0  0  0  0  0
  161.2110  207.4610  157.2610 C   0  0  0  0  0  1  0  0  0  0  0  0
  160.8960  210.0720  155.7560 C   0  0  1  0  0  3  0  0  0  0  0  0
  159.6760  210.2810  156.6620 C   0  0  1  0  0  3  0  0  0  0  0  0
  159.3740  212.0180  156.9030 Cl  0  0  0  0  0  0  0  0  0  0  0  0
  158.5550  209.7190  156.0800 F   0  0  0  0  0  0  0  0  0  0  0  0
  162.2280  210.4730  156.3980 C   0  0  0  0  0  2  0  0  0  0  0  0
  163.1970  210.7320  155.4300 O   0  0  0  0  0  1  0  0  0  0  0  0
  160.9680  209.6810  151.4350 O   0  0  0  0  0  0  0  0  0  0  0  0
  162.1730  210.0480  150.8350 C   0  0  0  0  0  0  0  0  0  0  0  0
  163.1620  210.3260  151.5590 O   0  0  0  0  0  0  0  0  0  0  0  0
  162.3280  210.0810  149.3510 C   0  0  0  0  0  1  0  0  0  0  0  0
  159.2810  210.5110  152.9980 C   0  0  0  0  0  2  0  0  0  0  0  0
  159.1660  214.4450  151.3430 C   0  0  0  0  0  3  0  0  0  0  0  0
  158.3130  212.8850  152.9330 C   0  0  0  0  0  0  0  0  0  0  0  0
  159.1530  211.8770  152.3990 C   0  0  0  0  0  0  0  0  0  0  0  0
  159.9860  213.4680  150.7750 C   0  0  0  0  0  3  0  0  0  0  0  0
  158.3620  214.1380  152.3960 N   0  0  0  0  0  0  0  0  0  0  0  0
  159.9810  212.1840  151.3140 C   0  0  0  0  0  3  0  0  0  0  0  0
  156.7940  211.4290  154.2310 N   0  0  0  0  0  0  0  0  0  0  0  0
  157.3950  212.6410  154.0690 C   0  0  0  0  0  0  0  0  0  0  0  0
  156.1910  213.4610  156.0050 C   0  0  0  0  0  3  0  0  0  0  0  0
  157.0900  213.6830  154.9560 C   0  0  0  0  0  3  0  0  0  0  0  0
  155.5970  212.2070  156.1540 C   0  0  0  0  0  3  0  0  0  0  0  0
  155.9120  211.1940  155.2450 C   0  0  0  0  0  3  0  0  0  0  0  0
  1 24  1  6  0  0  0
  1 11  1  0  0  0  0
  2  5  1  0  0  0  0
  3  2  1  0  0  0  0
  4 14  1  0  0  0  0
  4  9  1  0  0  0  0
  5  7  1  0  0  0  0
  6  8  1  0  0  0  0
  7  9  2  0  0  0  0
  8 11  1  0  0  0  0
  8  5  2  0  0  0  0
  9 13  1  0  0  0  0
 10  6  1  0  0  0  0
 10  3  2  0  0  0  0
 11  4  2  0  0  0  0
 12 10  1  0  0  0  0
 14 18  1  1  0  0  0
 14 15  1  0  0  0  0
 15 17  1  6  0  0  0
 15 16  1  0  0  0  0
 19 18  1  0  0  0  0
 20  1  1  0  0  0  0
 21 20  1  0  0  0  0
 21 22  2  0  0  0  0
 23 21  1  0  0  0  0
 25 29  1  0  0  0  0
 26 32  1  0  0  0  0
 27 26  1  0  0  0  0
 27 24  1  0  0  0  0
 28 30  1  0  0  0  0
 28 25  2  0  0  0  0
 29 26  2  0  0  0  0
 30 27  2  0  0  0  0
 31 36  1  0  0  0  0
 32 31  2  0  0  0  0
 32 34  1  0  0  0  0
 33 35  1  0  0  0  0
 34 33  2  0  0  0  0
 36 35  2  0  0  0  0
M  END
>  <MODEL>
5

>  <REMARK>
 VINA RESULT:      -4.3      2.272      6.364
  Name = 
  9 active torsions:
  status: ('A' for Active; 'I' for Inactive)
    1  A    between atoms: C_2  and  C_31
    2  A    between atoms: C_3  and  O_6
    3  A    between atoms: C_4  and  C_31
    4  A    between atoms: O_6  and  C_22
    5  A    between atoms: C_7  and  C_10
    6  A    between atoms: C_11  and  C_33
    7  A    between atoms: C_13  and  C_31
    8  A    between atoms: C_22  and  C_28
    9  A    between atoms: C_22  and  C_33
                            x       y       z     vdW  Elec       q    Type
                         _______ _______ _______ _____ _____    ______ ____

>  <TORSDO>
F 9

$$$$
=
 OpenBabel11072413323D

 36 39  0  0  1  0  0  0  0  0999 V2000
  159.1700  211.8670  154.1040 C   0  0  1  0  0  3  0  0  0  0  0  0
  157.8090  214.3690  150.0770 N   0  0  0  0  0  2  0  0  0  0  0  0
  159.0390  214.0300  149.4840 N   0  0  0  0  0  0  0  0  0  0  0  0
  156.9030  213.0570  154.0120 C   0  0  0  0  0  0  0  0  0  0  0  0
  157.4950  213.9410  151.4060 C   0  0  0  0  0  0  0  0  0  0  0  0
  159.6630  212.8530  151.4500 N   0  0  0  0  0  2  0  0  0  0  0  0
  156.2850  214.2890  152.0000 C   0  0  0  0  0  3  0  0  0  0  0  0
  158.4190  213.1580  152.0960 C   0  0  0  0  0  0  0  0  0  0  0  0
  155.9810  213.8610  153.2920 C   0  0  0  0  0  0  0  0  0  0  0  0
  159.9250  213.3180  150.1180 C   0  0  0  0  0  0  0  0  0  0  0  0
  158.1340  212.6990  153.3950 C   0  0  0  0  0  0  0  0  0  0  0  0
  161.2310  213.0160  149.4700 C   0  0  0  0  0  1  0  0  0  0  0  0
  154.6640  214.2840  153.8540 C   0  0  0  0  0  1  0  0  0  0  0  0
  156.5990  212.5420  155.4040 C   0  0  1  0  0  3  0  0  0  0  0  0
  155.7650  213.4870  156.2780 C   0  0  1  0  0  3  0  0  0  0  0  0
  154.6000  212.5600  157.2550 Cl  0  0  0  0  0  0  0  0  0  0  0  0
  156.5910  214.1910  157.1340 F   0  0  0  0  0  0  0  0  0  0  0  0
  156.1170  211.0890  155.4160 C   0  0  0  0  0  2  0  0  0  0  0  0
  155.1200  210.8800  154.4650 O   0  0  0  0  0  1  0  0  0  0  0  0
  159.1660  212.1300  155.5040 O   0  0  0  0  0  0  0  0  0  0  0  0
  160.0760  212.9980  156.1110 C   0  0  0  0  0  0  0  0  0  0  0  0
  161.1820  212.5510  156.5060 O   0  0  0  0  0  0  0  0  0  0  0  0
  159.7820  214.4520  156.2660 C   0  0  0  0  0  1  0  0  0  0  0  0
  158.9780  210.3790  153.8090 C   0  0  0  0  0  2  0  0  0  0  0  0
  161.2930  208.1340  156.6080 C   0  0  0  0  0  3  0  0  0  0  0  0
  160.8710  208.7310  154.3370 C   0  0  0  0  0  0  0  0  0  0  0  0
  159.7650  209.5160  154.7460 C   0  0  0  0  0  0  0  0  0  0  0  0
  160.1940  208.8770  157.0420 C   0  0  0  0  0  3  0  0  0  0  0  0
  161.6060  208.0800  155.2850 N   0  0  0  0  0  0  0  0  0  0  0  0
  159.4370  209.5740  156.1040 C   0  0  0  0  0  3  0  0  0  0  0  0
  161.9350  209.6140  152.2870 N   0  0  0  0  0  0  0  0  0  0  0  0
  161.2780  208.6000  152.9200 C   0  0  0  0  0  0  0  0  0  0  0  0
  161.2870  207.3460  150.8470 C   0  0  0  0  0  3  0  0  0  0  0  0
  160.9350  207.4490  152.1980 C   0  0  0  0  0  3  0  0  0  0  0  0
  161.9680  208.3940  150.2260 C   0  0  0  0  0  3  0  0  0  0  0  0
  162.2830  209.5330  150.9700 C   0  0  0  0  0  3  0  0  0  0  0  0
  1 24  1  1  0  0  0
  1 20  1  0  0  0  0
  2  5  1  0  0  0  0
  3  2  1  0  0  0  0
  3 10  2  0  0  0  0
  4 14  1  0  0  0  0
  5  7  2  0  0  0  0
  5  8  1  0  0  0  0
  6  8  1  0  0  0  0
  7  9  1  0  0  0  0
  8 11  2  0  0  0  0
  9 13  1  0  0  0  0
  9  4  2  0  0  0  0
 10  6  1  0  0  0  0
 11  4  1  0  0  0  0
 11  1  1  0  0  0  0
 12 10  1  0  0  0  0
 14 18  1  6  0  0  0
 14 15  1  0  0  0  0
 15 17  1  1  0  0  0
 15 16  1  0  0  0  0
 19 18  1  0  0  0  0
 20 21  1  0  0  0  0
 21 23  1  0  0  0  0
 21 22  2  0  0  0  0
 24 27  1  0  0  0  0
 25 28  1  0  0  0  0
 26 27  2  0  0  0  0
 26 29  1  0  0  0  0
 27 30  1  0  0  0  0
 29 25  2  0  0  0  0
 30 28  2  0  0  0  0
 31 32  1  0  0  0  0
 32 26  1  0  0  0  0
 33 34  1  0  0  0  0
 34 32  2  0  0  0  0
 35 33  2  0  0  0  0
 35 36  1  0  0  0  0
 36 31  2  0  0  0  0
M  END
>  <MODEL>
6

>  <REMARK>
 VINA RESULT:      -4.1      1.421      3.081
  Name = 
  9 active torsions:
  status: ('A' for Active; 'I' for Inactive)
    1  A    between atoms: C_2  and  C_31
    2  A    between atoms: C_3  and  O_6
    3  A    between atoms: C_4  and  C_31
    4  A    between atoms: O_6  and  C_22
    5  A    between atoms: C_7  and  C_10
    6  A    between atoms: C_11  and  C_33
    7  A    between atoms: C_13  and  C_31
    8  A    between atoms: C_22  and  C_28
    9  A    between atoms: C_22  and  C_33
                            x       y       z     vdW  Elec       q    Type
                         _______ _______ _______ _____ _____    ______ ____

>  <TORSDO>
F 9

$$$$
=
 OpenBabel11072413323D

 36 39  0  0  1  0  0  0  0  0999 V2000
  160.6570  211.4080  153.0420 C   0  0  1  0  0  3  0  0  0  0  0  0
  157.4710  214.3290  150.6670 N   0  0  0  0  0  2  0  0  0  0  0  0
  158.3830  214.4090  149.5980 N   0  0  0  0  0  0  0  0  0  0  0  0
  158.4230  212.0490  154.1190 C   0  0  0  0  0  0  0  0  0  0  0  0
  157.7830  213.5720  151.8400 C   0  0  0  0  0  0  0  0  0  0  0  0
  159.8970  213.0160  150.7850 N   0  0  0  0  0  2  0  0  0  0  0  0
  156.8890  213.5050  152.9050 C   0  0  0  0  0  3  0  0  0  0  0  0
  158.9980  212.8900  151.8960 C   0  0  0  0  0  0  0  0  0  0  0  0
  157.1960  212.7580  154.0410 C   0  0  0  0  0  0  0  0  0  0  0  0
  159.5320  213.7970  149.6390 C   0  0  0  0  0  0  0  0  0  0  0  0
  159.3280  212.1160  153.0240 C   0  0  0  0  0  0  0  0  0  0  0  0
  160.4840  213.9410  148.5050 C   0  0  0  0  0  1  0  0  0  0  0  0
  156.1830  212.7460  155.1380 C   0  0  0  0  0  1  0  0  0  0  0  0
  158.7810  211.1980  155.3210 C   0  0  1  0  0  3  0  0  0  0  0  0
  158.9260  211.9650  156.6410 C   0  0  1  0  0  3  0  0  0  0  0  0
  159.5620  213.6000  156.3400 Cl  0  0  0  0  0  0  0  0  0  0  0  0
  157.6940  212.0820  157.2570 F   0  0  0  0  0  0  0  0  0  0  0  0
  157.9390  209.9230  155.4260 C   0  0  0  0  0  2  0  0  0  0  0  0
  158.7090  208.8450  155.8590 O   0  0  0  0  0  1  0  0  0  0  0  0
  161.2860  211.5360  154.3140 O   0  0  0  0  0  0  0  0  0  0  0  0
  162.2340  210.6240  154.7830 C   0  0  0  0  0  0  0  0  0  0  0  0
  163.3930  210.6360  154.2960 O   0  0  0  0  0  0  0  0  0  0  0  0
  161.9150  209.6610  155.8760 C   0  0  0  0  0  1  0  0  0  0  0  0
  160.5080  209.9420  152.6310 C   0  0  0  0  0  2  0  0  0  0  0  0
  162.3170  209.2030  148.8340 C   0  0  0  0  0  3  0  0  0  0  0  0
  161.5270  208.3350  150.9120 C   0  0  0  0  0  0  0  0  0  0  0  0
  161.2130  209.6480  151.3440 C   0  0  0  0  0  0  0  0  0  0  0  0
  162.0450  210.5100  149.2400 C   0  0  0  0  0  3  0  0  0  0  0  0
  162.0530  208.1580  149.6650 N   0  0  0  0  0  0  0  0  0  0  0  0
  161.4840  210.7260  150.4960 C   0  0  0  0  0  3  0  0  0  0  0  0
  160.9520  207.2660  153.0660 N   0  0  0  0  0  0  0  0  0  0  0  0
  161.2890  207.1390  151.7510 C   0  0  0  0  0  0  0  0  0  0  0  0
  161.2810  204.7310  152.0170 C   0  0  0  0  0  3  0  0  0  0  0  0
  161.4690  205.8590  151.2100 C   0  0  0  0  0  3  0  0  0  0  0  0
  160.9270  204.8890  153.3570 C   0  0  0  0  0  3  0  0  0  0  0  0
  160.7690  206.1790  153.8700 C   0  0  0  0  0  3  0  0  0  0  0  0
  1 24  1  1  0  0  0
  1 20  1  0  0  0  0
  2  5  1  0  0  0  0
  3 10  2  0  0  0  0
  3  2  1  0  0  0  0
  4 14  1  0  0  0  0
  5  8  2  0  0  0  0
  5  7  1  0  0  0  0
  6  8  1  0  0  0  0
  7  9  2  0  0  0  0
  8 11  1  0  0  0  0
  9  4  1  0  0  0  0
  9 13  1  0  0  0  0
 10  6  1  0  0  0  0
 11  1  1  0  0  0  0
 11  4  2  0  0  0  0
 12 10  1  0  0  0  0
 14 18  1  1  0  0  0
 14 15  1  0  0  0  0
 15 16  1  6  0  0  0
 15 17  1  0  0  0  0
 18 19  1  0  0  0  0
 20 21  1  0  0  0  0
 21 23  1  0  0  0  0
 22 21  2  0  0  0  0
 25 28  2  0  0  0  0
 25 29  1  0  0  0  0
 26 27  1  0  0  0  0
 26 32  1  0  0  0  0
 27 24  1  0  0  0  0
 28 30  1  0  0  0  0
 29 26  2  0  0  0  0
 30 27  2  0  0  0  0
 31 36  1  0  0  0  0
 32 31  2  0  0  0  0
 33 35  1  0  0  0  0
 34 32  1  0  0  0  0
 34 33  2  0  0  0  0
 35 36  2  0  0  0  0
M  END
>  <MODEL>
7

>  <REMARK>
 VINA RESULT:      -3.5      1.748      2.462
  Name = 
  9 active torsions:
  status: ('A' for Active; 'I' for Inactive)
    1  A    between atoms: C_2  and  C_31
    2  A    between atoms: C_3  and  O_6
    3  A    between atoms: C_4  and  C_31
    4  A    between atoms: O_6  and  C_22
    5  A    between atoms: C_7  and  C_10
    6  A    between atoms: C_11  and  C_33
    7  A    between atoms: C_13  and  C_31
    8  A    between atoms: C_22  and  C_28
    9  A    between atoms: C_22  and  C_33
                            x       y       z     vdW  Elec       q    Type
                         _______ _______ _______ _____ _____    ______ ____

>  <TORSDO>
F 9

$$$$
=
 OpenBabel11072413323D

 36 39  0  0  1  0  0  0  0  0999 V2000
  161.0150  210.4130  153.7930 C   0  0  1  0  0  3  0  0  0  0  0  0
  157.5260  213.5250  152.2220 N   0  0  0  0  0  2  0  0  0  0  0  0
  158.3470  213.8510  151.1270 N   0  0  0  0  0  0  0  0  0  0  0  0
  158.8440  210.7170  155.1200 C   0  0  0  0  0  0  0  0  0  0  0  0
  157.9620  212.5880  153.2110 C   0  0  0  0  0  0  0  0  0  0  0  0
  160.0100  212.3560  151.9300 N   0  0  0  0  0  2  0  0  0  0  0  0
  157.1570  212.2770  154.3030 C   0  0  0  0  0  3  0  0  0  0  0  0
  159.2070  211.9790  153.0570 C   0  0  0  0  0  0  0  0  0  0  0  0
  157.5840  211.3550  155.2590 C   0  0  0  0  0  0  0  0  0  0  0  0
  159.5220  213.3100  150.9750 C   0  0  0  0  0  0  0  0  0  0  0  0
  159.6580  211.0340  153.9970 C   0  0  0  0  0  0  0  0  0  0  0  0
  160.3760  213.7120  149.8250 C   0  0  0  0  0  1  0  0  0  0  0  0
  156.6610  211.0860  156.4000 C   0  0  0  0  0  1  0  0  0  0  0  0
  159.3320  209.6850  156.1160 C   0  0  1  0  0  3  0  0  0  0  0  0
  159.8170  208.3660  155.5010 C   0  0  1  0  0  3  0  0  0  0  0  0
  161.1840  207.7130  156.4350 Cl  0  0  0  0  0  0  0  0  0  0  0  0
  158.7950  207.4360  155.5140 F   0  0  0  0  0  0  0  0  0  0  0  0
  160.2760  210.2680  157.1720 C   0  0  0  0  0  2  0  0  0  0  0  0
  160.1400  211.6520  157.2610 O   0  0  0  0  0  1  0  0  0  0  0  0
  161.7290  210.3320  155.0240 O   0  0  0  0  0  0  0  0  0  0  0  0
  163.0770  210.6770  155.1370 C   0  0  0  0  0  0  0  0  0  0  0  0
  163.7970  210.6940  154.1070 O   0  0  0  0  0  0  0  0  0  0  0  0
  163.6750  211.0640  156.4480 C   0  0  0  0  0  1  0  0  0  0  0  0
  160.9010  209.0470  153.1160 C   0  0  0  0  0  2  0  0  0  0  0  0
  162.2320  209.2580  149.0640 C   0  0  0  0  0  3  0  0  0  0  0  0
  161.5530  207.9100  150.9110 C   0  0  0  0  0  0  0  0  0  0  0  0
  161.4380  209.0690  151.7190 C   0  0  0  0  0  0  0  0  0  0  0  0
  162.1550  210.4160  149.8390 C   0  0  0  0  0  3  0  0  0  0  0  0
  161.9310  208.0480  149.6070 N   0  0  0  0  0  0  0  0  0  0  0  0
  161.7490  210.3160  151.1670 C   0  0  0  0  0  3  0  0  0  0  0  0
  161.4110  206.2510  152.7390 N   0  0  0  0  0  0  0  0  0  0  0  0
  161.2590  206.5500  151.4190 C   0  0  0  0  0  0  0  0  0  0  0  0
  160.6400  204.2450  151.0030 C   0  0  0  0  0  3  0  0  0  0  0  0
  160.8790  205.5390  150.5260 C   0  0  0  0  0  3  0  0  0  0  0  0
  160.7940  203.9680  152.3620 C   0  0  0  0  0  3  0  0  0  0  0  0
  161.1880  204.9950  153.2230 C   0  0  0  0  0  3  0  0  0  0  0  0
  1 24  1  1  0  0  0
  1 11  1  0  0  0  0
  1 20  1  0  0  0  0
  2  5  1  0  0  0  0
  3  2  1  0  0  0  0
  4  9  1  0  0  0  0
  4 14  1  0  0  0  0
  5  7  1  0  0  0  0
  6  8  1  0  0  0  0
  7  9  2  0  0  0  0
  8  5  2  0  0  0  0
  8 11  1  0  0  0  0
  9 13  1  0  0  0  0
 10  3  2  0  0  0  0
 10  6  1  0  0  0  0
 11  4  2  0  0  0  0
 12 10  1  0  0  0  0
 14 18  1  6  0  0  0
 15 17  1  1  0  0  0
 15 14  1  0  0  0  0
 15 16  1  0  0  0  0
 18 19  1  0  0  0  0
 20 21  1  0  0  0  0
 21 23  1  0  0  0  0
 22 21  2  0  0  0  0
 25 29  2  0  0  0  0
 25 28  1  0  0  0  0
 26 32  1  0  0  0  0
 26 27  2  0  0  0  0
 27 24  1  0  0  0  0
 28 30  2  0  0  0  0
 29 26  1  0  0  0  0
 30 27  1  0  0  0  0
 31 36  1  0  0  0  0
 32 31  2  0  0  0  0
 33 35  1  0  0  0  0
 34 33  2  0  0  0  0
 34 32  1  0  0  0  0
 35 36  2  0  0  0  0
M  END
>  <MODEL>
8

>  <REMARK>
 VINA RESULT:      -3.4      2.584      3.758
  Name = 
  9 active torsions:
  status: ('A' for Active; 'I' for Inactive)
    1  A    between atoms: C_2  and  C_31
    2  A    between atoms: C_3  and  O_6
    3  A    between atoms: C_4  and  C_31
    4  A    between atoms: O_6  and  C_22
    5  A    between atoms: C_7  and  C_10
    6  A    between atoms: C_11  and  C_33
    7  A    between atoms: C_13  and  C_31
    8  A    between atoms: C_22  and  C_28
    9  A    between atoms: C_22  and  C_33
                            x       y       z     vdW  Elec       q    Type
                         _______ _______ _______ _____ _____    ______ ____

>  <TORSDO>
F 9

$$$$
=
 OpenBabel11072413323D

 36 39  0  0  1  0  0  0  0  0999 V2000
  161.4170  208.9060  150.9550 C   0  0  1  0  0  3  0  0  0  0  0  0
  160.9700  204.3370  152.7610 N   0  0  0  0  0  2  0  0  0  0  0  0
  161.1120  203.8360  151.4540 N   0  0  0  0  0  0  0  0  0  0  0  0
  161.0560  208.5240  153.4630 C   0  0  0  0  0  0  0  0  0  0  0  0
  160.9870  205.7460  153.0100 C   0  0  0  0  0  0  0  0  0  0  0  0
  161.3020  206.0530  150.6240 N   0  0  0  0  0  2  0  0  0  0  0  0
  160.8310  206.2440  154.3000 C   0  0  0  0  0  3  0  0  0  0  0  0
  161.1760  206.6160  151.9370 C   0  0  0  0  0  0  0  0  0  0  0  0
  160.8590  207.6180  154.5380 C   0  0  0  0  0  0  0  0  0  0  0  0
  161.2680  204.6320  150.4350 C   0  0  0  0  0  0  0  0  0  0  0  0
  161.2230  208.0070  152.1480 C   0  0  0  0  0  0  0  0  0  0  0  0
  161.3730  204.0620  149.0640 C   0  0  0  0  0  1  0  0  0  0  0  0
  160.6770  208.0660  155.9500 C   0  0  0  0  0  1  0  0  0  0  0  0
  161.1270  210.0210  153.6810 C   0  0  1  0  0  3  0  0  0  0  0  0
  159.9850  210.6110  154.5180 C   0  0  1  0  0  3  0  0  0  0  0  0
  160.4560  212.1950  155.1790 Cl  0  0  0  0  0  0  0  0  0  0  0  0
  158.8620  210.7830  153.7300 F   0  0  0  0  0  0  0  0  0  0  0  0
  162.5200  210.5040  154.0940 C   0  0  0  0  0  2  0  0  0  0  0  0
  162.7030  210.3950  155.4720 O   0  0  0  0  0  1  0  0  0  0  0  0
  160.8360  208.3350  149.7860 O   0  0  0  0  0  0  0  0  0  0  0  0
  161.5970  207.9130  148.6950 C   0  0  0  0  0  0  0  0  0  0  0  0
  162.8460  208.0560  148.7230 O   0  0  0  0  0  0  0  0  0  0  0  0
  160.9680  207.2590  147.5110 C   0  0  0  0  0  1  0  0  0  0  0  0
  160.8740  210.3090  151.2280 C   0  0  0  0  0  2  0  0  0  0  0  0
  162.1960  213.0810  148.2610 C   0  0  0  0  0  3  0  0  0  0  0  0
  160.6460  212.5450  149.9930 C   0  0  0  0  0  0  0  0  0  0  0  0
  161.2550  211.2760  150.1500 C   0  0  0  0  0  0  0  0  0  0  0  0
  162.8020  211.8280  148.3710 C   0  0  0  0  0  3  0  0  0  0  0  0
  161.1490  213.4090  149.0640 N   0  0  0  0  0  0  0  0  0  0  0  0
  162.3310  210.9310  149.3260 C   0  0  0  0  0  3  0  0  0  0  0  0
  158.2280  212.9530  150.3070 N   0  0  0  0  0  0  0  0  0  0  0  0
  159.4930  212.9850  150.8120 C   0  0  0  0  0  0  0  0  0  0  0  0
  158.6180  213.9490  152.8550 C   0  0  0  0  0  3  0  0  0  0  0  0
  159.7060  213.4980  152.0990 C   0  0  0  0  0  3  0  0  0  0  0  0
  157.3320  213.8960  152.3180 C   0  0  0  0  0  3  0  0  0  0  0  0
  157.1550  213.3920  151.0270 C   0  0  0  0  0  3  0  0  0  0  0  0
  1 24  1  1  0  0  0
  1 11  1  0  0  0  0
  2  5  1  0  0  0  0
  3  2  1  0  0  0  0
  4 14  1  0  0  0  0
  4  9  1  0  0  0  0
  5  7  1  0  0  0  0
  6  8  1  0  0  0  0
  7  9  2  0  0  0  0
  8 11  1  0  0  0  0
  8  5  2  0  0  0  0
  9 13  1  0  0  0  0
 10  6  1  0  0  0  0
 10  3  2  0  0  0  0
 11  4  2  0  0  0  0
 12 10  1  0  0  0  0
 14 18  1  1  0  0  0
 14 15  1  0  0  0  0
 15 17  1  6  0  0  0
 15 16  1  0  0  0  0
 18 19  1  0  0  0  0
 20  1  1  0  0  0  0
 21 22  2  0  0  0  0
 21 20  1  0  0  0  0
 23 21  1  0  0  0  0
 25 28  2  0  0  0  0
 25 29  1  0  0  0  0
 26 27  1  0  0  0  0
 26 32  1  0  0  0  0
 27 24  1  0  0  0  0
 28 30  1  0  0  0  0
 29 26  2  0  0  0  0
 30 27  2  0  0  0  0
 31 32  2  0  0  0  0
 31 36  1  0  0  0  0
 32 34  1  0  0  0  0
 34 33  2  0  0  0  0
 35 33  1  0  0  0  0
 36 35  2  0  0  0  0
M  END
>  <MODEL>
9

>  <REMARK>
 VINA RESULT:      -2.8      2.620      6.978
  Name = 
  9 active torsions:
  status: ('A' for Active; 'I' for Inactive)
    1  A    between atoms: C_2  and  C_31
    2  A    between atoms: C_3  and  O_6
    3  A    between atoms: C_4  and  C_31
    4  A    between atoms: O_6  and  C_22
    5  A    between atoms: C_7  and  C_10
    6  A    between atoms: C_11  and  C_33
    7  A    between atoms: C_13  and  C_31
    8  A    between atoms: C_22  and  C_28
    9  A    between atoms: C_22  and  C_33
                            x       y       z     vdW  Elec       q    Type
                         _______ _______ _______ _____ _____    ______ ____

>  <TORSDO>
F 9

$$$$
