=
 OpenBabel11072411013D

 42 46  0  0  1  0  0  0  0  0999 V2000
  163.1590  212.0240  148.0100 F   0  0  0  0  0  0  0  0  0  0  0  0
  161.9400  213.9600  148.6400 C   0  0  0  0  0  1  0  0  0  0  0  0
  161.8830  212.4780  148.3080 C   0  0  2  0  0  0  0  0  0  0  0  0
  161.3540  211.7340  149.5290 C   0  0  0  0  0  2  0  0  0  0  0  0
  162.7010  210.0480  150.5430 O   0  0  0  0  0  0  0  0  0  0  0  0
  161.9090  210.3390  149.6100 C   0  0  0  0  0  0  0  0  0  0  0  0
  161.6150  209.3790  148.6380 O   0  0  0  0  0  0  0  0  0  0  0  0
  162.1440  208.0630  148.6890 C   0  0  0  0  0  2  0  0  0  0  0  0
  161.2990  205.7180  149.1220 C   0  0  2  0  0  0  0  0  0  0  0  0
  162.0880  205.2540  147.9300 C   0  0  0  0  0  3  0  0  0  0  0  0
  161.1360  203.0140  148.2760 C   0  0  0  0  0  0  0  0  0  0  0  0
  161.9820  203.9820  147.5370 C   0  0  0  0  0  3  0  0  0  0  0  0
  161.2530  207.1810  149.5500 C   0  0  2  0  0  3  0  0  0  0  0  0
  160.9010  204.6640  150.1550 C   0  0  1  0  0  3  0  0  0  0  0  0
  160.1300  206.5890  148.7100 C   0  0  0  0  0  2  0  0  0  0  0  0
  160.6100  203.3470  149.4690 C   0  0  0  0  0  3  0  0  0  0  0  0
  160.7470  200.6790  148.4250 O   0  0  0  0  0  0  0  0  0  0  0  0
  160.7270  201.5200  146.2020 C   0  0  0  0  0  1  0  0  0  0  0  0
  160.8610  201.6920  147.6820 C   0  0  0  0  0  0  0  0  0  0  0  0
  162.0310  204.4890  151.1630 C   0  0  0  0  0  2  0  0  0  0  0  0
  162.8400  206.4940  152.1040 O   0  0  0  0  0  0  0  0  0  0  0  0
  162.0250  205.5870  152.1750 C   0  0  0  0  0  0  0  0  0  0  0  0
  161.0200  205.5710  153.2730 C   0  0  0  0  0  1  0  0  0  0  0  0
  161.0050  212.2570  147.2000 O   0  0  0  0  0  0  0  0  0  0  0  0
  161.6550  213.1620  143.1210 C   0  0  0  0  0  0  0  0  0  0  0  0
  161.2780  212.6060  145.8720 C   0  0  0  0  0  0  0  0  0  0  0  0
  160.5540  212.5240  143.4970 C   0  0  0  0  0  3  0  0  0  0  0  0
  163.2990  214.1990  142.0320 C   0  0  0  0  0  3  0  0  0  0  0  0
  162.1380  213.5780  141.8240 C   0  0  0  0  0  0  0  0  0  0  0  0
  162.6650  213.5920  144.0390 C   0  0  0  0  0  0  0  0  0  0  0  0
  163.6300  214.2030  143.4320 N   0  0  0  0  0  0  0  0  0  0  0  0
  162.5540  213.3700  145.5130 C   0  0  0  0  0  2  0  0  0  0  0  0
  160.3770  212.2380  144.9380 C   0  0  0  0  0  3  0  0  0  0  0  0
  161.4550  213.4220  140.5060 C   0  0  0  0  0  2  0  0  0  0  0  0
  162.1650  211.0350  140.3080 C   0  0  0  0  0  2  0  0  0  0  0  0
  161.1970  211.2780  139.2160 N   0  0  0  0  0  0  0  0  0  0  0  0
  162.1240  212.3400  139.6730 C   0  0  1  0  0  0  0  0  0  0  0  0
  163.3550  212.6760  138.8230 C   0  0  0  0  0  1  0  0  0  0  0  0
  161.7060  210.5630  138.0500 C   0  0  0  0  0  2  0  0  0  0  0  0
  161.4970  209.0680  138.2350 C   0  0  0  0  0  2  0  0  0  0  0  0
  160.1550  208.8070  138.5190 O   0  0  0  0  0  0  0  0  0  0  0  0
  159.5890  208.5020  137.2890 C   0  0  0  0  0  1  0  0  0  0  0  0
  1  3  1  0  0  0  0
  3  2  1  1  0  0  0
  3  4  1  0  0  0  0
  4  6  1  0  0  0  0
  6  5  2  0  0  0  0
  7  8  1  0  0  0  0
  7  6  1  0  0  0  0
  9 10  1  6  0  0  0
  9 13  1  0  0  0  0
  9 14  1  0  0  0  0
 11 16  2  0  0  0  0
 12 10  2  0  0  0  0
 12 11  1  0  0  0  0
 13  8  1  6  0  0  0
 14 20  1  1  0  0  0
 15  9  1  0  0  0  0
 15 13  1  0  0  0  0
 16 14  1  0  0  0  0
 18 19  1  0  0  0  0
 19 11  1  0  0  0  0
 19 17  2  0  0  0  0
 20 22  1  0  0  0  0
 21 22  2  0  0  0  0
 22 23  1  0  0  0  0
 24  3  1  0  0  0  0
 25 27  2  0  0  0  0
 25 30  1  0  0  0  0
 26 24  1  0  0  0  0
 27 33  1  0  0  0  0
 28 31  1  0  0  0  0
 29 28  2  0  0  0  0
 29 25  1  0  0  0  0
 30 32  1  0  0  0  0
 31 30  2  0  0  0  0
 32 26  1  0  0  0  0
 33 26  2  0  0  0  0
 34 29  1  0  0  0  0
 36 37  1  0  0  0  0
 36 35  1  0  0  0  0
 37 38  1  6  0  0  0
 37 35  1  0  0  0  0
 37 34  1  0  0  0  0
 39 40  1  0  0  0  0
 39 36  1  0  0  0  0
 40 41  1  0  0  0  0
 42 41  1  0  0  0  0
M  END
>  <MODEL>
1

>  <REMARK>
 VINA RESULT:      -7.4      0.000      0.000
  Name = 
  15 active torsions:
  status: ('A' for Active; 'I' for Inactive)
    1  A    between atoms: C_3  and  O_39
    2  A    between atoms: O_7  and  C_13
    3  A    between atoms: C_9  and  C_38
    4  A    between atoms: C_13  and  C_22
    5  A    between atoms: C_14  and  O_33
    6  A    between atoms: C_14  and  C_35
    7  A    between atoms: C_16  and  C_41
    8  A    between atoms: C_17  and  C_21
    9  A    between atoms: C_17  and  C_29
   10  A    between atoms: N_19  and  C_22
   11  A    between atoms: C_23  and  C_25
   12  A    between atoms: C_23  and  O_33
   13  A    between atoms: C_32  and  C_35
   14  A    between atoms: C_32  and  O_39
   15  A    between atoms: C_36  and  C_41
                            x       y       z     vdW  Elec       q    Type
                         _______ _______ _______ _____ _____    ______ ____

>  <TORSDO>
F 15

$$$$
=
 OpenBabel11072411013D

 42 46  0  0  1  0  0  0  0  0999 V2000
  162.5330  206.2240  154.1840 F   0  0  0  0  0  0  0  0  0  0  0  0
  162.2140  206.9020  151.9320 C   0  0  0  0  0  1  0  0  0  0  0  0
  161.5660  206.3760  153.2020 C   0  0  2  0  0  0  0  0  0  0  0  0
  160.5280  207.3930  153.6660 C   0  0  0  0  0  2  0  0  0  0  0  0
  159.5660  206.8850  155.7880 O   0  0  0  0  0  0  0  0  0  0  0  0
  160.4780  207.4870  155.1660 C   0  0  0  0  0  0  0  0  0  0  0  0
  161.3850  208.2780  155.8780 O   0  0  0  0  0  0  0  0  0  0  0  0
  161.6460  209.6290  155.5310 C   0  0  0  0  0  2  0  0  0  0  0  0
  159.8470  211.2850  154.8830 C   0  0  2  0  0  0  0  0  0  0  0  0
  160.3370  211.2050  153.4650 C   0  0  0  0  0  3  0  0  0  0  0  0
  158.6830  212.9280  152.8840 C   0  0  0  0  0  0  0  0  0  0  0  0
  159.7890  212.0010  152.5430 C   0  0  0  0  0  3  0  0  0  0  0  0
  160.5120  210.5160  156.0200 C   0  0  2  0  0  3  0  0  0  0  0  0
  158.4210  211.7880  155.1070 C   0  0  1  0  0  3  0  0  0  0  0  0
  160.8500  211.9810  155.7800 C   0  0  0  0  0  2  0  0  0  0  0  0
  158.0780  212.8490  154.0830 C   0  0  0  0  0  3  0  0  0  0  0  0
  159.1160  214.4530  151.1190 O   0  0  0  0  0  0  0  0  0  0  0  0
  156.8470  214.4160  151.8280 C   0  0  0  0  0  1  0  0  0  0  0  0
  158.2660  213.9490  151.9040 C   0  0  0  0  0  0  0  0  0  0  0  0
  157.4470  210.6210  154.9970 C   0  0  0  0  0  2  0  0  0  0  0  0
  155.1110  210.7770  154.7220 O   0  0  0  0  0  0  0  0  0  0  0  0
  156.0760  211.0230  155.4290 C   0  0  0  0  0  0  0  0  0  0  0  0
  155.8890  211.7270  156.7270 C   0  0  0  0  0  1  0  0  0  0  0  0
  160.9210  205.1260  152.9410 O   0  0  0  0  0  0  0  0  0  0  0  0
  160.9380  203.2400  149.1560 C   0  0  0  0  0  0  0  0  0  0  0  0
  160.9580  204.4380  151.7220 C   0  0  0  0  0  0  0  0  0  0  0  0
  160.7440  204.5500  149.2500 C   0  0  0  0  0  3  0  0  0  0  0  0
  161.2260  201.1290  148.5050 C   0  0  0  0  0  3  0  0  0  0  0  0
  160.9780  202.3460  148.0210 C   0  0  0  0  0  0  0  0  0  0  0  0
  161.1650  202.3980  150.2900 C   0  0  0  0  0  0  0  0  0  0  0  0
  161.3410  201.1650  149.9380 N   0  0  0  0  0  0  0  0  0  0  0  0
  161.2180  202.9310  151.6850 C   0  0  0  0  0  2  0  0  0  0  0  0
  160.7540  205.1570  150.5990 C   0  0  0  0  0  3  0  0  0  0  0  0
  160.8430  202.7010  146.5780 C   0  0  0  0  0  2  0  0  0  0  0  0
  161.3630  204.5540  144.9850 C   0  0  0  0  0  2  0  0  0  0  0  0
  161.0060  205.1930  146.2720 N   0  0  0  0  0  0  0  0  0  0  0  0
  161.7180  203.8930  146.2280 C   0  0  1  0  0  0  0  0  0  0  0  0
  163.2230  203.8540  146.5230 C   0  0  0  0  0  1  0  0  0  0  0  0
  161.9190  206.3190  146.4380 C   0  0  0  0  0  2  0  0  0  0  0  0
  161.2720  207.3750  147.3210 C   0  0  0  0  0  2  0  0  0  0  0  0
  162.0120  207.5310  148.4950 O   0  0  0  0  0  0  0  0  0  0  0  0
  162.1080  208.9040  148.6700 C   0  0  0  0  0  1  0  0  0  0  0  0
  3  2  1  6  0  0  0
  3  4  1  0  0  0  0
  3  1  1  0  0  0  0
  4  6  1  0  0  0  0
  6  5  2  0  0  0  0
  6  7  1  0  0  0  0
  8  7  1  0  0  0  0
  9 10  1  6  0  0  0
  9 14  1  0  0  0  0
  9 15  1  0  0  0  0
  9 13  1  0  0  0  0
 11 16  2  0  0  0  0
 12 11  1  0  0  0  0
 12 10  2  0  0  0  0
 13  8  1  6  0  0  0
 14 20  1  6  0  0  0
 15 13  1  0  0  0  0
 16 14  1  0  0  0  0
 17 19  2  0  0  0  0
 18 19  1  0  0  0  0
 19 11  1  0  0  0  0
 20 22  1  0  0  0  0
 21 22  2  0  0  0  0
 22 23  1  0  0  0  0
 24  3  1  0  0  0  0
 25 27  2  0  0  0  0
 25 30  1  0  0  0  0
 26 24  1  0  0  0  0
 27 33  1  0  0  0  0
 28 31  1  0  0  0  0
 29 28  2  0  0  0  0
 29 25  1  0  0  0  0
 30 32  1  0  0  0  0
 31 30  2  0  0  0  0
 32 26  1  0  0  0  0
 33 26  2  0  0  0  0
 34 29  1  0  0  0  0
 35 37  1  0  0  0  0
 35 36  1  0  0  0  0
 36 39  1  0  0  0  0
 37 36  1  0  0  0  0
 37 38  1  1  0  0  0
 37 34  1  0  0  0  0
 39 40  1  0  0  0  0
 40 41  1  0  0  0  0
 41 42  1  0  0  0  0
M  END
>  <MODEL>
2

>  <REMARK>
 VINA RESULT:      -7.1      5.830     10.226
  Name = 
  15 active torsions:
  status: ('A' for Active; 'I' for Inactive)
    1  A    between atoms: C_3  and  O_39
    2  A    between atoms: O_7  and  C_13
    3  A    between atoms: C_9  and  C_38
    4  A    between atoms: C_13  and  C_22
    5  A    between atoms: C_14  and  O_33
    6  A    between atoms: C_14  and  C_35
    7  A    between atoms: C_16  and  C_41
    8  A    between atoms: C_17  and  C_21
    9  A    between atoms: C_17  and  C_29
   10  A    between atoms: N_19  and  C_22
   11  A    between atoms: C_23  and  C_25
   12  A    between atoms: C_23  and  O_33
   13  A    between atoms: C_32  and  C_35
   14  A    between atoms: C_32  and  O_39
   15  A    between atoms: C_36  and  C_41
                            x       y       z     vdW  Elec       q    Type
                         _______ _______ _______ _____ _____    ______ ____

>  <TORSDO>
F 15

$$$$
=
 OpenBabel11072411013D

 42 46  0  0  1  0  0  0  0  0999 V2000
  162.4020  212.4950  146.0070 F   0  0  0  0  0  0  0  0  0  0  0  0
  163.1190  212.6910  148.2600 C   0  0  0  0  0  1  0  0  0  0  0  0
  161.9410  212.5260  147.3140 C   0  0  2  0  0  0  0  0  0  0  0  0
  161.2480  211.2070  147.6390 C   0  0  0  0  0  2  0  0  0  0  0  0
  161.8160  211.0300  149.9480 O   0  0  0  0  0  0  0  0  0  0  0  0
  161.8980  210.5140  148.8050 C   0  0  0  0  0  0  0  0  0  0  0  0
  162.6430  209.3430  148.6350 O   0  0  0  0  0  0  0  0  0  0  0  0
  162.1150  208.1980  147.9830 C   0  0  0  0  0  2  0  0  0  0  0  0
  161.3100  205.9180  148.7250 C   0  0  2  0  0  0  0  0  0  0  0  0
  162.1390  205.3100  147.6290 C   0  0  0  0  0  3  0  0  0  0  0  0
  161.2270  203.1190  148.2680 C   0  0  0  0  0  0  0  0  0  0  0  0
  162.0720  203.9930  147.4190 C   0  0  0  0  0  3  0  0  0  0  0  0
  161.2210  207.4250  148.9390 C   0  0  2  0  0  3  0  0  0  0  0  0
  160.9080  205.0110  149.8880 C   0  0  1  0  0  3  0  0  0  0  0  0
  160.1330  206.6930  148.1670 C   0  0  0  0  0  2  0  0  0  0  0  0
  160.6630  203.6030  149.3890 C   0  0  0  0  0  3  0  0  0  0  0  0
  161.1340  200.7880  148.7020 O   0  0  0  0  0  0  0  0  0  0  0  0
  160.6130  201.3730  146.4580 C   0  0  0  0  0  1  0  0  0  0  0  0
  160.9970  201.7190  147.8610 C   0  0  0  0  0  0  0  0  0  0  0  0
  162.0150  205.0090  150.9360 C   0  0  0  0  0  2  0  0  0  0  0  0
  160.8440  204.1960  152.8140 O   0  0  0  0  0  0  0  0  0  0  0  0
  161.4520  205.1300  152.3130 C   0  0  0  0  0  0  0  0  0  0  0  0
  161.6320  206.3960  153.0740 C   0  0  0  0  0  1  0  0  0  0  0  0
  161.0170  213.6040  147.4900 O   0  0  0  0  0  0  0  0  0  0  0  0
  158.5900  214.0460  150.9250 C   0  0  0  0  0  0  0  0  0  0  0  0
  160.1500  213.7530  148.5800 C   0  0  0  0  0  0  0  0  0  0  0  0
  159.9050  214.2020  151.0110 C   0  0  0  0  0  3  0  0  0  0  0  0
  156.3940  213.8940  151.2700 C   0  0  0  0  0  3  0  0  0  0  0  0
  157.5390  214.1190  151.9140 C   0  0  2  0  0  3  0  0  0  0  0  0
  157.9150  213.7410  149.7000 C   0  0  0  0  0  0  0  0  0  0  0  0
  156.6360  213.6530  149.8730 N   0  0  0  0  0  0  0  0  0  0  0  0
  158.6400  213.5890  148.4030 C   0  0  0  0  0  3  0  0  0  0  0  0
  160.7040  214.0420  149.7760 C   0  0  0  0  0  3  0  0  0  0  0  0
  157.6750  214.4520  153.3630 C   0  0  0  0  0  2  0  0  0  0  0  0
  158.3510  212.0490  153.4140 C   0  0  0  0  0  2  0  0  0  0  0  0
  159.3430  212.7820  154.2320 N   0  0  0  0  0  0  0  0  0  0  0  0
  157.9210  213.2000  154.1870 C   0  0  1  0  0  0  0  0  0  0  0  0
  157.0060  212.8670  155.3720 C   0  0  0  0  0  1  0  0  0  0  0  0
  159.6350  211.9330  155.3820 C   0  0  0  0  0  2  0  0  0  0  0  0
  160.9400  211.1870  155.1490 C   0  0  0  0  0  2  0  0  0  0  0  0
  160.7440  209.8170  155.3350 O   0  0  0  0  0  0  0  0  0  0  0  0
  159.5860  209.7280  156.0940 C   0  0  0  0  0  1  0  0  0  0  0  0
  1  3  1  0  0  0  0
  3 24  1  0  0  0  0
  3  4  1  0  0  0  0
  3  2  1  1  0  0  0
  4  6  1  0  0  0  0
  6  5  2  0  0  0  0
  7  6  1  0  0  0  0
  8  7  1  0  0  0  0
  9 10  1  6  0  0  0
  9 13  1  0  0  0  0
  9 14  1  0  0  0  0
 11 16  2  0  0  0  0
 12 10  2  0  0  0  0
 12 11  1  0  0  0  0
 13  8  1  6  0  0  0
 14 20  1  1  0  0  0
 15  9  1  0  0  0  0
 15 13  1  0  0  0  0
 16 14  1  0  0  0  0
 18 19  1  0  0  0  0
 19 11  1  0  0  0  0
 19 17  2  0  0  0  0
 20 22  1  0  0  0  0
 22 21  2  0  0  0  0
 22 23  1  0  0  0  0
 24 26  1  0  0  0  0
 25 27  1  0  0  0  0
 25 29  1  0  0  0  0
 26 33  1  0  0  0  0
 28 29  1  0  0  0  0
 29 34  1  6  0  0  0
 30 31  1  0  0  0  0
 30 25  2  0  0  0  0
 31 28  2  0  0  0  0
 32 26  2  0  0  0  0
 32 30  1  0  0  0  0
 33 27  2  0  0  0  0
 34 37  1  0  0  0  0
 35 37  1  0  0  0  0
 35 36  1  0  0  0  0
 36 39  1  0  0  0  0
 37 36  1  0  0  0  0
 37 38  1  1  0  0  0
 40 41  1  0  0  0  0
 40 39  1  0  0  0  0
 41 42  1  0  0  0  0
M  END
>  <MODEL>
3

>  <REMARK>
 VINA RESULT:      -6.6      4.935      8.458
  Name = 
  15 active torsions:
  status: ('A' for Active; 'I' for Inactive)
    1  A    between atoms: C_3  and  O_39
    2  A    between atoms: O_7  and  C_13
    3  A    between atoms: C_9  and  C_38
    4  A    between atoms: C_13  and  C_22
    5  A    between atoms: C_14  and  O_33
    6  A    between atoms: C_14  and  C_35
    7  A    between atoms: C_16  and  C_41
    8  A    between atoms: C_17  and  C_21
    9  A    between atoms: C_17  and  C_29
   10  A    between atoms: N_19  and  C_22
   11  A    between atoms: C_23  and  C_25
   12  A    between atoms: C_23  and  O_33
   13  A    between atoms: C_32  and  C_35
   14  A    between atoms: C_32  and  O_39
   15  A    between atoms: C_36  and  C_41
                            x       y       z     vdW  Elec       q    Type
                         _______ _______ _______ _____ _____    ______ ____

>  <TORSDO>
F 15

$$$$
=
 OpenBabel11072411013D

 42 46  0  0  1  0  0  0  0  0999 V2000
  160.1150  206.0650  151.1830 F   0  0  0  0  0  0  0  0  0  0  0  0
  161.9790  206.6670  149.8440 C   0  0  0  0  0  1  0  0  0  0  0  0
  161.5010  206.0640  151.1550 C   0  0  2  0  0  0  0  0  0  0  0  0
  162.0080  204.6270  151.2330 C   0  0  0  0  0  2  0  0  0  0  0  0
  160.7500  204.2540  153.2240 O   0  0  0  0  0  0  0  0  0  0  0  0
  161.1410  203.7830  152.1250 C   0  0  0  0  0  0  0  0  0  0  0  0
  160.8120  202.4670  151.7890 O   0  0  0  0  0  0  0  0  0  0  0  0
  161.5820  201.7040  150.8730 C   0  0  0  0  0  2  0  0  0  0  0  0
  160.9390  202.0050  148.4450 C   0  0  2  0  0  0  0  0  0  0  0  0
  161.8910  203.1650  148.3750 C   0  0  0  0  0  3  0  0  0  0  0  0
  161.1410  203.5350  146.0640 C   0  0  0  0  0  0  0  0  0  0  0  0
  161.9570  203.8840  147.2520 C   0  0  0  0  0  3  0  0  0  0  0  0
  160.7010  201.2220  149.7330 C   0  0  2  0  0  3  0  0  0  0  0  0
  160.5450  201.3390  147.1270 C   0  0  1  0  0  3  0  0  0  0  0  0
  159.7370  202.3230  149.3110 C   0  0  0  0  0  2  0  0  0  0  0  0
  160.4620  202.3730  146.0260 C   0  0  0  0  0  3  0  0  0  0  0  0
  160.1120  204.4040  144.1110 O   0  0  0  0  0  0  0  0  0  0  0  0
  162.1100  205.5320  144.7330 C   0  0  0  0  0  1  0  0  0  0  0  0
  161.0650  204.4810  144.9340 C   0  0  0  0  0  0  0  0  0  0  0  0
  161.5750  200.2740  146.7670 C   0  0  0  0  0  2  0  0  0  0  0  0
  160.2960  199.8720  144.8280 O   0  0  0  0  0  0  0  0  0  0  0  0
  161.1010  199.4280  145.6330 C   0  0  0  0  0  0  0  0  0  0  0  0
  161.6120  198.0370  145.4870 C   0  0  0  0  0  1  0  0  0  0  0  0
  162.0220  206.8110  152.2580 O   0  0  0  0  0  0  0  0  0  0  0  0
  160.0900  210.0700  154.1370 C   0  0  0  0  0  0  0  0  0  0  0  0
  161.4170  207.9380  152.8270 C   0  0  0  0  0  0  0  0  0  0  0  0
  160.1470  208.8890  154.7390 C   0  0  0  0  0  3  0  0  0  0  0  0
  159.7540  212.1910  153.5440 C   0  0  0  0  0  3  0  0  0  0  0  0
  159.4940  211.3280  154.5260 C   0  0  2  0  0  3  0  0  0  0  0  0
  160.6730  210.3260  152.8550 C   0  0  0  0  0  0  0  0  0  0  0  0
  160.4960  211.5540  152.4900 N   0  0  0  0  0  0  0  0  0  0  0  0
  161.4150  209.2780  152.0890 C   0  0  0  0  0  3  0  0  0  0  0  0
  160.8410  207.7860  154.0370 C   0  0  0  0  0  3  0  0  0  0  0  0
  158.7860  211.6430  155.8020 C   0  0  0  0  0  2  0  0  0  0  0  0
  156.5920  212.5130  156.6190 C   0  0  0  0  0  2  0  0  0  0  0  0
  156.8590  213.1880  155.3290 N   0  0  0  0  0  0  0  0  0  0  0  0
  157.2920  211.7900  155.5710 C   0  0  1  0  0  0  0  0  0  0  0  0
  156.4940  210.6400  154.9460 C   0  0  0  0  0  1  0  0  0  0  0  0
  155.5790  213.2570  154.6300 C   0  0  0  0  0  2  0  0  0  0  0  0
  155.5770  214.4480  153.6840 C   0  0  0  0  0  2  0  0  0  0  0  0
  156.6660  214.3640  152.8130 O   0  0  0  0  0  0  0  0  0  0  0  0
  156.1080  214.4430  151.5450 C   0  0  0  0  0  1  0  0  0  0  0  0
  3  2  1  6  0  0  0
  3  1  1  0  0  0  0
  3  4  1  0  0  0  0
  3 24  1  0  0  0  0
  4  6  1  0  0  0  0
  6  5  2  0  0  0  0
  7  6  1  0  0  0  0
  8  7  1  0  0  0  0
  9 10  1  6  0  0  0
  9 15  1  0  0  0  0
  9 13  1  0  0  0  0
 11 12  1  0  0  0  0
 12 10  2  0  0  0  0
 13  8  1  1  0  0  0
 14 20  1  6  0  0  0
 14  9  1  0  0  0  0
 15 13  1  0  0  0  0
 16 11  2  0  0  0  0
 16 14  1  0  0  0  0
 17 19  2  0  0  0  0
 18 19  1  0  0  0  0
 19 11  1  0  0  0  0
 21 22  2  0  0  0  0
 22 20  1  0  0  0  0
 23 22  1  0  0  0  0
 24 26  1  0  0  0  0
 25 29  1  0  0  0  0
 25 27  1  0  0  0  0
 26 33  1  0  0  0  0
 28 29  1  0  0  0  0
 29 34  1  1  0  0  0
 30 25  2  0  0  0  0
 31 30  1  0  0  0  0
 31 28  2  0  0  0  0
 32 26  2  0  0  0  0
 32 30  1  0  0  0  0
 33 27  2  0  0  0  0
 36 37  1  0  0  0  0
 36 35  1  0  0  0  0
 37 38  1  6  0  0  0
 37 34  1  0  0  0  0
 37 35  1  0  0  0  0
 39 36  1  0  0  0  0
 40 39  1  0  0  0  0
 41 40  1  0  0  0  0
 42 41  1  0  0  0  0
M  END
>  <MODEL>
4

>  <REMARK>
 VINA RESULT:      -6.4      6.110     10.400
  Name = 
  15 active torsions:
  status: ('A' for Active; 'I' for Inactive)
    1  A    between atoms: C_3  and  O_39
    2  A    between atoms: O_7  and  C_13
    3  A    between atoms: C_9  and  C_38
    4  A    between atoms: C_13  and  C_22
    5  A    between atoms: C_14  and  O_33
    6  A    between atoms: C_14  and  C_35
    7  A    between atoms: C_16  and  C_41
    8  A    between atoms: C_17  and  C_21
    9  A    between atoms: C_17  and  C_29
   10  A    between atoms: N_19  and  C_22
   11  A    between atoms: C_23  and  C_25
   12  A    between atoms: C_23  and  O_33
   13  A    between atoms: C_32  and  C_35
   14  A    between atoms: C_32  and  O_39
   15  A    between atoms: C_36  and  C_41
                            x       y       z     vdW  Elec       q    Type
                         _______ _______ _______ _____ _____    ______ ____

>  <TORSDO>
F 15

$$$$
=
 OpenBabel11072411013D

 42 46  0  0  1  0  0  0  0  0999 V2000
  160.9260  206.0890  149.8950 F   0  0  0  0  0  0  0  0  0  0  0  0
  162.6310  207.2410  151.0770 C   0  0  0  0  0  1  0  0  0  0  0  0
  161.5240  206.2010  151.1400 C   0  0  2  0  0  0  0  0  0  0  0  0
  162.1480  204.8620  151.5240 C   0  0  0  0  0  2  0  0  0  0  0  0
  160.9590  204.2550  153.5000 O   0  0  0  0  0  0  0  0  0  0  0  0
  161.1810  204.0010  152.2890 C   0  0  0  0  0  0  0  0  0  0  0  0
  160.5720  202.8890  151.7000 O   0  0  0  0  0  0  0  0  0  0  0  0
  161.3070  201.9240  150.9660 C   0  0  0  0  0  2  0  0  0  0  0  0
  160.8600  202.2100  148.4920 C   0  0  2  0  0  0  0  0  0  0  0  0
  161.8580  203.3330  148.4800 C   0  0  0  0  0  3  0  0  0  0  0  0
  161.2980  203.6940  146.1140 C   0  0  0  0  0  0  0  0  0  0  0  0
  162.0360  204.0310  147.3560 C   0  0  0  0  0  3  0  0  0  0  0  0
  160.4960  201.4570  149.7680 C   0  0  2  0  0  3  0  0  0  0  0  0
  160.5400  201.5380  147.1570 C   0  0  1  0  0  3  0  0  0  0  0  0
  159.6100  202.5860  149.2610 C   0  0  0  0  0  2  0  0  0  0  0  0
  160.5800  202.5580  146.0400 C   0  0  0  0  0  3  0  0  0  0  0  0
  160.4850  204.5340  144.0490 O   0  0  0  0  0  0  0  0  0  0  0  0
  162.4020  205.6760  144.8680 C   0  0  0  0  0  1  0  0  0  0  0  0
  161.3430  204.6240  144.9700 C   0  0  0  0  0  0  0  0  0  0  0  0
  161.5530  200.4310  146.8900 C   0  0  0  0  0  2  0  0  0  0  0  0
  160.2910  199.9720  144.9520 O   0  0  0  0  0  0  0  0  0  0  0  0
  161.1160  199.5650  145.7550 C   0  0  0  0  0  0  0  0  0  0  0  0
  161.6890  198.1990  145.6080 C   0  0  0  0  0  1  0  0  0  0  0  0
  160.5570  206.5730  152.1260 O   0  0  0  0  0  0  0  0  0  0  0  0
  161.1590  209.5890  155.0280 C   0  0  0  0  0  0  0  0  0  0  0  0
  160.7610  207.5150  153.1420 C   0  0  0  0  0  0  0  0  0  0  0  0
  160.7200  209.9050  153.8170 C   0  0  0  0  0  3  0  0  0  0  0  0
  161.8540  209.5510  157.1450 C   0  0  0  0  0  3  0  0  0  0  0  0
  161.4650  210.3950  156.1880 C   0  0  0  0  0  0  0  0  0  0  0  0
  161.4370  208.2450  155.4350 C   0  0  0  0  0  0  0  0  0  0  0  0
  161.8380  208.1960  156.6640 N   0  0  0  0  0  0  0  0  0  0  0  0
  161.2400  207.0760  154.5260 C   0  0  0  0  0  2  0  0  0  0  0  0
  160.5220  208.8080  152.8430 C   0  0  0  0  0  3  0  0  0  0  0  0
  161.3130  211.8720  156.3350 C   0  0  0  0  0  2  0  0  0  0  0  0
  159.6140  213.7010  156.4160 C   0  0  0  0  0  2  0  0  0  0  0  0
  159.5130  213.0930  155.0710 N   0  0  0  0  0  0  0  0  0  0  0  0
  159.8500  212.2770  156.2620 C   0  0  1  0  0  0  0  0  0  0  0  0
  158.7730  211.3810  156.8850 C   0  0  0  0  0  1  0  0  0  0  0  0
  158.0900  213.0420  154.7500 C   0  0  0  0  0  2  0  0  0  0  0  0
  157.8930  213.2880  153.2620 C   0  0  0  0  0  2  0  0  0  0  0  0
  158.5320  212.2880  152.5260 O   0  0  0  0  0  0  0  0  0  0  0  0
  159.1560  212.9610  151.4860 C   0  0  0  0  0  1  0  0  0  0  0  0
  1  3  1  0  0  0  0
  3  2  1  6  0  0  0
  3  4  1  0  0  0  0
  3 24  1  0  0  0  0
  4  6  1  0  0  0  0
  6  5  2  0  0  0  0
  7  6  1  0  0  0  0
  8  7  1  0  0  0  0
  9 10  1  1  0  0  0
  9 15  1  0  0  0  0
  9 13  1  0  0  0  0
 11 12  1  0  0  0  0
 12 10  2  0  0  0  0
 13  8  1  1  0  0  0
 14 20  1  6  0  0  0
 14  9  1  0  0  0  0
 15 13  1  0  0  0  0
 16 11  2  0  0  0  0
 16 14  1  0  0  0  0
 17 19  2  0  0  0  0
 18 19  1  0  0  0  0
 19 11  1  0  0  0  0
 21 22  2  0  0  0  0
 22 20  1  0  0  0  0
 23 22  1  0  0  0  0
 24 26  1  0  0  0  0
 25 30  1  0  0  0  0
 25 29  1  0  0  0  0
 26 32  1  0  0  0  0
 27 25  2  0  0  0  0
 29 34  1  0  0  0  0
 29 28  2  0  0  0  0
 30 31  2  0  0  0  0
 31 28  1  0  0  0  0
 32 30  1  0  0  0  0
 33 26  2  0  0  0  0
 33 27  1  0  0  0  0
 36 37  1  0  0  0  0
 36 35  1  0  0  0  0
 37 34  1  0  0  0  0
 37 35  1  0  0  0  0
 37 38  1  1  0  0  0
 39 36  1  0  0  0  0
 40 39  1  0  0  0  0
 41 40  1  0  0  0  0
 42 41  1  0  0  0  0
M  END
>  <MODEL>
5

>  <REMARK>
 VINA RESULT:      -6.3      6.239     10.613
  Name = 
  15 active torsions:
  status: ('A' for Active; 'I' for Inactive)
    1  A    between atoms: C_3  and  O_39
    2  A    between atoms: O_7  and  C_13
    3  A    between atoms: C_9  and  C_38
    4  A    between atoms: C_13  and  C_22
    5  A    between atoms: C_14  and  O_33
    6  A    between atoms: C_14  and  C_35
    7  A    between atoms: C_16  and  C_41
    8  A    between atoms: C_17  and  C_21
    9  A    between atoms: C_17  and  C_29
   10  A    between atoms: N_19  and  C_22
   11  A    between atoms: C_23  and  C_25
   12  A    between atoms: C_23  and  O_33
   13  A    between atoms: C_32  and  C_35
   14  A    between atoms: C_32  and  O_39
   15  A    between atoms: C_36  and  C_41
                            x       y       z     vdW  Elec       q    Type
                         _______ _______ _______ _____ _____    ______ ____

>  <TORSDO>
F 15

$$$$
=
 OpenBabel11072411013D

 42 46  0  0  1  0  0  0  0  0999 V2000
  162.9110  212.2310  149.0240 F   0  0  0  0  0  0  0  0  0  0  0  0
  161.0970  213.7440  149.2510 C   0  0  0  0  0  1  0  0  0  0  0  0
  161.5260  212.3010  149.0430 C   0  0  2  0  0  0  0  0  0  0  0  0
  160.9940  211.4720  150.2080 C   0  0  0  0  0  2  0  0  0  0  0  0
  162.6660  210.5510  151.6370 O   0  0  0  0  0  0  0  0  0  0  0  0
  161.9630  210.3930  150.6070 C   0  0  0  0  0  0  0  0  0  0  0  0
  162.1450  209.2490  149.8230 O   0  0  0  0  0  0  0  0  0  0  0  0
  162.6020  208.0220  150.3700 C   0  0  0  0  0  2  0  0  0  0  0  0
  161.5390  206.1260  149.0760 C   0  0  2  0  0  0  0  0  0  0  0  0
  162.5510  206.3510  147.9880 C   0  0  0  0  0  3  0  0  0  0  0  0
  161.4110  204.6090  146.6820 C   0  0  0  0  0  0  0  0  0  0  0  0
  162.4610  205.6400  146.8620 C   0  0  0  0  0  3  0  0  0  0  0  0
  161.4860  206.9920  150.3310 C   0  0  2  0  0  3  0  0  0  0  0  0
  160.8520  204.7620  149.1260 C   0  0  1  0  0  3  0  0  0  0  0  0
  160.5510  207.2710  149.1630 C   0  0  0  0  0  2  0  0  0  0  0  0
  160.6460  204.2320  147.7240 C   0  0  0  0  0  3  0  0  0  0  0  0
  160.9570  202.7810  145.2390 O   0  0  0  0  0  0  0  0  0  0  0  0
  161.2790  204.8480  144.1080 C   0  0  0  0  0  1  0  0  0  0  0  0
  161.1990  204.0150  145.3480 C   0  0  0  0  0  0  0  0  0  0  0  0
  161.7070  203.7910  149.9310 C   0  0  0  0  0  2  0  0  0  0  0  0
  160.2940  203.1540  151.7080 O   0  0  0  0  0  0  0  0  0  0  0  0
  160.8570  202.8170  150.6780 C   0  0  0  0  0  0  0  0  0  0  0  0
  160.7020  201.4290  150.1630 C   0  0  0  0  0  1  0  0  0  0  0  0
  160.9850  211.7990  147.8180 O   0  0  0  0  0  0  0  0  0  0  0  0
  161.2890  213.4970  143.9570 C   0  0  0  0  0  0  0  0  0  0  0  0
  161.1580  212.3870  146.5590 C   0  0  0  0  0  0  0  0  0  0  0  0
  160.1150  213.0810  144.4140 C   0  0  0  0  0  3  0  0  0  0  0  0
  162.9940  214.3260  142.7860 C   0  0  0  0  0  3  0  0  0  0  0  0
  161.6850  214.0870  142.6980 C   0  0  0  0  0  0  0  0  0  0  0  0
  162.4990  213.4180  144.7170 C   0  0  0  0  0  0  0  0  0  0  0  0
  163.5050  213.8990  144.0600 N   0  0  0  0  0  0  0  0  0  0  0  0
  162.5370  212.8720  146.1080 C   0  0  0  0  0  2  0  0  0  0  0  0
  160.0660  212.5010  145.7750 C   0  0  0  0  0  3  0  0  0  0  0  0
  160.8080  214.4390  141.5430 C   0  0  0  0  0  2  0  0  0  0  0  0
  160.4440  213.4170  139.2930 C   0  0  0  0  0  2  0  0  0  0  0  0
  161.5820  212.6950  139.9040 N   0  0  0  0  0  0  0  0  0  0  0  0
  160.4610  213.2030  140.7300 C   0  0  1  0  0  0  0  0  0  0  0  0
  159.4020  212.2200  141.2410 C   0  0  0  0  0  1  0  0  0  0  0  0
  161.4150  211.2890  139.5490 C   0  0  0  0  0  2  0  0  0  0  0  0
  162.6050  210.8260  138.7210 C   0  0  0  0  0  2  0  0  0  0  0  0
  162.2030  209.8340  137.8260 O   0  0  0  0  0  0  0  0  0  0  0  0
  160.8510  210.0730  137.6190 C   0  0  0  0  0  1  0  0  0  0  0  0
  1  3  1  0  0  0  0
  3  2  1  1  0  0  0
  3  4  1  0  0  0  0
  4  6  1  0  0  0  0
  6  5  2  0  0  0  0
  7  8  1  0  0  0  0
  7  6  1  0  0  0  0
  9 10  1  6  0  0  0
  9 14  1  0  0  0  0
  9 15  1  0  0  0  0
  9 13  1  0  0  0  0
 11 12  1  0  0  0  0
 11 16  2  0  0  0  0
 12 10  2  0  0  0  0
 13  8  1  6  0  0  0
 14 20  1  1  0  0  0
 15 13  1  0  0  0  0
 16 14  1  0  0  0  0
 17 19  2  0  0  0  0
 18 19  1  0  0  0  0
 19 11  1  0  0  0  0
 20 22  1  0  0  0  0
 22 21  2  0  0  0  0
 23 22  1  0  0  0  0
 24  3  1  0  0  0  0
 25 27  2  0  0  0  0
 25 30  1  0  0  0  0
 26 24  1  0  0  0  0
 27 33  1  0  0  0  0
 28 31  1  0  0  0  0
 29 28  2  0  0  0  0
 29 25  1  0  0  0  0
 30 32  1  0  0  0  0
 31 30  2  0  0  0  0
 32 26  1  0  0  0  0
 33 26  2  0  0  0  0
 34 29  1  0  0  0  0
 35 36  1  0  0  0  0
 35 37  1  0  0  0  0
 36 37  1  0  0  0  0
 37 38  1  1  0  0  0
 37 34  1  0  0  0  0
 39 36  1  0  0  0  0
 40 39  1  0  0  0  0
 41 40  1  0  0  0  0
 42 41  1  0  0  0  0
M  END
>  <MODEL>
6

>  <REMARK>
 VINA RESULT:      -6.0      1.627      2.145
  Name = 
  15 active torsions:
  status: ('A' for Active; 'I' for Inactive)
    1  A    between atoms: C_3  and  O_39
    2  A    between atoms: O_7  and  C_13
    3  A    between atoms: C_9  and  C_38
    4  A    between atoms: C_13  and  C_22
    5  A    between atoms: C_14  and  O_33
    6  A    between atoms: C_14  and  C_35
    7  A    between atoms: C_16  and  C_41
    8  A    between atoms: C_17  and  C_21
    9  A    between atoms: C_17  and  C_29
   10  A    between atoms: N_19  and  C_22
   11  A    between atoms: C_23  and  C_25
   12  A    between atoms: C_23  and  O_33
   13  A    between atoms: C_32  and  C_35
   14  A    between atoms: C_32  and  O_39
   15  A    between atoms: C_36  and  C_41
                            x       y       z     vdW  Elec       q    Type
                         _______ _______ _______ _____ _____    ______ ____

>  <TORSDO>
F 15

$$$$
=
 OpenBabel11072411013D

 42 46  0  0  1  0  0  0  0  0999 V2000
  162.7190  206.3410  153.0060 F   0  0  0  0  0  0  0  0  0  0  0  0
  161.6590  205.2190  151.2040 C   0  0  0  0  0  1  0  0  0  0  0  0
  162.0230  206.5570  151.8260 C   0  0  2  0  0  0  0  0  0  0  0  0
  162.9130  207.3130  150.8440 C   0  0  0  0  0  2  0  0  0  0  0  0
  161.0390  208.4110  149.8600 O   0  0  0  0  0  0  0  0  0  0  0  0
  162.1290  207.8160  149.6640 C   0  0  0  0  0  0  0  0  0  0  0  0
  162.5540  207.5820  148.3530 O   0  0  0  0  0  0  0  0  0  0  0  0
  161.6480  207.2660  147.3080 C   0  0  0  0  0  2  0  0  0  0  0  0
  161.7880  204.7760  146.8880 C   0  0  2  0  0  0  0  0  0  0  0  0
  160.9410  204.5600  148.1090 C   0  0  0  0  0  3  0  0  0  0  0  0
  161.2160  202.1410  147.7710 C   0  0  0  0  0  0  0  0  0  0  0  0
  160.6990  203.3120  148.5190 C   0  0  0  0  0  3  0  0  0  0  0  0
  162.2270  206.1650  146.4360 C   0  0  2  0  0  3  0  0  0  0  0  0
  161.8410  203.6460  145.8600 C   0  0  1  0  0  3  0  0  0  0  0  0
  163.1670  205.2880  147.2510 C   0  0  0  0  0  2  0  0  0  0  0  0
  161.7740  202.3050  146.5570 C   0  0  0  0  0  3  0  0  0  0  0  0
  161.3820  199.7760  147.6830 O   0  0  0  0  0  0  0  0  0  0  0  0
  160.7320  200.6190  149.8080 C   0  0  0  0  0  1  0  0  0  0  0  0
  161.1290  200.7990  148.3770 C   0  0  0  0  0  0  0  0  0  0  0  0
  160.6750  203.7880  144.8880 C   0  0  0  0  0  2  0  0  0  0  0  0
  159.7680  205.9640  144.8800 O   0  0  0  0  0  0  0  0  0  0  0  0
  160.5660  205.1870  144.3790 C   0  0  0  0  0  0  0  0  0  0  0  0
  161.4350  205.6310  143.2540 C   0  0  0  0  0  1  0  0  0  0  0  0
  160.8390  207.3190  152.0780 O   0  0  0  0  0  0  0  0  0  0  0  0
  160.4360  210.3100  155.0400 C   0  0  0  0  0  0  0  0  0  0  0  0
  160.6860  208.2520  153.1100 C   0  0  0  0  0  0  0  0  0  0  0  0
  160.5210  210.6450  153.7580 C   0  0  0  0  0  3  0  0  0  0  0  0
  160.2510  210.2440  157.2590 C   0  0  0  0  0  3  0  0  0  0  0  0
  160.3120  211.1030  156.2420 C   0  0  0  0  0  0  0  0  0  0  0  0
  160.4580  208.9550  155.4990 C   0  0  0  0  0  0  0  0  0  0  0  0
  160.3470  208.8890  156.7860 N   0  0  0  0  0  0  0  0  0  0  0  0
  160.5630  207.7940  154.5640 C   0  0  0  0  0  2  0  0  0  0  0  0
  160.6550  209.5560  152.7650 C   0  0  0  0  0  3  0  0  0  0  0  0
  160.1980  212.5880  156.3440 C   0  0  0  0  0  2  0  0  0  0  0  0
  157.7260  212.2380  156.2920 C   0  0  0  0  0  2  0  0  0  0  0  0
  157.9520  213.5490  156.9410 N   0  0  0  0  0  0  0  0  0  0  0  0
  158.8390  213.0630  155.8580 C   0  0  1  0  0  0  0  0  0  0  0  0
  158.6900  213.6480  154.4480 C   0  0  0  0  0  1  0  0  0  0  0  0
  156.9070  214.4390  156.4440 C   0  0  0  0  0  2  0  0  0  0  0  0
  155.6350  213.6440  156.1930 C   0  0  0  0  0  2  0  0  0  0  0  0
  154.7180  214.4250  155.4890 O   0  0  0  0  0  0  0  0  0  0  0  0
  154.9690  214.1450  154.1530 C   0  0  0  0  0  1  0  0  0  0  0  0
  3  2  1  6  0  0  0
  3 24  1  0  0  0  0
  3  1  1  0  0  0  0
  4  3  1  0  0  0  0
  6  5  2  0  0  0  0
  6  4  1  0  0  0  0
  7  6  1  0  0  0  0
  8  7  1  0  0  0  0
  9 15  1  1  0  0  0
  9 10  1  0  0  0  0
 10 12  2  0  0  0  0
 11 19  1  0  0  0  0
 11 12  1  0  0  0  0
 13  9  1  0  0  0  0
 13 15  1  0  0  0  0
 13  8  1  1  0  0  0
 14 20  1  6  0  0  0
 14 16  1  0  0  0  0
 14  9  1  0  0  0  0
 16 11  2  0  0  0  0
 17 19  2  0  0  0  0
 19 18  1  0  0  0  0
 22 21  2  0  0  0  0
 22 20  1  0  0  0  0
 23 22  1  0  0  0  0
 24 26  1  0  0  0  0
 25 30  1  0  0  0  0
 25 29  1  0  0  0  0
 26 32  1  0  0  0  0
 27 25  2  0  0  0  0
 29 34  1  0  0  0  0
 29 28  2  0  0  0  0
 30 31  2  0  0  0  0
 31 28  1  0  0  0  0
 32 30  1  0  0  0  0
 33 26  2  0  0  0  0
 33 27  1  0  0  0  0
 35 36  1  0  0  0  0
 37 38  1  6  0  0  0
 37 35  1  0  0  0  0
 37 34  1  0  0  0  0
 37 36  1  0  0  0  0
 39 36  1  0  0  0  0
 40 39  1  0  0  0  0
 41 40  1  0  0  0  0
 42 41  1  0  0  0  0
M  END
>  <MODEL>
7

>  <REMARK>
 VINA RESULT:      -5.4      6.074     10.734
  Name = 
  15 active torsions:
  status: ('A' for Active; 'I' for Inactive)
    1  A    between atoms: C_3  and  O_39
    2  A    between atoms: O_7  and  C_13
    3  A    between atoms: C_9  and  C_38
    4  A    between atoms: C_13  and  C_22
    5  A    between atoms: C_14  and  O_33
    6  A    between atoms: C_14  and  C_35
    7  A    between atoms: C_16  and  C_41
    8  A    between atoms: C_17  and  C_21
    9  A    between atoms: C_17  and  C_29
   10  A    between atoms: N_19  and  C_22
   11  A    between atoms: C_23  and  C_25
   12  A    between atoms: C_23  and  O_33
   13  A    between atoms: C_32  and  C_35
   14  A    between atoms: C_32  and  O_39
   15  A    between atoms: C_36  and  C_41
                            x       y       z     vdW  Elec       q    Type
                         _______ _______ _______ _____ _____    ______ ____

>  <TORSDO>
F 15

$$$$
=
 OpenBabel11072411013D

 42 46  0  0  1  0  0  0  0  0999 V2000
  160.5940  209.6840  156.5960 F   0  0  0  0  0  0  0  0  0  0  0  0
  160.7400  212.0460  156.7600 C   0  0  0  0  0  1  0  0  0  0  0  0
  160.3760  210.8560  155.8880 C   0  0  2  0  0  0  0  0  0  0  0  0
  158.8970  210.9610  155.5280 C   0  0  0  0  0  2  0  0  0  0  0  0
  157.9700  213.1200  155.9360 O   0  0  0  0  0  0  0  0  0  0  0  0
  158.5300  212.3580  155.1070 C   0  0  0  0  0  0  0  0  0  0  0  0
  158.7390  212.8050  153.7990 O   0  0  0  0  0  0  0  0  0  0  0  0
  157.9220  212.3880  152.7170 C   0  0  0  0  0  2  0  0  0  0  0  0
  158.8320  213.4600  150.6140 C   0  0  2  0  0  0  0  0  0  0  0  0
  159.9230  212.4270  150.6050 C   0  0  0  0  0  3  0  0  0  0  0  0
  160.8780  213.5730  148.6520 C   0  0  0  0  0  0  0  0  0  0  0  0
  160.8870  212.5090  149.6840 C   0  0  0  0  0  3  0  0  0  0  0  0
  157.7760  213.5200  151.7140 C   0  0  2  0  0  3  0  0  0  0  0  0
  158.5250  214.1710  149.2960 C   0  0  1  0  0  3  0  0  0  0  0  0
  158.9950  214.4300  151.7660 C   0  0  0  0  0  2  0  0  0  0  0  0
  159.7980  214.3610  148.5000 C   0  0  0  0  0  3  0  0  0  0  0  0
  162.0760  213.3550  146.6160 O   0  0  0  0  0  0  0  0  0  0  0  0
  163.2930  214.4510  148.3380 C   0  0  0  0  0  1  0  0  0  0  0  0
  162.0710  213.7720  147.8070 C   0  0  0  0  0  0  0  0  0  0  0  0
  157.5260  213.3450  148.4950 C   0  0  0  0  0  2  0  0  0  0  0  0
  156.8960  214.4340  146.5010 O   0  0  0  0  0  0  0  0  0  0  0  0
  157.6440  213.6280  147.0340 C   0  0  0  0  0  0  0  0  0  0  0  0
  158.6760  212.9210  146.2270 C   0  0  0  0  0  1  0  0  0  0  0  0
  161.1580  210.8670  154.6910 O   0  0  0  0  0  0  0  0  0  0  0  0
  161.8170  207.7020  151.9650 C   0  0  0  0  0  0  0  0  0  0  0  0
  161.3570  209.7680  153.8460 C   0  0  0  0  0  0  0  0  0  0  0  0
  162.2460  208.9260  151.6850 C   0  0  0  0  0  3  0  0  0  0  0  0
  161.3060  205.5330  151.9940 C   0  0  0  0  0  3  0  0  0  0  0  0
  161.8840  206.4590  151.2300 C   0  0  0  0  0  0  0  0  0  0  0  0
  161.1340  207.3690  153.1780 C   0  0  0  0  0  0  0  0  0  0  0  0
  160.8310  206.1120  153.2220 N   0  0  0  0  0  0  0  0  0  0  0  0
  160.8610  208.3780  154.2460 C   0  0  0  0  0  2  0  0  0  0  0  0
  161.9930  209.9940  152.6780 C   0  0  0  0  0  3  0  0  0  0  0  0
  162.5340  206.2200  149.9070 C   0  0  0  0  0  2  0  0  0  0  0  0
  160.4850  206.3860  148.4890 C   0  0  0  0  0  2  0  0  0  0  0  0
  161.6090  206.0940  147.5710 N   0  0  0  0  0  0  0  0  0  0  0  0
  161.5730  205.5400  148.9460 C   0  0  1  0  0  0  0  0  0  0  0  0
  161.1950  204.0680  149.1510 C   0  0  0  0  0  1  0  0  0  0  0  0
  161.0980  205.1520  146.5810 C   0  0  0  0  0  2  0  0  0  0  0  0
  161.0470  205.8220  145.2170 C   0  0  0  0  0  2  0  0  0  0  0  0
  160.9160  204.8560  144.2180 O   0  0  0  0  0  0  0  0  0  0  0  0
  160.7780  203.6570  144.9040 C   0  0  0  0  0  1  0  0  0  0  0  0
  3  1  1  0  0  0  0
  3  2  1  1  0  0  0
  4  3  1  0  0  0  0
  6  4  1  0  0  0  0
  6  5  2  0  0  0  0
  7  6  1  0  0  0  0
  8  7  1  0  0  0  0
  9 10  1  6  0  0  0
  9 13  1  0  0  0  0
  9 15  1  0  0  0  0
 11 12  1  0  0  0  0
 12 10  2  0  0  0  0
 13 15  1  0  0  0  0
 13  8  1  1  0  0  0
 14 20  1  6  0  0  0
 14  9  1  0  0  0  0
 16 11  2  0  0  0  0
 16 14  1  0  0  0  0
 17 19  2  0  0  0  0
 19 18  1  0  0  0  0
 19 11  1  0  0  0  0
 21 22  2  0  0  0  0
 22 20  1  0  0  0  0
 23 22  1  0  0  0  0
 24  3  1  0  0  0  0
 25 30  1  0  0  0  0
 26 32  1  0  0  0  0
 26 24  1  0  0  0  0
 27 25  2  0  0  0  0
 27 33  1  0  0  0  0
 28 31  1  0  0  0  0
 29 25  1  0  0  0  0
 29 28  2  0  0  0  0
 30 31  2  0  0  0  0
 30 32  1  0  0  0  0
 33 26  2  0  0  0  0
 34 29  1  0  0  0  0
 35 37  1  0  0  0  0
 36 35  1  0  0  0  0
 36 37  1  0  0  0  0
 37 38  1  1  0  0  0
 37 34  1  0  0  0  0
 39 36  1  0  0  0  0
 40 39  1  0  0  0  0
 41 42  1  0  0  0  0
 41 40  1  0  0  0  0
M  END
>  <MODEL>
8

>  <REMARK>
 VINA RESULT:      -5.4      4.944      9.916
  Name = 
  15 active torsions:
  status: ('A' for Active; 'I' for Inactive)
    1  A    between atoms: C_3  and  O_39
    2  A    between atoms: O_7  and  C_13
    3  A    between atoms: C_9  and  C_38
    4  A    between atoms: C_13  and  C_22
    5  A    between atoms: C_14  and  O_33
    6  A    between atoms: C_14  and  C_35
    7  A    between atoms: C_16  and  C_41
    8  A    between atoms: C_17  and  C_21
    9  A    between atoms: C_17  and  C_29
   10  A    between atoms: N_19  and  C_22
   11  A    between atoms: C_23  and  C_25
   12  A    between atoms: C_23  and  O_33
   13  A    between atoms: C_32  and  C_35
   14  A    between atoms: C_32  and  O_39
   15  A    between atoms: C_36  and  C_41
                            x       y       z     vdW  Elec       q    Type
                         _______ _______ _______ _____ _____    ______ ____

>  <TORSDO>
F 15

$$$$
=
 OpenBabel11072411013D

 42 46  0  0  1  0  0  0  0  0999 V2000
  162.8380  206.6900  151.8210 F   0  0  0  0  0  0  0  0  0  0  0  0
  160.7350  207.7590  151.5610 C   0  0  0  0  0  1  0  0  0  0  0  0
  162.1130  207.8080  152.2020 C   0  0  2  0  0  0  0  0  0  0  0  0
  162.8240  209.0650  151.7100 C   0  0  0  0  0  2  0  0  0  0  0  0
  161.5960  210.5670  150.3230 O   0  0  0  0  0  0  0  0  0  0  0  0
  162.2880  209.5180  150.3800 C   0  0  0  0  0  0  0  0  0  0  0  0
  162.4880  208.7670  149.2180 O   0  0  0  0  0  0  0  0  0  0  0  0
  161.4120  208.1840  148.4990 C   0  0  0  0  0  2  0  0  0  0  0  0
  161.5630  205.7270  147.9150 C   0  0  2  0  0  0  0  0  0  0  0  0
  160.8110  205.4190  149.1790 C   0  0  0  0  0  3  0  0  0  0  0  0
  161.1010  203.0310  148.6700 C   0  0  0  0  0  0  0  0  0  0  0  0
  160.6200  204.1430  149.5260 C   0  0  0  0  0  3  0  0  0  0  0  0
  161.9450  207.1500  147.5200 C   0  0  2  0  0  3  0  0  0  0  0  0
  161.5590  204.6640  146.8170 C   0  0  1  0  0  3  0  0  0  0  0  0
  162.9560  206.2450  148.2090 C   0  0  0  0  0  2  0  0  0  0  0  0
  161.5660  203.2810  147.4330 C   0  0  0  0  0  3  0  0  0  0  0  0
  160.9680  201.4530  150.4370 O   0  0  0  0  0  0  0  0  0  0  0  0
  161.2060  200.4750  148.2840 C   0  0  0  0  0  1  0  0  0  0  0  0
  161.0810  201.6530  149.1960 C   0  0  0  0  0  0  0  0  0  0  0  0
  160.3230  204.8400  145.9430 C   0  0  0  0  0  2  0  0  0  0  0  0
  161.3460  204.7960  143.8200 O   0  0  0  0  0  0  0  0  0  0  0  0
  160.5440  204.2760  144.5790 C   0  0  0  0  0  0  0  0  0  0  0  0
  159.7780  203.0750  144.1460 C   0  0  0  0  0  1  0  0  0  0  0  0
  161.9890  207.8600  153.6260 O   0  0  0  0  0  0  0  0  0  0  0  0
  159.4890  210.5000  155.7840 C   0  0  0  0  0  0  0  0  0  0  0  0
  161.2190  208.7890  154.3360 C   0  0  0  0  0  0  0  0  0  0  0  0
  159.2050  209.2050  155.7290 C   0  0  0  0  0  3  0  0  0  0  0  0
  159.5560  212.6940  156.1650 C   0  0  0  0  0  3  0  0  0  0  0  0
  158.8190  211.6130  156.4190 C   0  0  2  0  0  3  0  0  0  0  0  0
  160.6340  211.0790  155.1510 C   0  0  0  0  0  0  0  0  0  0  0  0
  160.6990  212.3540  155.3620 N   0  0  0  0  0  0  0  0  0  0  0  0
  161.6220  210.2630  154.3820 C   0  0  0  0  0  3  0  0  0  0  0  0
  160.1180  208.3270  154.9640 C   0  0  0  0  0  3  0  0  0  0  0  0
  157.5860  211.5730  157.2590 C   0  0  0  0  0  2  0  0  0  0  0  0
  155.2520  212.4500  157.1200 C   0  0  0  0  0  2  0  0  0  0  0  0
  156.0560  213.2380  156.1590 N   0  0  0  0  0  0  0  0  0  0  0  0
  156.3450  211.8070  156.4140 C   0  0  1  0  0  0  0  0  0  0  0  0
  155.9100  210.7590  155.3820 C   0  0  0  0  0  1  0  0  0  0  0  0
  155.2140  213.4310  154.9820 C   0  0  0  0  0  2  0  0  0  0  0  0
  155.9540  214.2800  153.9590 C   0  0  0  0  0  2  0  0  0  0  0  0
  157.2500  213.7920  153.7850 O   0  0  0  0  0  0  0  0  0  0  0  0
  157.7130  214.4240  152.6390 C   0  0  0  0  0  1  0  0  0  0  0  0
  1  3  1  0  0  0  0
  3  2  1  6  0  0  0
  3 24  1  0  0  0  0
  4  3  1  0  0  0  0
  5  6  2  0  0  0  0
  6  4  1  0  0  0  0
  7  6  1  0  0  0  0
  8  7  1  0  0  0  0
  9 15  1  1  0  0  0
  9 10  1  0  0  0  0
 10 12  2  0  0  0  0
 11 19  1  0  0  0  0
 11 12  1  0  0  0  0
 13  9  1  0  0  0  0
 13 15  1  0  0  0  0
 13  8  1  1  0  0  0
 14 20  1  1  0  0  0
 14 16  1  0  0  0  0
 14  9  1  0  0  0  0
 16 11  2  0  0  0  0
 18 19  1  0  0  0  0
 19 17  2  0  0  0  0
 21 22  2  0  0  0  0
 22 20  1  0  0  0  0
 23 22  1  0  0  0  0
 24 26  1  0  0  0  0
 25 29  1  0  0  0  0
 26 32  2  0  0  0  0
 26 33  1  0  0  0  0
 27 25  1  0  0  0  0
 28 29  1  0  0  0  0
 29 34  1  1  0  0  0
 30 31  1  0  0  0  0
 30 25  2  0  0  0  0
 31 28  2  0  0  0  0
 32 30  1  0  0  0  0
 33 27  2  0  0  0  0
 36 37  1  0  0  0  0
 36 35  1  0  0  0  0
 37 38  1  6  0  0  0
 37 35  1  0  0  0  0
 37 34  1  0  0  0  0
 39 36  1  0  0  0  0
 40 39  1  0  0  0  0
 41 40  1  0  0  0  0
 42 41  1  0  0  0  0
M  END
>  <MODEL>
9

>  <REMARK>
 VINA RESULT:      -5.3      6.127     10.529
  Name = 
  15 active torsions:
  status: ('A' for Active; 'I' for Inactive)
    1  A    between atoms: C_3  and  O_39
    2  A    between atoms: O_7  and  C_13
    3  A    between atoms: C_9  and  C_38
    4  A    between atoms: C_13  and  C_22
    5  A    between atoms: C_14  and  O_33
    6  A    between atoms: C_14  and  C_35
    7  A    between atoms: C_16  and  C_41
    8  A    between atoms: C_17  and  C_21
    9  A    between atoms: C_17  and  C_29
   10  A    between atoms: N_19  and  C_22
   11  A    between atoms: C_23  and  C_25
   12  A    between atoms: C_23  and  O_33
   13  A    between atoms: C_32  and  C_35
   14  A    between atoms: C_32  and  O_39
   15  A    between atoms: C_36  and  C_41
                            x       y       z     vdW  Elec       q    Type
                         _______ _______ _______ _____ _____    ______ ____

>  <TORSDO>
F 15

$$$$
