=
 OpenBabel11072412303D

 33 37  0  0  1  0  0  0  0  0999 V2000
  157.6190  211.3510  155.0480 C   0  0  2  0  0  3  0  0  0  0  0  0
  160.1800  213.7810  151.8530 C   0  0  0  0  0  2  0  0  0  0  0  0
  160.1360  214.3530  150.4230 C   0  0  1  0  0  3  0  0  0  0  0  0
  161.9540  214.4210  148.6830 C   0  0  0  0  0  3  0  0  0  0  0  0
  161.1340  213.6700  149.5320 C   0  0  0  0  0  0  0  0  0  0  0  0
  161.3070  208.7680  152.0690 C   0  0  0  0  0  2  0  0  0  0  0  0
  158.4930  210.3280  155.7630 C   0  0  0  0  0  2  0  0  0  0  0  0
  161.5810  209.4080  149.6630 C   0  0  0  0  0  2  0  0  0  0  0  0
  159.4050  212.4650  151.9110 C   0  0  1  0  0  3  0  0  0  0  0  0
  159.4080  211.8800  153.3100 C   0  0  2  0  0  3  0  0  0  0  0  0
  157.1040  212.3880  152.7590 C   0  0  1  0  0  3  0  0  0  0  0  0
  161.2400  212.2740  149.5260 C   0  0  0  0  0  3  0  0  0  0  0  0
  156.4070  213.8800  150.1320 O   0  0  0  0  0  1  0  0  0  0  0  0
  160.9050  210.4360  154.8890 C   0  0  1  0  0  0  0  0  0  0  0  0
  162.9910  212.3810  147.8700 C   0  0  0  0  0  3  0  0  0  0  0  0
  160.4200  210.7260  153.4300 C   0  0  1  0  0  3  0  0  0  0  0  0
  157.6310  213.9660  150.7930 C   0  0  2  0  0  3  0  0  0  0  0  0
  159.8960  210.8860  155.9640 C   0  0  0  0  0  2  0  0  0  0  0  0
  162.1730  211.6220  148.7150 C   0  0  0  0  0  0  0  0  0  0  0  0
  160.0630  209.5170  152.5440 C   0  0  0  0  0  2  0  0  0  0  0  0
  158.7350  214.2990  149.7850 C   0  0  0  0  0  2  0  0  0  0  0  0
  162.1210  209.5820  151.0750 C   0  0  0  0  0  2  0  0  0  0  0  0
  161.2040  208.9540  155.1280 C   0  0  0  0  0  1  0  0  0  0  0  0
  156.2830  210.9780  155.1940 O   0  0  0  0  0  1  0  0  0  0  0  0
  162.3090  210.2300  148.7520 O   0  0  0  0  0  0  0  0  0  0  0  0
  156.9240  213.5840  153.4680 O   0  0  0  0  0  1  0  0  0  0  0  0
  157.9340  212.6360  151.5040 C   0  0  1  0  0  3  0  0  0  0  0  0
  162.8780  213.7780  147.8520 C   0  0  0  0  0  3  0  0  0  0  0  0
  157.9730  211.4250  153.5610 C   0  0  2  0  0  3  0  0  0  0  0  0
  162.2000  211.2400  155.1060 C   0  0  2  0  0  3  0  0  0  0  0  0
  163.2890  210.6140  154.4900 O   0  0  0  0  0  1  0  0  0  0  0  0
  162.4740  211.4180  156.4660 O   0  0  0  0  0  0  0  0  0  0  0  0
  163.8210  211.0780  156.6070 C   0  0  0  0  0  1  0  0  0  0  0  0
  1 24  1  6  0  0  0
  1  7  1  0  0  0  0
  3 21  1  6  0  0  0
  3  2  1  0  0  0  0
  4  5  1  0  0  0  0
  5  3  1  0  0  0  0
  6 20  1  0  0  0  0
  7 18  1  0  0  0  0
  8 22  1  0  0  0  0
  9  2  1  1  0  0  0
  9 10  1  0  0  0  0
 10 16  1  0  0  0  0
 10 29  1  0  0  0  0
 11 26  1  0  0  0  0
 11 29  1  0  0  0  0
 12  5  2  0  0  0  0
 13 17  1  0  0  0  0
 14 30  1  0  0  0  0
 14 23  1  0  0  0  0
 14 18  1  0  0  0  0
 15 19  2  0  0  0  0
 16 14  1  0  0  0  0
 17 27  1  0  0  0  0
 19 25  1  0  0  0  0
 19 12  1  0  0  0  0
 20 16  1  0  0  0  0
 21 17  1  0  0  0  0
 22  6  1  0  0  0  0
 25  8  1  0  0  0  0
 27  9  1  0  0  0  0
 27 11  1  0  0  0  0
 28 15  1  0  0  0  0
 28  4  2  0  0  0  0
 29  1  1  0  0  0  0
 30 32  1  0  0  0  0
 31 30  1  0  0  0  0
 32 33  1  0  0  0  0
M  END
>  <MODEL>
1

>  <REMARK>
 VINA RESULT:      -4.1      0.000      0.000
  Name = 
  2 active torsions:
  status: ('A' for Active; 'I' for Inactive)
    1  A    between atoms: C_6  and  C_15
    2  A    between atoms: C_6  and  O_19
                            x       y       z     vdW  Elec       q    Type
                         _______ _______ _______ _____ _____    ______ ____

>  <TORSDO>
F 2

$$$$
