=
 OpenBabel11072410293D

 32 36  0  0  1  0  0  0  0  0999 V2000
  159.4410  211.6360  154.2700 C   0  0  2  0  0  3  0  0  0  0  0  0
  158.3630  211.9090  153.3240 C   0  0  2  0  0  3  0  0  0  0  0  0
  160.6340  208.2560  154.6060 C   0  0  0  0  0  1  0  0  0  0  0  0
  159.1890  210.6990  153.1630 N   0  0  1  0  0  0  0  0  0  0  0  0
  160.1990  209.6110  157.2580 O   0  0  0  0  0  1  0  0  0  0  0  0
  162.2810  209.4840  151.7910 C   0  0  0  0  0  3  0  0  0  0  0  0
  158.8310  213.0020  152.3690 C   0  0  1  0  0  3  0  0  0  0  0  0
  161.3170  209.5180  155.1230 C   0  0  1  0  0  3  0  0  0  0  0  0
  160.4250  212.5870  151.5990 S   0  0  0  0  0  0  0  0  0  0  0  0
  162.0580  210.3600  154.0570 C   0  0  0  0  0  2  0  0  0  0  0  0
  160.4500  210.3470  156.1000 C   0  0  1  0  0  3  0  0  0  0  0  0
  159.1280  210.8640  155.5230 C   0  0  0  0  0  2  0  0  0  0  0  0
  161.5520  210.2290  152.6340 C   0  0  0  0  0  0  0  0  0  0  0  0
  160.2540  210.8690  152.1790 C   0  0  1  0  0  3  0  0  0  0  0  0
  157.1300  213.5070  149.0660 C   0  0  0  0  0  0  0  0  0  0  0  0
  155.7150  213.8770  149.3910 C   0  0  0  0  0  3  0  0  0  0  0  0
  157.4740  213.3010  147.8050 C   0  0  0  0  0  1  0  0  0  0  0  0
  158.0510  213.1840  150.1120 N   0  0  0  0  0  0  0  0  0  0  0  0
  156.2120  214.4530  153.1540 C   0  0  0  0  0  1  0  0  0  0  0  0
  155.5630  214.2790  150.8300 C   0  0  0  0  0  3  0  0  0  0  0  0
  156.4930  214.0290  151.7550 C   0  0  0  0  0  0  0  0  0  0  0  0
  157.7860  213.3960  151.3670 C   0  0  0  0  0  0  0  0  0  0  0  0
  161.9100  209.2310  150.3580 C   0  0  0  0  0  2  0  0  0  0  0  0
  161.1330  207.9310  150.2030 C   0  0  0  0  0  2  0  0  0  0  0  0
  162.3900  207.3140  148.1780 C   0  0  0  0  0  2  0  0  0  0  0  0
  160.8410  205.6760  147.8830 O   0  0  0  0  0  0  0  0  0  0  0  0
  161.8010  204.5070  151.2290 O   0  0  0  0  0  1  0  0  0  0  0  0
  161.8920  206.2890  147.2620 N   0  0  0  0  0  2  0  0  0  0  0  0
  160.6450  203.4710  149.5460 O   0  0  0  0  0  0  0  0  0  0  0  0
  161.9760  206.8520  149.5380 C   0  0  2  0  0  3  0  0  0  0  0  0
  161.1580  205.7180  149.2000 N   0  0  0  0  0  0  0  0  0  0  0  0
  161.1840  204.5200  149.9820 C   0  0  0  0  0  0  0  0  0  0  0  0
  1 12  1  1  0  0  0
  2  1  1  0  0  0  0
  3  8  1  0  0  0  0
  4  2  1  0  0  0  0
  4  1  1  0  0  0  0
  6 13  2  0  0  0  0
  7  2  1  0  0  0  0
  8 11  1  0  0  0  0
  9 14  1  0  0  0  0
  9  7  1  0  0  0  0
 10  8  1  0  0  0  0
 11  5  1  0  0  0  0
 12 11  1  0  0  0  0
 13 10  1  0  0  0  0
 14 13  1  0  0  0  0
 14  4  1  0  0  0  0
 15 16  2  0  0  0  0
 15 18  1  0  0  0  0
 16 20  1  0  0  0  0
 17 15  1  0  0  0  0
 18 22  2  0  0  0  0
 20 21  2  0  0  0  0
 21 19  1  0  0  0  0
 22 21  1  0  0  0  0
 22  7  1  0  0  0  0
 23  6  1  0  0  0  0
 24 23  1  0  0  0  0
 25 30  1  0  0  0  0
 26 31  1  0  0  0  0
 28 26  1  0  0  0  0
 28 25  1  0  0  0  0
 29 32  2  0  0  0  0
 30 24  1  0  0  0  0
 31 30  1  0  0  0  0
 31 32  1  0  0  0  0
 32 27  1  0  0  0  0
M  END
>  <MODEL>
1

>  <REMARK>
 VINA RESULT:      -7.3      0.000      0.000
  Name = 
  4 active torsions:
  status: ('A' for Active; 'I' for Inactive)
    1  A    between atoms: C_12  and  C_16
    2  A    between atoms: C_14  and  C_29
    3  A    between atoms: C_16  and  C_30
    4  A    between atoms: C_25  and  C_30
                            x       y       z     vdW  Elec       q    Type
                         _______ _______ _______ _____ _____    ______ ____

>  <TORSDO>
F 4

$$$$
=
 OpenBabel11072410293D

 32 36  0  0  1  0  0  0  0  0999 V2000
  161.4090  207.6220  152.9710 C   0  0  2  0  0  3  0  0  0  0  0  0
  160.6060  208.7170  153.5060 C   0  0  2  0  0  3  0  0  0  0  0  0
  160.4020  206.0880  149.8740 C   0  0  0  0  0  1  0  0  0  0  0  0
  160.5330  208.3890  152.0700 N   0  0  1  0  0  0  0  0  0  0  0  0
  161.1430  204.0770  151.9860 O   0  0  0  0  0  1  0  0  0  0  0  0
  162.1390  208.9490  148.9040 C   0  0  0  0  0  3  0  0  0  0  0  0
  161.5220  209.9150  153.7310 C   0  0  1  0  0  3  0  0  0  0  0  0
  161.7500  205.9320  150.5700 C   0  0  1  0  0  3  0  0  0  0  0  0
  162.4680  210.3310  152.2350 S   0  0  0  0  0  0  0  0  0  0  0  0
  162.7240  207.1250  150.4130 C   0  0  0  0  0  2  0  0  0  0  0  0
  161.6530  205.3750  152.0100 C   0  0  1  0  0  3  0  0  0  0  0  0
  160.8380  206.2290  152.9880 C   0  0  0  0  0  2  0  0  0  0  0  0
  162.0880  208.4760  150.1570 C   0  0  0  0  0  0  0  0  0  0  0  0
  161.3790  209.2520  151.2510 C   0  0  1  0  0  3  0  0  0  0  0  0
  159.3320  212.9500  153.9620 C   0  0  0  0  0  0  0  0  0  0  0  0
  159.1930  213.2380  155.4260 C   0  0  0  0  0  3  0  0  0  0  0  0
  158.6220  213.6490  153.0920 C   0  0  0  0  0  1  0  0  0  0  0  0
  160.0680  211.8050  153.5180 N   0  0  0  0  0  0  0  0  0  0  0  0
  161.9160  210.8300  156.6620 C   0  0  0  0  0  1  0  0  0  0  0  0
  160.2230  212.5050  156.2370 C   0  0  0  0  0  3  0  0  0  0  0  0
  160.9460  211.4950  155.7480 C   0  0  0  0  0  0  0  0  0  0  0  0
  160.8110  211.0990  154.3170 C   0  0  0  0  0  0  0  0  0  0  0  0
  161.5370  210.2570  148.4750 C   0  0  0  0  0  2  0  0  0  0  0  0
  162.5490  211.3920  148.5610 C   0  0  0  0  0  2  0  0  0  0  0  0
  160.9400  213.1380  149.2120 C   0  0  0  0  0  2  0  0  0  0  0  0
  159.7540  212.5380  147.3680 O   0  0  0  0  0  0  0  0  0  0  0  0
  162.8040  213.2810  145.4650 O   0  0  0  0  0  1  0  0  0  0  0  0
  159.6800  213.3120  148.4900 N   0  0  0  0  0  2  0  0  0  0  0  0
  160.6340  213.0190  144.7860 O   0  0  0  0  0  0  0  0  0  0  0  0
  161.9280  212.7250  148.1690 C   0  0  2  0  0  3  0  0  0  0  0  0
  161.0660  212.5590  147.0300 N   0  0  0  0  0  0  0  0  0  0  0  0
  161.4750  212.9590  145.7200 C   0  0  0  0  0  0  0  0  0  0  0  0
  1 12  1  1  0  0  0
  1  2  1  0  0  0  0
  2  7  1  0  0  0  0
  3  8  1  0  0  0  0
  4  1  1  0  0  0  0
  4  2  1  0  0  0  0
  5 11  1  0  0  0  0
  6 13  2  0  0  0  0
  7 22  1  0  0  0  0
  8 11  1  0  0  0  0
  9  7  1  0  0  0  0
 10  8  1  0  0  0  0
 11 12  1  0  0  0  0
 13 10  1  0  0  0  0
 13 14  1  0  0  0  0
 14  4  1  0  0  0  0
 14  9  1  0  0  0  0
 15 16  1  0  0  0  0
 16 20  2  0  0  0  0
 17 15  1  0  0  0  0
 18 15  2  0  0  0  0
 18 22  1  0  0  0  0
 21 20  1  0  0  0  0
 21 19  1  0  0  0  0
 22 21  2  0  0  0  0
 23 24  1  0  0  0  0
 23  6  1  0  0  0  0
 26 28  1  0  0  0  0
 27 32  1  0  0  0  0
 28 25  1  0  0  0  0
 29 32  2  0  0  0  0
 30 24  1  0  0  0  0
 30 25  1  0  0  0  0
 31 26  1  0  0  0  0
 31 30  1  0  0  0  0
 32 31  1  0  0  0  0
M  END
>  <MODEL>
2

>  <REMARK>
 VINA RESULT:      -7.3      3.238      6.078
  Name = 
  4 active torsions:
  status: ('A' for Active; 'I' for Inactive)
    1  A    between atoms: C_12  and  C_16
    2  A    between atoms: C_14  and  C_29
    3  A    between atoms: C_16  and  C_30
    4  A    between atoms: C_25  and  C_30
                            x       y       z     vdW  Elec       q    Type
                         _______ _______ _______ _____ _____    ______ ____

>  <TORSDO>
F 4

$$$$
=
 OpenBabel11072410293D

 32 36  0  0  1  0  0  0  0  0999 V2000
  159.5370  211.4820  154.2920 C   0  0  2  0  0  3  0  0  0  0  0  0
  158.4250  211.7910  153.3980 C   0  0  2  0  0  3  0  0  0  0  0  0
  160.7330  208.0910  154.4570 C   0  0  0  0  0  1  0  0  0  0  0  0
  159.2410  210.5870  153.1610 N   0  0  1  0  0  0  0  0  0  0  0  0
  160.4000  209.3460  157.1720 O   0  0  0  0  0  1  0  0  0  0  0  0
  162.2770  209.4210  151.6310 C   0  0  0  0  0  3  0  0  0  0  0  0
  158.8600  212.9190  152.4680 C   0  0  1  0  0  3  0  0  0  0  0  0
  161.4380  209.3310  154.9960 C   0  0  1  0  0  3  0  0  0  0  0  0
  160.4230  212.5310  151.6240 S   0  0  0  0  0  0  0  0  0  0  0  0
  162.1410  210.2120  153.9350 C   0  0  0  0  0  2  0  0  0  0  0  0
  160.6100  210.1240  156.0340 C   0  0  1  0  0  3  0  0  0  0  0  0
  159.2680  210.6640  155.5260 C   0  0  0  0  0  2  0  0  0  0  0  0
  161.5820  210.1350  152.5280 C   0  0  0  0  0  0  0  0  0  0  0  0
  160.2700  210.7930  152.1460 C   0  0  1  0  0  3  0  0  0  0  0  0
  157.0130  213.4920  149.2560 C   0  0  0  0  0  0  0  0  0  0  0  0
  155.6290  213.9080  149.6530 C   0  0  0  0  0  3  0  0  0  0  0  0
  157.2860  213.2800  147.9780 C   0  0  0  0  0  1  0  0  0  0  0  0
  157.9740  213.1350  150.2540 N   0  0  0  0  0  0  0  0  0  0  0  0
  156.3330  214.4520  153.3870 C   0  0  0  0  0  1  0  0  0  0  0  0
  155.5630  214.3090  151.0980 C   0  0  0  0  0  3  0  0  0  0  0  0
  156.5300  214.0250  151.9740 C   0  0  0  0  0  0  0  0  0  0  0  0
  157.7790  213.3510  151.5200 C   0  0  0  0  0  0  0  0  0  0  0  0
  161.8530  209.2220  150.2040 C   0  0  0  0  0  2  0  0  0  0  0  0
  162.2730  207.8550  149.6820 C   0  0  0  0  0  2  0  0  0  0  0  0
  160.6870  206.3620  150.8290 C   0  0  0  0  0  2  0  0  0  0  0  0
  161.6180  204.6750  149.6230 O   0  0  0  0  0  0  0  0  0  0  0  0
  160.6940  206.6200  146.6490 O   0  0  0  0  0  0  0  0  0  0  0  0
  160.7480  204.9120  150.6490 N   0  0  0  0  0  2  0  0  0  0  0  0
  161.2950  204.4240  146.8840 O   0  0  0  0  0  1  0  0  0  0  0  0
  161.0760  206.9320  149.5030 C   0  0  2  0  0  3  0  0  0  0  0  0
  161.4660  205.7400  148.8000 N   0  0  0  0  0  0  0  0  0  0  0  0
  161.1530  205.5550  147.4170 C   0  0  0  0  0  0  0  0  0  0  0  0
  1 12  1  1  0  0  0
  2  1  1  0  0  0  0
  3  8  1  0  0  0  0
  4  2  1  0  0  0  0
  4  1  1  0  0  0  0
  6 13  2  0  0  0  0
  7  2  1  0  0  0  0
  8 11  1  0  0  0  0
  9 14  1  0  0  0  0
  9  7  1  0  0  0  0
 10  8  1  0  0  0  0
 11  5  1  0  0  0  0
 12 11  1  0  0  0  0
 13 10  1  0  0  0  0
 14 13  1  0  0  0  0
 14  4  1  0  0  0  0
 15 16  2  0  0  0  0
 15 18  1  0  0  0  0
 16 20  1  0  0  0  0
 17 15  1  0  0  0  0
 18 22  2  0  0  0  0
 20 21  2  0  0  0  0
 21 19  1  0  0  0  0
 22 21  1  0  0  0  0
 22  7  1  0  0  0  0
 23  6  1  0  0  0  0
 24 23  1  0  0  0  0
 26 28  1  0  0  0  0
 27 32  2  0  0  0  0
 28 25  1  0  0  0  0
 29 32  1  0  0  0  0
 30 24  1  0  0  0  0
 30 25  1  0  0  0  0
 31 30  1  0  0  0  0
 31 26  1  0  0  0  0
 32 31  1  0  0  0  0
M  END
>  <MODEL>
3

>  <REMARK>
 VINA RESULT:      -7.0      0.829      1.547
  Name = 
  4 active torsions:
  status: ('A' for Active; 'I' for Inactive)
    1  A    between atoms: C_12  and  C_16
    2  A    between atoms: C_14  and  C_29
    3  A    between atoms: C_16  and  C_30
    4  A    between atoms: C_25  and  C_30
                            x       y       z     vdW  Elec       q    Type
                         _______ _______ _______ _____ _____    ______ ____

>  <TORSDO>
F 4

$$$$
=
 OpenBabel11072410293D

 32 36  0  0  1  0  0  0  0  0999 V2000
  161.2130  208.7310  153.1350 C   0  0  2  0  0  3  0  0  0  0  0  0
  160.3150  209.8180  152.7580 C   0  0  2  0  0  3  0  0  0  0  0  0
  160.5440  205.4210  151.8880 C   0  0  0  0  0  1  0  0  0  0  0  0
  160.3780  208.6000  151.9290 N   0  0  1  0  0  0  0  0  0  0  0  0
  161.2050  205.4520  154.8240 O   0  0  0  0  0  1  0  0  0  0  0  0
  162.2120  207.0140  149.2770 C   0  0  0  0  0  3  0  0  0  0  0  0
  161.1490  210.9300  152.1310 C   0  0  1  0  0  3  0  0  0  0  0  0
  161.8360  205.9030  152.5410 C   0  0  1  0  0  3  0  0  0  0  0  0
  162.1940  210.3090  150.7790 S   0  0  0  0  0  0  0  0  0  0  0  0
  162.7600  206.7580  151.6390 C   0  0  0  0  0  2  0  0  0  0  0  0
  161.6460  206.4630  153.9700 C   0  0  1  0  0  3  0  0  0  0  0  0
  160.7120  207.6730  154.0810 C   0  0  0  0  0  2  0  0  0  0  0  0
  162.0800  207.5120  150.5140 C   0  0  0  0  0  0  0  0  0  0  0  0
  161.2460  208.7530  150.7650 C   0  0  1  0  0  3  0  0  0  0  0  0
  159.7230  213.6760  150.0120 C   0  0  0  0  0  0  0  0  0  0  0  0
  158.5940  214.2570  150.8080 C   0  0  0  0  0  3  0  0  0  0  0  0
  159.9210  214.0860  148.7690 C   0  0  0  0  0  1  0  0  0  0  0  0
  160.4570  212.5530  150.5120 N   0  0  0  0  0  0  0  0  0  0  0  0
  159.3780  212.4970  154.1280 C   0  0  0  0  0  1  0  0  0  0  0  0
  158.6560  213.8380  152.2480 C   0  0  0  0  0  3  0  0  0  0  0  0
  159.4250  212.8340  152.6790 C   0  0  0  0  0  0  0  0  0  0  0  0
  160.3330  212.1250  151.7320 C   0  0  0  0  0  0  0  0  0  0  0  0
  161.5850  207.6220  148.0540 C   0  0  0  0  0  2  0  0  0  0  0  0
  161.0530  206.5530  147.1090 C   0  0  0  0  0  2  0  0  0  0  0  0
  162.6760  205.4340  145.6350 C   0  0  0  0  0  2  0  0  0  0  0  0
  161.2390  203.6720  145.6220 O   0  0  0  0  0  0  0  0  0  0  0  0
  161.5810  203.6830  149.2780 O   0  0  0  0  0  1  0  0  0  0  0  0
  162.3760  204.1380  145.0260 N   0  0  0  0  0  2  0  0  0  0  0  0
  160.7780  202.0880  147.8460 O   0  0  0  0  0  0  0  0  0  0  0  0
  162.0240  205.3880  146.9790 C   0  0  2  0  0  3  0  0  0  0  0  0
  161.3050  204.1470  146.8900 N   0  0  0  0  0  0  0  0  0  0  0  0
  161.2070  203.2590  148.0070 C   0  0  0  0  0  0  0  0  0  0  0  0
  1 12  1  1  0  0  0
  2  1  1  0  0  0  0
  3  8  1  0  0  0  0
  4  2  1  0  0  0  0
  4  1  1  0  0  0  0
  6 13  2  0  0  0  0
  7  2  1  0  0  0  0
  8 11  1  0  0  0  0
  9  7  1  0  0  0  0
 10  8  1  0  0  0  0
 11 12  1  0  0  0  0
 11  5  1  0  0  0  0
 13 14  1  0  0  0  0
 13 10  1  0  0  0  0
 14  9  1  0  0  0  0
 14  4  1  0  0  0  0
 15 18  2  0  0  0  0
 15 16  1  0  0  0  0
 16 20  2  0  0  0  0
 17 15  1  0  0  0  0
 18 22  1  0  0  0  0
 20 21  1  0  0  0  0
 21 19  1  0  0  0  0
 22  7  1  0  0  0  0
 22 21  2  0  0  0  0
 23  6  1  0  0  0  0
 24 23  1  0  0  0  0
 25 30  1  0  0  0  0
 26 31  1  0  0  0  0
 28 26  1  0  0  0  0
 28 25  1  0  0  0  0
 29 32  2  0  0  0  0
 30 24  1  0  0  0  0
 31 30  1  0  0  0  0
 31 32  1  0  0  0  0
 32 27  1  0  0  0  0
M  END
>  <MODEL>
4

>  <REMARK>
 VINA RESULT:      -6.7      2.219      3.317
  Name = 
  4 active torsions:
  status: ('A' for Active; 'I' for Inactive)
    1  A    between atoms: C_12  and  C_16
    2  A    between atoms: C_14  and  C_29
    3  A    between atoms: C_16  and  C_30
    4  A    between atoms: C_25  and  C_30
                            x       y       z     vdW  Elec       q    Type
                         _______ _______ _______ _____ _____    ______ ____

>  <TORSDO>
F 4

$$$$
=
 OpenBabel11072410293D

 32 36  0  0  1  0  0  0  0  0999 V2000
  161.5370  205.9030  150.7260 C   0  0  2  0  0  3  0  0  0  0  0  0
  160.7750  206.4920  151.8230 C   0  0  2  0  0  3  0  0  0  0  0  0
  160.4540  206.5090  147.3460 C   0  0  0  0  0  1  0  0  0  0  0  0
  160.6790  207.0730  150.4710 N   0  0  1  0  0  0  0  0  0  0  0  0
  161.1460  203.6240  147.8520 O   0  0  0  0  0  1  0  0  0  0  0  0
  162.2760  209.3540  148.1990 C   0  0  0  0  0  3  0  0  0  0  0  0
  161.7320  207.3080  152.6850 C   0  0  1  0  0  3  0  0  0  0  0  0
  161.8020  205.9430  147.7820 C   0  0  1  0  0  3  0  0  0  0  0  0
  162.6780  208.5040  151.6960 S   0  0  0  0  0  0  0  0  0  0  0  0
  162.8140  206.9790  148.3310 C   0  0  0  0  0  2  0  0  0  0  0  0
  161.6980  204.6480  148.6210 C   0  0  1  0  0  3  0  0  0  0  0  0
  160.9210  204.7800  149.9360 C   0  0  0  0  0  2  0  0  0  0  0  0
  162.2200  208.2350  148.9350 C   0  0  0  0  0  0  0  0  0  0  0  0
  161.5460  208.2350  150.2940 C   0  0  1  0  0  3  0  0  0  0  0  0
  160.4060  207.7300  156.1670 C   0  0  0  0  0  0  0  0  0  0  0  0
  160.0350  209.1770  156.2870 C   0  0  0  0  0  3  0  0  0  0  0  0
  160.3470  206.9530  157.2370 C   0  0  0  0  0  1  0  0  0  0  0  0
  161.0070  207.2350  154.9670 N   0  0  0  0  0  0  0  0  0  0  0  0
  160.3400  210.0690  152.5650 C   0  0  0  0  0  1  0  0  0  0  0  0
  159.9540  209.8420  154.9430 C   0  0  0  0  0  3  0  0  0  0  0  0
  160.4580  209.2970  153.8320 C   0  0  0  0  0  0  0  0  0  0  0  0
  161.0640  207.9360  153.8740 C   0  0  0  0  0  0  0  0  0  0  0  0
  161.7140  210.6770  148.6360 C   0  0  0  0  0  2  0  0  0  0  0  0
  162.6440  211.8260  148.2720 C   0  0  0  0  0  2  0  0  0  0  0  0
  160.8220  213.3760  148.8530 C   0  0  0  0  0  2  0  0  0  0  0  0
  159.7420  212.5730  147.0190 O   0  0  0  0  0  0  0  0  0  0  0  0
  162.6990  213.6340  145.1180 O   0  0  0  0  0  1  0  0  0  0  0  0
  159.5580  213.3670  148.1160 N   0  0  0  0  0  2  0  0  0  0  0  0
  160.5870  213.0800  144.4310 O   0  0  0  0  0  0  0  0  0  0  0  0
  161.8660  213.0580  147.8320 C   0  0  2  0  0  3  0  0  0  0  0  0
  161.0460  212.7480  146.6930 N   0  0  0  0  0  0  0  0  0  0  0  0
  161.4180  213.1560  145.3730 C   0  0  0  0  0  0  0  0  0  0  0  0
  1 12  1  6  0  0  0
  1  2  1  0  0  0  0
  2  7  1  0  0  0  0
  3  8  1  0  0  0  0
  4  1  1  0  0  0  0
  4  2  1  0  0  0  0
  5 11  1  0  0  0  0
  6 23  1  0  0  0  0
  6 13  2  0  0  0  0
  7 22  1  0  0  0  0
  8 10  1  0  0  0  0
  8 11  1  0  0  0  0
  9  7  1  0  0  0  0
 10 13  1  0  0  0  0
 11 12  1  0  0  0  0
 13 14  1  0  0  0  0
 14  4  1  0  0  0  0
 14  9  1  0  0  0  0
 15 16  1  0  0  0  0
 15 17  1  0  0  0  0
 18 15  2  0  0  0  0
 19 21  1  0  0  0  0
 20 16  2  0  0  0  0
 21 22  2  0  0  0  0
 21 20  1  0  0  0  0
 22 18  1  0  0  0  0
 24 23  1  0  0  0  0
 26 28  1  0  0  0  0
 27 32  1  0  0  0  0
 28 25  1  0  0  0  0
 29 32  2  0  0  0  0
 30 24  1  0  0  0  0
 30 25  1  0  0  0  0
 31 26  1  0  0  0  0
 31 30  1  0  0  0  0
 32 31  1  0  0  0  0
M  END
>  <MODEL>
5

>  <REMARK>
 VINA RESULT:      -6.6      3.557      7.592
  Name = 
  4 active torsions:
  status: ('A' for Active; 'I' for Inactive)
    1  A    between atoms: C_12  and  C_16
    2  A    between atoms: C_14  and  C_29
    3  A    between atoms: C_16  and  C_30
    4  A    between atoms: C_25  and  C_30
                            x       y       z     vdW  Elec       q    Type
                         _______ _______ _______ _____ _____    ______ ____

>  <TORSDO>
F 4

$$$$
=
 OpenBabel11072410293D

 32 36  0  0  1  0  0  0  0  0999 V2000
  158.7850  213.3020  153.6110 C   0  0  2  0  0  3  0  0  0  0  0  0
  158.0380  213.2870  152.3580 C   0  0  2  0  0  3  0  0  0  0  0  0
  158.6080  210.4240  155.7670 C   0  0  0  0  0  1  0  0  0  0  0  0
  158.3840  212.0150  153.0180 N   0  0  1  0  0  0  0  0  0  0  0  0
  158.2910  213.0200  157.2560 O   0  0  0  0  0  1  0  0  0  0  0  0
  160.9990  209.5760  153.3780 C   0  0  0  0  0  3  0  0  0  0  0  0
  159.0100  213.5750  151.2180 C   0  0  1  0  0  3  0  0  0  0  0  0
  159.6140  211.5680  155.8570 C   0  0  1  0  0  3  0  0  0  0  0  0
  160.4440  212.4580  151.2570 S   0  0  0  0  0  0  0  0  0  0  0  0
  160.7630  211.5280  154.8210 C   0  0  0  0  0  2  0  0  0  0  0  0
  158.9660  212.9600  156.0360 C   0  0  1  0  0  3  0  0  0  0  0  0
  158.0250  213.3960  154.9070 C   0  0  0  0  0  2  0  0  0  0  0  0
  160.4690  210.7980  153.5260 C   0  0  0  0  0  0  0  0  0  0  0  0
  159.5770  211.3910  152.4520 C   0  0  1  0  0  3  0  0  0  0  0  0
  158.5570  213.3600  147.5030 C   0  0  0  0  0  0  0  0  0  0  0  0
  157.0780  213.4240  147.2710 C   0  0  0  0  0  3  0  0  0  0  0  0
  159.3650  213.1200  146.4820 C   0  0  0  0  0  1  0  0  0  0  0  0
  159.0800  213.3580  148.8350 N   0  0  0  0  0  0  0  0  0  0  0  0
  156.0680  214.4530  150.8290 C   0  0  0  0  0  1  0  0  0  0  0  0
  156.3450  213.9150  148.4860 C   0  0  0  0  0  3  0  0  0  0  0  0
  156.9080  213.9750  149.6960 C   0  0  0  0  0  0  0  0  0  0  0  0
  158.3450  213.6210  149.8740 C   0  0  0  0  0  0  0  0  0  0  0  0
  160.7870  208.7080  152.1700 C   0  0  0  0  0  2  0  0  0  0  0  0
  161.1630  207.2600  152.4510 C   0  0  0  0  0  2  0  0  0  0  0  0
  162.2940  207.7250  150.3140 C   0  0  0  0  0  2  0  0  0  0  0  0
  160.7130  206.4080  149.3490 O   0  0  0  0  0  0  0  0  0  0  0  0
  161.8500  203.7810  151.6480 O   0  0  0  0  0  1  0  0  0  0  0  0
  161.7330  207.2640  149.0450 N   0  0  0  0  0  2  0  0  0  0  0  0
  160.5880  203.6690  149.7420 O   0  0  0  0  0  0  0  0  0  0  0  0
  161.9540  206.6540  151.3000 C   0  0  2  0  0  3  0  0  0  0  0  0
  161.1050  205.8120  150.5010 N   0  0  0  0  0  0  0  0  0  0  0  0
  161.1630  204.3860  150.6010 C   0  0  0  0  0  0  0  0  0  0  0  0
  1 12  1  1  0  0  0
  2  4  1  0  0  0  0
  2  1  1  0  0  0  0
  3  8  1  0  0  0  0
  4  1  1  0  0  0  0
  6 13  2  0  0  0  0
  7  9  1  0  0  0  0
  7  2  1  0  0  0  0
  8 11  1  0  0  0  0
  9 14  1  0  0  0  0
 10  8  1  0  0  0  0
 11  5  1  0  0  0  0
 12 11  1  0  0  0  0
 13 10  1  0  0  0  0
 14  4  1  0  0  0  0
 14 13  1  0  0  0  0
 15 18  1  0  0  0  0
 16 15  2  0  0  0  0
 16 20  1  0  0  0  0
 17 15  1  0  0  0  0
 18 22  2  0  0  0  0
 20 21  2  0  0  0  0
 21 22  1  0  0  0  0
 21 19  1  0  0  0  0
 22  7  1  0  0  0  0
 23 24  1  0  0  0  0
 23  6  1  0  0  0  0
 25 30  1  0  0  0  0
 26 31  1  0  0  0  0
 28 26  1  0  0  0  0
 28 25  1  0  0  0  0
 29 32  2  0  0  0  0
 30 24  1  0  0  0  0
 31 32  1  0  0  0  0
 31 30  1  0  0  0  0
 32 27  1  0  0  0  0
M  END
>  <MODEL>
6

>  <REMARK>
 VINA RESULT:      -6.5      1.520      2.073
  Name = 
  4 active torsions:
  status: ('A' for Active; 'I' for Inactive)
    1  A    between atoms: C_12  and  C_16
    2  A    between atoms: C_14  and  C_29
    3  A    between atoms: C_16  and  C_30
    4  A    between atoms: C_25  and  C_30
                            x       y       z     vdW  Elec       q    Type
                         _______ _______ _______ _____ _____    ______ ____

>  <TORSDO>
F 4

$$$$
=
 OpenBabel11072410293D

 32 36  0  0  1  0  0  0  0  0999 V2000
  161.3360  207.1140  152.4820 C   0  0  2  0  0  3  0  0  0  0  0  0
  160.4870  207.9750  153.3000 C   0  0  2  0  0  3  0  0  0  0  0  0
  160.4550  206.5920  149.0310 C   0  0  0  0  0  1  0  0  0  0  0  0
  160.4620  208.1050  151.8320 N   0  0  1  0  0  0  0  0  0  0  0  0
  161.1980  204.0420  150.4460 O   0  0  0  0  0  1  0  0  0  0  0  0
  162.1320  209.6460  149.0480 C   0  0  0  0  0  3  0  0  0  0  0  0
  161.3620  209.0630  153.9140 C   0  0  1  0  0  3  0  0  0  0  0  0
  161.7880  206.2540  149.6900 C   0  0  1  0  0  3  0  0  0  0  0  0
  162.3340  209.9390  152.6510 S   0  0  0  0  0  0  0  0  0  0  0  0
  162.7310  207.4560  149.9410 C   0  0  0  0  0  2  0  0  0  0  0  0
  161.6690  205.2790  150.8840 C   0  0  1  0  0  3  0  0  0  0  0  0
  160.8050  205.7730  152.0500 C   0  0  0  0  0  2  0  0  0  0  0  0
  162.0620  208.8080  150.0920 C   0  0  0  0  0  0  0  0  0  0  0  0
  161.3030  209.1950  151.3470 C   0  0  1  0  0  3  0  0  0  0  0  0
  158.6640  211.3680  155.1270 C   0  0  0  0  0  0  0  0  0  0  0  0
  158.9410  211.5840  156.5830 C   0  0  0  0  0  3  0  0  0  0  0  0
  157.5540  211.8560  154.5960 C   0  0  0  0  0  1  0  0  0  0  0  0
  159.4830  210.4790  154.3600 N   0  0  0  0  0  0  0  0  0  0  0  0
  162.4410  210.0080  156.6570 C   0  0  0  0  0  1  0  0  0  0  0  0
  160.3310  211.1530  156.9550 C   0  0  0  0  0  3  0  0  0  0  0  0
  161.0890  210.3910  156.1630 C   0  0  0  0  0  0  0  0  0  0  0  0
  160.6010  209.9950  154.8110 C   0  0  0  0  0  0  0  0  0  0  0  0
  161.5050  211.0100  149.0210 C   0  0  0  0  0  2  0  0  0  0  0  0
  161.5200  211.6050  147.6200 C   0  0  0  0  0  2  0  0  0  0  0  0
  161.1710  213.6620  148.9260 C   0  0  0  0  0  2  0  0  0  0  0  0
  158.9480  213.2050  148.7920 O   0  0  0  0  0  0  0  0  0  0  0  0
  159.4120  213.2400  145.1500 O   0  0  0  0  0  0  0  0  0  0  0  0
  159.8410  214.0380  149.4040 N   0  0  0  0  0  2  0  0  0  0  0  0
  157.5170  213.3680  146.4270 O   0  0  0  0  0  1  0  0  0  0  0  0
  160.9360  213.0100  147.6020 C   0  0  2  0  0  3  0  0  0  0  0  0
  159.5000  212.9530  147.5800 N   0  0  0  0  0  0  0  0  0  0  0  0
  158.7620  213.1960  146.3780 C   0  0  0  0  0  0  0  0  0  0  0  0
  1 12  1  6  0  0  0
  1  2  1  0  0  0  0
  2  7  1  0  0  0  0
  3  8  1  0  0  0  0
  4  1  1  0  0  0  0
  4  2  1  0  0  0  0
  5 11  1  0  0  0  0
  6 13  2  0  0  0  0
  7 22  1  0  0  0  0
  8 10  1  0  0  0  0
  8 11  1  0  0  0  0
  9  7  1  0  0  0  0
 10 13  1  0  0  0  0
 11 12  1  0  0  0  0
 13 14  1  0  0  0  0
 14  4  1  0  0  0  0
 14  9  1  0  0  0  0
 15 16  1  0  0  0  0
 16 20  2  0  0  0  0
 17 15  1  0  0  0  0
 18 22  1  0  0  0  0
 18 15  2  0  0  0  0
 21 19  1  0  0  0  0
 21 20  1  0  0  0  0
 22 21  2  0  0  0  0
 23  6  1  0  0  0  0
 24 23  1  0  0  0  0
 25 28  1  0  0  0  0
 26 28  1  0  0  0  0
 27 32  2  0  0  0  0
 30 24  1  0  0  0  0
 30 25  1  0  0  0  0
 31 30  1  0  0  0  0
 31 26  1  0  0  0  0
 32 29  1  0  0  0  0
 32 31  1  0  0  0  0
M  END
>  <MODEL>
7

>  <REMARK>
 VINA RESULT:      -6.3      3.176      6.683
  Name = 
  4 active torsions:
  status: ('A' for Active; 'I' for Inactive)
    1  A    between atoms: C_12  and  C_16
    2  A    between atoms: C_14  and  C_29
    3  A    between atoms: C_16  and  C_30
    4  A    between atoms: C_25  and  C_30
                            x       y       z     vdW  Elec       q    Type
                         _______ _______ _______ _____ _____    ______ ____

>  <TORSDO>
F 4

$$$$
=
 OpenBabel11072410293D

 32 36  0  0  1  0  0  0  0  0999 V2000
  161.2730  210.0950  153.8670 C   0  0  2  0  0  3  0  0  0  0  0  0
  160.5730  210.9400  152.9040 C   0  0  2  0  0  3  0  0  0  0  0  0
  159.6870  207.0630  154.9840 C   0  0  0  0  0  1  0  0  0  0  0  0
  160.2160  209.5150  153.0230 N   0  0  1  0  0  0  0  0  0  0  0  0
  160.8870  208.6530  157.2390 O   0  0  0  0  0  1  0  0  0  0  0  0
  161.1270  206.2160  151.9260 C   0  0  0  0  0  3  0  0  0  0  0  0
  161.4900  211.1590  151.7050 C   0  0  1  0  0  3  0  0  0  0  0  0
  161.1520  207.4450  155.1690 C   0  0  1  0  0  3  0  0  0  0  0  0
  162.1010  209.5860  151.0270 S   0  0  0  0  0  0  0  0  0  0  0  0
  162.0480  207.2810  153.9180 C   0  0  0  0  0  2  0  0  0  0  0  0
  161.3630  208.7730  155.9340 C   0  0  1  0  0  3  0  0  0  0  0  0
  160.7480  210.0130  155.2740 C   0  0  0  0  0  2  0  0  0  0  0  0
  161.3440  207.3670  152.5780 C   0  0  0  0  0  0  0  0  0  0  0  0
  160.8570  208.6850  152.0070 C   0  0  1  0  0  3  0  0  0  0  0  0
  160.8610  212.7420  148.3650 C   0  0  0  0  0  0  0  0  0  0  0  0
  159.5990  213.5340  148.5240 C   0  0  0  0  0  3  0  0  0  0  0  0
  161.4090  212.6270  147.1660 C   0  0  0  0  0  1  0  0  0  0  0  0
  161.3610  211.9550  149.4500 N   0  0  0  0  0  0  0  0  0  0  0  0
  159.3530  213.3030  152.3480 C   0  0  0  0  0  1  0  0  0  0  0  0
  159.2470  213.7350  149.9700 C   0  0  0  0  0  3  0  0  0  0  0  0
  159.8070  213.0300  150.9570 C   0  0  0  0  0  0  0  0  0  0  0  0
  160.8890  212.0490  150.6570 C   0  0  0  0  0  0  0  0  0  0  0  0
  160.4230  206.1200  150.6030 C   0  0  0  0  0  2  0  0  0  0  0  0
  161.4060  205.8930  149.4620 C   0  0  0  0  0  2  0  0  0  0  0  0
  160.9040  203.5600  148.8570 C   0  0  0  0  0  2  0  0  0  0  0  0
  162.4320  203.8090  147.1930 O   0  0  0  0  0  0  0  0  0  0  0  0
  160.3700  206.6260  146.0550 O   0  0  0  0  0  1  0  0  0  0  0  0
  161.6660  202.8670  147.8190 N   0  0  0  0  0  2  0  0  0  0  0  0
  162.0120  205.4370  144.9920 O   0  0  0  0  0  0  0  0  0  0  0  0
  160.8220  204.9790  148.3940 C   0  0  2  0  0  3  0  0  0  0  0  0
  161.6860  204.9390  147.2460 N   0  0  0  0  0  0  0  0  0  0  0  0
  161.3740  205.6640  146.0520 C   0  0  0  0  0  0  0  0  0  0  0  0
  1 12  1  1  0  0  0
  2  4  1  0  0  0  0
  2  1  1  0  0  0  0
  3  8  1  0  0  0  0
  4  1  1  0  0  0  0
  6 13  2  0  0  0  0
  7  2  1  0  0  0  0
  8 11  1  0  0  0  0
  9  7  1  0  0  0  0
  9 14  1  0  0  0  0
 10  8  1  0  0  0  0
 11  5  1  0  0  0  0
 12 11  1  0  0  0  0
 13 10  1  0  0  0  0
 14 13  1  0  0  0  0
 14  4  1  0  0  0  0
 15 16  2  0  0  0  0
 15 18  1  0  0  0  0
 16 20  1  0  0  0  0
 17 15  1  0  0  0  0
 18 22  2  0  0  0  0
 20 21  2  0  0  0  0
 21 19  1  0  0  0  0
 22 21  1  0  0  0  0
 22  7  1  0  0  0  0
 23  6  1  0  0  0  0
 24 23  1  0  0  0  0
 26 31  1  0  0  0  0
 26 28  1  0  0  0  0
 28 25  1  0  0  0  0
 29 32  2  0  0  0  0
 30 25  1  0  0  0  0
 30 24  1  0  0  0  0
 31 30  1  0  0  0  0
 32 27  1  0  0  0  0
 32 31  1  0  0  0  0
M  END
>  <MODEL>
8

>  <REMARK>
 VINA RESULT:      -6.2      2.263      3.250
  Name = 
  4 active torsions:
  status: ('A' for Active; 'I' for Inactive)
    1  A    between atoms: C_12  and  C_16
    2  A    between atoms: C_14  and  C_29
    3  A    between atoms: C_16  and  C_30
    4  A    between atoms: C_25  and  C_30
                            x       y       z     vdW  Elec       q    Type
                         _______ _______ _______ _____ _____    ______ ____

>  <TORSDO>
F 4

$$$$
=
 OpenBabel11072410293D

 32 36  0  0  1  0  0  0  0  0999 V2000
  162.1070  208.1380  149.5030 C   0  0  2  0  0  3  0  0  0  0  0  0
  161.3650  206.8920  149.3410 C   0  0  2  0  0  3  0  0  0  0  0  0
  160.4570  210.9510  151.0270 C   0  0  0  0  0  1  0  0  0  0  0  0
  160.9300  207.8760  150.3490 N   0  0  1  0  0  0  0  0  0  0  0  0
  161.9900  211.6990  148.5480 O   0  0  0  0  0  1  0  0  0  0  0  0
  161.5060  208.9960  153.7140 C   0  0  0  0  0  3  0  0  0  0  0  0
  162.1610  205.7720  150.0020 C   0  0  1  0  0  3  0  0  0  0  0  0
  161.9550  210.7970  150.7840 C   0  0  1  0  0  3  0  0  0  0  0  0
  162.5930  206.1760  151.7210 S   0  0  0  0  0  0  0  0  0  0  0  0
  162.7000  209.8710  151.7760 C   0  0  0  0  0  2  0  0  0  0  0  0
  162.3310  210.5750  149.3010 C   0  0  1  0  0  3  0  0  0  0  0  0
  161.7300  209.3220  148.6540 C   0  0  0  0  0  2  0  0  0  0  0  0
  161.8640  208.7950  152.4390 C   0  0  0  0  0  0  0  0  0  0  0  0
  161.4060  207.5570  151.6920 C   0  0  1  0  0  3  0  0  0  0  0  0
  160.8500  202.6340  148.4230 C   0  0  0  0  0  0  0  0  0  0  0  0
  160.5120  201.7190  149.5610 C   0  0  0  0  0  3  0  0  0  0  0  0
  160.7740  202.1820  147.1820 C   0  0  0  0  0  1  0  0  0  0  0  0
  161.4380  203.9140  148.6760 N   0  0  0  0  0  0  0  0  0  0  0  0
  160.8330  204.3040  152.3810 C   0  0  0  0  0  1  0  0  0  0  0  0
  160.4450  202.4570  150.8670 C   0  0  0  0  0  3  0  0  0  0  0  0
  160.9350  203.6890  151.0290 C   0  0  0  0  0  0  0  0  0  0  0  0
  161.5100  204.4270  149.8680 C   0  0  0  0  0  0  0  0  0  0  0  0
  160.6600  208.0440  154.5110 C   0  0  0  0  0  2  0  0  0  0  0  0
  159.8330  208.7750  155.5590 C   0  0  0  0  0  2  0  0  0  0  0  0
  160.8470  210.7750  156.5750 C   0  0  0  0  0  2  0  0  0  0  0  0
  158.7230  211.4720  156.9890 O   0  0  0  0  0  0  0  0  0  0  0  0
  158.1780  211.1620  153.3710 O   0  0  0  0  0  0  0  0  0  0  0  0
  160.0270  211.7740  157.2610 N   0  0  0  0  0  2  0  0  0  0  0  0
  156.9740  212.2480  154.9870 O   0  0  0  0  0  1  0  0  0  0  0  0
  159.9960  210.2850  155.4480 C   0  0  2  0  0  3  0  0  0  0  0  0
  158.7530  210.9440  155.7420 N   0  0  0  0  0  0  0  0  0  0  0  0
  157.9310  211.4820  154.7020 C   0  0  0  0  0  0  0  0  0  0  0  0
  1 12  1  6  0  0  0
  1  4  1  0  0  0  0
  2  1  1  0  0  0  0
  2  7  1  0  0  0  0
  2  4  1  0  0  0  0
  4 14  1  0  0  0  0
  5 11  1  0  0  0  0
  6 23  1  0  0  0  0
  7  9  1  0  0  0  0
  8  3  1  0  0  0  0
  8 10  1  0  0  0  0
 10 13  1  0  0  0  0
 11  8  1  0  0  0  0
 12 11  1  0  0  0  0
 13  6  2  0  0  0  0
 14  9  1  0  0  0  0
 14 13  1  0  0  0  0
 15 18  2  0  0  0  0
 15 16  1  0  0  0  0
 16 20  2  0  0  0  0
 17 15  1  0  0  0  0
 18 22  1  0  0  0  0
 20 21  1  0  0  0  0
 21 19  1  0  0  0  0
 22  7  1  0  0  0  0
 22 21  2  0  0  0  0
 23 24  1  0  0  0  0
 25 28  1  0  0  0  0
 26 28  1  0  0  0  0
 27 32  2  0  0  0  0
 30 24  1  0  0  0  0
 30 31  1  0  0  0  0
 30 25  1  0  0  0  0
 31 26  1  0  0  0  0
 32 29  1  0  0  0  0
 32 31  1  0  0  0  0
M  END
>  <MODEL>
9

>  <REMARK>
 VINA RESULT:      -5.6      3.779      8.500
  Name = 
  4 active torsions:
  status: ('A' for Active; 'I' for Inactive)
    1  A    between atoms: C_12  and  C_16
    2  A    between atoms: C_14  and  C_29
    3  A    between atoms: C_16  and  C_30
    4  A    between atoms: C_25  and  C_30
                            x       y       z     vdW  Elec       q    Type
                         _______ _______ _______ _____ _____    ______ ____

>  <TORSDO>
F 4

$$$$
