=
 OpenBabel11072414403D

 26 30  0  0  0  0  0  0  0  0999 V2000
  160.8940  204.6380  150.7550 C   0  0  0  0  0  0  0  0  0  0  0  0
  161.0640  203.8670  152.0250 C   0  0  0  0  0  2  0  0  0  0  0  0
  161.3770  207.4120  152.9860 C   0  0  0  0  0  3  0  0  0  0  0  0
  161.2310  204.9440  153.0250 N   0  0  0  0  0  0  0  0  0  0  0  0
  161.1330  206.9980  150.1540 C   0  0  0  0  0  0  0  0  0  0  0  0
  161.5570  208.4360  152.1180 C   0  0  0  0  0  0  0  0  0  0  0  0
  161.1300  204.2680  149.4930 C   0  0  0  0  0  3  0  0  0  0  0  0
  161.2470  206.6150  148.7760 N   0  0  0  0  0  0  0  0  0  0  0  0
  161.2160  205.3430  148.4430 C   0  0  0  0  0  0  0  0  0  0  0  0
  161.4890  208.2000  150.6270 C   0  0  0  0  0  3  0  0  0  0  0  0
  161.0570  206.0880  152.4390 C   0  0  0  0  0  0  0  0  0  0  0  0
  160.7900  205.9880  151.0740 N   0  0  0  0  0  0  0  0  0  0  0  0
  161.4200  205.0620  144.9260 C   0  0  0  0  0  0  0  0  0  0  0  0
  161.5660  203.6920  146.5470 C   0  0  0  0  0  2  0  0  0  0  0  0
  161.3410  204.9670  147.0270 C   0  0  0  0  0  0  0  0  0  0  0  0
  161.6150  203.7600  145.2030 N   0  0  0  0  0  0  0  0  0  0  0  0
  161.2470  205.8420  146.0090 N   0  0  0  0  0  0  0  0  0  0  0  0
  161.3980  205.5740  143.5980 N   0  0  0  0  0  1  0  0  0  0  0  0
  161.8150  209.7050  152.6570 O   0  0  0  0  0  0  0  0  0  0  0  0
  158.7190  211.6290  153.2750 C   0  0  0  0  0  3  0  0  0  0  0  0
  158.9750  212.1890  154.5300 C   0  0  0  0  0  0  0  0  0  0  0  0
  159.6760  210.8110  152.6670 C   0  0  0  0  0  3  0  0  0  0  0  0
  160.1840  211.9280  155.1770 C   0  0  0  0  0  3  0  0  0  0  0  0
  157.7770  213.2130  155.2910 Cl  0  0  0  0  0  0  0  0  0  0  0  0
  161.1390  211.1080  154.5680 C   0  0  0  0  0  3  0  0  0  0  0  0
  160.8960  210.5490  153.3040 C   0  0  0  0  0  0  0  0  0  0  0  0
  1 12  1  0  0  0  0
  1  2  1  0  0  0  0
  2  4  1  0  0  0  0
  5 10  2  0  0  0  0
  5 12  1  0  0  0  0
  6 19  1  0  0  0  0
  6  3  2  0  0  0  0
  7  1  2  0  0  0  0
  8  5  1  0  0  0  0
  9  8  2  0  0  0  0
  9  7  1  0  0  0  0
 10  6  1  0  0  0  0
 11  3  1  0  0  0  0
 11  4  2  0  0  0  0
 12 11  1  0  0  0  0
 13 16  2  0  0  0  0
 13 17  1  0  0  0  0
 14 15  1  0  0  0  0
 15  9  1  0  0  0  0
 16 14  1  0  0  0  0
 17 15  2  0  0  0  0
 18 13  1  0  0  0  0
 19 26  1  0  0  0  0
 20 21  1  0  0  0  0
 21 23  2  0  0  0  0
 21 24  1  0  0  0  0
 22 20  2  0  0  0  0
 22 26  1  0  0  0  0
 25 23  1  0  0  0  0
 26 25  2  0  0  0  0
M  END
>  <MODEL>
1

>  <REMARK>
 VINA RESULT:      -8.7      0.000      0.000
  Name = 
  3 active torsions:
  status: ('A' for Active; 'I' for Inactive)
    1  A    between atoms: C_12  and  C_17
    2  A    between atoms: C_13  and  O_25
    3  A    between atoms: O_25  and  C_26
                            x       y       z     vdW  Elec       q    Type
                         _______ _______ _______ _____ _____    ______ ____

>  <TORSDO>
F 3

$$$$
=
 OpenBabel11072414403D

 26 30  0  0  0  0  0  0  0  0999 V2000
  161.8150  209.9630  151.7420 C   0  0  0  0  0  0  0  0  0  0  0  0
  161.3460  210.0160  153.1600 C   0  0  0  0  0  2  0  0  0  0  0  0
  161.3200  206.4420  152.2580 C   0  0  0  0  0  3  0  0  0  0  0  0
  161.1520  208.5850  153.4800 N   0  0  0  0  0  0  0  0  0  0  0  0
  161.9730  208.1830  150.0680 C   0  0  0  0  0  0  0  0  0  0  0  0
  161.4130  205.9620  150.9950 C   0  0  0  0  0  0  0  0  0  0  0  0
  161.7460  210.8910  150.7830 C   0  0  0  0  0  3  0  0  0  0  0  0
  162.0380  209.1820  149.0410 N   0  0  0  0  0  0  0  0  0  0  0  0
  161.9670  210.4570  149.3590 C   0  0  0  0  0  0  0  0  0  0  0  0
  161.6940  206.8930  149.8390 C   0  0  0  0  0  3  0  0  0  0  0  0
  161.5600  207.8740  152.4750 C   0  0  0  0  0  0  0  0  0  0  0  0
  162.0320  208.6300  151.4030 N   0  0  0  0  0  0  0  0  0  0  0  0
  161.5040  212.7360  146.6970 C   0  0  0  0  0  0  0  0  0  0  0  0
  163.1410  212.2140  147.9520 C   0  0  0  0  0  3  0  0  0  0  0  0
  162.0300  211.4680  148.2930 C   0  0  0  0  0  0  0  0  0  0  0  0
  162.7980  213.0220  146.9320 N   0  0  0  0  0  0  0  0  0  0  0  0
  160.9880  211.7910  147.5050 N   0  0  0  0  0  2  0  0  0  0  0  0
  160.7430  213.3790  145.6810 N   0  0  0  0  0  1  0  0  0  0  0  0
  161.2290  204.5830  150.8110 O   0  0  0  0  0  0  0  0  0  0  0  0
  160.5370  201.8710  148.3970 C   0  0  0  0  0  3  0  0  0  0  0  0
  160.9100  202.4620  147.1860 C   0  0  0  0  0  0  0  0  0  0  0  0
  160.6550  202.5900  149.5900 C   0  0  0  0  0  3  0  0  0  0  0  0
  161.3970  203.7700  147.1700 C   0  0  0  0  0  3  0  0  0  0  0  0
  160.7640  201.5620  145.6920 Cl  0  0  0  0  0  0  0  0  0  0  0  0
  161.5130  204.4880  148.3640 C   0  0  0  0  0  3  0  0  0  0  0  0
  161.1490  203.9000  149.5860 C   0  0  0  0  0  0  0  0  0  0  0  0
  1  2  1  0  0  0  0
  2  4  1  0  0  0  0
  3 11  1  0  0  0  0
  5 12  1  0  0  0  0
  6  3  2  0  0  0  0
  7  1  2  0  0  0  0
  8  9  2  0  0  0  0
  8  5  1  0  0  0  0
  9  7  1  0  0  0  0
 10  5  2  0  0  0  0
 10  6  1  0  0  0  0
 11  4  2  0  0  0  0
 12  1  1  0  0  0  0
 12 11  1  0  0  0  0
 13 16  2  0  0  0  0
 13 17  1  0  0  0  0
 14 15  2  0  0  0  0
 15  9  1  0  0  0  0
 16 14  1  0  0  0  0
 17 15  1  0  0  0  0
 18 13  1  0  0  0  0
 19  6  1  0  0  0  0
 20 22  1  0  0  0  0
 21 20  2  0  0  0  0
 23 21  1  0  0  0  0
 23 25  2  0  0  0  0
 24 21  1  0  0  0  0
 25 26  1  0  0  0  0
 26 22  2  0  0  0  0
 26 19  1  0  0  0  0
M  END
>  <MODEL>
2

>  <REMARK>
 VINA RESULT:      -8.4      4.555      7.489
  Name = 
  3 active torsions:
  status: ('A' for Active; 'I' for Inactive)
    1  A    between atoms: C_12  and  C_17
    2  A    between atoms: C_13  and  O_25
    3  A    between atoms: O_25  and  C_26
                            x       y       z     vdW  Elec       q    Type
                         _______ _______ _______ _____ _____    ______ ____

>  <TORSDO>
F 3

$$$$
=
 OpenBabel11072414403D

 26 30  0  0  0  0  0  0  0  0999 V2000
  161.9030  207.1070  149.5100 C   0  0  0  0  0  0  0  0  0  0  0  0
  161.9420  208.5120  149.0000 C   0  0  0  0  0  2  0  0  0  0  0  0
  161.4890  208.8090  152.6470 C   0  0  0  0  0  3  0  0  0  0  0  0
  161.8180  209.3000  150.2450 N   0  0  0  0  0  0  0  0  0  0  0  0
  161.4240  206.1010  151.6890 C   0  0  0  0  0  0  0  0  0  0  0  0
  161.1340  207.7920  153.4670 C   0  0  0  0  0  0  0  0  0  0  0  0
  161.5460  205.9810  148.8850 C   0  0  0  0  0  3  0  0  0  0  0  0
  161.1750  204.8500  151.0340 N   0  0  0  0  0  0  0  0  0  0  0  0
  161.2590  204.7650  149.7240 C   0  0  0  0  0  0  0  0  0  0  0  0
  161.0400  206.3790  152.9430 C   0  0  0  0  0  3  0  0  0  0  0  0
  161.8380  208.4880  151.2570 C   0  0  0  0  0  0  0  0  0  0  0  0
  161.9460  207.1460  150.9000 N   0  0  0  0  0  0  0  0  0  0  0  0
  160.8480  201.9530  147.6230 C   0  0  0  0  0  0  0  0  0  0  0  0
  160.4610  202.3560  149.6760 C   0  0  0  0  0  2  0  0  0  0  0  0
  160.9930  203.4760  149.0680 C   0  0  0  0  0  0  0  0  0  0  0  0
  160.3720  201.3860  148.7460 N   0  0  0  0  0  0  0  0  0  0  0  0
  161.2420  203.2320  147.7690 N   0  0  0  0  0  0  0  0  0  0  0  0
  160.9310  201.2600  146.3830 N   0  0  0  0  0  1  0  0  0  0  0  0
  160.8510  208.1080  154.8050 O   0  0  0  0  0  0  0  0  0  0  0  0
  161.7160  211.2540  156.5410 C   0  0  0  0  0  3  0  0  0  0  0  0
  160.5200  211.9710  156.4500 C   0  0  0  0  0  0  0  0  0  0  0  0
  161.8050  209.9710  155.9930 C   0  0  0  0  0  3  0  0  0  0  0  0
  159.4150  211.4070  155.8080 C   0  0  0  0  0  3  0  0  0  0  0  0
  160.4080  213.5770  157.1370 Cl  0  0  0  0  0  0  0  0  0  0  0  0
  159.5070  210.1240  155.2600 C   0  0  0  0  0  3  0  0  0  0  0  0
  160.7020  209.3920  155.3540 C   0  0  0  0  0  0  0  0  0  0  0  0
  1 12  1  0  0  0  0
  2  1  1  0  0  0  0
  2  4  1  0  0  0  0
  3  6  2  0  0  0  0
  4 11  2  0  0  0  0
  5 10  2  0  0  0  0
  6 19  1  0  0  0  0
  7  1  2  0  0  0  0
  7  9  1  0  0  0  0
  8  5  1  0  0  0  0
  9  8  2  0  0  0  0
 10  6  1  0  0  0  0
 11  3  1  0  0  0  0
 12 11  1  0  0  0  0
 12  5  1  0  0  0  0
 13 17  1  0  0  0  0
 13 16  2  0  0  0  0
 15 14  1  0  0  0  0
 15  9  1  0  0  0  0
 16 14  1  0  0  0  0
 17 15  2  0  0  0  0
 18 13  1  0  0  0  0
 19 26  1  0  0  0  0
 21 20  1  0  0  0  0
 21 24  1  0  0  0  0
 22 20  2  0  0  0  0
 23 21  2  0  0  0  0
 25 26  2  0  0  0  0
 25 23  1  0  0  0  0
 26 22  1  0  0  0  0
M  END
>  <MODEL>
3

>  <REMARK>
 VINA RESULT:      -8.2      2.240      3.237
  Name = 
  3 active torsions:
  status: ('A' for Active; 'I' for Inactive)
    1  A    between atoms: C_12  and  C_17
    2  A    between atoms: C_13  and  O_25
    3  A    between atoms: O_25  and  C_26
                            x       y       z     vdW  Elec       q    Type
                         _______ _______ _______ _____ _____    ______ ____

>  <TORSDO>
F 3

$$$$
=
 OpenBabel11072414403D

 26 30  0  0  0  0  0  0  0  0999 V2000
  161.4050  208.9160  153.0670 C   0  0  0  0  0  0  0  0  0  0  0  0
  160.8540  208.7810  154.4510 C   0  0  0  0  0  2  0  0  0  0  0  0
  161.0390  205.3430  153.1340 C   0  0  0  0  0  3  0  0  0  0  0  0
  160.7070  207.3160  154.5870 N   0  0  0  0  0  0  0  0  0  0  0  0
  161.7340  207.3580  151.2080 C   0  0  0  0  0  0  0  0  0  0  0  0
  161.2230  205.0220  151.8310 C   0  0  0  0  0  0  0  0  0  0  0  0
  161.3470  209.9500  152.2220 C   0  0  0  0  0  3  0  0  0  0  0  0
  161.8120  208.4760  150.3120 N   0  0  0  0  0  0  0  0  0  0  0  0
  161.6660  209.6990  150.7730 C   0  0  0  0  0  0  0  0  0  0  0  0
  161.5270  206.0950  150.8120 C   0  0  0  0  0  3  0  0  0  0  0  0
  161.2020  206.7470  153.5320 C   0  0  0  0  0  0  0  0  0  0  0  0
  161.6990  207.6440  152.5880 N   0  0  0  0  0  0  0  0  0  0  0  0
  161.5350  212.7450  148.9840 C   0  0  0  0  0  0  0  0  0  0  0  0
  162.3310  210.8110  148.5900 C   0  0  0  0  0  2  0  0  0  0  0  0
  161.7430  210.8330  149.8390 C   0  0  0  0  0  0  0  0  0  0  0  0
  162.1950  212.0370  148.0490 N   0  0  0  0  0  0  0  0  0  0  0  0
  161.2360  212.0520  150.0990 N   0  0  0  0  0  0  0  0  0  0  0  0
  161.1840  214.1130  148.8110 N   0  0  0  0  0  1  0  0  0  0  0  0
  161.1120  203.6700  151.4740 O   0  0  0  0  0  0  0  0  0  0  0  0
  160.7590  201.1970  148.7500 C   0  0  0  0  0  3  0  0  0  0  0  0
  160.9190  201.9950  147.6140 C   0  0  0  0  0  0  0  0  0  0  0  0
  160.8320  201.7700  150.0230 C   0  0  0  0  0  3  0  0  0  0  0  0
  161.1470  203.3660  147.7520 C   0  0  0  0  0  3  0  0  0  0  0  0
  160.8300  201.2780  146.0210 Cl  0  0  0  0  0  0  0  0  0  0  0  0
  161.2170  203.9380  149.0260 C   0  0  0  0  0  3  0  0  0  0  0  0
  161.0680  203.1420  150.1730 C   0  0  0  0  0  0  0  0  0  0  0  0
  1  2  1  0  0  0  0
  2  4  1  0  0  0  0
  3 11  1  0  0  0  0
  5 12  1  0  0  0  0
  6  3  2  0  0  0  0
  7  1  2  0  0  0  0
  8  9  2  0  0  0  0
  8  5  1  0  0  0  0
  9  7  1  0  0  0  0
 10  5  2  0  0  0  0
 10  6  1  0  0  0  0
 11  4  2  0  0  0  0
 12  1  1  0  0  0  0
 12 11  1  0  0  0  0
 13 17  1  0  0  0  0
 14 15  1  0  0  0  0
 15 17  2  0  0  0  0
 15  9  1  0  0  0  0
 16 14  1  0  0  0  0
 16 13  2  0  0  0  0
 18 13  1  0  0  0  0
 19  6  1  0  0  0  0
 20 22  1  0  0  0  0
 21 23  1  0  0  0  0
 21 20  2  0  0  0  0
 22 26  2  0  0  0  0
 23 25  2  0  0  0  0
 24 21  1  0  0  0  0
 25 26  1  0  0  0  0
 26 19  1  0  0  0  0
M  END
>  <MODEL>
4

>  <REMARK>
 VINA RESULT:      -8.2      4.377      7.595
  Name = 
  3 active torsions:
  status: ('A' for Active; 'I' for Inactive)
    1  A    between atoms: C_12  and  C_17
    2  A    between atoms: C_13  and  O_25
    3  A    between atoms: O_25  and  C_26
                            x       y       z     vdW  Elec       q    Type
                         _______ _______ _______ _____ _____    ______ ____

>  <TORSDO>
F 3

$$$$
=
 OpenBabel11072414403D

 26 30  0  0  0  0  0  0  0  0999 V2000
  161.0620  205.8760  150.9350 C   0  0  0  0  0  0  0  0  0  0  0  0
  161.2710  205.8590  152.4150 C   0  0  0  0  0  2  0  0  0  0  0  0
  161.8070  209.3610  151.3960 C   0  0  0  0  0  3  0  0  0  0  0  0
  161.5470  207.2810  152.7090 N   0  0  0  0  0  0  0  0  0  0  0  0
  161.3750  207.5670  149.1930 C   0  0  0  0  0  0  0  0  0  0  0  0
  161.9830  209.7760  150.1190 C   0  0  0  0  0  0  0  0  0  0  0  0
  161.2050  204.8940  150.0400 C   0  0  0  0  0  3  0  0  0  0  0  0
  161.3900  206.5230  148.2100 N   0  0  0  0  0  0  0  0  0  0  0  0
  161.2780  205.2670  148.5840 C   0  0  0  0  0  0  0  0  0  0  0  0
  161.8160  208.8130  148.9680 C   0  0  0  0  0  3  0  0  0  0  0  0
  161.3920  207.9700  151.6210 C   0  0  0  0  0  0  0  0  0  0  0  0
  161.0410  207.2020  150.5130 N   0  0  0  0  0  0  0  0  0  0  0  0
  161.1670  202.3350  146.6130 C   0  0  0  0  0  0  0  0  0  0  0  0
  161.6090  204.3810  146.2280 C   0  0  0  0  0  2  0  0  0  0  0  0
  161.3010  204.2080  147.5630 C   0  0  0  0  0  0  0  0  0  0  0  0
  161.5210  203.1800  145.6260 N   0  0  0  0  0  0  0  0  0  0  0  0
  161.0200  202.9170  147.8180 N   0  0  0  0  0  0  0  0  0  0  0  0
  160.9650  200.9430  146.4010 N   0  0  0  0  0  1  0  0  0  0  0  0
  162.3320  211.1200  149.9170 O   0  0  0  0  0  0  0  0  0  0  0  0
  162.7640  212.9760  146.7500 C   0  0  0  0  0  3  0  0  0  0  0  0
  161.4740  213.4630  146.5240 C   0  0  0  0  0  0  0  0  0  0  0  0
  163.0310  212.2050  147.8850 C   0  0  0  0  0  3  0  0  0  0  0  0
  160.4510  213.1740  147.4290 C   0  0  0  0  0  3  0  0  0  0  0  0
  161.1400  214.4300  145.1040 Cl  0  0  0  0  0  0  0  0  0  0  0  0
  160.7190  212.4010  148.5630 C   0  0  0  0  0  3  0  0  0  0  0  0
  162.0140  211.9160  148.8040 C   0  0  0  0  0  0  0  0  0  0  0  0
  1  2  1  0  0  0  0
  2  4  1  0  0  0  0
  3 11  1  0  0  0  0
  5 12  1  0  0  0  0
  6  3  2  0  0  0  0
  7  1  2  0  0  0  0
  8  9  2  0  0  0  0
  8  5  1  0  0  0  0
  9  7  1  0  0  0  0
 10  5  2  0  0  0  0
 10  6  1  0  0  0  0
 11  4  2  0  0  0  0
 12  1  1  0  0  0  0
 12 11  1  0  0  0  0
 13 17  1  0  0  0  0
 14 15  1  0  0  0  0
 15 17  2  0  0  0  0
 15  9  1  0  0  0  0
 16 14  1  0  0  0  0
 16 13  2  0  0  0  0
 18 13  1  0  0  0  0
 19  6  1  0  0  0  0
 20 22  1  0  0  0  0
 21 20  2  0  0  0  0
 21 23  1  0  0  0  0
 22 26  2  0  0  0  0
 23 25  2  0  0  0  0
 24 21  1  0  0  0  0
 25 26  1  0  0  0  0
 26 19  1  0  0  0  0
M  END
>  <MODEL>
5

>  <REMARK>
 VINA RESULT:      -8.1      3.661      4.418
  Name = 
  3 active torsions:
  status: ('A' for Active; 'I' for Inactive)
    1  A    between atoms: C_12  and  C_17
    2  A    between atoms: C_13  and  O_25
    3  A    between atoms: O_25  and  C_26
                            x       y       z     vdW  Elec       q    Type
                         _______ _______ _______ _____ _____    ______ ____

>  <TORSDO>
F 3

$$$$
=
 OpenBabel11072414403D

 26 30  0  0  0  0  0  0  0  0999 V2000
  161.4710  209.6350  151.4630 C   0  0  0  0  0  0  0  0  0  0  0  0
  162.0340  209.9100  150.1050 C   0  0  0  0  0  3  0  0  0  0  0  0
  161.4570  206.2700  150.2020 C   0  0  0  0  0  3  0  0  0  0  0  0
  162.0280  208.5670  149.4860 N   0  0  0  0  0  0  0  0  0  0  0  0
  160.9370  207.5910  152.7000 C   0  0  0  0  0  0  0  0  0  0  0  0
  161.2110  205.5560  151.3260 C   0  0  0  0  0  0  0  0  0  0  0  0
  161.6190  210.3150  152.6030 C   0  0  0  0  0  2  0  0  0  0  0  0
  160.9580  208.3480  153.9180 N   0  0  0  0  0  0  0  0  0  0  0  0
  161.2430  209.6320  153.8900 C   0  0  0  0  0  0  0  0  0  0  0  0
  161.0010  206.2540  152.6490 C   0  0  0  0  0  3  0  0  0  0  0  0
  161.4530  207.7350  150.2980 C   0  0  0  0  0  0  0  0  0  0  0  0
  161.0330  208.3140  151.4940 N   0  0  0  0  0  0  0  0  0  0  0  0
  160.9020  211.8590  156.6130 C   0  0  0  0  0  0  0  0  0  0  0  0
  161.9760  210.0520  156.2840 C   0  0  0  0  0  2  0  0  0  0  0  0
  161.2660  210.3910  155.1500 C   0  0  0  0  0  0  0  0  0  0  0  0
  161.7380  210.9940  157.2160 N   0  0  0  0  0  0  0  0  0  0  0  0
  160.5820  211.5330  155.3470 N   0  0  0  0  0  0  0  0  0  0  0  0
  160.3950  213.0210  157.2600 N   0  0  0  0  0  1  0  0  0  0  0  0
  161.1710  204.1580  151.2100 O   0  0  0  0  0  0  0  0  0  0  0  0
  160.7520  201.2580  148.9560 C   0  0  0  0  0  3  0  0  0  0  0  0
  160.9400  201.8410  147.7000 C   0  0  0  0  0  0  0  0  0  0  0  0
  160.8370  202.0430  150.1100 C   0  0  0  0  0  3  0  0  0  0  0  0
  161.2090  203.2080  147.5980 C   0  0  0  0  0  3  0  0  0  0  0  0
  160.8340  200.8590  146.2550 Cl  0  0  0  0  0  0  0  0  0  0  0  0
  161.2930  203.9910  148.7540 C   0  0  0  0  0  3  0  0  0  0  0  0
  161.1150  203.4130  150.0210 C   0  0  0  0  0  0  0  0  0  0  0  0
  1 12  1  0  0  0  0
  1  7  1  0  0  0  0
  2  1  2  0  0  0  0
  3 11  1  0  0  0  0
  3  6  2  0  0  0  0
  4  2  1  0  0  0  0
  4 11  2  0  0  0  0
  5  8  1  0  0  0  0
  6 10  1  0  0  0  0
  7  9  1  0  0  0  0
  9  8  2  0  0  0  0
  9 15  1  0  0  0  0
 10  5  2  0  0  0  0
 11 12  1  0  0  0  0
 12  5  1  0  0  0  0
 13 16  2  0  0  0  0
 13 18  1  0  0  0  0
 14 16  1  0  0  0  0
 15 17  2  0  0  0  0
 15 14  1  0  0  0  0
 17 13  1  0  0  0  0
 19  6  1  0  0  0  0
 20 22  1  0  0  0  0
 21 20  2  0  0  0  0
 23 21  1  0  0  0  0
 23 25  2  0  0  0  0
 24 21  1  0  0  0  0
 25 26  1  0  0  0  0
 26 22  2  0  0  0  0
 26 19  1  0  0  0  0
M  END
>  <MODEL>
6

>  <REMARK>
 VINA RESULT:      -8.0      4.511      9.131
  Name = 
  3 active torsions:
  status: ('A' for Active; 'I' for Inactive)
    1  A    between atoms: C_12  and  C_17
    2  A    between atoms: C_13  and  O_25
    3  A    between atoms: O_25  and  C_26
                            x       y       z     vdW  Elec       q    Type
                         _______ _______ _______ _____ _____    ______ ____

>  <TORSDO>
F 3

$$$$
=
 OpenBabel11072414403D

 26 30  0  0  0  0  0  0  0  0999 V2000
  159.9390  209.4880  155.4470 C   0  0  0  0  0  0  0  0  0  0  0  0
  160.0090  208.4280  156.4990 C   0  0  0  0  0  2  0  0  0  0  0  0
  161.5500  206.9310  153.5030 C   0  0  0  0  0  3  0  0  0  0  0  0
  160.7060  207.3310  155.7930 N   0  0  0  0  0  0  0  0  0  0  0  0
  160.4360  209.5410  153.0510 C   0  0  0  0  0  0  0  0  0  0  0  0
  161.4550  207.4370  152.2510 C   0  0  0  0  0  0  0  0  0  0  0  0
  159.0850  210.5080  155.3170 C   0  0  0  0  0  3  0  0  0  0  0  0
  159.6290  210.7210  152.9310 N   0  0  0  0  0  0  0  0  0  0  0  0
  159.0150  211.2080  153.9870 C   0  0  0  0  0  0  0  0  0  0  0  0
  160.8120  208.7830  152.0120 C   0  0  0  0  0  3  0  0  0  0  0  0
  161.0650  207.7520  154.6200 C   0  0  0  0  0  0  0  0  0  0  0  0
  160.6900  209.0680  154.3540 N   0  0  0  0  0  0  0  0  0  0  0  0
  156.5770  213.7670  153.9470 C   0  0  0  0  0  0  0  0  0  0  0  0
  158.5760  213.5930  153.2370 C   0  0  0  0  0  2  0  0  0  0  0  0
  158.1870  212.4150  153.8440 C   0  0  0  0  0  0  0  0  0  0  0  0
  157.5430  214.4530  153.3070 N   0  0  0  0  0  0  0  0  0  0  0  0
  156.9240  212.5140  154.2960 N   0  0  0  0  0  0  0  0  0  0  0  0
  155.2970  214.3190  154.2320 N   0  0  0  0  0  1  0  0  0  0  0  0
  161.9660  206.6610  151.1990 O   0  0  0  0  0  0  0  0  0  0  0  0
  160.7590  203.9130  149.0430 C   0  0  0  0  0  3  0  0  0  0  0  0
  160.7240  202.8400  149.9380 C   0  0  0  0  0  0  0  0  0  0  0  0
  161.1690  205.1750  149.4820 C   0  0  0  0  0  3  0  0  0  0  0  0
  161.1030  203.0280  151.2680 C   0  0  0  0  0  3  0  0  0  0  0  0
  160.2090  201.2600  149.3890 Cl  0  0  0  0  0  0  0  0  0  0  0  0
  161.5150  204.2920  151.7040 C   0  0  0  0  0  3  0  0  0  0  0  0
  161.5440  205.3780  150.8150 C   0  0  0  0  0  0  0  0  0  0  0  0
  1  2  1  0  0  0  0
  3 11  1  0  0  0  0
  4  2  1  0  0  0  0
  5 12  1  0  0  0  0
  6  3  2  0  0  0  0
  7  1  2  0  0  0  0
  8  5  1  0  0  0  0
  8  9  2  0  0  0  0
  9  7  1  0  0  0  0
 10  6  1  0  0  0  0
 10  5  2  0  0  0  0
 11  4  2  0  0  0  0
 12 11  1  0  0  0  0
 12  1  1  0  0  0  0
 13 18  1  0  0  0  0
 13 17  1  0  0  0  0
 14 16  1  0  0  0  0
 14 15  1  0  0  0  0
 15  9  1  0  0  0  0
 15 17  2  0  0  0  0
 16 13  2  0  0  0  0
 19  6  1  0  0  0  0
 20 22  2  0  0  0  0
 20 21  1  0  0  0  0
 21 23  2  0  0  0  0
 22 26  1  0  0  0  0
 23 25  1  0  0  0  0
 24 21  1  0  0  0  0
 26 19  1  0  0  0  0
 26 25  2  0  0  0  0
M  END
>  <MODEL>
7

>  <REMARK>
 VINA RESULT:      -8.0      4.906      8.657
  Name = 
  3 active torsions:
  status: ('A' for Active; 'I' for Inactive)
    1  A    between atoms: C_12  and  C_17
    2  A    between atoms: C_13  and  O_25
    3  A    between atoms: O_25  and  C_26
                            x       y       z     vdW  Elec       q    Type
                         _______ _______ _______ _____ _____    ______ ____

>  <TORSDO>
F 3

$$$$
=
 OpenBabel11072414403D

 26 30  0  0  0  0  0  0  0  0999 V2000
  160.9070  208.2830  154.2290 C   0  0  0  0  0  0  0  0  0  0  0  0
  160.7550  207.3400  155.3790 C   0  0  0  0  0  2  0  0  0  0  0  0
  161.2690  205.1980  152.4220 C   0  0  0  0  0  3  0  0  0  0  0  0
  160.9330  206.0230  154.7300 N   0  0  0  0  0  0  0  0  0  0  0  0
  161.0590  207.9950  151.8030 C   0  0  0  0  0  0  0  0  0  0  0  0
  161.1820  205.6190  151.1380 C   0  0  0  0  0  0  0  0  0  0  0  0
  160.4420  209.5260  154.0760 C   0  0  0  0  0  3  0  0  0  0  0  0
  160.6940  209.3730  151.6370 N   0  0  0  0  0  0  0  0  0  0  0  0
  160.4330  210.1150  152.6910 C   0  0  0  0  0  0  0  0  0  0  0  0
  161.0090  207.0850  150.8200 C   0  0  0  0  0  3  0  0  0  0  0  0
  161.2510  206.2100  153.4860 C   0  0  0  0  0  0  0  0  0  0  0  0
  161.3140  207.5520  153.1160 N   0  0  0  0  0  0  0  0  0  0  0  0
  159.6980  213.4050  151.6290 C   0  0  0  0  0  0  0  0  0  0  0  0
  159.5730  212.3680  153.4840 C   0  0  0  0  0  2  0  0  0  0  0  0
  160.0550  211.5240  152.5030 C   0  0  0  0  0  0  0  0  0  0  0  0
  159.3470  213.5690  152.9190 N   0  0  0  0  0  0  0  0  0  0  0  0
  160.1380  212.1690  151.3260 N   0  0  0  0  0  0  0  0  0  0  0  0
  159.6100  214.4490  150.6670 N   0  0  0  0  0  1  0  0  0  0  0  0
  161.2500  204.6440  150.1310 O   0  0  0  0  0  0  0  0  0  0  0  0
  161.6470  203.9670  146.5190 C   0  0  0  0  0  3  0  0  0  0  0  0
  161.2710  205.1880  145.9550 C   0  0  0  0  0  0  0  0  0  0  0  0
  161.6390  203.8070  147.9080 C   0  0  0  0  0  3  0  0  0  0  0  0
  160.8830  206.2470  146.7780 C   0  0  0  0  0  3  0  0  0  0  0  0
  161.2830  205.3890  144.2170 Cl  0  0  0  0  0  0  0  0  0  0  0  0
  160.8740  206.0840  148.1670 C   0  0  0  0  0  3  0  0  0  0  0  0
  161.2590  204.8640  148.7440 C   0  0  0  0  0  0  0  0  0  0  0  0
  1  2  1  0  0  0  0
  3 11  1  0  0  0  0
  4  2  1  0  0  0  0
  5 12  1  0  0  0  0
  6  3  2  0  0  0  0
  7  1  2  0  0  0  0
  8  5  1  0  0  0  0
  8  9  2  0  0  0  0
  9  7  1  0  0  0  0
 10  6  1  0  0  0  0
 10  5  2  0  0  0  0
 11  4  2  0  0  0  0
 12 11  1  0  0  0  0
 12  1  1  0  0  0  0
 13 16  2  0  0  0  0
 15  9  1  0  0  0  0
 15 14  1  0  0  0  0
 16 14  1  0  0  0  0
 17 13  1  0  0  0  0
 17 15  2  0  0  0  0
 18 13  1  0  0  0  0
 19  6  1  0  0  0  0
 20 22  1  0  0  0  0
 21 20  2  0  0  0  0
 21 23  1  0  0  0  0
 22 26  2  0  0  0  0
 23 25  2  0  0  0  0
 24 21  1  0  0  0  0
 25 26  1  0  0  0  0
 26 19  1  0  0  0  0
M  END
>  <MODEL>
8

>  <REMARK>
 VINA RESULT:      -7.6      4.279      7.934
  Name = 
  3 active torsions:
  status: ('A' for Active; 'I' for Inactive)
    1  A    between atoms: C_12  and  C_17
    2  A    between atoms: C_13  and  O_25
    3  A    between atoms: O_25  and  C_26
                            x       y       z     vdW  Elec       q    Type
                         _______ _______ _______ _____ _____    ______ ____

>  <TORSDO>
F 3

$$$$
=
 OpenBabel11072414403D

 26 30  0  0  0  0  0  0  0  0999 V2000
  161.2860  206.8680  153.2100 C   0  0  0  0  0  0  0  0  0  0  0  0
  161.1240  205.4780  153.7360 C   0  0  0  0  0  2  0  0  0  0  0  0
  161.6580  205.0910  150.1090 C   0  0  0  0  0  3  0  0  0  0  0  0
  161.3050  204.6590  152.5180 N   0  0  0  0  0  0  0  0  0  0  0  0
  161.4560  207.8270  150.9640 C   0  0  0  0  0  0  0  0  0  0  0  0
  161.5820  206.0960  149.2040 C   0  0  0  0  0  0  0  0  0  0  0  0
  160.8230  208.0250  153.6940 C   0  0  0  0  0  3  0  0  0  0  0  0
  161.0940  209.1050  151.5040 N   0  0  0  0  0  0  0  0  0  0  0  0
  160.8260  209.2250  152.7860 C   0  0  0  0  0  0  0  0  0  0  0  0
  161.4130  207.5270  149.6590 C   0  0  0  0  0  3  0  0  0  0  0  0
  161.6330  205.4400  151.5350 C   0  0  0  0  0  0  0  0  0  0  0  0
  161.7000  206.7870  151.8840 N   0  0  0  0  0  0  0  0  0  0  0  0
  160.0800  212.1390  154.6430 C   0  0  0  0  0  0  0  0  0  0  0  0
  159.9900  211.6130  152.5830 C   0  0  0  0  0  2  0  0  0  0  0  0
  160.4510  210.5420  153.3230 C   0  0  0  0  0  0  0  0  0  0  0  0
  159.7560  212.6310  153.4330 N   0  0  0  0  0  0  0  0  0  0  0  0
  160.5110  210.8640  154.6270 N   0  0  0  0  0  0  0  0  0  0  0  0
  159.9780  212.9020  155.8390 N   0  0  0  0  0  1  0  0  0  0  0  0
  161.6560  205.7530  147.8460 O   0  0  0  0  0  0  0  0  0  0  0  0
  160.9630  203.2030  145.2610 C   0  0  0  0  0  3  0  0  0  0  0  0
  160.8040  202.0480  146.0310 C   0  0  0  0  0  0  0  0  0  0  0  0
  161.2400  204.4250  145.8820 C   0  0  0  0  0  3  0  0  0  0  0  0
  160.9270  202.1140  147.4210 C   0  0  0  0  0  3  0  0  0  0  0  0
  160.4560  200.5200  145.2550 Cl  0  0  0  0  0  0  0  0  0  0  0  0
  161.2060  203.3370  148.0400 C   0  0  0  0  0  3  0  0  0  0  0  0
  161.3570  204.5050  147.2750 C   0  0  0  0  0  0  0  0  0  0  0  0
  1  7  2  0  0  0  0
  1  2  1  0  0  0  0
  3 11  1  0  0  0  0
  4  2  1  0  0  0  0
  5  8  1  0  0  0  0
  5 12  1  0  0  0  0
  6 10  1  0  0  0  0
  6  3  2  0  0  0  0
  8  9  2  0  0  0  0
  9 15  1  0  0  0  0
  9  7  1  0  0  0  0
 10  5  2  0  0  0  0
 11 12  1  0  0  0  0
 11  4  2  0  0  0  0
 12  1  1  0  0  0  0
 13 18  1  0  0  0  0
 14 15  1  0  0  0  0
 14 16  1  0  0  0  0
 15 17  2  0  0  0  0
 16 13  2  0  0  0  0
 17 13  1  0  0  0  0
 19  6  1  0  0  0  0
 20 22  2  0  0  0  0
 20 21  1  0  0  0  0
 21 23  2  0  0  0  0
 22 26  1  0  0  0  0
 23 25  1  0  0  0  0
 24 21  1  0  0  0  0
 26 19  1  0  0  0  0
 26 25  2  0  0  0  0
M  END
>  <MODEL>
9

>  <REMARK>
 VINA RESULT:      -7.5      4.400      8.671
  Name = 
  3 active torsions:
  status: ('A' for Active; 'I' for Inactive)
    1  A    between atoms: C_12  and  C_17
    2  A    between atoms: C_13  and  O_25
    3  A    between atoms: O_25  and  C_26
                            x       y       z     vdW  Elec       q    Type
                         _______ _______ _______ _____ _____    ______ ____

>  <TORSDO>
F 3

$$$$
