=
 OpenBabel11072411403D

 53 57  0  0  1  0  0  0  0  0999 V2000
  162.1420  212.0750  148.5770 C   0  0  1  0  0  0  0  0  0  0  0  0
  160.3620  209.6120  152.6170 O   0  0  0  0  0  0  0  0  0  0  0  0
  163.3630  212.2300  147.6880 C   0  0  0  0  0  1  0  0  0  0  0  0
  158.6380  210.2360  154.1420 C   0  0  0  0  0  2  0  0  0  0  0  0
  160.9270  210.8020  154.4730 F   0  0  0  0  0  0  0  0  0  0  0  0
  159.9420  213.0780  150.3880 N   0  0  2  0  0  0  0  0  0  0  0  0
  161.4910  213.3390  148.6040 O   0  0  0  0  0  0  0  0  0  0  0  0
  160.1220  213.2380  148.9380 C   0  0  2  0  0  3  0  0  0  0  0  0
  159.3380  214.4530  152.6040 S   0  0  0  0  0  0  0  0  0  0  0  0
  158.5340  212.7920  150.6610 C   0  0  0  0  0  2  0  0  0  0  0  0
  157.9670  213.8170  151.6240 C   0  0  1  0  0  3  0  0  0  0  0  0
  162.5580  210.5320  150.5300 C   0  0  0  0  0  3  0  0  0  0  0  0
  161.8390  209.4610  149.8260 C   0  0  0  0  0  0  0  0  0  0  0  0
  157.1010  212.0640  153.2760 C   0  0  0  0  0  0  0  0  0  0  0  0
  161.0740  207.6290  151.4780 C   0  0  1  0  0  3  0  0  0  0  0  0
  156.9240  213.2310  152.4680 N   0  0  0  0  0  2  0  0  0  0  0  0
  156.1000  211.5500  153.8490 O   0  0  0  0  0  0  0  0  0  0  0  0
  161.3070  210.9350  147.9790 C   0  0  0  0  0  0  0  0  0  0  0  0
  160.6980  211.0800  146.8860 O   0  0  0  0  0  0  0  0  0  0  0  0
  158.3910  211.4540  153.3800 N   0  0  0  0  0  2  0  0  0  0  0  0
  161.0320  207.4170  149.0510 O   0  0  0  0  0  0  0  0  0  0  0  0
  160.7990  208.4470  148.2090 O   0  0  0  0  0  0  0  0  0  0  0  0
  160.0890  209.8170  153.9720 C   0  0  2  0  0  3  0  0  0  0  0  0
  160.3500  214.2820  151.1130 C   0  0  0  0  0  2  0  0  0  0  0  0
  161.3610  208.6380  152.5940 C   0  0  0  0  0  2  0  0  0  0  0  0
  161.7560  207.9980  150.1350 C   0  0  1  0  0  3  0  0  0  0  0  0
  162.6680  211.7450  149.9670 C   0  0  0  0  0  3  0  0  0  0  0  0
  161.2930  209.6410  148.6690 C   0  0  0  0  0  0  0  0  0  0  0  0
  160.8000  205.2000  154.1260 C   0  0  0  0  0  2  0  0  0  0  0  0
  161.4190  206.1870  151.9620 C   0  0  0  0  0  0  0  0  0  0  0  0
  162.1000  205.9540  154.3030 C   0  0  0  0  0  2  0  0  0  0  0  0
  162.6300  206.1910  152.9030 C   0  0  0  0  0  2  0  0  0  0  0  0
  160.2390  205.6580  152.7930 C   0  0  0  0  0  2  0  0  0  0  0  0
  161.7240  205.2710  150.7310 C   0  0  1  0  0  3  0  0  0  0  0  0
  163.0950  204.5960  150.9010 C   0  0  0  0  0  1  0  0  0  0  0  0
  160.6180  204.2410  150.3740 C   0  0  2  0  0  3  0  0  0  0  0  0
  161.9650  202.6710  151.8430 N   0  0  0  0  0  1  0  0  0  0  0  0
  160.9510  202.8530  150.8600 C   0  0  0  0  0  0  0  0  0  0  0  0
  160.3000  201.8570  150.4470 O   0  0  0  0  0  0  0  0  0  0  0  0
  160.3990  204.1830  148.8600 C   0  0  0  0  0  2  0  0  0  0  0  0
  161.4430  202.2330  147.6610 C   0  0  0  0  0  1  0  0  0  0  0  0
  161.6240  203.6750  148.1030 C   0  0  1  0  0  3  0  0  0  0  0  0
  161.7770  204.9410  144.5060 N   0  0  0  0  0  1  0  0  0  0  0  0
  162.6730  205.7570  147.1240 C   0  0  0  0  0  1  0  0  0  0  0  0
  161.4440  204.1530  145.6450 C   0  0  0  0  0  0  0  0  0  0  0  0
  160.7570  203.1050  145.4890 O   0  0  0  0  0  0  0  0  0  0  0  0
  161.8970  204.5340  146.9530 N   0  0  0  0  0  0  0  0  0  0  0  0
  159.3670  214.4530  148.3790 C   0  0  0  0  0  2  0  0  0  0  0  0
  158.9400  214.2100  146.9400 C   0  0  1  0  0  3  0  0  0  0  0  0
  160.0910  213.8050  146.1440 N   0  0  0  0  0  1  0  0  0  0  0  0
  157.6810  212.3820  145.7500 O   0  0  0  0  0  0  0  0  0  0  0  0
  157.2240  212.8970  147.9460 O   0  0  0  0  0  1  0  0  0  0  0  0
  157.8910  213.1410  146.9040 C   0  0  0  0  0  0  0  0  0  0  0  0
  1  3  1  6  0  0  0
  1  7  1  0  0  0  0
  1 27  1  0  0  0  0
  2 23  1  0  0  0  0
  6 10  1  6  0  0  0
  6 24  1  0  0  0  0
  7  8  1  0  0  0  0
  8 48  1  1  0  0  0
  8  6  1  0  0  0  0
 11 10  1  6  0  0  0
 11 16  1  0  0  0  0
 11  9  1  0  0  0  0
 13 26  1  0  0  0  0
 13 12  1  0  0  0  0
 14 20  1  0  0  0  0
 14 17  2  0  0  0  0
 15 30  1  1  0  0  0
 15 25  1  0  0  0  0
 16 14  1  0  0  0  0
 18  1  1  0  0  0  0
 18 28  1  0  0  0  0
 19 18  2  0  0  0  0
 20  4  1  0  0  0  0
 22 28  1  0  0  0  0
 22 21  1  0  0  0  0
 23  4  1  0  0  0  0
 23  5  1  6  0  0  0
 24  9  1  0  0  0  0
 25  2  1  0  0  0  0
 26 21  1  6  0  0  0
 26 15  1  0  0  0  0
 27 12  2  0  0  0  0
 28 13  2  0  0  0  0
 29 31  1  0  0  0  0
 30 33  1  0  0  0  0
 30 32  1  0  0  0  0
 32 31  1  0  0  0  0
 33 29  1  0  0  0  0
 34 35  1  1  0  0  0
 34 30  1  0  0  0  0
 36 40  1  6  0  0  0
 36 34  1  0  0  0  0
 36 38  1  0  0  0  0
 38 37  1  0  0  0  0
 39 38  2  0  0  0  0
 42 41  1  6  0  0  0
 42 40  1  0  0  0  0
 43 45  1  0  0  0  0
 45 47  1  0  0  0  0
 46 45  2  0  0  0  0
 47 44  1  0  0  0  0
 47 42  1  0  0  0  0
 49 50  1  6  0  0  0
 49 48  1  0  0  0  0
 51 53  2  0  0  0  0
 53 49  1  0  0  0  0
 53 52  1  0  0  0  0
M  END
>  <MODEL>
1

>  <REMARK>
 VINA RESULT:       0.2      0.000      0.000
  Name = 
  10 active torsions:
  status: ('A' for Active; 'I' for Inactive)
    1  A    between atoms: C_2  and  C_20
    2  A    between atoms: C_2  and  C_53
    3  A    between atoms: C_3  and  CA_4
    4  A    between atoms: C_3  and  C_15
    5  A    between atoms: CA_4  and  C_47
    6  A    between atoms: C_16  and  C_20
    7  A    between atoms: C_16  and  C_21
    8  A    between atoms: C_20  and  C_29
    9  A    between atoms: C_21  and  C_31
   10  A    between atoms: N_46  and  C_53
                            x       y       z     vdW  Elec       q    Type
                         _______ _______ _______ _____ _____    ______ ____

>  <TORSDO>
F 10

$$$$
=
 OpenBabel11072411403D

 53 57  0  0  1  0  0  0  0  0999 V2000
  161.8920  204.1510  151.5900 C   0  0  1  0  0  0  0  0  0  0  0  0
  162.0380  209.1830  152.0580 O   0  0  0  0  0  0  0  0  0  0  0  0
  162.2980  202.8550  152.2690 C   0  0  0  0  0  1  0  0  0  0  0  0
  161.9520  210.8700  150.3760 C   0  0  0  0  0  2  0  0  0  0  0  0
  163.9920  209.9180  151.1490 F   0  0  0  0  0  0  0  0  0  0  0  0
  161.7820  206.1090  149.2930 N   0  0  2  0  0  0  0  0  0  0  0  0
  161.9370  203.9140  150.1900 O   0  0  0  0  0  0  0  0  0  0  0  0
  161.1210  204.8070  149.4600 C   0  0  2  0  0  3  0  0  0  0  0  0
  163.1880  207.5520  147.5300 S   0  0  0  0  0  0  0  0  0  0  0  0
  160.8300  207.0500  148.7010 C   0  0  0  0  0  2  0  0  0  0  0  0
  161.3910  207.6240  147.4150 C   0  0  1  0  0  3  0  0  0  0  0  0
  162.7330  206.1890  152.8200 C   0  0  0  0  0  3  0  0  0  0  0  0
  161.3930  206.3890  153.3880 C   0  0  0  0  0  0  0  0  0  0  0  0
  161.0630  210.0580  148.1390 C   0  0  0  0  0  0  0  0  0  0  0  0
  161.1050  208.8130  154.2320 C   0  0  1  0  0  3  0  0  0  0  0  0
  160.9170  208.9920  147.1950 N   0  0  0  0  0  2  0  0  0  0  0  0
  160.4880  211.1610  147.9200 O   0  0  0  0  0  0  0  0  0  0  0  0
  160.5040  204.5140  152.1360 C   0  0  0  0  0  0  0  0  0  0  0  0
  159.4880  203.8390  151.8250 O   0  0  0  0  0  0  0  0  0  0  0  0
  161.8030  209.8500  149.3460 N   0  0  0  0  0  2  0  0  0  0  0  0
  159.5700  206.9830  154.7120 O   0  0  0  0  0  0  0  0  0  0  0  0
  159.3110  205.9720  153.8540 O   0  0  0  0  0  0  0  0  0  0  0  0
  162.7190  210.2940  151.5530 C   0  0  2  0  0  3  0  0  0  0  0  0
  162.9650  206.0030  148.4390 C   0  0  0  0  0  2  0  0  0  0  0  0
  162.3560  209.1530  153.4160 C   0  0  0  0  0  2  0  0  0  0  0  0
  160.9450  207.2920  154.4950 C   0  0  1  0  0  3  0  0  0  0  0  0
  162.9530  205.1770  151.9660 C   0  0  0  0  0  3  0  0  0  0  0  0
  160.3960  205.6210  153.0920 C   0  0  0  0  0  0  0  0  0  0  0  0
  163.0280  210.4890  156.7770 C   0  0  0  0  0  2  0  0  0  0  0  0
  161.0730  209.6650  155.5380 C   0  0  0  0  0  0  0  0  0  0  0  0
  162.7170  209.0890  157.2590 C   0  0  0  0  0  2  0  0  0  0  0  0
  161.3110  208.7930  156.7770 C   0  0  0  0  0  2  0  0  0  0  0  0
  162.2380  210.6660  155.4950 C   0  0  0  0  0  2  0  0  0  0  0  0
  159.6880  210.3820  155.6710 C   0  0  1  0  0  3  0  0  0  0  0  0
  159.2150  210.3510  157.1330 C   0  0  0  0  0  1  0  0  0  0  0  0
  159.6190  211.8150  155.0770 C   0  0  2  0  0  3  0  0  0  0  0  0
  159.9080  213.8790  156.5240 N   0  0  0  0  0  1  0  0  0  0  0  0
  159.0770  212.8180  156.0640 C   0  0  0  0  0  0  0  0  0  0  0  0
  157.8760  212.7600  156.4400 O   0  0  0  0  0  0  0  0  0  0  0  0
  158.7360  211.8430  153.8270 C   0  0  0  0  0  2  0  0  0  0  0  0
  160.0650  213.0500  152.0650 C   0  0  0  0  0  1  0  0  0  0  0  0
  158.8880  213.1310  153.0220 C   0  0  1  0  0  3  0  0  0  0  0  0
  155.3230  214.2780  152.2840 N   0  0  0  0  0  1  0  0  0  0  0  0
  157.5110  212.9990  150.9050 C   0  0  0  0  0  1  0  0  0  0  0  0
  156.5610  214.0700  152.9600 C   0  0  0  0  0  0  0  0  0  0  0  0
  156.6790  214.4520  154.1570 O   0  0  0  0  0  0  0  0  0  0  0  0
  157.6540  213.4190  152.2950 N   0  0  0  0  0  0  0  0  0  0  0  0
  160.7300  204.1660  148.1200 C   0  0  0  0  0  2  0  0  0  0  0  0
  161.0610  202.6820  148.1130 C   0  0  1  0  0  3  0  0  0  0  0  0
  160.0690  201.9500  148.8880 N   0  0  0  0  0  1  0  0  0  0  0  0
  161.0880  203.0740  145.6250 O   0  0  0  0  0  0  0  0  0  0  0  0
  161.1340  200.9410  146.4870 O   0  0  0  0  0  1  0  0  0  0  0  0
  161.0800  202.1820  146.7010 C   0  0  0  0  0  0  0  0  0  0  0  0
  1 27  1  0  0  0  0
  1 18  1  0  0  0  0
  1  3  1  1  0  0  0
  2 25  1  0  0  0  0
  4 23  1  0  0  0  0
  6 24  1  6  0  0  0
  6  8  1  0  0  0  0
  7  1  1  0  0  0  0
  8 48  1  6  0  0  0
  8  7  1  0  0  0  0
  9 24  1  0  0  0  0
 10  6  1  0  0  0  0
 11  9  1  0  0  0  0
 11 10  1  1  0  0  0
 12 13  1  0  0  0  0
 14 20  1  0  0  0  0
 15 25  1  1  0  0  0
 15 26  1  0  0  0  0
 15 30  1  0  0  0  0
 16 11  1  0  0  0  0
 16 14  1  0  0  0  0
 17 14  2  0  0  0  0
 18 28  1  0  0  0  0
 19 18  2  0  0  0  0
 20  4  1  0  0  0  0
 22 21  1  0  0  0  0
 23  5  1  6  0  0  0
 23  2  1  0  0  0  0
 26 13  1  6  0  0  0
 26 21  1  0  0  0  0
 27 12  2  0  0  0  0
 28 13  2  0  0  0  0
 28 22  1  0  0  0  0
 29 31  1  0  0  0  0
 30 34  1  0  0  0  0
 30 32  1  0  0  0  0
 32 31  1  0  0  0  0
 33 30  1  0  0  0  0
 33 29  1  0  0  0  0
 34 35  1  1  0  0  0
 36 40  1  6  0  0  0
 36 34  1  0  0  0  0
 36 38  1  0  0  0  0
 38 39  2  0  0  0  0
 38 37  1  0  0  0  0
 42 41  1  6  0  0  0
 42 40  1  0  0  0  0
 43 45  1  0  0  0  0
 44 47  1  0  0  0  0
 45 46  2  0  0  0  0
 47 45  1  0  0  0  0
 47 42  1  0  0  0  0
 49 48  1  0  0  0  0
 49 50  1  1  0  0  0
 51 53  2  0  0  0  0
 52 53  1  0  0  0  0
 53 49  1  0  0  0  0
M  END
>  <MODEL>
2

>  <REMARK>
 VINA RESULT:       2.7      2.724      8.742
  Name = 
  10 active torsions:
  status: ('A' for Active; 'I' for Inactive)
    1  A    between atoms: C_2  and  C_20
    2  A    between atoms: C_2  and  C_53
    3  A    between atoms: C_3  and  CA_4
    4  A    between atoms: C_3  and  C_15
    5  A    between atoms: CA_4  and  C_47
    6  A    between atoms: C_16  and  C_20
    7  A    between atoms: C_16  and  C_21
    8  A    between atoms: C_20  and  C_29
    9  A    between atoms: C_21  and  C_31
   10  A    between atoms: N_46  and  C_53
                            x       y       z     vdW  Elec       q    Type
                         _______ _______ _______ _____ _____    ______ ____

>  <TORSDO>
F 10

$$$$
