=
 OpenBabel11072414133D

 28 31  0  0  1  0  0  0  0  0999 V2000
  161.0120  205.8470  154.1170 C   0  0  0  0  0  1  0  0  0  0  0  0
  161.5420  207.5290  150.7870 C   0  0  0  0  0  0  0  0  0  0  0  0
  160.8020  203.3090  152.3880 Cl  0  0  0  0  0  0  0  0  0  0  0  0
  161.0890  204.9350  151.7590 C   0  0  0  0  0  0  0  0  0  0  0  0
  161.2410  205.1430  150.3730 C   0  0  0  0  0  0  0  0  0  0  0  0
  162.1580  210.9320  149.7740 C   0  0  0  0  0  3  0  0  0  0  0  0
  161.8520  207.9080  148.0210 C   0  0  0  0  0  3  0  0  0  0  0  0
  161.9020  210.0410  150.8110 C   0  0  1  0  0  3  0  0  0  0  0  0
  161.1610  203.9900  149.4230 C   0  0  0  0  0  1  0  0  0  0  0  0
  161.9250  208.9810  148.9020 C   0  0  0  0  0  0  0  0  0  0  0  0
  161.3900  207.3150  152.1580 C   0  0  0  0  0  3  0  0  0  0  0  0
  162.1620  210.2690  148.5900 N   0  0  0  0  0  0  0  0  0  0  0  0
  161.7710  208.7960  150.2460 C   0  0  0  0  0  0  0  0  0  0  0  0
  161.6240  206.6620  148.5340 N   0  0  0  0  0  0  0  0  0  0  0  0
  161.4690  206.4400  149.8800 C   0  0  0  0  0  0  0  0  0  0  0  0
  161.1650  206.0280  152.6460 C   0  0  0  0  0  0  0  0  0  0  0  0
  161.8950  210.3290  152.2140 N   0  0  0  0  0  2  0  0  0  0  0  0
  158.8010  210.5820  156.0480 C   0  0  0  0  0  1  0  0  0  0  0  0
  159.0520  212.5480  154.5290 C   0  0  0  0  0  2  0  0  0  0  0  0
  160.4120  210.4600  154.1310 C   0  0  0  0  0  0  0  0  0  0  0  0
  160.8240  210.9530  152.9360 C   0  0  0  0  0  0  0  0  0  0  0  0
  159.2370  212.8190  153.0690 C   0  0  0  0  0  3  0  0  0  0  0  0
  160.2300  212.3980  150.9890 O   0  0  0  0  0  1  0  0  0  0  0  0
  160.0890  212.0990  152.3380 C   0  0  0  0  0  0  0  0  0  0  0  0
  159.3700  211.1560  154.8410 N   0  0  0  0  0  0  0  0  0  0  0  0
  160.9520  209.3050  154.7290 O   0  0  0  0  0  0  0  0  0  0  0  0
  161.5770  208.2400  156.7850 C   0  0  0  0  0  1  0  0  0  0  0  0
  161.9430  209.2800  155.7490 C   0  0  0  0  0  2  0  0  0  0  0  0
  2 11  1  0  0  0  0
  4  3  1  0  0  0  0
  4 16  1  0  0  0  0
  5  4  2  0  0  0  0
  6  8  1  0  0  0  0
  7 14  2  0  0  0  0
  7 10  1  0  0  0  0
  8 17  1  1  0  0  0
  9  5  1  0  0  0  0
 10 13  2  0  0  0  0
 11 16  2  0  0  0  0
 12 10  1  0  0  0  0
 12  6  2  0  0  0  0
 13  2  1  0  0  0  0
 13  8  1  0  0  0  0
 14 15  1  0  0  0  0
 15  5  1  0  0  0  0
 15  2  2  0  0  0  0
 16  1  1  0  0  0  0
 17 21  1  0  0  0  0
 19 25  1  0  0  0  0
 20 26  1  0  0  0  0
 20 25  1  0  0  0  0
 21 20  2  0  0  0  0
 22 19  1  0  0  0  0
 23 24  1  0  0  0  0
 24 21  1  0  0  0  0
 24 22  2  0  0  0  0
 25 18  1  0  0  0  0
 26 28  1  0  0  0  0
 28 27  1  0  0  0  0
M  END
>  <MODEL>
1

>  <REMARK>
 VINA RESULT:      -8.0      0.000      0.000
  Name = 
  4 active torsions:
  status: ('A' for Active; 'I' for Inactive)
    1  A    between atoms: C_9  and  N_23
    2  A    between atoms: O_14  and  C_17
    3  A    between atoms: O_14  and  C_27
    4  A    between atoms: C_19  and  N_23
                            x       y       z     vdW  Elec       q    Type
                         _______ _______ _______ _____ _____    ______ ____

>  <TORSDO>
F 4

$$$$
=
 OpenBabel11072414133D

 28 31  0  0  1  0  0  0  0  0999 V2000
  161.1000  205.9460  154.1350 C   0  0  0  0  0  1  0  0  0  0  0  0
  161.5540  207.5690  150.7640 C   0  0  0  0  0  0  0  0  0  0  0  0
  160.8500  203.3780  152.4550 Cl  0  0  0  0  0  0  0  0  0  0  0  0
  161.1220  204.9930  151.7920 C   0  0  0  0  0  0  0  0  0  0  0  0
  161.2430  205.1760  150.3990 C   0  0  0  0  0  0  0  0  0  0  0  0
  162.1470  210.9530  149.6780 C   0  0  0  0  0  3  0  0  0  0  0  0
  161.8000  207.8990  147.9850 C   0  0  0  0  0  3  0  0  0  0  0  0
  161.9140  210.0800  150.7360 C   0  0  1  0  0  3  0  0  0  0  0  0
  161.1400  204.0060  149.4720 C   0  0  0  0  0  1  0  0  0  0  0  0
  161.8930  208.9870  148.8460 C   0  0  0  0  0  0  0  0  0  0  0  0
  161.4330  207.3790  152.1410 C   0  0  0  0  0  3  0  0  0  0  0  0
  162.1230  210.2700  148.5060 N   0  0  0  0  0  0  0  0  0  0  0  0
  161.7700  208.8260  150.1960 C   0  0  0  0  0  0  0  0  0  0  0  0
  161.5830  206.6620  148.5250 N   0  0  0  0  0  0  0  0  0  0  0  0
  161.4590  206.4640  149.8780 C   0  0  0  0  0  0  0  0  0  0  0  0
  161.2190  206.1010  152.6570 C   0  0  0  0  0  0  0  0  0  0  0  0
  161.9400  210.3930  152.1330 N   0  0  0  0  0  2  0  0  0  0  0  0
  157.8820  213.0920  152.9020 C   0  0  0  0  0  1  0  0  0  0  0  0
  158.3340  211.1000  154.3390 C   0  0  0  0  0  2  0  0  0  0  0  0
  159.9210  211.6990  152.4720 C   0  0  0  0  0  0  0  0  0  0  0  0
  160.8090  210.7790  152.9270 C   0  0  0  0  0  0  0  0  0  0  0  0
  159.5060  210.4200  154.9750 C   0  0  0  0  0  3  0  0  0  0  0  0
  161.6980  209.5940  154.9370 O   0  0  0  0  0  1  0  0  0  0  0  0
  160.6440  210.2390  154.3030 C   0  0  0  0  0  0  0  0  0  0  0  0
  158.7740  212.0100  153.2840 N   0  0  0  0  0  0  0  0  0  0  0  0
  160.0510  212.3660  151.2380 O   0  0  0  0  0  0  0  0  0  0  0  0
  160.1100  214.1050  149.5880 C   0  0  0  0  0  1  0  0  0  0  0  0
  160.1900  213.7700  151.0610 C   0  0  0  0  0  2  0  0  0  0  0  0
  2 11  1  0  0  0  0
  4  3  1  0  0  0  0
  4 16  1  0  0  0  0
  5  4  2  0  0  0  0
  6  8  1  0  0  0  0
  7 14  2  0  0  0  0
  7 10  1  0  0  0  0
  8 17  1  1  0  0  0
  9  5  1  0  0  0  0
 10 13  2  0  0  0  0
 11 16  2  0  0  0  0
 12 10  1  0  0  0  0
 12  6  2  0  0  0  0
 13  8  1  0  0  0  0
 13  2  1  0  0  0  0
 14 15  1  0  0  0  0
 15  5  1  0  0  0  0
 15  2  2  0  0  0  0
 16  1  1  0  0  0  0
 17 21  1  0  0  0  0
 18 25  1  0  0  0  0
 19 22  1  0  0  0  0
 20 21  2  0  0  0  0
 20 25  1  0  0  0  0
 21 24  1  0  0  0  0
 24 23  1  0  0  0  0
 24 22  2  0  0  0  0
 25 19  1  0  0  0  0
 26 20  1  0  0  0  0
 27 28  1  0  0  0  0
 28 26  1  0  0  0  0
M  END
>  <MODEL>
2

>  <REMARK>
 VINA RESULT:      -7.9      0.980      2.844
  Name = 
  4 active torsions:
  status: ('A' for Active; 'I' for Inactive)
    1  A    between atoms: C_9  and  N_23
    2  A    between atoms: O_14  and  C_17
    3  A    between atoms: O_14  and  C_27
    4  A    between atoms: C_19  and  N_23
                            x       y       z     vdW  Elec       q    Type
                         _______ _______ _______ _____ _____    ______ ____

>  <TORSDO>
F 4

$$$$
=
 OpenBabel11072414133D

 28 31  0  0  1  0  0  0  0  0999 V2000
  160.3660  203.8400  152.5080 C   0  0  0  0  0  1  0  0  0  0  0  0
  161.4150  206.6570  150.2350 C   0  0  0  0  0  0  0  0  0  0  0  0
  160.7680  202.1370  149.9760 Cl  0  0  0  0  0  0  0  0  0  0  0  0
  161.0210  203.8830  150.0660 C   0  0  0  0  0  0  0  0  0  0  0  0
  161.4390  204.5990  148.9250 C   0  0  0  0  0  0  0  0  0  0  0  0
  161.8960  210.1980  150.7000 C   0  0  0  0  0  3  0  0  0  0  0  0
  162.2570  208.0520  147.9470 C   0  0  0  0  0  3  0  0  0  0  0  0
  161.5160  208.9790  151.2530 C   0  0  1  0  0  3  0  0  0  0  0  0
  161.6700  203.8860  147.6290 C   0  0  0  0  0  1  0  0  0  0  0  0
  162.0410  208.7150  149.1500 C   0  0  0  0  0  0  0  0  0  0  0  0
  161.0010  205.9420  151.3600 C   0  0  0  0  0  3  0  0  0  0  0  0
  162.2110  210.0290  149.3910 N   0  0  0  0  0  0  0  0  0  0  0  0
  161.6280  208.0370  150.2600 C   0  0  0  0  0  0  0  0  0  0  0  0
  162.0480  206.7020  147.9050 N   0  0  0  0  0  0  0  0  0  0  0  0
  161.6380  205.9890  149.0040 C   0  0  0  0  0  0  0  0  0  0  0  0
  160.8040  204.5630  151.2810 C   0  0  0  0  0  0  0  0  0  0  0  0
  161.1890  208.7180  152.6220 N   0  0  0  0  0  2  0  0  0  0  0  0
  160.9960  210.3890  157.2610 C   0  0  0  0  0  1  0  0  0  0  0  0
  160.4970  211.9370  155.3660 C   0  0  0  0  0  2  0  0  0  0  0  0
  161.1440  209.5430  154.9060 C   0  0  0  0  0  0  0  0  0  0  0  0
  160.8190  209.7030  153.5980 C   0  0  0  0  0  0  0  0  0  0  0  0
  159.8110  211.8960  154.0360 C   0  0  0  0  0  3  0  0  0  0  0  0
  159.3380  210.8890  151.9750 O   0  0  0  0  0  1  0  0  0  0  0  0
  159.9910  210.8730  153.2010 C   0  0  0  0  0  0  0  0  0  0  0  0
  160.7970  210.5870  155.8350 N   0  0  0  0  0  0  0  0  0  0  0  0
  161.8150  208.4120  155.4120 O   0  0  0  0  0  0  0  0  0  0  0  0
  159.7970  207.2680  156.0180 C   0  0  0  0  0  1  0  0  0  0  0  0
  161.2460  207.1240  155.6070 C   0  0  0  0  0  2  0  0  0  0  0  0
  2 13  1  0  0  0  0
  2 11  1  0  0  0  0
  3  4  1  0  0  0  0
  4 16  1  0  0  0  0
  5 15  1  0  0  0  0
  5  4  2  0  0  0  0
  6  8  1  0  0  0  0
  7 10  1  0  0  0  0
  8 17  1  1  0  0  0
  9  5  1  0  0  0  0
 10 12  1  0  0  0  0
 10 13  2  0  0  0  0
 12  6  2  0  0  0  0
 13  8  1  0  0  0  0
 14  7  2  0  0  0  0
 14 15  1  0  0  0  0
 15  2  2  0  0  0  0
 16 11  2  0  0  0  0
 16  1  1  0  0  0  0
 17 21  1  0  0  0  0
 19 25  1  0  0  0  0
 20 26  1  0  0  0  0
 20 25  1  0  0  0  0
 21 20  2  0  0  0  0
 22 19  1  0  0  0  0
 23 24  1  0  0  0  0
 24 21  1  0  0  0  0
 24 22  2  0  0  0  0
 25 18  1  0  0  0  0
 26 28  1  0  0  0  0
 28 27  1  0  0  0  0
M  END
>  <MODEL>
3

>  <REMARK>
 VINA RESULT:      -7.8      1.367      1.675
  Name = 
  4 active torsions:
  status: ('A' for Active; 'I' for Inactive)
    1  A    between atoms: C_9  and  N_23
    2  A    between atoms: O_14  and  C_17
    3  A    between atoms: O_14  and  C_27
    4  A    between atoms: C_19  and  N_23
                            x       y       z     vdW  Elec       q    Type
                         _______ _______ _______ _____ _____    ______ ____

>  <TORSDO>
F 4

$$$$
=
 OpenBabel11072414133D

 28 31  0  0  0  0  0  0  0  0999 V2000
  161.9730  209.5690  148.6570 C   0  0  0  0  0  1  0  0  0  0  0  0
  161.3830  207.2960  151.6050 C   0  0  0  0  0  0  0  0  0  0  0  0
  161.7820  206.9420  147.0620 Cl  0  0  0  0  0  0  0  0  0  0  0  0
  161.6270  207.0680  148.8180 C   0  0  0  0  0  0  0  0  0  0  0  0
  161.3960  205.9140  149.5940 C   0  0  0  0  0  0  0  0  0  0  0  0
  161.0630  207.8360  155.1530 C   0  0  0  0  0  3  0  0  0  0  0  0
  160.9140  204.9790  153.1210 C   0  0  0  0  0  3  0  0  0  0  0  0
  161.2970  208.3840  153.8960 C   0  0  0  0  0  0  0  0  0  0  0  0
  161.2830  204.5730  148.9390 C   0  0  0  0  0  1  0  0  0  0  0  0
  161.0210  206.2230  153.7320 C   0  0  0  0  0  0  0  0  0  0  0  0
  161.6110  208.4340  150.8300 C   0  0  0  0  0  3  0  0  0  0  0  0
  160.9020  206.4930  155.0460 N   0  0  0  0  0  2  0  0  0  0  0  0
  161.2520  207.3490  152.9940 C   0  0  0  0  0  0  0  0  0  0  0  0
  161.0450  204.9100  151.7630 N   0  0  0  0  0  0  0  0  0  0  0  0
  161.2730  206.0220  150.9910 C   0  0  0  0  0  0  0  0  0  0  0  0
  161.7320  208.3260  149.4440 C   0  0  0  0  0  0  0  0  0  0  0  0
  161.4370  209.7710  153.5720 N   0  0  0  0  0  2  0  0  0  0  0  0
  158.6880  213.8150  154.2320 C   0  0  0  0  0  1  0  0  0  0  0  0
  159.7440  212.7010  156.2020 C   0  0  0  0  0  2  0  0  0  0  0  0
  160.0430  211.7330  153.8910 C   0  0  0  0  0  0  0  0  0  0  0  0
  160.9730  210.8700  154.3700 C   0  0  0  0  0  0  0  0  0  0  0  0
  161.0260  212.0080  156.5430 C   0  0  0  0  0  3  0  0  0  0  0  0
  162.7620  210.5060  156.0740 O   0  0  0  0  0  1  0  0  0  0  0  0
  161.5760  211.1290  155.7050 C   0  0  0  0  0  0  0  0  0  0  0  0
  159.5710  212.7860  154.7530 N   0  0  0  0  0  0  0  0  0  0  0  0
  159.4990  211.6560  152.5940 O   0  0  0  0  0  0  0  0  0  0  0  0
  159.7270  213.3550  150.9180 C   0  0  0  0  0  1  0  0  0  0  0  0
  160.1720  211.9870  151.3870 C   0  0  0  0  0  2  0  0  0  0  0  0
  1 16  1  0  0  0  0
  2 13  1  0  0  0  0
  3  4  1  0  0  0  0
  4 16  2  0  0  0  0
  4  5  1  0  0  0  0
  5 15  2  0  0  0  0
  7 10  1  0  0  0  0
  8  6  2  0  0  0  0
  9  5  1  0  0  0  0
 10 12  1  0  0  0  0
 11  2  2  0  0  0  0
 12  6  1  0  0  0  0
 13 10  2  0  0  0  0
 13  8  1  0  0  0  0
 14  7  2  0  0  0  0
 15  2  1  0  0  0  0
 15 14  1  0  0  0  0
 16 11  1  0  0  0  0
 17  8  1  0  0  0  0
 17 21  1  0  0  0  0
 18 25  1  0  0  0  0
 19 22  1  0  0  0  0
 20 21  2  0  0  0  0
 20 25  1  0  0  0  0
 21 24  1  0  0  0  0
 24 23  1  0  0  0  0
 24 22  2  0  0  0  0
 25 19  1  0  0  0  0
 26 20  1  0  0  0  0
 27 28  1  0  0  0  0
 28 26  1  0  0  0  0
M  END
>  <MODEL>
4

>  <REMARK>
 VINA RESULT:      -7.7      2.182      4.319
  Name = 
  4 active torsions:
  status: ('A' for Active; 'I' for Inactive)
    1  A    between atoms: C_9  and  N_23
    2  A    between atoms: O_14  and  C_17
    3  A    between atoms: O_14  and  C_27
    4  A    between atoms: C_19  and  N_23
                            x       y       z     vdW  Elec       q    Type
                         _______ _______ _______ _____ _____    ______ ____

>  <TORSDO>
F 4

$$$$
=
 OpenBabel11072414133D

 28 31  0  0  1  0  0  0  0  0999 V2000
  160.0820  203.3320  151.3310 C   0  0  0  0  0  1  0  0  0  0  0  0
  161.3080  206.6260  149.9720 C   0  0  0  0  0  0  0  0  0  0  0  0
  161.1060  202.2570  148.6340 Cl  0  0  0  0  0  0  0  0  0  0  0  0
  161.1890  203.9480  149.1420 C   0  0  0  0  0  0  0  0  0  0  0  0
  161.7560  204.9170  148.2890 C   0  0  0  0  0  0  0  0  0  0  0  0
  161.3920  209.9890  151.2650 C   0  0  0  0  0  3  0  0  0  0  0  0
  162.4540  208.5310  148.2550 C   0  0  0  0  0  3  0  0  0  0  0  0
  161.0170  208.6630  151.4570 C   0  0  1  0  0  3  0  0  0  0  0  0
  162.2920  204.5230  146.9490 C   0  0  0  0  0  1  0  0  0  0  0  0
  161.9560  208.8990  149.4990 C   0  0  0  0  0  0  0  0  0  0  0  0
  160.7480  205.6610  150.8100 C   0  0  0  0  0  3  0  0  0  0  0  0
  161.9660  210.1310  150.0430 N   0  0  0  0  0  0  0  0  0  0  0  0
  161.3960  207.9720  150.3320 C   0  0  0  0  0  0  0  0  0  0  0  0
  162.3720  207.2180  147.8860 N   0  0  0  0  0  0  0  0  0  0  0  0
  161.8190  206.2600  148.7000 C   0  0  0  0  0  0  0  0  0  0  0  0
  160.6870  204.3280  150.4020 C   0  0  0  0  0  0  0  0  0  0  0  0
  160.4560  208.0890  152.6430 N   0  0  0  0  0  2  0  0  0  0  0  0
  160.8710  211.3750  156.2990 C   0  0  0  0  0  1  0  0  0  0  0  0
  161.0170  208.9340  156.8060 C   0  0  0  0  0  2  0  0  0  0  0  0
  160.6100  209.7120  154.4410 C   0  0  0  0  0  0  0  0  0  0  0  0
  160.7960  208.4470  153.9900 C   0  0  0  0  0  0  0  0  0  0  0  0
  161.5820  207.6930  156.1880 C   0  0  0  0  0  3  0  0  0  0  0  0
  161.9800  206.2800  154.3630 O   0  0  0  0  0  1  0  0  0  0  0  0
  161.4450  207.4520  154.8840 C   0  0  0  0  0  0  0  0  0  0  0  0
  160.9160  210.0050  155.8170 N   0  0  0  0  0  0  0  0  0  0  0  0
  160.1210  210.7640  153.6410 O   0  0  0  0  0  0  0  0  0  0  0  0
  158.6460  212.2580  152.4840 C   0  0  0  0  0  1  0  0  0  0  0  0
  158.7520  211.0800  153.4280 C   0  0  0  0  0  2  0  0  0  0  0  0
  2 13  1  0  0  0  0
  2 11  1  0  0  0  0
  3  4  1  0  0  0  0
  4 16  1  0  0  0  0
  5 15  1  0  0  0  0
  5  4  2  0  0  0  0
  6  8  1  0  0  0  0
  7 10  1  0  0  0  0
  8 17  1  1  0  0  0
  9  5  1  0  0  0  0
 10 12  1  0  0  0  0
 10 13  2  0  0  0  0
 12  6  2  0  0  0  0
 13  8  1  0  0  0  0
 14  7  2  0  0  0  0
 14 15  1  0  0  0  0
 15  2  2  0  0  0  0
 16 11  2  0  0  0  0
 16  1  1  0  0  0  0
 17 21  1  0  0  0  0
 20 25  1  0  0  0  0
 21 20  2  0  0  0  0
 21 24  1  0  0  0  0
 22 19  1  0  0  0  0
 23 24  1  0  0  0  0
 24 22  2  0  0  0  0
 25 18  1  0  0  0  0
 25 19  1  0  0  0  0
 26 20  1  0  0  0  0
 27 28  1  0  0  0  0
 28 26  1  0  0  0  0
M  END
>  <MODEL>
5

>  <REMARK>
 VINA RESULT:      -7.4      1.748      3.356
  Name = 
  4 active torsions:
  status: ('A' for Active; 'I' for Inactive)
    1  A    between atoms: C_9  and  N_23
    2  A    between atoms: O_14  and  C_17
    3  A    between atoms: O_14  and  C_27
    4  A    between atoms: C_19  and  N_23
                            x       y       z     vdW  Elec       q    Type
                         _______ _______ _______ _____ _____    ______ ____

>  <TORSDO>
F 4

$$$$
=
 OpenBabel11072414133D

 28 31  0  0  0  0  0  0  0  0999 V2000
  162.0250  206.5770  146.3940 C   0  0  0  0  0  1  0  0  0  0  0  0
  161.2440  204.0210  149.0510 C   0  0  0  0  0  0  0  0  0  0  0  0
  161.4430  204.2320  144.4870 Cl  0  0  0  0  0  0  0  0  0  0  0  0
  161.3630  204.1400  146.2490 C   0  0  0  0  0  0  0  0  0  0  0  0
  161.0110  202.9300  146.8810 C   0  0  0  0  0  0  0  0  0  0  0  0
  161.1140  204.1170  152.6510 C   0  0  0  0  0  3  0  0  0  0  0  0
  160.5300  201.5980  150.2790 C   0  0  0  0  0  3  0  0  0  0  0  0
  161.3760  204.7940  151.4640 C   0  0  0  0  0  0  0  0  0  0  0  0
  160.7040  201.7130  146.0660 C   0  0  0  0  0  1  0  0  0  0  0  0
  160.8170  202.7270  151.0380 C   0  0  0  0  0  0  0  0  0  0  0  0
  161.5920  205.2150  148.4180 C   0  0  0  0  0  3  0  0  0  0  0  0
  160.7770  202.8300  152.3800 N   0  0  0  0  0  2  0  0  0  0  0  0
  161.1670  203.9030  150.4400 C   0  0  0  0  0  0  0  0  0  0  0  0
  160.6050  201.6960  148.9180 N   0  0  0  0  0  0  0  0  0  0  0  0
  160.9500  202.8640  148.2850 C   0  0  0  0  0  0  0  0  0  0  0  0
  161.6520  205.2800  147.0260 C   0  0  0  0  0  0  0  0  0  0  0  0
  161.6840  206.1850  151.3150 N   0  0  0  0  0  2  0  0  0  0  0  0
  160.4110  210.8480  152.3010 C   0  0  0  0  0  1  0  0  0  0  0  0
  160.0880  209.0840  154.0380 C   0  0  0  0  0  2  0  0  0  0  0  0
  161.0160  208.4740  151.7730 C   0  0  0  0  0  0  0  0  0  0  0  0
  161.3100  207.2290  152.2250 C   0  0  0  0  0  0  0  0  0  0  0  0
  160.7920  207.8620  154.5380 C   0  0  0  0  0  3  0  0  0  0  0  0
  161.9620  205.8590  154.2080 O   0  0  0  0  0  1  0  0  0  0  0  0
  161.3280  206.9820  153.6920 C   0  0  0  0  0  0  0  0  0  0  0  0
  160.5930  209.4700  152.7220 N   0  0  0  0  0  0  0  0  0  0  0  0
  161.0910  208.8500  150.4170 O   0  0  0  0  0  0  0  0  0  0  0  0
  161.9600  210.2320  148.6610 C   0  0  0  0  0  1  0  0  0  0  0  0
  162.2770  209.1900  149.7120 C   0  0  0  0  0  2  0  0  0  0  0  0
  1 16  1  0  0  0  0
  2 13  1  0  0  0  0
  3  4  1  0  0  0  0
  4  5  2  0  0  0  0
  4 16  1  0  0  0  0
  5 15  1  0  0  0  0
  7 10  1  0  0  0  0
  8  6  2  0  0  0  0
  9  5  1  0  0  0  0
 10 12  1  0  0  0  0
 11  2  1  0  0  0  0
 12  6  1  0  0  0  0
 13 10  2  0  0  0  0
 13  8  1  0  0  0  0
 14  7  2  0  0  0  0
 15 14  1  0  0  0  0
 15  2  2  0  0  0  0
 16 11  2  0  0  0  0
 17  8  1  0  0  0  0
 17 21  1  0  0  0  0
 18 25  1  0  0  0  0
 19 22  1  0  0  0  0
 20 21  2  0  0  0  0
 20 25  1  0  0  0  0
 21 24  1  0  0  0  0
 24 23  1  0  0  0  0
 24 22  2  0  0  0  0
 25 19  1  0  0  0  0
 26 20  1  0  0  0  0
 27 28  1  0  0  0  0
 28 26  1  0  0  0  0
M  END
>  <MODEL>
6

>  <REMARK>
 VINA RESULT:      -7.4      2.900      5.640
  Name = 
  4 active torsions:
  status: ('A' for Active; 'I' for Inactive)
    1  A    between atoms: C_9  and  N_23
    2  A    between atoms: O_14  and  C_17
    3  A    between atoms: O_14  and  C_27
    4  A    between atoms: C_19  and  N_23
                            x       y       z     vdW  Elec       q    Type
                         _______ _______ _______ _____ _____    ______ ____

>  <TORSDO>
F 4

$$$$
=
 OpenBabel11072414133D

 28 31  0  0  0  0  0  0  0  0999 V2000
  158.7760  212.2360  151.8530 C   0  0  0  0  0  1  0  0  0  0  0  0
  160.4080  209.4800  153.8410 C   0  0  0  0  0  0  0  0  0  0  0  0
  158.9720  213.7700  154.5150 Cl  0  0  0  0  0  0  0  0  0  0  0  0
  159.5300  212.1120  154.2650 C   0  0  0  0  0  0  0  0  0  0  0  0
  160.1160  211.3930  155.3270 C   0  0  0  0  0  0  0  0  0  0  0  0
  161.4970  206.1370  153.0520 C   0  0  0  0  0  3  0  0  0  0  0  0
  161.5810  208.0790  155.9730 C   0  0  0  0  0  3  0  0  0  0  0  0
  160.8820  207.3070  152.6190 C   0  0  0  0  0  0  0  0  0  0  0  0
  160.2700  212.0270  156.6740 C   0  0  0  0  0  1  0  0  0  0  0  0
  161.4370  207.4880  154.7230 C   0  0  0  0  0  0  0  0  0  0  0  0
  159.8260  210.1980  152.7950 C   0  0  0  0  0  3  0  0  0  0  0  0
  161.8300  206.2510  154.3620 N   0  0  0  0  0  2  0  0  0  0  0  0
  160.8630  208.1690  153.6880 C   0  0  0  0  0  0  0  0  0  0  0  0
  161.1360  209.3600  156.1400 N   0  0  0  0  0  0  0  0  0  0  0  0
  160.5580  210.0740  155.1200 C   0  0  0  0  0  0  0  0  0  0  0  0
  159.3880  211.5070  153.0000 C   0  0  0  0  0  0  0  0  0  0  0  0
  160.4560  207.6160  151.2870 N   0  0  0  0  0  2  0  0  0  0  0  0
  161.8170  204.5040  147.7080 C   0  0  0  0  0  1  0  0  0  0  0  0
  162.2230  206.9530  147.4390 C   0  0  0  0  0  2  0  0  0  0  0  0
  161.0780  206.0810  149.5110 C   0  0  0  0  0  0  0  0  0  0  0  0
  161.1750  207.3070  150.0840 C   0  0  0  0  0  0  0  0  0  0  0  0
  162.6280  208.1210  148.2830 C   0  0  0  0  0  3  0  0  0  0  0  0
  162.5140  209.4090  150.2370 O   0  0  0  0  0  1  0  0  0  0  0  0
  162.1110  208.3030  149.4990 C   0  0  0  0  0  0  0  0  0  0  0  0
  161.7760  205.8410  148.2750 N   0  0  0  0  0  0  0  0  0  0  0  0
  160.3200  205.0240  150.0510 O   0  0  0  0  0  0  0  0  0  0  0  0
  160.4560  202.6310  150.1420 C   0  0  0  0  0  1  0  0  0  0  0  0
  160.8320  203.9360  150.8100 C   0  0  0  0  0  2  0  0  0  0  0  0
  1 16  1  0  0  0  0
  2 15  1  0  0  0  0
  4  3  1  0  0  0  0
  4  5  1  0  0  0  0
  5  9  1  0  0  0  0
  6 12  1  0  0  0  0
  7 14  2  0  0  0  0
  8  6  2  0  0  0  0
  8 13  1  0  0  0  0
 10  7  1  0  0  0  0
 11 16  1  0  0  0  0
 11  2  2  0  0  0  0
 12 10  1  0  0  0  0
 13  2  1  0  0  0  0
 13 10  2  0  0  0  0
 15  5  2  0  0  0  0
 15 14  1  0  0  0  0
 16  4  2  0  0  0  0
 17  8  1  0  0  0  0
 18 25  1  0  0  0  0
 19 25  1  0  0  0  0
 19 22  1  0  0  0  0
 20 26  1  0  0  0  0
 20 21  2  0  0  0  0
 21 17  1  0  0  0  0
 22 24  2  0  0  0  0
 24 21  1  0  0  0  0
 24 23  1  0  0  0  0
 25 20  1  0  0  0  0
 26 28  1  0  0  0  0
 27 28  1  0  0  0  0
M  END
>  <MODEL>
7

>  <REMARK>
 VINA RESULT:      -7.1      2.973      7.101
  Name = 
  4 active torsions:
  status: ('A' for Active; 'I' for Inactive)
    1  A    between atoms: C_9  and  N_23
    2  A    between atoms: O_14  and  C_17
    3  A    between atoms: O_14  and  C_27
    4  A    between atoms: C_19  and  N_23
                            x       y       z     vdW  Elec       q    Type
                         _______ _______ _______ _____ _____    ______ ____

>  <TORSDO>
F 4

$$$$
=
 OpenBabel11072414133D

 28 31  0  0  0  0  0  0  0  0999 V2000
  162.5610  205.6370  146.4160 C   0  0  0  0  0  1  0  0  0  0  0  0
  161.5900  204.8010  149.9600 C   0  0  0  0  0  0  0  0  0  0  0  0
  161.2750  202.9070  145.8090 Cl  0  0  0  0  0  0  0  0  0  0  0  0
  161.3910  203.6300  147.4170 C   0  0  0  0  0  0  0  0  0  0  0  0
  160.8730  202.9520  148.5390 C   0  0  0  0  0  0  0  0  0  0  0  0
  161.9210  206.5140  153.1130 C   0  0  0  0  0  3  0  0  0  0  0  0
  160.5390  203.4280  152.1740 C   0  0  0  0  0  3  0  0  0  0  0  0
  162.1720  206.5080  151.7450 C   0  0  0  0  0  0  0  0  0  0  0  0
  160.2210  201.6140  148.3780 C   0  0  0  0  0  1  0  0  0  0  0  0
  161.1460  204.6700  152.3250 C   0  0  0  0  0  0  0  0  0  0  0  0
  162.1010  205.4660  148.8450 C   0  0  0  0  0  3  0  0  0  0  0  0
  161.2920  205.3650  153.4690 N   0  0  0  0  0  2  0  0  0  0  0  0
  161.6590  205.3350  151.2480 C   0  0  0  0  0  0  0  0  0  0  0  0
  160.4670  202.8900  150.9200 N   0  0  0  0  0  0  0  0  0  0  0  0
  160.9700  203.5330  149.8160 C   0  0  0  0  0  0  0  0  0  0  0  0
  162.0040  204.8890  147.5780 C   0  0  0  0  0  0  0  0  0  0  0  0
  162.7440  207.5670  150.9690 N   0  0  0  0  0  2  0  0  0  0  0  0
  160.1550  211.5350  152.3440 C   0  0  0  0  0  1  0  0  0  0  0  0
  161.3840  211.5520  150.1700 C   0  0  0  0  0  2  0  0  0  0  0  0
  161.5070  209.5320  151.6770 C   0  0  0  0  0  0  0  0  0  0  0  0
  162.1260  208.8320  150.6940 C   0  0  0  0  0  0  0  0  0  0  0  0
  161.6990  210.6060  149.0540 C   0  0  0  0  0  3  0  0  0  0  0  0
  162.3690  208.5180  148.2280 O   0  0  0  0  0  1  0  0  0  0  0  0
  162.0790  209.3520  149.3010 C   0  0  0  0  0  0  0  0  0  0  0  0
  160.9520  210.8220  151.3600 N   0  0  0  0  0  0  0  0  0  0  0  0
  161.3820  209.0740  153.0030 O   0  0  0  0  0  0  0  0  0  0  0  0
  160.8760  209.3820  155.3270 C   0  0  0  0  0  1  0  0  0  0  0  0
  161.7640  209.7890  154.1710 C   0  0  0  0  0  2  0  0  0  0  0  0
  1 16  1  0  0  0  0
  2 13  1  0  0  0  0
  3  4  1  0  0  0  0
  4 16  2  0  0  0  0
  4  5  1  0  0  0  0
  5 15  2  0  0  0  0
  6 12  1  0  0  0  0
  7 10  1  0  0  0  0
  8  6  2  0  0  0  0
  9  5  1  0  0  0  0
 10 12  1  0  0  0  0
 11  2  2  0  0  0  0
 13  8  1  0  0  0  0
 13 10  2  0  0  0  0
 14  7  2  0  0  0  0
 15  2  1  0  0  0  0
 15 14  1  0  0  0  0
 16 11  1  0  0  0  0
 17  8  1  0  0  0  0
 19 25  1  0  0  0  0
 20 26  1  0  0  0  0
 21 17  1  0  0  0  0
 21 20  2  0  0  0  0
 22 24  2  0  0  0  0
 22 19  1  0  0  0  0
 23 24  1  0  0  0  0
 24 21  1  0  0  0  0
 25 20  1  0  0  0  0
 25 18  1  0  0  0  0
 26 28  1  0  0  0  0
 28 27  1  0  0  0  0
M  END
>  <MODEL>
8

>  <REMARK>
 VINA RESULT:      -7.1      2.504      4.509
  Name = 
  4 active torsions:
  status: ('A' for Active; 'I' for Inactive)
    1  A    between atoms: C_9  and  N_23
    2  A    between atoms: O_14  and  C_17
    3  A    between atoms: O_14  and  C_27
    4  A    between atoms: C_19  and  N_23
                            x       y       z     vdW  Elec       q    Type
                         _______ _______ _______ _____ _____    ______ ____

>  <TORSDO>
F 4

$$$$
=
 OpenBabel11072414133D

 28 31  0  0  0  0  0  0  0  0999 V2000
  162.1770  207.8440  147.5110 C   0  0  0  0  0  1  0  0  0  0  0  0
  161.4860  205.9090  150.6700 C   0  0  0  0  0  0  0  0  0  0  0  0
  161.5760  205.1420  146.1620 Cl  0  0  0  0  0  0  0  0  0  0  0  0
  161.5380  205.4280  147.9050 C   0  0  0  0  0  0  0  0  0  0  0  0
  161.2140  204.3790  148.7890 C   0  0  0  0  0  0  0  0  0  0  0  0
  161.4400  206.7700  154.1690 C   0  0  0  0  0  3  0  0  0  0  0  0
  160.8260  203.8000  152.4040 C   0  0  0  0  0  3  0  0  0  0  0  0
  161.6660  207.1800  152.8590 C   0  0  0  0  0  0  0  0  0  0  0  0
  160.9000  203.0150  148.2600 C   0  0  0  0  0  1  0  0  0  0  0  0
  161.1190  205.0660  152.8980 C   0  0  0  0  0  0  0  0  0  0  0  0
  161.8060  206.9430  149.7890 C   0  0  0  0  0  3  0  0  0  0  0  0
  161.1100  205.4530  154.1870 N   0  0  0  0  0  2  0  0  0  0  0  0
  161.4430  206.0900  152.0540 C   0  0  0  0  0  0  0  0  0  0  0  0
  160.8680  203.6060  151.0520 N   0  0  0  0  0  0  0  0  0  0  0  0
  161.1860  204.6140  150.1760 C   0  0  0  0  0  0  0  0  0  0  0  0
  161.8330  206.7090  148.4140 C   0  0  0  0  0  0  0  0  0  0  0  0
  161.9560  208.5080  152.4090 N   0  0  0  0  0  2  0  0  0  0  0  0
  159.7590  212.8110  151.4120 C   0  0  0  0  0  1  0  0  0  0  0  0
  159.4630  211.7630  153.6590 C   0  0  0  0  0  2  0  0  0  0  0  0
  160.8400  210.6010  151.8920 C   0  0  0  0  0  0  0  0  0  0  0  0
  161.2650  209.6990  152.8120 C   0  0  0  0  0  0  0  0  0  0  0  0
  160.2760  210.9890  154.6500 C   0  0  0  0  0  3  0  0  0  0  0  0
  161.8100  209.3120  155.2180 O   0  0  0  0  0  1  0  0  0  0  0  0
  161.0850  210.0050  154.2560 C   0  0  0  0  0  0  0  0  0  0  0  0
  160.1030  211.7520  152.3450 N   0  0  0  0  0  0  0  0  0  0  0  0
  161.0690  210.4730  150.5080 O   0  0  0  0  0  0  0  0  0  0  0  0
  161.9590  211.4950  148.5300 C   0  0  0  0  0  1  0  0  0  0  0  0
  162.2780  210.7920  149.8310 C   0  0  0  0  0  2  0  0  0  0  0  0
  1 16  1  0  0  0  0
  2 13  1  0  0  0  0
  3  4  1  0  0  0  0
  4 16  2  0  0  0  0
  4  5  1  0  0  0  0
  5 15  2  0  0  0  0
  6 12  1  0  0  0  0
  7 10  1  0  0  0  0
  8  6  2  0  0  0  0
  9  5  1  0  0  0  0
 10 12  1  0  0  0  0
 11  2  2  0  0  0  0
 13  8  1  0  0  0  0
 13 10  2  0  0  0  0
 14  7  2  0  0  0  0
 15  2  1  0  0  0  0
 15 14  1  0  0  0  0
 16 11  1  0  0  0  0
 17 21  1  0  0  0  0
 17  8  1  0  0  0  0
 18 25  1  0  0  0  0
 19 22  1  0  0  0  0
 20 25  1  0  0  0  0
 20 21  2  0  0  0  0
 21 24  1  0  0  0  0
 24 22  2  0  0  0  0
 24 23  1  0  0  0  0
 25 19  1  0  0  0  0
 26 20  1  0  0  0  0
 27 28  1  0  0  0  0
 28 26  1  0  0  0  0
M  END
>  <MODEL>
9

>  <REMARK>
 VINA RESULT:      -7.0      2.163      4.521
  Name = 
  4 active torsions:
  status: ('A' for Active; 'I' for Inactive)
    1  A    between atoms: C_9  and  N_23
    2  A    between atoms: O_14  and  C_17
    3  A    between atoms: O_14  and  C_27
    4  A    between atoms: C_19  and  N_23
                            x       y       z     vdW  Elec       q    Type
                         _______ _______ _______ _____ _____    ______ ____

>  <TORSDO>
F 4

$$$$
