=
 OpenBabel11072415113D

 39 46  0  0  1  0  0  0  0  0999 V2000
  160.6750  211.9280  155.4870 C   0  0  0  0  0  2  0  0  0  0  0  0
  161.0140  203.6300  152.4430 C   0  0  0  0  0  0  0  0  0  0  0  0
  160.5230  210.5620  156.1280 C   0  0  2  0  0  3  0  0  0  0  0  0
  162.8590  202.8940  151.7740 C   0  0  0  0  0  3  0  0  0  0  0  0
  161.1720  209.4690  155.2610 C   0  0  2  0  0  3  0  0  0  0  0  0
  160.9530  208.0590  149.4940 C   0  0  2  0  0  3  0  0  0  0  0  0
  158.2560  212.5510  154.3820 C   0  0  2  0  0  3  0  0  0  0  0  0
  161.9280  201.9460  151.5290 N   0  0  0  0  0  0  0  0  0  0  0  0
  160.3970  212.7090  151.1730 C   0  0  0  0  0  2  0  0  0  0  0  0
  162.3940  209.2170  147.9010 C   0  0  0  0  0  1  0  0  0  0  0  0
  162.6930  209.5010  150.2050 C   0  0  2  0  0  3  0  0  0  0  0  0
  159.8990  212.8730  152.5760 C   0  0  0  0  0  3  0  0  0  0  0  0
  160.8070  202.4310  151.9720 O   0  0  0  0  0  0  0  0  0  0  0  0
  160.1790  208.4230  154.7360 C   0  0  1  0  0  3  0  0  0  0  0  0
  160.6280  211.2510  150.8050 C   0  0  0  0  0  2  0  0  0  0  0  0
  160.2310  205.7370  153.6010 C   0  0  0  0  0  0  0  0  0  0  0  0
  162.1830  210.6550  151.5440 S   0  0  0  0  0  0  0  0  0  0  0  0
  161.6710  207.3150  156.1530 N   0  0  0  0  0  0  0  0  0  0  0  0
  158.4330  211.9770  157.2610 S   0  0  0  0  0  0  0  0  0  0  0  0
  161.6680  209.3130  149.1570 N   0  0  0  0  0  0  0  0  0  0  0  0
  160.5360  206.8990  152.7130 C   0  0  0  0  0  0  0  0  0  0  0  0
  158.9940  210.7050  156.0390 C   0  0  1  0  0  3  0  0  0  0  0  0
  160.2620  208.2990  153.1990 C   0  0  0  0  0  2  0  0  0  0  0  0
  161.2060  206.7690  151.5720 C   0  0  0  0  0  0  0  0  0  0  0  0
  162.1380  208.6890  156.1660 C   0  0  0  0  0  2  0  0  0  0  0  0
  163.0480  208.1500  150.8170 C   0  0  0  0  0  2  0  0  0  0  0  0
  158.7810  212.2730  153.0040 C   0  0  0  0  0  3  0  0  0  0  0  0
  162.3130  203.9790  152.3700 N   0  0  0  0  0  0  0  0  0  0  0  0
  159.1580  212.0850  155.5640 C   0  0  2  0  0  0  0  0  0  0  0  0
  161.8940  205.9860  150.4810 O   0  0  0  0  0  0  0  0  0  0  0  0
  161.8270  207.3490  150.4920 C   0  0  2  0  0  0  0  0  0  0  0  0
  160.0010  204.4220  153.0810 N   0  0  0  0  0  2  0  0  0  0  0  0
  160.2800  205.9010  154.8920 N   0  0  0  0  0  0  0  0  0  0  0  0
  160.6190  207.1800  155.4300 C   0  0  0  0  0  0  0  0  0  0  0  0
  155.8580  213.1670  154.8900 O   0  0  0  0  0  1  0  0  0  0  0  0
  156.4120  211.0290  154.2900 O   0  0  0  0  0  0  0  0  0  0  0  0
  156.7950  212.2080  154.4940 C   0  0  0  0  0  0  0  0  0  0  0  0
  160.5250  207.2190  148.2870 C   0  0  0  0  0  2  0  0  0  0  0  0
  161.6630  206.3290  147.8290 C   0  0  0  0  0  1  0  0  0  0  0  0
  2 32  1  0  0  0  0
  3  1  1  6  0  0  0
  4 28  1  0  0  0  0
  5  3  1  0  0  0  0
  5 25  1  1  0  0  0
  6 38  1  6  0  0  0
  6 31  1  0  0  0  0
  7 37  1  1  0  0  0
  7 29  1  0  0  0  0
  8  4  2  0  0  0  0
  8 13  1  0  0  0  0
  9 12  1  0  0  0  0
 10 20  1  0  0  0  0
 11 26  1  1  0  0  0
 11 17  1  0  0  0  0
 12 27  2  0  0  0  0
 13  2  1  0  0  0  0
 14 23  1  6  0  0  0
 14  5  1  0  0  0  0
 14 34  1  0  0  0  0
 15  9  1  0  0  0  0
 15 17  1  0  0  0  0
 16 33  2  0  0  0  0
 18 25  1  0  0  0  0
 20  6  1  0  0  0  0
 20 11  1  0  0  0  0
 21 23  1  0  0  0  0
 21 16  1  0  0  0  0
 22  3  1  0  0  0  0
 22 19  1  1  0  0  0
 24 21  2  0  0  0  0
 27  7  1  0  0  0  0
 28  2  2  0  0  0  0
 29  1  1  6  0  0  0
 29 22  1  0  0  0  0
 29 19  1  0  0  0  0
 30 31  1  0  0  0  0
 30 24  1  0  0  0  0
 31 26  1  1  0  0  0
 31 24  1  0  0  0  0
 32 16  1  0  0  0  0
 33 34  1  0  0  0  0
 34 18  2  0  0  0  0
 36 37  2  0  0  0  0
 37 35  1  0  0  0  0
 39 38  1  0  0  0  0
M  END
>  <MODEL>
1

>  <REMARK>
 VINA RESULT:       4.0      0.000      0.000
  Name = 
  2 active torsions:
  status: ('A' for Active; 'I' for Inactive)
    1  A    between atoms: C_5  and  C_8
    2  A    between atoms: C_9  and  C_22
                            x       y       z     vdW  Elec       q    Type
                         _______ _______ _______ _____ _____    ______ ____

>  <TORSDO>
F 2

$$$$
=
 OpenBabel11072415113D

 39 46  0  0  1  0  0  0  0  0999 V2000
  159.0640  210.2010  155.5680 C   0  0  0  0  0  2  0  0  0  0  0  0
  161.5450  212.5880  147.4200 C   0  0  0  0  0  0  0  0  0  0  0  0
  159.0120  211.5000  154.7870 C   0  0  2  0  0  3  0  0  0  0  0  0
  160.4920  211.7950  145.7910 C   0  0  0  0  0  3  0  0  0  0  0  0
  159.0990  211.2390  153.2730 C   0  0  2  0  0  3  0  0  0  0  0  0
  162.6520  207.9660  149.8140 C   0  0  2  0  0  3  0  0  0  0  0  0
  161.5850  210.0050  156.6000 C   0  0  2  0  0  3  0  0  0  0  0  0
  161.5170  212.5250  145.2990 N   0  0  0  0  0  0  0  0  0  0  0  0
  161.5770  206.7540  154.5180 C   0  0  0  0  0  2  0  0  0  0  0  0
  162.1960  205.5890  149.5030 C   0  0  0  0  0  1  0  0  0  0  0  0
  160.6390  206.9720  150.5720 C   0  0  2  0  0  3  0  0  0  0  0  0
  161.1900  207.8690  155.4390 C   0  0  0  0  0  3  0  0  0  0  0  0
  162.1320  213.0120  146.3340 O   0  0  0  0  0  0  0  0  0  0  0  0
  160.3430  211.8480  152.6090 C   0  0  1  0  0  3  0  0  0  0  0  0
  161.7800  207.2260  153.0860 C   0  0  0  0  0  2  0  0  0  0  0  0
  161.2760  212.5350  149.9340 C   0  0  0  0  0  0  0  0  0  0  0  0
  160.1680  207.4840  152.2760 S   0  0  0  0  0  0  0  0  0  0  0  0
  158.4740  212.9100  151.6910 N   0  0  0  0  0  0  0  0  0  0  0  0
  159.9220  212.3380  157.2610 S   0  0  0  0  0  0  0  0  0  0  0  0
  162.0860  206.7280  150.4010 N   0  0  0  0  0  0  0  0  0  0  0  0
  161.3650  211.1140  150.3830 C   0  0  0  0  0  0  0  0  0  0  0  0
  160.3010  211.9590  155.4900 C   0  0  1  0  0  3  0  0  0  0  0  0
  161.1400  210.7770  151.8350 C   0  0  0  0  0  2  0  0  0  0  0  0
  161.4620  210.0990  149.5290 C   0  0  0  0  0  0  0  0  0  0  0  0
  157.9050  211.9540  152.6220 C   0  0  0  0  0  2  0  0  0  0  0  0
  160.1830  208.0420  149.5840 C   0  0  0  0  0  2  0  0  0  0  0  0
  161.9510  208.9610  155.5860 C   0  0  0  0  0  3  0  0  0  0  0  0
  160.4710  211.8240  147.1430 N   0  0  0  0  0  0  0  0  0  0  0  0
  160.2500  210.7660  156.3460 C   0  0  2  0  0  0  0  0  0  0  0  0
  161.6000  209.4850  148.1580 O   0  0  0  0  0  0  0  0  0  0  0  0
  161.4720  208.7450  149.2960 C   0  0  2  0  0  0  0  0  0  0  0  0
  161.9240  212.9990  148.7420 N   0  0  0  0  0  2  0  0  0  0  0  0
  160.5000  213.3550  150.5850 N   0  0  0  0  0  0  0  0  0  0  0  0
  159.7580  212.8810  151.7090 C   0  0  0  0  0  0  0  0  0  0  0  0
  162.6190  212.2190  157.2450 O   0  0  0  0  0  1  0  0  0  0  0  0
  163.9240  210.3610  156.9580 O   0  0  0  0  0  0  0  0  0  0  0  0
  162.7700  210.8580  156.9640 C   0  0  0  0  0  0  0  0  0  0  0  0
  163.7800  207.7420  148.8040 C   0  0  0  0  0  2  0  0  0  0  0  0
  163.2470  207.0730  147.5520 C   0  0  0  0  0  1  0  0  0  0  0  0
  2 32  1  0  0  0  0
  3 22  1  0  0  0  0
  3  1  1  1  0  0  0
  4 28  1  0  0  0  0
  5 25  1  6  0  0  0
  5  3  1  0  0  0  0
  6 38  1  6  0  0  0
  6 20  1  0  0  0  0
  7 37  1  6  0  0  0
  8  4  2  0  0  0  0
  8 13  1  0  0  0  0
  9 12  1  0  0  0  0
 10 20  1  0  0  0  0
 11 26  1  6  0  0  0
 11 17  1  0  0  0  0
 12 27  2  0  0  0  0
 13  2  1  0  0  0  0
 14 23  1  6  0  0  0
 14  5  1  0  0  0  0
 15  9  1  0  0  0  0
 16 21  1  0  0  0  0
 16 33  2  0  0  0  0
 17 15  1  0  0  0  0
 18 34  2  0  0  0  0
 18 25  1  0  0  0  0
 20 11  1  0  0  0  0
 21 23  1  0  0  0  0
 22 29  1  0  0  0  0
 22 19  1  1  0  0  0
 24 21  2  0  0  0  0
 27  7  1  0  0  0  0
 28  2  2  0  0  0  0
 29  1  1  6  0  0  0
 29  7  1  0  0  0  0
 29 19  1  0  0  0  0
 30 31  1  0  0  0  0
 30 24  1  0  0  0  0
 31 24  1  0  0  0  0
 31 26  1  1  0  0  0
 31  6  1  0  0  0  0
 32 16  1  0  0  0  0
 33 34  1  0  0  0  0
 34 14  1  0  0  0  0
 36 37  2  0  0  0  0
 37 35  1  0  0  0  0
 39 38  1  0  0  0  0
M  END
>  <MODEL>
2

>  <REMARK>
 VINA RESULT:       6.7      3.164      6.212
  Name = 
  2 active torsions:
  status: ('A' for Active; 'I' for Inactive)
    1  A    between atoms: C_5  and  C_8
    2  A    between atoms: C_9  and  C_22
                            x       y       z     vdW  Elec       q    Type
                         _______ _______ _______ _____ _____    ______ ____

>  <TORSDO>
F 2

$$$$
