=
 OpenBabel11072410153D

 37 41  0  0  1  0  0  0  0  0999 V2000
  160.7200  212.2200  151.9810 C   0  0  0  0  0  2  0  0  0  0  0  0
  159.6390  209.6820  152.6110 O   0  0  0  0  0  0  0  0  0  0  0  0
  158.8560  210.8020  153.0150 C   0  0  0  0  0  2  0  0  0  0  0  0
  161.3630  206.6650  153.8910 C   0  0  0  0  0  1  0  0  0  0  0  0
  161.9330  210.2840  149.1880 N   0  0  0  0  0  0  0  0  0  0  0  0
  161.0780  212.6170  149.5680 C   0  0  0  0  0  0  0  0  0  0  0  0
  161.9300  211.6980  148.9000 C   0  0  0  0  0  0  0  0  0  0  0  0
  160.4330  208.9380  153.4890 C   0  0  0  0  0  0  0  0  0  0  0  0
  161.3330  207.8580  152.9520 C   0  0  2  0  0  3  0  0  0  0  0  0
  162.5420  209.3090  148.3050 C   0  0  0  0  0  2  0  0  0  0  0  0
  162.0180  214.4110  148.2900 N   0  0  0  0  0  0  0  0  0  0  0  0
  162.8340  213.5540  147.6260 C   0  0  0  0  0  3  0  0  0  0  0  0
  161.9650  208.3860  150.4220 C   0  0  1  0  0  3  0  0  0  0  0  0
  161.4790  209.7590  150.4040 N   0  0  0  0  0  2  0  0  0  0  0  0
  162.8020  212.1910  147.9180 C   0  0  0  0  0  3  0  0  0  0  0  0
  161.1520  213.9740  149.2410 C   0  0  0  0  0  3  0  0  0  0  0  0
  159.6790  212.0940  153.0930 C   0  0  1  0  0  3  0  0  0  0  0  0
  160.8000  207.2880  151.3030 S   0  0  0  0  0  0  0  0  0  0  0  0
  160.4420  209.2060  154.7210 O   0  0  0  0  0  0  0  0  0  0  0  0
  162.2960  207.9820  148.9780 C   0  0  1  0  0  3  0  0  0  0  0  0
  160.0780  212.2140  150.6020 C   0  0  0  0  0  2  0  0  0  0  0  0
  160.3350  212.2170  154.4600 C   0  0  0  0  0  2  0  0  0  0  0  0
  158.1720  213.4020  154.9540 N   0  0  0  0  0  0  0  0  0  0  0  0
  158.5890  214.4480  154.0230 C   0  0  0  0  0  1  0  0  0  0  0  0
  158.4510  214.2220  157.2610 C   0  0  0  0  0  2  0  0  0  0  0  0
  156.3270  213.3470  156.4590 N   0  0  0  0  0  1  0  0  0  0  0  0
  157.5130  214.0850  156.0650 C   0  0  2  0  0  3  0  0  0  0  0  0
  159.3350  212.7030  155.5120 C   0  0  2  0  0  3  0  0  0  0  0  0
  160.1220  213.7530  156.7500 S   0  0  0  0  0  0  0  0  0  0  0  0
  161.1340  207.3040  148.2610 C   0  0  0  0  0  2  0  0  0  0  0  0
  162.6600  204.5910  146.5600 C   0  0  0  0  0  0  0  0  0  0  0  0
  161.6540  203.9040  147.2070 C   0  0  0  0  0  0  0  0  0  0  0  0
  160.9580  204.8460  147.9360 C   0  0  0  0  0  3  0  0  0  0  0  0
  163.6800  204.0160  145.6410 C   0  0  0  0  0  1  0  0  0  0  0  0
  161.5630  206.0290  147.7090 N   0  0  0  0  0  0  0  0  0  0  0  0
  162.5860  205.8940  146.8790 N   0  0  0  0  0  0  0  0  0  0  0  0
  161.3620  202.4470  147.1350 C   0  0  0  0  0  1  0  0  0  0  0  0
  1 17  1  0  0  0  0
  2  3  1  0  0  0  0
  2  8  1  0  0  0  0
  3 17  1  0  0  0  0
  5 14  1  0  0  0  0
  6 21  1  0  0  0  0
  7  5  1  0  0  0  0
  7  6  2  0  0  0  0
  8 19  2  0  0  0  0
  9  8  1  0  0  0  0
  9  4  1  1  0  0  0
 10 20  1  0  0  0  0
 10  5  1  0  0  0  0
 11 16  2  0  0  0  0
 12 15  2  0  0  0  0
 12 11  1  0  0  0  0
 13 14  1  6  0  0  0
 13 18  1  0  0  0  0
 15  7  1  0  0  0  0
 16  6  1  0  0  0  0
 17 22  1  1  0  0  0
 18  9  1  0  0  0  0
 20 30  1  6  0  0  0
 20 13  1  0  0  0  0
 21  1  1  0  0  0  0
 23 28  1  0  0  0  0
 23 27  1  0  0  0  0
 24 23  1  0  0  0  0
 27 26  1  1  0  0  0
 27 25  1  0  0  0  0
 28 22  1  6  0  0  0
 28 29  1  0  0  0  0
 29 25  1  0  0  0  0
 31 36  2  0  0  0  0
 31 32  1  0  0  0  0
 32 33  2  0  0  0  0
 34 31  1  0  0  0  0
 35 33  1  0  0  0  0
 35 30  1  0  0  0  0
 36 35  1  0  0  0  0
 37 32  1  0  0  0  0
M  END
>  <MODEL>
1

>  <REMARK>
 VINA RESULT:      -5.9      0.000      0.000
  Name = 
  4 active torsions:
  status: ('A' for Active; 'I' for Inactive)
    1  A    between atoms: N_25  and  C_37
    2  A    between atoms: C_27  and  C_29
    3  A    between atoms: C_28  and  C_29
    4  A    between atoms: C_34  and  C_37
                            x       y       z     vdW  Elec       q    Type
                         _______ _______ _______ _____ _____    ______ ____

>  <TORSDO>
F 4

$$$$
