=
 OpenBabel11072413213D

 44 48  0  0  1  0  0  0  0  0999 V2000
  160.7040  207.6770  153.8740 C   0  0  0  0  0  0  0  0  0  0  0  0
  160.6080  207.2350  155.3020 C   0  0  0  0  0  1  0  0  0  0  0  0
  161.4110  205.3060  148.2950 C   0  0  0  0  0  0  0  0  0  0  0  0
  160.5400  212.8580  150.9240 O   0  0  0  0  0  1  0  0  0  0  0  0
  160.4510  211.4380  154.3240 C   0  0  0  0  0  0  0  0  0  0  0  0
  160.6630  209.0590  153.4710 C   0  0  0  0  0  0  0  0  0  0  0  0
  160.8840  205.3480  153.2910 N   0  0  0  0  0  2  0  0  0  0  0  0
  160.7400  209.3210  152.0660 C   0  0  0  0  0  0  0  0  0  0  0  0
  160.4580  212.2360  153.1990 C   0  0  0  0  0  3  0  0  0  0  0  0
  160.8390  206.6550  152.9190 C   0  0  0  0  0  0  0  0  0  0  0  0
  160.8830  208.2860  151.1990 N   0  0  0  0  0  0  0  0  0  0  0  0
  161.2400  206.2990  149.2560 C   0  0  0  0  0  3  0  0  0  0  0  0
  160.9380  206.9870  151.5680 C   0  0  0  0  0  0  0  0  0  0  0  0
  160.5650  209.8450  155.8510 N   0  0  0  0  0  0  0  0  0  0  0  0
  161.0910  205.9720  150.6100 C   0  0  0  0  0  0  0  0  0  0  0  0
  160.4530  210.9600  156.6200 O   0  0  0  0  0  0  0  0  0  0  0  0
  160.5510  210.0850  154.4560 C   0  0  0  0  0  0  0  0  0  0  0  0
  160.3860  212.0260  155.6880 C   0  0  2  0  0  3  0  0  0  0  0  0
  160.5680  211.8550  151.8830 C   0  0  0  0  0  0  0  0  0  0  0  0
  161.0660  203.1500  152.8320 O   0  0  0  0  0  0  0  0  0  0  0  0
  160.6990  210.5560  151.4310 C   0  0  0  0  0  3  0  0  0  0  0  0
  161.0180  204.3310  152.3990 C   0  0  0  0  0  0  0  0  0  0  0  0
  161.4180  203.9620  148.6860 C   0  0  0  0  0  3  0  0  0  0  0  0
  161.1210  204.6110  151.0180 C   0  0  0  0  0  0  0  0  0  0  0  0
  161.2720  203.5980  150.0370 C   0  0  0  0  0  0  0  0  0  0  0  0
  159.0900  212.8390  155.8690 C   0  0  1  0  0  3  0  0  0  0  0  0
  158.9030  213.7550  154.8270 O   0  0  0  0  0  1  0  0  0  0  0  0
  157.5220  211.1450  154.8550 C   0  0  0  0  0  1  0  0  0  0  0  0
  156.6500  212.8570  156.3990 C   0  0  0  0  0  1  0  0  0  0  0  0
  158.0650  211.0510  157.2610 C   0  0  0  0  0  1  0  0  0  0  0  0
  157.8440  211.9740  156.0820 C   0  0  0  0  0  0  0  0  0  0  0  0
  161.2820  202.2460  150.4060 O   0  0  0  0  0  0  0  0  0  0  0  0
  160.3050  201.3130  149.9620 C   0  0  0  0  0  1  0  0  0  0  0  0
  161.6170  205.7110  146.8680 C   0  0  2  0  0  3  0  0  0  0  0  0
  160.4820  206.2510  144.7050 C   0  0  0  0  0  1  0  0  0  0  0  0
  160.3270  206.1880  146.2120 C   0  0  0  0  0  2  0  0  0  0  0  0
  162.2350  204.5680  146.0720 C   0  0  0  0  0  2  0  0  0  0  0  0
  161.1960  203.6710  145.5940 N   0  0  0  0  0  2  0  0  0  0  0  0
  159.7370  201.3590  144.9140 N   0  0  0  0  0  2  0  0  0  0  0  0
  160.7680  201.2370  145.6780 C   0  0  0  0  0  0  0  0  0  0  0  0
  161.5170  202.3900  146.0660 N   0  0  0  0  0  2  0  0  0  0  0  0
  161.1450  199.9180  146.1950 C   0  0  0  0  0  0  0  0  0  0  0  0
  161.5920  199.7960  147.3680 O   0  0  0  0  0  1  0  0  0  0  0  0
  161.0090  198.7960  145.3940 O   0  0  0  0  0  0  0  0  0  0  0  0
  1  2  1  0  0  0  0
  3 23  2  0  0  0  0
  3 12  1  0  0  0  0
  4 19  1  0  0  0  0
  5 17  1  0  0  0  0
  5 18  1  0  0  0  0
  6  1  1  0  0  0  0
  6 17  1  0  0  0  0
  8  6  2  0  0  0  0
  9  5  2  0  0  0  0
 10  7  1  0  0  0  0
 10  1  2  0  0  0  0
 11 13  2  0  0  0  0
 11  8  1  0  0  0  0
 12 15  2  0  0  0  0
 13 10  1  0  0  0  0
 14 16  1  0  0  0  0
 15 24  1  0  0  0  0
 15 13  1  0  0  0  0
 17 14  2  0  0  0  0
 18 26  1  6  0  0  0
 18 16  1  0  0  0  0
 19  9  1  0  0  0  0
 21 19  2  0  0  0  0
 21  8  1  0  0  0  0
 22 20  2  0  0  0  0
 22  7  1  0  0  0  0
 23 25  1  0  0  0  0
 24 22  1  0  0  0  0
 25 32  1  0  0  0  0
 25 24  2  0  0  0  0
 26 27  1  6  0  0  0
 26 31  1  0  0  0  0
 28 31  1  0  0  0  0
 31 29  1  0  0  0  0
 31 30  1  0  0  0  0
 33 32  1  0  0  0  0
 34 37  1  6  0  0  0
 34  3  1  0  0  0  0
 35 36  1  0  0  0  0
 36 34  1  0  0  0  0
 38 41  1  0  0  0  0
 38 37  1  0  0  0  0
 39 40  2  0  0  0  0
 40 41  1  0  0  0  0
 40 42  1  0  0  0  0
 42 43  1  0  0  0  0
 44 42  2  0  0  0  0
M  END
>  <MODEL>
1

>  <REMARK>
 VINA RESULT:      -8.5      0.000      0.000
  Name = 
  9 active torsions:
  status: ('A' for Active; 'I' for Inactive)
    1  A    between atoms: C_2  and  N_7
    2  A    between atoms: C_2  and  C_12
    3  A    between atoms: C_4  and  C_9
    4  A    between atoms: N_7  and  N_23
    5  A    between atoms: C_10  and  C_12
    6  A    between atoms: C_12  and  C_27
    7  A    between atoms: C_19  and  C_34
    8  A    between atoms: C_19  and  C_42
    9  A    between atoms: O_29  and  C_44
                            x       y       z     vdW  Elec       q    Type
                         _______ _______ _______ _____ _____    ______ ____

>  <TORSDO>
F 9

$$$$
=
 OpenBabel11072413213D

 44 48  0  0  1  0  0  0  0  0999 V2000
  157.8090  213.8920  149.0050 C   0  0  0  0  0  0  0  0  0  0  0  0
  156.7390  214.4530  148.1200 C   0  0  0  0  0  1  0  0  0  0  0  0
  158.7470  212.4660  154.8640 C   0  0  0  0  0  0  0  0  0  0  0  0
  163.3980  211.9210  148.3230 O   0  0  0  0  0  1  0  0  0  0  0  0
  160.5920  213.4250  146.4650 C   0  0  0  0  0  0  0  0  0  0  0  0
  159.1180  213.5290  148.5260 C   0  0  0  0  0  0  0  0  0  0  0  0
  156.2390  214.0760  150.8210 N   0  0  0  0  0  0  0  0  0  0  0  0
  160.0250  212.9810  149.4890 C   0  0  0  0  0  0  0  0  0  0  0  0
  161.7820  212.8700  146.8880 C   0  0  0  0  0  3  0  0  0  0  0  0
  157.4710  213.7300  150.3590 C   0  0  0  0  0  0  0  0  0  0  0  0
  159.6360  212.8650  150.7850 N   0  0  0  0  0  0  0  0  0  0  0  0
  159.0490  212.6010  153.5120 C   0  0  0  0  0  3  0  0  0  0  0  0
  158.4160  213.2170  151.2470 C   0  0  0  0  0  0  0  0  0  0  0  0
  158.6000  214.3470  146.2120 N   0  0  0  0  0  2  0  0  0  0  0  0
  158.0890  213.0700  152.6050 C   0  0  0  0  0  0  0  0  0  0  0  0
  159.1110  214.4410  144.9570 O   0  0  0  0  0  0  0  0  0  0  0  0
  159.4540  213.7240  147.1540 C   0  0  0  0  0  0  0  0  0  0  0  0
  160.4040  213.8690  145.0580 C   0  0  2  0  0  3  0  0  0  0  0  0
  162.1300  212.4620  148.1540 C   0  0  0  0  0  0  0  0  0  0  0  0
  154.7170  214.2980  152.4660 O   0  0  0  0  0  0  0  0  0  0  0  0
  161.3240  212.5380  149.2730 C   0  0  0  0  0  3  0  0  0  0  0  0
  155.8740  213.9390  152.1220 C   0  0  0  0  0  0  0  0  0  0  0  0
  157.4640  212.7890  155.3210 C   0  0  0  0  0  3  0  0  0  0  0  0
  156.7920  213.4220  153.0640 C   0  0  0  0  0  0  0  0  0  0  0  0
  156.4770  213.2640  154.4380 C   0  0  0  0  0  0  0  0  0  0  0  0
  160.5650  212.6840  144.0870 C   0  0  1  0  0  3  0  0  0  0  0  0
  159.3270  212.2250  143.6200 O   0  0  0  0  0  1  0  0  0  0  0  0
  162.9480  213.1720  143.4250 C   0  0  0  0  0  1  0  0  0  0  0  0
  161.0900  214.2050  142.1770 C   0  0  0  0  0  1  0  0  0  0  0  0
  161.5090  211.8000  141.9630 C   0  0  0  0  0  1  0  0  0  0  0  0
  161.5310  212.9620  142.9310 C   0  0  0  0  0  0  0  0  0  0  0  0
  155.1990  213.5800  154.9160 O   0  0  0  0  0  0  0  0  0  0  0  0
  154.9560  214.0320  156.2430 C   0  0  0  0  0  1  0  0  0  0  0  0
  159.8230  212.0090  155.8000 C   0  0  2  0  0  3  0  0  0  0  0  0
  159.6740  214.4530  156.3140 C   0  0  0  0  0  1  0  0  0  0  0  0
  160.3680  213.1480  156.6530 C   0  0  0  0  0  2  0  0  0  0  0  0
  160.9470  211.3260  155.0320 C   0  0  0  0  0  2  0  0  0  0  0  0
  160.7890  209.8820  155.0890 N   0  0  0  0  0  2  0  0  0  0  0  0
  161.0610  207.1420  154.4920 N   0  0  0  0  0  2  0  0  0  0  0  0
  161.1350  207.9960  153.5290 C   0  0  0  0  0  0  0  0  0  0  0  0
  161.0300  209.3950  153.7970 N   0  0  0  0  0  2  0  0  0  0  0  0
  161.3840  207.5350  152.1590 C   0  0  0  0  0  0  0  0  0  0  0  0
  161.8780  206.3940  151.9500 O   0  0  0  0  0  1  0  0  0  0  0  0
  161.0780  208.3560  151.0860 O   0  0  0  0  0  0  0  0  0  0  0  0
  1 10  1  0  0  0  0
  2  1  1  0  0  0  0
  3 23  1  0  0  0  0
  3 34  1  0  0  0  0
  5  9  1  0  0  0  0
  5 17  2  0  0  0  0
  6  1  2  0  0  0  0
  6  8  1  0  0  0  0
  7 22  1  0  0  0  0
  8 11  1  0  0  0  0
  9 19  2  0  0  0  0
 10  7  2  0  0  0  0
 10 13  1  0  0  0  0
 11 13  2  0  0  0  0
 12  3  2  0  0  0  0
 13 15  1  0  0  0  0
 14 17  1  0  0  0  0
 15 24  2  0  0  0  0
 15 12  1  0  0  0  0
 16 18  1  0  0  0  0
 16 14  1  0  0  0  0
 17  6  1  0  0  0  0
 18 26  1  6  0  0  0
 18  5  1  0  0  0  0
 19  4  1  0  0  0  0
 19 21  1  0  0  0  0
 21  8  2  0  0  0  0
 22 20  2  0  0  0  0
 22 24  1  0  0  0  0
 24 25  1  0  0  0  0
 25 32  1  0  0  0  0
 25 23  2  0  0  0  0
 26 27  1  6  0  0  0
 29 31  1  0  0  0  0
 30 31  1  0  0  0  0
 31 28  1  0  0  0  0
 31 26  1  0  0  0  0
 32 33  1  0  0  0  0
 34 37  1  6  0  0  0
 34 36  1  0  0  0  0
 35 36  1  0  0  0  0
 37 38  1  0  0  0  0
 40 41  1  0  0  0  0
 40 39  2  0  0  0  0
 41 38  1  0  0  0  0
 42 40  1  0  0  0  0
 43 42  1  0  0  0  0
 44 42  2  0  0  0  0
M  END
>  <MODEL>
2

>  <REMARK>
 VINA RESULT:      -8.5      5.026     10.503
  Name = 
  9 active torsions:
  status: ('A' for Active; 'I' for Inactive)
    1  A    between atoms: C_2  and  N_7
    2  A    between atoms: C_2  and  C_12
    3  A    between atoms: C_4  and  C_9
    4  A    between atoms: N_7  and  N_23
    5  A    between atoms: C_10  and  C_12
    6  A    between atoms: C_12  and  C_27
    7  A    between atoms: C_19  and  C_34
    8  A    between atoms: C_19  and  C_42
    9  A    between atoms: O_29  and  C_44
                            x       y       z     vdW  Elec       q    Type
                         _______ _______ _______ _____ _____    ______ ____

>  <TORSDO>
F 9

$$$$
=
 OpenBabel11072413213D

 44 48  0  0  1  0  0  0  0  0999 V2000
  160.8660  204.7800  151.8600 C   0  0  0  0  0  0  0  0  0  0  0  0
  160.5540  204.0470  153.1280 C   0  0  0  0  0  1  0  0  0  0  0  0
  161.6020  203.6890  145.9010 C   0  0  0  0  0  0  0  0  0  0  0  0
  162.0020  210.4210  150.2860 O   0  0  0  0  0  1  0  0  0  0  0  0
  161.3210  208.2950  153.2200 C   0  0  0  0  0  0  0  0  0  0  0  0
  161.1360  206.1940  151.8120 C   0  0  0  0  0  0  0  0  0  0  0  0
  160.6360  202.6700  150.7240 N   0  0  0  0  0  2  0  0  0  0  0  0
  161.3930  206.7560  150.5200 C   0  0  0  0  0  0  0  0  0  0  0  0
  161.5890  209.3150  152.3300 C   0  0  0  0  0  3  0  0  0  0  0  0
  160.8840  204.0070  150.6870 C   0  0  0  0  0  0  0  0  0  0  0  0
  161.4070  205.9470  149.4300 N   0  0  0  0  0  0  0  0  0  0  0  0
  161.5430  204.4420  147.0700 C   0  0  0  0  0  3  0  0  0  0  0  0
  161.1710  204.6170  149.4660 C   0  0  0  0  0  0  0  0  0  0  0  0
  160.9770  206.4030  154.3060 N   0  0  0  0  0  0  0  0  0  0  0  0
  161.2080  203.8460  148.2930 C   0  0  0  0  0  0  0  0  0  0  0  0
  161.0170  207.3030  155.3230 O   0  0  0  0  0  0  0  0  0  0  0  0
  161.1390  206.9600  153.0150 C   0  0  0  0  0  0  0  0  0  0  0  0
  161.2470  208.5470  154.6830 C   0  0  2  0  0  3  0  0  0  0  0  0
  161.7420  209.2380  150.9660 C   0  0  0  0  0  0  0  0  0  0  0  0
  160.4210  200.6550  149.7410 O   0  0  0  0  0  0  0  0  0  0  0  0
  161.6550  208.0850  150.2110 C   0  0  0  0  0  3  0  0  0  0  0  0
  160.6480  201.8870  149.6130 C   0  0  0  0  0  0  0  0  0  0  0  0
  161.3070  202.3210  145.9450 C   0  0  0  0  0  3  0  0  0  0  0  0
  160.9310  202.4540  148.3510 C   0  0  0  0  0  0  0  0  0  0  0  0
  160.9690  201.6910  147.1550 C   0  0  0  0  0  0  0  0  0  0  0  0
  160.1270  209.5540  155.0070 C   0  0  1  0  0  3  0  0  0  0  0  0
  159.2130  209.0320  155.9300 O   0  0  0  0  0  1  0  0  0  0  0  0
  160.3730  211.9870  154.3950 C   0  0  0  0  0  1  0  0  0  0  0  0
  162.1380  210.8630  155.6980 C   0  0  0  0  0  1  0  0  0  0  0  0
  159.9700  211.3310  156.7400 C   0  0  0  0  0  1  0  0  0  0  0  0
  160.6420  210.9290  155.4460 C   0  0  0  0  0  0  0  0  0  0  0  0
  160.6770  200.3200  147.1770 O   0  0  0  0  0  0  0  0  0  0  0  0
  161.3360  199.3730  146.3460 C   0  0  0  0  0  1  0  0  0  0  0  0
  162.0140  204.3640  144.6290 C   0  0  2  0  0  3  0  0  0  0  0  0
  164.0870  204.8290  145.9500 C   0  0  0  0  0  1  0  0  0  0  0  0
  163.1840  205.3180  144.8340 C   0  0  0  0  0  2  0  0  0  0  0  0
  160.8310  205.0900  144.0000 C   0  0  0  0  0  2  0  0  0  0  0  0
  161.2860  206.2900  143.3180 N   0  0  0  0  0  2  0  0  0  0  0  0
  161.8530  208.1360  141.2660 N   0  0  0  0  0  2  0  0  0  0  0  0
  161.9350  206.8760  141.0050 C   0  0  0  0  0  0  0  0  0  0  0  0
  161.6290  205.9100  142.0120 N   0  0  0  0  0  2  0  0  0  0  0  0
  162.2920  206.4290  139.6550 C   0  0  0  0  0  0  0  0  0  0  0  0
  163.1590  205.5290  139.4880 O   0  0  0  0  0  1  0  0  0  0  0  0
  161.6740  206.9970  138.5530 O   0  0  0  0  0  0  0  0  0  0  0  0
  1  2  1  0  0  0  0
  3 23  2  0  0  0  0
  3 12  1  0  0  0  0
  4 19  1  0  0  0  0
  5 18  1  0  0  0  0
  6  1  1  0  0  0  0
  6 17  1  0  0  0  0
  8  6  2  0  0  0  0
  9  5  2  0  0  0  0
 10  7  1  0  0  0  0
 10  1  2  0  0  0  0
 11 13  2  0  0  0  0
 11  8  1  0  0  0  0
 12 15  2  0  0  0  0
 13 10  1  0  0  0  0
 14 16  1  0  0  0  0
 15 24  1  0  0  0  0
 15 13  1  0  0  0  0
 17  5  1  0  0  0  0
 17 14  2  0  0  0  0
 18 26  1  6  0  0  0
 18 16  1  0  0  0  0
 19  9  1  0  0  0  0
 21  8  1  0  0  0  0
 21 19  2  0  0  0  0
 22 20  2  0  0  0  0
 22  7  1  0  0  0  0
 23 25  1  0  0  0  0
 24 22  1  0  0  0  0
 25 32  1  0  0  0  0
 25 24  2  0  0  0  0
 26 31  1  0  0  0  0
 26 27  1  1  0  0  0
 28 31  1  0  0  0  0
 31 29  1  0  0  0  0
 31 30  1  0  0  0  0
 33 32  1  0  0  0  0
 34 37  1  1  0  0  0
 34 36  1  0  0  0  0
 34  3  1  0  0  0  0
 36 35  1  0  0  0  0
 38 37  1  0  0  0  0
 40 39  2  0  0  0  0
 40 41  1  0  0  0  0
 41 38  1  0  0  0  0
 42 40  1  0  0  0  0
 43 42  1  0  0  0  0
 44 42  2  0  0  0  0
M  END
>  <MODEL>
3

>  <REMARK>
 VINA RESULT:      -8.1      3.077      4.553
  Name = 
  9 active torsions:
  status: ('A' for Active; 'I' for Inactive)
    1  A    between atoms: C_2  and  N_7
    2  A    between atoms: C_2  and  C_12
    3  A    between atoms: C_4  and  C_9
    4  A    between atoms: N_7  and  N_23
    5  A    between atoms: C_10  and  C_12
    6  A    between atoms: C_12  and  C_27
    7  A    between atoms: C_19  and  C_34
    8  A    between atoms: C_19  and  C_42
    9  A    between atoms: O_29  and  C_44
                            x       y       z     vdW  Elec       q    Type
                         _______ _______ _______ _____ _____    ______ ____

>  <TORSDO>
F 9

$$$$
=
 OpenBabel11072413213D

 44 48  0  0  1  0  0  0  0  0999 V2000
  160.8860  205.2470  152.3260 C   0  0  0  0  0  0  0  0  0  0  0  0
  160.9790  204.0340  153.1990 C   0  0  0  0  0  1  0  0  0  0  0  0
  160.8680  211.3330  152.7850 C   0  0  0  0  0  0  0  0  0  0  0  0
  160.3410  206.3530  146.4900 O   0  0  0  0  0  1  0  0  0  0  0  0
  160.4890  203.5950  148.9310 C   0  0  0  0  0  0  0  0  0  0  0  0
  160.7180  205.1810  150.8970 C   0  0  0  0  0  0  0  0  0  0  0  0
  161.1230  206.5600  154.3310 N   0  0  0  0  0  0  0  0  0  0  0  0
  160.6710  206.4290  150.1970 C   0  0  0  0  0  0  0  0  0  0  0  0
  160.4080  204.4000  147.8140 C   0  0  0  0  0  3  0  0  0  0  0  0
  160.9710  206.4880  152.9810 C   0  0  0  0  0  0  0  0  0  0  0  0
  160.7460  207.5910  150.8950 N   0  0  0  0  0  0  0  0  0  0  0  0
  160.8220  210.0930  152.1530 C   0  0  0  0  0  3  0  0  0  0  0  0
  160.8880  207.6650  152.2370 C   0  0  0  0  0  0  0  0  0  0  0  0
  160.5620  202.6780  150.9400 N   0  0  0  0  0  2  0  0  0  0  0  0
  160.9540  208.9070  152.8880 C   0  0  0  0  0  0  0  0  0  0  0  0
  160.4480  201.5860  150.1390 O   0  0  0  0  0  0  0  0  0  0  0  0
  160.6080  203.9140  150.2510 C   0  0  0  0  0  0  0  0  0  0  0  0
  160.3870  202.1160  148.8260 C   0  0  2  0  0  3  0  0  0  0  0  0
  160.4310  205.7730  147.7490 C   0  0  0  0  0  0  0  0  0  0  0  0
  161.3310  207.7130  156.2540 O   0  0  0  0  0  0  0  0  0  0  0  0
  160.5400  206.6280  148.8280 C   0  0  0  0  0  3  0  0  0  0  0  0
  161.2060  207.7400  155.0010 C   0  0  0  0  0  0  0  0  0  0  0  0
  161.0630  211.3960  154.1700 C   0  0  0  0  0  3  0  0  0  0  0  0
  161.1290  208.9610  154.2960 C   0  0  0  0  0  0  0  0  0  0  0  0
  161.1980  210.2250  154.9370 C   0  0  0  0  0  0  0  0  0  0  0  0
  161.5190  201.5520  147.9470 C   0  0  1  0  0  3  0  0  0  0  0  0
  162.1500  200.4590  148.5510 O   0  0  0  0  0  1  0  0  0  0  0  0
  161.6020  202.2460  145.5240 C   0  0  0  0  0  1  0  0  0  0  0  0
  159.5660  201.1960  146.4320 C   0  0  0  0  0  1  0  0  0  0  0  0
  161.5950  199.8540  146.1310 C   0  0  0  0  0  1  0  0  0  0  0  0
  161.0820  201.2240  146.5150 C   0  0  0  0  0  0  0  0  0  0  0  0
  161.3930  210.3100  156.3220 O   0  0  0  0  0  0  0  0  0  0  0  0
  162.5800  210.8300  156.9080 C   0  0  0  0  0  1  0  0  0  0  0  0
  160.6720  212.5690  151.9620 C   0  0  2  0  0  3  0  0  0  0  0  0
  158.1830  212.4510  152.1960 C   0  0  0  0  0  1  0  0  0  0  0  0
  159.4100  213.3280  152.3540 C   0  0  0  0  0  2  0  0  0  0  0  0
  160.6550  212.2270  150.4780 C   0  0  0  0  0  2  0  0  0  0  0  0
  160.5110  213.4380  149.6860 N   0  0  0  0  0  2  0  0  0  0  0  0
  158.7090  213.2210  147.5320 N   0  0  0  0  0  2  0  0  0  0  0  0
  159.9660  213.0440  147.3070 C   0  0  0  0  0  0  0  0  0  0  0  0
  160.9070  213.1180  148.3790 N   0  0  0  0  0  2  0  0  0  0  0  0
  160.4290  212.7090  145.9570 C   0  0  0  0  0  0  0  0  0  0  0  0
  159.7160  211.9990  145.1950 O   0  0  0  0  0  0  0  0  0  0  0  0
  161.6560  213.1730  145.5110 O   0  0  0  0  0  1  0  0  0  0  0  0
  1 10  1  0  0  0  0
  1  2  1  0  0  0  0
  3 23  1  0  0  0  0
  4 19  1  0  0  0  0
  5 17  2  0  0  0  0
  6  1  2  0  0  0  0
  7 22  1  0  0  0  0
  8 11  1  0  0  0  0
  8  6  1  0  0  0  0
  9  5  1  0  0  0  0
 10  7  2  0  0  0  0
 11 13  2  0  0  0  0
 12  3  2  0  0  0  0
 12 15  1  0  0  0  0
 13 15  1  0  0  0  0
 13 10  1  0  0  0  0
 15 24  2  0  0  0  0
 16 14  1  0  0  0  0
 17  6  1  0  0  0  0
 17 14  1  0  0  0  0
 18 26  1  6  0  0  0
 18  5  1  0  0  0  0
 18 16  1  0  0  0  0
 19  9  2  0  0  0  0
 19 21  1  0  0  0  0
 21  8  2  0  0  0  0
 22 20  2  0  0  0  0
 23 25  2  0  0  0  0
 24 25  1  0  0  0  0
 24 22  1  0  0  0  0
 25 32  1  0  0  0  0
 26 27  1  1  0  0  0
 28 31  1  0  0  0  0
 29 31  1  0  0  0  0
 30 31  1  0  0  0  0
 31 26  1  0  0  0  0
 32 33  1  0  0  0  0
 34 37  1  6  0  0  0
 34 36  1  0  0  0  0
 34  3  1  0  0  0  0
 35 36  1  0  0  0  0
 38 37  1  0  0  0  0
 40 39  2  0  0  0  0
 40 41  1  0  0  0  0
 41 38  1  0  0  0  0
 42 40  1  0  0  0  0
 43 42  2  0  0  0  0
 44 42  1  0  0  0  0
M  END
>  <MODEL>
4

>  <REMARK>
 VINA RESULT:      -7.4      2.765      9.634
  Name = 
  9 active torsions:
  status: ('A' for Active; 'I' for Inactive)
    1  A    between atoms: C_2  and  N_7
    2  A    between atoms: C_2  and  C_12
    3  A    between atoms: C_4  and  C_9
    4  A    between atoms: N_7  and  N_23
    5  A    between atoms: C_10  and  C_12
    6  A    between atoms: C_12  and  C_27
    7  A    between atoms: C_19  and  C_34
    8  A    between atoms: C_19  and  C_42
    9  A    between atoms: O_29  and  C_44
                            x       y       z     vdW  Elec       q    Type
                         _______ _______ _______ _____ _____    ______ ____

>  <TORSDO>
F 9

$$$$
=
 OpenBabel11072413213D

 44 48  0  0  1  0  0  0  0  0999 V2000
  159.6840  213.1110  151.1940 C   0  0  0  0  0  0  0  0  0  0  0  0
  159.1100  214.4480  150.8410 C   0  0  0  0  0  1  0  0  0  0  0  0
  159.8770  209.2090  155.8820 C   0  0  0  0  0  0  0  0  0  0  0  0
  162.9940  208.9630  148.4710 O   0  0  0  0  0  1  0  0  0  0  0  0
  161.5300  212.3100  147.9760 C   0  0  0  0  0  0  0  0  0  0  0  0
  160.5020  212.3410  150.2940 C   0  0  0  0  0  0  0  0  0  0  0  0
  158.6120  213.3510  153.3370 N   0  0  0  0  0  0  0  0  0  0  0  0
  160.9560  211.0680  150.7670 C   0  0  0  0  0  0  0  0  0  0  0  0
  162.1820  211.0980  147.8760 C   0  0  0  0  0  3  0  0  0  0  0  0
  159.3800  212.6270  152.4780 C   0  0  0  0  0  0  0  0  0  0  0  0
  160.6350  210.6680  152.0240 N   0  0  0  0  0  0  0  0  0  0  0  0
  160.1360  209.6920  154.6030 C   0  0  0  0  0  3  0  0  0  0  0  0
  159.8810  211.3910  152.8830 C   0  0  0  0  0  0  0  0  0  0  0  0
  160.4570  214.1510  148.5580 N   0  0  0  0  0  2  0  0  0  0  0  0
  159.5960  210.9100  154.1710 C   0  0  0  0  0  0  0  0  0  0  0  0
  160.8640  214.4530  147.2970 O   0  0  0  0  0  0  0  0  0  0  0  0
  160.8220  212.8580  149.0040 C   0  0  0  0  0  0  0  0  0  0  0  0
  161.5740  213.3030  146.8700 C   0  0  2  0  0  3  0  0  0  0  0  0
  162.2830  210.1040  148.8200 C   0  0  0  0  0  0  0  0  0  0  0  0
  157.5950  213.6620  155.3220 O   0  0  0  0  0  0  0  0  0  0  0  0
  161.7310  210.1380  150.0860 C   0  0  0  0  0  3  0  0  0  0  0  0
  158.3000  212.9200  154.5880 C   0  0  0  0  0  0  0  0  0  0  0  0
  159.0550  209.9440  156.7450 C   0  0  0  0  0  3  0  0  0  0  0  0
  158.7800  211.6740  155.0470 C   0  0  0  0  0  0  0  0  0  0  0  0
  158.4980  211.1720  156.3440 C   0  0  0  0  0  0  0  0  0  0  0  0
  160.9580  212.7160  145.5860 C   0  0  1  0  0  3  0  0  0  0  0  0
  159.5610  212.6600  145.6590 O   0  0  0  0  0  1  0  0  0  0  0  0
  162.7240  214.1640  144.5170 C   0  0  0  0  0  1  0  0  0  0  0  0
  160.3650  214.4040  143.8430 C   0  0  0  0  0  1  0  0  0  0  0  0
  161.6120  212.3920  143.2080 C   0  0  0  0  0  1  0  0  0  0  0  0
  161.4230  213.4170  144.3040 C   0  0  0  0  0  0  0  0  0  0  0  0
  157.6770  211.8920  157.2230 O   0  0  0  0  0  0  0  0  0  0  0  0
  156.2710  212.0130  157.0480 C   0  0  0  0  0  1  0  0  0  0  0  0
  160.5190  207.9260  156.3130 C   0  0  2  0  0  3  0  0  0  0  0  0
  162.3290  209.5870  156.7920 C   0  0  0  0  0  1  0  0  0  0  0  0
  161.9820  208.1140  156.6980 C   0  0  0  0  0  2  0  0  0  0  0  0
  160.3800  206.8670  155.2270 C   0  0  0  0  0  2  0  0  0  0  0  0
  161.4900  206.9600  154.2920 N   0  0  0  0  0  2  0  0  0  0  0  0
  160.8220  206.6690  151.5700 N   0  0  0  0  0  2  0  0  0  0  0  0
  161.2290  205.6330  152.2220 C   0  0  0  0  0  0  0  0  0  0  0  0
  161.5490  205.7360  153.6100 N   0  0  0  0  0  2  0  0  0  0  0  0
  161.3090  204.3310  151.5520 C   0  0  0  0  0  0  0  0  0  0  0  0
  161.6700  204.2560  150.3460 O   0  0  0  0  0  0  0  0  0  0  0  0
  160.9880  203.1750  152.2450 O   0  0  0  0  0  1  0  0  0  0  0  0
  1 10  1  0  0  0  0
  2  1  1  0  0  0  0
  3 34  1  0  0  0  0
  3 23  1  0  0  0  0
  4 19  1  0  0  0  0
  5 17  2  0  0  0  0
  6  8  1  0  0  0  0
  6  1  2  0  0  0  0
  7 22  1  0  0  0  0
  8 11  1  0  0  0  0
  9  5  1  0  0  0  0
  9 19  2  0  0  0  0
 10 13  1  0  0  0  0
 10  7  2  0  0  0  0
 11 13  2  0  0  0  0
 12  3  2  0  0  0  0
 13 15  1  0  0  0  0
 14 17  1  0  0  0  0
 15 12  1  0  0  0  0
 15 24  2  0  0  0  0
 16 14  1  0  0  0  0
 17  6  1  0  0  0  0
 18 26  1  6  0  0  0
 18 16  1  0  0  0  0
 18  5  1  0  0  0  0
 19 21  1  0  0  0  0
 21  8  2  0  0  0  0
 22 24  1  0  0  0  0
 22 20  2  0  0  0  0
 24 25  1  0  0  0  0
 25 23  2  0  0  0  0
 25 32  1  0  0  0  0
 26 27  1  1  0  0  0
 29 31  1  0  0  0  0
 30 31  1  0  0  0  0
 31 28  1  0  0  0  0
 31 26  1  0  0  0  0
 33 32  1  0  0  0  0
 34 37  1  6  0  0  0
 34 36  1  0  0  0  0
 36 35  1  0  0  0  0
 38 37  1  0  0  0  0
 39 40  2  0  0  0  0
 40 41  1  0  0  0  0
 41 38  1  0  0  0  0
 42 40  1  0  0  0  0
 42 44  1  0  0  0  0
 43 42  2  0  0  0  0
M  END
>  <MODEL>
5

>  <REMARK>
 VINA RESULT:      -7.0      3.640      8.850
  Name = 
  9 active torsions:
  status: ('A' for Active; 'I' for Inactive)
    1  A    between atoms: C_2  and  N_7
    2  A    between atoms: C_2  and  C_12
    3  A    between atoms: C_4  and  C_9
    4  A    between atoms: N_7  and  N_23
    5  A    between atoms: C_10  and  C_12
    6  A    between atoms: C_12  and  C_27
    7  A    between atoms: C_19  and  C_34
    8  A    between atoms: C_19  and  C_42
    9  A    between atoms: O_29  and  C_44
                            x       y       z     vdW  Elec       q    Type
                         _______ _______ _______ _____ _____    ______ ____

>  <TORSDO>
F 9

$$$$
=
 OpenBabel11072413213D

 44 48  0  0  1  0  0  0  0  0999 V2000
  160.4840  213.3130  147.0630 C   0  0  0  0  0  0  0  0  0  0  0  0
  161.7750  213.0020  147.7540 C   0  0  0  0  0  1  0  0  0  0  0  0
  158.2690  214.0420  141.4230 C   0  0  0  0  0  0  0  0  0  0  0  0
  154.8610  214.4500  148.6980 O   0  0  0  0  0  1  0  0  0  0  0  0
  158.2140  213.7710  150.0710 C   0  0  0  0  0  0  0  0  0  0  0  0
  159.2570  213.5840  147.7670 C   0  0  0  0  0  0  0  0  0  0  0  0
  161.6780  213.0810  144.9850 N   0  0  0  0  0  2  0  0  0  0  0  0
  158.0990  213.8390  146.9650 C   0  0  0  0  0  0  0  0  0  0  0  0
  156.8780  214.0390  149.8520 C   0  0  0  0  0  2  0  0  0  0  0  0
  160.5220  213.3290  145.6580 C   0  0  0  0  0  0  0  0  0  0  0  0
  158.2100  213.8520  145.6120 N   0  0  0  0  0  0  0  0  0  0  0  0
  158.2460  213.9850  142.8130 C   0  0  0  0  0  3  0  0  0  0  0  0
  159.3600  213.6150  144.9420 C   0  0  0  0  0  0  0  0  0  0  0  0
  160.3940  213.4270  149.9970 N   0  0  0  0  0  2  0  0  0  0  0  0
  159.3970  213.6510  143.5390 C   0  0  0  0  0  0  0  0  0  0  0  0
  160.1650  213.4690  151.3350 O   0  0  0  0  0  0  0  0  0  0  0  0
  159.2400  213.5880  149.1930 C   0  0  0  0  0  0  0  0  0  0  0  0
  158.7710  213.6990  151.4470 C   0  0  2  0  0  3  0  0  0  0  0  0
  156.2240  214.1900  148.6520 C   0  0  0  0  0  0  0  0  0  0  0  0
  162.8720  212.8640  143.0880 O   0  0  0  0  0  0  0  0  0  0  0  0
  156.8060  214.1020  147.4020 C   0  0  0  0  0  3  0  0  0  0  0  0
  161.7570  213.0910  143.6280 C   0  0  0  0  0  0  0  0  0  0  0  0
  159.4540  213.7470  140.7390 C   0  0  0  0  0  3  0  0  0  0  0  0
  160.6100  213.3730  142.8540 C   0  0  0  0  0  0  0  0  0  0  0  0
  160.6290  213.4090  141.4360 C   0  0  0  0  0  0  0  0  0  0  0  0
  158.0870  212.5790  152.2540 C   0  0  1  0  0  3  0  0  0  0  0  0
  158.9180  211.4630  152.4000 O   0  0  0  0  0  1  0  0  0  0  0  0
  156.3840  214.0180  153.4330 C   0  0  0  0  0  1  0  0  0  0  0  0
  158.6300  213.7220  154.4070 C   0  0  0  0  0  1  0  0  0  0  0  0
  157.0530  211.8460  154.3940 C   0  0  0  0  0  1  0  0  0  0  0  0
  157.5330  213.0440  153.6050 C   0  0  0  0  0  0  0  0  0  0  0  0
  161.8040  213.1170  140.7320 O   0  0  0  0  0  0  0  0  0  0  0  0
  162.3970  214.0160  139.8020 C   0  0  0  0  0  1  0  0  0  0  0  0
  157.0250  214.4530  140.6970 C   0  0  2  0  0  3  0  0  0  0  0  0
  154.6150  213.7810  140.7160 C   0  0  0  0  0  1  0  0  0  0  0  0
  155.7750  214.2850  141.5520 C   0  0  0  0  0  2  0  0  0  0  0  0
  156.8900  213.6840  139.3890 C   0  0  0  0  0  2  0  0  0  0  0  0
  157.2140  212.2820  139.5960 N   0  0  0  0  0  2  0  0  0  0  0  0
  158.2180  209.6750  139.2300 N   0  0  0  0  0  2  0  0  0  0  0  0
  158.7450  210.6420  138.5580 C   0  0  0  0  0  0  0  0  0  0  0  0
  158.2810  211.9800  138.7380 N   0  0  0  0  0  2  0  0  0  0  0  0
  159.8620  210.3760  137.6460 C   0  0  0  0  0  0  0  0  0  0  0  0
  160.4750  211.3290  137.0930 O   0  0  0  0  0  0  0  0  0  0  0  0
  160.2480  209.0700  137.3880 O   0  0  0  0  0  1  0  0  0  0  0  0
  1  2  1  0  0  0  0
  1  6  1  0  0  0  0
  3 12  1  0  0  0  0
  5 18  1  0  0  0  0
  6 17  1  0  0  0  0
  7 10  1  0  0  0  0
  8 21  1  0  0  0  0
  8  6  2  0  0  0  0
  9  5  1  0  0  0  0
 10  1  2  0  0  0  0
 11  8  1  0  0  0  0
 12 15  2  0  0  0  0
 13 11  2  0  0  0  0
 13 10  1  0  0  0  0
 14 16  1  0  0  0  0
 15 13  1  0  0  0  0
 16 18  1  0  0  0  0
 17 14  1  0  0  0  0
 17  5  2  0  0  0  0
 18 26  1  1  0  0  0
 19  4  1  0  0  0  0
 19  9  1  0  0  0  0
 20 22  2  0  0  0  0
 21 19  2  0  0  0  0
 22  7  1  0  0  0  0
 23  3  2  0  0  0  0
 23 25  1  0  0  0  0
 24 15  1  0  0  0  0
 24 22  1  0  0  0  0
 25 24  2  0  0  0  0
 26 27  1  1  0  0  0
 26 31  1  0  0  0  0
 28 31  1  0  0  0  0
 31 30  1  0  0  0  0
 31 29  1  0  0  0  0
 32 25  1  0  0  0  0
 33 32  1  0  0  0  0
 34 37  1  6  0  0  0
 34  3  1  0  0  0  0
 34 36  1  0  0  0  0
 35 36  1  0  0  0  0
 37 38  1  0  0  0  0
 40 41  1  0  0  0  0
 40 39  2  0  0  0  0
 41 38  1  0  0  0  0
 42 40  1  0  0  0  0
 43 42  2  0  0  0  0
 44 42  1  0  0  0  0
M  END
>  <MODEL>
6

>  <REMARK>
 VINA RESULT:      -6.4      7.506      9.929
  Name = 
  9 active torsions:
  status: ('A' for Active; 'I' for Inactive)
    1  A    between atoms: C_2  and  N_7
    2  A    between atoms: C_2  and  C_12
    3  A    between atoms: C_4  and  C_9
    4  A    between atoms: N_7  and  N_23
    5  A    between atoms: C_10  and  C_12
    6  A    between atoms: C_12  and  C_27
    7  A    between atoms: C_19  and  C_34
    8  A    between atoms: C_19  and  C_42
    9  A    between atoms: O_29  and  C_44
                            x       y       z     vdW  Elec       q    Type
                         _______ _______ _______ _____ _____    ______ ____

>  <TORSDO>
F 9

$$$$
=
 OpenBabel11072413213D

 44 48  0  0  1  0  0  0  0  0999 V2000
  161.3640  207.8440  149.3910 C   0  0  0  0  0  0  0  0  0  0  0  0
  161.6350  208.3240  147.9990 C   0  0  0  0  0  1  0  0  0  0  0  0
  160.2610  210.0750  154.9630 C   0  0  0  0  0  0  0  0  0  0  0  0
  160.8390  202.5700  152.1280 O   0  0  0  0  0  1  0  0  0  0  0  0
  161.5840  204.0930  148.8550 C   0  0  0  0  0  0  0  0  0  0  0  0
  161.3350  206.4510  149.7540 C   0  0  0  0  0  0  0  0  0  0  0  0
  161.1650  210.1590  150.0230 N   0  0  0  0  0  0  0  0  0  0  0  0
  161.0360  206.1490  151.1210 C   0  0  0  0  0  0  0  0  0  0  0  0
  161.3450  203.2600  149.9280 C   0  0  0  0  0  3  0  0  0  0  0  0
  161.1340  208.8410  150.3550 C   0  0  0  0  0  0  0  0  0  0  0  0
  160.8370  207.1620  152.0020 N   0  0  0  0  0  0  0  0  0  0  0  0
  160.4560  209.1050  153.9850 C   0  0  0  0  0  3  0  0  0  0  0  0
  160.8780  208.4730  151.6760 C   0  0  0  0  0  0  0  0  0  0  0  0
  161.9800  205.7400  147.4370 N   0  0  0  0  0  2  0  0  0  0  0  0
  160.6650  209.4640  152.6470 C   0  0  0  0  0  0  0  0  0  0  0  0
  162.1890  204.6460  146.6580 O   0  0  0  0  0  0  0  0  0  0  0  0
  161.5960  205.4530  148.7690 C   0  0  0  0  0  0  0  0  0  0  0  0
  161.9570  203.5470  147.5220 C   0  0  2  0  0  3  0  0  0  0  0  0
  161.0460  203.6050  151.2250 C   0  0  0  0  0  0  0  0  0  0  0  0
  161.0150  212.3470  150.5340 O   0  0  0  0  0  0  0  0  0  0  0  0
  160.9290  204.8940  151.7080 C   0  0  0  0  0  3  0  0  0  0  0  0
  160.9520  211.1520  150.9260 C   0  0  0  0  0  0  0  0  0  0  0  0
  160.2580  211.4280  154.6030 C   0  0  0  0  0  3  0  0  0  0  0  0
  160.6870  210.8350  152.2770 C   0  0  0  0  0  0  0  0  0  0  0  0
  160.4660  211.8240  153.2700 C   0  0  0  0  0  0  0  0  0  0  0  0
  160.8420  202.6360  146.9750 C   0  0  1  0  0  3  0  0  0  0  0  0
  160.7960  202.6560  145.5760 O   0  0  0  0  0  1  0  0  0  0  0  0
  162.1740  200.9480  148.2910 C   0  0  0  0  0  1  0  0  0  0  0  0
  160.8270  200.2160  146.3600 C   0  0  0  0  0  1  0  0  0  0  0  0
  159.7090  200.9520  148.4130 C   0  0  0  0  0  1  0  0  0  0  0  0
  160.8990  201.2020  147.5130 C   0  0  0  0  0  0  0  0  0  0  0  0
  160.4590  213.1840  152.9310 O   0  0  0  0  0  0  0  0  0  0  0  0
  159.2770  213.9750  152.9210 C   0  0  0  0  0  1  0  0  0  0  0  0
  160.0920  209.6410  156.3870 C   0  0  2  0  0  3  0  0  0  0  0  0
  160.4150  207.3180  157.2590 C   0  0  0  0  0  1  0  0  0  0  0  0
  159.4890  208.2460  156.4970 C   0  0  0  0  0  2  0  0  0  0  0  0
  159.2540  210.6530  157.1590 C   0  0  0  0  0  2  0  0  0  0  0  0
  157.8580  210.5470  156.7710 N   0  0  0  0  0  2  0  0  0  0  0  0
  156.2650  211.4750  154.6400 N   0  0  0  0  0  2  0  0  0  0  0  0
  156.5300  212.2800  155.6110 C   0  0  0  0  0  0  0  0  0  0  0  0
  157.3570  211.8540  156.6950 N   0  0  0  0  0  2  0  0  0  0  0  0
  156.0270  213.6570  155.5780 C   0  0  0  0  0  0  0  0  0  0  0  0
  155.5590  214.1910  156.6200 O   0  0  0  0  0  1  0  0  0  0  0  0
  156.0630  214.3790  154.3960 O   0  0  0  0  0  0  0  0  0  0  0  0
  1  6  2  0  0  0  0
  1 10  1  0  0  0  0
  2  1  1  0  0  0  0
  3 34  1  0  0  0  0
  5  9  1  0  0  0  0
  6  8  1  0  0  0  0
  7 10  2  0  0  0  0
  7 22  1  0  0  0  0
  8 21  2  0  0  0  0
  8 11  1  0  0  0  0
  9 19  2  0  0  0  0
 10 13  1  0  0  0  0
 12  3  2  0  0  0  0
 13 11  2  0  0  0  0
 13 15  1  0  0  0  0
 14 17  1  0  0  0  0
 15 12  1  0  0  0  0
 16 14  1  0  0  0  0
 16 18  1  0  0  0  0
 17  5  2  0  0  0  0
 17  6  1  0  0  0  0
 18 26  1  6  0  0  0
 18  5  1  0  0  0  0
 19 21  1  0  0  0  0
 19  4  1  0  0  0  0
 20 22  2  0  0  0  0
 22 24  1  0  0  0  0
 23  3  1  0  0  0  0
 24 15  2  0  0  0  0
 24 25  1  0  0  0  0
 25 23  2  0  0  0  0
 26 27  1  6  0  0  0
 26 31  1  0  0  0  0
 29 31  1  0  0  0  0
 31 28  1  0  0  0  0
 31 30  1  0  0  0  0
 32 25  1  0  0  0  0
 33 32  1  0  0  0  0
 34 36  1  6  0  0  0
 34 37  1  0  0  0  0
 36 35  1  0  0  0  0
 38 37  1  0  0  0  0
 39 40  2  0  0  0  0
 40 41  1  0  0  0  0
 41 38  1  0  0  0  0
 42 40  1  0  0  0  0
 42 43  1  0  0  0  0
 44 42  2  0  0  0  0
M  END
>  <MODEL>
7

>  <REMARK>
 VINA RESULT:      -6.3      2.083     11.015
  Name = 
  9 active torsions:
  status: ('A' for Active; 'I' for Inactive)
    1  A    between atoms: C_2  and  N_7
    2  A    between atoms: C_2  and  C_12
    3  A    between atoms: C_4  and  C_9
    4  A    between atoms: N_7  and  N_23
    5  A    between atoms: C_10  and  C_12
    6  A    between atoms: C_12  and  C_27
    7  A    between atoms: C_19  and  C_34
    8  A    between atoms: C_19  and  C_42
    9  A    between atoms: O_29  and  C_44
                            x       y       z     vdW  Elec       q    Type
                         _______ _______ _______ _____ _____    ______ ____

>  <TORSDO>
F 9

$$$$
=
 OpenBabel11072413213D

 44 48  0  0  1  0  0  0  0  0999 V2000
  160.9070  213.3020  145.5220 C   0  0  0  0  0  0  0  0  0  0  0  0
  162.2650  213.0820  146.1130 C   0  0  0  0  0  1  0  0  0  0  0  0
  158.1620  213.4830  140.0750 C   0  0  0  0  0  0  0  0  0  0  0  0
  155.4260  214.4490  147.5770 O   0  0  0  0  0  1  0  0  0  0  0  0
  158.9100  213.9690  148.6810 C   0  0  0  0  0  0  0  0  0  0  0  0
  159.7420  213.6050  146.3140 C   0  0  0  0  0  0  0  0  0  0  0  0
  161.9120  212.9160  143.3680 N   0  0  0  0  0  2  0  0  0  0  0  0
  158.5080  213.7630  145.6060 C   0  0  0  0  0  0  0  0  0  0  0  0
  157.5520  214.1860  148.5670 C   0  0  0  0  0  2  0  0  0  0  0  0
  160.8160  213.1960  144.1240 C   0  0  0  0  0  0  0  0  0  0  0  0
  158.4940  213.6600  144.2520 N   0  0  0  0  0  0  0  0  0  0  0  0
  158.2680  213.5480  141.4610 C   0  0  0  0  0  3  0  0  0  0  0  0
  159.5840  213.3910  143.4990 C   0  0  0  0  0  0  0  0  0  0  0  0
  161.0840  213.6700  148.4310 N   0  0  0  0  0  2  0  0  0  0  0  0
  159.4910  213.3050  142.1010 C   0  0  0  0  0  0  0  0  0  0  0  0
  160.9780  213.8240  149.7770 O   0  0  0  0  0  0  0  0  0  0  0  0
  159.8570  213.7340  147.7290 C   0  0  0  0  0  0  0  0  0  0  0  0
  159.5930  214.0310  150.0000 C   0  0  2  0  0  3  0  0  0  0  0  0
  156.7870  214.2170  147.4260 C   0  0  0  0  0  0  0  0  0  0  0  0
  162.9330  212.5610  141.3930 O   0  0  0  0  0  0  0  0  0  0  0  0
  157.2540  214.0330  146.1390 C   0  0  0  0  0  3  0  0  0  0  0  0
  161.8660  212.8090  142.0150 C   0  0  0  0  0  0  0  0  0  0  0  0
  159.2880  213.1570  139.3100 C   0  0  0  0  0  3  0  0  0  0  0  0
  160.6440  212.9960  141.3310 C   0  0  0  0  0  0  0  0  0  0  0  0
  160.5310  212.9080  139.9190 C   0  0  0  0  0  0  0  0  0  0  0  0
  159.0210  212.9710  150.9600 C   0  0  1  0  0  3  0  0  0  0  0  0
  160.0020  212.0620  151.3730 O   0  0  0  0  0  1  0  0  0  0  0  0
  159.1760  214.4250  153.0140 C   0  0  0  0  0  1  0  0  0  0  0  0
  157.7040  212.4480  153.0160 C   0  0  0  0  0  1  0  0  0  0  0  0
  157.1120  214.4030  151.6610 C   0  0  0  0  0  1  0  0  0  0  0  0
  158.2700  213.5650  152.1570 C   0  0  0  0  0  0  0  0  0  0  0  0
  161.6460  212.5830  139.1350 O   0  0  0  0  0  0  0  0  0  0  0  0
  161.6530  211.5070  138.2040 C   0  0  0  0  0  1  0  0  0  0  0  0
  156.8440  213.8010  139.4370 C   0  0  2  0  0  3  0  0  0  0  0  0
  154.3590  213.8370  139.7240 C   0  0  0  0  0  1  0  0  0  0  0  0
  155.6950  213.7650  140.4370 C   0  0  0  0  0  2  0  0  0  0  0  0
  156.5730  212.8580  138.2710 C   0  0  0  0  0  2  0  0  0  0  0  0
  157.2690  211.5980  138.4740 N   0  0  0  0  0  2  0  0  0  0  0  0
  156.7080  209.1030  137.2920 N   0  0  0  0  0  2  0  0  0  0  0  0
  156.0930  209.4260  138.3780 C   0  0  0  0  0  0  0  0  0  0  0  0
  156.3300  210.6940  138.9910 N   0  0  0  0  0  2  0  0  0  0  0  0
  155.1030  208.5130  138.9580 C   0  0  0  0  0  0  0  0  0  0  0  0
  154.4920  208.8220  140.0180 O   0  0  0  0  0  1  0  0  0  0  0  0
  154.8340  207.3010  138.3420 O   0  0  0  0  0  0  0  0  0  0  0  0
  1  2  1  0  0  0  0
  1  6  1  0  0  0  0
  3 12  1  0  0  0  0
  5 18  1  0  0  0  0
  6 17  1  0  0  0  0
  7 10  1  0  0  0  0
  8 21  1  0  0  0  0
  8  6  2  0  0  0  0
  9  5  1  0  0  0  0
 10  1  2  0  0  0  0
 11  8  1  0  0  0  0
 12 15  2  0  0  0  0
 13 10  1  0  0  0  0
 13 11  2  0  0  0  0
 14 16  1  0  0  0  0
 15 13  1  0  0  0  0
 16 18  1  0  0  0  0
 17 14  1  0  0  0  0
 17  5  2  0  0  0  0
 18 26  1  1  0  0  0
 19  4  1  0  0  0  0
 19  9  1  0  0  0  0
 20 22  2  0  0  0  0
 21 19  2  0  0  0  0
 22  7  1  0  0  0  0
 23 25  1  0  0  0  0
 23  3  2  0  0  0  0
 24 22  1  0  0  0  0
 24 15  1  0  0  0  0
 25 24  2  0  0  0  0
 26 27  1  1  0  0  0
 26 31  1  0  0  0  0
 30 31  1  0  0  0  0
 31 28  1  0  0  0  0
 31 29  1  0  0  0  0
 32 25  1  0  0  0  0
 33 32  1  0  0  0  0
 34 37  1  6  0  0  0
 34  3  1  0  0  0  0
 34 36  1  0  0  0  0
 35 36  1  0  0  0  0
 37 38  1  0  0  0  0
 38 41  1  0  0  0  0
 39 40  2  0  0  0  0
 40 42  1  0  0  0  0
 40 41  1  0  0  0  0
 42 43  1  0  0  0  0
 44 42  2  0  0  0  0
M  END
>  <MODEL>
8

>  <REMARK>
 VINA RESULT:      -6.1      7.878     10.430
  Name = 
  9 active torsions:
  status: ('A' for Active; 'I' for Inactive)
    1  A    between atoms: C_2  and  N_7
    2  A    between atoms: C_2  and  C_12
    3  A    between atoms: C_4  and  C_9
    4  A    between atoms: N_7  and  N_23
    5  A    between atoms: C_10  and  C_12
    6  A    between atoms: C_12  and  C_27
    7  A    between atoms: C_19  and  C_34
    8  A    between atoms: C_19  and  C_42
    9  A    between atoms: O_29  and  C_44
                            x       y       z     vdW  Elec       q    Type
                         _______ _______ _______ _____ _____    ______ ____

>  <TORSDO>
F 9

$$$$
=
 OpenBabel11072413213D

 44 48  0  0  1  0  0  0  0  0999 V2000
  161.4360  206.1240  148.2840 C   0  0  0  0  0  0  0  0  0  0  0  0
  161.6140  206.6320  146.8870 C   0  0  0  0  0  1  0  0  0  0  0  0
  161.1800  208.2140  154.0120 C   0  0  0  0  0  0  0  0  0  0  0  0
  160.5950  200.8240  150.8880 O   0  0  0  0  0  1  0  0  0  0  0  0
  161.1650  202.3990  147.6050 C   0  0  0  0  0  0  0  0  0  0  0  0
  161.2840  204.7280  148.6020 C   0  0  0  0  0  0  0  0  0  0  0  0
  161.5710  208.4160  149.0080 N   0  0  0  0  0  0  0  0  0  0  0  0
  161.0960  204.4000  149.9830 C   0  0  0  0  0  0  0  0  0  0  0  0
  160.9450  201.5510  148.6700 C   0  0  0  0  0  3  0  0  0  0  0  0
  161.4230  207.0960  149.2990 C   0  0  0  0  0  0  0  0  0  0  0  0
  161.1070  205.3890  150.9130 N   0  0  0  0  0  0  0  0  0  0  0  0
  161.1600  207.2720  152.9870 C   0  0  0  0  0  3  0  0  0  0  0  0
  161.2650  206.7000  150.6270 C   0  0  0  0  0  0  0  0  0  0  0  0
  161.5990  204.0530  146.2070 N   0  0  0  0  0  2  0  0  0  0  0  0
  161.2690  207.6650  151.6470 C   0  0  0  0  0  0  0  0  0  0  0  0
  161.5990  202.9790  145.3750 O   0  0  0  0  0  0  0  0  0  0  0  0
  161.3250  203.7520  147.5620 C   0  0  0  0  0  0  0  0  0  0  0  0
  161.3330  201.8750  146.2230 C   0  0  2  0  0  3  0  0  0  0  0  0
  160.8240  201.8680  150.0020 C   0  0  0  0  0  0  0  0  0  0  0  0
  161.7270  210.5830  149.6020 O   0  0  0  0  0  0  0  0  0  0  0  0
  160.9060  203.1400  150.5360 C   0  0  0  0  0  3  0  0  0  0  0  0
  161.5680  209.3860  149.9600 C   0  0  0  0  0  0  0  0  0  0  0  0
  161.2960  209.5730  153.6980 C   0  0  0  0  0  3  0  0  0  0  0  0
  161.4100  209.0400  151.3210 C   0  0  0  0  0  0  0  0  0  0  0  0
  161.4080  210.0030  152.3630 C   0  0  0  0  0  0  0  0  0  0  0  0
  160.0700  201.1180  145.7710 C   0  0  1  0  0  3  0  0  0  0  0  0
  159.3040  201.8760  144.8760 O   0  0  0  0  0  1  0  0  0  0  0  0
  159.1240  198.8370  145.2610 C   0  0  0  0  0  1  0  0  0  0  0  0
  161.4570  199.0580  146.0260 C   0  0  0  0  0  1  0  0  0  0  0  0
  160.8350  199.8300  143.7850 C   0  0  0  0  0  1  0  0  0  0  0  0
  160.3560  199.7190  145.2160 C   0  0  0  0  0  0  0  0  0  0  0  0
  161.5220  211.3680  152.0710 O   0  0  0  0  0  0  0  0  0  0  0  0
  160.4110  212.2560  152.0620 C   0  0  0  0  0  1  0  0  0  0  0  0
  161.1110  207.7380  155.4300 C   0  0  2  0  0  3  0  0  0  0  0  0
  159.7200  206.6200  157.1830 C   0  0  0  0  0  1  0  0  0  0  0  0
  159.7110  207.2800  155.8180 C   0  0  0  0  0  2  0  0  0  0  0  0
  161.6060  208.8210  156.3820 C   0  0  0  0  0  2  0  0  0  0  0  0
  160.4880  209.3980  157.1090 N   0  0  0  0  0  2  0  0  0  0  0  0
  158.5780  210.9040  155.6870 N   0  0  0  0  0  2  0  0  0  0  0  0
  159.5670  211.5210  156.2380 C   0  0  0  0  0  0  0  0  0  0  0  0
  160.5700  210.7880  156.9430 N   0  0  0  0  0  2  0  0  0  0  0  0
  159.6960  212.9740  156.0940 C   0  0  0  0  0  0  0  0  0  0  0  0
  159.1660  213.5680  155.1160 O   0  0  0  0  0  0  0  0  0  0  0  0
  160.4030  213.7030  157.0370 O   0  0  0  0  0  1  0  0  0  0  0  0
  1  6  2  0  0  0  0
  1 10  1  0  0  0  0
  2  1  1  0  0  0  0
  3 34  1  0  0  0  0
  5  9  1  0  0  0  0
  6  8  1  0  0  0  0
  7 10  2  0  0  0  0
  7 22  1  0  0  0  0
  8 21  2  0  0  0  0
  8 11  1  0  0  0  0
  9 19  2  0  0  0  0
 10 13  1  0  0  0  0
 12  3  2  0  0  0  0
 13 11  2  0  0  0  0
 13 15  1  0  0  0  0
 14 17  1  0  0  0  0
 15 12  1  0  0  0  0
 16 14  1  0  0  0  0
 16 18  1  0  0  0  0
 17  5  2  0  0  0  0
 17  6  1  0  0  0  0
 18 26  1  6  0  0  0
 18  5  1  0  0  0  0
 19 21  1  0  0  0  0
 19  4  1  0  0  0  0
 20 22  2  0  0  0  0
 22 24  1  0  0  0  0
 23  3  1  0  0  0  0
 24 15  2  0  0  0  0
 24 25  1  0  0  0  0
 25 23  2  0  0  0  0
 26 27  1  6  0  0  0
 30 31  1  0  0  0  0
 31 28  1  0  0  0  0
 31 26  1  0  0  0  0
 31 29  1  0  0  0  0
 32 25  1  0  0  0  0
 33 32  1  0  0  0  0
 34 36  1  1  0  0  0
 34 37  1  0  0  0  0
 36 35  1  0  0  0  0
 37 38  1  0  0  0  0
 39 40  2  0  0  0  0
 40 41  1  0  0  0  0
 41 38  1  0  0  0  0
 42 40  1  0  0  0  0
 42 44  1  0  0  0  0
 43 42  2  0  0  0  0
M  END
>  <MODEL>
9

>  <REMARK>
 VINA RESULT:      -5.8      1.789     11.327
  Name = 
  9 active torsions:
  status: ('A' for Active; 'I' for Inactive)
    1  A    between atoms: C_2  and  N_7
    2  A    between atoms: C_2  and  C_12
    3  A    between atoms: C_4  and  C_9
    4  A    between atoms: N_7  and  N_23
    5  A    between atoms: C_10  and  C_12
    6  A    between atoms: C_12  and  C_27
    7  A    between atoms: C_19  and  C_34
    8  A    between atoms: C_19  and  C_42
    9  A    between atoms: O_29  and  C_44
                            x       y       z     vdW  Elec       q    Type
                         _______ _______ _______ _____ _____    ______ ____

>  <TORSDO>
F 9

$$$$
