=
 OpenBabel11072412473D

 55 60  0  0  1  0  0  0  0  0999 V2000
  161.7760  211.6260  148.0580 C   0  0  2  0  0  3  0  0  0  0  0  0
  161.6670  212.7810  149.0180 C   0  0  0  0  0  2  0  0  0  0  0  0
  160.6030  211.5710  147.2870 O   0  0  0  0  0  0  0  0  0  0  0  0
  160.1020  212.8830  147.2240 C   0  0  1  0  0  3  0  0  0  0  0  0
  160.7240  213.7180  148.3410 C   0  0  1  0  0  3  0  0  0  0  0  0
  158.3530  213.4430  151.0750 C   0  0  2  0  0  3  0  0  0  0  0  0
  157.7730  213.1680  148.7640 O   0  0  0  0  0  0  0  0  0  0  0  0
  157.2360  213.1160  150.0640 C   0  0  0  0  0  2  0  0  0  0  0  0
  159.6580  214.2010  149.3240 C   0  0  1  0  0  3  0  0  0  0  0  0
  158.3980  214.3360  148.6740 O   0  0  0  0  0  0  0  0  0  0  0  0
  159.6130  213.3360  150.4500 O   0  0  0  0  0  0  0  0  0  0  0  0
  159.6450  212.6490  153.0570 C   0  0  2  0  0  3  0  0  0  0  0  0
  158.3390  212.5950  152.3590 C   0  0  2  0  0  3  0  0  0  0  0  0
  159.2570  211.5260  152.3030 O   0  0  0  0  0  0  0  0  0  0  0  0
  159.4560  212.3550  154.5310 C   0  0  0  0  0  2  0  0  0  0  0  0
  160.5550  211.6170  155.0120 O   0  0  0  0  0  0  0  0  0  0  0  0
  160.1090  210.6330  155.9360 C   0  0  2  0  0  0  0  0  0  0  0  0
  158.9050  211.0760  156.5080 O   0  0  0  0  0  1  0  0  0  0  0  0
  162.1320  211.6150  157.1210 C   0  0  0  0  0  1  0  0  0  0  0  0
  161.1390  210.4620  157.0710 C   0  0  2  0  0  3  0  0  0  0  0  0
  161.8320  209.2580  156.9270 O   0  0  0  0  0  1  0  0  0  0  0  0
  159.9100  209.3780  155.3040 O   0  0  0  0  0  0  0  0  0  0  0  0
  161.0440  209.0610  154.5340 C   0  0  0  0  0  2  0  0  0  0  0  0
  161.2830  205.5770  153.3700 C   0  0  0  0  0  3  0  0  0  0  0  0
  160.8590  206.6180  154.1000 C   0  0  0  0  0  3  0  0  0  0  0  0
  161.2420  207.0270  151.2950 C   0  0  0  0  0  2  0  0  0  0  0  0
  160.6850  207.9990  153.5120 C   0  0  2  0  0  3  0  0  0  0  0  0
  161.5090  208.1900  152.2420 C   0  0  0  0  0  2  0  0  0  0  0  0
  161.7280  205.7280  151.9340 C   0  0  2  0  0  3  0  0  0  0  0  0
  160.9720  203.4790  151.6950 O   0  0  0  0  0  1  0  0  0  0  0  0
  161.3110  204.5480  151.1190 C   0  0  0  0  0  0  0  0  0  0  0  0
  161.3050  204.6170  149.7270 O   0  0  0  0  0  0  0  0  0  0  0  0
  161.9680  210.3370  148.7930 C   0  0  0  0  0  0  0  0  0  0  0  0
  162.4290  210.3440  149.9700 O   0  0  0  0  0  1  0  0  0  0  0  0
  161.6250  209.1270  148.1910 O   0  0  0  0  0  0  0  0  0  0  0  0
  158.9320  214.2220  145.5210 C   0  0  0  0  0  1  0  0  0  0  0  0
  160.2690  213.5220  145.8210 C   0  0  1  0  0  0  0  0  0  0  0  0
  161.3520  214.4500  145.8420 O   0  0  0  0  0  0  0  0  0  0  0  0
  162.5780  213.7760  145.6430 C   0  0  0  0  0  1  0  0  0  0  0  0
  160.4480  212.2010  144.5290 S   0  0  0  0  0  0  0  0  0  0  0  0
  163.2450  213.6100  140.3930 C   0  0  0  0  0  2  0  0  0  0  0  0
  160.7880  212.9270  140.4060 C   0  0  0  0  0  2  0  0  0  0  0  0
  160.8550  213.0420  142.9300 C   0  0  1  0  0  0  0  0  0  0  0  0
  161.1360  212.2260  141.7390 C   0  0  2  0  0  3  0  0  0  0  0  0
  161.7150  214.3100  138.7130 O   0  0  0  0  0  1  0  0  0  0  0  0
  160.2650  214.4530  142.7690 C   0  0  0  0  0  1  0  0  0  0  0  0
  162.2640  212.8540  142.4990 N   0  0  1  0  0  0  0  0  0  0  0  0
  162.0250  213.2220  139.5380 C   0  0  1  0  0  0  0  0  0  0  0  0
  162.8350  214.0160  141.8010 C   0  0  0  0  0  2  0  0  0  0  0  0
  162.3590  212.0030  138.6570 C   0  0  0  0  0  0  0  0  0  0  0  0
  162.6990  212.4320  137.3780 F   0  0  0  0  0  0  0  0  0  0  0  0
  163.4410  211.3400  139.2170 F   0  0  0  0  0  0  0  0  0  0  0  0
  161.2440  211.1450  138.6010 O   0  0  0  0  0  0  0  0  0  0  0  0
  159.9690  209.8980  137.0110 C   0  0  0  0  0  1  0  0  0  0  0  0
  161.3360  210.3890  137.4260 C   0  0  0  0  0  2  0  0  0  0  0  0
  1 33  1  1  0  0  0
  1  2  1  0  0  0  0
  3  1  1  0  0  0  0
  4 37  1  6  0  0  0
  4  3  1  0  0  0  0
  4  5  1  0  0  0  0
  5  2  1  1  0  0  0
  5  9  1  0  0  0  0
  6  8  1  6  0  0  0
  6 13  1  0  0  0  0
  7  8  1  0  0  0  0
  9 10  1  6  0  0  0
  9 11  1  0  0  0  0
 10  7  1  0  0  0  0
 11  6  1  0  0  0  0
 12 15  1  1  0  0  0
 13 14  1  6  0  0  0
 13 12  1  0  0  0  0
 14 12  1  0  0  0  0
 15 16  1  0  0  0  0
 16 17  1  0  0  0  0
 17 18  1  1  0  0  0
 17 20  1  0  0  0  0
 20 19  1  6  0  0  0
 21 20  1  0  0  0  0
 22 17  1  0  0  0  0
 23 22  1  0  0  0  0
 24 25  2  0  0  0  0
 26 29  1  0  0  0  0
 26 28  1  0  0  0  0
 27 25  1  0  0  0  0
 27 23  1  1  0  0  0
 28 27  1  0  0  0  0
 29 31  1  6  0  0  0
 29 24  1  0  0  0  0
 31 30  1  0  0  0  0
 32 31  2  0  0  0  0
 33 34  1  0  0  0  0
 35 33  2  0  0  0  0
 37 36  1  6  0  0  0
 37 38  1  0  0  0  0
 39 38  1  0  0  0  0
 40 37  1  0  0  0  0
 41 49  1  0  0  0  0
 43 46  1  6  0  0  0
 43 40  1  0  0  0  0
 44 42  1  6  0  0  0
 44 47  1  0  0  0  0
 44 43  1  0  0  0  0
 47 49  1  6  0  0  0
 47 43  1  0  0  0  0
 48 45  1  6  0  0  0
 48 41  1  0  0  0  0
 48 42  1  0  0  0  0
 50 52  1  0  0  0  0
 50 48  1  0  0  0  0
 51 50  1  0  0  0  0
 53 50  1  0  0  0  0
 54 55  1  0  0  0  0
 55 53  1  0  0  0  0
M  END
>  <MODEL>
1

>  <REMARK>
 VINA RESULT:      -6.7      0.000      0.000
  Name = 
  18 active torsions:
  status: ('A' for Active; 'I' for Inactive)
    1  A    between atoms: C_1  and  C_29
    2  A    between atoms: O_2  and  C_11
    3  A    between atoms: O_2  and  C_51
    4  A    between atoms: C_7  and  S_12
    5  A    between atoms: C_11  and  O_13
    6  A    between atoms: C_11  and  C_35
    7  A    between atoms: S_12  and  C_28
    8  A    between atoms: O_13  and  C_34
    9  A    between atoms: C_15  and  O_38
   10  A    between atoms: C_17  and  C_26
   11  A    between atoms: C_20  and  C_34
   12  A    between atoms: C_21  and  C_27
   13  A    between atoms: O_22  and  C_28
   14  A    between atoms: C_27  and  O_38
   15  A    between atoms: C_28  and  C_46
   16  A    between atoms: C_32  and  C_51
   17  A    between atoms: C_44  and  C_52
   18  A    between atoms: C_45  and  C_49
                            x       y       z     vdW  Elec       q    Type
                         _______ _______ _______ _____ _____    ______ ____

>  <TORSDO>
F 18

$$$$
=
 OpenBabel11072412473D

 55 60  0  0  1  0  0  0  0  0999 V2000
  161.5640  202.4980  146.9230 C   0  0  2  0  0  3  0  0  0  0  0  0
  161.7930  202.5460  148.4100 C   0  0  0  0  0  2  0  0  0  0  0  0
  160.7540  203.5860  146.5570 O   0  0  0  0  0  0  0  0  0  0  0  0
  160.9920  204.5980  147.5020 C   0  0  1  0  0  3  0  0  0  0  0  0
  161.6340  203.9910  148.7470 C   0  0  1  0  0  3  0  0  0  0  0  0
  160.8250  204.7090  152.2110 C   0  0  2  0  0  3  0  0  0  0  0  0
  161.2480  202.5060  151.3610 O   0  0  0  0  0  0  0  0  0  0  0  0
  160.9570  203.2100  152.5460 C   0  0  0  0  0  2  0  0  0  0  0  0
  160.7310  204.1570  149.9680 C   0  0  1  0  0  3  0  0  0  0  0  0
  160.3330  202.8880  150.4770 O   0  0  0  0  0  0  0  0  0  0  0  0
  161.3770  204.9680  150.9400 O   0  0  0  0  0  0  0  0  0  0  0  0
  160.5860  206.8570  153.4600 C   0  0  2  0  0  3  0  0  0  0  0  0
  161.4410  205.6650  153.2470 C   0  0  2  0  0  3  0  0  0  0  0  0
  161.7630  206.9200  152.6910 O   0  0  0  0  0  0  0  0  0  0  0  0
  160.8480  207.4440  154.8320 C   0  0  0  0  0  2  0  0  0  0  0  0
  161.8710  208.4080  154.7480 O   0  0  0  0  0  0  0  0  0  0  0  0
  161.3790  209.6730  155.1670 C   0  0  2  0  0  0  0  0  0  0  0  0
  162.0170  210.6700  154.4100 O   0  0  0  0  0  1  0  0  0  0  0  0
  160.8900  211.0370  157.2550 C   0  0  0  0  0  1  0  0  0  0  0  0
  161.7210  209.9130  156.6520 C   0  0  2  0  0  3  0  0  0  0  0  0
  163.0790  210.2070  156.8000 O   0  0  0  0  0  1  0  0  0  0  0  0
  159.9730  209.7670  154.9990 O   0  0  0  0  0  0  0  0  0  0  0  0
  159.6910  210.6160  153.9120 C   0  0  0  0  0  2  0  0  0  0  0  0
  156.3020  211.8180  154.6910 C   0  0  0  0  0  3  0  0  0  0  0  0
  157.4670  211.1820  154.8710 C   0  0  0  0  0  3  0  0  0  0  0  0
  157.5380  213.7730  153.6610 C   0  0  0  0  0  2  0  0  0  0  0  0
  158.7770  211.7380  154.3650 C   0  0  2  0  0  3  0  0  0  0  0  0
  158.5750  212.7420  153.2330 C   0  0  0  0  0  2  0  0  0  0  0  0
  156.1920  213.0820  153.8710 C   0  0  2  0  0  3  0  0  0  0  0  0
  154.2360  214.4450  153.7770 O   0  0  0  0  0  0  0  0  0  0  0  0
  155.2020  214.0250  154.4720 C   0  0  0  0  0  0  0  0  0  0  0  0
  155.3430  214.4530  155.7910 O   0  0  0  0  0  1  0  0  0  0  0  0
  160.9080  201.2130  146.5260 C   0  0  0  0  0  0  0  0  0  0  0  0
  161.0100  200.1950  147.2690 O   0  0  0  0  0  1  0  0  0  0  0  0
  160.1700  201.1370  145.3450 O   0  0  0  0  0  0  0  0  0  0  0  0
  162.7610  205.1700  145.8880 C   0  0  0  0  0  1  0  0  0  0  0  0
  161.8000  205.7860  146.9180 C   0  0  1  0  0  0  0  0  0  0  0  0
  160.9090  206.7200  146.3090 O   0  0  0  0  0  0  0  0  0  0  0  0
  160.5160  206.2600  145.0320 C   0  0  0  0  0  1  0  0  0  0  0  0
  162.8790  206.5370  148.2290 S   0  0  0  0  0  0  0  0  0  0  0  0
  162.3840  211.2380  150.3680 C   0  0  0  0  0  2  0  0  0  0  0  0
  161.2670  210.4150  148.2280 C   0  0  0  0  0  2  0  0  0  0  0  0
  162.0460  208.0840  148.8140 C   0  0  1  0  0  0  0  0  0  0  0  0
  162.4070  209.3720  148.2010 C   0  0  2  0  0  3  0  0  0  0  0  0
  160.3670  212.1810  149.5340 O   0  0  0  0  0  1  0  0  0  0  0  0
  160.6390  207.8820  149.4000 C   0  0  0  0  0  1  0  0  0  0  0  0
  162.9500  209.0060  149.5490 N   0  0  1  0  0  0  0  0  0  0  0  0
  161.5840  211.6340  149.1130 C   0  0  1  0  0  0  0  0  0  0  0  0
  162.2930  209.7430  150.6400 C   0  0  0  0  0  2  0  0  0  0  0  0
  162.3580  212.6920  148.3040 C   0  0  0  0  0  0  0  0  0  0  0  0
  162.0790  213.9590  148.8070 F   0  0  0  0  0  0  0  0  0  0  0  0
  163.7150  212.4400  148.4330 F   0  0  0  0  0  0  0  0  0  0  0  0
  161.9800  212.6160  146.9500 O   0  0  0  0  0  0  0  0  0  0  0  0
  160.0020  213.8430  146.4100 C   0  0  0  0  0  1  0  0  0  0  0  0
  161.5040  213.8730  146.5580 C   0  0  0  0  0  2  0  0  0  0  0  0
  1 33  1  1  0  0  0
  1  2  1  0  0  0  0
  3  1  1  0  0  0  0
  3  4  1  0  0  0  0
  4 37  1  6  0  0  0
  4  5  1  0  0  0  0
  5  2  1  6  0  0  0
  5  9  1  0  0  0  0
  6  8  1  1  0  0  0
  6 13  1  0  0  0  0
  7  8  1  0  0  0  0
  9 10  1  1  0  0  0
  9 11  1  0  0  0  0
 10  7  1  0  0  0  0
 11  6  1  0  0  0  0
 12 15  1  1  0  0  0
 13 14  1  6  0  0  0
 13 12  1  0  0  0  0
 14 12  1  0  0  0  0
 16 15  1  0  0  0  0
 16 17  1  0  0  0  0
 17 18  1  6  0  0  0
 17 20  1  0  0  0  0
 20 21  1  0  0  0  0
 20 19  1  6  0  0  0
 22 17  1  0  0  0  0
 23 22  1  0  0  0  0
 24 25  2  0  0  0  0
 26 29  1  0  0  0  0
 27 23  1  6  0  0  0
 27 25  1  0  0  0  0
 28 26  1  0  0  0  0
 28 27  1  0  0  0  0
 29 31  1  1  0  0  0
 29 24  1  0  0  0  0
 30 31  2  0  0  0  0
 31 32  1  0  0  0  0
 33 34  1  0  0  0  0
 35 33  2  0  0  0  0
 37 36  1  6  0  0  0
 37 40  1  0  0  0  0
 38 37  1  0  0  0  0
 39 38  1  0  0  0  0
 40 43  1  0  0  0  0
 41 49  1  0  0  0  0
 42 48  1  0  0  0  0
 43 46  1  1  0  0  0
 43 47  1  0  0  0  0
 44 42  1  1  0  0  0
 44 43  1  0  0  0  0
 44 47  1  0  0  0  0
 47 49  1  1  0  0  0
 48 45  1  1  0  0  0
 48 41  1  0  0  0  0
 50 52  1  0  0  0  0
 50 51  1  0  0  0  0
 50 48  1  0  0  0  0
 53 50  1  0  0  0  0
 54 55  1  0  0  0  0
 55 53  1  0  0  0  0
M  END
>  <MODEL>
2

>  <REMARK>
 VINA RESULT:      -5.7      4.319      8.505
  Name = 
  18 active torsions:
  status: ('A' for Active; 'I' for Inactive)
    1  A    between atoms: C_1  and  C_29
    2  A    between atoms: O_2  and  C_11
    3  A    between atoms: O_2  and  C_51
    4  A    between atoms: C_7  and  S_12
    5  A    between atoms: C_11  and  O_13
    6  A    between atoms: C_11  and  C_35
    7  A    between atoms: S_12  and  C_28
    8  A    between atoms: O_13  and  C_34
    9  A    between atoms: C_15  and  O_38
   10  A    between atoms: C_17  and  C_26
   11  A    between atoms: C_20  and  C_34
   12  A    between atoms: C_21  and  C_27
   13  A    between atoms: O_22  and  C_28
   14  A    between atoms: C_27  and  O_38
   15  A    between atoms: C_28  and  C_46
   16  A    between atoms: C_32  and  C_51
   17  A    between atoms: C_44  and  C_52
   18  A    between atoms: C_45  and  C_49
                            x       y       z     vdW  Elec       q    Type
                         _______ _______ _______ _____ _____    ______ ____

>  <TORSDO>
F 18

$$$$
=
 OpenBabel11072412473D

 55 60  0  0  1  0  0  0  0  0999 V2000
  161.4240  204.8870  151.8940 C   0  0  2  0  0  3  0  0  0  0  0  0
  161.5490  205.2080  153.3600 C   0  0  0  0  0  2  0  0  0  0  0  0
  160.7040  205.9190  151.2680 O   0  0  0  0  0  0  0  0  0  0  0  0
  160.9300  207.0820  152.0240 C   0  0  1  0  0  3  0  0  0  0  0  0
  161.4480  206.6960  153.4080 C   0  0  1  0  0  3  0  0  0  0  0  0
  159.6870  209.0260  155.5620 C   0  0  2  0  0  3  0  0  0  0  0  0
  161.7050  207.8870  156.1830 O   0  0  0  0  0  0  0  0  0  0  0  0
  160.7690  208.8330  156.6440 C   0  0  0  0  0  2  0  0  0  0  0  0
  160.4700  207.1280  154.5000 C   0  0  1  0  0  3  0  0  0  0  0  0
  160.9950  206.8350  155.7910 O   0  0  0  0  0  0  0  0  0  0  0  0
  160.1370  208.4990  154.3330 O   0  0  0  0  0  0  0  0  0  0  0  0
  160.3160  211.3360  154.8570 C   0  0  2  0  0  3  0  0  0  0  0  0
  159.2180  210.4780  155.3620 C   0  0  2  0  0  3  0  0  0  0  0  0
  159.9020  211.3810  156.2010 O   0  0  0  0  0  0  0  0  0  0  0  0
  159.7440  212.5260  154.1140 C   0  0  0  0  0  2  0  0  0  0  0  0
  158.5020  212.1780  153.5470 O   0  0  0  0  0  0  0  0  0  0  0  0
  157.6980  213.3400  153.3970 C   0  0  2  0  0  0  0  0  0  0  0  0
  158.3440  214.4120  154.0360 O   0  0  0  0  0  1  0  0  0  0  0  0
  155.7050  214.4530  154.5140 C   0  0  0  0  0  1  0  0  0  0  0  0
  156.3300  213.1350  154.0810 C   0  0  2  0  0  3  0  0  0  0  0  0
  156.4580  212.2940  155.1880 O   0  0  0  0  0  1  0  0  0  0  0  0
  157.4840  213.6530  152.0290 O   0  0  0  0  0  0  0  0  0  0  0  0
  158.7250  213.7140  151.3680 C   0  0  0  0  0  2  0  0  0  0  0  0
  157.0980  212.8850  148.1740 C   0  0  0  0  0  3  0  0  0  0  0  0
  157.2260  213.3800  149.4120 C   0  0  0  0  0  3  0  0  0  0  0  0
  159.4090  213.7450  147.6000 C   0  0  0  0  0  2  0  0  0  0  0  0
  158.5060  214.0170  149.8990 C   0  0  2  0  0  3  0  0  0  0  0  0
  159.7160  213.5700  149.0820 C   0  0  0  0  0  2  0  0  0  0  0  0
  158.2580  212.8220  147.2070 C   0  0  2  0  0  3  0  0  0  0  0  0
  158.5780  212.8590  144.8440 O   0  0  0  0  0  0  0  0  0  0  0  0
  157.8060  213.1040  145.8120 C   0  0  0  0  0  0  0  0  0  0  0  0
  156.5460  213.6460  145.5720 O   0  0  0  0  0  1  0  0  0  0  0  0
  160.7270  203.5790  151.6910 C   0  0  0  0  0  0  0  0  0  0  0  0
  160.7340  202.7110  152.6100 O   0  0  0  0  0  1  0  0  0  0  0  0
  160.0560  203.3180  150.4980 O   0  0  0  0  0  0  0  0  0  0  0  0
  160.9130  208.9040  150.3690 C   0  0  0  0  0  1  0  0  0  0  0  0
  161.8420  208.1030  151.2950 C   0  0  1  0  0  0  0  0  0  0  0  0
  162.4800  208.9450  152.2540 O   0  0  0  0  0  0  0  0  0  0  0  0
  162.2750  210.3040  151.9250 C   0  0  0  0  0  1  0  0  0  0  0  0
  163.0300  207.2190  150.1750 S   0  0  0  0  0  0  0  0  0  0  0  0
  162.2480  205.3850  145.3850 C   0  0  0  0  0  2  0  0  0  0  0  0
  160.6550  205.1910  147.3670 C   0  0  0  0  0  2  0  0  0  0  0  0
  162.1270  206.8290  148.6060 C   0  0  1  0  0  0  0  0  0  0  0  0
  161.9190  205.4230  148.2250 C   0  0  2  0  0  3  0  0  0  0  0  0
  159.9030  205.0940  145.1170 O   0  0  0  0  0  1  0  0  0  0  0  0
  161.1240  207.9020  148.1500 C   0  0  0  0  0  1  0  0  0  0  0  0
  162.9890  206.2300  147.5550 N   0  0  1  0  0  0  0  0  0  0  0  0
  160.9740  204.7190  145.9370 C   0  0  1  0  0  0  0  0  0  0  0  0
  162.6220  206.6250  146.1850 C   0  0  0  0  0  2  0  0  0  0  0  0
  161.1200  203.1860  145.9030 C   0  0  0  0  0  0  0  0  0  0  0  0
  160.3630  202.6690  144.8560 F   0  0  0  0  0  0  0  0  0  0  0  0
  162.4560  202.8750  145.6930 F   0  0  0  0  0  0  0  0  0  0  0  0
  160.6860  202.6460  147.1280 O   0  0  0  0  0  0  0  0  0  0  0  0
  161.2830  200.8870  148.6310 C   0  0  0  0  0  1  0  0  0  0  0  0
  161.1120  201.3140  147.1920 C   0  0  0  0  0  2  0  0  0  0  0  0
  1 33  1  1  0  0  0
  1  2  1  0  0  0  0
  3  1  1  0  0  0  0
  3  4  1  0  0  0  0
  4 37  1  6  0  0  0
  4  5  1  0  0  0  0
  5  2  1  6  0  0  0
  5  9  1  0  0  0  0
  6  8  1  1  0  0  0
  7  8  1  0  0  0  0
  9 11  1  1  0  0  0
  9 10  1  0  0  0  0
 10  7  1  0  0  0  0
 11  6  1  0  0  0  0
 12 15  1  6  0  0  0
 12 13  1  0  0  0  0
 12 14  1  0  0  0  0
 13  6  1  0  0  0  0
 13 14  1  1  0  0  0
 16 15  1  0  0  0  0
 17 16  1  0  0  0  0
 17 18  1  1  0  0  0
 17 20  1  0  0  0  0
 20 19  1  1  0  0  0
 20 21  1  0  0  0  0
 22 17  1  0  0  0  0
 23 22  1  0  0  0  0
 24 25  2  0  0  0  0
 25 27  1  0  0  0  0
 26 28  1  0  0  0  0
 27 23  1  1  0  0  0
 28 27  1  0  0  0  0
 29 31  1  6  0  0  0
 29 26  1  0  0  0  0
 29 24  1  0  0  0  0
 30 31  2  0  0  0  0
 32 31  1  0  0  0  0
 33 34  1  0  0  0  0
 35 33  2  0  0  0  0
 37 36  1  6  0  0  0
 37 38  1  0  0  0  0
 39 38  1  0  0  0  0
 40 37  1  0  0  0  0
 41 48  1  0  0  0  0
 41 49  1  0  0  0  0
 43 46  1  6  0  0  0
 43 40  1  0  0  0  0
 44 42  1  6  0  0  0
 44 43  1  0  0  0  0
 47 49  1  6  0  0  0
 47 44  1  0  0  0  0
 47 43  1  0  0  0  0
 48 45  1  6  0  0  0
 48 42  1  0  0  0  0
 50 48  1  0  0  0  0
 50 53  1  0  0  0  0
 51 50  1  0  0  0  0
 52 50  1  0  0  0  0
 53 55  1  0  0  0  0
 55 54  1  0  0  0  0
M  END
>  <MODEL>
3

>  <REMARK>
 VINA RESULT:      -4.7      4.631      8.617
  Name = 
  18 active torsions:
  status: ('A' for Active; 'I' for Inactive)
    1  A    between atoms: C_1  and  C_29
    2  A    between atoms: O_2  and  C_11
    3  A    between atoms: O_2  and  C_51
    4  A    between atoms: C_7  and  S_12
    5  A    between atoms: C_11  and  O_13
    6  A    between atoms: C_11  and  C_35
    7  A    between atoms: S_12  and  C_28
    8  A    between atoms: O_13  and  C_34
    9  A    between atoms: C_15  and  O_38
   10  A    between atoms: C_17  and  C_26
   11  A    between atoms: C_20  and  C_34
   12  A    between atoms: C_21  and  C_27
   13  A    between atoms: O_22  and  C_28
   14  A    between atoms: C_27  and  O_38
   15  A    between atoms: C_28  and  C_46
   16  A    between atoms: C_32  and  C_51
   17  A    between atoms: C_44  and  C_52
   18  A    between atoms: C_45  and  C_49
                            x       y       z     vdW  Elec       q    Type
                         _______ _______ _______ _____ _____    ______ ____

>  <TORSDO>
F 18

$$$$
=
 OpenBabel11072412473D

 55 60  0  0  1  0  0  0  0  0999 V2000
  160.9990  205.0000  147.5630 C   0  0  2  0  0  3  0  0  0  0  0  0
  160.6180  206.4040  147.9500 C   0  0  0  0  0  2  0  0  0  0  0  0
  161.9810  204.5390  148.4560 O   0  0  0  0  0  0  0  0  0  0  0  0
  161.7770  205.2240  149.6650 C   0  0  1  0  0  3  0  0  0  0  0  0
  160.9280  206.4670  149.4080 C   0  0  1  0  0  3  0  0  0  0  0  0
  162.1370  209.8490  148.8840 C   0  0  2  0  0  3  0  0  0  0  0  0
  163.3390  207.8770  148.2310 O   0  0  0  0  0  0  0  0  0  0  0  0
  163.3970  209.2840  148.1970 C   0  0  0  0  0  2  0  0  0  0  0  0
  161.7070  207.7410  149.7320 C   0  0  1  0  0  3  0  0  0  0  0  0
  163.0990  207.5540  149.4970 O   0  0  0  0  0  0  0  0  0  0  0  0
  161.1630  208.8360  149.0070 O   0  0  0  0  0  0  0  0  0  0  0  0
  162.3250  212.2990  148.4500 C   0  0  2  0  0  3  0  0  0  0  0  0
  161.5200  211.0800  148.2000 C   0  0  2  0  0  3  0  0  0  0  0  0
  161.1160  212.0610  149.1290 O   0  0  0  0  0  0  0  0  0  0  0  0
  162.0920  213.3100  147.3460 C   0  0  0  0  0  2  0  0  0  0  0  0
  161.4820  212.6770  146.2450 O   0  0  0  0  0  0  0  0  0  0  0  0
  160.4880  213.5270  145.6900 C   0  0  2  0  0  0  0  0  0  0  0  0
  160.0930  214.4490  146.6740 O   0  0  0  0  0  1  0  0  0  0  0  0
  158.5100  213.3230  144.1060 C   0  0  0  0  0  1  0  0  0  0  0  0
  159.2480  212.7040  145.2850 C   0  0  2  0  0  3  0  0  0  0  0  0
  158.3720  212.5750  146.3660 O   0  0  0  0  0  1  0  0  0  0  0  0
  160.9710  214.2190  144.5490 O   0  0  0  0  0  0  0  0  0  0  0  0
  162.0130  213.4770  143.9630 C   0  0  0  0  0  2  0  0  0  0  0  0
  162.3500  211.5360  140.8540 C   0  0  0  0  0  3  0  0  0  0  0  0
  161.8520  211.9050  142.0420 C   0  0  0  0  0  3  0  0  0  0  0  0
  162.5930  213.9720  140.2100 C   0  0  0  0  0  2  0  0  0  0  0  0
  161.7720  213.3510  142.4710 C   0  0  2  0  0  3  0  0  0  0  0  0
  162.7540  214.2310  141.7020 C   0  0  0  0  0  2  0  0  0  0  0  0
  162.9760  212.5260  139.9000 C   0  0  2  0  0  3  0  0  0  0  0  0
  161.9840  211.1430  138.2300 O   0  0  0  0  0  1  0  0  0  0  0  0
  162.6500  212.1840  138.4840 C   0  0  0  0  0  0  0  0  0  0  0  0
  163.0850  212.9990  137.4410 O   0  0  0  0  0  0  0  0  0  0  0  0
  161.5200  204.9550  146.1610 C   0  0  0  0  0  0  0  0  0  0  0  0
  162.6650  205.4210  145.8970 O   0  0  0  0  0  1  0  0  0  0  0  0
  160.7540  204.3880  145.1440 O   0  0  0  0  0  0  0  0  0  0  0  0
  160.3920  203.2270  150.0550 C   0  0  0  0  0  1  0  0  0  0  0  0
  161.2010  204.3140  150.7810 C   0  0  1  0  0  0  0  0  0  0  0  0
  162.2690  203.7530  151.5420 O   0  0  0  0  0  0  0  0  0  0  0  0
  162.1040  202.3540  151.6590 C   0  0  0  0  0  1  0  0  0  0  0  0
  159.9730  205.2550  151.8080 S   0  0  0  0  0  0  0  0  0  0  0  0
  161.3460  209.6780  154.1480 C   0  0  0  0  0  2  0  0  0  0  0  0
  161.1920  207.3720  155.2250 C   0  0  0  0  0  2  0  0  0  0  0  0
  160.9300  206.3970  152.9090 C   0  0  1  0  0  0  0  0  0  0  0  0
  160.2510  207.0380  154.0450 C   0  0  2  0  0  3  0  0  0  0  0  0
  162.5790  209.0910  156.0950 O   0  0  0  0  0  1  0  0  0  0  0  0
  162.4400  206.1180  152.9780 C   0  0  0  0  0  1  0  0  0  0  0  0
  160.5170  207.8190  152.7950 N   0  0  1  0  0  0  0  0  0  0  0  0
  161.3450  208.8840  155.4670 C   0  0  1  0  0  0  0  0  0  0  0  0
  161.6240  208.7770  152.9530 C   0  0  0  0  0  2  0  0  0  0  0  0
  160.2210  209.3910  156.3910 C   0  0  0  0  0  0  0  0  0  0  0  0
  159.8320  208.3720  157.2540 F   0  0  0  0  0  0  0  0  0  0  0  0
  160.7080  210.4560  157.1340 F   0  0  0  0  0  0  0  0  0  0  0  0
  159.1260  209.8090  155.6110 O   0  0  0  0  0  0  0  0  0  0  0  0
  157.3610  211.4160  155.4880 C   0  0  0  0  0  1  0  0  0  0  0  0
  158.6950  211.0510  156.0950 C   0  0  0  0  0  2  0  0  0  0  0  0
  1 33  1  6  0  0  0
  1  2  1  0  0  0  0
  1  3  1  0  0  0  0
  3  4  1  0  0  0  0
  4 37  1  1  0  0  0
  5  2  1  6  0  0  0
  5  4  1  0  0  0  0
  5  9  1  0  0  0  0
  6  8  1  6  0  0  0
  6 11  1  0  0  0  0
  7 10  1  0  0  0  0
  8  7  1  0  0  0  0
  9 11  1  6  0  0  0
 10  9  1  0  0  0  0
 12 15  1  6  0  0  0
 12 14  1  0  0  0  0
 13 12  1  0  0  0  0
 13  6  1  0  0  0  0
 13 14  1  1  0  0  0
 16 15  1  0  0  0  0
 17 16  1  0  0  0  0
 17 18  1  1  0  0  0
 20 19  1  6  0  0  0
 20 17  1  0  0  0  0
 20 21  1  0  0  0  0
 22 17  1  0  0  0  0
 23 22  1  0  0  0  0
 24 25  2  0  0  0  0
 25 27  1  0  0  0  0
 26 28  1  0  0  0  0
 27 23  1  1  0  0  0
 28 27  1  0  0  0  0
 29 31  1  6  0  0  0
 29 26  1  0  0  0  0
 29 24  1  0  0  0  0
 30 31  1  0  0  0  0
 32 31  2  0  0  0  0
 34 33  1  0  0  0  0
 35 33  2  0  0  0  0
 37 36  1  6  0  0  0
 37 38  1  0  0  0  0
 37 40  1  0  0  0  0
 38 39  1  0  0  0  0
 40 43  1  0  0  0  0
 41 48  1  0  0  0  0
 42 48  1  0  0  0  0
 43 46  1  1  0  0  0
 43 44  1  0  0  0  0
 44 42  1  1  0  0  0
 47 43  1  0  0  0  0
 47 49  1  1  0  0  0
 47 44  1  0  0  0  0
 48 45  1  1  0  0  0
 48 50  1  0  0  0  0
 49 41  1  0  0  0  0
 50 52  1  0  0  0  0
 50 51  1  0  0  0  0
 53 55  1  0  0  0  0
 53 50  1  0  0  0  0
 54 55  1  0  0  0  0
M  END
>  <MODEL>
4

>  <REMARK>
 VINA RESULT:      -4.0      4.643     12.172
  Name = 
  18 active torsions:
  status: ('A' for Active; 'I' for Inactive)
    1  A    between atoms: C_1  and  C_29
    2  A    between atoms: O_2  and  C_11
    3  A    between atoms: O_2  and  C_51
    4  A    between atoms: C_7  and  S_12
    5  A    between atoms: C_11  and  O_13
    6  A    between atoms: C_11  and  C_35
    7  A    between atoms: S_12  and  C_28
    8  A    between atoms: O_13  and  C_34
    9  A    between atoms: C_15  and  O_38
   10  A    between atoms: C_17  and  C_26
   11  A    between atoms: C_20  and  C_34
   12  A    between atoms: C_21  and  C_27
   13  A    between atoms: O_22  and  C_28
   14  A    between atoms: C_27  and  O_38
   15  A    between atoms: C_28  and  C_46
   16  A    between atoms: C_32  and  C_51
   17  A    between atoms: C_44  and  C_52
   18  A    between atoms: C_45  and  C_49
                            x       y       z     vdW  Elec       q    Type
                         _______ _______ _______ _____ _____    ______ ____

>  <TORSDO>
F 18

$$$$
=
 OpenBabel11072412473D

 55 60  0  0  1  0  0  0  0  0999 V2000
  161.6230  206.6230  148.4460 C   0  0  2  0  0  3  0  0  0  0  0  0
  161.0900  208.0280  148.5420 C   0  0  0  0  0  2  0  0  0  0  0  0
  162.6960  206.4880  149.3440 O   0  0  0  0  0  0  0  0  0  0  0  0
  162.4660  207.4030  150.3840 C   0  0  1  0  0  3  0  0  0  0  0  0
  161.4580  208.4540  149.9240 C   0  0  1  0  0  3  0  0  0  0  0  0
  161.5220  212.0780  150.1090 C   0  0  2  0  0  3  0  0  0  0  0  0
  161.3440  210.8420  148.0600 O   0  0  0  0  0  0  0  0  0  0  0  0
  161.3660  212.1520  148.5760 C   0  0  0  0  0  2  0  0  0  0  0  0
  162.0890  209.8460  149.9010 C   0  0  1  0  0  3  0  0  0  0  0  0
  162.4090  210.2320  148.5680 O   0  0  0  0  0  0  0  0  0  0  0  0
  161.2340  210.7730  150.5580 O   0  0  0  0  0  0  0  0  0  0  0  0
  159.4140  212.4920  151.3770 C   0  0  2  0  0  3  0  0  0  0  0  0
  160.6810  213.0950  150.8990 C   0  0  2  0  0  3  0  0  0  0  0  0
  159.4450  213.3650  150.2740 O   0  0  0  0  0  0  0  0  0  0  0  0
  158.9130  213.2390  152.5970 C   0  0  0  0  0  2  0  0  0  0  0  0
  157.5350  213.4930  152.4650 O   0  0  0  0  0  0  0  0  0  0  0  0
  156.9100  213.4470  153.7400 C   0  0  2  0  0  0  0  0  0  0  0  0
  156.3810  212.1590  153.9280 O   0  0  0  0  0  1  0  0  0  0  0  0
  154.8780  214.2520  155.0360 C   0  0  0  0  0  1  0  0  0  0  0  0
  155.7420  214.4530  153.8000 C   0  0  2  0  0  3  0  0  0  0  0  0
  154.9490  214.3490  152.6550 O   0  0  0  0  0  1  0  0  0  0  0  0
  157.8280  213.7470  154.7810 O   0  0  0  0  0  0  0  0  0  0  0  0
  157.3870  213.1470  155.9750 C   0  0  0  0  0  2  0  0  0  0  0  0
  160.8730  211.9740  155.8450 C   0  0  0  0  0  3  0  0  0  0  0  0
  159.8490  212.8080  156.0740 C   0  0  0  0  0  3  0  0  0  0  0  0
  159.5030  210.0540  156.7650 C   0  0  0  0  0  2  0  0  0  0  0  0
  158.5100  212.3230  156.5760 C   0  0  2  0  0  3  0  0  0  0  0  0
  158.2910  210.8410  156.2850 C   0  0  0  0  0  2  0  0  0  0  0  0
  160.7330  210.4750  155.9620 C   0  0  2  0  0  3  0  0  0  0  0  0
  162.8980  210.6090  156.9530 O   0  0  0  0  0  1  0  0  0  0  0  0
  161.9710  209.8640  156.5320 C   0  0  0  0  0  0  0  0  0  0  0  0
  162.1140  208.4800  156.5920 O   0  0  0  0  0  0  0  0  0  0  0  0
  162.0780  206.3190  147.0530 C   0  0  0  0  0  0  0  0  0  0  0  0
  163.1870  205.7430  146.8630 O   0  0  0  0  0  1  0  0  0  0  0  0
  161.2760  206.6550  145.9630 O   0  0  0  0  0  0  0  0  0  0  0  0
  163.1250  205.6310  151.9610 C   0  0  0  0  0  1  0  0  0  0  0  0
  162.0610  206.7130  151.7130 C   0  0  1  0  0  0  0  0  0  0  0  0
  162.0380  207.6750  152.7660 O   0  0  0  0  0  0  0  0  0  0  0  0
  160.9970  207.3800  153.6750 C   0  0  0  0  0  1  0  0  0  0  0  0
  160.4570  205.8030  151.5020 S   0  0  0  0  0  0  0  0  0  0  0  0
  159.7330  201.3060  149.0170 C   0  0  0  0  0  2  0  0  0  0  0  0
  161.7940  202.8020  148.8850 C   0  0  0  0  0  2  0  0  0  0  0  0
  160.8550  204.1270  150.8210 C   0  0  1  0  0  0  0  0  0  0  0  0
  160.8400  203.9190  149.3650 C   0  0  2  0  0  3  0  0  0  0  0  0
  161.8810  200.4740  148.4270 O   0  0  0  0  0  1  0  0  0  0  0  0
  161.7710  203.2670  151.7070 C   0  0  0  0  0  1  0  0  0  0  0  0
  159.6910  203.4430  150.2010 N   0  0  1  0  0  0  0  0  0  0  0  0
  161.0540  201.5940  148.2820 C   0  0  1  0  0  0  0  0  0  0  0  0
  159.6920  201.9830  150.3790 C   0  0  0  0  0  2  0  0  0  0  0  0
  160.7870  201.8300  146.7820 C   0  0  0  0  0  0  0  0  0  0  0  0
  161.4670  200.8750  146.0330 F   0  0  0  0  0  0  0  0  0  0  0  0
  159.4250  201.7020  146.5530 F   0  0  0  0  0  0  0  0  0  0  0  0
  161.2180  203.1210  146.4260 O   0  0  0  0  0  0  0  0  0  0  0  0
  160.0170  203.8970  144.5110 C   0  0  0  0  0  1  0  0  0  0  0  0
  161.2530  203.1990  145.0280 C   0  0  0  0  0  2  0  0  0  0  0  0
  1 33  1  6  0  0  0
  1  2  1  0  0  0  0
  1  3  1  0  0  0  0
  3  4  1  0  0  0  0
  4 37  1  1  0  0  0
  5  2  1  6  0  0  0
  5  4  1  0  0  0  0
  6  8  1  6  0  0  0
  6 11  1  0  0  0  0
  6 13  1  0  0  0  0
  7 10  1  0  0  0  0
  7  8  1  0  0  0  0
  9 10  1  6  0  0  0
  9  5  1  0  0  0  0
  9 11  1  0  0  0  0
 12 15  1  1  0  0  0
 13 14  1  6  0  0  0
 13 12  1  0  0  0  0
 14 12  1  0  0  0  0
 16 15  1  0  0  0  0
 16 17  1  0  0  0  0
 17 20  1  0  0  0  0
 17 18  1  1  0  0  0
 17 22  1  0  0  0  0
 20 19  1  1  0  0  0
 21 20  1  0  0  0  0
 22 23  1  0  0  0  0
 24 29  1  0  0  0  0
 24 25  2  0  0  0  0
 25 27  1  0  0  0  0
 27 23  1  6  0  0  0
 28 27  1  0  0  0  0
 28 26  1  0  0  0  0
 29 31  1  1  0  0  0
 29 26  1  0  0  0  0
 31 32  2  0  0  0  0
 31 30  1  0  0  0  0
 34 33  1  0  0  0  0
 35 33  2  0  0  0  0
 37 36  1  1  0  0  0
 37 38  1  0  0  0  0
 38 39  1  0  0  0  0
 40 37  1  0  0  0  0
 41 49  1  0  0  0  0
 43 40  1  0  0  0  0
 43 46  1  1  0  0  0
 44 42  1  1  0  0  0
 44 47  1  0  0  0  0
 44 43  1  0  0  0  0
 47 49  1  1  0  0  0
 47 43  1  0  0  0  0
 48 45  1  1  0  0  0
 48 42  1  0  0  0  0
 48 41  1  0  0  0  0
 50 48  1  0  0  0  0
 51 50  1  0  0  0  0
 52 50  1  0  0  0  0
 53 50  1  0  0  0  0
 54 55  1  0  0  0  0
 55 53  1  0  0  0  0
M  END
>  <MODEL>
5

>  <REMARK>
 VINA RESULT:      -3.8      5.479      8.822
  Name = 
  18 active torsions:
  status: ('A' for Active; 'I' for Inactive)
    1  A    between atoms: C_1  and  C_29
    2  A    between atoms: O_2  and  C_11
    3  A    between atoms: O_2  and  C_51
    4  A    between atoms: C_7  and  S_12
    5  A    between atoms: C_11  and  O_13
    6  A    between atoms: C_11  and  C_35
    7  A    between atoms: S_12  and  C_28
    8  A    between atoms: O_13  and  C_34
    9  A    between atoms: C_15  and  O_38
   10  A    between atoms: C_17  and  C_26
   11  A    between atoms: C_20  and  C_34
   12  A    between atoms: C_21  and  C_27
   13  A    between atoms: O_22  and  C_28
   14  A    between atoms: C_27  and  O_38
   15  A    between atoms: C_28  and  C_46
   16  A    between atoms: C_32  and  C_51
   17  A    between atoms: C_44  and  C_52
   18  A    between atoms: C_45  and  C_49
                            x       y       z     vdW  Elec       q    Type
                         _______ _______ _______ _____ _____    ______ ____

>  <TORSDO>
F 18

$$$$
=
 OpenBabel11072412473D

 55 60  0  0  1  0  0  0  0  0999 V2000
  160.8090  205.1730  148.0890 C   0  0  2  0  0  3  0  0  0  0  0  0
  160.4460  206.5820  148.4740 C   0  0  0  0  0  2  0  0  0  0  0  0
  161.9460  204.7870  148.8180 O   0  0  0  0  0  0  0  0  0  0  0  0
  161.9260  205.5250  150.0130 C   0  0  1  0  0  3  0  0  0  0  0  0
  160.9980  206.7270  149.8520 C   0  0  1  0  0  3  0  0  0  0  0  0
  161.9030  210.1470  149.0390 C   0  0  2  0  0  3  0  0  0  0  0  0
  163.0140  208.2160  148.1480 O   0  0  0  0  0  0  0  0  0  0  0  0
  162.9990  209.6230  148.0890 C   0  0  0  0  0  2  0  0  0  0  0  0
  161.7720  208.0390  149.9800 C   0  0  1  0  0  3  0  0  0  0  0  0
  163.0820  207.9060  149.4370 O   0  0  0  0  0  0  0  0  0  0  0  0
  161.0290  209.0960  149.3880 O   0  0  0  0  0  0  0  0  0  0  0  0
  161.9750  212.3790  147.9270 C   0  0  2  0  0  3  0  0  0  0  0  0
  161.0910  211.3380  148.5020 C   0  0  2  0  0  3  0  0  0  0  0  0
  161.3790  212.5340  149.1920 O   0  0  0  0  0  0  0  0  0  0  0  0
  161.2120  213.2000  146.9070 C   0  0  0  0  0  2  0  0  0  0  0  0
  160.2310  212.3990  146.2910 O   0  0  0  0  0  0  0  0  0  0  0  0
  159.3930  213.2040  145.4730 C   0  0  2  0  0  0  0  0  0  0  0  0
  160.1070  214.3570  145.1070 O   0  0  0  0  0  1  0  0  0  0  0  0
  157.4890  212.4870  146.9960 C   0  0  0  0  0  1  0  0  0  0  0  0
  158.1450  213.6490  146.2640 C   0  0  2  0  0  3  0  0  0  0  0  0
  157.2150  214.2490  145.4130 O   0  0  0  0  0  1  0  0  0  0  0  0
  158.9740  212.5070  144.3100 O   0  0  0  0  0  0  0  0  0  0  0  0
  159.1750  213.3250  143.1830 C   0  0  0  0  0  2  0  0  0  0  0  0
  162.2130  211.8850  141.6870 C   0  0  0  0  0  3  0  0  0  0  0  0
  161.1740  212.0000  142.5250 C   0  0  0  0  0  3  0  0  0  0  0  0
  160.7240  212.5790  139.7610 C   0  0  0  0  0  2  0  0  0  0  0  0
  159.8290  212.5190  142.0770 C   0  0  2  0  0  3  0  0  0  0  0  0
  159.9320  213.3550  140.8050 C   0  0  0  0  0  2  0  0  0  0  0  0
  162.1530  212.3720  140.2580 C   0  0  2  0  0  3  0  0  0  0  0  0
  162.4170  210.3260  139.0610 O   0  0  0  0  0  1  0  0  0  0  0  0
  162.9030  211.4540  139.3490 C   0  0  0  0  0  0  0  0  0  0  0  0
  164.1380  211.8310  138.8250 O   0  0  0  0  0  0  0  0  0  0  0  0
  161.0830  205.0740  146.6210 C   0  0  0  0  0  0  0  0  0  0  0  0
  160.6730  205.9800  145.8400 O   0  0  0  0  0  0  0  0  0  0  0  0
  161.8030  203.9950  146.1120 O   0  0  0  0  0  1  0  0  0  0  0  0
  160.0940  204.8990  151.5330 C   0  0  0  0  0  1  0  0  0  0  0  0
  161.5850  204.6550  151.2510 C   0  0  1  0  0  0  0  0  0  0  0  0
  161.8450  203.2830  150.9590 O   0  0  0  0  0  0  0  0  0  0  0  0
  160.6350  202.5560  150.9050 C   0  0  0  0  0  1  0  0  0  0  0  0
  162.4910  205.2810  152.7460 S   0  0  0  0  0  0  0  0  0  0  0  0
  161.1540  209.3050  155.7360 C   0  0  0  0  0  2  0  0  0  0  0  0
  160.2280  208.7530  153.4250 C   0  0  0  0  0  2  0  0  0  0  0  0
  161.3930  206.5170  153.5820 C   0  0  1  0  0  0  0  0  0  0  0  0
  161.5320  207.9430  153.2510 C   0  0  2  0  0  3  0  0  0  0  0  0
  159.0150  210.0450  155.0060 O   0  0  0  0  0  1  0  0  0  0  0  0
  160.0340  205.9680  154.0470 C   0  0  0  0  0  1  0  0  0  0  0  0
  162.1120  207.4100  154.5260 N   0  0  1  0  0  0  0  0  0  0  0  0
  160.3160  209.8050  154.5460 C   0  0  1  0  0  0  0  0  0  0  0  0
  161.3210  207.7920  155.7060 C   0  0  0  0  0  2  0  0  0  0  0  0
  160.9040  211.1190  153.9970 C   0  0  0  0  0  0  0  0  0  0  0  0
  162.0690  211.4330  154.6910 F   0  0  0  0  0  0  0  0  0  0  0  0
  161.2090  210.9390  152.6560 F   0  0  0  0  0  0  0  0  0  0  0  0
  159.9600  212.1530  154.1430 O   0  0  0  0  0  0  0  0  0  0  0  0
  158.1400  212.6480  152.6760 C   0  0  0  0  0  1  0  0  0  0  0  0
  159.6380  212.6320  152.8670 C   0  0  0  0  0  2  0  0  0  0  0  0
  1 33  1  6  0  0  0
  1  2  1  0  0  0  0
  1  3  1  0  0  0  0
  3  4  1  0  0  0  0
  4 37  1  1  0  0  0
  5  2  1  6  0  0  0
  5  9  1  0  0  0  0
  5  4  1  0  0  0  0
  6  8  1  6  0  0  0
  6 11  1  0  0  0  0
  7 10  1  0  0  0  0
  8  7  1  0  0  0  0
  9 11  1  6  0  0  0
 10  9  1  0  0  0  0
 12 15  1  6  0  0  0
 12 13  1  0  0  0  0
 12 14  1  0  0  0  0
 13  6  1  0  0  0  0
 13 14  1  1  0  0  0
 16 15  1  0  0  0  0
 17 18  1  6  0  0  0
 17 20  1  0  0  0  0
 17 16  1  0  0  0  0
 20 19  1  6  0  0  0
 21 20  1  0  0  0  0
 22 17  1  0  0  0  0
 23 22  1  0  0  0  0
 24 25  2  0  0  0  0
 26 29  1  0  0  0  0
 26 28  1  0  0  0  0
 27 25  1  0  0  0  0
 27 23  1  1  0  0  0
 28 27  1  0  0  0  0
 29 31  1  6  0  0  0
 29 24  1  0  0  0  0
 30 31  1  0  0  0  0
 32 31  2  0  0  0  0
 34 33  2  0  0  0  0
 35 33  1  0  0  0  0
 37 36  1  1  0  0  0
 37 40  1  0  0  0  0
 38 37  1  0  0  0  0
 39 38  1  0  0  0  0
 40 43  1  0  0  0  0
 42 48  1  0  0  0  0
 43 46  1  1  0  0  0
 43 47  1  0  0  0  0
 44 42  1  1  0  0  0
 44 43  1  0  0  0  0
 44 47  1  0  0  0  0
 47 49  1  1  0  0  0
 48 45  1  1  0  0  0
 48 41  1  0  0  0  0
 49 41  1  0  0  0  0
 50 53  1  0  0  0  0
 50 48  1  0  0  0  0
 50 51  1  0  0  0  0
 52 50  1  0  0  0  0
 54 55  1  0  0  0  0
 55 53  1  0  0  0  0
M  END
>  <MODEL>
6

>  <REMARK>
 VINA RESULT:      -3.8      4.048     11.598
  Name = 
  18 active torsions:
  status: ('A' for Active; 'I' for Inactive)
    1  A    between atoms: C_1  and  C_29
    2  A    between atoms: O_2  and  C_11
    3  A    between atoms: O_2  and  C_51
    4  A    between atoms: C_7  and  S_12
    5  A    between atoms: C_11  and  O_13
    6  A    between atoms: C_11  and  C_35
    7  A    between atoms: S_12  and  C_28
    8  A    between atoms: O_13  and  C_34
    9  A    between atoms: C_15  and  O_38
   10  A    between atoms: C_17  and  C_26
   11  A    between atoms: C_20  and  C_34
   12  A    between atoms: C_21  and  C_27
   13  A    between atoms: O_22  and  C_28
   14  A    between atoms: C_27  and  O_38
   15  A    between atoms: C_28  and  C_46
   16  A    between atoms: C_32  and  C_51
   17  A    between atoms: C_44  and  C_52
   18  A    between atoms: C_45  and  C_49
                            x       y       z     vdW  Elec       q    Type
                         _______ _______ _______ _____ _____    ______ ____

>  <TORSDO>
F 18

$$$$
