=
 OpenBabel11072412043D

 45 53  0  0  1  0  0  0  0  0999 V2000
  161.7300  208.9900  151.0770 C   0  0  1  0  0  0  0  0  0  0  0  0
  160.8930  208.5410  152.2840 C   0  0  2  0  0  3  0  0  0  0  0  0
  162.9620  206.8920  150.8720 O   0  0  0  0  0  0  0  0  0  0  0  0
  161.5070  211.2660  149.5280 C   0  0  1  0  0  3  0  0  0  0  0  0
  160.2620  214.4530  147.6320 O   0  0  0  0  0  0  0  0  0  0  0  0
  160.9260  212.1030  147.4990 C   0  0  1  0  0  3  0  0  0  0  0  0
  162.8230  205.1870  152.5760 C   0  0  0  0  0  2  0  0  0  0  0  0
  162.1860  206.4160  151.9630 C   0  0  0  0  0  0  0  0  0  0  0  0
  160.4760  213.3720  149.7570 C   0  0  0  0  0  0  0  0  0  0  0  0
  161.4920  210.3830  150.7200 C   0  0  2  0  0  0  0  0  0  0  0  0
  160.0340  214.4000  150.4710 C   0  0  0  0  0  2  0  0  0  0  0  0
  162.7120  209.9970  151.2980 O   0  0  0  0  0  0  0  0  0  0  0  0
  160.7930  211.3760  151.5970 C   0  0  2  0  0  3  0  0  0  0  0  0
  160.4990  209.6020  153.1440 O   0  0  0  0  0  0  0  0  0  0  0  0
  159.7770  210.5480  152.3720 C   0  0  0  0  0  2  0  0  0  0  0  0
  160.9530  210.9020  148.2970 O   0  0  0  0  0  0  0  0  0  0  0  0
  161.6440  207.4290  153.0120 C   0  0  2  0  0  3  0  0  0  0  0  0
  160.5330  213.3980  148.2660 C   0  0  0  0  0  0  0  0  0  0  0  0
  161.5390  205.0590  151.7690 C   0  0  0  0  0  2  0  0  0  0  0  0
  162.2730  207.9020  150.1510 C   0  0  1  0  0  3  0  0  0  0  0  0
  160.3700  211.9880  150.2560 C   0  0  2  0  0  3  0  0  0  0  0  0
  160.4630  206.3730  149.7060 O   0  0  0  0  0  1  0  0  0  0  0  0
  161.2990  207.3200  149.1140 C   0  0  2  0  0  3  0  0  0  0  0  0
  161.9650  206.7490  147.8580 C   0  0  1  0  0  3  0  0  0  0  0  0
  163.2550  206.3360  148.1520 F   0  0  0  0  0  0  0  0  0  0  0  0
  160.2890  206.0170  146.1400 C   0  0  0  0  0  3  0  0  0  0  0  0
  162.0920  204.4350  146.8560 C   0  0  0  0  0  2  0  0  0  0  0  0
  160.6550  205.8240  144.8700 C   0  0  0  0  0  3  0  0  0  0  0  0
  161.1610  205.5750  147.2880 C   0  0  1  0  0  3  0  0  0  0  0  0
  161.8550  205.1710  144.5580 O   0  0  0  0  0  0  0  0  0  0  0  0
  162.8080  204.8140  145.5600 C   0  0  0  0  0  2  0  0  0  0  0  0
  162.2340  212.2760  146.7110 C   0  0  2  0  0  3  0  0  0  0  0  0
  163.3070  212.4100  147.5960 O   0  0  0  0  0  1  0  0  0  0  0  0
  163.3550  214.1960  145.7120 O   0  0  0  0  0  1  0  0  0  0  0  0
  162.1470  213.4930  145.7680 C   0  0  1  0  0  3  0  0  0  0  0  0
  159.8440  212.3780  141.9690 C   0  0  0  0  0  2  0  0  0  0  0  0
  160.5450  213.8540  143.7260 C   0  0  2  0  0  3  0  0  0  0  0  0
  160.4840  213.7150  142.2140 C   0  0  0  0  0  2  0  0  0  0  0  0
  162.6260  212.5450  143.5050 O   0  0  0  0  0  1  0  0  0  0  0  0
  161.6800  213.1510  144.3470 C   0  0  1  0  0  0  0  0  0  0  0  0
  160.3410  212.5090  144.3250 N   0  0  2  0  0  0  0  0  0  0  0  0
  160.1880  211.5800  143.2040 C   0  0  0  0  0  2  0  0  0  0  0  0
  160.7400  206.7750  154.0600 C   0  0  0  0  0  2  0  0  0  0  0  0
  159.8300  207.1410  156.2380 O   0  0  0  0  0  1  0  0  0  0  0  0
  160.9300  207.4160  155.4250 C   0  0  0  0  0  2  0  0  0  0  0  0
  1 12  1  1  0  0  0
  1  2  1  0  0  0  0
  2 17  1  0  0  0  0
  2 14  1  1  0  0  0
  3  8  1  0  0  0  0
  4 16  1  6  0  0  0
  4 21  1  0  0  0  0
  4 10  1  0  0  0  0
  5 18  2  0  0  0  0
  6 32  1  1  0  0  0
  6 18  1  0  0  0  0
  6 16  1  0  0  0  0
  8  7  1  0  0  0  0
  8 17  1  0  0  0  0
  9 11  2  0  0  0  0
 10  1  1  0  0  0  0
 10 12  1  1  0  0  0
 10 13  1  0  0  0  0
 13 15  1  6  0  0  0
 15 14  1  0  0  0  0
 17 43  1  1  0  0  0
 18  9  1  0  0  0  0
 19  8  1  0  0  0  0
 19  7  1  0  0  0  0
 20 23  1  1  0  0  0
 20  3  1  0  0  0  0
 20  1  1  0  0  0  0
 21  9  1  1  0  0  0
 21 13  1  0  0  0  0
 23 22  1  1  0  0  0
 24 25  1  1  0  0  0
 24 23  1  0  0  0  0
 26 29  1  0  0  0  0
 27 29  1  0  0  0  0
 28 26  2  0  0  0  0
 29 24  1  6  0  0  0
 30 28  1  0  0  0  0
 30 31  1  0  0  0  0
 31 27  1  0  0  0  0
 32 33  1  1  0  0  0
 35 34  1  6  0  0  0
 35 32  1  0  0  0  0
 36 38  1  0  0  0  0
 36 42  1  0  0  0  0
 37 38  1  6  0  0  0
 37 41  1  0  0  0  0
 37 40  1  0  0  0  0
 40 39  1  6  0  0  0
 40 35  1  0  0  0  0
 41 42  1  6  0  0  0
 41 40  1  0  0  0  0
 43 45  1  0  0  0  0
 45 44  1  0  0  0  0
M  END
>  <MODEL>
1

>  <REMARK>
 VINA RESULT:      -7.0      0.000      0.000
  Name = 
  8 active torsions:
  status: ('A' for Active; 'I' for Inactive)
    1  A    between atoms: C_6  and  C_16
    2  A    between atoms: C_6  and  C_21
    3  A    between atoms: C_16  and  C_41
    4  A    between atoms: C_17  and  C_35
    5  A    between atoms: C_20  and  C_44
    6  A    between atoms: C_32  and  C_36
    7  A    between atoms: C_32  and  C_38
    8  A    between atoms: C_35  and  C_44
                            x       y       z     vdW  Elec       q    Type
                         _______ _______ _______ _____ _____    ______ ____

>  <TORSDO>
F 8

$$$$
=
 OpenBabel11072412043D

 45 53  0  0  1  0  0  0  0  0999 V2000
  159.2510  210.6500  153.7200 C   0  0  1  0  0  0  0  0  0  0  0  0
  159.5610  211.2150  155.1150 C   0  0  2  0  0  3  0  0  0  0  0  0
  157.6360  212.3850  153.1350 O   0  0  0  0  0  0  0  0  0  0  0  0
  160.4860  208.6050  152.3350 C   0  0  1  0  0  3  0  0  0  0  0  0
  162.9960  205.9540  150.9300 O   0  0  0  0  0  0  0  0  0  0  0  0
  161.8200  208.0690  150.5780 C   0  0  1  0  0  3  0  0  0  0  0  0
  156.8370  213.9590  154.7830 C   0  0  0  0  0  2  0  0  0  0  0  0
  157.9160  212.9680  154.4000 C   0  0  0  0  0  0  0  0  0  0  0  0
  161.9110  206.8100  152.8840 C   0  0  0  0  0  0  0  0  0  0  0  0
  159.9300  209.3860  153.4670 C   0  0  2  0  0  0  0  0  0  0  0  0
  162.3780  205.8820  153.7100 C   0  0  0  0  0  2  0  0  0  0  0  0
  158.5390  209.4190  153.6550 O   0  0  0  0  0  0  0  0  0  0  0  0
  160.5780  208.5440  154.5240 C   0  0  2  0  0  3  0  0  0  0  0  0
  159.9500  210.2340  156.0660 O   0  0  0  0  0  0  0  0  0  0  0  0
  161.0800  209.5480  155.5520 C   0  0  0  0  0  2  0  0  0  0  0  0
  161.2580  209.1720  151.3170 O   0  0  0  0  0  0  0  0  0  0  0  0
  158.3740  212.0570  155.5750 C   0  0  2  0  0  3  0  0  0  0  0  0
  162.2940  206.8660  151.4430 C   0  0  0  0  0  0  0  0  0  0  0  0
  158.2210  214.4530  154.3870 C   0  0  0  0  0  2  0  0  0  0  0  0
  158.7370  211.6250  152.6620 C   0  0  1  0  0  3  0  0  0  0  0  0
  161.5110  208.1430  153.3750 C   0  0  2  0  0  3  0  0  0  0  0  0
  160.0640  213.6380  152.7010 O   0  0  0  0  0  1  0  0  0  0  0  0
  159.7860  212.4970  151.9500 C   0  0  2  0  0  3  0  0  0  0  0  0
  159.4370  212.8670  150.5040 C   0  0  1  0  0  3  0  0  0  0  0  0
  158.4500  213.8400  150.4890 F   0  0  0  0  0  0  0  0  0  0  0  0
  161.5650  212.2220  149.3410 C   0  0  0  0  0  3  0  0  0  0  0  0
  160.2620  214.1960  148.5230 C   0  0  0  0  0  2  0  0  0  0  0  0
  161.5390  211.7210  148.1030 C   0  0  0  0  0  3  0  0  0  0  0  0
  160.6720  213.3670  149.7460 C   0  0  1  0  0  3  0  0  0  0  0  0
  160.6990  212.2670  147.1220 O   0  0  0  0  0  0  0  0  0  0  0  0
  159.7330  213.2740  147.4260 C   0  0  0  0  0  2  0  0  0  0  0  0
  160.8840  207.6260  149.4420 C   0  0  2  0  0  3  0  0  0  0  0  0
  160.3500  206.3670  149.7300 O   0  0  0  0  0  1  0  0  0  0  0  0
  163.0100  207.7670  148.2590 O   0  0  0  0  0  1  0  0  0  0  0  0
  161.6310  207.6080  148.0940 C   0  0  1  0  0  3  0  0  0  0  0  0
  161.7980  203.9250  145.3760 C   0  0  0  0  0  2  0  0  0  0  0  0
  162.1130  205.1180  147.4330 C   0  0  2  0  0  3  0  0  0  0  0  0
  161.4480  203.8890  146.8360 C   0  0  0  0  0  2  0  0  0  0  0  0
  160.0800  206.2800  146.6510 O   0  0  0  0  0  1  0  0  0  0  0  0
  161.3520  206.3630  147.2400 C   0  0  1  0  0  0  0  0  0  0  0  0
  162.4730  206.0370  146.3230 N   0  0  2  0  0  0  0  0  0  0  0  0
  162.0150  205.3920  145.0910 C   0  0  0  0  0  2  0  0  0  0  0  0
  158.7390  212.8470  156.8340 C   0  0  0  0  0  2  0  0  0  0  0  0
  160.5060  214.4530  156.8850 O   0  0  0  0  0  1  0  0  0  0  0  0
  160.2380  213.0840  156.9160 C   0  0  0  0  0  2  0  0  0  0  0  0
  1 12  1  1  0  0  0
  1  2  1  0  0  0  0
  2 17  1  0  0  0  0
  2 14  1  1  0  0  0
  3  8  1  0  0  0  0
  4 16  1  6  0  0  0
  4 21  1  0  0  0  0
  4 10  1  0  0  0  0
  5 18  2  0  0  0  0
  6 32  1  6  0  0  0
  6 16  1  0  0  0  0
  6 18  1  0  0  0  0
  8  7  1  0  0  0  0
  8 17  1  0  0  0  0
  9 11  2  0  0  0  0
 10 12  1  1  0  0  0
 10  1  1  0  0  0  0
 10 13  1  0  0  0  0
 13 15  1  1  0  0  0
 15 14  1  0  0  0  0
 17 43  1  1  0  0  0
 18  9  1  0  0  0  0
 19  8  1  0  0  0  0
 19  7  1  0  0  0  0
 20 23  1  1  0  0  0
 20  3  1  0  0  0  0
 20  1  1  0  0  0  0
 21  9  1  6  0  0  0
 21 13  1  0  0  0  0
 23 22  1  1  0  0  0
 24 25  1  1  0  0  0
 24 23  1  0  0  0  0
 26 29  1  0  0  0  0
 27 29  1  0  0  0  0
 28 26  2  0  0  0  0
 29 24  1  6  0  0  0
 30 31  1  0  0  0  0
 30 28  1  0  0  0  0
 31 27  1  0  0  0  0
 32 33  1  1  0  0  0
 35 34  1  1  0  0  0
 35 32  1  0  0  0  0
 36 38  1  0  0  0  0
 37 38  1  6  0  0  0
 40 39  1  6  0  0  0
 40 37  1  0  0  0  0
 40 35  1  0  0  0  0
 41 42  1  6  0  0  0
 41 40  1  0  0  0  0
 41 37  1  0  0  0  0
 42 36  1  0  0  0  0
 43 45  1  0  0  0  0
 44 45  1  0  0  0  0
M  END
>  <MODEL>
2

>  <REMARK>
 VINA RESULT:      -5.2      3.015      7.234
  Name = 
  8 active torsions:
  status: ('A' for Active; 'I' for Inactive)
    1  A    between atoms: C_6  and  C_16
    2  A    between atoms: C_6  and  C_21
    3  A    between atoms: C_16  and  C_41
    4  A    between atoms: C_17  and  C_35
    5  A    between atoms: C_20  and  C_44
    6  A    between atoms: C_32  and  C_36
    7  A    between atoms: C_32  and  C_38
    8  A    between atoms: C_35  and  C_44
                            x       y       z     vdW  Elec       q    Type
                         _______ _______ _______ _____ _____    ______ ____

>  <TORSDO>
F 8

$$$$
=
 OpenBabel11072412043D

 45 53  0  0  1  0  0  0  0  0999 V2000
  161.5250  210.5240  150.5960 C   0  0  1  0  0  0  0  0  0  0  0  0
  161.4080  210.5730  149.0640 C   0  0  2  0  0  3  0  0  0  0  0  0
  161.2870  212.9330  150.9100 O   0  0  0  0  0  0  0  0  0  0  0  0
  161.5700  208.3430  152.2890 C   0  0  1  0  0  3  0  0  0  0  0  0
  161.1420  204.8320  153.9600 O   0  0  0  0  0  0  0  0  0  0  0  0
  160.4340  207.1710  153.8680 C   0  0  1  0  0  3  0  0  0  0  0  0
  161.3430  214.4530  149.0340 C   0  0  0  0  0  2  0  0  0  0  0  0
  161.1350  213.0280  149.5010 C   0  0  0  0  0  0  0  0  0  0  0  0
  161.9650  206.0320  152.0590 C   0  0  0  0  0  0  0  0  0  0  0  0
  161.8110  209.1840  151.0900 C   0  0  2  0  0  0  0  0  0  0  0  0
  162.5320  204.9820  151.4790 C   0  0  0  0  0  2  0  0  0  0  0  0
  162.7940  210.1850  151.1450 O   0  0  0  0  0  0  0  0  0  0  0  0
  162.2750  208.0450  150.2360 C   0  0  2  0  0  3  0  0  0  0  0  0
  162.1050  209.5310  148.3950 O   0  0  0  0  0  0  0  0  0  0  0  0
  161.6180  208.2920  148.8850 C   0  0  0  0  0  2  0  0  0  0  0  0
  160.3360  208.2740  152.9430 O   0  0  0  0  0  0  0  0  0  0  0  0
  161.8130  211.9660  148.5880 C   0  0  2  0  0  3  0  0  0  0  0  0
  161.1890  205.9230  153.3300 C   0  0  0  0  0  0  0  0  0  0  0  0
  159.9500  213.8410  149.0190 C   0  0  0  0  0  2  0  0  0  0  0  0
  160.8810  211.6610  151.3890 C   0  0  1  0  0  3  0  0  0  0  0  0
  161.5240  207.2000  151.2720 C   0  0  2  0  0  3  0  0  0  0  0  0
  158.7010  212.5440  150.8600 O   0  0  0  0  0  1  0  0  0  0  0  0
  159.3630  211.5780  151.6170 C   0  0  2  0  0  3  0  0  0  0  0  0
  158.9310  211.6460  153.0860 C   0  0  1  0  0  3  0  0  0  0  0  0
  159.9920  212.0640  153.8730 F   0  0  0  0  0  0  0  0  0  0  0  0
  156.7600  212.0510  154.2770 C   0  0  0  0  0  3  0  0  0  0  0  0
  158.2190  213.9940  153.6780 C   0  0  0  0  0  2  0  0  0  0  0  0
  156.7470  212.4800  155.5420 C   0  0  0  0  0  3  0  0  0  0  0  0
  157.7410  212.5950  153.2710 C   0  0  1  0  0  3  0  0  0  0  0  0
  157.6290  213.4800  155.9730 O   0  0  0  0  0  0  0  0  0  0  0  0
  158.6730  213.9820  155.1370 C   0  0  0  0  0  2  0  0  0  0  0  0
  160.9810  207.6330  155.2280 C   0  0  2  0  0  3  0  0  0  0  0  0
  160.5440  206.7660  156.2340 O   0  0  0  0  0  1  0  0  0  0  0  0
  159.6310  209.1440  156.5820 O   0  0  0  0  0  1  0  0  0  0  0  0
  160.5480  209.0810  155.5280 C   0  0  1  0  0  3  0  0  0  0  0  0
  163.6090  212.0150  157.2610 C   0  0  0  0  0  2  0  0  0  0  0  0
  162.5950  209.8600  156.9670 C   0  0  2  0  0  3  0  0  0  0  0  0
  163.9180  210.6000  156.8620 C   0  0  0  0  0  2  0  0  0  0  0  0
  162.2120  210.7510  154.6970 O   0  0  0  0  0  1  0  0  0  0  0  0
  161.7150  210.0400  155.8000 C   0  0  1  0  0  0  0  0  0  0  0  0
  161.5030  210.8660  157.0160 N   0  0  2  0  0  0  0  0  0  0  0  0
  162.1480  212.1780  156.9170 C   0  0  0  0  0  2  0  0  0  0  0  0
  161.4650  212.1420  147.1080 C   0  0  0  0  0  2  0  0  0  0  0  0
  161.9700  213.6800  145.3520 O   0  0  0  0  0  1  0  0  0  0  0  0
  162.5410  212.9330  146.3820 C   0  0  0  0  0  2  0  0  0  0  0  0
  1 10  1  0  0  0  0
  1 12  1  1  0  0  0
  1 20  1  0  0  0  0
  2 14  1  6  0  0  0
  2  1  1  0  0  0  0
  3 20  1  0  0  0  0
  4 16  1  6  0  0  0
  6 32  1  1  0  0  0
  7  8  1  0  0  0  0
  8  3  1  0  0  0  0
  9 18  1  0  0  0  0
 10 12  1  1  0  0  0
 10  4  1  0  0  0  0
 11  9  2  0  0  0  0
 13 15  1  6  0  0  0
 13 10  1  0  0  0  0
 13 21  1  0  0  0  0
 14 15  1  0  0  0  0
 16  6  1  0  0  0  0
 17 43  1  6  0  0  0
 17  2  1  0  0  0  0
 17  8  1  0  0  0  0
 18  6  1  0  0  0  0
 18  5  2  0  0  0  0
 19  7  1  0  0  0  0
 19  8  1  0  0  0  0
 20 23  1  6  0  0  0
 21  9  1  1  0  0  0
 21  4  1  0  0  0  0
 23 22  1  6  0  0  0
 23 24  1  0  0  0  0
 24 25  1  1  0  0  0
 26 28  2  0  0  0  0
 27 31  1  0  0  0  0
 28 30  1  0  0  0  0
 29 24  1  1  0  0  0
 29 27  1  0  0  0  0
 29 26  1  0  0  0  0
 31 30  1  0  0  0  0
 32 35  1  0  0  0  0
 32 33  1  1  0  0  0
 35 40  1  0  0  0  0
 35 34  1  1  0  0  0
 37 38  1  6  0  0  0
 37 41  1  0  0  0  0
 38 36  1  0  0  0  0
 40 39  1  6  0  0  0
 40 37  1  0  0  0  0
 40 41  1  0  0  0  0
 41 42  1  6  0  0  0
 42 36  1  0  0  0  0
 44 45  1  0  0  0  0
 45 43  1  0  0  0  0
M  END
>  <MODEL>
3

>  <REMARK>
 VINA RESULT:      -4.1      3.430      9.694
  Name = 
  8 active torsions:
  status: ('A' for Active; 'I' for Inactive)
    1  A    between atoms: C_6  and  C_16
    2  A    between atoms: C_6  and  C_21
    3  A    between atoms: C_16  and  C_41
    4  A    between atoms: C_17  and  C_35
    5  A    between atoms: C_20  and  C_44
    6  A    between atoms: C_32  and  C_36
    7  A    between atoms: C_32  and  C_38
    8  A    between atoms: C_35  and  C_44
                            x       y       z     vdW  Elec       q    Type
                         _______ _______ _______ _____ _____    ______ ____

>  <TORSDO>
F 8

$$$$
