=
 OpenBabel11072413353D

 43 47  0  0  1  0  0  0  0  0999 V2000
  161.5530  205.8860  153.3610 C   0  0  0  0  0  3  0  0  0  0  0  0
  160.3240  208.1970  154.2160 C   0  0  0  0  0  0  0  0  0  0  0  0
  159.4850  207.0070  156.1940 N   0  0  0  0  0  1  0  0  0  0  0  0
  161.0660  211.4770  154.0550 C   0  0  0  0  0  2  0  0  0  0  0  0
  160.4520  212.1890  155.2440 C   0  0  0  0  0  2  0  0  0  0  0  0
  159.6650  213.4260  154.8020 C   0  0  0  0  0  2  0  0  0  0  0  0
  157.9820  211.6710  153.8560 C   0  0  0  0  0  2  0  0  0  0  0  0
  160.1430  210.3860  153.4910 C   0  0  2  0  0  0  0  0  0  0  0  0
  160.2260  207.0310  154.9800 C   0  0  0  0  0  0  0  0  0  0  0  0
  159.8000  209.4390  154.5110 O   0  0  0  0  0  0  0  0  0  0  0  0
  160.9340  209.5780  152.4350 C   0  0  0  0  0  2  0  0  0  0  0  0
  158.8850  210.9770  152.8450 C   0  0  0  0  0  2  0  0  0  0  0  0
  161.0130  208.2070  153.0350 C   0  0  0  0  0  0  0  0  0  0  0  0
  160.8460  205.8990  154.5310 N   0  0  0  0  0  0  0  0  0  0  0  0
  161.6550  207.0500  152.5630 C   0  0  0  0  0  0  0  0  0  0  0  0
  158.3640  213.1400  154.0150 C   0  0  1  0  0  3  0  0  0  0  0  0
  154.3290  213.4760  157.2080 C   0  0  0  0  0  1  0  0  0  0  0  0
  155.7270  214.4500  151.4220 O   0  0  0  0  0  0  0  0  0  0  0  0
  155.8460  214.2460  152.6470 C   0  0  0  0  0  0  0  0  0  0  0  0
  155.9790  214.0370  153.9380 C   0  0  0  0  0  0  0  0  0  0  0  0
  157.0350  213.9490  156.3530 S   0  0  0  0  0  0  0  0  0  0  0  0
  155.2640  213.7700  156.0960 C   0  0  1  0  0  3  0  0  0  0  0  0
  154.8520  213.8860  154.8370 C   0  0  0  0  0  2  0  0  0  0  0  0
  157.2470  213.9000  154.5920 N   0  0  0  0  0  0  0  0  0  0  0  0
  162.4310  207.0170  151.3030 C   0  0  0  0  0  0  0  0  0  0  0  0
  161.8890  207.6300  150.1260 N   0  0  0  0  0  2  0  0  0  0  0  0
  163.5650  206.4630  151.2600 O   0  0  0  0  0  0  0  0  0  0  0  0
  162.5100  207.5770  148.8020 C   0  0  0  0  0  2  0  0  0  0  0  0
  161.9850  206.4000  147.9520 C   0  0  1  0  0  3  0  0  0  0  0  0
  159.9640  204.3220  150.1570 N   0  0  0  0  0  0  0  0  0  0  0  0
  161.0040  203.5320  149.7990 C   0  0  0  0  0  0  0  0  0  0  0  0
  160.1990  205.4890  149.5260 C   0  0  0  0  0  3  0  0  0  0  0  0
  161.8460  204.1440  149.0000 O   0  0  0  0  0  0  0  0  0  0  0  0
  161.3690  205.3480  148.8110 C   0  0  0  0  0  0  0  0  0  0  0  0
  159.1720  201.3940  149.2700 O   0  0  0  0  0  1  0  0  0  0  0  0
  161.1860  202.1350  150.2320 C   0  0  0  0  0  3  0  0  0  0  0  0
  160.3370  201.1860  149.9770 N   0  0  0  0  0  0  0  0  0  0  0  0
  161.0360  206.8240  146.8280 C   0  0  0  0  0  2  0  0  0  0  0  0
  159.7000  206.0590  144.9260 O   0  0  0  0  0  1  0  0  0  0  0  0
  160.4970  205.6430  145.9990 C   0  0  1  0  0  3  0  0  0  0  0  0
  161.6120  203.2950  145.6640 C   0  0  0  0  0  1  0  0  0  0  0  0
  161.6280  204.7880  145.4840 C   0  0  0  0  0  0  0  0  0  0  0  0
  162.5940  205.3160  144.9430 O   0  0  0  0  0  0  0  0  0  0  0  0
  1 14  1  0  0  0  0
  2 10  1  0  0  0  0
  2  9  1  0  0  0  0
  4  5  1  0  0  0  0
  6  5  1  0  0  0  0
  8 11  1  6  0  0  0
  8  4  1  0  0  0  0
  8 10  1  0  0  0  0
  9  3  1  0  0  0  0
 11 13  1  0  0  0  0
 12  8  1  0  0  0  0
 12  7  1  0  0  0  0
 13  2  2  0  0  0  0
 14  9  2  0  0  0  0
 15 13  1  0  0  0  0
 15  1  2  0  0  0  0
 16  7  1  1  0  0  0
 16 24  1  0  0  0  0
 16  6  1  0  0  0  0
 18 19  2  0  0  0  0
 19 20  2  0  0  0  0
 20 24  1  0  0  0  0
 20 23  1  0  0  0  0
 22 21  1  0  0  0  0
 22 17  1  6  0  0  0
 23 22  1  0  0  0  0
 24 21  1  0  0  0  0
 25 15  1  0  0  0  0
 26 25  1  0  0  0  0
 27 25  2  0  0  0  0
 28 26  1  0  0  0  0
 29 38  1  6  0  0  0
 29 28  1  0  0  0  0
 29 34  1  0  0  0  0
 31 30  2  0  0  0  0
 31 36  1  0  0  0  0
 32 30  1  0  0  0  0
 33 31  1  0  0  0  0
 34 33  1  0  0  0  0
 34 32  2  0  0  0  0
 35 37  1  0  0  0  0
 37 36  2  0  0  0  0
 40 39  1  6  0  0  0
 40 38  1  0  0  0  0
 42 41  1  0  0  0  0
 42 40  1  0  0  0  0
 43 42  2  0  0  0  0
M  END
>  <MODEL>
1

>  <REMARK>
 VINA RESULT:      -6.5      0.000      0.000
  Name = 
  9 active torsions:
  status: ('A' for Active; 'I' for Inactive)
    1  A    between atoms: C_2  and  C_16
    2  A    between atoms: C_2  and  N_30
    3  A    between atoms: C_5  and  C_41
    4  A    between atoms: C_9  and  C_18
    5  A    between atoms: C_14  and  C_16
    6  A    between atoms: C_14  and  C_34
    7  A    between atoms: C_16  and  C_43
    8  A    between atoms: C_20  and  C_34
    9  A    between atoms: N_38  and  C_42
                            x       y       z     vdW  Elec       q    Type
                         _______ _______ _______ _____ _____    ______ ____

>  <TORSDO>
F 9

$$$$
=
 OpenBabel11072413353D

 43 47  0  0  1  0  0  0  0  0999 V2000
  161.3310  206.1590  154.3370 C   0  0  0  0  0  3  0  0  0  0  0  0
  160.1010  208.5680  154.8500 C   0  0  0  0  0  0  0  0  0  0  0  0
  159.5270  207.7840  157.1060 N   0  0  0  0  0  1  0  0  0  0  0  0
  160.6800  211.7640  153.9600 C   0  0  0  0  0  2  0  0  0  0  0  0
  160.1650  212.6870  155.0470 C   0  0  0  0  0  2  0  0  0  0  0  0
  159.2830  213.7930  154.4590 C   0  0  0  0  0  2  0  0  0  0  0  0
  157.5860  211.8490  154.0740 C   0  0  0  0  0  2  0  0  0  0  0  0
  159.7510  210.5630  153.7310 C   0  0  2  0  0  0  0  0  0  0  0  0
  160.1350  207.5780  155.8360 C   0  0  0  0  0  0  0  0  0  0  0  0
  159.5580  209.8340  154.9500 O   0  0  0  0  0  0  0  0  0  0  0  0
  160.4590  209.5740  152.7740 C   0  0  0  0  0  2  0  0  0  0  0  0
  158.4070  210.9840  153.1260 C   0  0  0  0  0  2  0  0  0  0  0  0
  160.6600  208.3550  153.6210 C   0  0  0  0  0  0  0  0  0  0  0  0
  160.7510  206.3920  155.5530 N   0  0  0  0  0  0  0  0  0  0  0  0
  161.2970  207.1400  153.3190 C   0  0  0  0  0  0  0  0  0  0  0  0
  157.9200  213.3280  153.8950 C   0  0  1  0  0  3  0  0  0  0  0  0
  154.0280  214.0760  157.1950 C   0  0  0  0  0  1  0  0  0  0  0  0
  155.1940  214.3990  151.2850 O   0  0  0  0  0  0  0  0  0  0  0  0
  155.3610  214.3250  152.5190 C   0  0  0  0  0  0  0  0  0  0  0  0
  155.5460  214.2530  153.8190 C   0  0  0  0  0  0  0  0  0  0  0  0
  156.7020  214.4060  156.1840 S   0  0  0  0  0  0  0  0  0  0  0  0
  154.9190  214.2320  156.0200 C   0  0  1  0  0  3  0  0  0  0  0  0
  154.4570  214.2200  154.7740 C   0  0  0  0  0  2  0  0  0  0  0  0
  156.8380  214.1640  154.4320 N   0  0  0  0  0  0  0  0  0  0  0  0
  161.9370  206.8700  152.0110 C   0  0  0  0  0  0  0  0  0  0  0  0
  161.9030  205.5430  151.4710 N   0  0  0  0  0  2  0  0  0  0  0  0
  162.5030  207.7980  151.3670 O   0  0  0  0  0  0  0  0  0  0  0  0
  162.5820  205.1290  150.2430 C   0  0  0  0  0  2  0  0  0  0  0  0
  161.6150  205.0040  149.0470 C   0  0  1  0  0  3  0  0  0  0  0  0
  160.0650  201.7110  149.1880 N   0  0  0  0  0  0  0  0  0  0  0  0
  160.8950  201.6550  148.1180 C   0  0  0  0  0  0  0  0  0  0  0  0
  160.2330  202.9570  149.6740 C   0  0  0  0  0  3  0  0  0  0  0  0
  161.5480  202.7770  147.9320 O   0  0  0  0  0  0  0  0  0  0  0  0
  161.1530  203.5970  148.8730 C   0  0  0  0  0  0  0  0  0  0  0  0
  160.1840  201.5700  145.3450 O   0  0  0  0  0  1  0  0  0  0  0  0
  161.0530  200.4820  147.2400 C   0  0  0  0  0  3  0  0  0  0  0  0
  160.7220  200.4730  145.9850 N   0  0  0  0  0  0  0  0  0  0  0  0
  160.4310  205.9730  149.1060 C   0  0  0  0  0  2  0  0  0  0  0  0
  161.3770  208.0650  148.2580 O   0  0  0  0  0  1  0  0  0  0  0  0
  160.4560  207.0430  147.9970 C   0  0  1  0  0  3  0  0  0  0  0  0
  162.1780  206.1570  146.2320 C   0  0  0  0  0  1  0  0  0  0  0  0
  160.7600  206.4210  146.6570 C   0  0  0  0  0  0  0  0  0  0  0  0
  159.8440  206.1600  145.8840 O   0  0  0  0  0  0  0  0  0  0  0  0
  1 14  1  0  0  0  0
  2 10  1  0  0  0  0
  2  9  1  0  0  0  0
  4  5  1  0  0  0  0
  6  5  1  0  0  0  0
  8 11  1  6  0  0  0
  8  4  1  0  0  0  0
  8 10  1  0  0  0  0
  9  3  1  0  0  0  0
 11 13  1  0  0  0  0
 12  8  1  0  0  0  0
 12  7  1  0  0  0  0
 13  2  2  0  0  0  0
 14  9  2  0  0  0  0
 15 13  1  0  0  0  0
 15  1  2  0  0  0  0
 16  7  1  1  0  0  0
 16 24  1  0  0  0  0
 16  6  1  0  0  0  0
 18 19  2  0  0  0  0
 19 20  2  0  0  0  0
 20 24  1  0  0  0  0
 20 23  1  0  0  0  0
 22 21  1  0  0  0  0
 22 17  1  6  0  0  0
 23 22  1  0  0  0  0
 24 21  1  0  0  0  0
 25 15  1  0  0  0  0
 26 25  1  0  0  0  0
 27 25  2  0  0  0  0
 28 26  1  0  0  0  0
 29 38  1  1  0  0  0
 29 28  1  0  0  0  0
 30 32  1  0  0  0  0
 31 30  2  0  0  0  0
 33 31  1  0  0  0  0
 33 34  1  0  0  0  0
 34 29  1  0  0  0  0
 34 32  2  0  0  0  0
 35 37  1  0  0  0  0
 36 31  1  0  0  0  0
 37 36  2  0  0  0  0
 40 39  1  1  0  0  0
 40 38  1  0  0  0  0
 41 42  1  0  0  0  0
 42 40  1  0  0  0  0
 43 42  2  0  0  0  0
M  END
>  <MODEL>
2

>  <REMARK>
 VINA RESULT:      -6.0      1.535      1.915
  Name = 
  9 active torsions:
  status: ('A' for Active; 'I' for Inactive)
    1  A    between atoms: C_2  and  C_16
    2  A    between atoms: C_2  and  N_30
    3  A    between atoms: C_5  and  C_41
    4  A    between atoms: C_9  and  C_18
    5  A    between atoms: C_14  and  C_16
    6  A    between atoms: C_14  and  C_34
    7  A    between atoms: C_16  and  C_43
    8  A    between atoms: C_20  and  C_34
    9  A    between atoms: N_38  and  C_42
                            x       y       z     vdW  Elec       q    Type
                         _______ _______ _______ _____ _____    ______ ____

>  <TORSDO>
F 9

$$$$
=
 OpenBabel11072413353D

 43 47  0  0  1  0  0  0  0  0999 V2000
  161.4970  206.4690  154.4460 C   0  0  0  0  0  3  0  0  0  0  0  0
  160.1550  208.8270  154.9150 C   0  0  0  0  0  0  0  0  0  0  0  0
  159.7600  208.1290  157.2370 N   0  0  0  0  0  1  0  0  0  0  0  0
  160.4860  212.0000  153.8390 C   0  0  0  0  0  2  0  0  0  0  0  0
  159.9800  212.9480  154.9080 C   0  0  0  0  0  2  0  0  0  0  0  0
  159.0000  213.9690  154.3230 C   0  0  0  0  0  2  0  0  0  0  0  0
  157.4050  211.9130  154.1360 C   0  0  0  0  0  2  0  0  0  0  0  0
  159.6200  210.7370  153.7250 C   0  0  2  0  0  0  0  0  0  0  0  0
  160.3050  207.8930  155.9440 C   0  0  0  0  0  0  0  0  0  0  0  0
  159.5430  210.0630  154.9870 O   0  0  0  0  0  0  0  0  0  0  0  0
  160.3310  209.7430  152.7760 C   0  0  0  0  0  2  0  0  0  0  0  0
  158.2210  211.0480  153.1820 C   0  0  0  0  0  2  0  0  0  0  0  0
  160.6530  208.5830  153.6670 C   0  0  0  0  0  0  0  0  0  0  0  0
  160.9750  206.7320  155.6820 N   0  0  0  0  0  0  0  0  0  0  0  0
  161.3450  207.3930  153.3850 C   0  0  0  0  0  0  0  0  0  0  0  0
  157.6370  213.3970  153.8660 C   0  0  1  0  0  3  0  0  0  0  0  0
  153.7620  213.9920  157.2160 C   0  0  0  0  0  1  0  0  0  0  0  0
  154.8560  214.4340  151.3000 O   0  0  0  0  0  0  0  0  0  0  0  0
  155.0390  214.3460  152.5310 C   0  0  0  0  0  0  0  0  0  0  0  0
  155.2390  214.2590  153.8280 C   0  0  0  0  0  0  0  0  0  0  0  0
  156.4160  214.4090  156.1830 S   0  0  0  0  0  0  0  0  0  0  0  0
  154.6370  214.1890  156.0350 C   0  0  1  0  0  3  0  0  0  0  0  0
  154.1610  214.1830  154.7930 C   0  0  0  0  0  2  0  0  0  0  0  0
  156.5400  214.1960  154.4260 N   0  0  0  0  0  0  0  0  0  0  0  0
  161.9230  207.0930  152.0550 C   0  0  0  0  0  0  0  0  0  0  0  0
  161.8450  205.7580  151.5390 N   0  0  0  0  0  2  0  0  0  0  0  0
  162.4750  208.0020  151.3740 O   0  0  0  0  0  0  0  0  0  0  0  0
  162.4640  205.3150  150.2900 C   0  0  0  0  0  2  0  0  0  0  0  0
  161.5110  204.4570  149.4300 C   0  0  1  0  0  3  0  0  0  0  0  0
  160.2460  206.7020  146.8550 N   0  0  0  0  0  0  0  0  0  0  0  0
  160.8740  205.7140  146.1720 C   0  0  0  0  0  0  0  0  0  0  0  0
  160.3940  206.3570  148.1500 C   0  0  0  0  0  3  0  0  0  0  0  0
  161.3840  204.8030  146.9660 O   0  0  0  0  0  0  0  0  0  0  0  0
  161.1080  205.1800  148.1890 C   0  0  0  0  0  0  0  0  0  0  0  0
  159.9650  203.5470  144.5340 O   0  0  0  0  0  1  0  0  0  0  0  0
  160.9950  205.6540  144.7040 C   0  0  0  0  0  3  0  0  0  0  0  0
  160.5740  204.6580  143.9880 N   0  0  0  0  0  0  0  0  0  0  0  0
  162.0550  203.0630  149.1080 C   0  0  0  0  0  2  0  0  0  0  0  0
  161.5710  200.9930  147.8950 O   0  0  0  0  0  1  0  0  0  0  0  0
  160.9990  202.1130  148.5100 C   0  0  1  0  0  3  0  0  0  0  0  0
  160.4340  201.5680  151.0110 C   0  0  0  0  0  1  0  0  0  0  0  0
  160.0210  201.6630  149.5680 C   0  0  0  0  0  0  0  0  0  0  0  0
  158.8850  201.3330  149.2460 O   0  0  0  0  0  0  0  0  0  0  0  0
  1 14  1  0  0  0  0
  2 10  1  0  0  0  0
  2  9  1  0  0  0  0
  4  5  1  0  0  0  0
  6  5  1  0  0  0  0
  8 11  1  6  0  0  0
  8  4  1  0  0  0  0
  8 10  1  0  0  0  0
  9  3  1  0  0  0  0
 11 13  1  0  0  0  0
 12  8  1  0  0  0  0
 12  7  1  0  0  0  0
 13  2  2  0  0  0  0
 14  9  2  0  0  0  0
 15 13  1  0  0  0  0
 15  1  2  0  0  0  0
 16  7  1  1  0  0  0
 16  6  1  0  0  0  0
 16 24  1  0  0  0  0
 18 19  2  0  0  0  0
 19 20  2  0  0  0  0
 20 24  1  0  0  0  0
 20 23  1  0  0  0  0
 22 21  1  0  0  0  0
 22 17  1  6  0  0  0
 23 22  1  0  0  0  0
 24 21  1  0  0  0  0
 25 15  1  0  0  0  0
 26 25  1  0  0  0  0
 27 25  2  0  0  0  0
 28 26  1  0  0  0  0
 29 38  1  6  0  0  0
 29 28  1  0  0  0  0
 30 32  1  0  0  0  0
 31 30  2  0  0  0  0
 31 33  1  0  0  0  0
 32 34  2  0  0  0  0
 33 34  1  0  0  0  0
 34 29  1  0  0  0  0
 36 31  1  0  0  0  0
 37 35  1  0  0  0  0
 37 36  2  0  0  0  0
 40 39  1  1  0  0  0
 40 38  1  0  0  0  0
 40 42  1  0  0  0  0
 42 41  1  0  0  0  0
 43 42  2  0  0  0  0
M  END
>  <MODEL>
3

>  <REMARK>
 VINA RESULT:      -5.1      1.666      3.024
  Name = 
  9 active torsions:
  status: ('A' for Active; 'I' for Inactive)
    1  A    between atoms: C_2  and  C_16
    2  A    between atoms: C_2  and  N_30
    3  A    between atoms: C_5  and  C_41
    4  A    between atoms: C_9  and  C_18
    5  A    between atoms: C_14  and  C_16
    6  A    between atoms: C_14  and  C_34
    7  A    between atoms: C_16  and  C_43
    8  A    between atoms: C_20  and  C_34
    9  A    between atoms: N_38  and  C_42
                            x       y       z     vdW  Elec       q    Type
                         _______ _______ _______ _____ _____    ______ ____

>  <TORSDO>
F 9

$$$$
=
 OpenBabel11072413353D

 43 47  0  0  1  0  0  0  0  0999 V2000
  162.2980  208.2340  150.9110 C   0  0  0  0  0  3  0  0  0  0  0  0
  161.6300  209.7320  148.7000 C   0  0  0  0  0  0  0  0  0  0  0  0
  161.4020  207.6710  147.3840 N   0  0  0  0  0  1  0  0  0  0  0  0
  159.9230  212.5910  148.1990 C   0  0  0  0  0  2  0  0  0  0  0  0
  159.2820  212.5570  146.8250 C   0  0  0  0  0  2  0  0  0  0  0  0
  159.5820  213.8400  146.0450 C   0  0  0  0  0  2  0  0  0  0  0  0
  161.9980  212.8640  145.9170 C   0  0  0  0  0  2  0  0  0  0  0  0
  161.3270  211.9700  148.1990 C   0  0  2  0  0  0  0  0  0  0  0  0
  161.6780  208.3380  148.6100 C   0  0  0  0  0  0  0  0  0  0  0  0
  161.2850  210.6250  147.7060 O   0  0  0  0  0  0  0  0  0  0  0  0
  161.8060  211.8500  149.6660 C   0  0  0  0  0  2  0  0  0  0  0  0
  162.3280  212.8160  147.4040 C   0  0  0  0  0  2  0  0  0  0  0  0
  161.9250  210.3710  149.8720 C   0  0  0  0  0  0  0  0  0  0  0  0
  162.0130  207.6200  149.7230 N   0  0  0  0  0  0  0  0  0  0  0  0
  162.2700  209.6440  151.0230 C   0  0  0  0  0  0  0  0  0  0  0  0
  161.0540  214.0200  145.6020 C   0  0  1  0  0  3  0  0  0  0  0  0
  159.9770  212.9320  140.6780 C   0  0  0  0  0  1  0  0  0  0  0  0
  164.6710  214.4530  144.1470 O   0  0  0  0  0  0  0  0  0  0  0  0
  163.4990  214.2690  143.7610 C   0  0  0  0  0  0  0  0  0  0  0  0
  162.2610  214.0840  143.3580 C   0  0  0  0  0  0  0  0  0  0  0  0
  159.6370  214.2900  143.1920 S   0  0  0  0  0  0  0  0  0  0  0  0
  160.6060  213.5440  141.8730 C   0  0  1  0  0  3  0  0  0  0  0  0
  161.9230  213.5490  142.0550 C   0  0  0  0  0  2  0  0  0  0  0  0
  161.1150  214.3560  144.1730 N   0  0  0  0  0  0  0  0  0  0  0  0
  162.5750  210.2880  152.3210 C   0  0  0  0  0  0  0  0  0  0  0  0
  161.5370  210.4280  153.2990 N   0  0  0  0  0  2  0  0  0  0  0  0
  163.7400  210.7060  152.5730 O   0  0  0  0  0  0  0  0  0  0  0  0
  161.6860  211.1340  154.5720 C   0  0  0  0  0  2  0  0  0  0  0  0
  160.3950  211.1060  155.4170 C   0  0  1  0  0  3  0  0  0  0  0  0
  158.1800  212.9990  153.2310 N   0  0  0  0  0  0  0  0  0  0  0  0
  157.3880  212.5890  154.2510 C   0  0  0  0  0  0  0  0  0  0  0  0
  159.3980  212.5100  153.5380 C   0  0  0  0  0  3  0  0  0  0  0  0
  158.0450  211.8910  155.1460 O   0  0  0  0  0  0  0  0  0  0  0  0
  159.2840  211.8220  154.7260 C   0  0  0  0  0  0  0  0  0  0  0  0
  156.1550  214.0760  156.3660 O   0  0  0  0  0  1  0  0  0  0  0  0
  155.9450  212.8700  154.3590 C   0  0  0  0  0  3  0  0  0  0  0  0
  155.4140  213.5470  155.3300 N   0  0  0  0  0  0  0  0  0  0  0  0
  159.9660  209.6990  155.8440 C   0  0  0  0  0  2  0  0  0  0  0  0
  161.8510  208.5430  156.8920 O   0  0  0  0  0  1  0  0  0  0  0  0
  161.0880  208.6510  155.7230 C   0  0  1  0  0  3  0  0  0  0  0  0
  160.9450  206.5950  154.1030 C   0  0  0  0  0  1  0  0  0  0  0  0
  160.5230  207.2980  155.3640 C   0  0  0  0  0  0  0  0  0  0  0  0
  159.6810  206.7780  156.0870 O   0  0  0  0  0  0  0  0  0  0  0  0
  1 15  1  0  0  0  0
  2 13  1  0  0  0  0
  3  9  1  0  0  0  0
  5  4  1  0  0  0  0
  6  5  1  0  0  0  0
  7 12  1  0  0  0  0
  8 12  1  6  0  0  0
  8  4  1  0  0  0  0
  8 11  1  0  0  0  0
  9  2  2  0  0  0  0
  9 14  1  0  0  0  0
 10  8  1  0  0  0  0
 10  2  1  0  0  0  0
 11 13  1  0  0  0  0
 13 15  2  0  0  0  0
 14  1  2  0  0  0  0
 15 25  1  0  0  0  0
 16 24  1  6  0  0  0
 16  7  1  0  0  0  0
 16  6  1  0  0  0  0
 19 18  2  0  0  0  0
 20 19  2  0  0  0  0
 20 24  1  0  0  0  0
 21 24  1  0  0  0  0
 22 17  1  1  0  0  0
 22 23  1  0  0  0  0
 22 21  1  0  0  0  0
 23 20  1  0  0  0  0
 25 27  2  0  0  0  0
 25 26  1  0  0  0  0
 26 28  1  0  0  0  0
 29 28  1  6  0  0  0
 29 38  1  0  0  0  0
 30 32  1  0  0  0  0
 30 31  2  0  0  0  0
 31 36  1  0  0  0  0
 31 33  1  0  0  0  0
 32 34  2  0  0  0  0
 34 33  1  0  0  0  0
 34 29  1  0  0  0  0
 36 37  2  0  0  0  0
 37 35  1  0  0  0  0
 40 38  1  0  0  0  0
 40 39  1  1  0  0  0
 41 42  1  0  0  0  0
 42 40  1  0  0  0  0
 42 43  2  0  0  0  0
M  END
>  <MODEL>
4

>  <REMARK>
 VINA RESULT:      -4.6      5.170      9.743
  Name = 
  9 active torsions:
  status: ('A' for Active; 'I' for Inactive)
    1  A    between atoms: C_2  and  C_16
    2  A    between atoms: C_2  and  N_30
    3  A    between atoms: C_5  and  C_41
    4  A    between atoms: C_9  and  C_18
    5  A    between atoms: C_14  and  C_16
    6  A    between atoms: C_14  and  C_34
    7  A    between atoms: C_16  and  C_43
    8  A    between atoms: C_20  and  C_34
    9  A    between atoms: N_38  and  C_42
                            x       y       z     vdW  Elec       q    Type
                         _______ _______ _______ _____ _____    ______ ____

>  <TORSDO>
F 9

$$$$
=
 OpenBabel11072413353D

 43 47  0  0  1  0  0  0  0  0999 V2000
  160.7360  212.8400  150.9900 C   0  0  0  0  0  3  0  0  0  0  0  0
  161.4630  210.2730  150.3070 C   0  0  0  0  0  0  0  0  0  0  0  0
  162.8170  211.1590  148.4590 N   0  0  0  0  0  1  0  0  0  0  0  0
  162.0820  207.4460  152.0270 C   0  0  0  0  0  2  0  0  0  0  0  0
  163.0820  206.6020  151.2610 C   0  0  0  0  0  2  0  0  0  0  0  0
  162.5930  205.1570  151.1230 C   0  0  0  0  0  2  0  0  0  0  0  0
  160.8620  206.1950  149.4700 C   0  0  0  0  0  2  0  0  0  0  0  0
  161.0720  208.1350  151.0990 C   0  0  2  0  0  0  0  0  0  0  0  0
  161.9540  211.3560  149.5720 C   0  0  0  0  0  0  0  0  0  0  0  0
  161.7490  208.9350  150.1210 O   0  0  0  0  0  0  0  0  0  0  0  0
  160.2420  209.1350  151.9380 C   0  0  0  0  0  2  0  0  0  0  0  0
  160.1310  207.1290  150.4270 C   0  0  0  0  0  2  0  0  0  0  0  0
  160.6100  210.4660  151.3570 C   0  0  0  0  0  0  0  0  0  0  0  0
  161.5760  212.6180  149.9340 N   0  0  0  0  0  0  0  0  0  0  0  0
  160.2150  211.7590  151.7390 C   0  0  0  0  0  0  0  0  0  0  0  0
  161.3710  204.9530  150.1970 C   0  0  1  0  0  3  0  0  0  0  0  0
  160.5330  202.6700  145.6500 C   0  0  0  0  0  1  0  0  0  0  0  0
  160.6610  201.3330  151.5310 O   0  0  0  0  0  0  0  0  0  0  0  0
  160.8270  201.9410  150.4550 C   0  0  0  0  0  0  0  0  0  0  0  0
  161.0120  202.5860  149.3230 C   0  0  0  0  0  0  0  0  0  0  0  0
  161.9930  204.2690  147.5450 S   0  0  0  0  0  0  0  0  0  0  0  0
  160.9580  202.8820  147.0550 C   0  0  1  0  0  3  0  0  0  0  0  0
  160.5720  202.0770  148.0400 C   0  0  0  0  0  2  0  0  0  0  0  0
  161.6360  203.8730  149.2380 N   0  0  0  0  0  0  0  0  0  0  0  0
  159.3120  212.0200  152.8830 C   0  0  0  0  0  0  0  0  0  0  0  0
  159.7250  212.9290  153.9120 N   0  0  0  0  0  2  0  0  0  0  0  0
  158.1840  211.4560  152.9550 O   0  0  0  0  0  0  0  0  0  0  0  0
  158.9700  213.1920  155.1380 C   0  0  0  0  0  2  0  0  0  0  0  0
  158.5090  211.8950  155.8370 C   0  0  1  0  0  3  0  0  0  0  0  0
  161.5320  210.2450  157.0220 N   0  0  0  0  0  0  0  0  0  0  0  0
  160.9780  209.3640  156.1540 C   0  0  0  0  0  0  0  0  0  0  0  0
  160.6930  211.2990  157.0090 C   0  0  0  0  0  3  0  0  0  0  0  0
  159.8690  209.8180  155.6210 O   0  0  0  0  0  0  0  0  0  0  0  0
  159.6680  211.0050  156.1360 C   0  0  0  0  0  0  0  0  0  0  0  0
  159.4760  206.9260  156.1010 O   0  0  0  0  0  1  0  0  0  0  0  0
  161.5320  208.0350  155.8380 C   0  0  0  0  0  3  0  0  0  0  0  0
  160.8260  206.9470  155.8220 N   0  0  0  0  0  0  0  0  0  0  0  0
  157.6570  212.1350  157.0860 C   0  0  0  0  0  2  0  0  0  0  0  0
  155.9460  213.8440  156.7120 O   0  0  0  0  0  1  0  0  0  0  0  0
  156.1860  212.4660  156.7720 C   0  0  1  0  0  3  0  0  0  0  0  0
  155.5780  210.3320  155.3760 C   0  0  0  0  0  1  0  0  0  0  0  0
  155.7540  211.8220  155.4770 C   0  0  0  0  0  0  0  0  0  0  0  0
  155.5800  212.5150  154.4810 O   0  0  0  0  0  0  0  0  0  0  0  0
  1 15  1  0  0  0  0
  2 13  1  0  0  0  0
  3  9  1  0  0  0  0
  5  4  1  0  0  0  0
  6  5  1  0  0  0  0
  7 16  1  0  0  0  0
  7 12  1  0  0  0  0
  8 12  1  6  0  0  0
  8 11  1  0  0  0  0
  8  4  1  0  0  0  0
  9 14  1  0  0  0  0
  9  2  2  0  0  0  0
 10  2  1  0  0  0  0
 10  8  1  0  0  0  0
 13 15  2  0  0  0  0
 13 11  1  0  0  0  0
 14  1  2  0  0  0  0
 15 25  1  0  0  0  0
 16 24  1  6  0  0  0
 16  6  1  0  0  0  0
 19 18  2  0  0  0  0
 20 19  2  0  0  0  0
 21 24  1  0  0  0  0
 22 17  1  1  0  0  0
 22 21  1  0  0  0  0
 22 23  1  0  0  0  0
 23 20  1  0  0  0  0
 24 20  1  0  0  0  0
 25 27  2  0  0  0  0
 25 26  1  0  0  0  0
 26 28  1  0  0  0  0
 29 28  1  1  0  0  0
 29 34  1  0  0  0  0
 29 38  1  0  0  0  0
 31 30  2  0  0  0  0
 32 30  1  0  0  0  0
 33 34  1  0  0  0  0
 33 31  1  0  0  0  0
 34 32  2  0  0  0  0
 36 31  1  0  0  0  0
 37 36  2  0  0  0  0
 37 35  1  0  0  0  0
 40 39  1  6  0  0  0
 40 38  1  0  0  0  0
 41 42  1  0  0  0  0
 42 40  1  0  0  0  0
 43 42  2  0  0  0  0
M  END
>  <MODEL>
5

>  <REMARK>
 VINA RESULT:      -3.8      3.305     10.093
  Name = 
  9 active torsions:
  status: ('A' for Active; 'I' for Inactive)
    1  A    between atoms: C_2  and  C_16
    2  A    between atoms: C_2  and  N_30
    3  A    between atoms: C_5  and  C_41
    4  A    between atoms: C_9  and  C_18
    5  A    between atoms: C_14  and  C_16
    6  A    between atoms: C_14  and  C_34
    7  A    between atoms: C_16  and  C_43
    8  A    between atoms: C_20  and  C_34
    9  A    between atoms: N_38  and  C_42
                            x       y       z     vdW  Elec       q    Type
                         _______ _______ _______ _____ _____    ______ ____

>  <TORSDO>
F 9

$$$$
