=
 OpenBabel11072412483D

 52 57  0  0  1  0  0  0  0  0999 V2000
  159.3800  210.5960  155.4290 C   0  0  1  0  0  3  0  0  0  0  0  0
  157.7090  212.4860  154.0340 C   0  0  0  0  0  0  0  0  0  0  0  0
  160.2730  209.7970  153.2350 C   0  0  0  0  0  3  0  0  0  0  0  0
  160.9650  208.8200  153.8380 C   0  0  0  0  0  0  0  0  0  0  0  0
  159.7610  210.9990  153.9900 C   0  0  1  0  0  3  0  0  0  0  0  0
  157.5800  212.2850  155.5310 C   0  0  1  0  0  3  0  0  0  0  0  0
  160.5620  209.9400  156.1470 C   0  0  0  0  0  2  0  0  0  0  0  0
  159.9120  212.8800  156.3580 C   0  0  0  0  0  1  0  0  0  0  0  0
  158.8530  211.7880  156.2210 C   0  0  2  0  0  3  0  0  0  0  0  0
  161.9100  208.0020  155.8720 O   0  0  0  0  0  0  0  0  0  0  0  0
  158.6670  211.6990  153.2810 N   0  0  0  0  0  0  0  0  0  0  0  0
  161.1790  208.8590  155.3090 C   0  0  0  0  0  0  0  0  0  0  0  0
  156.7900  213.2150  153.4050 C   0  0  0  0  0  2  0  0  0  0  0  0
  161.3370  206.3770  153.6490 C   0  0  0  0  0  2  0  0  0  0  0  0
  161.0290  207.8020  151.5390 C   0  0  1  0  0  3  0  0  0  0  0  0
  160.3580  206.5030  151.0590 C   0  0  0  0  0  2  0  0  0  0  0  0
  161.5590  207.7380  152.9860 C   0  0  1  0  0  3  0  0  0  0  0  0
  161.2190  205.2660  151.3480 C   0  0  1  0  0  3  0  0  0  0  0  0
  161.8540  205.2560  152.7520 C   0  0  0  0  0  2  0  0  0  0  0  0
  160.4250  203.9930  151.0750 C   0  0  2  0  0  3  0  0  0  0  0  0
  160.3190  203.2300  152.2240 F   0  0  0  0  0  0  0  0  0  0  0  0
  161.0640  203.1690  149.9660 C   0  0  0  0  0  2  0  0  0  0  0  0
  160.4690  201.7720  149.9340 C   0  0  0  0  0  1  0  0  0  0  0  0
  162.0600  208.3840  150.5590 C   0  0  2  0  0  3  0  0  0  0  0  0
  162.4000  209.8120  150.9390 C   0  0  0  0  0  2  0  0  0  0  0  0
  161.7030  210.6940  150.1110 O   0  0  0  0  0  0  0  0  0  0  0  0
  162.6160  211.0620  149.1300 C   0  0  0  0  0  1  0  0  0  0  0  0
  161.6240  208.3230  149.1000 C   0  0  0  0  0  2  0  0  0  0  0  0
  161.4890  206.1870  147.7540 C   0  0  0  0  0  0  0  0  0  0  0  0
  160.2380  206.3040  147.6500 O   0  0  0  0  0  0  0  0  0  0  0  0
  162.2470  207.1830  148.4490 N   0  0  0  0  0  2  0  0  0  0  0  0
  162.1620  204.9770  147.1490 C   0  0  1  0  0  0  0  0  0  0  0  0
  163.6450  203.8340  145.5110 O   0  0  0  0  0  1  0  0  0  0  0  0
  163.0500  205.0410  145.8830 C   0  0  2  0  0  0  0  0  0  0  0  0
  163.5240  205.2980  147.1700 O   0  0  0  0  0  0  0  0  0  0  0  0
  161.5810  204.7730  145.7580 C   0  0  2  0  0  3  0  0  0  0  0  0
  160.8960  205.7130  143.6690 O   0  0  0  0  0  1  0  0  0  0  0  0
  160.9610  205.9710  145.0360 C   0  0  0  0  0  2  0  0  0  0  0  0
  156.8470  213.2590  156.2550 O   0  0  0  0  0  0  0  0  0  0  0  0
  155.9220  212.6250  157.0950 C   0  0  0  0  0  1  0  0  0  0  0  0
  158.8250  211.9880  151.8500 C   0  0  0  0  0  2  0  0  0  0  0  0
  159.4940  213.3420  151.5990 C   0  0  0  0  0  2  0  0  0  0  0  0
  158.8600  213.1880  147.9700 C   0  0  0  0  0  3  0  0  0  0  0  0
  159.8970  213.4200  149.0780 C   0  0  2  0  0  3  0  0  0  0  0  0
  156.7540  214.1730  150.6190 O   0  0  0  0  0  0  0  0  0  0  0  0
  157.7250  213.8610  149.8810 C   0  0  0  0  0  0  0  0  0  0  0  0
  159.1400  214.0150  150.2670 C   0  0  1  0  0  3  0  0  0  0  0  0
  157.5520  213.3760  148.5710 N   0  0  0  0  0  0  0  0  0  0  0  0
  160.9690  214.3740  148.5680 C   0  0  0  0  0  2  0  0  0  0  0  0
  161.9070  213.6800  147.5870 C   0  0  0  0  0  2  0  0  0  0  0  0
  161.9640  214.4330  146.2680 C   0  0  0  0  0  2  0  0  0  0  0  0
  162.6910  213.7020  145.3320 O   0  0  0  0  0  1  0  0  0  0  0  0
  1  7  1  1  0  0  0
  1  9  1  0  0  0  0
  2  6  1  0  0  0  0
  3  4  2  0  0  0  0
  4 12  1  0  0  0  0
  5  3  1  6  0  0  0
  5  1  1  0  0  0  0
  6  9  1  0  0  0  0
  6 39  1  1  0  0  0
  9  8  1  6  0  0  0
 11  5  1  0  0  0  0
 11  2  1  0  0  0  0
 12 10  2  0  0  0  0
 12  7  1  0  0  0  0
 13  2  2  0  0  0  0
 15 24  1  6  0  0  0
 15 17  1  0  0  0  0
 16 18  1  0  0  0  0
 16 15  1  0  0  0  0
 17 14  1  0  0  0  0
 17  4  1  1  0  0  0
 18 20  1  1  0  0  0
 18 19  1  0  0  0  0
 19 14  1  0  0  0  0
 20 21  1  1  0  0  0
 22 20  1  0  0  0  0
 23 22  1  0  0  0  0
 24 28  1  6  0  0  0
 24 25  1  0  0  0  0
 26 25  1  0  0  0  0
 27 26  1  0  0  0  0
 29 31  1  0  0  0  0
 30 29  2  0  0  0  0
 31 28  1  0  0  0  0
 32 35  1  0  0  0  0
 32 29  1  6  0  0  0
 34 33  1  1  0  0  0
 34 32  1  0  0  0  0
 34 35  1  0  0  0  0
 36 38  1  6  0  0  0
 36 34  1  0  0  0  0
 36 32  1  0  0  0  0
 37 38  1  0  0  0  0
 39 40  1  0  0  0  0
 41 11  1  0  0  0  0
 42 41  1  0  0  0  0
 43 48  2  0  0  0  0
 43 44  1  0  0  0  0
 44 49  1  6  0  0  0
 44 47  1  0  0  0  0
 46 47  1  0  0  0  0
 46 45  2  0  0  0  0
 47 42  1  1  0  0  0
 48 46  1  0  0  0  0
 50 49  1  0  0  0  0
 51 50  1  0  0  0  0
 52 51  1  0  0  0  0
M  END
>  <MODEL>
1

>  <REMARK>
 VINA RESULT:      -7.3      0.000      0.000
  Name = 
  17 active torsions:
  status: ('A' for Active; 'I' for Inactive)
    1  A    between atoms: C_2  and  C_24
    2  A    between atoms: C_3  and  O_23
    3  A    between atoms: C_3  and  C_46
    4  A    between atoms: C_5  and  C_18
    5  A    between atoms: C_7  and  C_17
    6  A    between atoms: C_7  and  C_42
    7  A    between atoms: C_10  and  C_27
    8  A    between atoms: C_11  and  C_46
    9  A    between atoms: C_14  and  C_44
   10  A    between atoms: C_16  and  C_43
   11  A    between atoms: C_19  and  O_25
   12  A    between atoms: C_24  and  C_44
   13  A    between atoms: C_28  and  C_31
   14  A    between atoms: C_28  and  C_39
   15  A    between atoms: C_31  and  N_41
   16  A    between atoms: C_34  and  C_46
   17  A    between atoms: C_34  and  N_52
                            x       y       z     vdW  Elec       q    Type
                         _______ _______ _______ _____ _____    ______ ____

>  <TORSDO>
F 17

$$$$
