=
 OpenBabel11072411373D

 25 30  0  0  1  0  0  0  0  0999 V2000
  156.1380  214.4530  153.9840 O   0  0  0  0  0  0  0  0  0  0  0  0
  157.1250  213.6700  154.0090 C   0  0  0  0  0  0  0  0  0  0  0  0
  161.2360  209.2590  155.4720 C   0  0  1  0  0  0  0  0  0  0  0  0
  157.2720  211.5130  155.1580 C   0  0  2  0  0  0  0  0  0  0  0  0
  155.5900  212.4040  156.5380 C   0  0  0  0  0  2  0  0  0  0  0  0
  161.6070  208.2270  154.3730 C   0  0  2  0  0  3  0  0  0  0  0  0
  157.8970  210.7130  154.0310 C   0  0  1  0  0  3  0  0  0  0  0  0
  159.0490  211.3700  153.3000 C   0  0  0  0  0  0  0  0  0  0  0  0
  162.9450  210.7270  154.5840 O   0  0  0  0  0  1  0  0  0  0  0  0
  156.6530  213.4120  156.3930 N   0  0  0  0  0  2  0  0  0  0  0  0
  160.3920  210.7530  153.4840 C   0  0  2  0  0  3  0  0  0  0  0  0
  161.9770  210.5950  155.5840 C   0  0  1  0  0  3  0  0  0  0  0  0
  157.8540  213.4380  152.7980 N   0  0  0  0  0  2  0  0  0  0  0  0
  160.4770  209.4150  152.7570 C   0  0  0  0  0  2  0  0  0  0  0  0
  158.9830  212.5650  152.7050 C   0  0  0  0  0  3  0  0  0  0  0  0
  160.5590  210.5350  155.0000 C   0  0  2  0  0  0  0  0  0  0  0  0
  160.7800  208.7760  156.7020 O   0  0  0  0  0  1  0  0  0  0  0  0
  157.5270  212.9870  155.2990 C   0  0  2  0  0  3  0  0  0  0  0  0
  158.3280  210.4740  155.5090 C   0  0  1  0  0  3  0  0  0  0  0  0
  161.6950  208.7800  153.0720 O   0  0  0  0  0  0  0  0  0  0  0  0
  159.5680  211.0750  155.8510 O   0  0  0  0  0  0  0  0  0  0  0  0
  155.0000  211.0570  154.6680 O   0  0  0  0  0  1  0  0  0  0  0  0
  155.9240  211.1720  155.7070 C   0  0  1  0  0  3  0  0  0  0  0  0
  160.7150  206.9860  154.3900 C   0  0  0  0  0  2  0  0  0  0  0  0
  161.2510  205.9990  153.5640 O   0  0  0  0  0  1  0  0  0  0  0  0
  1  2  2  0  0  0  0
  2 18  1  0  0  0  0
  3 12  1  0  0  0  0
  3 17  1  1  0  0  0
  4 18  1  0  0  0  0
  4 19  1  0  0  0  0
  4 23  1  0  0  0  0
  6 24  1  0  0  0  0
  6  3  1  0  0  0  0
  7  4  1  0  0  0  0
  7 19  1  0  0  0  0
  8 11  1  0  0  0  0
  8  7  1  0  0  0  0
  9 12  1  0  0  0  0
 10  5  1  0  0  0  0
 11 16  1  0  0  0  0
 13  2  1  0  0  0  0
 14 20  1  0  0  0  0
 14 11  1  0  0  0  0
 15 13  1  0  0  0  0
 15  8  2  0  0  0  0
 16  3  1  0  0  0  0
 16 12  1  0  0  0  0
 16 21  1  0  0  0  0
 18 10  1  0  0  0  0
 19 21  1  0  0  0  0
 20  6  1  0  0  0  0
 22 23  1  0  0  0  0
 23  5  1  0  0  0  0
 25 24  1  0  0  0  0
M  END
>  <MODEL>
1

>  <REMARK>
 VINA RESULT:      -4.4      0.000      0.000
  Name = 
  1 active torsions:
  status: ('A' for Active; 'I' for Inactive)
    1  A    between atoms: C_6  and  C_18
                            x       y       z     vdW  Elec       q    Type
                         _______ _______ _______ _____ _____    ______ ____

>  <TORSDO>
F 1

$$$$
=
 OpenBabel11072411373D

 25 30  0  0  1  0  0  0  0  0999 V2000
  161.8580  207.1620  152.3360 O   0  0  0  0  0  0  0  0  0  0  0  0
  161.8540  206.8870  151.1060 C   0  0  0  0  0  0  0  0  0  0  0  0
  161.7940  204.0050  145.6120 C   0  0  1  0  0  0  0  0  0  0  0  0
  161.1030  204.8060  150.0590 C   0  0  2  0  0  0  0  0  0  0  0  0
  161.5790  203.8580  152.1560 C   0  0  0  0  0  2  0  0  0  0  0  0
  160.7030  204.4230  144.5900 C   0  0  2  0  0  3  0  0  0  0  0  0
  160.2810  205.4150  148.9380 C   0  0  1  0  0  3  0  0  0  0  0  0
  160.9180  206.5660  148.1870 C   0  0  0  0  0  0  0  0  0  0  0  0
  163.1760  205.8140  144.7840 O   0  0  0  0  0  1  0  0  0  0  0  0
  162.7200  204.6970  151.7560 N   0  0  0  0  0  2  0  0  0  0  0  0
  161.2930  206.3080  146.7690 C   0  0  2  0  0  3  0  0  0  0  0  0
  163.1280  204.7530  145.6930 C   0  0  1  0  0  3  0  0  0  0  0  0
  161.4200  207.8880  150.1770 N   0  0  0  0  0  2  0  0  0  0  0  0
  160.0500  206.2070  145.8920 C   0  0  0  0  0  2  0  0  0  0  0  0
  161.3640  207.6860  148.7610 C   0  0  0  0  0  3  0  0  0  0  0  0
  162.0470  204.9650  146.7610 C   0  0  2  0  0  0  0  0  0  0  0  0
  161.8980  202.6520  145.9460 O   0  0  0  0  0  1  0  0  0  0  0  0
  162.2950  205.5220  150.6250 C   0  0  2  0  0  3  0  0  0  0  0  0
  161.1370  204.1370  148.6910 C   0  0  1  0  0  3  0  0  0  0  0  0
  160.4180  205.8110  144.5900 O   0  0  0  0  0  0  0  0  0  0  0  0
  162.3580  204.3840  148.0120 O   0  0  0  0  0  0  0  0  0  0  0  0
  159.3690  204.5850  151.6570 O   0  0  0  0  0  1  0  0  0  0  0  0
  160.4790  203.9420  151.1070 C   0  0  1  0  0  3  0  0  0  0  0  0
  159.4240  203.5950  144.7060 C   0  0  0  0  0  2  0  0  0  0  0  0
  159.7050  202.2470  144.4870 O   0  0  0  0  0  1  0  0  0  0  0  0
  2  1  2  0  0  0  0
  3 12  1  0  0  0  0
  3 17  1  1  0  0  0
  3 16  1  0  0  0  0
  4 18  1  0  0  0  0
  4 23  1  0  0  0  0
  6 20  1  0  0  0  0
  6 24  1  0  0  0  0
  6  3  1  0  0  0  0
  7  4  1  0  0  0  0
  8 15  2  0  0  0  0
  8  7  1  0  0  0  0
  9 12  1  0  0  0  0
 10  5  1  0  0  0  0
 11  8  1  0  0  0  0
 12 16  1  0  0  0  0
 13  2  1  0  0  0  0
 14 11  1  0  0  0  0
 15 13  1  0  0  0  0
 16 11  1  0  0  0  0
 16 21  1  0  0  0  0
 18  2  1  0  0  0  0
 18 10  1  0  0  0  0
 19  7  1  0  0  0  0
 19  4  1  0  0  0  0
 20 14  1  0  0  0  0
 21 19  1  0  0  0  0
 23 22  1  0  0  0  0
 23  5  1  0  0  0  0
 25 24  1  0  0  0  0
M  END
>  <MODEL>
2

>  <REMARK>
 VINA RESULT:      -4.1      7.076      9.697
  Name = 
  1 active torsions:
  status: ('A' for Active; 'I' for Inactive)
    1  A    between atoms: C_6  and  C_18
                            x       y       z     vdW  Elec       q    Type
                         _______ _______ _______ _____ _____    ______ ____

>  <TORSDO>
F 1

$$$$
=
 OpenBabel11072411373D

 25 30  0  0  1  0  0  0  0  0999 V2000
  161.2790  202.6670  145.7950 O   0  0  0  0  0  0  0  0  0  0  0  0
  161.4170  203.2640  146.8970 C   0  0  0  0  0  0  0  0  0  0  0  0
  162.4080  207.4750  151.3450 C   0  0  1  0  0  0  0  0  0  0  0  0
  161.2700  205.6740  147.3000 C   0  0  2  0  0  0  0  0  0  0  0  0
  161.8370  205.8480  145.0260 C   0  0  0  0  0  2  0  0  0  0  0  0
  161.3110  207.6490  152.4300 C   0  0  2  0  0  3  0  0  0  0  0  0
  160.3920  205.6300  148.5380 C   0  0  1  0  0  3  0  0  0  0  0  0
  160.7700  204.6110  149.5920 C   0  0  0  0  0  0  0  0  0  0  0  0
  163.3460  205.6770  152.6690 O   0  0  0  0  0  1  0  0  0  0  0  0
  162.7580  204.8920  145.6620 N   0  0  0  0  0  2  0  0  0  0  0  0
  161.2820  205.1480  150.8830 C   0  0  2  0  0  3  0  0  0  0  0  0
  163.5070  206.4190  151.4950 C   0  0  1  0  0  3  0  0  0  0  0  0
  160.8070  202.7060  148.0660 N   0  0  0  0  0  2  0  0  0  0  0  0
  160.1590  205.8010  151.6800 C   0  0  0  0  0  2  0  0  0  0  0  0
  160.8890  203.2990  149.3650 C   0  0  0  0  0  3  0  0  0  0  0  0
  162.3440  206.2010  150.5180 C   0  0  2  0  0  0  0  0  0  0  0  0
  162.8220  208.6090  150.6410 O   0  0  0  0  0  1  0  0  0  0  0  0
  162.2110  204.5500  146.9750 C   0  0  2  0  0  3  0  0  0  0  0  0
  161.5520  206.6650  148.4210 C   0  0  1  0  0  3  0  0  0  0  0  0
  160.6920  206.4350  152.8200 O   0  0  0  0  0  0  0  0  0  0  0  0
  162.7130  206.3140  149.1580 O   0  0  0  0  0  0  0  0  0  0  0  0
  159.5510  205.8760  145.6840 O   0  0  0  0  0  1  0  0  0  0  0  0
  160.8160  206.3420  146.0420 C   0  0  1  0  0  3  0  0  0  0  0  0
  160.2720  208.7100  152.0680 C   0  0  0  0  0  2  0  0  0  0  0  0
  160.4570  209.8480  152.8510 O   0  0  0  0  0  1  0  0  0  0  0  0
  1  2  2  0  0  0  0
  2 18  1  0  0  0  0
  2 13  1  0  0  0  0
  3 17  1  6  0  0  0
  3 12  1  0  0  0  0
  3  6  1  0  0  0  0
  4 19  1  0  0  0  0
  4  7  1  0  0  0  0
  5 10  1  0  0  0  0
  5 23  1  0  0  0  0
  6 20  1  0  0  0  0
  7  8  1  0  0  0  0
  8 11  1  0  0  0  0
 10 18  1  0  0  0  0
 11 14  1  0  0  0  0
 12  9  1  0  0  0  0
 13 15  1  0  0  0  0
 14 20  1  0  0  0  0
 15  8  2  0  0  0  0
 16 11  1  0  0  0  0
 16  3  1  0  0  0  0
 16 12  1  0  0  0  0
 18  4  1  0  0  0  0
 19  7  1  0  0  0  0
 19 21  1  0  0  0  0
 21 16  1  0  0  0  0
 22 23  1  0  0  0  0
 23  4  1  0  0  0  0
 24  6  1  0  0  0  0
 24 25  1  0  0  0  0
M  END
>  <MODEL>
3

>  <REMARK>
 VINA RESULT:      -3.9      6.238      9.328
  Name = 
  1 active torsions:
  status: ('A' for Active; 'I' for Inactive)
    1  A    between atoms: C_6  and  C_18
                            x       y       z     vdW  Elec       q    Type
                         _______ _______ _______ _____ _____    ______ ____

>  <TORSDO>
F 1

$$$$
=
 OpenBabel11072411373D

 25 30  0  0  1  0  0  0  0  0999 V2000
  161.7890  206.7200  148.3700 O   0  0  0  0  0  0  0  0  0  0  0  0
  161.6070  207.4300  149.3950 C   0  0  0  0  0  0  0  0  0  0  0  0
  160.2100  209.5090  155.0720 C   0  0  1  0  0  0  0  0  0  0  0  0
  161.4480  206.6640  151.7150 C   0  0  2  0  0  0  0  0  0  0  0  0
  160.7910  204.6260  150.7450 C   0  0  0  0  0  2  0  0  0  0  0  0
  161.3080  210.2890  155.8450 C   0  0  2  0  0  3  0  0  0  0  0  0
  162.3620  207.6980  152.3450 C   0  0  1  0  0  3  0  0  0  0  0  0
  162.1560  209.1330  151.9050 C   0  0  0  0  0  0  0  0  0  0  0  0
  159.5590  211.5900  154.0170 O   0  0  0  0  0  1  0  0  0  0  0  0
  160.0260  205.7100  150.1090 N   0  0  0  0  0  2  0  0  0  0  0  0
  161.6180  210.0720  152.9280 C   0  0  2  0  0  3  0  0  0  0  0  0
  159.2640  210.2260  154.1030 C   0  0  1  0  0  3  0  0  0  0  0  0
  162.3220  208.6660  149.5150 N   0  0  0  0  0  2  0  0  0  0  0  0
  162.6690  210.3740  153.9890 C   0  0  0  0  0  2  0  0  0  0  0  0
  162.2040  209.5470  150.6350 C   0  0  0  0  0  3  0  0  0  0  0  0
  160.4150  209.3600  153.5740 C   0  0  2  0  0  0  0  0  0  0  0  0
  159.6270  208.4030  155.6960 O   0  0  0  0  0  1  0  0  0  0  0  0
  160.6530  206.9790  150.4800 C   0  0  2  0  0  3  0  0  0  0  0  0
  161.0730  207.2230  153.0800 C   0  0  1  0  0  3  0  0  0  0  0  0
  162.0930  211.1370  155.0250 O   0  0  0  0  0  0  0  0  0  0  0  0
  159.9920  208.1390  152.9980 O   0  0  0  0  0  0  0  0  0  0  0  0
  163.0730  204.9900  151.3110 O   0  0  0  0  0  1  0  0  0  0  0  0
  161.7690  205.2050  151.7590 C   0  0  1  0  0  3  0  0  0  0  0  0
  162.1850  209.3880  156.7120 C   0  0  0  0  0  2  0  0  0  0  0  0
  163.2370  210.1240  157.2570 O   0  0  0  0  0  1  0  0  0  0  0  0
  1  2  2  0  0  0  0
  2 13  1  0  0  0  0
  2 18  1  0  0  0  0
  3 17  1  1  0  0  0
  3  6  1  0  0  0  0
  4 23  1  0  0  0  0
  4  7  1  0  0  0  0
  4 19  1  0  0  0  0
  5 23  1  0  0  0  0
  6 24  1  0  0  0  0
  7 19  1  0  0  0  0
  8  7  1  0  0  0  0
  8 11  1  0  0  0  0
  9 12  1  0  0  0  0
 10 18  1  0  0  0  0
 10  5  1  0  0  0  0
 11 16  1  0  0  0  0
 11 14  1  0  0  0  0
 12  3  1  0  0  0  0
 13 15  1  0  0  0  0
 14 20  1  0  0  0  0
 15  8  2  0  0  0  0
 16 12  1  0  0  0  0
 16  3  1  0  0  0  0
 18  4  1  0  0  0  0
 20  6  1  0  0  0  0
 21 19  1  0  0  0  0
 21 16  1  0  0  0  0
 22 23  1  0  0  0  0
 24 25  1  0  0  0  0
M  END
>  <MODEL>
4

>  <REMARK>
 VINA RESULT:      -3.6      3.538      6.403
  Name = 
  1 active torsions:
  status: ('A' for Active; 'I' for Inactive)
    1  A    between atoms: C_6  and  C_18
                            x       y       z     vdW  Elec       q    Type
                         _______ _______ _______ _____ _____    ______ ____

>  <TORSDO>
F 1

$$$$
=
 OpenBabel11072411373D

 25 30  0  0  1  0  0  0  0  0999 V2000
  162.7060  204.6750  151.2270 O   0  0  0  0  0  0  0  0  0  0  0  0
  162.3820  205.6070  152.0110 C   0  0  0  0  0  0  0  0  0  0  0  0
  160.7740  211.0620  154.4910 C   0  0  1  0  0  0  0  0  0  0  0  0
  161.2450  207.6970  151.4340 C   0  0  2  0  0  0  0  0  0  0  0  0
  162.1440  207.3170  149.2950 C   0  0  0  0  0  2  0  0  0  0  0  0
  159.5010  211.1030  155.3800 C   0  0  2  0  0  3  0  0  0  0  0  0
  160.2240  207.7010  152.5560 C   0  0  1  0  0  3  0  0  0  0  0  0
  160.7450  207.3670  153.9390 C   0  0  0  0  0  0  0  0  0  0  0  0
  162.0450  210.4100  156.4470 O   0  0  0  0  0  1  0  0  0  0  0  0
  163.2140  207.1280  150.2890 N   0  0  0  0  0  2  0  0  0  0  0  0
  160.7430  208.4740  154.9350 C   0  0  2  0  0  3  0  0  0  0  0  0
  162.1400  210.7030  155.0830 C   0  0  1  0  0  3  0  0  0  0  0  0
  161.8130  205.2730  153.2820 N   0  0  0  0  0  2  0  0  0  0  0  0
  159.3200  208.8070  155.3710 C   0  0  0  0  0  2  0  0  0  0  0  0
  161.4000  206.2450  154.2480 C   0  0  0  0  0  3  0  0  0  0  0  0
  161.3700  209.6900  154.2270 C   0  0  2  0  0  0  0  0  0  0  0  0
  160.8540  211.9510  153.4160 O   0  0  0  0  0  1  0  0  0  0  0  0
  162.5900  207.0510  151.6100 C   0  0  2  0  0  3  0  0  0  0  0  0
  160.8960  209.0270  152.0880 C   0  0  1  0  0  3  0  0  0  0  0  0
  159.3310  209.9530  156.1910 O   0  0  0  0  0  0  0  0  0  0  0  0
  161.9310  209.4820  152.9460 O   0  0  0  0  0  0  0  0  0  0  0  0
  159.9400  206.5780  149.8040 O   0  0  0  0  0  1  0  0  0  0  0  0
  160.8310  207.6350  149.9990 C   0  0  1  0  0  3  0  0  0  0  0  0
  158.2300  211.4210  154.5930 C   0  0  0  0  0  2  0  0  0  0  0  0
  157.1620  211.6170  155.4680 O   0  0  0  0  0  1  0  0  0  0  0  0
  1  2  2  0  0  0  0
  2 13  1  0  0  0  0
  3 17  1  6  0  0  0
  3 12  1  0  0  0  0
  3  6  1  0  0  0  0
  4 18  1  0  0  0  0
  4 19  1  0  0  0  0
  4  7  1  0  0  0  0
  5 23  1  0  0  0  0
  5 10  1  0  0  0  0
  6 20  1  0  0  0  0
  7  8  1  0  0  0  0
  8 15  2  0  0  0  0
  8 11  1  0  0  0  0
 10 18  1  0  0  0  0
 11 14  1  0  0  0  0
 12  9  1  0  0  0  0
 13 15  1  0  0  0  0
 14 20  1  0  0  0  0
 16  3  1  0  0  0  0
 16 11  1  0  0  0  0
 16 12  1  0  0  0  0
 18  2  1  0  0  0  0
 19  7  1  0  0  0  0
 19 21  1  0  0  0  0
 21 16  1  0  0  0  0
 22 23  1  0  0  0  0
 23  4  1  0  0  0  0
 24  6  1  0  0  0  0
 24 25  1  0  0  0  0
M  END
>  <MODEL>
5

>  <REMARK>
 VINA RESULT:      -3.1      3.305      6.633
  Name = 
  1 active torsions:
  status: ('A' for Active; 'I' for Inactive)
    1  A    between atoms: C_6  and  C_18
                            x       y       z     vdW  Elec       q    Type
                         _______ _______ _______ _____ _____    ______ ____

>  <TORSDO>
F 1

$$$$
=
 OpenBabel11072411373D

 25 30  0  0  1  0  0  0  0  0999 V2000
  155.1520  212.5890  154.1650 O   0  0  0  0  0  0  0  0  0  0  0  0
  156.1420  211.8410  154.3840 C   0  0  0  0  0  0  0  0  0  0  0  0
  161.8460  209.4650  154.9480 C   0  0  1  0  0  0  0  0  0  0  0  0
  158.4600  212.5310  154.7620 C   0  0  2  0  0  0  0  0  0  0  0  0
  157.8330  214.4530  153.5620 C   0  0  0  0  0  2  0  0  0  0  0  0
  162.2420  208.8600  156.3220 C   0  0  2  0  0  3  0  0  0  0  0  0
  158.7540  211.6470  155.9600 C   0  0  1  0  0  3  0  0  0  0  0  0
  158.2990  210.2060  155.8580 C   0  0  0  0  0  0  0  0  0  0  0  0
  160.8820  207.3250  154.3520 O   0  0  0  0  0  1  0  0  0  0  0  0
  157.3630  213.2700  152.8230 N   0  0  0  0  0  2  0  0  0  0  0  0
  159.3700  209.1750  155.7730 C   0  0  2  0  0  3  0  0  0  0  0  0
  161.1280  208.6220  153.8900 C   0  0  1  0  0  3  0  0  0  0  0  0
  155.9870  210.7350  155.2820 N   0  0  0  0  0  2  0  0  0  0  0  0
  160.0850  209.0280  157.1110 C   0  0  0  0  0  2  0  0  0  0  0  0
  157.0410  209.8270  155.6130 C   0  0  0  0  0  3  0  0  0  0  0  0
  160.3610  209.6720  154.7040 C   0  0  2  0  0  0  0  0  0  0  0  0
  162.6720  210.4520  154.4020 O   0  0  0  0  0  1  0  0  0  0  0  0
  157.4710  212.1140  153.7120 C   0  0  2  0  0  3  0  0  0  0  0  0
  159.8390  211.8950  154.8690 C   0  0  1  0  0  3  0  0  0  0  0  0
  161.1900  208.1640  156.9670 O   0  0  0  0  0  0  0  0  0  0  0  0
  159.9980  210.8180  153.9590 O   0  0  0  0  0  0  0  0  0  0  0  0
  157.7340  214.4530  155.9400 O   0  0  0  0  0  1  0  0  0  0  0  0
  158.5050  214.0220  154.8590 C   0  0  1  0  0  3  0  0  0  0  0  0
  162.8930  209.8760  157.2600 C   0  0  0  0  0  2  0  0  0  0  0  0
  162.2180  211.0940  157.1890 O   0  0  0  0  0  1  0  0  0  0  0  0
  1  2  2  0  0  0  0
  2 13  1  0  0  0  0
  3 17  1  6  0  0  0
  3  6  1  0  0  0  0
  4 23  1  0  0  0  0
  4 19  1  0  0  0  0
  4  7  1  0  0  0  0
  5 23  1  0  0  0  0
  6 20  1  0  0  0  0
  6 24  1  0  0  0  0
  8  7  1  0  0  0  0
 10  5  1  0  0  0  0
 10 18  1  0  0  0  0
 11  8  1  0  0  0  0
 11 14  1  0  0  0  0
 12  9  1  0  0  0  0
 12 16  1  0  0  0  0
 12  3  1  0  0  0  0
 13 15  1  0  0  0  0
 15  8  2  0  0  0  0
 16  3  1  0  0  0  0
 16 11  1  0  0  0  0
 18  2  1  0  0  0  0
 18  4  1  0  0  0  0
 19  7  1  0  0  0  0
 20 14  1  0  0  0  0
 21 16  1  0  0  0  0
 21 19  1  0  0  0  0
 23 22  1  0  0  0  0
 25 24  1  0  0  0  0
M  END
>  <MODEL>
6

>  <REMARK>
 VINA RESULT:      -2.3      1.592      3.393
  Name = 
  1 active torsions:
  status: ('A' for Active; 'I' for Inactive)
    1  A    between atoms: C_6  and  C_18
                            x       y       z     vdW  Elec       q    Type
                         _______ _______ _______ _____ _____    ______ ____

>  <TORSDO>
F 1

$$$$
=
 OpenBabel11072411373D

 25 30  0  0  1  0  0  0  0  0999 V2000
  156.6020  214.4510  157.0960 O   0  0  0  0  0  0  0  0  0  0  0  0
  157.5070  213.6300  156.7890 C   0  0  0  0  0  0  0  0  0  0  0  0
  160.6860  208.6060  155.0140 C   0  0  1  0  0  0  0  0  0  0  0  0
  157.2750  211.6240  155.4050 C   0  0  2  0  0  0  0  0  0  0  0  0
  155.0200  211.7200  156.0640 C   0  0  0  0  0  2  0  0  0  0  0  0
  161.7140  208.7730  153.8620 C   0  0  2  0  0  3  0  0  0  0  0  0
  158.5010  211.8220  154.5340 C   0  0  1  0  0  3  0  0  0  0  0  0
  159.7750  212.2220  155.2490 C   0  0  0  0  0  0  0  0  0  0  0  0
  162.4090  209.2960  156.5700 O   0  0  0  0  0  1  0  0  0  0  0  0
  155.8610  211.8870  157.2610 N   0  0  0  0  0  2  0  0  0  0  0  0
  160.8700  211.2130  155.2710 C   0  0  2  0  0  3  0  0  0  0  0  0
  161.0800  208.8760  156.4690 C   0  0  1  0  0  3  0  0  0  0  0  0
  158.7950  214.1310  156.4130 N   0  0  0  0  0  2  0  0  0  0  0  0
  161.4970  211.0660  153.8890 C   0  0  0  0  0  2  0  0  0  0  0  0
  159.8940  213.2950  156.0360 C   0  0  0  0  0  3  0  0  0  0  0  0
  160.2200  209.8820  155.6940 C   0  0  2  0  0  0  0  0  0  0  0  0
  159.7030  207.6220  154.8800 O   0  0  0  0  0  1  0  0  0  0  0  0
  157.2310  212.1420  156.8140 C   0  0  2  0  0  3  0  0  0  0  0  0
  158.0940  210.3990  155.0210 C   0  0  1  0  0  3  0  0  0  0  0  0
  162.4200  210.0010  153.8970 O   0  0  0  0  0  0  0  0  0  0  0  0
  158.8690  209.9190  156.1090 O   0  0  0  0  0  0  0  0  0  0  0  0
  155.7020  212.7200  154.0160 O   0  0  0  0  0  1  0  0  0  0  0  0
  155.8980  211.6000  154.8250 C   0  0  1  0  0  3  0  0  0  0  0  0
  161.1140  208.5180  152.4800 C   0  0  0  0  0  2  0  0  0  0  0  0
  162.0930  208.6630  151.4980 O   0  0  0  0  0  1  0  0  0  0  0  0
  2 18  1  0  0  0  0
  2  1  2  0  0  0  0
  3 17  1  6  0  0  0
  3 16  1  0  0  0  0
  3 12  1  0  0  0  0
  4 18  1  0  0  0  0
  5 10  1  0  0  0  0
  6 20  1  0  0  0  0
  6  3  1  0  0  0  0
  7 19  1  0  0  0  0
  7  8  1  0  0  0  0
  7  4  1  0  0  0  0
  8 11  1  0  0  0  0
  8 15  2  0  0  0  0
 11 16  1  0  0  0  0
 12  9  1  0  0  0  0
 13  2  1  0  0  0  0
 14 20  1  0  0  0  0
 14 11  1  0  0  0  0
 15 13  1  0  0  0  0
 16 21  1  0  0  0  0
 16 12  1  0  0  0  0
 18 10  1  0  0  0  0
 19  4  1  0  0  0  0
 19 21  1  0  0  0  0
 22 23  1  0  0  0  0
 23  4  1  0  0  0  0
 23  5  1  0  0  0  0
 24  6  1  0  0  0  0
 25 24  1  0  0  0  0
M  END
>  <MODEL>
7

>  <REMARK>
 VINA RESULT:      -2.2      1.641      2.145
  Name = 
  1 active torsions:
  status: ('A' for Active; 'I' for Inactive)
    1  A    between atoms: C_6  and  C_18
                            x       y       z     vdW  Elec       q    Type
                         _______ _______ _______ _____ _____    ______ ____

>  <TORSDO>
F 1

$$$$
=
 OpenBabel11072411373D

 25 30  0  0  1  0  0  0  0  0999 V2000
  162.9190  208.2170  156.6130 O   0  0  0  0  0  0  0  0  0  0  0  0
  162.1070  209.1570  156.4010 C   0  0  0  0  0  0  0  0  0  0  0  0
  157.2830  212.6100  154.5840 C   0  0  1  0  0  0  0  0  0  0  0  0
  159.7320  208.9610  155.8410 C   0  0  2  0  0  0  0  0  0  0  0  0
  160.3420  206.8360  155.0400 C   0  0  0  0  0  2  0  0  0  0  0  0
  156.5300  213.4260  155.6700 C   0  0  2  0  0  3  0  0  0  0  0  0
  159.1990  210.0090  156.7990 C   0  0  1  0  0  3  0  0  0  0  0  0
  159.9580  211.3190  156.8500 C   0  0  0  0  0  0  0  0  0  0  0  0
  158.8400  214.4530  154.3660 O   0  0  0  0  0  1  0  0  0  0  0  0
  161.3030  207.8220  154.5190 N   0  0  0  0  0  2  0  0  0  0  0  0
  159.2520  212.5180  156.3200 C   0  0  2  0  0  3  0  0  0  0  0  0
  158.5160  213.1830  153.8780 C   0  0  1  0  0  3  0  0  0  0  0  0
  162.1400  210.3050  157.2570 N   0  0  0  0  0  2  0  0  0  0  0  0
  158.1270  212.9420  157.2580 C   0  0  0  0  0  2  0  0  0  0  0  0
  161.2630  211.4260  157.1180 C   0  0  0  0  0  3  0  0  0  0  0  0
  158.6660  212.1030  154.9570 C   0  0  2  0  0  0  0  0  0  0  0  0
  156.5390  211.7430  153.7790 O   0  0  0  0  0  1  0  0  0  0  0  0
  161.1140  209.0680  155.2620 C   0  0  2  0  0  3  0  0  0  0  0  0
  158.5900  209.8530  155.3730 C   0  0  1  0  0  3  0  0  0  0  0  0
  157.3770  213.9770  156.6630 O   0  0  0  0  0  0  0  0  0  0  0  0
  159.0310  210.8350  154.4480 O   0  0  0  0  0  0  0  0  0  0  0  0
  159.5170  207.0770  157.2590 O   0  0  0  0  0  1  0  0  0  0  0  0
  159.3330  207.5250  155.9500 C   0  0  1  0  0  3  0  0  0  0  0  0
  155.3660  212.6580  156.2970 C   0  0  0  0  0  2  0  0  0  0  0  0
  154.6200  213.5050  157.1150 O   0  0  0  0  0  1  0  0  0  0  0  0
  2  1  2  0  0  0  0
  2 13  1  0  0  0  0
  3 17  1  6  0  0  0
  3 16  1  0  0  0  0
  3  6  1  0  0  0  0
  4 23  1  0  0  0  0
  4  7  1  0  0  0  0
  5 23  1  0  0  0  0
  6 24  1  0  0  0  0
  6 20  1  0  0  0  0
  7  8  1  0  0  0  0
  8 15  2  0  0  0  0
 10  5  1  0  0  0  0
 10 18  1  0  0  0  0
 11  8  1  0  0  0  0
 11 14  1  0  0  0  0
 12  9  1  0  0  0  0
 12  3  1  0  0  0  0
 12 16  1  0  0  0  0
 15 13  1  0  0  0  0
 16 11  1  0  0  0  0
 18  4  1  0  0  0  0
 18  2  1  0  0  0  0
 19  4  1  0  0  0  0
 19  7  1  0  0  0  0
 20 14  1  0  0  0  0
 21 16  1  0  0  0  0
 21 19  1  0  0  0  0
 23 22  1  0  0  0  0
 24 25  1  0  0  0  0
M  END
>  <MODEL>
8

>  <REMARK>
 VINA RESULT:      -2.0      2.701      6.088
  Name = 
  1 active torsions:
  status: ('A' for Active; 'I' for Inactive)
    1  A    between atoms: C_6  and  C_18
                            x       y       z     vdW  Elec       q    Type
                         _______ _______ _______ _____ _____    ______ ____

>  <TORSDO>
F 1

$$$$
