=
 OpenBabel11072410583D

 42 43  0  0  1  0  0  0  0  0999 V2000
  161.9620  207.9790  150.1050 C   0  0  1  0  0  3  0  0  0  0  0  0
  162.0030  205.5940  147.3850 C   0  0  2  0  0  3  0  0  0  0  0  0
  160.5240  205.9150  147.3600 C   0  0  0  0  0  2  0  0  0  0  0  0
  162.6970  206.7940  148.0050 C   0  0  0  0  0  2  0  0  0  0  0  0
  160.3070  206.8630  148.5150 C   0  0  0  0  0  2  0  0  0  0  0  0
  161.6110  207.6350  148.6540 C   0  0  1  0  0  3  0  0  0  0  0  0
  163.6360  204.7600  145.8430 O   0  0  0  0  0  0  0  0  0  0  0  0
  162.5200  205.3210  146.0110 C   0  0  0  0  0  0  0  0  0  0  0  0
  161.7440  205.6960  144.8800 N   0  0  0  0  0  1  0  0  0  0  0  0
  162.6370  209.8960  151.3480 O   0  0  0  0  0  0  0  0  0  0  0  0
  162.2010  209.4480  150.2540 C   0  0  0  0  0  0  0  0  0  0  0  0
  161.9610  210.3030  149.1760 O   0  0  0  0  0  0  0  0  0  0  0  0
  161.9670  211.7210  149.3090 C   0  0  2  0  0  3  0  0  0  0  0  0
  161.0480  212.0980  150.2920 O   0  0  0  0  0  1  0  0  0  0  0  0
  162.3010  213.3990  145.7670 C   0  0  2  0  0  3  0  0  0  0  0  0
  162.7180  212.5310  146.9590 C   0  0  0  0  0  2  0  0  0  0  0  0
  160.3350  212.5860  147.6770 C   0  0  0  0  0  3  0  0  0  0  0  0
  160.9350  212.9580  145.2660 C   0  0  0  0  0  2  0  0  0  0  0  0
  161.6280  212.3810  147.9990 C   0  0  0  0  0  0  0  0  0  0  0  0
  159.9090  213.1970  146.3700 C   0  0  1  0  0  3  0  0  0  0  0  0
  158.2790  212.5130  144.7550 O   0  0  0  0  0  0  0  0  0  0  0  0
  157.6030  212.4540  146.9440 O   0  0  0  0  0  1  0  0  0  0  0  0
  158.5590  212.7060  145.9690 C   0  0  0  0  0  0  0  0  0  0  0  0
  162.6310  212.8690  143.3530 C   0  0  0  0  0  1  0  0  0  0  0  0
  163.3170  213.2720  144.6440 C   0  0  0  0  0  2  0  0  0  0  0  0
  160.9100  207.4690  151.1040 C   0  0  0  0  0  2  0  0  0  0  0  0
  162.8420  206.0370  151.6330 C   0  0  0  0  0  1  0  0  0  0  0  0
  161.3790  206.2900  151.9670 C   0  0  1  0  0  0  0  0  0  0  0  0
  161.2190  206.6170  153.4620 C   0  0  0  0  0  2  0  0  0  0  0  0
  161.5600  208.0390  155.9010 O   0  0  0  0  0  0  0  0  0  0  0  0
  161.0790  208.6770  154.9280 C   0  0  0  0  0  0  0  0  0  0  0  0
  159.7350  210.4570  152.9950 N   0  0  0  0  0  2  0  0  0  0  0  0
  160.7760  210.0660  155.0920 N   0  0  0  0  0  2  0  0  0  0  0  0
  160.1620  210.9270  154.1230 C   0  0  0  0  0  0  0  0  0  0  0  0
  160.8530  208.0120  153.6810 N   0  0  0  0  0  2  0  0  0  0  0  0
  160.0300  212.2850  154.4200 O   0  0  0  0  0  0  0  0  0  0  0  0
  159.9750  212.7710  155.7530 C   0  0  0  0  0  1  0  0  0  0  0  0
  160.5690  205.0380  151.6000 C   0  0  0  0  0  2  0  0  0  0  0  0
  161.4200  203.8700  151.1120 C   0  0  1  0  0  3  0  0  0  0  0  0
  161.4780  202.8860  152.0990 O   0  0  0  0  0  1  0  0  0  0  0  0
  160.6820  202.0350  149.7380 N   0  0  0  0  0  2  0  0  0  0  0  0
  160.8060  203.3030  149.8780 C   0  0  0  0  0  3  0  0  0  0  0  0
  1 11  1  0  0  0  0
  1 26  1  1  0  0  0
  2  8  1  6  0  0  0
  2  4  1  0  0  0  0
  3  2  1  0  0  0  0
  3  5  1  0  0  0  0
  4  6  1  0  0  0  0
  5  6  1  0  0  0  0
  6  1  1  1  0  0  0
  7  8  2  0  0  0  0
  9  8  1  0  0  0  0
 11 10  2  0  0  0  0
 12 13  1  0  0  0  0
 12 11  1  0  0  0  0
 13 14  1  1  0  0  0
 15 25  1  6  0  0  0
 15 16  1  0  0  0  0
 16 19  1  0  0  0  0
 17 19  2  0  0  0  0
 18 15  1  0  0  0  0
 18 20  1  0  0  0  0
 19 13  1  0  0  0  0
 20 23  1  6  0  0  0
 20 17  1  0  0  0  0
 21 23  2  0  0  0  0
 23 22  1  0  0  0  0
 24 25  1  0  0  0  0
 26 28  1  0  0  0  0
 28 27  1  6  0  0  0
 28 29  1  0  0  0  0
 29 35  1  0  0  0  0
 31 33  1  0  0  0  0
 31 30  2  0  0  0  0
 32 34  2  0  0  0  0
 34 36  1  0  0  0  0
 34 33  1  0  0  0  0
 35 31  1  0  0  0  0
 36 37  1  0  0  0  0
 38 28  1  0  0  0  0
 39 38  1  0  0  0  0
 39 40  1  1  0  0  0
 41 42  2  0  0  0  0
 42 39  1  0  0  0  0
M  END
>  <MODEL>
1

>  <REMARK>
 VINA RESULT:      -7.3      0.000      0.000
  Name = 
  16 active torsions:
  status: ('A' for Active; 'I' for Inactive)
    1  A    between atoms: O_2  and  C_18
    2  A    between atoms: C_3  and  C_4
    3  A    between atoms: C_3  and  C_42
    4  A    between atoms: C_4  and  C_9
    5  A    between atoms: C_5  and  C_31
    6  A    between atoms: C_9  and  C_20
    7  A    between atoms: C_9  and  C_21
    8  A    between atoms: C_10  and  C_20
    9  A    between atoms: C_10  and  C_40
   10  A    between atoms: C_10  and  C_41
   11  A    between atoms: O_12  and  C_28
   12  A    between atoms: O_12  and  C_40
   13  A    between atoms: C_21  and  N_24
   14  A    between atoms: C_23  and  C_25
   15  A    between atoms: C_28  and  C_33
   16  A    between atoms: C_37  and  C_38
                            x       y       z     vdW  Elec       q    Type
                         _______ _______ _______ _____ _____    ______ ____

>  <TORSDO>
F 16

$$$$
=
 OpenBabel11072410583D

 42 43  0  0  1  0  0  0  0  0999 V2000
  161.2290  210.1580  152.3730 C   0  0  1  0  0  3  0  0  0  0  0  0
  160.4330  208.1650  155.2870 C   0  0  2  0  0  3  0  0  0  0  0  0
  160.5790  207.0320  154.2910 C   0  0  0  0  0  2  0  0  0  0  0  0
  161.2590  209.3220  154.7510 C   0  0  0  0  0  2  0  0  0  0  0  0
  160.8400  207.7050  152.9650 C   0  0  0  0  0  2  0  0  0  0  0  0
  161.5790  208.9920  153.3030 C   0  0  1  0  0  3  0  0  0  0  0  0
  161.7790  208.4170  157.2520 O   0  0  0  0  0  0  0  0  0  0  0  0
  160.8970  207.7530  156.6440 C   0  0  0  0  0  0  0  0  0  0  0  0
  160.3340  206.6010  157.2610 N   0  0  0  0  0  1  0  0  0  0  0  0
  162.3680  210.7480  150.3660 O   0  0  0  0  0  0  0  0  0  0  0  0
  161.6940  209.8770  150.9800 C   0  0  0  0  0  0  0  0  0  0  0  0
  161.3980  208.6500  150.3830 O   0  0  0  0  0  0  0  0  0  0  0  0
  162.0400  208.2040  149.1930 C   0  0  2  0  0  3  0  0  0  0  0  0
  161.7610  209.0960  148.1530 O   0  0  0  0  0  1  0  0  0  0  0  0
  161.2010  204.9660  147.1230 C   0  0  2  0  0  3  0  0  0  0  0  0
  161.8980  206.2930  147.4410 C   0  0  0  0  0  2  0  0  0  0  0  0
  161.1410  205.9890  149.7930 C   0  0  0  0  0  3  0  0  0  0  0  0
  161.3910  203.9990  148.2810 C   0  0  0  0  0  2  0  0  0  0  0  0
  161.5820  206.8180  148.8250 C   0  0  0  0  0  0  0  0  0  0  0  0
  160.7080  204.5750  149.5180 C   0  0  1  0  0  3  0  0  0  0  0  0
  161.0250  204.2140  151.8630 O   0  0  0  0  0  1  0  0  0  0  0  0
  161.0320  202.3340  150.5540 O   0  0  0  0  0  0  0  0  0  0  0  0
  160.9310  203.7100  150.7120 C   0  0  0  0  0  0  0  0  0  0  0  0
  163.2940  204.3610  145.9110 C   0  0  0  0  0  1  0  0  0  0  0  0
  161.7780  204.3590  145.8560 C   0  0  0  0  0  2  0  0  0  0  0  0
  159.7330  210.5150  152.4130 C   0  0  0  0  0  2  0  0  0  0  0  0
  160.0010  212.2070  154.1820 C   0  0  0  0  0  1  0  0  0  0  0  0
  159.4430  211.9760  152.7850 C   0  0  1  0  0  0  0  0  0  0  0  0
  160.1050  212.9320  151.7780 C   0  0  0  0  0  2  0  0  0  0  0  0
  161.1280  213.5330  149.1920 O   0  0  0  0  0  0  0  0  0  0  0  0
  159.8830  213.3740  149.2940 C   0  0  0  0  0  0  0  0  0  0  0  0
  156.9360  213.3000  149.1340 N   0  0  0  0  0  2  0  0  0  0  0  0
  159.0740  213.4630  148.1160 N   0  0  0  0  0  2  0  0  0  0  0  0
  157.6440  213.3800  148.0530 C   0  0  0  0  0  0  0  0  0  0  0  0
  159.3000  213.1000  150.5730 N   0  0  0  0  0  2  0  0  0  0  0  0
  157.0260  213.3900  146.8010 O   0  0  0  0  0  0  0  0  0  0  0  0
  157.5920  212.7500  145.6670 C   0  0  0  0  0  1  0  0  0  0  0  0
  157.9240  212.1980  152.8200 C   0  0  0  0  0  2  0  0  0  0  0  0
  157.4090  212.7490  154.1460 C   0  0  1  0  0  3  0  0  0  0  0  0
  156.6810  213.9160  153.9210 O   0  0  0  0  0  1  0  0  0  0  0  0
  157.0400  210.7440  155.4290 N   0  0  0  0  0  2  0  0  0  0  0  0
  156.5300  211.7290  154.7880 C   0  0  0  0  0  3  0  0  0  0  0  0
  1 26  1  6  0  0  0
  2  8  1  1  0  0  0
  3  2  1  0  0  0  0
  4  2  1  0  0  0  0
  5  6  1  0  0  0  0
  5  3  1  0  0  0  0
  6  1  1  6  0  0  0
  6  4  1  0  0  0  0
  8  7  2  0  0  0  0
  8  9  1  0  0  0  0
 10 11  2  0  0  0  0
 11  1  1  0  0  0  0
 12 11  1  0  0  0  0
 13 14  1  6  0  0  0
 13 12  1  0  0  0  0
 15 25  1  6  0  0  0
 15 16  1  0  0  0  0
 15 18  1  0  0  0  0
 16 19  1  0  0  0  0
 18 20  1  0  0  0  0
 19 13  1  0  0  0  0
 19 17  2  0  0  0  0
 20 17  1  0  0  0  0
 20 23  1  1  0  0  0
 22 23  2  0  0  0  0
 23 21  1  0  0  0  0
 25 24  1  0  0  0  0
 26 28  1  0  0  0  0
 28 38  1  0  0  0  0
 28 27  1  1  0  0  0
 29 28  1  0  0  0  0
 30 31  2  0  0  0  0
 31 35  1  0  0  0  0
 33 31  1  0  0  0  0
 34 33  1  0  0  0  0
 34 32  2  0  0  0  0
 35 29  1  0  0  0  0
 36 34  1  0  0  0  0
 37 36  1  0  0  0  0
 38 39  1  0  0  0  0
 39 40  1  6  0  0  0
 39 42  1  0  0  0  0
 42 41  2  0  0  0  0
M  END
>  <MODEL>
2

>  <REMARK>
 VINA RESULT:      -6.6      3.167      8.110
  Name = 
  16 active torsions:
  status: ('A' for Active; 'I' for Inactive)
    1  A    between atoms: O_2  and  C_18
    2  A    between atoms: C_3  and  C_4
    3  A    between atoms: C_3  and  C_42
    4  A    between atoms: C_4  and  C_9
    5  A    between atoms: C_5  and  C_31
    6  A    between atoms: C_9  and  C_20
    7  A    between atoms: C_9  and  C_21
    8  A    between atoms: C_10  and  C_20
    9  A    between atoms: C_10  and  C_40
   10  A    between atoms: C_10  and  C_41
   11  A    between atoms: O_12  and  C_28
   12  A    between atoms: O_12  and  C_40
   13  A    between atoms: C_21  and  N_24
   14  A    between atoms: C_23  and  C_25
   15  A    between atoms: C_28  and  C_33
   16  A    between atoms: C_37  and  C_38
                            x       y       z     vdW  Elec       q    Type
                         _______ _______ _______ _____ _____    ______ ____

>  <TORSDO>
F 16

$$$$
=
 OpenBabel11072410583D

 42 43  0  0  1  0  0  0  0  0999 V2000
  161.2430  210.2110  152.4430 C   0  0  1  0  0  3  0  0  0  0  0  0
  160.4870  208.1510  155.3200 C   0  0  2  0  0  3  0  0  0  0  0  0
  160.6070  207.0430  154.2950 C   0  0  0  0  0  2  0  0  0  0  0  0
  161.3110  209.3160  154.7990 C   0  0  0  0  0  2  0  0  0  0  0  0
  160.8490  207.7470  152.9810 C   0  0  0  0  0  2  0  0  0  0  0  0
  161.6030  209.0200  153.3380 C   0  0  1  0  0  3  0  0  0  0  0  0
  160.4100  206.7490  157.2610 O   0  0  0  0  0  0  0  0  0  0  0  0
  160.9720  207.7040  156.6590 C   0  0  0  0  0  0  0  0  0  0  0  0
  162.0820  208.3590  157.2610 N   0  0  0  0  0  1  0  0  0  0  0  0
  162.1500  210.9470  150.3670 O   0  0  0  0  0  0  0  0  0  0  0  0
  161.7130  209.9770  151.0430 C   0  0  0  0  0  0  0  0  0  0  0  0
  161.6830  208.6880  150.5070 O   0  0  0  0  0  0  0  0  0  0  0  0
  162.2050  208.3840  149.2170 C   0  0  2  0  0  3  0  0  0  0  0  0
  161.5740  209.1850  148.2610 O   0  0  0  0  0  1  0  0  0  0  0  0
  161.4260  204.5440  149.5610 C   0  0  2  0  0  3  0  0  0  0  0  0
  161.3840  206.0280  149.9370 C   0  0  0  0  0  2  0  0  0  0  0  0
  162.1280  206.5150  147.6120 C   0  0  0  0  0  3  0  0  0  0  0  0
  160.9390  204.3640  148.1320 C   0  0  0  0  0  2  0  0  0  0  0  0
  162.0030  206.9280  148.8890 C   0  0  0  0  0  0  0  0  0  0  0  0
  161.8990  205.0880  147.1930 C   0  0  1  0  0  3  0  0  0  0  0  0
  161.8440  204.1150  145.0060 O   0  0  0  0  0  0  0  0  0  0  0  0
  160.5180  205.9580  145.3130 O   0  0  0  0  0  1  0  0  0  0  0  0
  161.4280  205.0190  145.7800 C   0  0  0  0  0  0  0  0  0  0  0  0
  161.2280  203.5640  151.8460 C   0  0  0  0  0  1  0  0  0  0  0  0
  160.5470  203.7380  150.5010 C   0  0  0  0  0  2  0  0  0  0  0  0
  159.7450  210.5540  152.4920 C   0  0  0  0  0  2  0  0  0  0  0  0
  160.0810  212.1570  154.3300 C   0  0  0  0  0  1  0  0  0  0  0  0
  159.4400  211.9830  152.9610 C   0  0  1  0  0  0  0  0  0  0  0  0
  160.0080  213.0120  151.9680 C   0  0  0  0  0  2  0  0  0  0  0  0
  160.8560  214.1340  149.4960 O   0  0  0  0  0  0  0  0  0  0  0  0
  159.6830  213.6790  149.5480 C   0  0  0  0  0  0  0  0  0  0  0  0
  156.8350  212.9440  149.3060 N   0  0  0  0  0  2  0  0  0  0  0  0
  158.8730  213.7170  148.3670 N   0  0  0  0  0  2  0  0  0  0  0  0
  157.5020  213.3130  148.2590 C   0  0  0  0  0  0  0  0  0  0  0  0
  159.1840  213.1290  150.7710 N   0  0  0  0  0  2  0  0  0  0  0  0
  156.8950  213.3270  147.0010 O   0  0  0  0  0  0  0  0  0  0  0  0
  157.6410  213.2550  145.7950 C   0  0  0  0  0  1  0  0  0  0  0  0
  157.9210  212.1570  153.1060 C   0  0  0  0  0  2  0  0  0  0  0  0
  157.4900  212.7510  154.4430 C   0  0  1  0  0  3  0  0  0  0  0  0
  156.8680  213.9810  154.2330 O   0  0  0  0  0  1  0  0  0  0  0  0
  155.5470  211.3270  154.4520 N   0  0  0  0  0  2  0  0  0  0  0  0
  156.5350  211.8160  155.1050 C   0  0  0  0  0  3  0  0  0  0  0  0
  1 26  1  6  0  0  0
  2  8  1  1  0  0  0
  3  2  1  0  0  0  0
  4  2  1  0  0  0  0
  5  6  1  0  0  0  0
  5  3  1  0  0  0  0
  6  1  1  6  0  0  0
  6  4  1  0  0  0  0
  8  9  1  0  0  0  0
  8  7  2  0  0  0  0
 10 11  2  0  0  0  0
 11  1  1  0  0  0  0
 12 11  1  0  0  0  0
 13 14  1  6  0  0  0
 13 12  1  0  0  0  0
 15 16  1  0  0  0  0
 15 25  1  1  0  0  0
 17 19  2  0  0  0  0
 18 15  1  0  0  0  0
 19 13  1  0  0  0  0
 19 16  1  0  0  0  0
 20 23  1  6  0  0  0
 20 17  1  0  0  0  0
 20 18  1  0  0  0  0
 21 23  2  0  0  0  0
 22 23  1  0  0  0  0
 25 24  1  0  0  0  0
 26 28  1  0  0  0  0
 28 38  1  0  0  0  0
 28 27  1  1  0  0  0
 29 28  1  0  0  0  0
 30 31  2  0  0  0  0
 31 35  1  0  0  0  0
 33 31  1  0  0  0  0
 34 33  1  0  0  0  0
 34 32  2  0  0  0  0
 35 29  1  0  0  0  0
 36 34  1  0  0  0  0
 37 36  1  0  0  0  0
 38 39  1  0  0  0  0
 39 40  1  6  0  0  0
 39 42  1  0  0  0  0
 41 42  2  0  0  0  0
M  END
>  <MODEL>
3

>  <REMARK>
 VINA RESULT:      -6.5      3.330      8.095
  Name = 
  16 active torsions:
  status: ('A' for Active; 'I' for Inactive)
    1  A    between atoms: O_2  and  C_18
    2  A    between atoms: C_3  and  C_4
    3  A    between atoms: C_3  and  C_42
    4  A    between atoms: C_4  and  C_9
    5  A    between atoms: C_5  and  C_31
    6  A    between atoms: C_9  and  C_20
    7  A    between atoms: C_9  and  C_21
    8  A    between atoms: C_10  and  C_20
    9  A    between atoms: C_10  and  C_40
   10  A    between atoms: C_10  and  C_41
   11  A    between atoms: O_12  and  C_28
   12  A    between atoms: O_12  and  C_40
   13  A    between atoms: C_21  and  N_24
   14  A    between atoms: C_23  and  C_25
   15  A    between atoms: C_28  and  C_33
   16  A    between atoms: C_37  and  C_38
                            x       y       z     vdW  Elec       q    Type
                         _______ _______ _______ _____ _____    ______ ____

>  <TORSDO>
F 16

$$$$
=
 OpenBabel11072410583D

 42 43  0  0  1  0  0  0  0  0999 V2000
  161.5760  209.9450  149.9730 C   0  0  1  0  0  3  0  0  0  0  0  0
  160.7680  212.4710  147.5110 C   0  0  2  0  0  3  0  0  0  0  0  0
  161.2080  213.3970  148.6250 C   0  0  0  0  0  2  0  0  0  0  0  0
  161.4570  211.1400  147.7560 C   0  0  0  0  0  2  0  0  0  0  0  0
  161.5140  212.4900  149.7930 C   0  0  0  0  0  2  0  0  0  0  0  0
  161.9950  211.1850  149.1760 C   0  0  1  0  0  3  0  0  0  0  0  0
  162.0710  213.8530  146.0520 O   0  0  0  0  0  0  0  0  0  0  0  0
  161.1270  213.0270  146.1730 C   0  0  0  0  0  0  0  0  0  0  0  0
  160.3990  212.6160  145.0220 N   0  0  0  0  0  1  0  0  0  0  0  0
  162.8690  208.6100  148.4830 O   0  0  0  0  0  0  0  0  0  0  0  0
  161.8220  208.7020  149.1790 C   0  0  0  0  0  0  0  0  0  0  0  0
  160.9030  207.6520  149.2310 O   0  0  0  0  0  0  0  0  0  0  0  0
  161.2230  206.3840  149.7950 C   0  0  2  0  0  3  0  0  0  0  0  0
  162.3940  206.4940  150.5500 O   0  0  0  0  0  1  0  0  0  0  0  0
  161.5670  202.9290  147.9460 C   0  0  2  0  0  3  0  0  0  0  0  0
  161.1580  203.8930  149.0650 C   0  0  0  0  0  2  0  0  0  0  0  0
  161.4980  205.7410  147.4320 C   0  0  0  0  0  3  0  0  0  0  0  0
  161.0040  203.4160  146.6200 C   0  0  0  0  0  2  0  0  0  0  0  0
  161.3960  205.3480  148.7170 C   0  0  0  0  0  0  0  0  0  0  0  0
  161.6270  204.7690  146.2910 C   0  0  1  0  0  3  0  0  0  0  0  0
  161.4130  204.9110  143.9110 O   0  0  0  0  0  0  0  0  0  0  0  0
  160.1020  206.3500  145.1190 O   0  0  0  0  0  1  0  0  0  0  0  0
  161.0510  205.3400  145.0400 C   0  0  0  0  0  0  0  0  0  0  0  0
  159.9850  201.5800  149.3230 C   0  0  0  0  0  1  0  0  0  0  0  0
  161.0440  201.5340  148.2370 C   0  0  0  0  0  2  0  0  0  0  0  0
  162.2450  209.8790  151.3560 C   0  0  0  0  0  2  0  0  0  0  0  0
  162.0260  210.2910  153.7740 C   0  0  0  0  0  1  0  0  0  0  0  0
  161.2600  209.8570  152.5330 C   0  0  1  0  0  0  0  0  0  0  0  0
  160.0810  210.8110  152.2700 C   0  0  0  0  0  2  0  0  0  0  0  0
  158.0260  212.7620  152.5110 O   0  0  0  0  0  0  0  0  0  0  0  0
  158.2700  212.0570  153.5260 C   0  0  0  0  0  0  0  0  0  0  0  0
  158.6670  210.7940  156.1640 N   0  0  0  0  0  2  0  0  0  0  0  0
  157.4850  212.2490  154.7080 N   0  0  0  0  0  2  0  0  0  0  0  0
  157.6660  211.5910  155.9690 C   0  0  0  0  0  0  0  0  0  0  0  0
  159.3130  211.0780  153.4810 N   0  0  0  0  0  2  0  0  0  0  0  0
  156.7410  211.8300  156.9890 O   0  0  0  0  0  0  0  0  0  0  0  0
  155.6190  212.6830  156.8150 C   0  0  0  0  0  1  0  0  0  0  0  0
  160.7540  208.4230  152.7460 C   0  0  0  0  0  2  0  0  0  0  0  0
  161.2100  207.7930  154.0580 C   0  0  1  0  0  3  0  0  0  0  0  0
  160.1130  207.6160  154.9010 O   0  0  0  0  0  1  0  0  0  0  0  0
  161.1100  205.4590  153.4740 N   0  0  0  0  0  2  0  0  0  0  0  0
  161.8370  206.4710  153.7720 C   0  0  0  0  0  3  0  0  0  0  0  0
  1 26  1  1  0  0  0
  2  8  1  6  0  0  0
  2  4  1  0  0  0  0
  2  3  1  0  0  0  0
  3  5  1  0  0  0  0
  4  6  1  0  0  0  0
  6  5  1  0  0  0  0
  6  1  1  1  0  0  0
  7  8  2  0  0  0  0
  9  8  1  0  0  0  0
 10 11  2  0  0  0  0
 11 12  1  0  0  0  0
 11  1  1  0  0  0  0
 12 13  1  0  0  0  0
 13 14  1  6  0  0  0
 15 25  1  1  0  0  0
 15 16  1  0  0  0  0
 17 19  2  0  0  0  0
 18 15  1  0  0  0  0
 19 16  1  0  0  0  0
 19 13  1  0  0  0  0
 20 23  1  6  0  0  0
 20 18  1  0  0  0  0
 20 17  1  0  0  0  0
 21 23  2  0  0  0  0
 23 22  1  0  0  0  0
 25 24  1  0  0  0  0
 26 28  1  0  0  0  0
 28 38  1  0  0  0  0
 28 27  1  1  0  0  0
 29 28  1  0  0  0  0
 29 35  1  0  0  0  0
 30 31  2  0  0  0  0
 31 33  1  0  0  0  0
 33 34  1  0  0  0  0
 34 32  2  0  0  0  0
 34 36  1  0  0  0  0
 35 31  1  0  0  0  0
 37 36  1  0  0  0  0
 38 39  1  0  0  0  0
 39 40  1  1  0  0  0
 41 42  2  0  0  0  0
 42 39  1  0  0  0  0
M  END
>  <MODEL>
4

>  <REMARK>
 VINA RESULT:      -6.3      2.555      6.476
  Name = 
  16 active torsions:
  status: ('A' for Active; 'I' for Inactive)
    1  A    between atoms: O_2  and  C_18
    2  A    between atoms: C_3  and  C_4
    3  A    between atoms: C_3  and  C_42
    4  A    between atoms: C_4  and  C_9
    5  A    between atoms: C_5  and  C_31
    6  A    between atoms: C_9  and  C_20
    7  A    between atoms: C_9  and  C_21
    8  A    between atoms: C_10  and  C_20
    9  A    between atoms: C_10  and  C_40
   10  A    between atoms: C_10  and  C_41
   11  A    between atoms: O_12  and  C_28
   12  A    between atoms: O_12  and  C_40
   13  A    between atoms: C_21  and  N_24
   14  A    between atoms: C_23  and  C_25
   15  A    between atoms: C_28  and  C_33
   16  A    between atoms: C_37  and  C_38
                            x       y       z     vdW  Elec       q    Type
                         _______ _______ _______ _____ _____    ______ ____

>  <TORSDO>
F 16

$$$$
=
 OpenBabel11072410583D

 42 43  0  0  1  0  0  0  0  0999 V2000
  161.1960  210.4280  153.4420 C   0  0  1  0  0  3  0  0  0  0  0  0
  159.5100  212.4030  150.9220 C   0  0  2  0  0  3  0  0  0  0  0  0
  158.3720  212.3170  151.9170 C   0  0  0  0  0  2  0  0  0  0  0  0
  160.7930  212.2190  151.7130 C   0  0  0  0  0  2  0  0  0  0  0  0
  158.8870  211.4350  153.0290 C   0  0  0  0  0  2  0  0  0  0  0  0
  160.3890  211.6780  153.0740 C   0  0  1  0  0  3  0  0  0  0  0  0
  160.5230  214.4520  150.2030 O   0  0  0  0  0  0  0  0  0  0  0  0
  159.5020  213.7120  150.2040 C   0  0  0  0  0  0  0  0  0  0  0  0
  158.3310  214.1260  149.5100 N   0  0  0  0  0  1  0  0  0  0  0  0
  163.1800  210.3080  152.1290 O   0  0  0  0  0  0  0  0  0  0  0  0
  161.9800  209.9440  152.2650 C   0  0  0  0  0  0  0  0  0  0  0  0
  161.3870  209.0800  151.3420 O   0  0  0  0  0  0  0  0  0  0  0  0
  162.0250  208.7020  150.1270 C   0  0  2  0  0  3  0  0  0  0  0  0
  161.8760  209.7260  149.1880 O   0  0  0  0  0  1  0  0  0  0  0  0
  160.7100  205.9270  147.6690 C   0  0  2  0  0  3  0  0  0  0  0  0
  161.5160  207.1550  148.1040 C   0  0  0  0  0  2  0  0  0  0  0  0
  161.1140  206.4350  150.4540 C   0  0  0  0  0  3  0  0  0  0  0  0
  161.0250  204.7570  148.5870 C   0  0  0  0  0  2  0  0  0  0  0  0
  161.4440  207.4200  149.5940 C   0  0  0  0  0  0  0  0  0  0  0  0
  160.5710  205.1070  150.0010 C   0  0  1  0  0  3  0  0  0  0  0  0
  161.4910  204.3070  152.0600 O   0  0  0  0  0  1  0  0  0  0  0  0
  160.6360  202.7080  150.6610 O   0  0  0  0  0  0  0  0  0  0  0  0
  160.9290  204.0300  150.9670 C   0  0  0  0  0  0  0  0  0  0  0  0
  162.5530  205.6180  146.0180 C   0  0  0  0  0  1  0  0  0  0  0  0
  161.0530  205.5540  146.2370 C   0  0  0  0  0  2  0  0  0  0  0  0
  162.0910  210.6450  154.6730 C   0  0  0  0  0  2  0  0  0  0  0  0
  162.5380  209.4380  156.7720 C   0  0  0  0  0  1  0  0  0  0  0  0
  161.4640  210.1880  155.9970 C   0  0  1  0  0  0  0  0  0  0  0  0
  160.9650  211.3980  156.8060 C   0  0  0  0  0  2  0  0  0  0  0  0
  160.0010  214.0480  156.4380 O   0  0  0  0  0  0  0  0  0  0  0  0
  159.1790  213.1100  156.2670 C   0  0  0  0  0  0  0  0  0  0  0  0
  156.9060  211.2470  155.9920 N   0  0  0  0  0  2  0  0  0  0  0  0
  157.8420  213.4250  155.8650 N   0  0  0  0  0  2  0  0  0  0  0  0
  156.7610  212.4990  155.6930 C   0  0  0  0  0  0  0  0  0  0  0  0
  159.5920  211.7540  156.4670 N   0  0  0  0  0  2  0  0  0  0  0  0
  155.5430  212.9720  155.1990 O   0  0  0  0  0  0  0  0  0  0  0  0
  155.2740  214.3570  155.0370 C   0  0  0  0  0  1  0  0  0  0  0  0
  160.3070  209.2220  155.7050 C   0  0  0  0  0  2  0  0  0  0  0  0
  160.6080  207.7690  156.0550 C   0  0  1  0  0  3  0  0  0  0  0  0
  159.7140  207.3240  157.0280 O   0  0  0  0  0  1  0  0  0  0  0  0
  161.4020  206.9020  153.9530 N   0  0  0  0  0  2  0  0  0  0  0  0
  160.4670  206.9330  154.8290 C   0  0  0  0  0  3  0  0  0  0  0  0
  1 26  1  1  0  0  0
  2  8  1  1  0  0  0
  2  4  1  0  0  0  0
  2  3  1  0  0  0  0
  3  5  1  0  0  0  0
  4  6  1  0  0  0  0
  5  6  1  0  0  0  0
  6  1  1  6  0  0  0
  7  8  2  0  0  0  0
  9  8  1  0  0  0  0
 10 11  2  0  0  0  0
 11  1  1  0  0  0  0
 12 11  1  0  0  0  0
 13 14  1  6  0  0  0
 13 12  1  0  0  0  0
 15 25  1  6  0  0  0
 15 16  1  0  0  0  0
 15 18  1  0  0  0  0
 16 19  1  0  0  0  0
 18 20  1  0  0  0  0
 19 13  1  0  0  0  0
 19 17  2  0  0  0  0
 20 17  1  0  0  0  0
 20 23  1  1  0  0  0
 22 23  2  0  0  0  0
 23 21  1  0  0  0  0
 24 25  1  0  0  0  0
 26 28  1  0  0  0  0
 28 27  1  1  0  0  0
 28 29  1  0  0  0  0
 31 30  2  0  0  0  0
 31 35  1  0  0  0  0
 33 31  1  0  0  0  0
 34 33  1  0  0  0  0
 34 32  2  0  0  0  0
 35 29  1  0  0  0  0
 36 34  1  0  0  0  0
 37 36  1  0  0  0  0
 38 28  1  0  0  0  0
 38 39  1  0  0  0  0
 39 40  1  1  0  0  0
 41 42  2  0  0  0  0
 42 39  1  0  0  0  0
M  END
>  <MODEL>
5

>  <REMARK>
 VINA RESULT:      -6.1      3.565      6.820
  Name = 
  16 active torsions:
  status: ('A' for Active; 'I' for Inactive)
    1  A    between atoms: O_2  and  C_18
    2  A    between atoms: C_3  and  C_4
    3  A    between atoms: C_3  and  C_42
    4  A    between atoms: C_4  and  C_9
    5  A    between atoms: C_5  and  C_31
    6  A    between atoms: C_9  and  C_20
    7  A    between atoms: C_9  and  C_21
    8  A    between atoms: C_10  and  C_20
    9  A    between atoms: C_10  and  C_40
   10  A    between atoms: C_10  and  C_41
   11  A    between atoms: O_12  and  C_28
   12  A    between atoms: O_12  and  C_40
   13  A    between atoms: C_21  and  N_24
   14  A    between atoms: C_23  and  C_25
   15  A    between atoms: C_28  and  C_33
   16  A    between atoms: C_37  and  C_38
                            x       y       z     vdW  Elec       q    Type
                         _______ _______ _______ _____ _____    ______ ____

>  <TORSDO>
F 16

$$$$
=
 OpenBabel11072410583D

 42 43  0  0  1  0  0  0  0  0999 V2000
  160.8300  204.7180  149.9700 C   0  0  1  0  0  3  0  0  0  0  0  0
  161.5270  201.5520  148.3620 C   0  0  2  0  0  3  0  0  0  0  0  0
  160.9050  201.0100  149.6310 C   0  0  0  0  0  2  0  0  0  0  0  0
  160.9760  202.9550  148.1740 C   0  0  0  0  0  2  0  0  0  0  0  0
  160.6180  202.2260  150.4800 C   0  0  0  0  0  2  0  0  0  0  0  0
  160.3340  203.3490  149.4930 C   0  0  1  0  0  3  0  0  0  0  0  0
  161.5870  199.4840  147.1560 O   0  0  0  0  0  0  0  0  0  0  0  0
  161.2070  200.6850  147.1900 C   0  0  0  0  0  0  0  0  0  0  0  0
  160.4620  201.2190  146.1020 N   0  0  0  0  0  1  0  0  0  0  0  0
  161.9110  203.6980  151.8320 O   0  0  0  0  0  0  0  0  0  0  0  0
  161.2160  204.6630  151.4140 C   0  0  0  0  0  0  0  0  0  0  0  0
  160.8230  205.6880  152.2770 O   0  0  0  0  0  0  0  0  0  0  0  0
  161.3290  207.0150  152.1700 C   0  0  2  0  0  3  0  0  0  0  0  0
  162.7230  206.9880  152.2770 O   0  0  0  0  0  1  0  0  0  0  0  0
  160.0550  208.3360  155.6490 C   0  0  2  0  0  3  0  0  0  0  0  0
  160.8680  207.4660  154.6860 C   0  0  0  0  0  2  0  0  0  0  0  0
  160.3610  209.1510  152.9250 C   0  0  0  0  0  3  0  0  0  0  0  0
  160.3110  209.8050  155.3500 C   0  0  0  0  0  2  0  0  0  0  0  0
  160.7440  207.8980  153.2390 C   0  0  0  0  0  0  0  0  0  0  0  0
  159.8090  210.1130  153.9430 C   0  0  1  0  0  3  0  0  0  0  0  0
  160.4510  211.8080  152.3800 O   0  0  0  0  0  0  0  0  0  0  0  0
  160.0010  212.5300  154.5070 O   0  0  0  0  0  1  0  0  0  0  0  0
  160.1070  211.5220  153.5580 C   0  0  0  0  0  0  0  0  0  0  0  0
  160.7980  206.5690  157.2440 C   0  0  0  0  0  1  0  0  0  0  0  0
  160.4470  208.0360  157.0850 C   0  0  0  0  0  2  0  0  0  0  0  0
  161.9690  205.2700  149.0970 C   0  0  0  0  0  2  0  0  0  0  0  0
  160.2150  206.9530  148.7030 C   0  0  0  0  0  1  0  0  0  0  0  0
  161.6960  206.6620  148.5090 C   0  0  1  0  0  0  0  0  0  0  0  0
  162.5490  207.7260  149.2190 C   0  0  0  0  0  2  0  0  0  0  0  0
  162.7060  210.0000  150.9200 O   0  0  0  0  0  0  0  0  0  0  0  0
  162.2840  210.1880  149.7480 C   0  0  0  0  0  0  0  0  0  0  0  0
  161.0520  211.0180  147.1980 N   0  0  0  0  0  2  0  0  0  0  0  0
  161.9520  211.5190  149.3360 N   0  0  0  0  0  2  0  0  0  0  0  0
  161.3950  211.9080  148.0740 C   0  0  0  0  0  0  0  0  0  0  0  0
  162.1520  209.0810  148.8510 N   0  0  0  0  0  2  0  0  0  0  0  0
  161.2250  213.2680  147.8060 O   0  0  0  0  0  0  0  0  0  0  0  0
  162.2890  214.2030  147.9080 C   0  0  0  0  0  1  0  0  0  0  0  0
  161.9980  206.6450  147.0040 C   0  0  0  0  0  2  0  0  0  0  0  0
  161.0950  205.7150  146.2000 C   0  0  1  0  0  3  0  0  0  0  0  0
  160.3330  206.4600  145.3000 O   0  0  0  0  0  1  0  0  0  0  0  0
  163.2070  204.6950  145.6500 N   0  0  0  0  0  2  0  0  0  0  0  0
  161.9420  204.7430  145.4500 C   0  0  0  0  0  3  0  0  0  0  0  0
  1 26  1  6  0  0  0
  1 11  1  0  0  0  0
  2  8  1  6  0  0  0
  2  3  1  0  0  0  0
  3  5  1  0  0  0  0
  4  2  1  0  0  0  0
  4  6  1  0  0  0  0
  6  1  1  1  0  0  0
  6  5  1  0  0  0  0
  7  8  2  0  0  0  0
  9  8  1  0  0  0  0
 11 10  2  0  0  0  0
 11 12  1  0  0  0  0
 13 14  1  1  0  0  0
 13 12  1  0  0  0  0
 13 19  1  0  0  0  0
 15 25  1  1  0  0  0
 16 15  1  0  0  0  0
 17 19  2  0  0  0  0
 17 20  1  0  0  0  0
 18 15  1  0  0  0  0
 19 16  1  0  0  0  0
 20 23  1  6  0  0  0
 20 18  1  0  0  0  0
 21 23  2  0  0  0  0
 23 22  1  0  0  0  0
 25 24  1  0  0  0  0
 28 27  1  1  0  0  0
 28 26  1  0  0  0  0
 28 29  1  0  0  0  0
 31 30  2  0  0  0  0
 32 34  2  0  0  0  0
 33 31  1  0  0  0  0
 34 33  1  0  0  0  0
 35 29  1  0  0  0  0
 35 31  1  0  0  0  0
 36 37  1  0  0  0  0
 36 34  1  0  0  0  0
 38 28  1  0  0  0  0
 39 40  1  6  0  0  0
 39 38  1  0  0  0  0
 42 41  2  0  0  0  0
 42 39  1  0  0  0  0
M  END
>  <MODEL>
6

>  <REMARK>
 VINA RESULT:      -6.1      2.560      6.904
  Name = 
  16 active torsions:
  status: ('A' for Active; 'I' for Inactive)
    1  A    between atoms: O_2  and  C_18
    2  A    between atoms: C_3  and  C_4
    3  A    between atoms: C_3  and  C_42
    4  A    between atoms: C_4  and  C_9
    5  A    between atoms: C_5  and  C_31
    6  A    between atoms: C_9  and  C_20
    7  A    between atoms: C_9  and  C_21
    8  A    between atoms: C_10  and  C_20
    9  A    between atoms: C_10  and  C_40
   10  A    between atoms: C_10  and  C_41
   11  A    between atoms: O_12  and  C_28
   12  A    between atoms: O_12  and  C_40
   13  A    between atoms: C_21  and  N_24
   14  A    between atoms: C_23  and  C_25
   15  A    between atoms: C_28  and  C_33
   16  A    between atoms: C_37  and  C_38
                            x       y       z     vdW  Elec       q    Type
                         _______ _______ _______ _____ _____    ______ ____

>  <TORSDO>
F 16

$$$$
=
 OpenBabel11072410583D

 42 43  0  0  1  0  0  0  0  0999 V2000
  161.0360  205.9650  150.4150 C   0  0  1  0  0  3  0  0  0  0  0  0
  161.2530  202.3810  149.9620 C   0  0  2  0  0  3  0  0  0  0  0  0
  161.1410  202.3950  151.4720 C   0  0  0  0  0  2  0  0  0  0  0  0
  160.6130  203.6670  149.4680 C   0  0  0  0  0  2  0  0  0  0  0  0
  161.1210  203.8570  151.8520 C   0  0  0  0  0  2  0  0  0  0  0  0
  160.4610  204.5690  150.6800 C   0  0  1  0  0  3  0  0  0  0  0  0
  159.4600  200.7990  149.8210 O   0  0  0  0  0  0  0  0  0  0  0  0
  160.5770  201.1840  149.3820 C   0  0  0  0  0  0  0  0  0  0  0  0
  161.1980  200.4710  148.3190 N   0  0  0  0  0  1  0  0  0  0  0  0
  162.7660  206.2920  152.0200 O   0  0  0  0  0  0  0  0  0  0  0  0
  161.5830  206.5560  151.6750 C   0  0  0  0  0  0  0  0  0  0  0  0
  160.7880  207.4100  152.4420 O   0  0  0  0  0  0  0  0  0  0  0  0
  161.1900  207.8820  153.7250 C   0  0  2  0  0  3  0  0  0  0  0  0
  161.0200  206.8640  154.6670 O   0  0  0  0  0  1  0  0  0  0  0  0
  159.3940  210.6380  155.8810 C   0  0  2  0  0  3  0  0  0  0  0  0
  160.4030  209.5280  155.5730 C   0  0  0  0  0  2  0  0  0  0  0  0
  159.9050  209.9090  153.1640 C   0  0  0  0  0  3  0  0  0  0  0  0
  159.5110  211.7390  154.8380 C   0  0  0  0  0  2  0  0  0  0  0  0
  160.3910  209.0950  154.1220 C   0  0  0  0  0  0  0  0  0  0  0  0
  159.1360  211.1650  153.4760 C   0  0  1  0  0  3  0  0  0  0  0  0
  160.4500  212.6560  152.1420 O   0  0  0  0  0  1  0  0  0  0  0  0
  158.2120  212.5920  151.6570 O   0  0  0  0  0  0  0  0  0  0  0  0
  159.3120  212.1770  152.3950 C   0  0  0  0  0  0  0  0  0  0  0  0
  160.4760  212.4890  157.1550 C   0  0  0  0  0  1  0  0  0  0  0  0
  159.6550  211.2180  157.2600 C   0  0  0  0  0  2  0  0  0  0  0  0
  162.0790  205.9680  149.2850 C   0  0  0  0  0  2  0  0  0  0  0  0
  160.4600  207.5580  148.3290 C   0  0  0  0  0  1  0  0  0  0  0  0
  161.9150  207.1150  148.2780 C   0  0  1  0  0  0  0  0  0  0  0  0
  162.8450  208.2860  148.6360 C   0  0  0  0  0  2  0  0  0  0  0  0
  162.3960  210.2230  150.6700 O   0  0  0  0  0  0  0  0  0  0  0  0
  162.0290  210.5210  149.5030 C   0  0  0  0  0  0  0  0  0  0  0  0
  160.8350  211.5160  146.9940 N   0  0  0  0  0  2  0  0  0  0  0  0
  161.4550  211.8110  149.2660 N   0  0  0  0  0  2  0  0  0  0  0  0
  160.9200  212.2920  148.0260 C   0  0  0  0  0  0  0  0  0  0  0  0
  162.1980  209.5790  148.4390 N   0  0  0  0  0  2  0  0  0  0  0  0
  160.4860  213.6180  147.9520 O   0  0  0  0  0  0  0  0  0  0  0  0
  160.3040  214.4250  149.1060 C   0  0  0  0  0  1  0  0  0  0  0  0
  162.2200  206.5970  146.8650 C   0  0  0  0  0  2  0  0  0  0  0  0
  161.1760  205.6280  146.3200 C   0  0  1  0  0  3  0  0  0  0  0  0
  160.6520  206.1220  145.1260 O   0  0  0  0  0  1  0  0  0  0  0  0
  161.2640  203.4460  145.3030 N   0  0  0  0  0  2  0  0  0  0  0  0
  161.8220  204.3070  146.0720 C   0  0  0  0  0  3  0  0  0  0  0  0
  1 26  1  6  0  0  0
  1 11  1  0  0  0  0
  2  8  1  6  0  0  0
  2  3  1  0  0  0  0
  3  5  1  0  0  0  0
  4  2  1  0  0  0  0
  4  6  1  0  0  0  0
  6  1  1  6  0  0  0
  6  5  1  0  0  0  0
  8  7  2  0  0  0  0
  9  8  1  0  0  0  0
 11 10  2  0  0  0  0
 11 12  1  0  0  0  0
 12 13  1  0  0  0  0
 13 19  1  0  0  0  0
 13 14  1  1  0  0  0
 15 25  1  1  0  0  0
 16 15  1  0  0  0  0
 17 20  1  0  0  0  0
 17 19  2  0  0  0  0
 18 15  1  0  0  0  0
 19 16  1  0  0  0  0
 20 23  1  6  0  0  0
 20 18  1  0  0  0  0
 21 23  1  0  0  0  0
 22 23  2  0  0  0  0
 24 25  1  0  0  0  0
 28 27  1  1  0  0  0
 28 29  1  0  0  0  0
 28 26  1  0  0  0  0
 31 30  2  0  0  0  0
 32 34  2  0  0  0  0
 33 31  1  0  0  0  0
 34 33  1  0  0  0  0
 35 29  1  0  0  0  0
 35 31  1  0  0  0  0
 36 34  1  0  0  0  0
 36 37  1  0  0  0  0
 38 28  1  0  0  0  0
 39 40  1  6  0  0  0
 39 38  1  0  0  0  0
 41 42  2  0  0  0  0
 42 39  1  0  0  0  0
M  END
>  <MODEL>
7

>  <REMARK>
 VINA RESULT:      -6.0      2.535      6.578
  Name = 
  16 active torsions:
  status: ('A' for Active; 'I' for Inactive)
    1  A    between atoms: O_2  and  C_18
    2  A    between atoms: C_3  and  C_4
    3  A    between atoms: C_3  and  C_42
    4  A    between atoms: C_4  and  C_9
    5  A    between atoms: C_5  and  C_31
    6  A    between atoms: C_9  and  C_20
    7  A    between atoms: C_9  and  C_21
    8  A    between atoms: C_10  and  C_20
    9  A    between atoms: C_10  and  C_40
   10  A    between atoms: C_10  and  C_41
   11  A    between atoms: O_12  and  C_28
   12  A    between atoms: O_12  and  C_40
   13  A    between atoms: C_21  and  N_24
   14  A    between atoms: C_23  and  C_25
   15  A    between atoms: C_28  and  C_33
   16  A    between atoms: C_37  and  C_38
                            x       y       z     vdW  Elec       q    Type
                         _______ _______ _______ _____ _____    ______ ____

>  <TORSDO>
F 16

$$$$
=
 OpenBabel11072410583D

 42 43  0  0  1  0  0  0  0  0999 V2000
  161.6430  208.1210  150.5910 C   0  0  1  0  0  3  0  0  0  0  0  0
  160.7310  206.9320  153.8850 C   0  0  2  0  0  3  0  0  0  0  0  0
  162.0030  206.1270  153.7160 C   0  0  0  0  0  2  0  0  0  0  0  0
  160.8670  208.1510  152.9900 C   0  0  0  0  0  2  0  0  0  0  0  0
  162.4900  206.4480  152.3230 C   0  0  0  0  0  2  0  0  0  0  0  0
  162.0300  207.8740  152.0530 C   0  0  1  0  0  3  0  0  0  0  0  0
  161.5060  207.6580  156.0320 O   0  0  0  0  0  0  0  0  0  0  0  0
  160.5270  207.3270  155.3090 C   0  0  0  0  0  0  0  0  0  0  0  0
  159.2140  207.3340  155.8560 N   0  0  0  0  0  1  0  0  0  0  0  0
  162.0550  209.9010  149.0630 O   0  0  0  0  0  0  0  0  0  0  0  0
  161.7820  209.5700  150.2480 C   0  0  0  0  0  0  0  0  0  0  0  0
  161.5870  210.5390  151.2350 O   0  0  0  0  0  0  0  0  0  0  0  0
  160.4410  211.3830  151.2630 C   0  0  2  0  0  3  0  0  0  0  0  0
  160.7660  212.6230  150.7040 O   0  0  0  0  0  1  0  0  0  0  0  0
  158.0630  211.8670  154.3580 C   0  0  2  0  0  3  0  0  0  0  0  0
  158.4560  211.4600  152.9350 C   0  0  0  0  0  2  0  0  0  0  0  0
  160.8260  211.5520  153.6910 C   0  0  0  0  0  3  0  0  0  0  0  0
  158.9830  211.1830  155.3580 C   0  0  0  0  0  2  0  0  0  0  0  0
  159.9440  211.5630  152.6720 C   0  0  0  0  0  0  0  0  0  0  0  0
  160.4080  211.6790  155.1310 C   0  0  1  0  0  3  0  0  0  0  0  0
  161.0350  210.6360  157.1920 O   0  0  0  0  0  1  0  0  0  0  0  0
  162.6550  210.7030  155.5740 O   0  0  0  0  0  0  0  0  0  0  0  0
  161.3730  210.9810  156.0280 C   0  0  0  0  0  0  0  0  0  0  0  0
  156.4280  211.2090  156.1220 C   0  0  0  0  0  1  0  0  0  0  0  0
  156.6250  211.4700  154.6400 C   0  0  0  0  0  2  0  0  0  0  0  0
  162.4250  207.2270  149.6140 C   0  0  0  0  0  2  0  0  0  0  0  0
  160.1050  206.5750  149.1070 C   0  0  0  0  0  1  0  0  0  0  0  0
  161.5600  206.1990  148.8700 C   0  0  1  0  0  0  0  0  0  0  0  0
  161.8800  206.2120  147.3660 C   0  0  0  0  0  2  0  0  0  0  0  0
  160.4420  206.1630  144.9120 O   0  0  0  0  0  0  0  0  0  0  0  0
  160.7070  205.0530  145.4440 C   0  0  0  0  0  0  0  0  0  0  0  0
  160.9220  202.2860  146.4500 N   0  0  0  0  0  2  0  0  0  0  0  0
  160.3110  203.8510  144.7730 N   0  0  0  0  0  2  0  0  0  0  0  0
  160.4650  202.5110  145.2600 C   0  0  0  0  0  0  0  0  0  0  0  0
  161.4010  205.0080  146.6950 N   0  0  0  0  0  2  0  0  0  0  0  0
  160.1080  201.4490  144.4260 O   0  0  0  0  0  0  0  0  0  0  0  0
  160.0430  200.1080  144.8870 C   0  0  0  0  0  1  0  0  0  0  0  0
  161.8090  204.8040  149.4620 C   0  0  0  0  0  2  0  0  0  0  0  0
  160.5650  204.1520  150.0560 C   0  0  1  0  0  3  0  0  0  0  0  0
  160.1790  203.0680  149.2680 O   0  0  0  0  0  1  0  0  0  0  0  0
  161.2040  202.4600  151.6460 N   0  0  0  0  0  2  0  0  0  0  0  0
  160.8740  203.6800  151.4360 C   0  0  0  0  0  3  0  0  0  0  0  0
  1 26  1  6  0  0  0
  2  8  1  1  0  0  0
  3  2  1  0  0  0  0
  4  2  1  0  0  0  0
  5  3  1  0  0  0  0
  6  1  1  6  0  0  0
  6  5  1  0  0  0  0
  6  4  1  0  0  0  0
  8  9  1  0  0  0  0
  8  7  2  0  0  0  0
 10 11  2  0  0  0  0
 11  1  1  0  0  0  0
 11 12  1  0  0  0  0
 12 13  1  0  0  0  0
 13 14  1  1  0  0  0
 13 19  1  0  0  0  0
 15 25  1  1  0  0  0
 15 18  1  0  0  0  0
 16 15  1  0  0  0  0
 17 20  1  0  0  0  0
 19 16  1  0  0  0  0
 19 17  2  0  0  0  0
 20 18  1  0  0  0  0
 20 23  1  1  0  0  0
 22 23  2  0  0  0  0
 23 21  1  0  0  0  0
 25 24  1  0  0  0  0
 28 27  1  1  0  0  0
 28 38  1  0  0  0  0
 28 26  1  0  0  0  0
 29 28  1  0  0  0  0
 30 31  2  0  0  0  0
 31 35  1  0  0  0  0
 33 34  1  0  0  0  0
 33 31  1  0  0  0  0
 34 32  2  0  0  0  0
 35 29  1  0  0  0  0
 36 37  1  0  0  0  0
 36 34  1  0  0  0  0
 38 39  1  0  0  0  0
 39 40  1  6  0  0  0
 39 42  1  0  0  0  0
 42 41  2  0  0  0  0
M  END
>  <MODEL>
8

>  <REMARK>
 VINA RESULT:      -5.8      3.305      8.338
  Name = 
  16 active torsions:
  status: ('A' for Active; 'I' for Inactive)
    1  A    between atoms: O_2  and  C_18
    2  A    between atoms: C_3  and  C_4
    3  A    between atoms: C_3  and  C_42
    4  A    between atoms: C_4  and  C_9
    5  A    between atoms: C_5  and  C_31
    6  A    between atoms: C_9  and  C_20
    7  A    between atoms: C_9  and  C_21
    8  A    between atoms: C_10  and  C_20
    9  A    between atoms: C_10  and  C_40
   10  A    between atoms: C_10  and  C_41
   11  A    between atoms: O_12  and  C_28
   12  A    between atoms: O_12  and  C_40
   13  A    between atoms: C_21  and  N_24
   14  A    between atoms: C_23  and  C_25
   15  A    between atoms: C_28  and  C_33
   16  A    between atoms: C_37  and  C_38
                            x       y       z     vdW  Elec       q    Type
                         _______ _______ _______ _____ _____    ______ ____

>  <TORSDO>
F 16

$$$$
=
 OpenBabel11072410583D

 42 43  0  0  1  0  0  0  0  0999 V2000
  161.5470  209.3430  150.5080 C   0  0  1  0  0  3  0  0  0  0  0  0
  160.1420  210.2570  153.7150 C   0  0  2  0  0  3  0  0  0  0  0  0
  161.6050  210.3170  154.1020 C   0  0  0  0  0  2  0  0  0  0  0  0
  160.0810  210.4820  152.2150 C   0  0  0  0  0  2  0  0  0  0  0  0
  162.3570  209.8730  152.8700 C   0  0  0  0  0  2  0  0  0  0  0  0
  161.4980  210.3140  151.6930 C   0  0  1  0  0  3  0  0  0  0  0  0
  158.1450  211.5080  154.1430 O   0  0  0  0  0  0  0  0  0  0  0  0
  159.3470  211.2860  154.4480 C   0  0  0  0  0  0  0  0  0  0  0  0
  159.9530  212.0220  155.5040 N   0  0  0  0  0  1  0  0  0  0  0  0
  162.0080  209.4220  148.1730 O   0  0  0  0  0  0  0  0  0  0  0  0
  161.9590  210.0570  149.2610 C   0  0  0  0  0  0  0  0  0  0  0  0
  162.2630  211.4190  149.3080 O   0  0  0  0  0  0  0  0  0  0  0  0
  162.1870  212.2600  148.1620 C   0  0  2  0  0  3  0  0  0  0  0  0
  163.1500  213.2690  148.2630 O   0  0  0  0  0  1  0  0  0  0  0  0
  158.7690  213.4930  146.6560 C   0  0  2  0  0  3  0  0  0  0  0  0
  160.0520  212.6600  146.7390 C   0  0  0  0  0  2  0  0  0  0  0  0
  160.1940  213.3380  149.1300 C   0  0  0  0  0  3  0  0  0  0  0  0
  157.9790  213.3450  147.9460 C   0  0  0  0  0  2  0  0  0  0  0  0
  160.8140  212.8640  148.0320 C   0  0  0  0  0  0  0  0  0  0  0  0
  158.8040  213.9150  149.0950 C   0  0  1  0  0  3  0  0  0  0  0  0
  158.7800  213.5130  151.4540 O   0  0  0  0  0  1  0  0  0  0  0  0
  156.7310  213.7790  150.4660 O   0  0  0  0  0  0  0  0  0  0  0  0
  158.1160  213.7220  150.4040 C   0  0  0  0  0  0  0  0  0  0  0  0
  158.6120  213.3440  144.1720 C   0  0  0  0  0  1  0  0  0  0  0  0
  157.9190  213.0320  145.4850 C   0  0  0  0  0  2  0  0  0  0  0  0
  162.4350  208.1190  150.7840 C   0  0  0  0  0  2  0  0  0  0  0  0
  160.3750  206.9410  150.1260 C   0  0  0  0  0  1  0  0  0  0  0  0
  161.8880  206.8010  150.2180 C   0  0  1  0  0  0  0  0  0  0  0  0
  162.4860  206.5190  148.8290 C   0  0  0  0  0  2  0  0  0  0  0  0
  162.3260  205.9050  146.0570 O   0  0  0  0  0  0  0  0  0  0  0  0
  161.9800  205.0030  146.8650 C   0  0  0  0  0  0  0  0  0  0  0  0
  160.8810  202.7260  148.3870 N   0  0  0  0  0  2  0  0  0  0  0  0
  161.5730  203.7310  146.3510 N   0  0  0  0  0  2  0  0  0  0  0  0
  161.0820  202.6190  147.1120 C   0  0  0  0  0  0  0  0  0  0  0  0
  162.0070  205.2590  148.2730 N   0  0  0  0  0  2  0  0  0  0  0  0
  160.8220  201.4160  146.4520 O   0  0  0  0  0  0  0  0  0  0  0  0
  160.0820  201.3560  145.2420 C   0  0  0  0  0  1  0  0  0  0  0  0
  162.2150  205.6570  151.1880 C   0  0  0  0  0  2  0  0  0  0  0  0
  161.1750  205.4560  152.2850 C   0  0  1  0  0  3  0  0  0  0  0  0
  161.0660  204.1000  152.5890 O   0  0  0  0  0  1  0  0  0  0  0  0
  160.7290  206.6100  154.3520 N   0  0  0  0  0  2  0  0  0  0  0  0
  161.5990  206.2070  153.5010 C   0  0  0  0  0  3  0  0  0  0  0  0
  1 26  1  1  0  0  0
  2  3  1  0  0  0  0
  2  8  1  1  0  0  0
  4  2  1  0  0  0  0
  5  3  1  0  0  0  0
  6  1  1  6  0  0  0
  6  4  1  0  0  0  0
  6  5  1  0  0  0  0
  7  8  2  0  0  0  0
  8  9  1  0  0  0  0
 10 11  2  0  0  0  0
 11 12  1  0  0  0  0
 11  1  1  0  0  0  0
 13 14  1  1  0  0  0
 13 12  1  0  0  0  0
 15 25  1  6  0  0  0
 15 16  1  0  0  0  0
 15 18  1  0  0  0  0
 16 19  1  0  0  0  0
 18 20  1  0  0  0  0
 19 13  1  0  0  0  0
 19 17  2  0  0  0  0
 20 17  1  0  0  0  0
 20 23  1  1  0  0  0
 23 22  2  0  0  0  0
 23 21  1  0  0  0  0
 24 25  1  0  0  0  0
 28 27  1  6  0  0  0
 28 26  1  0  0  0  0
 28 38  1  0  0  0  0
 29 28  1  0  0  0  0
 30 31  2  0  0  0  0
 31 35  1  0  0  0  0
 33 31  1  0  0  0  0
 33 34  1  0  0  0  0
 34 32  2  0  0  0  0
 35 29  1  0  0  0  0
 36 34  1  0  0  0  0
 37 36  1  0  0  0  0
 38 39  1  0  0  0  0
 39 40  1  1  0  0  0
 39 42  1  0  0  0  0
 42 41  2  0  0  0  0
M  END
>  <MODEL>
9

>  <REMARK>
 VINA RESULT:      -5.8      2.207      6.751
  Name = 
  16 active torsions:
  status: ('A' for Active; 'I' for Inactive)
    1  A    between atoms: O_2  and  C_18
    2  A    between atoms: C_3  and  C_4
    3  A    between atoms: C_3  and  C_42
    4  A    between atoms: C_4  and  C_9
    5  A    between atoms: C_5  and  C_31
    6  A    between atoms: C_9  and  C_20
    7  A    between atoms: C_9  and  C_21
    8  A    between atoms: C_10  and  C_20
    9  A    between atoms: C_10  and  C_40
   10  A    between atoms: C_10  and  C_41
   11  A    between atoms: O_12  and  C_28
   12  A    between atoms: O_12  and  C_40
   13  A    between atoms: C_21  and  N_24
   14  A    between atoms: C_23  and  C_25
   15  A    between atoms: C_28  and  C_33
   16  A    between atoms: C_37  and  C_38
                            x       y       z     vdW  Elec       q    Type
                         _______ _______ _______ _____ _____    ______ ____

>  <TORSDO>
F 16

$$$$
