=
 OpenBabel11072414253D

 26 29  0  0  0  0  0  0  0  0999 V2000
  161.0210  202.9850  149.5510 C   0  0  0  0  0  0  0  0  0  0  0  0
  161.0170  203.0000  145.3000 O   0  0  0  0  0  0  0  0  0  0  0  0
  161.0810  202.6750  148.2160 C   0  0  0  0  0  0  0  0  0  0  0  0
  161.1390  202.0010  150.5310 C   0  0  0  0  0  3  0  0  0  0  0  0
  161.3770  205.3230  145.4030 C   0  0  0  0  0  0  0  0  0  0  0  0
  161.3830  200.3910  148.7520 N   0  0  0  0  0  0  0  0  0  0  0  0
  162.7630  208.1660  150.5000 C   0  0  0  0  0  3  0  0  0  0  0  0
  161.2800  206.3130  151.1720 N   0  0  0  0  0  0  0  0  0  0  0  0
  161.2490  208.3800  152.3990 C   0  0  0  0  0  3  0  0  0  0  0  0
  160.9510  203.8530  147.5020 C   0  0  0  0  0  0  0  0  0  0  0  0
  160.7100  205.0100  150.9740 C   0  0  0  0  0  0  0  0  0  0  0  0
  162.5170  210.2570  151.4860 F   0  0  0  0  0  0  0  0  0  0  0  0
  160.8710  204.3140  149.7260 N   0  0  0  0  0  0  0  0  0  0  0  0
  162.5020  206.6860  150.4460 C   0  0  0  0  0  2  0  0  0  0  0  0
  160.8100  204.8430  148.4760 C   0  0  0  0  0  0  0  0  0  0  0  0
  161.3210  200.6790  150.0900 C   0  0  0  0  0  3  0  0  0  0  0  0
  160.4770  206.2070  148.2200 N   0  0  0  0  0  2  0  0  0  0  0  0
  161.0690  204.0210  146.0360 C   0  0  0  0  0  0  0  0  0  0  0  0
  160.8080  207.1310  152.2550 C   0  0  0  0  0  3  0  0  0  0  0  0
  161.2710  201.3610  147.7980 C   0  0  0  0  0  3  0  0  0  0  0  0
  160.0650  204.4610  151.9090 O   0  0  0  0  0  0  0  0  0  0  0  0
  162.2160  208.9370  151.4410 C   0  0  0  0  0  0  0  0  0  0  0  0
  159.9020  206.6340  146.9560 C   0  0  0  0  0  2  0  0  0  0  0  0
  160.8820  206.4890  145.8390 C   0  0  0  0  0  3  0  0  0  0  0  0
  161.7700  205.6590  143.0690 O   0  0  0  0  0  1  0  0  0  0  0  0
  162.2150  205.3140  144.2860 O   0  0  0  0  0  0  0  0  0  0  0  0
  1 13  1  0  0  0  0
  1  4  1  0  0  0  0
  2 18  2  0  0  0  0
  3  1  2  0  0  0  0
  5 24  2  0  0  0  0
  5 18  1  0  0  0  0
  6 16  1  0  0  0  0
  7 22  2  0  0  0  0
  8 19  1  0  0  0  0
 10  3  1  0  0  0  0
 10 15  2  0  0  0  0
 11  8  1  0  0  0  0
 11 21  2  0  0  0  0
 13 11  1  0  0  0  0
 14  7  1  0  0  0  0
 14  8  1  0  0  0  0
 15 13  1  0  0  0  0
 16  4  2  0  0  0  0
 17 15  1  0  0  0  0
 18 10  1  0  0  0  0
 19  9  2  0  0  0  0
 20  3  1  0  0  0  0
 20  6  2  0  0  0  0
 22 12  1  0  0  0  0
 22  9  1  0  0  0  0
 23 17  1  0  0  0  0
 24 23  1  0  0  0  0
 25 26  1  0  0  0  0
 26  5  1  0  0  0  0
M  END
>  <MODEL>
1

>  <REMARK>
 VINA RESULT:      -6.7      0.000      0.000
  Name = 
  1 active torsions:
  status: ('A' for Active; 'I' for Inactive)
    1  A    between atoms: C_5  and  O_18
                            x       y       z     vdW  Elec       q    Type
                         _______ _______ _______ _____ _____    ______ ____

>  <TORSDO>
F 1

$$$$
=
 OpenBabel11072414253D

 26 29  0  0  0  0  0  0  0  0999 V2000
  160.7640  207.5130  153.9050 C   0  0  0  0  0  0  0  0  0  0  0  0
  160.7290  211.7570  153.6770 O   0  0  0  0  0  0  0  0  0  0  0  0
  160.6280  208.8590  154.1290 C   0  0  0  0  0  0  0  0  0  0  0  0
  160.4560  206.5780  154.8930 C   0  0  0  0  0  3  0  0  0  0  0  0
  160.8540  211.5370  151.3380 C   0  0  0  0  0  0  0  0  0  0  0  0
  159.8700  208.4260  156.3270 N   0  0  0  0  0  0  0  0  0  0  0  0
  160.1300  206.2850  148.5330 C   0  0  0  0  0  3  0  0  0  0  0  0
  161.2080  205.7310  150.6810 N   0  0  0  0  0  0  0  0  0  0  0  0
  161.6730  204.4080  148.7280 C   0  0  0  0  0  3  0  0  0  0  0  0
  160.9900  209.5190  152.9680 C   0  0  0  0  0  0  0  0  0  0  0  0
  161.4970  206.0020  152.0610 C   0  0  0  0  0  0  0  0  0  0  0  0
  160.8080  205.2060  146.5890 F   0  0  0  0  0  0  0  0  0  0  0  0
  161.1850  207.2780  152.6460 N   0  0  0  0  0  0  0  0  0  0  0  0
  160.0810  206.4140  150.0310 C   0  0  0  0  0  2  0  0  0  0  0  0
  161.3400  208.5020  152.0780 C   0  0  0  0  0  0  0  0  0  0  0  0
  160.0040  207.0770  156.1270 C   0  0  0  0  0  3  0  0  0  0  0  0
  161.9430  208.7000  150.7990 N   0  0  0  0  0  2  0  0  0  0  0  0
  160.8940  210.9720  152.7050 C   0  0  0  0  0  0  0  0  0  0  0  0
  161.8480  204.6200  150.0320 C   0  0  0  0  0  3  0  0  0  0  0  0
  160.1690  209.3350  155.3540 C   0  0  0  0  0  3  0  0  0  0  0  0
  162.0250  205.1070  152.7770 O   0  0  0  0  0  0  0  0  0  0  0  0
  160.8320  205.3190  147.9380 C   0  0  0  0  0  0  0  0  0  0  0  0
  162.5810  209.9530  150.4360 C   0  0  0  0  0  2  0  0  0  0  0  0
  161.5810  211.0560  150.3210 C   0  0  0  0  0  3  0  0  0  0  0  0
  160.0930  213.3620  149.9940 O   0  0  0  0  0  1  0  0  0  0  0  0
  160.0200  212.6360  151.1200 O   0  0  0  0  0  0  0  0  0  0  0  0
  1  3  2  0  0  0  0
  1  4  1  0  0  0  0
  3 20  1  0  0  0  0
  4 16  2  0  0  0  0
  5 18  1  0  0  0  0
  7 14  1  0  0  0  0
  8 11  1  0  0  0  0
  9 19  2  0  0  0  0
 10  3  1  0  0  0  0
 11 13  1  0  0  0  0
 11 21  2  0  0  0  0
 12 22  1  0  0  0  0
 13  1  1  0  0  0  0
 14  8  1  0  0  0  0
 15 13  1  0  0  0  0
 15 10  2  0  0  0  0
 16  6  1  0  0  0  0
 17 15  1  0  0  0  0
 18 10  1  0  0  0  0
 18  2  2  0  0  0  0
 19  8  1  0  0  0  0
 20  6  2  0  0  0  0
 22  7  2  0  0  0  0
 22  9  1  0  0  0  0
 23 17  1  0  0  0  0
 24 23  1  0  0  0  0
 24  5  2  0  0  0  0
 25 26  1  0  0  0  0
 26  5  1  0  0  0  0
M  END
>  <MODEL>
2

>  <REMARK>
 VINA RESULT:      -5.7      3.947      7.208
  Name = 
  1 active torsions:
  status: ('A' for Active; 'I' for Inactive)
    1  A    between atoms: C_5  and  O_18
                            x       y       z     vdW  Elec       q    Type
                         _______ _______ _______ _____ _____    ______ ____

>  <TORSDO>
F 1

$$$$
=
 OpenBabel11072414253D

 26 29  0  0  0  0  0  0  0  0999 V2000
  161.9730  209.6910  150.6530 C   0  0  0  0  0  0  0  0  0  0  0  0
  161.9510  206.4580  147.8930 O   0  0  0  0  0  0  0  0  0  0  0  0
  161.9430  208.8840  149.5440 C   0  0  0  0  0  0  0  0  0  0  0  0
  161.9790  211.0800  150.5390 C   0  0  0  0  0  3  0  0  0  0  0  0
  161.3160  205.0630  149.6790 C   0  0  0  0  0  0  0  0  0  0  0  0
  161.9200  210.7920  148.1460 N   0  0  0  0  0  0  0  0  0  0  0  0
  159.6270  207.2040  155.0220 C   0  0  0  0  0  3  0  0  0  0  0  0
  161.3250  208.7900  154.1930 N   0  0  0  0  0  0  0  0  0  0  0  0
  161.1140  208.3810  156.5530 C   0  0  0  0  0  3  0  0  0  0  0  0
  161.9270  207.5700  149.9770 C   0  0  0  0  0  0  0  0  0  0  0  0
  162.0460  209.4350  153.1330 C   0  0  0  0  0  0  0  0  0  0  0  0
  159.6250  206.5800  157.2610 F   0  0  0  0  0  0  0  0  0  0  0  0
  161.9630  208.9520  151.7810 N   0  0  0  0  0  0  0  0  0  0  0  0
  160.0630  208.0990  153.8940 C   0  0  0  0  0  2  0  0  0  0  0  0
  161.9530  207.6580  151.3700 C   0  0  0  0  0  0  0  0  0  0  0  0
  161.9550  211.6160  149.2410 C   0  0  0  0  0  3  0  0  0  0  0  0
  162.1180  206.5530  152.2590 N   0  0  0  0  0  2  0  0  0  0  0  0
  161.7810  206.3600  149.1380 C   0  0  0  0  0  0  0  0  0  0  0  0
  161.7020  209.0440  155.5570 C   0  0  0  0  0  3  0  0  0  0  0  0
  161.9100  209.4330  148.2640 C   0  0  0  0  0  3  0  0  0  0  0  0
  162.7570  210.4470  153.3850 O   0  0  0  0  0  0  0  0  0  0  0  0
  160.0830  207.3740  156.2640 C   0  0  0  0  0  0  0  0  0  0  0  0
  162.6320  205.2720  151.8080 C   0  0  0  0  0  2  0  0  0  0  0  0
  161.6700  204.6000  150.8850 C   0  0  0  0  0  3  0  0  0  0  0  0
  160.8560  203.0900  148.4110 O   0  0  0  0  0  1  0  0  0  0  0  0
  160.4780  204.2910  148.8700 O   0  0  0  0  0  0  0  0  0  0  0  0
  1 13  1  0  0  0  0
  2 18  2  0  0  0  0
  3 10  1  0  0  0  0
  3  1  2  0  0  0  0
  4  1  1  0  0  0  0
  5 24  2  0  0  0  0
  6 20  2  0  0  0  0
  6 16  1  0  0  0  0
  7 22  2  0  0  0  0
  8 19  1  0  0  0  0
 10 15  2  0  0  0  0
 11 21  2  0  0  0  0
 11  8  1  0  0  0  0
 13 11  1  0  0  0  0
 14  8  1  0  0  0  0
 14  7  1  0  0  0  0
 15 13  1  0  0  0  0
 15 17  1  0  0  0  0
 16  4  2  0  0  0  0
 18  5  1  0  0  0  0
 18 10  1  0  0  0  0
 19  9  2  0  0  0  0
 20  3  1  0  0  0  0
 22  9  1  0  0  0  0
 22 12  1  0  0  0  0
 23 17  1  0  0  0  0
 24 23  1  0  0  0  0
 25 26  1  0  0  0  0
 26  5  1  0  0  0  0
M  END
>  <MODEL>
3

>  <REMARK>
 VINA RESULT:      -5.7      3.495      6.152
  Name = 
  1 active torsions:
  status: ('A' for Active; 'I' for Inactive)
    1  A    between atoms: C_5  and  O_18
                            x       y       z     vdW  Elec       q    Type
                         _______ _______ _______ _____ _____    ______ ____

>  <TORSDO>
F 1

$$$$
=
 OpenBabel11072414253D

 26 29  0  0  0  0  0  0  0  0999 V2000
  160.0690  212.5470  151.6040 C   0  0  0  0  0  0  0  0  0  0  0  0
  162.3310  208.9640  151.2680 O   0  0  0  0  0  0  0  0  0  0  0  0
  160.8560  211.5000  151.1970 C   0  0  0  0  0  0  0  0  0  0  0  0
  159.8410  213.6480  150.7780 C   0  0  0  0  0  3  0  0  0  0  0  0
  161.1020  208.1300  153.0930 C   0  0  0  0  0  0  0  0  0  0  0  0
  161.2330  212.5780  149.1250 N   0  0  0  0  0  0  0  0  0  0  0  0
  156.2370  210.8920  155.2580 C   0  0  0  0  0  3  0  0  0  0  0  0
  157.7150  212.7030  154.4670 N   0  0  0  0  0  0  0  0  0  0  0  0
  156.2790  213.0660  156.3610 C   0  0  0  0  0  3  0  0  0  0  0  0
  160.8760  210.5650  152.2170 C   0  0  0  0  0  0  0  0  0  0  0  0
  158.7560  213.2090  153.6180 C   0  0  0  0  0  0  0  0  0  0  0  0
  155.0820  211.1370  157.2610 F   0  0  0  0  0  0  0  0  0  0  0  0
  159.5710  212.3200  152.8360 N   0  0  0  0  0  0  0  0  0  0  0  0
  157.0380  211.4480  154.1120 C   0  0  0  0  0  2  0  0  0  0  0  0
  160.0770  211.1180  153.2180 C   0  0  0  0  0  0  0  0  0  0  0  0
  160.4550  213.6360  149.5140 C   0  0  0  0  0  3  0  0  0  0  0  0
  159.9320  210.5930  154.5380 N   0  0  0  0  0  2  0  0  0  0  0  0
  161.5020  209.2250  152.1810 C   0  0  0  0  0  0  0  0  0  0  0  0
  157.1740  213.5460  155.4980 C   0  0  0  0  0  3  0  0  0  0  0  0
  161.4480  211.5010  149.9370 C   0  0  0  0  0  3  0  0  0  0  0  0
  158.9560  214.4530  153.5480 O   0  0  0  0  0  0  0  0  0  0  0  0
  155.8460  211.6640  156.2750 C   0  0  0  0  0  0  0  0  0  0  0  0
  160.8720  209.6330  155.0910 C   0  0  0  0  0  2  0  0  0  0  0  0
  160.7870  208.3230  154.3800 C   0  0  0  0  0  3  0  0  0  0  0  0
  161.3480  205.7640  153.3270 O   0  0  0  0  0  1  0  0  0  0  0  0
  161.0700  206.8350  152.5700 O   0  0  0  0  0  0  0  0  0  0  0  0
  1 13  1  0  0  0  0
  2 18  2  0  0  0  0
  3  1  1  0  0  0  0
  3 10  1  0  0  0  0
  4  1  2  0  0  0  0
  5 24  2  0  0  0  0
  6 16  2  0  0  0  0
  6 20  1  0  0  0  0
  7 22  2  0  0  0  0
  8 19  1  0  0  0  0
 10 15  2  0  0  0  0
 11  8  1  0  0  0  0
 13 15  1  0  0  0  0
 13 11  1  0  0  0  0
 14  8  1  0  0  0  0
 14  7  1  0  0  0  0
 15 17  1  0  0  0  0
 16  4  1  0  0  0  0
 17 23  1  0  0  0  0
 18 10  1  0  0  0  0
 18  5  1  0  0  0  0
 19  9  2  0  0  0  0
 20  3  2  0  0  0  0
 21 11  2  0  0  0  0
 22  9  1  0  0  0  0
 22 12  1  0  0  0  0
 24 23  1  0  0  0  0
 26  5  1  0  0  0  0
 26 25  1  0  0  0  0
M  END
>  <MODEL>
4

>  <REMARK>
 VINA RESULT:      -5.4      6.712      9.237
  Name = 
  1 active torsions:
  status: ('A' for Active; 'I' for Inactive)
    1  A    between atoms: C_5  and  O_18
                            x       y       z     vdW  Elec       q    Type
                         _______ _______ _______ _____ _____    ______ ____

>  <TORSDO>
F 1

$$$$
=
 OpenBabel11072414253D

 26 29  0  0  0  0  0  0  0  0999 V2000
  161.5990  205.3950  147.0520 C   0  0  0  0  0  0  0  0  0  0  0  0
  160.6940  201.3050  147.7720 O   0  0  0  0  0  0  0  0  0  0  0  0
  161.2450  204.0730  146.9670 C   0  0  0  0  0  0  0  0  0  0  0  0
  161.6630  206.2030  145.9180 C   0  0  0  0  0  3  0  0  0  0  0  0
  160.4350  201.8610  150.0440 C   0  0  0  0  0  0  0  0  0  0  0  0
  160.9960  204.2810  144.6240 N   0  0  0  0  0  0  0  0  0  0  0  0
  160.2580  207.5310  151.9930 C   0  0  0  0  0  3  0  0  0  0  0  0
  161.7930  207.5550  150.0620 N   0  0  0  0  0  0  0  0  0  0  0  0
  162.1480  209.0680  151.8970 C   0  0  0  0  0  3  0  0  0  0  0  0
  161.2550  203.5490  148.2480 C   0  0  0  0  0  0  0  0  0  0  0  0
  162.2680  207.0290  148.8140 C   0  0  0  0  0  0  0  0  0  0  0  0
  160.7710  208.7690  153.8920 F   0  0  0  0  0  0  0  0  0  0  0  0
  161.8230  205.7480  148.3340 N   0  0  0  0  0  0  0  0  0  0  0  0
  160.4560  207.1810  150.5430 C   0  0  0  0  0  2  0  0  0  0  0  0
  161.6310  204.6190  149.0630 C   0  0  0  0  0  0  0  0  0  0  0  0
  161.3520  205.6030  144.6860 C   0  0  0  0  0  3  0  0  0  0  0  0
  161.9420  204.5230  150.4530 N   0  0  0  0  0  2  0  0  0  0  0  0
  160.8310  202.1920  148.6560 C   0  0  0  0  0  0  0  0  0  0  0  0
  162.5110  208.6300  150.6920 C   0  0  0  0  0  3  0  0  0  0  0  0
  160.9310  203.4960  145.7390 C   0  0  0  0  0  3  0  0  0  0  0  0
  163.0810  207.7000  148.1210 O   0  0  0  0  0  0  0  0  0  0  0  0
  161.0160  208.4450  152.6000 C   0  0  0  0  0  0  0  0  0  0  0  0
  162.2470  203.2520  151.0870 C   0  0  0  0  0  2  0  0  0  0  0  0
  161.0460  202.3650  151.1230 C   0  0  0  0  0  3  0  0  0  0  0  0
  158.3230  200.9550  149.3860 O   0  0  0  0  0  1  0  0  0  0  0  0
  159.3760  200.9650  150.2150 O   0  0  0  0  0  0  0  0  0  0  0  0
  1 13  1  0  0  0  0
  2 18  2  0  0  0  0
  3  1  1  0  0  0  0
  3 10  1  0  0  0  0
  4  1  2  0  0  0  0
  5 26  1  0  0  0  0
  5 24  2  0  0  0  0
  6 16  2  0  0  0  0
  6 20  1  0  0  0  0
  7 22  2  0  0  0  0
  8 14  1  0  0  0  0
  8 19  1  0  0  0  0
  9 22  1  0  0  0  0
 10 18  1  0  0  0  0
 10 15  2  0  0  0  0
 11  8  1  0  0  0  0
 13 11  1  0  0  0  0
 13 15  1  0  0  0  0
 14  7  1  0  0  0  0
 15 17  1  0  0  0  0
 16  4  1  0  0  0  0
 17 23  1  0  0  0  0
 18  5  1  0  0  0  0
 19  9  2  0  0  0  0
 20  3  2  0  0  0  0
 21 11  2  0  0  0  0
 22 12  1  0  0  0  0
 23 24  1  0  0  0  0
 25 26  1  0  0  0  0
M  END
>  <MODEL>
5

>  <REMARK>
 VINA RESULT:      -5.4      2.302      4.472
  Name = 
  1 active torsions:
  status: ('A' for Active; 'I' for Inactive)
    1  A    between atoms: C_5  and  O_18
                            x       y       z     vdW  Elec       q    Type
                         _______ _______ _______ _____ _____    ______ ____

>  <TORSDO>
F 1

$$$$
=
 OpenBabel11072414253D

 26 29  0  0  0  0  0  0  0  0999 V2000
  160.9970  208.0820  153.2090 C   0  0  0  0  0  0  0  0  0  0  0  0
  161.7950  211.3090  150.5600 O   0  0  0  0  0  0  0  0  0  0  0  0
  161.1260  209.2990  152.5920 C   0  0  0  0  0  0  0  0  0  0  0  0
  160.5050  207.9750  154.5090 C   0  0  0  0  0  3  0  0  0  0  0  0
  161.8910  209.7290  148.8180 C   0  0  0  0  0  0  0  0  0  0  0  0
  160.2820  210.3750  154.5220 N   0  0  0  0  0  0  0  0  0  0  0  0
  160.1750  204.0250  149.5150 C   0  0  0  0  0  3  0  0  0  0  0  0
  161.1080  204.6940  151.6990 N   0  0  0  0  0  0  0  0  0  0  0  0
  161.3200  202.4200  150.9490 C   0  0  0  0  0  3  0  0  0  0  0  0
  161.6180  209.0780  151.3180 C   0  0  0  0  0  0  0  0  0  0  0  0
  161.4340  205.6820  152.6890 C   0  0  0  0  0  0  0  0  0  0  0  0
  160.6430  201.9150  148.6580 F   0  0  0  0  0  0  0  0  0  0  0  0
  161.3730  207.0850  152.3810 N   0  0  0  0  0  0  0  0  0  0  0  0
  160.1410  205.0210  150.6420 C   0  0  0  0  0  2  0  0  0  0  0  0
  161.7690  207.6930  151.2330 C   0  0  0  0  0  0  0  0  0  0  0  0
  160.1500  209.1690  155.1580 C   0  0  0  0  0  3  0  0  0  0  0  0
  162.4090  207.0000  150.1620 N   0  0  0  0  0  2  0  0  0  0  0  0
  161.8100  210.0870  150.2520 C   0  0  0  0  0  0  0  0  0  0  0  0
  161.5230  203.3330  151.8980 C   0  0  0  0  0  3  0  0  0  0  0  0
  160.7600  210.4730  153.2470 C   0  0  0  0  0  3  0  0  0  0  0  0
  161.7710  205.3170  153.8490 O   0  0  0  0  0  0  0  0  0  0  0  0
  160.6790  202.8010  149.6820 C   0  0  0  0  0  0  0  0  0  0  0  0
  163.2830  207.6780  149.2200 C   0  0  0  0  0  2  0  0  0  0  0  0
  162.5180  208.6350  148.3670 C   0  0  0  0  0  3  0  0  0  0  0  0
  161.8100  211.8040  147.6330 O   0  0  0  0  0  1  0  0  0  0  0  0
  161.2900  210.5980  147.9030 O   0  0  0  0  0  0  0  0  0  0  0  0
  1  4  1  0  0  0  0
  3  1  2  0  0  0  0
  3 20  1  0  0  0  0
  4 16  2  0  0  0  0
  5 18  1  0  0  0  0
  6 16  1  0  0  0  0
  7 22  2  0  0  0  0
  7 14  1  0  0  0  0
  8 19  1  0  0  0  0
  8 11  1  0  0  0  0
  9 19  2  0  0  0  0
 10  3  1  0  0  0  0
 11 21  2  0  0  0  0
 12 22  1  0  0  0  0
 13 11  1  0  0  0  0
 13  1  1  0  0  0  0
 14  8  1  0  0  0  0
 15 10  2  0  0  0  0
 15 13  1  0  0  0  0
 17 15  1  0  0  0  0
 18  2  2  0  0  0  0
 18 10  1  0  0  0  0
 20  6  2  0  0  0  0
 22  9  1  0  0  0  0
 23 17  1  0  0  0  0
 24  5  2  0  0  0  0
 24 23  1  0  0  0  0
 25 26  1  0  0  0  0
 26  5  1  0  0  0  0
M  END
>  <MODEL>
6

>  <REMARK>
 VINA RESULT:      -5.3      3.776      6.571
  Name = 
  1 active torsions:
  status: ('A' for Active; 'I' for Inactive)
    1  A    between atoms: C_5  and  O_18
                            x       y       z     vdW  Elec       q    Type
                         _______ _______ _______ _____ _____    ______ ____

>  <TORSDO>
F 1

$$$$
=
 OpenBabel11072414253D

 26 29  0  0  0  0  0  0  0  0999 V2000
  161.2010  206.9010  151.9950 C   0  0  0  0  0  0  0  0  0  0  0  0
  161.5730  211.1330  152.1100 O   0  0  0  0  0  0  0  0  0  0  0  0
  161.2090  208.2300  152.3320 C   0  0  0  0  0  0  0  0  0  0  0  0
  160.8500  205.9190  152.9200 C   0  0  0  0  0  3  0  0  0  0  0  0
  161.5650  211.1020  149.7570 C   0  0  0  0  0  0  0  0  0  0  0  0
  160.5170  207.6850  154.5280 N   0  0  0  0  0  0  0  0  0  0  0  0
  160.1960  206.1990  146.5840 C   0  0  0  0  0  3  0  0  0  0  0  0
  161.3150  205.3660  148.6190 N   0  0  0  0  0  0  0  0  0  0  0  0
  161.5550  204.1760  146.5440 C   0  0  0  0  0  3  0  0  0  0  0  0
  161.5790  208.9490  151.2100 C   0  0  0  0  0  0  0  0  0  0  0  0
  161.6930  205.4900  149.9980 C   0  0  0  0  0  0  0  0  0  0  0  0
  160.6720  205.2300  144.5260 F   0  0  0  0  0  0  0  0  0  0  0  0
  161.5370  206.7350  150.6990 N   0  0  0  0  0  0  0  0  0  0  0  0
  160.2310  206.2040  148.0880 C   0  0  0  0  0  2  0  0  0  0  0  0
  161.7850  207.9830  150.2240 C   0  0  0  0  0  0  0  0  0  0  0  0
  160.5070  206.3510  154.2130 C   0  0  0  0  0  3  0  0  0  0  0  0
  162.3430  208.2320  148.9340 N   0  0  0  0  0  2  0  0  0  0  0  0
  161.6140  210.4220  151.0710 C   0  0  0  0  0  0  0  0  0  0  0  0
  161.8110  204.2580  147.8490 C   0  0  0  0  0  3  0  0  0  0  0  0
  160.8580  208.6410  153.6160 C   0  0  0  0  0  3  0  0  0  0  0  0
  162.1640  204.4910  150.6100 O   0  0  0  0  0  0  0  0  0  0  0  0
  160.7710  205.2260  145.8760 C   0  0  0  0  0  0  0  0  0  0  0  0
  163.0840  209.4450  148.6370 C   0  0  0  0  0  2  0  0  0  0  0  0
  162.1930  210.6430  148.6670 C   0  0  0  0  0  3  0  0  0  0  0  0
  161.2990  213.3560  149.0070 O   0  0  0  0  0  1  0  0  0  0  0  0
  160.8340  212.2900  149.6740 O   0  0  0  0  0  0  0  0  0  0  0  0
  1  3  2  0  0  0  0
  1  4  1  0  0  0  0
  3 20  1  0  0  0  0
  4 16  2  0  0  0  0
  5 18  1  0  0  0  0
  7 14  1  0  0  0  0
  8 11  1  0  0  0  0
  9 19  2  0  0  0  0
 10  3  1  0  0  0  0
 11 21  2  0  0  0  0
 11 13  1  0  0  0  0
 12 22  1  0  0  0  0
 13  1  1  0  0  0  0
 14  8  1  0  0  0  0
 15 13  1  0  0  0  0
 15 10  2  0  0  0  0
 16  6  1  0  0  0  0
 17 15  1  0  0  0  0
 18 10  1  0  0  0  0
 18  2  2  0  0  0  0
 19  8  1  0  0  0  0
 20  6  2  0  0  0  0
 22  9  1  0  0  0  0
 22  7  2  0  0  0  0
 23 24  1  0  0  0  0
 23 17  1  0  0  0  0
 24  5  2  0  0  0  0
 25 26  1  0  0  0  0
 26  5  1  0  0  0  0
M  END
>  <MODEL>
7

>  <REMARK>
 VINA RESULT:      -5.1      3.672      6.489
  Name = 
  1 active torsions:
  status: ('A' for Active; 'I' for Inactive)
    1  A    between atoms: C_5  and  O_18
                            x       y       z     vdW  Elec       q    Type
                         _______ _______ _______ _____ _____    ______ ____

>  <TORSDO>
F 1

$$$$
=
 OpenBabel11072414253D

 26 29  0  0  0  0  0  0  0  0999 V2000
  161.4460  206.9300  150.3090 C   0  0  0  0  0  0  0  0  0  0  0  0
  160.7260  206.6980  154.4910 O   0  0  0  0  0  0  0  0  0  0  0  0
  161.1040  206.5610  151.5840 C   0  0  0  0  0  0  0  0  0  0  0  0
  161.3230  206.0450  149.2390 C   0  0  0  0  0  3  0  0  0  0  0  0
  160.8090  209.0490  154.5390 C   0  0  0  0  0  0  0  0  0  0  0  0
  160.4970  204.4110  150.8070 N   0  0  0  0  0  0  0  0  0  0  0  0
  160.8420  212.3940  149.5610 C   0  0  0  0  0  3  0  0  0  0  0  0
  162.0640  210.3340  148.9680 N   0  0  0  0  0  0  0  0  0  0  0  0
  162.6710  212.4260  147.9490 C   0  0  0  0  0  3  0  0  0  0  0  0
  161.3180  207.6490  152.4120 C   0  0  0  0  0  0  0  0  0  0  0  0
  162.3500  208.9380  149.1370 C   0  0  0  0  0  0  0  0  0  0  0  0
  161.6210  214.4530  148.8140 F   0  0  0  0  0  0  0  0  0  0  0  0
  161.8580  208.2140  150.2780 N   0  0  0  0  0  0  0  0  0  0  0  0
  160.8220  210.8900  149.5230 C   0  0  0  0  0  2  0  0  0  0  0  0
  161.7970  208.6490  151.5630 C   0  0  0  0  0  0  0  0  0  0  0  0
  160.8370  204.7580  149.5260 C   0  0  0  0  0  3  0  0  0  0  0  0
  162.3190  209.9070  151.9890 N   0  0  0  0  0  2  0  0  0  0  0  0
  160.9830  207.7510  153.8500 C   0  0  0  0  0  0  0  0  0  0  0  0
  162.8520  211.1090  148.0490 C   0  0  0  0  0  3  0  0  0  0  0  0
  160.6150  205.2840  151.8500 C   0  0  0  0  0  3  0  0  0  0  0  0
  163.0370  208.3310  148.2700 O   0  0  0  0  0  0  0  0  0  0  0  0
  161.6700  213.1000  148.7890 C   0  0  0  0  0  0  0  0  0  0  0  0
  162.7370  210.1430  153.3600 C   0  0  0  0  0  2  0  0  0  0  0  0
  161.5710  210.1220  154.2910 C   0  0  0  0  0  3  0  0  0  0  0  0
  160.0770  209.0440  156.8150 O   0  0  0  0  0  1  0  0  0  0  0  0
  159.8040  209.1350  155.5060 O   0  0  0  0  0  0  0  0  0  0  0  0
  1  3  1  0  0  0  0
  3 20  2  0  0  0  0
  3 10  1  0  0  0  0
  4 16  1  0  0  0  0
  4  1  2  0  0  0  0
  5 26  1  0  0  0  0
  6 20  1  0  0  0  0
  8 11  1  0  0  0  0
  8 14  1  0  0  0  0
  9 19  2  0  0  0  0
  9 22  1  0  0  0  0
 10 18  1  0  0  0  0
 11 13  1  0  0  0  0
 13  1  1  0  0  0  0
 13 15  1  0  0  0  0
 14  7  1  0  0  0  0
 15 17  1  0  0  0  0
 15 10  2  0  0  0  0
 16  6  2  0  0  0  0
 17 23  1  0  0  0  0
 18  2  2  0  0  0  0
 18  5  1  0  0  0  0
 19  8  1  0  0  0  0
 21 11  2  0  0  0  0
 22 12  1  0  0  0  0
 22  7  2  0  0  0  0
 23 24  1  0  0  0  0
 24  5  2  0  0  0  0
 26 25  1  0  0  0  0
M  END
>  <MODEL>
8

>  <REMARK>
 VINA RESULT:      -4.7      3.422      6.961
  Name = 
  1 active torsions:
  status: ('A' for Active; 'I' for Inactive)
    1  A    between atoms: C_5  and  O_18
                            x       y       z     vdW  Elec       q    Type
                         _______ _______ _______ _____ _____    ______ ____

>  <TORSDO>
F 1

$$$$
=
 OpenBabel11072414253D

 26 29  0  0  0  0  0  0  0  0999 V2000
  161.5390  209.1180  150.6950 C   0  0  0  0  0  0  0  0  0  0  0  0
  162.1490  206.2290  153.7520 O   0  0  0  0  0  0  0  0  0  0  0  0
  161.7950  207.9900  151.4320 C   0  0  0  0  0  0  0  0  0  0  0  0
  161.6690  209.1240  149.3070 C   0  0  0  0  0  3  0  0  0  0  0  0
  160.9120  207.6260  155.1870 C   0  0  0  0  0  0  0  0  0  0  0  0
  162.3220  206.8070  149.4520 N   0  0  0  0  0  0  0  0  0  0  0  0
  157.8220  212.3740  153.2170 C   0  0  0  0  0  3  0  0  0  0  0  0
  159.7900  212.2200  151.7380 N   0  0  0  0  0  0  0  0  0  0  0  0
  158.8460  214.3680  152.2600 C   0  0  0  0  0  3  0  0  0  0  0  0
  161.5640  208.2920  152.7620 C   0  0  0  0  0  0  0  0  0  0  0  0
  160.8390  211.4780  151.0970 C   0  0  0  0  0  0  0  0  0  0  0  0
  157.1000  214.4530  153.9650 F   0  0  0  0  0  0  0  0  0  0  0  0
  161.1400  210.1290  151.4940 N   0  0  0  0  0  0  0  0  0  0  0  0
  158.6370  211.5040  152.3000 C   0  0  0  0  0  2  0  0  0  0  0  0
  161.1710  209.6320  152.7570 C   0  0  0  0  0  0  0  0  0  0  0  0
  162.0760  207.9240  148.6980 C   0  0  0  0  0  3  0  0  0  0  0  0
  160.9870  210.4390  153.9200 N   0  0  0  0  0  2  0  0  0  0  0  0
  161.6020  207.3530  153.9060 C   0  0  0  0  0  0  0  0  0  0  0  0
  159.7500  213.6500  151.5950 C   0  0  0  0  0  3  0  0  0  0  0  0
  162.1890  206.8070  150.8110 C   0  0  0  0  0  3  0  0  0  0  0  0
  161.5040  212.0120  150.1660 O   0  0  0  0  0  0  0  0  0  0  0  0
  157.8890  213.7050  153.1570 C   0  0  0  0  0  0  0  0  0  0  0  0
  161.5300  210.0590  155.2130 C   0  0  0  0  0  2  0  0  0  0  0  0
  160.8530  208.8400  155.7470 C   0  0  0  0  0  3  0  0  0  0  0  0
  159.7530  206.6750  157.0490 O   0  0  0  0  0  1  0  0  0  0  0  0
  160.3120  206.5440  155.8370 O   0  0  0  0  0  0  0  0  0  0  0  0
  1  3  1  0  0  0  0
  1 13  1  0  0  0  0
  2 18  2  0  0  0  0
  3 10  1  0  0  0  0
  4  1  2  0  0  0  0
  5 24  2  0  0  0  0
  5 26  1  0  0  0  0
  6 20  1  0  0  0  0
  8 14  1  0  0  0  0
  9 22  1  0  0  0  0
 10 18  1  0  0  0  0
 11 13  1  0  0  0  0
 11  8  1  0  0  0  0
 13 15  1  0  0  0  0
 14  7  1  0  0  0  0
 15 10  2  0  0  0  0
 15 17  1  0  0  0  0
 16  4  1  0  0  0  0
 16  6  2  0  0  0  0
 17 23  1  0  0  0  0
 18  5  1  0  0  0  0
 19  8  1  0  0  0  0
 19  9  2  0  0  0  0
 20  3  2  0  0  0  0
 21 11  2  0  0  0  0
 22  7  2  0  0  0  0
 22 12  1  0  0  0  0
 23 24  1  0  0  0  0
 26 25  1  0  0  0  0
M  END
>  <MODEL>
9

>  <REMARK>
 VINA RESULT:      -4.7      4.913      7.951
  Name = 
  1 active torsions:
  status: ('A' for Active; 'I' for Inactive)
    1  A    between atoms: C_5  and  O_18
                            x       y       z     vdW  Elec       q    Type
                         _______ _______ _______ _____ _____    ______ ____

>  <TORSDO>
F 1

$$$$
