=
 OpenBabel11072413443D

 44 47  0  0  1  0  0  0  0  0999 V2000
  160.6070  208.1270  155.7270 N   0  0  0  0  0  2  0  0  0  0  0  0
  160.6380  206.7090  153.7040 C   0  0  0  0  0  2  0  0  0  0  0  0
  161.2570  209.6530  151.2980 C   0  0  0  0  0  3  0  0  0  0  0  0
  161.5260  209.0910  155.1070 C   0  0  1  0  0  3  0  0  0  0  0  0
  161.3310  209.1000  153.6200 C   0  0  0  0  0  0  0  0  0  0  0  0
  161.5740  210.2410  152.6820 C   0  0  0  0  0  2  0  0  0  0  0  0
  161.0440  207.9690  152.9940 C   0  0  0  0  0  0  0  0  0  0  0  0
  160.9650  207.2210  150.6720 C   0  0  0  0  0  2  0  0  0  0  0  0
  161.0230  208.2000  151.5730 C   0  0  0  0  0  0  0  0  0  0  0  0
  160.9500  206.8070  155.2140 C   0  0  0  0  0  2  0  0  0  0  0  0
  159.4410  211.9540  155.1280 C   0  0  0  0  0  0  0  0  0  0  0  0
  160.4600  211.2040  155.4590 C   0  0  0  0  0  0  0  0  0  0  0  0
  161.4620  210.4330  155.7670 C   0  0  0  0  0  0  0  0  0  0  0  0
  162.6130  211.0010  156.3870 N   0  0  0  0  0  1  0  0  0  0  0  0
  159.5500  213.9610  151.8590 N   0  0  0  0  0  2  0  0  0  0  0  0
  158.5400  211.8560  152.2810 N   0  0  0  0  0  2  0  0  0  0  0  0
  159.2250  212.8650  152.7260 C   0  0  0  0  0  0  0  0  0  0  0  0
  159.5570  212.9710  154.1200 N   0  0  0  0  0  2  0  0  0  0  0  0
  157.3900  213.1560  149.0290 N   0  0  0  0  0  0  0  0  0  0  0  0
  159.7420  213.6670  149.4230 C   0  0  0  0  0  2  0  0  0  0  0  0
  158.9340  214.2230  150.5550 C   0  0  1  0  0  3  0  0  0  0  0  0
  158.7100  213.2170  148.3960 C   0  0  0  0  0  2  0  0  0  0  0  0
  157.5700  213.5680  150.4210 C   0  0  0  0  0  2  0  0  0  0  0  0
  156.6020  213.9680  146.8670 C   0  0  0  0  0  1  0  0  0  0  0  0
  156.5570  214.1580  148.3800 C   0  0  0  0  0  2  0  0  0  0  0  0
  158.2600  211.4970  157.2610 O   0  0  0  0  0  1  0  0  0  0  0  0
  157.0950  212.1650  155.4130 O   0  0  0  0  0  0  0  0  0  0  0  0
  158.2080  211.8780  155.9300 C   0  0  0  0  0  0  0  0  0  0  0  0
  161.9690  208.5170  148.7670 C   0  0  0  0  0  2  0  0  0  0  0  0
  161.0240  207.4040  149.1740 C   0  0  1  0  0  3  0  0  0  0  0  0
  161.8810  206.3600  148.6090 N   0  0  0  0  0  0  0  0  0  0  0  0
  162.7980  207.4070  148.1700 C   0  0  0  0  0  2  0  0  0  0  0  0
  161.2380  205.7660  147.4300 C   0  0  1  0  0  3  0  0  0  0  0  0
  160.3400  206.2800  145.3380 C   0  0  0  0  0  1  0  0  0  0  0  0
  160.5630  206.8090  146.6720 N   0  0  0  0  0  2  0  0  0  0  0  0
  162.2570  205.1580  146.5860 N   0  0  0  0  0  2  0  0  0  0  0  0
  162.0600  203.7210  146.6770 C   0  0  0  0  0  2  0  0  0  0  0  0
  161.1960  203.4070  147.8520 C   0  0  0  0  0  3  0  0  0  0  0  0
  161.4570  202.3410  148.6160 C   0  0  0  0  0  3  0  0  0  0  0  0
  160.6210  201.9810  149.8110 C   0  0  1  0  0  0  0  0  0  0  0  0
  159.2480  201.5030  149.3620 C   0  0  0  0  0  1  0  0  0  0  0  0
  161.2900  200.9260  150.5780 N   0  0  0  0  0  1  0  0  0  0  0  0
  160.4760  203.2260  150.6880 C   0  0  0  0  0  2  0  0  0  0  0  0
  161.7040  203.5380  151.3820 N   0  0  0  0  0  1  0  0  0  0  0  0
  2 10  1  0  0  0  0
  3  9  2  0  0  0  0
  3  6  1  0  0  0  0
  4  1  1  0  0  0  0
  4 13  1  1  0  0  0
  5  4  1  0  0  0  0
  6  5  1  0  0  0  0
  7  5  2  0  0  0  0
  7  2  1  0  0  0  0
  8  9  1  0  0  0  0
  9  7  1  0  0  0  0
 10  1  1  0  0  0  0
 11 12  2  0  0  0  0
 11 28  1  0  0  0  0
 12 13  2  0  0  0  0
 13 14  1  0  0  0  0
 15 17  1  0  0  0  0
 16 17  2  0  0  0  0
 17 18  1  0  0  0  0
 18 11  1  0  0  0  0
 19 23  1  0  0  0  0
 20 21  1  0  0  0  0
 21 15  1  1  0  0  0
 22 19  1  0  0  0  0
 22 20  1  0  0  0  0
 23 21  1  0  0  0  0
 24 25  1  0  0  0  0
 25 19  1  0  0  0  0
 27 28  2  0  0  0  0
 28 26  1  0  0  0  0
 29 30  1  0  0  0  0
 30  8  1  1  0  0  0
 31 30  1  0  0  0  0
 32 31  1  0  0  0  0
 32 29  1  0  0  0  0
 33 36  1  6  0  0  0
 33 31  1  0  0  0  0
 34 35  1  0  0  0  0
 35 33  1  0  0  0  0
 36 37  1  0  0  0  0
 37 38  1  0  0  0  0
 38 39  2  0  0  0  0
 39 40  1  0  0  0  0
 40 41  1  6  0  0  0
 40 42  1  0  0  0  0
 40 43  1  0  0  0  0
 43 44  1  0  0  0  0
M  END
>  <MODEL>
1

>  <REMARK>
 VINA RESULT:      -7.3      0.000      0.000
  Name = 
  13 active torsions:
  status: ('A' for Active; 'I' for Inactive)
    1  A    between atoms: C_1  and  C_9
    2  A    between atoms: N_2  and  C_24
    3  A    between atoms: CA_4  and  N_41
    4  A    between atoms: CA_4  and  C_43
    5  A    between atoms: C_9  and  N_29
    6  A    between atoms: C_11  and  C_31
    7  A    between atoms: C_14  and  C_17
    8  A    between atoms: C_15  and  C_35
    9  A    between atoms: C_16  and  C_31
   10  A    between atoms: N_18  and  C_23
   11  A    between atoms: N_21  and  C_22
   12  A    between atoms: C_22  and  N_29
   13  A    between atoms: C_22  and  N_36
                            x       y       z     vdW  Elec       q    Type
                         _______ _______ _______ _____ _____    ______ ____

>  <TORSDO>
F 13

$$$$
=
 OpenBabel11072413443D

 44 47  0  0  1  0  0  0  0  0999 V2000
  162.3710  211.5580  148.6470 N   0  0  0  0  0  2  0  0  0  0  0  0
  161.3490  211.3210  150.8850 C   0  0  0  0  0  2  0  0  0  0  0  0
  159.1270  214.4460  150.5190 C   0  0  0  0  0  3  0  0  0  0  0  0
  161.1590  212.2030  148.1240 C   0  0  1  0  0  3  0  0  0  0  0  0
  160.4630  212.9510  149.2220 C   0  0  0  0  0  0  0  0  0  0  0  0
  159.5960  214.1640  149.0830 C   0  0  0  0  0  3  0  0  0  0  0  0
  160.4670  212.4580  150.4500 C   0  0  0  0  0  0  0  0  0  0  0  0
  159.2860  212.9290  152.5340 C   0  0  0  0  0  3  0  0  0  0  0  0
  159.6420  213.2780  151.2990 C   0  0  0  0  0  0  0  0  0  0  0  0
  161.9500  210.5970  149.6590 C   0  0  0  0  0  2  0  0  0  0  0  0
  159.6970  212.7850  144.9520 C   0  0  0  0  0  0  0  0  0  0  0  0
  160.5770  212.9020  145.9110 C   0  0  0  0  0  0  0  0  0  0  0  0
  161.4340  212.9970  146.8860 C   0  0  0  0  0  0  0  0  0  0  0  0
  162.7360  213.5140  146.6210 N   0  0  0  0  0  1  0  0  0  0  0  0
  160.6170  211.1140  141.6210 N   0  0  0  0  0  2  0  0  0  0  0  0
  161.4540  213.1270  142.5580 N   0  0  0  0  0  2  0  0  0  0  0  0
  160.6570  212.1060  142.6570 C   0  0  0  0  0  0  0  0  0  0  0  0
  159.9010  211.8770  143.8560 N   0  0  0  0  0  2  0  0  0  0  0  0
  161.7400  211.1440  138.1480 N   0  0  0  0  0  0  0  0  0  0  0  0
  161.6430  209.5660  140.0060 C   0  0  0  0  0  2  0  0  0  0  0  0
  161.6120  210.9580  140.5570 C   0  0  1  0  0  3  0  0  0  0  0  0
  161.9520  209.7440  138.5240 C   0  0  0  0  0  2  0  0  0  0  0  0
  161.3190  211.8470  139.3600 C   0  0  0  0  0  2  0  0  0  0  0  0
  162.9260  213.1900  137.5480 C   0  0  0  0  0  1  0  0  0  0  0  0
  163.0350  211.6830  137.7580 C   0  0  0  0  0  2  0  0  0  0  0  0
  158.1970  214.3080  143.6940 O   0  0  0  0  0  0  0  0  0  0  0  0
  157.9290  214.0160  145.9440 O   0  0  0  0  0  1  0  0  0  0  0  0
  158.5690  213.7290  144.8970 C   0  0  0  0  0  0  0  0  0  0  0  0
  157.2310  214.3700  152.6620 C   0  0  0  0  0  2  0  0  0  0  0  0
  158.3570  213.7110  153.4320 C   0  0  1  0  0  3  0  0  0  0  0  0
  157.4570  212.7730  154.1050 N   0  0  0  0  0  0  0  0  0  0  0  0
  156.3420  213.4050  153.4080 C   0  0  0  0  0  2  0  0  0  0  0  0
  157.3700  213.0980  155.5350 C   0  0  1  0  0  3  0  0  0  0  0  0
  155.8260  211.6990  156.5880 C   0  0  0  0  0  1  0  0  0  0  0  0
  155.9830  213.0020  155.9660 N   0  0  0  0  0  2  0  0  0  0  0  0
  158.1640  212.1410  156.2920 N   0  0  0  0  0  2  0  0  0  0  0  0
  159.4570  212.7660  156.5130 C   0  0  0  0  0  2  0  0  0  0  0  0
  160.5450  211.7970  156.1900 C   0  0  0  0  0  3  0  0  0  0  0  0
  160.3060  210.7600  155.3800 C   0  0  0  0  0  3  0  0  0  0  0  0
  161.3650  209.7570  155.0200 C   0  0  1  0  0  0  0  0  0  0  0  0
  160.9550  208.9930  153.7700 C   0  0  0  0  0  1  0  0  0  0  0  0
  162.6360  210.4490  154.7870 N   0  0  0  0  0  1  0  0  0  0  0  0
  161.5260  208.7870  156.1910 C   0  0  0  0  0  2  0  0  0  0  0  0
  160.4940  207.7750  156.1940 N   0  0  0  0  0  1  0  0  0  0  0  0
  1 10  1  0  0  0  0
  3  9  1  0  0  0  0
  4 13  1  6  0  0  0
  4  1  1  0  0  0  0
  4  5  1  0  0  0  0
  5  7  2  0  0  0  0
  6  5  1  0  0  0  0
  6  3  2  0  0  0  0
  7  2  1  0  0  0  0
  7  9  1  0  0  0  0
  9  8  2  0  0  0  0
 10  2  1  0  0  0  0
 11 12  2  0  0  0  0
 12 13  2  0  0  0  0
 14 13  1  0  0  0  0
 15 17  1  0  0  0  0
 16 17  2  0  0  0  0
 17 18  1  0  0  0  0
 18 11  1  0  0  0  0
 19 22  1  0  0  0  0
 19 23  1  0  0  0  0
 20 21  1  0  0  0  0
 21 15  1  1  0  0  0
 22 20  1  0  0  0  0
 23 21  1  0  0  0  0
 24 25  1  0  0  0  0
 25 19  1  0  0  0  0
 26 28  2  0  0  0  0
 28 11  1  0  0  0  0
 28 27  1  0  0  0  0
 29 32  1  0  0  0  0
 29 30  1  0  0  0  0
 30  8  1  6  0  0  0
 30 31  1  0  0  0  0
 31 33  1  0  0  0  0
 32 31  1  0  0  0  0
 33 35  1  1  0  0  0
 33 36  1  0  0  0  0
 35 34  1  0  0  0  0
 36 37  1  0  0  0  0
 38 37  1  0  0  0  0
 39 38  2  0  0  0  0
 40 41  1  6  0  0  0
 40 39  1  0  0  0  0
 40 43  1  0  0  0  0
 42 40  1  0  0  0  0
 43 44  1  0  0  0  0
M  END
>  <MODEL>
2

>  <REMARK>
 VINA RESULT:      -6.4      5.019      9.891
  Name = 
  13 active torsions:
  status: ('A' for Active; 'I' for Inactive)
    1  A    between atoms: C_1  and  C_9
    2  A    between atoms: N_2  and  C_24
    3  A    between atoms: CA_4  and  N_41
    4  A    between atoms: CA_4  and  C_43
    5  A    between atoms: C_9  and  N_29
    6  A    between atoms: C_11  and  C_31
    7  A    between atoms: C_14  and  C_17
    8  A    between atoms: C_15  and  C_35
    9  A    between atoms: C_16  and  C_31
   10  A    between atoms: N_18  and  C_23
   11  A    between atoms: N_21  and  C_22
   12  A    between atoms: C_22  and  N_29
   13  A    between atoms: C_22  and  N_36
                            x       y       z     vdW  Elec       q    Type
                         _______ _______ _______ _____ _____    ______ ____

>  <TORSDO>
F 13

$$$$
=
 OpenBabel11072413443D

 44 47  0  0  1  0  0  0  0  0999 V2000
  159.5530  210.7230  157.0600 N   0  0  0  0  0  2  0  0  0  0  0  0
  160.4210  208.6530  156.0280 C   0  0  0  0  0  2  0  0  0  0  0  0
  160.1590  209.9940  152.4270 C   0  0  0  0  0  3  0  0  0  0  0  0
  160.0940  211.5380  155.9640 C   0  0  1  0  0  3  0  0  0  0  0  0
  160.1200  210.7370  154.6960 C   0  0  0  0  0  0  0  0  0  0  0  0
  160.0230  211.2550  153.2950 C   0  0  0  0  0  3  0  0  0  0  0  0
  160.3920  209.4420  154.7500 C   0  0  0  0  0  0  0  0  0  0  0  0
  160.9380  207.6960  153.1340 C   0  0  0  0  0  3  0  0  0  0  0  0
  160.4800  208.9150  153.4130 C   0  0  0  0  0  0  0  0  0  0  0  0
  160.4560  209.5960  157.2520 C   0  0  0  0  0  2  0  0  0  0  0  0
  156.8970  212.8470  155.1830 C   0  0  0  0  0  0  0  0  0  0  0  0
  158.1590  212.8740  155.5250 C   0  0  0  0  0  0  0  0  0  0  0  0
  159.4150  212.8680  155.8630 C   0  0  0  0  0  0  0  0  0  0  0  0
  160.1730  214.0720  155.7550 N   0  0  0  0  0  1  0  0  0  0  0  0
  156.4750  214.0460  151.5620 N   0  0  0  0  0  2  0  0  0  0  0  0
  158.3320  214.3180  153.0140 N   0  0  0  0  0  2  0  0  0  0  0  0
  157.1310  213.8630  152.8250 C   0  0  0  0  0  0  0  0  0  0  0  0
  156.4860  213.0540  153.8220 N   0  0  0  0  0  2  0  0  0  0  0  0
  157.8300  213.4620  148.2240 N   0  0  0  0  0  0  0  0  0  0  0  0
  158.6190  214.2900  150.3780 C   0  0  0  0  0  2  0  0  0  0  0  0
  157.1320  214.4530  150.3170 C   0  0  1  0  0  3  0  0  0  0  0  0
  159.0210  213.8820  148.9650 C   0  0  0  0  0  2  0  0  0  0  0  0
  156.6930  213.6090  149.1320 C   0  0  0  0  0  2  0  0  0  0  0  0
  157.0210  213.7090  145.9350 C   0  0  0  0  0  1  0  0  0  0  0  0
  157.6460  214.4120  147.1360 C   0  0  0  0  0  2  0  0  0  0  0  0
  155.0780  213.8860  156.5100 O   0  0  0  0  0  0  0  0  0  0  0  0
  155.7060  211.7250  156.9010 O   0  0  0  0  0  1  0  0  0  0  0  0
  155.8730  212.7840  156.2380 C   0  0  0  0  0  0  0  0  0  0  0  0
  161.7520  208.1280  150.7960 C   0  0  0  0  0  2  0  0  0  0  0  0
  161.1290  207.1270  151.7480 C   0  0  1  0  0  3  0  0  0  0  0  0
  162.3150  206.2700  151.7530 N   0  0  0  0  0  0  0  0  0  0  0  0
  162.9360  207.1920  150.8080 C   0  0  0  0  0  2  0  0  0  0  0  0
  162.0260  205.0060  151.0640 C   0  0  1  0  0  3  0  0  0  0  0  0
  161.3080  203.3700  152.5660 C   0  0  0  0  0  1  0  0  0  0  0  0
  162.4790  203.8940  151.8850 N   0  0  0  0  0  2  0  0  0  0  0  0
  160.5880  204.8880  150.8650 N   0  0  0  0  0  2  0  0  0  0  0  0
  160.4050  204.1320  149.6380 C   0  0  0  0  0  2  0  0  0  0  0  0
  161.0970  204.8270  148.5130 C   0  0  0  0  0  3  0  0  0  0  0  0
  161.2570  204.2130  147.3370 C   0  0  0  0  0  3  0  0  0  0  0  0
  161.9440  204.8680  146.1710 C   0  0  1  0  0  0  0  0  0  0  0  0
  161.8050  206.3800  146.2680 C   0  0  0  0  0  1  0  0  0  0  0  0
  163.3620  204.4960  146.1660 N   0  0  0  0  0  1  0  0  0  0  0  0
  161.2860  204.3680  144.8840 C   0  0  0  0  0  2  0  0  0  0  0  0
  161.4130  205.3280  143.8110 N   0  0  0  0  0  1  0  0  0  0  0  0
  1 10  1  0  0  0  0
  2 10  1  0  0  0  0
  3  6  2  0  0  0  0
  3  9  1  0  0  0  0
  4 13  1  6  0  0  0
  4  1  1  0  0  0  0
  5  7  2  0  0  0  0
  5  4  1  0  0  0  0
  6  5  1  0  0  0  0
  7  2  1  0  0  0  0
  8  9  2  0  0  0  0
  9  7  1  0  0  0  0
 11 12  2  0  0  0  0
 11 28  1  0  0  0  0
 12 13  2  0  0  0  0
 14 13  1  0  0  0  0
 15 17  1  0  0  0  0
 17 16  2  0  0  0  0
 17 18  1  0  0  0  0
 18 11  1  0  0  0  0
 19 22  1  0  0  0  0
 19 23  1  0  0  0  0
 21 20  1  0  0  0  0
 21 15  1  1  0  0  0
 22 20  1  0  0  0  0
 23 21  1  0  0  0  0
 24 25  1  0  0  0  0
 25 19  1  0  0  0  0
 28 26  2  0  0  0  0
 28 27  1  0  0  0  0
 29 32  1  0  0  0  0
 29 30  1  0  0  0  0
 30 31  1  0  0  0  0
 30  8  1  1  0  0  0
 32 31  1  0  0  0  0
 33 36  1  1  0  0  0
 33 31  1  0  0  0  0
 33 35  1  0  0  0  0
 35 34  1  0  0  0  0
 37 36  1  0  0  0  0
 38 37  1  0  0  0  0
 39 38  2  0  0  0  0
 40 41  1  1  0  0  0
 40 39  1  0  0  0  0
 42 40  1  0  0  0  0
 43 40  1  0  0  0  0
 44 43  1  0  0  0  0
M  END
>  <MODEL>
3

>  <REMARK>
 VINA RESULT:      -6.3      1.851      3.571
  Name = 
  13 active torsions:
  status: ('A' for Active; 'I' for Inactive)
    1  A    between atoms: C_1  and  C_9
    2  A    between atoms: N_2  and  C_24
    3  A    between atoms: CA_4  and  N_41
    4  A    between atoms: CA_4  and  C_43
    5  A    between atoms: C_9  and  N_29
    6  A    between atoms: C_11  and  C_31
    7  A    between atoms: C_14  and  C_17
    8  A    between atoms: C_15  and  C_35
    9  A    between atoms: C_16  and  C_31
   10  A    between atoms: N_18  and  C_23
   11  A    between atoms: N_21  and  C_22
   12  A    between atoms: C_22  and  N_29
   13  A    between atoms: C_22  and  N_36
                            x       y       z     vdW  Elec       q    Type
                         _______ _______ _______ _____ _____    ______ ____

>  <TORSDO>
F 13

$$$$
=
 OpenBabel11072413443D

 44 47  0  0  1  0  0  0  0  0999 V2000
  162.7330  211.8400  147.9100 N   0  0  0  0  0  2  0  0  0  0  0  0
  161.7960  211.3160  150.1360 C   0  0  0  0  0  2  0  0  0  0  0  0
  159.5640  214.4530  150.2540 C   0  0  0  0  0  3  0  0  0  0  0  0
  161.5020  212.5410  147.5190 C   0  0  1  0  0  3  0  0  0  0  0  0
  160.8490  213.1410  148.7280 C   0  0  0  0  0  0  0  0  0  0  0  0
  159.9780  214.3570  148.7770 C   0  0  0  0  0  3  0  0  0  0  0  0
  160.8990  212.4950  149.8830 C   0  0  0  0  0  0  0  0  0  0  0  0
  159.7990  212.6930  152.0520 C   0  0  0  0  0  3  0  0  0  0  0  0
  160.1080  213.1970  150.8600 C   0  0  0  0  0  0  0  0  0  0  0  0
  162.3510  210.7570  148.8060 C   0  0  0  0  0  2  0  0  0  0  0  0
  160.2870  213.1120  144.2420 C   0  0  0  0  0  0  0  0  0  0  0  0
  161.0190  213.3130  145.3070 C   0  0  0  0  0  0  0  0  0  0  0  0
  161.7310  213.4870  146.3820 C   0  0  0  0  0  0  0  0  0  0  0  0
  162.9150  214.2780  146.3130 N   0  0  0  0  0  1  0  0  0  0  0  0
  161.5700  211.9610  140.8120 N   0  0  0  0  0  2  0  0  0  0  0  0
  161.4480  214.1600  141.6950 N   0  0  0  0  0  2  0  0  0  0  0  0
  161.2350  212.8900  141.8540 C   0  0  0  0  0  0  0  0  0  0  0  0
  160.7900  212.3710  143.1180 N   0  0  0  0  0  2  0  0  0  0  0  0
  163.6450  214.1240  138.7300 N   0  0  0  0  0  0  0  0  0  0  0  0
  161.6300  212.7710  138.4890 C   0  0  0  0  0  2  0  0  0  0  0  0
  162.4170  212.2560  139.6540 C   0  0  1  0  0  3  0  0  0  0  0  0
  162.5520  213.7830  137.8180 C   0  0  0  0  0  2  0  0  0  0  0  0
  163.4380  213.3420  139.9490 C   0  0  0  0  0  2  0  0  0  0  0  0
  166.0760  214.3300  138.7760 C   0  0  0  0  0  1  0  0  0  0  0  0
  164.8780  213.6560  138.1140 C   0  0  0  0  0  2  0  0  0  0  0  0
  158.2400  214.0880  145.2450 O   0  0  0  0  0  1  0  0  0  0  0  0
  158.5740  214.1690  142.9870 O   0  0  0  0  0  0  0  0  0  0  0  0
  158.9980  213.8110  144.1180 C   0  0  0  0  0  0  0  0  0  0  0  0
  157.4650  213.4380  152.6140 C   0  0  0  0  0  2  0  0  0  0  0  0
  158.9050  213.3510  153.0770 C   0  0  1  0  0  3  0  0  0  0  0  0
  158.5950  212.3740  154.1230 N   0  0  0  0  0  0  0  0  0  0  0  0
  157.1920  212.4580  153.7290 C   0  0  0  0  0  2  0  0  0  0  0  0
  158.7540  212.9880  155.4480 C   0  0  1  0  0  3  0  0  0  0  0  0
  157.3630  211.7890  156.8900 C   0  0  0  0  0  1  0  0  0  0  0  0
  157.4640  213.0180  156.1220 N   0  0  0  0  0  2  0  0  0  0  0  0
  159.6780  212.1870  156.2380 N   0  0  0  0  0  2  0  0  0  0  0  0
  160.6930  211.7040  155.3170 C   0  0  0  0  0  2  0  0  0  0  0  0
  161.0870  210.3140  155.6880 C   0  0  0  0  0  3  0  0  0  0  0  0
  160.3030  209.2810  155.3640 C   0  0  0  0  0  3  0  0  0  0  0  0
  160.6540  207.8610  155.7110 C   0  0  1  0  0  0  0  0  0  0  0  0
  161.6050  207.8360  156.8980 C   0  0  0  0  0  1  0  0  0  0  0  0
  159.4320  207.1200  156.0350 N   0  0  0  0  0  1  0  0  0  0  0  0
  161.3250  207.2210  154.4950 C   0  0  0  0  0  2  0  0  0  0  0  0
  160.9410  207.8770  153.2650 N   0  0  0  0  0  1  0  0  0  0  0  0
  1 10  1  0  0  0  0
  3  9  1  0  0  0  0
  4 13  1  6  0  0  0
  4  1  1  0  0  0  0
  4  5  1  0  0  0  0
  5  6  1  0  0  0  0
  5  7  2  0  0  0  0
  6  3  2  0  0  0  0
  7  2  1  0  0  0  0
  7  9  1  0  0  0  0
  9  8  2  0  0  0  0
 10  2  1  0  0  0  0
 11 12  2  0  0  0  0
 12 13  2  0  0  0  0
 14 13  1  0  0  0  0
 15 17  1  0  0  0  0
 16 17  2  0  0  0  0
 17 18  1  0  0  0  0
 18 11  1  0  0  0  0
 19 23  1  0  0  0  0
 20 21  1  0  0  0  0
 21 23  1  0  0  0  0
 21 15  1  1  0  0  0
 22 20  1  0  0  0  0
 22 19  1  0  0  0  0
 25 19  1  0  0  0  0
 25 24  1  0  0  0  0
 27 28  2  0  0  0  0
 28 11  1  0  0  0  0
 28 26  1  0  0  0  0
 29 30  1  0  0  0  0
 29 32  1  0  0  0  0
 30  8  1  6  0  0  0
 30 31  1  0  0  0  0
 31 33  1  0  0  0  0
 32 31  1  0  0  0  0
 33 35  1  1  0  0  0
 33 36  1  0  0  0  0
 35 34  1  0  0  0  0
 37 38  1  0  0  0  0
 37 36  1  0  0  0  0
 39 38  2  0  0  0  0
 39 40  1  0  0  0  0
 40 42  1  0  0  0  0
 40 41  1  1  0  0  0
 43 40  1  0  0  0  0
 44 43  1  0  0  0  0
M  END
>  <MODEL>
4

>  <REMARK>
 VINA RESULT:      -5.5      5.758      9.931
  Name = 
  13 active torsions:
  status: ('A' for Active; 'I' for Inactive)
    1  A    between atoms: C_1  and  C_9
    2  A    between atoms: N_2  and  C_24
    3  A    between atoms: CA_4  and  N_41
    4  A    between atoms: CA_4  and  C_43
    5  A    between atoms: C_9  and  N_29
    6  A    between atoms: C_11  and  C_31
    7  A    between atoms: C_14  and  C_17
    8  A    between atoms: C_15  and  C_35
    9  A    between atoms: C_16  and  C_31
   10  A    between atoms: N_18  and  C_23
   11  A    between atoms: N_21  and  C_22
   12  A    between atoms: C_22  and  N_29
   13  A    between atoms: C_22  and  N_36
                            x       y       z     vdW  Elec       q    Type
                         _______ _______ _______ _____ _____    ______ ____

>  <TORSDO>
F 13

$$$$
=
 OpenBabel11072413443D

 44 47  0  0  1  0  0  0  0  0999 V2000
  160.7270  207.6340  154.3700 N   0  0  0  0  0  2  0  0  0  0  0  0
  160.7930  206.0550  152.4710 C   0  0  0  0  0  2  0  0  0  0  0  0
  161.3040  208.8080  149.8250 C   0  0  0  0  0  3  0  0  0  0  0  0
  161.6110  208.5720  153.6650 C   0  0  1  0  0  3  0  0  0  0  0  0
  161.4080  208.4530  152.1850 C   0  0  0  0  0  0  0  0  0  0  0  0
  161.6100  209.5190  151.1530 C   0  0  0  0  0  2  0  0  0  0  0  0
  161.1540  207.2650  151.6560 C   0  0  0  0  0  0  0  0  0  0  0  0
  161.0870  206.3260  149.4050 C   0  0  0  0  0  2  0  0  0  0  0  0
  161.1180  207.3770  150.2210 C   0  0  0  0  0  0  0  0  0  0  0  0
  161.1100  206.2880  153.9650 C   0  0  0  0  0  2  0  0  0  0  0  0
  159.1150  210.9930  154.3380 C   0  0  0  0  0  0  0  0  0  0  0  0
  160.3210  210.4910  154.2810 C   0  0  0  0  0  0  0  0  0  0  0  0
  161.5080  209.9620  154.2130 C   0  0  0  0  0  0  0  0  0  0  0  0
  162.6530  210.8080  154.2890 N   0  0  0  0  0  1  0  0  0  0  0  0
  158.6890  213.5280  151.4880 N   0  0  0  0  0  2  0  0  0  0  0  0
  160.6450  212.3730  152.1730 N   0  0  0  0  0  2  0  0  0  0  0  0
  159.3800  212.6090  152.3460 C   0  0  0  0  0  0  0  0  0  0  0  0
  158.6170  211.8610  153.3060 N   0  0  0  0  0  2  0  0  0  0  0  0
  160.2920  213.2000  148.2250 N   0  0  0  0  0  0  0  0  0  0  0  0
  160.6320  214.4510  150.2910 C   0  0  0  0  0  2  0  0  0  0  0  0
  159.1940  214.0390  150.2110 C   0  0  1  0  0  3  0  0  0  0  0  0
  161.2110  214.1000  148.9260 C   0  0  0  0  0  2  0  0  0  0  0  0
  159.1480  212.9900  149.1120 C   0  0  0  0  0  2  0  0  0  0  0  0
  160.4270  213.3100  145.7910 C   0  0  0  0  0  1  0  0  0  0  0  0
  159.8100  213.9110  147.0500 C   0  0  0  0  0  2  0  0  0  0  0  0
  158.9530  210.5970  156.7810 O   0  0  0  0  0  1  0  0  0  0  0  0
  157.0650  210.8630  155.5240 O   0  0  0  0  0  0  0  0  0  0  0  0
  158.3230  210.8140  155.5660 C   0  0  0  0  0  0  0  0  0  0  0  0
  161.9180  207.5790  147.3910 C   0  0  0  0  0  2  0  0  0  0  0  0
  161.1320  206.3860  147.8960 C   0  0  1  0  0  3  0  0  0  0  0  0
  162.1290  205.4250  147.4190 N   0  0  0  0  0  0  0  0  0  0  0  0
  162.8970  206.5470  146.8880 C   0  0  0  0  0  2  0  0  0  0  0  0
  161.5840  204.6490  146.2980 C   0  0  1  0  0  3  0  0  0  0  0  0
  160.8180  205.4350  144.2380 C   0  0  0  0  0  1  0  0  0  0  0  0
  162.0120  205.2490  145.0430 N   0  0  0  0  0  2  0  0  0  0  0  0
  162.0950  203.2870  146.3660 N   0  0  0  0  0  2  0  0  0  0  0  0
  160.9760  202.4130  146.0590 C   0  0  0  0  0  2  0  0  0  0  0  0
  160.5530  201.6890  147.2930 C   0  0  0  0  0  3  0  0  0  0  0  0
  160.8970  202.1510  148.4990 C   0  0  0  0  0  3  0  0  0  0  0  0
  160.4950  201.4620  149.7720 C   0  0  1  0  0  0  0  0  0  0  0  0
  159.0040  201.1610  149.7530 C   0  0  0  0  0  1  0  0  0  0  0  0
  161.2530  200.2150  149.9150 N   0  0  0  0  0  1  0  0  0  0  0  0
  160.8230  202.3880  150.9440 C   0  0  0  0  0  2  0  0  0  0  0  0
  160.1230  203.6490  150.8410 N   0  0  0  0  0  1  0  0  0  0  0  0
  2 10  1  0  0  0  0
  3  9  2  0  0  0  0
  3  6  1  0  0  0  0
  4 13  1  1  0  0  0
  4  1  1  0  0  0  0
  5  4  1  0  0  0  0
  6  5  1  0  0  0  0
  7  5  2  0  0  0  0
  7  2  1  0  0  0  0
  8  9  1  0  0  0  0
  9  7  1  0  0  0  0
 10  1  1  0  0  0  0
 11 28  1  0  0  0  0
 12 11  2  0  0  0  0
 13 12  2  0  0  0  0
 13 14  1  0  0  0  0
 15 17  1  0  0  0  0
 16 17  2  0  0  0  0
 17 18  1  0  0  0  0
 18 11  1  0  0  0  0
 19 22  1  0  0  0  0
 19 23  1  0  0  0  0
 21 20  1  0  0  0  0
 21 15  1  1  0  0  0
 22 20  1  0  0  0  0
 23 21  1  0  0  0  0
 24 25  1  0  0  0  0
 25 19  1  0  0  0  0
 27 28  2  0  0  0  0
 28 26  1  0  0  0  0
 29 30  1  0  0  0  0
 30  8  1  1  0  0  0
 31 30  1  0  0  0  0
 32 29  1  0  0  0  0
 32 31  1  0  0  0  0
 33 35  1  6  0  0  0
 33 36  1  0  0  0  0
 33 31  1  0  0  0  0
 34 35  1  0  0  0  0
 37 36  1  0  0  0  0
 37 38  1  0  0  0  0
 38 39  2  0  0  0  0
 39 40  1  0  0  0  0
 40 41  1  6  0  0  0
 40 42  1  0  0  0  0
 40 43  1  0  0  0  0
 44 43  1  0  0  0  0
M  END
>  <MODEL>
5

>  <REMARK>
 VINA RESULT:      -4.9      1.403      1.771
  Name = 
  13 active torsions:
  status: ('A' for Active; 'I' for Inactive)
    1  A    between atoms: C_1  and  C_9
    2  A    between atoms: N_2  and  C_24
    3  A    between atoms: CA_4  and  N_41
    4  A    between atoms: CA_4  and  C_43
    5  A    between atoms: C_9  and  N_29
    6  A    between atoms: C_11  and  C_31
    7  A    between atoms: C_14  and  C_17
    8  A    between atoms: C_15  and  C_35
    9  A    between atoms: C_16  and  C_31
   10  A    between atoms: N_18  and  C_23
   11  A    between atoms: N_21  and  C_22
   12  A    between atoms: C_22  and  N_29
   13  A    between atoms: C_22  and  N_36
                            x       y       z     vdW  Elec       q    Type
                         _______ _______ _______ _____ _____    ______ ____

>  <TORSDO>
F 13

$$$$
