=
 OpenBabel11072411123D

 30 34  0  0  0  0  0  0  0  0999 V2000
  161.3680  203.7040  147.3960 C   0  0  0  0  0  0  0  0  0  0  0  0
  161.1600  203.7020  150.1010 C   0  0  0  0  0  0  0  0  0  0  0  0
  160.9040  202.0860  151.6220 N   0  0  0  0  0  0  0  0  0  0  0  0
  161.1360  202.5200  149.4780 C   0  0  0  0  0  0  0  0  0  0  0  0
  161.2700  204.9250  149.5100 C   0  0  0  0  0  0  0  0  0  0  0  0
  161.1120  205.8870  151.6970 C   0  0  0  0  0  0  0  0  0  0  0  0
  161.3800  204.9420  148.1080 C   0  0  0  0  0  3  0  0  0  0  0  0
  160.9720  201.5060  150.4760 N   0  0  0  0  0  0  0  0  0  0  0  0
  160.9880  204.5840  152.2820 C   0  0  0  0  0  3  0  0  0  0  0  0
  161.2360  202.4620  148.0860 C   0  0  0  0  0  3  0  0  0  0  0  0
  161.2470  206.0210  150.3240 N   0  0  0  0  0  0  0  0  0  0  0  0
  161.0220  203.4970  151.4100 C   0  0  0  0  0  0  0  0  0  0  0  0
  161.2170  209.2550  154.7040 C   0  0  0  0  0  3  0  0  0  0  0  0
  160.4370  209.8980  153.6180 C   0  0  0  0  0  0  0  0  0  0  0  0
  161.3670  207.9330  154.8280 C   0  0  0  0  0  3  0  0  0  0  0  0
  160.6710  206.9500  153.9330 C   0  0  0  0  0  2  0  0  0  0  0  0
  161.4660  208.3490  151.9380 C   0  0  0  0  0  2  0  0  0  0  0  0
  161.0910  207.0610  152.5290 N   0  0  0  0  0  0  0  0  0  0  0  0
  160.5400  209.4560  152.3540 C   0  0  0  0  0  3  0  0  0  0  0  0
  157.7610  211.1460  155.5620 C   0  0  0  0  0  2  0  0  0  0  0  0
  159.2580  211.3600  155.3010 C   0  0  0  0  0  2  0  0  0  0  0  0
  158.2870  212.8610  152.9180 C   0  0  0  0  0  3  0  0  0  0  0  0
  159.2850  211.9720  152.8550 C   0  0  0  0  0  3  0  0  0  0  0  0
  159.6190  211.0500  153.9130 N   0  0  0  0  0  0  0  0  0  0  0  0
  157.3670  212.9980  154.0910 C   0  0  0  0  0  2  0  0  0  0  0  0
  156.9000  211.6780  154.5010 N   0  0  0  0  0  2  0  0  0  0  0  0
  161.4660  203.7120  145.9070 C   0  0  0  0  0  2  0  0  0  0  0  0
  162.1360  204.9850  145.4070 C   0  0  0  0  0  2  0  0  0  0  0  0
  161.2440  205.7350  144.4310 C   0  0  0  0  0  2  0  0  0  0  0  0
  160.1190  206.2260  145.0950 O   0  0  0  0  0  1  0  0  0  0  0  0
  1 10  2  0  0  0  0
  1  7  1  0  0  0  0
  2 12  1  0  0  0  0
  4  2  2  0  0  0  0
  4  8  1  0  0  0  0
  5  2  1  0  0  0  0
  5 11  1  0  0  0  0
  6  9  1  0  0  0  0
  6 18  1  0  0  0  0
  7  5  2  0  0  0  0
  8  3  2  0  0  0  0
 10  4  1  0  0  0  0
 11  6  2  0  0  0  0
 12  3  1  0  0  0  0
 12  9  2  0  0  0  0
 13 15  2  0  0  0  0
 14 24  1  0  0  0  0
 14 13  1  0  0  0  0
 16 15  1  0  0  0  0
 17 19  1  0  0  0  0
 17 18  1  0  0  0  0
 18 16  1  0  0  0  0
 19 14  2  0  0  0  0
 21 20  1  0  0  0  0
 22 25  1  0  0  0  0
 23 22  2  0  0  0  0
 23 24  1  0  0  0  0
 24 21  1  0  0  0  0
 25 26  1  0  0  0  0
 26 20  1  0  0  0  0
 27  1  1  0  0  0  0
 28 27  1  0  0  0  0
 29 30  1  0  0  0  0
 29 28  1  0  0  0  0
M  END
>  <MODEL>
1

>  <REMARK>
 VINA RESULT:      -9.5      0.000      0.000
  Name = 
  5 active torsions:
  status: ('A' for Active; 'I' for Inactive)
    1  A    between atoms: C_1  and  C_5
    2  A    between atoms: C_5  and  C_11
    3  A    between atoms: C_8  and  N_26
    4  A    between atoms: C_9  and  C_11
    5  A    between atoms: C_14  and  N_20
                            x       y       z     vdW  Elec       q    Type
                         _______ _______ _______ _____ _____    ______ ____

>  <TORSDO>
F 5

$$$$
=
 OpenBabel11072411123D

 30 34  0  0  0  0  0  0  0  0999 V2000
  161.2280  205.2170  148.0300 C   0  0  0  0  0  0  0  0  0  0  0  0
  161.1880  205.3120  150.7420 C   0  0  0  0  0  0  0  0  0  0  0  0
  161.1010  203.7470  152.3330 N   0  0  0  0  0  0  0  0  0  0  0  0
  161.1800  204.1070  150.1650 C   0  0  0  0  0  0  0  0  0  0  0  0
  161.2040  206.5150  150.1010 C   0  0  0  0  0  0  0  0  0  0  0  0
  161.1370  207.5530  152.2570 C   0  0  0  0  0  0  0  0  0  0  0  0
  161.2270  206.4820  148.6950 C   0  0  0  0  0  3  0  0  0  0  0  0
  161.1250  203.1260  151.2070 N   0  0  0  0  0  0  0  0  0  0  0  0
  161.1100  206.2700  152.8950 C   0  0  0  0  0  3  0  0  0  0  0  0
  161.1970  203.9990  148.7720 C   0  0  0  0  0  3  0  0  0  0  0  0
  161.1810  207.6400  150.8740 N   0  0  0  0  0  0  0  0  0  0  0  0
  161.1400  205.1530  152.0630 C   0  0  0  0  0  0  0  0  0  0  0  0
  161.2890  211.0410  155.1220 C   0  0  0  0  0  3  0  0  0  0  0  0
  160.3730  211.5890  154.0910 C   0  0  0  0  0  0  0  0  0  0  0  0
  161.5370  209.7380  155.2780 C   0  0  0  0  0  3  0  0  0  0  0  0
  160.8300  208.6780  154.4860 C   0  0  0  0  0  2  0  0  0  0  0  0
  161.3470  210.0410  152.3780 C   0  0  0  0  0  2  0  0  0  0  0  0
  161.1130  208.7570  153.0460 N   0  0  0  0  0  0  0  0  0  0  0  0
  160.3910  211.1030  152.8390 C   0  0  0  0  0  3  0  0  0  0  0  0
  158.0540  212.8800  156.4270 C   0  0  0  0  0  2  0  0  0  0  0  0
  159.4240  213.1790  155.8030 C   0  0  0  0  0  2  0  0  0  0  0  0
  157.7920  214.2230  153.5400 C   0  0  0  0  0  3  0  0  0  0  0  0
  158.8490  213.4220  153.3610 C   0  0  0  0  0  3  0  0  0  0  0  0
  159.5100  212.6990  154.4200 N   0  0  0  0  0  0  0  0  0  0  0  0
  157.1390  214.4530  154.8670 C   0  0  0  0  0  2  0  0  0  0  0  0
  156.9280  213.1730  155.5350 N   0  0  0  0  0  2  0  0  0  0  0  0
  161.2340  205.1720  146.5390 C   0  0  0  0  0  2  0  0  0  0  0  0
  161.8880  203.8940  146.0300 C   0  0  0  0  0  2  0  0  0  0  0  0
  160.8970  203.0330  145.2630 C   0  0  0  0  0  2  0  0  0  0  0  0
  160.8050  201.7720  145.8540 O   0  0  0  0  0  1  0  0  0  0  0  0
  1  7  2  0  0  0  0
  1 10  1  0  0  0  0
  2 12  1  0  0  0  0
  4  2  1  0  0  0  0
  4  8  1  0  0  0  0
  5  2  2  0  0  0  0
  5 11  1  0  0  0  0
  6  9  1  0  0  0  0
  6 18  1  0  0  0  0
  7  5  1  0  0  0  0
  8  3  2  0  0  0  0
 10  4  2  0  0  0  0
 11  6  2  0  0  0  0
 12  3  1  0  0  0  0
 12  9  2  0  0  0  0
 13 15  2  0  0  0  0
 14 24  1  0  0  0  0
 14 13  1  0  0  0  0
 16 15  1  0  0  0  0
 17 19  1  0  0  0  0
 17 18  1  0  0  0  0
 18 16  1  0  0  0  0
 19 14  2  0  0  0  0
 21 20  1  0  0  0  0
 22 25  1  0  0  0  0
 23 22  2  0  0  0  0
 23 24  1  0  0  0  0
 24 21  1  0  0  0  0
 25 26  1  0  0  0  0
 26 20  1  0  0  0  0
 27  1  1  0  0  0  0
 28 27  1  0  0  0  0
 29 30  1  0  0  0  0
 29 28  1  0  0  0  0
M  END
>  <MODEL>
2

>  <REMARK>
 VINA RESULT:      -8.9      1.592      1.943
  Name = 
  5 active torsions:
  status: ('A' for Active; 'I' for Inactive)
    1  A    between atoms: C_1  and  C_5
    2  A    between atoms: C_5  and  C_11
    3  A    between atoms: C_8  and  N_26
    4  A    between atoms: C_9  and  C_11
    5  A    between atoms: C_14  and  N_20
                            x       y       z     vdW  Elec       q    Type
                         _______ _______ _______ _____ _____    ______ ____

>  <TORSDO>
F 5

$$$$
=
 OpenBabel11072411123D

 30 34  0  0  0  0  0  0  0  0999 V2000
  160.8000  203.1300  149.0460 C   0  0  0  0  0  0  0  0  0  0  0  0
  161.4460  205.7580  149.2430 C   0  0  0  0  0  0  0  0  0  0  0  0
  162.3010  207.2430  147.8090 N   0  0  0  0  0  0  0  0  0  0  0  0
  161.6280  205.1640  148.0600 C   0  0  0  0  0  0  0  0  0  0  0  0
  160.9730  205.1720  150.3780 C   0  0  0  0  0  0  0  0  0  0  0  0
  161.2720  207.2790  151.4750 C   0  0  0  0  0  0  0  0  0  0  0  0
  160.6310  203.8100  150.2910 C   0  0  0  0  0  3  0  0  0  0  0  0
  162.1750  206.1380  147.1640 N   0  0  0  0  0  0  0  0  0  0  0  0
  161.7750  207.8590  150.2650 C   0  0  0  0  0  3  0  0  0  0  0  0
  161.3160  203.8120  147.9030 C   0  0  0  0  0  3  0  0  0  0  0  0
  160.8860  205.9480  151.4990 N   0  0  0  0  0  0  0  0  0  0  0  0
  161.8400  207.0270  149.1480 C   0  0  0  0  0  0  0  0  0  0  0  0
  161.0990  209.3270  155.4960 C   0  0  0  0  0  3  0  0  0  0  0  0
  160.3770  210.3210  154.6650 C   0  0  0  0  0  0  0  0  0  0  0  0
  161.2720  208.0510  155.1440 C   0  0  0  0  0  3  0  0  0  0  0  0
  160.6600  207.4600  153.9070 C   0  0  0  0  0  2  0  0  0  0  0  0
  161.5500  209.4860  152.6140 C   0  0  0  0  0  2  0  0  0  0  0  0
  161.1690  208.0720  152.6720 N   0  0  0  0  0  0  0  0  0  0  0  0
  160.5730  210.3670  153.3370 C   0  0  0  0  0  3  0  0  0  0  0  0
  157.0830  211.5880  154.8730 C   0  0  0  0  0  2  0  0  0  0  0  0
  158.1630  210.9050  155.7230 C   0  0  0  0  0  2  0  0  0  0  0  0
  159.2820  213.6580  155.9150 C   0  0  0  0  0  3  0  0  0  0  0  0
  160.0380  212.5880  155.6450 C   0  0  0  0  0  3  0  0  0  0  0  0
  159.5130  211.2890  155.2990 N   0  0  0  0  0  0  0  0  0  0  0  0
  157.7850  213.6540  155.8660 C   0  0  0  0  0  2  0  0  0  0  0  0
  157.3400  213.0110  154.6340 N   0  0  0  0  0  2  0  0  0  0  0  0
  160.4580  201.6810  148.9480 C   0  0  0  0  0  2  0  0  0  0  0  0
  161.6360  200.8720  148.4220 C   0  0  0  0  0  2  0  0  0  0  0  0
  161.2770  200.1360  147.1410 C   0  0  0  0  0  2  0  0  0  0  0  0
  160.8970  201.0500  146.1570 O   0  0  0  0  0  1  0  0  0  0  0  0
  1  7  1  0  0  0  0
  2  5  1  0  0  0  0
  3 12  1  0  0  0  0
  4  2  2  0  0  0  0
  5 11  1  0  0  0  0
  6 11  2  0  0  0  0
  6 18  1  0  0  0  0
  7  5  2  0  0  0  0
  8  3  2  0  0  0  0
  8  4  1  0  0  0  0
  9  6  1  0  0  0  0
 10  4  1  0  0  0  0
 10  1  2  0  0  0  0
 12  2  1  0  0  0  0
 12  9  2  0  0  0  0
 14 24  1  0  0  0  0
 14 13  1  0  0  0  0
 15 13  2  0  0  0  0
 16 15  1  0  0  0  0
 17 18  1  0  0  0  0
 17 19  1  0  0  0  0
 18 16  1  0  0  0  0
 19 14  2  0  0  0  0
 20 21  1  0  0  0  0
 23 22  2  0  0  0  0
 24 23  1  0  0  0  0
 24 21  1  0  0  0  0
 25 22  1  0  0  0  0
 26 20  1  0  0  0  0
 26 25  1  0  0  0  0
 27  1  1  0  0  0  0
 28 27  1  0  0  0  0
 29 28  1  0  0  0  0
 30 29  1  0  0  0  0
M  END
>  <MODEL>
3

>  <REMARK>
 VINA RESULT:      -8.9      2.055      3.086
  Name = 
  5 active torsions:
  status: ('A' for Active; 'I' for Inactive)
    1  A    between atoms: C_1  and  C_5
    2  A    between atoms: C_5  and  C_11
    3  A    between atoms: C_8  and  N_26
    4  A    between atoms: C_9  and  C_11
    5  A    between atoms: C_14  and  N_20
                            x       y       z     vdW  Elec       q    Type
                         _______ _______ _______ _____ _____    ______ ____

>  <TORSDO>
F 5

$$$$
=
 OpenBabel11072411123D

 30 34  0  0  0  0  0  0  0  0999 V2000
  161.0420  202.3170  148.1500 C   0  0  0  0  0  0  0  0  0  0  0  0
  161.1030  203.9600  150.3090 C   0  0  0  0  0  0  0  0  0  0  0  0
  160.7930  203.6350  152.4970 N   0  0  0  0  0  0  0  0  0  0  0  0
  160.8670  202.6630  150.5250 C   0  0  0  0  0  0  0  0  0  0  0  0
  161.3090  204.5530  149.0990 C   0  0  0  0  0  0  0  0  0  0  0  0
  161.4910  206.6380  150.2620 C   0  0  0  0  0  0  0  0  0  0  0  0
  161.2820  203.7140  147.9710 C   0  0  0  0  0  3  0  0  0  0  0  0
  160.6730  202.4850  151.9330 N   0  0  0  0  0  0  0  0  0  0  0  0
  161.2600  205.9810  151.5150 C   0  0  0  0  0  3  0  0  0  0  0  0
  160.8210  201.7720  149.4500 C   0  0  0  0  0  3  0  0  0  0  0  0
  161.5070  205.9040  149.0860 N   0  0  0  0  0  0  0  0  0  0  0  0
  161.0690  204.6010  151.4760 C   0  0  0  0  0  0  0  0  0  0  0  0
  162.1860  211.0830  150.6540 C   0  0  0  0  0  3  0  0  0  0  0  0
  161.7400  211.0110  149.2400 C   0  0  0  0  0  0  0  0  0  0  0  0
  161.9500  210.1270  151.5560 C   0  0  0  0  0  3  0  0  0  0  0  0
  161.1140  208.9170  151.2560 C   0  0  0  0  0  2  0  0  0  0  0  0
  162.4830  208.6210  149.1090 C   0  0  0  0  0  2  0  0  0  0  0  0
  161.7030  208.0610  150.2170 N   0  0  0  0  0  0  0  0  0  0  0  0
  161.8590  209.8660  148.5480 C   0  0  0  0  0  3  0  0  0  0  0  0
  159.1810  213.4500  149.1840 C   0  0  0  0  0  2  0  0  0  0  0  0
  160.6960  213.3020  149.3830 C   0  0  0  0  0  2  0  0  0  0  0  0
  160.7400  213.2160  146.4060 C   0  0  0  0  0  3  0  0  0  0  0  0
  161.4280  212.3550  147.1640 C   0  0  0  0  0  3  0  0  0  0  0  0
  161.2450  212.1990  148.5870 N   0  0  0  0  0  0  0  0  0  0  0  0
  159.6660  214.1160  146.9330 C   0  0  0  0  0  2  0  0  0  0  0  0
  158.7620  213.3490  147.7830 N   0  0  0  0  0  2  0  0  0  0  0  0
  160.9940  201.4210  146.9580 C   0  0  0  0  0  2  0  0  0  0  0  0
  160.6650  202.2040  145.6940 C   0  0  0  0  0  2  0  0  0  0  0  0
  159.8950  201.3510  144.6980 C   0  0  0  0  0  2  0  0  0  0  0  0
  160.1750  200.0000  144.9100 O   0  0  0  0  0  1  0  0  0  0  0  0
  1 10  1  0  0  0  0
  2  4  1  0  0  0  0
  2 12  1  0  0  0  0
  4  8  1  0  0  0  0
  5  2  2  0  0  0  0
  6  9  1  0  0  0  0
  7  1  2  0  0  0  0
  7  5  1  0  0  0  0
  8  3  2  0  0  0  0
 10  4  2  0  0  0  0
 11  5  1  0  0  0  0
 11  6  2  0  0  0  0
 12  9  2  0  0  0  0
 12  3  1  0  0  0  0
 13 15  2  0  0  0  0
 14 13  1  0  0  0  0
 16 15  1  0  0  0  0
 17 18  1  0  0  0  0
 18  6  1  0  0  0  0
 18 16  1  0  0  0  0
 19 17  1  0  0  0  0
 19 14  2  0  0  0  0
 20 21  1  0  0  0  0
 22 25  1  0  0  0  0
 22 23  2  0  0  0  0
 23 24  1  0  0  0  0
 24 14  1  0  0  0  0
 24 21  1  0  0  0  0
 25 26  1  0  0  0  0
 26 20  1  0  0  0  0
 27  1  1  0  0  0  0
 28 27  1  0  0  0  0
 29 30  1  0  0  0  0
 29 28  1  0  0  0  0
M  END
>  <MODEL>
4

>  <REMARK>
 VINA RESULT:      -8.0      3.395      4.153
  Name = 
  5 active torsions:
  status: ('A' for Active; 'I' for Inactive)
    1  A    between atoms: C_1  and  C_5
    2  A    between atoms: C_5  and  C_11
    3  A    between atoms: C_8  and  N_26
    4  A    between atoms: C_9  and  C_11
    5  A    between atoms: C_14  and  N_20
                            x       y       z     vdW  Elec       q    Type
                         _______ _______ _______ _____ _____    ______ ____

>  <TORSDO>
F 5

$$$$
=
 OpenBabel11072411123D

 30 34  0  0  0  0  0  0  0  0999 V2000
  160.9470  202.0480  147.5460 C   0  0  0  0  0  0  0  0  0  0  0  0
  161.4950  204.7040  147.4530 C   0  0  0  0  0  0  0  0  0  0  0  0
  162.0730  206.0970  145.8050 N   0  0  0  0  0  0  0  0  0  0  0  0
  161.5370  204.0230  146.3040 C   0  0  0  0  0  0  0  0  0  0  0  0
  161.2110  204.1940  148.6840 C   0  0  0  0  0  0  0  0  0  0  0  0
  161.5650  206.3920  149.5670 C   0  0  0  0  0  0  0  0  0  0  0  0
  160.9230  202.8190  148.7490 C   0  0  0  0  0  3  0  0  0  0  0  0
  161.9080  204.9400  145.2690 N   0  0  0  0  0  0  0  0  0  0  0  0
  161.8670  206.8900  148.2580 C   0  0  0  0  0  3  0  0  0  0  0  0
  161.2670  202.6530  146.2940 C   0  0  0  0  0  3  0  0  0  0  0  0
  161.2460  205.0540  149.7450 N   0  0  0  0  0  0  0  0  0  0  0  0
  161.8130  205.9740  147.2080 C   0  0  0  0  0  0  0  0  0  0  0  0
  161.6540  208.7180  153.4370 C   0  0  0  0  0  3  0  0  0  0  0  0
  161.3110  209.8050  152.4860 C   0  0  0  0  0  0  0  0  0  0  0  0
  161.4880  207.4200  153.1720 C   0  0  0  0  0  3  0  0  0  0  0  0
  160.8350  206.9260  151.9140 C   0  0  0  0  0  2  0  0  0  0  0  0
  162.3620  208.5190  150.6090 C   0  0  0  0  0  2  0  0  0  0  0  0
  161.5930  207.2740  150.7040 N   0  0  0  0  0  0  0  0  0  0  0  0
  161.6190  209.6900  151.1840 C   0  0  0  0  0  3  0  0  0  0  0  0
  159.4540  211.2770  155.1100 C   0  0  0  0  0  2  0  0  0  0  0  0
  160.8120  211.3690  154.4000 C   0  0  0  0  0  2  0  0  0  0  0  0
  159.2720  212.9230  152.3790 C   0  0  0  0  0  3  0  0  0  0  0  0
  160.1350  211.9570  152.0440 C   0  0  0  0  0  3  0  0  0  0  0  0
  160.7080  211.0210  152.9790 N   0  0  0  0  0  0  0  0  0  0  0  0
  158.7660  213.1420  153.7710 C   0  0  0  0  0  2  0  0  0  0  0  0
  158.3520  211.8660  154.3440 N   0  0  0  0  0  2  0  0  0  0  0  0
  160.6610  200.5850  147.6060 C   0  0  0  0  0  2  0  0  0  0  0  0
  161.6020  199.8030  146.7000 C   0  0  0  0  0  2  0  0  0  0  0  0
  160.8410  199.0930  145.5910 C   0  0  0  0  0  2  0  0  0  0  0  0
  161.6880  198.2070  144.9240 O   0  0  0  0  0  1  0  0  0  0  0  0
  1 27  1  0  0  0  0
  1  7  1  0  0  0  0
  2  5  1  0  0  0  0
  3 12  1  0  0  0  0
  4  2  2  0  0  0  0
  5  7  2  0  0  0  0
  5 11  1  0  0  0  0
  6 11  2  0  0  0  0
  6 18  1  0  0  0  0
  8  3  2  0  0  0  0
  8  4  1  0  0  0  0
  9  6  1  0  0  0  0
 10  4  1  0  0  0  0
 10  1  2  0  0  0  0
 12  2  1  0  0  0  0
 12  9  2  0  0  0  0
 14 24  1  0  0  0  0
 14 13  1  0  0  0  0
 15 13  2  0  0  0  0
 16 15  1  0  0  0  0
 17 18  1  0  0  0  0
 17 19  1  0  0  0  0
 18 16  1  0  0  0  0
 19 14  2  0  0  0  0
 21 20  1  0  0  0  0
 22 25  1  0  0  0  0
 23 22  2  0  0  0  0
 23 24  1  0  0  0  0
 24 21  1  0  0  0  0
 25 26  1  0  0  0  0
 26 20  1  0  0  0  0
 28 27  1  0  0  0  0
 29 28  1  0  0  0  0
 30 29  1  0  0  0  0
M  END
>  <MODEL>
5

>  <REMARK>
 VINA RESULT:      -7.9      2.469      3.498
  Name = 
  5 active torsions:
  status: ('A' for Active; 'I' for Inactive)
    1  A    between atoms: C_1  and  C_5
    2  A    between atoms: C_5  and  C_11
    3  A    between atoms: C_8  and  N_26
    4  A    between atoms: C_9  and  C_11
    5  A    between atoms: C_14  and  N_20
                            x       y       z     vdW  Elec       q    Type
                         _______ _______ _______ _____ _____    ______ ____

>  <TORSDO>
F 5

$$$$
=
 OpenBabel11072411123D

 30 34  0  0  0  0  0  0  0  0999 V2000
  159.9310  211.3500  155.1600 C   0  0  0  0  0  0  0  0  0  0  0  0
  160.3940  208.6830  154.9730 C   0  0  0  0  0  0  0  0  0  0  0  0
  160.5300  207.0380  156.4770 N   0  0  0  0  0  0  0  0  0  0  0  0
  160.1670  209.1880  156.1890 C   0  0  0  0  0  0  0  0  0  0  0  0
  160.4280  209.3800  153.8020 C   0  0  0  0  0  0  0  0  0  0  0  0
  160.9480  207.3170  152.7030 C   0  0  0  0  0  0  0  0  0  0  0  0
  160.1880  210.7630  153.8830 C   0  0  0  0  0  3  0  0  0  0  0  0
  160.2600  208.1120  157.1300 N   0  0  0  0  0  0  0  0  0  0  0  0
  160.9150  206.6200  153.9550 C   0  0  0  0  0  3  0  0  0  0  0  0
  159.9260  210.5550  156.3440 C   0  0  0  0  0  3  0  0  0  0  0  0
  160.7060  208.6820  152.6620 N   0  0  0  0  0  0  0  0  0  0  0  0
  160.6220  207.3760  155.0890 C   0  0  0  0  0  0  0  0  0  0  0  0
  161.9120  205.5740  148.6500 C   0  0  0  0  0  3  0  0  0  0  0  0
  161.3960  204.3650  149.3390 C   0  0  0  0  0  0  0  0  0  0  0  0
  161.6660  206.8210  149.0570 C   0  0  0  0  0  3  0  0  0  0  0  0
  160.7490  207.1360  150.2030 C   0  0  0  0  0  2  0  0  0  0  0  0
  161.9940  205.3550  151.5630 C   0  0  0  0  0  2  0  0  0  0  0  0
  161.2380  206.6080  151.4850 N   0  0  0  0  0  0  0  0  0  0  0  0
  161.4150  204.2870  150.6800 C   0  0  0  0  0  3  0  0  0  0  0  0
  160.9360  200.8600  149.2780 C   0  0  0  0  0  2  0  0  0  0  0  0
  160.1520  202.1770  149.1940 C   0  0  0  0  0  2  0  0  0  0  0  0
  161.0650  202.1510  146.3590 C   0  0  0  0  0  3  0  0  0  0  0  0
  161.1310  203.2420  147.1300 C   0  0  0  0  0  3  0  0  0  0  0  0
  160.9380  203.2400  148.5590 N   0  0  0  0  0  0  0  0  0  0  0  0
  160.8070  200.7740  146.8860 C   0  0  0  0  0  2  0  0  0  0  0  0
  161.6580  200.5290  148.0450 N   0  0  0  0  0  2  0  0  0  0  0  0
  159.6930  212.8200  155.2580 C   0  0  0  0  0  2  0  0  0  0  0  0
  158.8690  213.3240  154.0820 C   0  0  0  0  0  2  0  0  0  0  0  0
  157.4170  213.5430  154.4760 C   0  0  0  0  0  2  0  0  0  0  0  0
  156.7040  212.3490  154.3530 O   0  0  0  0  0  1  0  0  0  0  0  0
  1 27  1  0  0  0  0
  1 10  1  0  0  0  0
  2 12  1  0  0  0  0
  2  4  1  0  0  0  0
  3  8  2  0  0  0  0
  4 10  2  0  0  0  0
  4  8  1  0  0  0  0
  5  7  1  0  0  0  0
  5  2  2  0  0  0  0
  6  9  1  0  0  0  0
  7  1  2  0  0  0  0
  9 12  2  0  0  0  0
 11  6  2  0  0  0  0
 11  5  1  0  0  0  0
 12  3  1  0  0  0  0
 13 15  2  0  0  0  0
 13 14  1  0  0  0  0
 14 19  2  0  0  0  0
 15 16  1  0  0  0  0
 16 18  1  0  0  0  0
 18 17  1  0  0  0  0
 18  6  1  0  0  0  0
 19 17  1  0  0  0  0
 21 20  1  0  0  0  0
 22 25  1  0  0  0  0
 22 23  2  0  0  0  0
 23 24  1  0  0  0  0
 24 21  1  0  0  0  0
 24 14  1  0  0  0  0
 25 26  1  0  0  0  0
 26 20  1  0  0  0  0
 28 29  1  0  0  0  0
 28 27  1  0  0  0  0
 30 29  1  0  0  0  0
M  END
>  <MODEL>
6

>  <REMARK>
 VINA RESULT:      -7.6      2.829      9.258
  Name = 
  5 active torsions:
  status: ('A' for Active; 'I' for Inactive)
    1  A    between atoms: C_1  and  C_5
    2  A    between atoms: C_5  and  C_11
    3  A    between atoms: C_8  and  N_26
    4  A    between atoms: C_9  and  C_11
    5  A    between atoms: C_14  and  N_20
                            x       y       z     vdW  Elec       q    Type
                         _______ _______ _______ _____ _____    ______ ____

>  <TORSDO>
F 5

$$$$
=
 OpenBabel11072411123D

 30 34  0  0  0  0  0  0  0  0999 V2000
  161.4770  205.5190  152.0950 C   0  0  0  0  0  0  0  0  0  0  0  0
  161.2490  208.1170  152.8430 C   0  0  0  0  0  0  0  0  0  0  0  0
  160.9350  209.1290  154.8090 N   0  0  0  0  0  0  0  0  0  0  0  0
  161.1950  207.1910  153.8030 C   0  0  0  0  0  0  0  0  0  0  0  0
  161.3980  207.8900  151.5080 C   0  0  0  0  0  0  0  0  0  0  0  0
  161.2520  210.2580  151.1870 C   0  0  0  0  0  0  0  0  0  0  0  0
  161.5200  206.5480  151.1040 C   0  0  0  0  0  3  0  0  0  0  0  0
  160.9950  207.8670  155.0500 N   0  0  0  0  0  0  0  0  0  0  0  0
  161.0860  210.4580  152.5960 C   0  0  0  0  0  3  0  0  0  0  0  0
  161.3040  205.8370  153.4750 C   0  0  0  0  0  3  0  0  0  0  0  0
  161.4010  208.9760  150.6800 N   0  0  0  0  0  0  0  0  0  0  0  0
  161.0950  209.3180  153.3990 C   0  0  0  0  0  0  0  0  0  0  0  0
  161.1560  214.0900  148.7990 C   0  0  0  0  0  3  0  0  0  0  0  0
  161.1410  213.0960  147.6980 C   0  0  0  0  0  0  0  0  0  0  0  0
  160.8170  213.8070  150.0600 C   0  0  0  0  0  3  0  0  0  0  0  0
  160.2840  212.4670  150.4750 C   0  0  0  0  0  2  0  0  0  0  0  0
  162.2290  211.4010  149.1910 C   0  0  0  0  0  2  0  0  0  0  0  0
  161.2590  211.3840  150.2900 N   0  0  0  0  0  0  0  0  0  0  0  0
  161.6140  211.8540  147.8980 C   0  0  0  0  0  3  0  0  0  0  0  0
  158.6340  212.6680  145.2430 C   0  0  0  0  0  2  0  0  0  0  0  0
  159.2570  213.7370  146.1510 C   0  0  0  0  0  2  0  0  0  0  0  0
  161.3650  213.8180  144.0480 C   0  0  0  0  0  3  0  0  0  0  0  0
  161.6480  213.7780  145.3550 C   0  0  0  0  0  3  0  0  0  0  0  0
  160.6820  213.4890  146.3870 N   0  0  0  0  0  0  0  0  0  0  0  0
  160.0070  213.5420  143.4820 C   0  0  0  0  0  2  0  0  0  0  0  0
  159.4660  212.3280  144.0840 N   0  0  0  0  0  2  0  0  0  0  0  0
  161.5870  204.0910  151.6760 C   0  0  0  0  0  2  0  0  0  0  0  0
  160.4200  203.6880  150.7850 C   0  0  0  0  0  2  0  0  0  0  0  0
  160.9050  203.1270  149.4580 C   0  0  0  0  0  2  0  0  0  0  0  0
  161.0960  204.1630  148.5430 O   0  0  0  0  0  1  0  0  0  0  0  0
  1 10  1  0  0  0  0
  2 12  1  0  0  0  0
  2  4  1  0  0  0  0
  3  8  2  0  0  0  0
  4  8  1  0  0  0  0
  5  2  2  0  0  0  0
  6  9  1  0  0  0  0
  7  5  1  0  0  0  0
  7  1  2  0  0  0  0
  9 12  2  0  0  0  0
 10  4  2  0  0  0  0
 11  6  2  0  0  0  0
 11  5  1  0  0  0  0
 12  3  1  0  0  0  0
 13 15  2  0  0  0  0
 14 19  2  0  0  0  0
 14 13  1  0  0  0  0
 15 16  1  0  0  0  0
 17 18  1  0  0  0  0
 18 16  1  0  0  0  0
 18  6  1  0  0  0  0
 19 17  1  0  0  0  0
 20 21  1  0  0  0  0
 21 24  1  0  0  0  0
 22 23  2  0  0  0  0
 23 24  1  0  0  0  0
 24 14  1  0  0  0  0
 25 22  1  0  0  0  0
 25 26  1  0  0  0  0
 26 20  1  0  0  0  0
 27  1  1  0  0  0  0
 28 27  1  0  0  0  0
 29 28  1  0  0  0  0
 30 29  1  0  0  0  0
M  END
>  <MODEL>
7

>  <REMARK>
 VINA RESULT:      -7.1      4.573      6.880
  Name = 
  5 active torsions:
  status: ('A' for Active; 'I' for Inactive)
    1  A    between atoms: C_1  and  C_5
    2  A    between atoms: C_5  and  C_11
    3  A    between atoms: C_8  and  N_26
    4  A    between atoms: C_9  and  C_11
    5  A    between atoms: C_14  and  N_20
                            x       y       z     vdW  Elec       q    Type
                         _______ _______ _______ _____ _____    ______ ____

>  <TORSDO>
F 5

$$$$
=
 OpenBabel11072411123D

 30 34  0  0  0  0  0  0  0  0999 V2000
  160.0190  211.7530  153.8870 C   0  0  0  0  0  0  0  0  0  0  0  0
  160.8100  209.2100  154.4070 C   0  0  0  0  0  0  0  0  0  0  0  0
  161.5970  208.1880  156.2300 N   0  0  0  0  0  0  0  0  0  0  0  0
  160.8500  210.0880  155.4130 C   0  0  0  0  0  0  0  0  0  0  0  0
  160.4190  209.4650  153.1270 C   0  0  0  0  0  0  0  0  0  0  0  0
  160.9250  207.1800  152.6210 C   0  0  0  0  0  0  0  0  0  0  0  0
  160.0040  210.7780  152.8420 C   0  0  0  0  0  3  0  0  0  0  0  0
  161.3560  209.4060  156.5660 N   0  0  0  0  0  0  0  0  0  0  0  0
  161.3390  206.9530  153.9740 C   0  0  0  0  0  3  0  0  0  0  0  0
  160.4570  211.4120  155.2010 C   0  0  0  0  0  3  0  0  0  0  0  0
  160.4770  208.4340  152.2340 N   0  0  0  0  0  0  0  0  0  0  0  0
  161.2560  208.0350  154.8480 C   0  0  0  0  0  0  0  0  0  0  0  0
  161.2190  203.5110  150.0040 C   0  0  0  0  0  3  0  0  0  0  0  0
  161.1780  204.5710  148.9660 C   0  0  0  0  0  0  0  0  0  0  0  0
  161.5460  203.7350  151.2790 C   0  0  0  0  0  3  0  0  0  0  0  0
  162.0070  205.0740  151.7760 C   0  0  0  0  0  2  0  0  0  0  0  0
  160.0050  206.1100  150.5580 C   0  0  0  0  0  2  0  0  0  0  0  0
  160.9750  206.1130  151.6570 N   0  0  0  0  0  0  0  0  0  0  0  0
  160.6400  205.7710  149.2410 C   0  0  0  0  0  3  0  0  0  0  0  0
  162.1640  205.9550  145.8660 C   0  0  0  0  0  2  0  0  0  0  0  0
  162.7010  205.1140  147.0320 C   0  0  0  0  0  2  0  0  0  0  0  0
  161.2900  202.8910  145.6400 C   0  0  0  0  0  3  0  0  0  0  0  0
  161.1980  203.0920  146.9600 C   0  0  0  0  0  3  0  0  0  0  0  0
  161.6530  204.2830  147.6330 N   0  0  0  0  0  0  0  0  0  0  0  0
  161.8560  203.8930  144.6830 C   0  0  0  0  0  2  0  0  0  0  0  0
  161.2860  205.2070  144.9610 N   0  0  0  0  0  2  0  0  0  0  0  0
  159.5980  213.1540  153.5910 C   0  0  0  0  0  2  0  0  0  0  0  0
  158.2340  213.1870  152.9140 C   0  0  0  0  0  2  0  0  0  0  0  0
  157.1150  212.9240  153.9100 C   0  0  0  0  0  2  0  0  0  0  0  0
  157.3590  213.6200  155.0950 O   0  0  0  0  0  1  0  0  0  0  0  0
  1 10  1  0  0  0  0
  2 12  1  0  0  0  0
  2  4  1  0  0  0  0
  3  8  2  0  0  0  0
  4  8  1  0  0  0  0
  5  2  2  0  0  0  0
  6  9  1  0  0  0  0
  7  5  1  0  0  0  0
  7  1  2  0  0  0  0
  9 12  2  0  0  0  0
 10  4  2  0  0  0  0
 11  6  2  0  0  0  0
 11  5  1  0  0  0  0
 12  3  1  0  0  0  0
 13 15  2  0  0  0  0
 14 19  2  0  0  0  0
 14 13  1  0  0  0  0
 15 16  1  0  0  0  0
 17 18  1  0  0  0  0
 18 16  1  0  0  0  0
 18  6  1  0  0  0  0
 19 17  1  0  0  0  0
 20 21  1  0  0  0  0
 21 24  1  0  0  0  0
 22 23  2  0  0  0  0
 23 24  1  0  0  0  0
 24 14  1  0  0  0  0
 25 26  1  0  0  0  0
 25 22  1  0  0  0  0
 26 20  1  0  0  0  0
 27  1  1  0  0  0  0
 28 27  1  0  0  0  0
 28 29  1  0  0  0  0
 29 30  1  0  0  0  0
M  END
>  <MODEL>
8

>  <REMARK>
 VINA RESULT:      -7.0      2.966      9.036
  Name = 
  5 active torsions:
  status: ('A' for Active; 'I' for Inactive)
    1  A    between atoms: C_1  and  C_5
    2  A    between atoms: C_5  and  C_11
    3  A    between atoms: C_8  and  N_26
    4  A    between atoms: C_9  and  C_11
    5  A    between atoms: C_14  and  N_20
                            x       y       z     vdW  Elec       q    Type
                         _______ _______ _______ _____ _____    ______ ____

>  <TORSDO>
F 5

$$$$
=
 OpenBabel11072411123D

 30 34  0  0  0  0  0  0  0  0999 V2000
  161.1790  209.2860  155.4890 C   0  0  0  0  0  0  0  0  0  0  0  0
  161.5950  208.6870  152.8750 C   0  0  0  0  0  0  0  0  0  0  0  0
  162.1790  209.9010  151.0940 N   0  0  0  0  0  0  0  0  0  0  0  0
  161.7830  209.9530  153.2570 C   0  0  0  0  0  0  0  0  0  0  0  0
  161.2010  207.6530  153.6710 C   0  0  0  0  0  0  0  0  0  0  0  0
  161.2600  206.2610  151.7240 C   0  0  0  0  0  0  0  0  0  0  0  0
  160.9830  207.9470  155.0290 C   0  0  0  0  0  3  0  0  0  0  0  0
  162.1560  210.7060  152.0980 N   0  0  0  0  0  0  0  0  0  0  0  0
  161.6640  207.3740  150.9170 C   0  0  0  0  0  3  0  0  0  0  0  0
  161.5800  210.3190  154.5900 C   0  0  0  0  0  3  0  0  0  0  0  0
  161.0370  206.4320  153.0820 N   0  0  0  0  0  0  0  0  0  0  0  0
  161.8210  208.5970  151.5660 C   0  0  0  0  0  0  0  0  0  0  0  0
  160.7890  201.9840  150.3510 C   0  0  0  0  0  3  0  0  0  0  0  0
  160.8880  202.6710  149.0390 C   0  0  0  0  0  0  0  0  0  0  0  0
  161.2060  202.5180  151.5010 C   0  0  0  0  0  3  0  0  0  0  0  0
  161.9170  203.8380  151.5720 C   0  0  0  0  0  2  0  0  0  0  0  0
  160.0760  204.8040  150.0750 C   0  0  0  0  0  2  0  0  0  0  0  0
  161.0800  204.9620  151.1310 N   0  0  0  0  0  0  0  0  0  0  0  0
  160.5820  203.9740  148.9300 C   0  0  0  0  0  3  0  0  0  0  0  0
  160.4800  202.3640  145.5410 C   0  0  0  0  0  2  0  0  0  0  0  0
  161.5560  202.6080  146.6080 C   0  0  0  0  0  2  0  0  0  0  0  0
  161.4380  199.6490  146.9260 C   0  0  0  0  0  3  0  0  0  0  0  0
  161.4400  200.4890  147.9680 C   0  0  0  0  0  3  0  0  0  0  0  0
  161.2460  201.9140  147.8620 N   0  0  0  0  0  0  0  0  0  0  0  0
  161.2060  200.0790  145.5110 C   0  0  0  0  0  2  0  0  0  0  0  0
  160.0480  200.9660  145.4550 N   0  0  0  0  0  2  0  0  0  0  0  0
  160.9330  209.6130  156.9240 C   0  0  0  0  0  2  0  0  0  0  0  0
  160.4530  211.0480  157.0870 C   0  0  0  0  0  2  0  0  0  0  0  0
  158.9350  211.1230  157.1350 C   0  0  0  0  0  2  0  0  0  0  0  0
  158.4380  211.5350  155.8980 O   0  0  0  0  0  1  0  0  0  0  0  0
  1 27  1  0  0  0  0
  2  4  2  0  0  0  0
  2  5  1  0  0  0  0
  3 12  1  0  0  0  0
  3  8  2  0  0  0  0
  4 10  1  0  0  0  0
  5  7  2  0  0  0  0
  6 11  2  0  0  0  0
  7  1  1  0  0  0  0
  8  4  1  0  0  0  0
  9 12  2  0  0  0  0
  9  6  1  0  0  0  0
 10  1  2  0  0  0  0
 11  5  1  0  0  0  0
 12  2  1  0  0  0  0
 13 15  2  0  0  0  0
 14 13  1  0  0  0  0
 15 16  1  0  0  0  0
 17 18  1  0  0  0  0
 18 16  1  0  0  0  0
 18  6  1  0  0  0  0
 19 14  2  0  0  0  0
 19 17  1  0  0  0  0
 20 21  1  0  0  0  0
 21 24  1  0  0  0  0
 22 23  2  0  0  0  0
 24 23  1  0  0  0  0
 24 14  1  0  0  0  0
 25 22  1  0  0  0  0
 26 25  1  0  0  0  0
 26 20  1  0  0  0  0
 27 28  1  0  0  0  0
 28 29  1  0  0  0  0
 30 29  1  0  0  0  0
M  END
>  <MODEL>
9

>  <REMARK>
 VINA RESULT:      -6.6      3.180      9.720
  Name = 
  5 active torsions:
  status: ('A' for Active; 'I' for Inactive)
    1  A    between atoms: C_1  and  C_5
    2  A    between atoms: C_5  and  C_11
    3  A    between atoms: C_8  and  N_26
    4  A    between atoms: C_9  and  C_11
    5  A    between atoms: C_14  and  N_20
                            x       y       z     vdW  Elec       q    Type
                         _______ _______ _______ _____ _____    ______ ____

>  <TORSDO>
F 5

$$$$
