=
 OpenBabel11072412413D

 31 36  0  0  1  0  0  0  0  0999 V2000
  161.2510  204.3720  152.7410 S   0  0  0  0  0  0  0  0  0  0  0  0
  161.6350  209.0390  150.8780 C   0  0  0  0  0  3  0  0  0  0  0  0
  161.1880  207.0110  152.7250 C   0  0  0  0  0  0  0  0  0  0  0  0
  161.4750  206.6920  151.4160 C   0  0  0  0  0  0  0  0  0  0  0  0
  161.3270  209.3610  152.2110 C   0  0  0  0  0  0  0  0  0  0  0  0
  161.5230  205.2260  151.1350 C   0  0  2  0  0  3  0  0  0  0  0  0
  161.0050  205.9070  153.5840 N   0  0  0  0  0  2  0  0  0  0  0  0
  161.1090  208.3390  153.1460 C   0  0  0  0  0  3  0  0  0  0  0  0
  161.7100  207.6990  150.4740 C   0  0  0  0  0  3  0  0  0  0  0  0
  161.2730  210.7880  152.6390 C   0  0  0  0  0  2  0  0  0  0  0  0
  159.8290  211.1200  154.6990 C   0  0  0  0  0  0  0  0  0  0  0  0
  162.1760  210.7100  154.9290 N   0  0  0  0  0  0  0  0  0  0  0  0
  159.7200  211.1740  156.1070 C   0  0  0  0  0  0  0  0  0  0  0  0
  160.8540  210.9940  156.8990 C   0  0  0  0  0  3  0  0  0  0  0  0
  161.0920  210.8860  154.1230 C   0  0  0  0  0  0  0  0  0  0  0  0
  157.3420  211.5860  155.9140 C   0  0  0  0  0  3  0  0  0  0  0  0
  158.6800  211.3040  153.9130 C   0  0  0  0  0  3  0  0  0  0  0  0
  157.4420  211.5350  154.5200 C   0  0  0  0  0  3  0  0  0  0  0  0
  158.4800  211.4050  156.7060 C   0  0  0  0  0  3  0  0  0  0  0  0
  162.0840  210.7600  156.2850 C   0  0  0  0  0  3  0  0  0  0  0  0
  160.4110  204.8270  150.1730 C   0  0  0  0  0  2  0  0  0  0  0  0
  160.9250  204.4560  148.8120 C   0  0  0  0  0  0  0  0  0  0  0  0
  161.7910  204.5300  146.6610 N   0  0  0  0  0  0  0  0  0  0  0  0
  161.4000  203.3320  146.9470 C   0  0  0  0  0  0  0  0  0  0  0  0
  160.8690  203.2370  148.2930 C   0  0  0  0  0  0  0  0  0  0  0  0
  161.5510  205.3870  147.8160 C   0  0  0  0  0  2  0  0  0  0  0  0
  160.9990  201.6370  150.1750 C   0  0  0  0  0  2  0  0  0  0  0  0
  161.2030  200.8570  148.8970 C   0  0  0  0  0  2  0  0  0  0  0  0
  160.2380  202.0300  148.9210 C   0  0  0  0  0  3  0  0  0  0  0  0
  160.3420  201.8040  145.3340 C   0  0  0  0  0  1  0  0  0  0  0  0
  161.4770  202.2620  146.0530 O   0  0  0  0  0  0  0  0  0  0  0  0
  1  7  1  0  0  0  0
  2  5  1  0  0  0  0
  3  8  1  0  0  0  0
  3  7  1  0  0  0  0
  4  3  2  0  0  0  0
  5 10  1  0  0  0  0
  5  8  2  0  0  0  0
  6 21  1  6  0  0  0
  6  4  1  0  0  0  0
  6  1  1  0  0  0  0
  9  2  2  0  0  0  0
  9  4  1  0  0  0  0
 10 15  1  0  0  0  0
 11 13  1  0  0  0  0
 12 20  1  0  0  0  0
 13 19  2  0  0  0  0
 13 14  1  0  0  0  0
 15 11  1  0  0  0  0
 15 12  2  0  0  0  0
 16 19  1  0  0  0  0
 17 18  1  0  0  0  0
 17 11  2  0  0  0  0
 18 16  2  0  0  0  0
 20 14  2  0  0  0  0
 22 21  1  0  0  0  0
 23 24  2  0  0  0  0
 23 26  1  0  0  0  0
 24 25  1  0  0  0  0
 25 22  2  0  0  0  0
 25 29  1  0  0  0  0
 26 22  1  0  0  0  0
 28 29  1  0  0  0  0
 28 27  1  0  0  0  0
 29 27  1  0  0  0  0
 30 31  1  0  0  0  0
 31 24  1  0  0  0  0
M  END
>  <MODEL>
1

>  <REMARK>
 VINA RESULT:      -9.2      0.000      0.000
  Name = 
  6 active torsions:
  status: ('A' for Active; 'I' for Inactive)
    1  A    between atoms: C_2  and  C_21
    2  A    between atoms: C_11  and  C_20
    3  A    between atoms: C_14  and  O_29
    4  A    between atoms: C_16  and  C_31
    5  A    between atoms: C_18  and  C_20
    6  A    between atoms: C_21  and  C_23
                            x       y       z     vdW  Elec       q    Type
                         _______ _______ _______ _____ _____    ______ ____

>  <TORSDO>
F 6

$$$$
=
 OpenBabel11072412413D

 31 36  0  0  1  0  0  0  0  0999 V2000
  161.2920  204.8220  152.7630 S   0  0  0  0  0  0  0  0  0  0  0  0
  161.4630  209.7710  151.8210 C   0  0  0  0  0  3  0  0  0  0  0  0
  161.1170  207.4120  153.2490 C   0  0  0  0  0  0  0  0  0  0  0  0
  161.4080  207.3590  151.9030 C   0  0  0  0  0  0  0  0  0  0  0  0
  161.1530  209.8200  153.1910 C   0  0  0  0  0  0  0  0  0  0  0  0
  161.5160  205.9770  151.3490 C   0  0  2  0  0  3  0  0  0  0  0  0
  160.9870  206.1580  153.8820 N   0  0  0  0  0  2  0  0  0  0  0  0
  160.9850  208.6300  153.9150 C   0  0  0  0  0  3  0  0  0  0  0  0
  161.5930  208.5360  151.1710 C   0  0  0  0  0  3  0  0  0  0  0  0
  161.0410  211.1360  153.8820 C   0  0  0  0  0  2  0  0  0  0  0  0
  158.6510  211.9680  154.0740 C   0  0  0  0  0  0  0  0  0  0  0  0
  159.9930  212.5870  152.1910 N   0  0  0  0  0  0  0  0  0  0  0  0
  157.5890  212.7350  153.5440 C   0  0  0  0  0  0  0  0  0  0  0  0
  157.7560  213.4140  152.3370 C   0  0  0  0  0  3  0  0  0  0  0  0
  159.8650  211.9060  153.3630 C   0  0  0  0  0  0  0  0  0  0  0  0
  156.2030  212.1340  155.4380 C   0  0  0  0  0  3  0  0  0  0  0  0
  158.4690  211.2890  155.2890 C   0  0  0  0  0  3  0  0  0  0  0  0
  157.2500  211.3740  155.9670 C   0  0  0  0  0  3  0  0  0  0  0  0
  156.3730  212.8140  154.2270 C   0  0  0  0  0  3  0  0  0  0  0  0
  158.9780  213.3270  151.6700 C   0  0  0  0  0  3  0  0  0  0  0  0
  160.4140  205.7210  150.3280 C   0  0  0  0  0  2  0  0  0  0  0  0
  160.7500  204.6080  149.3770 C   0  0  0  0  0  0  0  0  0  0  0  0
  161.2930  202.5450  148.4630 N   0  0  0  0  0  0  0  0  0  0  0  0
  161.3430  203.4650  147.5580 C   0  0  0  0  0  0  0  0  0  0  0  0
  160.9910  204.7700  148.0840 C   0  0  0  0  0  0  0  0  0  0  0  0
  160.8950  203.1560  149.7260 C   0  0  0  0  0  2  0  0  0  0  0  0
  162.2280  206.0950  146.4000 C   0  0  0  0  0  2  0  0  0  0  0  0
  162.2950  206.8440  147.7100 C   0  0  0  0  0  2  0  0  0  0  0  0
  161.0380  206.0740  147.3430 C   0  0  0  0  0  3  0  0  0  0  0  0
  160.7770  202.7200  145.2810 C   0  0  0  0  0  1  0  0  0  0  0  0
  161.7050  203.2220  146.2310 O   0  0  0  0  0  0  0  0  0  0  0  0
  1  7  1  0  0  0  0
  2  5  1  0  0  0  0
  3  7  1  0  0  0  0
  3  8  1  0  0  0  0
  4  3  2  0  0  0  0
  5 10  1  0  0  0  0
  5  8  2  0  0  0  0
  6 21  1  6  0  0  0
  6  4  1  0  0  0  0
  6  1  1  0  0  0  0
  9  2  2  0  0  0  0
  9  4  1  0  0  0  0
 11 17  1  0  0  0  0
 12 15  1  0  0  0  0
 13 11  1  0  0  0  0
 13 19  1  0  0  0  0
 14 13  2  0  0  0  0
 15 10  1  0  0  0  0
 15 11  2  0  0  0  0
 16 18  1  0  0  0  0
 17 18  2  0  0  0  0
 19 16  2  0  0  0  0
 20 12  2  0  0  0  0
 20 14  1  0  0  0  0
 22 26  1  0  0  0  0
 22 21  1  0  0  0  0
 23 26  1  0  0  0  0
 24 25  1  0  0  0  0
 24 23  2  0  0  0  0
 25 22  2  0  0  0  0
 27 29  1  0  0  0  0
 27 28  1  0  0  0  0
 29 28  1  0  0  0  0
 29 25  1  0  0  0  0
 30 31  1  0  0  0  0
 31 24  1  0  0  0  0
M  END
>  <MODEL>
2

>  <REMARK>
 VINA RESULT:      -8.8      1.495      2.849
  Name = 
  6 active torsions:
  status: ('A' for Active; 'I' for Inactive)
    1  A    between atoms: C_2  and  C_21
    2  A    between atoms: C_11  and  C_20
    3  A    between atoms: C_14  and  O_29
    4  A    between atoms: C_16  and  C_31
    5  A    between atoms: C_18  and  C_20
    6  A    between atoms: C_21  and  C_23
                            x       y       z     vdW  Elec       q    Type
                         _______ _______ _______ _____ _____    ______ ____

>  <TORSDO>
F 6

$$$$
=
 OpenBabel11072412413D

 31 36  0  0  1  0  0  0  0  0999 V2000
  161.2200  204.3840  152.4930 S   0  0  0  0  0  0  0  0  0  0  0  0
  161.8210  209.3080  151.5970 C   0  0  0  0  0  3  0  0  0  0  0  0
  161.2570  206.9760  152.9990 C   0  0  0  0  0  0  0  0  0  0  0  0
  161.5620  206.9090  151.6570 C   0  0  0  0  0  0  0  0  0  0  0  0
  161.4950  209.3730  152.9620 C   0  0  0  0  0  0  0  0  0  0  0  0
  161.5620  205.5260  151.0920 C   0  0  2  0  0  3  0  0  0  0  0  0
  161.0120  205.7330  153.6190 N   0  0  0  0  0  2  0  0  0  0  0  0
  161.2170  208.1960  153.6730 C   0  0  0  0  0  3  0  0  0  0  0  0
  161.8560  208.0720  150.9370 C   0  0  0  0  0  3  0  0  0  0  0  0
  161.4840  210.6890  153.6630 C   0  0  0  0  0  2  0  0  0  0  0  0
  159.4440  212.0490  153.0120 C   0  0  0  0  0  0  0  0  0  0  0  0
  159.3910  210.6610  154.9610 N   0  0  0  0  0  0  0  0  0  0  0  0
  158.1050  212.4260  153.2680 C   0  0  0  0  0  0  0  0  0  0  0  0
  157.4370  211.9060  154.3760 C   0  0  0  0  0  3  0  0  0  0  0  0
  160.0780  211.1520  153.8920 C   0  0  0  0  0  0  0  0  0  0  0  0
  158.1200  213.8370  151.3000 C   0  0  0  0  0  3  0  0  0  0  0  0
  160.1050  212.5800  151.8930 C   0  0  0  0  0  3  0  0  0  0  0  0
  159.4440  213.4690  151.0410 C   0  0  0  0  0  3  0  0  0  0  0  0
  157.4520  213.3150  152.4120 C   0  0  0  0  0  3  0  0  0  0  0  0
  158.1040  211.0160  155.2190 C   0  0  0  0  0  3  0  0  0  0  0  0
  160.4580  205.3720  150.0540 C   0  0  0  0  0  2  0  0  0  0  0  0
  160.9480  204.7650  148.7700 C   0  0  0  0  0  0  0  0  0  0  0  0
  161.7930  204.4560  146.6320 N   0  0  0  0  0  0  0  0  0  0  0  0
  161.3760  203.3340  147.1170 C   0  0  0  0  0  0  0  0  0  0  0  0
  160.8570  203.4790  148.4630 C   0  0  0  0  0  0  0  0  0  0  0  0
  161.5860  205.5000  147.6290 C   0  0  0  0  0  2  0  0  0  0  0  0
  161.2020  201.8280  150.2730 C   0  0  0  0  0  2  0  0  0  0  0  0
  160.8520  201.0640  149.0180 C   0  0  0  0  0  2  0  0  0  0  0  0
  160.2030  202.4100  149.2880 C   0  0  0  0  0  3  0  0  0  0  0  0
  160.4920  201.8330  145.3780 C   0  0  0  0  0  1  0  0  0  0  0  0
  161.4170  202.1280  146.4140 O   0  0  0  0  0  0  0  0  0  0  0  0
  1  7  1  0  0  0  0
  2  5  1  0  0  0  0
  3  7  1  0  0  0  0
  3  8  1  0  0  0  0
  4  3  2  0  0  0  0
  5 10  1  0  0  0  0
  5  8  2  0  0  0  0
  6 21  1  6  0  0  0
  6  4  1  0  0  0  0
  6  1  1  0  0  0  0
  9  2  2  0  0  0  0
  9  4  1  0  0  0  0
 10 15  1  0  0  0  0
 11 13  1  0  0  0  0
 11 15  1  0  0  0  0
 12 20  1  0  0  0  0
 13 14  1  0  0  0  0
 14 20  2  0  0  0  0
 15 12  2  0  0  0  0
 16 19  1  0  0  0  0
 17 11  2  0  0  0  0
 18 16  2  0  0  0  0
 18 17  1  0  0  0  0
 19 13  2  0  0  0  0
 22 21  1  0  0  0  0
 23 24  2  0  0  0  0
 23 26  1  0  0  0  0
 24 25  1  0  0  0  0
 25 22  2  0  0  0  0
 25 29  1  0  0  0  0
 26 22  1  0  0  0  0
 28 29  1  0  0  0  0
 28 27  1  0  0  0  0
 29 27  1  0  0  0  0
 30 31  1  0  0  0  0
 31 24  1  0  0  0  0
M  END
>  <MODEL>
3

>  <REMARK>
 VINA RESULT:      -8.7      1.358      2.150
  Name = 
  6 active torsions:
  status: ('A' for Active; 'I' for Inactive)
    1  A    between atoms: C_2  and  C_21
    2  A    between atoms: C_11  and  C_20
    3  A    between atoms: C_14  and  O_29
    4  A    between atoms: C_16  and  C_31
    5  A    between atoms: C_18  and  C_20
    6  A    between atoms: C_21  and  C_23
                            x       y       z     vdW  Elec       q    Type
                         _______ _______ _______ _____ _____    ______ ____

>  <TORSDO>
F 6

$$$$
=
 OpenBabel11072412413D

 31 36  0  0  1  0  0  0  0  0999 V2000
  161.2080  207.0120  147.6510 S   0  0  0  0  0  0  0  0  0  0  0  0
  161.1430  207.8220  152.6250 C   0  0  0  0  0  3  0  0  0  0  0  0
  161.6360  208.2770  149.9290 C   0  0  0  0  0  0  0  0  0  0  0  0
  161.0690  207.0870  150.3280 C   0  0  0  0  0  0  0  0  0  0  0  0
  161.7340  209.0280  152.2160 C   0  0  0  0  0  0  0  0  0  0  0  0
  160.7650  206.1430  149.2100 C   0  0  2  0  0  3  0  0  0  0  0  0
  161.8190  208.4160  148.5370 N   0  0  0  0  0  2  0  0  0  0  0  0
  161.9770  209.2630  150.8540 C   0  0  0  0  0  3  0  0  0  0  0  0
  160.8070  206.8430  151.6800 C   0  0  0  0  0  3  0  0  0  0  0  0
  162.0670  210.0750  153.2240 C   0  0  0  0  0  2  0  0  0  0  0  0
  159.8870  211.3160  153.6120 C   0  0  0  0  0  0  0  0  0  0  0  0
  160.7060  209.7800  155.2550 N   0  0  0  0  0  0  0  0  0  0  0  0
  158.7630  211.5630  154.4330 C   0  0  0  0  0  0  0  0  0  0  0  0
  158.6380  210.9060  155.6570 C   0  0  0  0  0  3  0  0  0  0  0  0
  160.8650  210.4050  154.0560 C   0  0  0  0  0  0  0  0  0  0  0  0
  157.9010  213.1200  152.7900 C   0  0  0  0  0  3  0  0  0  0  0  0
  160.0020  211.9840  152.3830 C   0  0  0  0  0  3  0  0  0  0  0  0
  159.0110  212.8810  151.9750 C   0  0  0  0  0  3  0  0  0  0  0  0
  157.7780  212.4620  154.0180 C   0  0  0  0  0  3  0  0  0  0  0  0
  159.6290  210.0090  156.0540 C   0  0  0  0  0  3  0  0  0  0  0  0
  161.6130  204.8830  149.3270 C   0  0  0  0  0  2  0  0  0  0  0  0
  161.6120  204.0620  148.0690 C   0  0  0  0  0  0  0  0  0  0  0  0
  161.8690  203.3410  145.8790 N   0  0  0  0  0  0  0  0  0  0  0  0
  161.2060  202.4700  146.5640 C   0  0  0  0  0  0  0  0  0  0  0  0
  161.0390  202.8730  147.9480 C   0  0  0  0  0  0  0  0  0  0  0  0
  162.2210  204.4520  146.7550 C   0  0  0  0  0  2  0  0  0  0  0  0
  160.9450  202.2500  150.3400 C   0  0  0  0  0  2  0  0  0  0  0  0
  161.0250  200.9720  149.5370 C   0  0  0  0  0  2  0  0  0  0  0  0
  160.2420  202.1560  148.9970 C   0  0  0  0  0  3  0  0  0  0  0  0
  159.8190  201.2830  144.9130 C   0  0  0  0  0  1  0  0  0  0  0  0
  160.7040  201.2840  146.0230 O   0  0  0  0  0  0  0  0  0  0  0  0
  1  7  1  0  0  0  0
  1  6  1  0  0  0  0
  3  4  2  0  0  0  0
  3  8  1  0  0  0  0
  4  9  1  0  0  0  0
  5  2  1  0  0  0  0
  5 10  1  0  0  0  0
  6 21  1  1  0  0  0
  6  4  1  0  0  0  0
  7  3  1  0  0  0  0
  8  5  2  0  0  0  0
  9  2  2  0  0  0  0
 10 15  1  0  0  0  0
 11 15  1  0  0  0  0
 11 13  1  0  0  0  0
 12 20  1  0  0  0  0
 13 14  1  0  0  0  0
 14 20  2  0  0  0  0
 15 12  2  0  0  0  0
 16 19  1  0  0  0  0
 17 11  2  0  0  0  0
 18 17  1  0  0  0  0
 18 16  2  0  0  0  0
 19 13  2  0  0  0  0
 22 21  1  0  0  0  0
 23 24  2  0  0  0  0
 23 26  1  0  0  0  0
 24 25  1  0  0  0  0
 25 22  2  0  0  0  0
 25 29  1  0  0  0  0
 26 22  1  0  0  0  0
 28 27  1  0  0  0  0
 29 28  1  0  0  0  0
 29 27  1  0  0  0  0
 30 31  1  0  0  0  0
 31 24  1  0  0  0  0
M  END
>  <MODEL>
4

>  <REMARK>
 VINA RESULT:      -8.7      1.730      2.330
  Name = 
  6 active torsions:
  status: ('A' for Active; 'I' for Inactive)
    1  A    between atoms: C_2  and  C_21
    2  A    between atoms: C_11  and  C_20
    3  A    between atoms: C_14  and  O_29
    4  A    between atoms: C_16  and  C_31
    5  A    between atoms: C_18  and  C_20
    6  A    between atoms: C_21  and  C_23
                            x       y       z     vdW  Elec       q    Type
                         _______ _______ _______ _____ _____    ______ ____

>  <TORSDO>
F 6

$$$$
=
 OpenBabel11072412413D

 31 36  0  0  1  0  0  0  0  0999 V2000
  161.2140  204.7240  152.6260 S   0  0  0  0  0  0  0  0  0  0  0  0
  161.6520  209.6650  151.7340 C   0  0  0  0  0  3  0  0  0  0  0  0
  161.1470  207.3150  153.1290 C   0  0  0  0  0  0  0  0  0  0  0  0
  161.4790  207.2580  151.7930 C   0  0  0  0  0  0  0  0  0  0  0  0
  161.2990  209.7190  153.0930 C   0  0  0  0  0  0  0  0  0  0  0  0
  161.5400  205.8760  151.2300 C   0  0  2  0  0  3  0  0  0  0  0  0
  160.9360  206.0650  153.7460 N   0  0  0  0  0  2  0  0  0  0  0  0
  161.0510  208.5340  153.8000 C   0  0  0  0  0  3  0  0  0  0  0  0
  161.7440  208.4310  151.0770 C   0  0  0  0  0  3  0  0  0  0  0  0
  161.2270  211.0340  153.7920 C   0  0  0  0  0  2  0  0  0  0  0  0
  159.1010  212.2950  153.2180 C   0  0  0  0  0  0  0  0  0  0  0  0
  159.1660  210.8540  155.1280 N   0  0  0  0  0  0  0  0  0  0  0  0
  157.7490  212.5880  153.5100 C   0  0  0  0  0  0  0  0  0  0  0  0
  157.1340  212.0020  154.6150 C   0  0  0  0  0  3  0  0  0  0  0  0
  159.8020  211.4110  154.0600 C   0  0  0  0  0  0  0  0  0  0  0  0
  157.6450  214.0510  151.5820 C   0  0  0  0  0  3  0  0  0  0  0  0
  159.7090  212.8930  152.1020 C   0  0  0  0  0  3  0  0  0  0  0  0
  158.9810  213.7660  151.2880 C   0  0  0  0  0  3  0  0  0  0  0  0
  157.0300  213.4620  152.6910 C   0  0  0  0  0  3  0  0  0  0  0  0
  157.8660  211.1280  155.4190 C   0  0  0  0  0  3  0  0  0  0  0  0
  160.4620  205.6810  150.1710 C   0  0  0  0  0  2  0  0  0  0  0  0
  160.7410  204.5150  149.2660 C   0  0  0  0  0  0  0  0  0  0  0  0
  161.1880  202.3950  148.4370 N   0  0  0  0  0  0  0  0  0  0  0  0
  161.2650  203.2730  147.4920 C   0  0  0  0  0  0  0  0  0  0  0  0
  160.9720  204.6120  147.9650 C   0  0  0  0  0  0  0  0  0  0  0  0
  160.8310  203.0750  149.6760 C   0  0  0  0  0  2  0  0  0  0  0  0
  162.2700  205.8320  146.2480 C   0  0  0  0  0  2  0  0  0  0  0  0
  162.3310  206.6380  147.5250 C   0  0  0  0  0  2  0  0  0  0  0  0
  161.0630  205.8800  147.1680 C   0  0  0  0  0  3  0  0  0  0  0  0
  160.6430  202.4500  145.2570 C   0  0  0  0  0  1  0  0  0  0  0  0
  161.6010  202.9580  146.1740 O   0  0  0  0  0  0  0  0  0  0  0  0
  1  7  1  0  0  0  0
  2  5  1  0  0  0  0
  3  7  1  0  0  0  0
  3  8  1  0  0  0  0
  4  3  2  0  0  0  0
  5 10  1  0  0  0  0
  5  8  2  0  0  0  0
  6 21  1  6  0  0  0
  6  4  1  0  0  0  0
  6  1  1  0  0  0  0
  9  2  2  0  0  0  0
  9  4  1  0  0  0  0
 10 15  1  0  0  0  0
 11 13  1  0  0  0  0
 11 15  1  0  0  0  0
 12 20  1  0  0  0  0
 13 14  1  0  0  0  0
 14 20  2  0  0  0  0
 15 12  2  0  0  0  0
 16 19  1  0  0  0  0
 17 11  2  0  0  0  0
 18 16  2  0  0  0  0
 18 17  1  0  0  0  0
 19 13  2  0  0  0  0
 22 26  1  0  0  0  0
 22 21  1  0  0  0  0
 23 26  1  0  0  0  0
 24 25  1  0  0  0  0
 24 23  2  0  0  0  0
 25 22  2  0  0  0  0
 27 29  1  0  0  0  0
 27 28  1  0  0  0  0
 29 28  1  0  0  0  0
 29 25  1  0  0  0  0
 30 31  1  0  0  0  0
 31 24  1  0  0  0  0
M  END
>  <MODEL>
5

>  <REMARK>
 VINA RESULT:      -8.6      1.595      2.875
  Name = 
  6 active torsions:
  status: ('A' for Active; 'I' for Inactive)
    1  A    between atoms: C_2  and  C_21
    2  A    between atoms: C_11  and  C_20
    3  A    between atoms: C_14  and  O_29
    4  A    between atoms: C_16  and  C_31
    5  A    between atoms: C_18  and  C_20
    6  A    between atoms: C_21  and  C_23
                            x       y       z     vdW  Elec       q    Type
                         _______ _______ _______ _____ _____    ______ ____

>  <TORSDO>
F 6

$$$$
=
 OpenBabel11072412413D

 31 36  0  0  1  0  0  0  0  0999 V2000
  160.6450  207.3520  155.4350 S   0  0  0  0  0  0  0  0  0  0  0  0
  161.2230  208.0510  150.4770 C   0  0  0  0  0  3  0  0  0  0  0  0
  161.2480  206.7540  152.9350 C   0  0  0  0  0  0  0  0  0  0  0  0
  160.8980  208.0850  152.8680 C   0  0  0  0  0  0  0  0  0  0  0  0
  161.5940  206.6980  150.5510 C   0  0  0  0  0  0  0  0  0  0  0  0
  160.5480  208.6980  154.1850 C   0  0  2  0  0  3  0  0  0  0  0  0
  161.2040  206.1880  154.2260 N   0  0  0  0  0  2  0  0  0  0  0  0
  161.6000  206.0400  151.7900 C   0  0  0  0  0  3  0  0  0  0  0  0
  160.8720  208.7520  151.6390 C   0  0  0  0  0  3  0  0  0  0  0  0
  161.9420  205.9520  149.3080 C   0  0  0  0  0  2  0  0  0  0  0  0
  161.3000  203.7450  148.2330 C   0  0  0  0  0  0  0  0  0  0  0  0
  161.1700  204.0080  150.6090 N   0  0  0  0  0  0  0  0  0  0  0  0
  160.8560  202.4100  148.3770 C   0  0  0  0  0  0  0  0  0  0  0  0
  160.5770  201.9040  149.6460 C   0  0  0  0  0  3  0  0  0  0  0  0
  161.4480  204.5390  149.3860 C   0  0  0  0  0  0  0  0  0  0  0  0
  160.9810  202.1050  145.9770 C   0  0  0  0  0  3  0  0  0  0  0  0
  161.5780  204.2430  146.9500 C   0  0  0  0  0  3  0  0  0  0  0  0
  161.4200  203.4240  145.8280 C   0  0  0  0  0  3  0  0  0  0  0  0
  160.7000  201.5990  147.2500 C   0  0  0  0  0  3  0  0  0  0  0  0
  160.7420  202.7260  150.7600 C   0  0  0  0  0  3  0  0  0  0  0  0
  161.5520  209.7830  154.5550 C   0  0  0  0  0  2  0  0  0  0  0  0
  160.9130  210.9580  155.2370 C   0  0  0  0  0  0  0  0  0  0  0  0
  160.0560  212.4170  156.8240 N   0  0  0  0  0  0  0  0  0  0  0  0
  159.7710  212.8300  155.6340 C   0  0  0  0  0  0  0  0  0  0  0  0
  160.3080  211.9550  154.6090 C   0  0  0  0  0  0  0  0  0  0  0  0
  160.8290  211.1850  156.7180 C   0  0  0  0  0  2  0  0  0  0  0  0
  158.9070  212.9850  152.8490 C   0  0  0  0  0  2  0  0  0  0  0  0
  158.7400  211.4870  152.7470 C   0  0  0  0  0  2  0  0  0  0  0  0
  160.0880  212.0730  153.1300 C   0  0  0  0  0  3  0  0  0  0  0  0
  157.9970  214.4210  156.2500 C   0  0  0  0  0  1  0  0  0  0  0  0
  159.0260  213.9820  155.3750 O   0  0  0  0  0  0  0  0  0  0  0  0
  2  5  2  0  0  0  0
  2  9  1  0  0  0  0
  3  7  1  0  0  0  0
  4  3  1  0  0  0  0
  4  6  1  0  0  0  0
  5  8  1  0  0  0  0
  6 21  1  1  0  0  0
  6  1  1  0  0  0  0
  7  1  1  0  0  0  0
  8  3  2  0  0  0  0
  9  4  2  0  0  0  0
 10 15  1  0  0  0  0
 10  5  1  0  0  0  0
 11 13  1  0  0  0  0
 11 15  1  0  0  0  0
 12 20  1  0  0  0  0
 13 14  1  0  0  0  0
 14 20  2  0  0  0  0
 15 12  2  0  0  0  0
 16 19  1  0  0  0  0
 17 11  2  0  0  0  0
 18 16  2  0  0  0  0
 18 17  1  0  0  0  0
 19 13  2  0  0  0  0
 21 22  1  0  0  0  0
 22 26  1  0  0  0  0
 24 23  2  0  0  0  0
 25 22  2  0  0  0  0
 25 24  1  0  0  0  0
 26 23  1  0  0  0  0
 27 29  1  0  0  0  0
 28 27  1  0  0  0  0
 28 29  1  0  0  0  0
 29 25  1  0  0  0  0
 31 24  1  0  0  0  0
 31 30  1  0  0  0  0
M  END
>  <MODEL>
6

>  <REMARK>
 VINA RESULT:      -8.1      3.196      9.763
  Name = 
  6 active torsions:
  status: ('A' for Active; 'I' for Inactive)
    1  A    between atoms: C_2  and  C_21
    2  A    between atoms: C_11  and  C_20
    3  A    between atoms: C_14  and  O_29
    4  A    between atoms: C_16  and  C_31
    5  A    between atoms: C_18  and  C_20
    6  A    between atoms: C_21  and  C_23
                            x       y       z     vdW  Elec       q    Type
                         _______ _______ _______ _____ _____    ______ ____

>  <TORSDO>
F 6

$$$$
=
 OpenBabel11072412413D

 31 36  0  0  1  0  0  0  0  0999 V2000
  161.4560  207.3380  147.8900 S   0  0  0  0  0  0  0  0  0  0  0  0
  161.1660  208.0390  152.8730 C   0  0  0  0  0  3  0  0  0  0  0  0
  161.7280  208.5780  150.2050 C   0  0  0  0  0  0  0  0  0  0  0  0
  161.2170  207.3490  150.5610 C   0  0  0  0  0  0  0  0  0  0  0  0
  161.7010  209.2860  152.5080 C   0  0  0  0  0  0  0  0  0  0  0  0
  161.0080  206.4130  149.4160 C   0  0  2  0  0  3  0  0  0  0  0  0
  161.9520  208.7560  148.8240 N   0  0  0  0  0  2  0  0  0  0  0  0
  161.9780  209.5630  151.1610 C   0  0  0  0  0  3  0  0  0  0  0  0
  160.9210  207.0630  151.8980 C   0  0  0  0  0  3  0  0  0  0  0  0
  161.9360  210.3290  153.5470 C   0  0  0  0  0  2  0  0  0  0  0  0
  159.7090  211.5280  153.7560 C   0  0  0  0  0  0  0  0  0  0  0  0
  160.4240  210.0130  155.4660 N   0  0  0  0  0  0  0  0  0  0  0  0
  158.5190  211.7560  154.4830 C   0  0  0  0  0  0  0  0  0  0  0  0
  158.3090  211.1010  155.6960 C   0  0  0  0  0  3  0  0  0  0  0  0
  160.6660  210.6380  154.2800 C   0  0  0  0  0  0  0  0  0  0  0  0
  157.7610  213.2920  152.7700 C   0  0  0  0  0  3  0  0  0  0  0  0
  159.9080  212.1950  152.5360 C   0  0  0  0  0  3  0  0  0  0  0  0
  158.9360  213.0710  152.0460 C   0  0  0  0  0  3  0  0  0  0  0  0
  157.5530  212.6350  153.9870 C   0  0  0  0  0  3  0  0  0  0  0  0
  159.2830  210.2250  156.1750 C   0  0  0  0  0  3  0  0  0  0  0  0
  161.9230  205.2010  149.5400 C   0  0  0  0  0  2  0  0  0  0  0  0
  161.2560  203.9240  149.1150 C   0  0  0  0  0  0  0  0  0  0  0  0
  160.1130  201.9050  149.1000 N   0  0  0  0  0  0  0  0  0  0  0  0
  160.6040  202.1520  147.9310 C   0  0  0  0  0  0  0  0  0  0  0  0
  161.3110  203.4180  147.8920 C   0  0  0  0  0  0  0  0  0  0  0  0
  160.4550  203.0080  149.9920 C   0  0  0  0  0  2  0  0  0  0  0  0
  161.2330  204.9710  145.9670 C   0  0  0  0  0  2  0  0  0  0  0  0
  161.4280  203.5760  145.4210 C   0  0  0  0  0  2  0  0  0  0  0  0
  162.0840  203.9730  146.7320 C   0  0  0  0  0  3  0  0  0  0  0  0
  161.2100  200.0820  146.7460 C   0  0  0  0  0  1  0  0  0  0  0  0
  160.4700  201.2900  146.8410 O   0  0  0  0  0  0  0  0  0  0  0  0
  1  7  1  0  0  0  0
  1  6  1  0  0  0  0
  3  4  2  0  0  0  0
  3  8  1  0  0  0  0
  4  9  1  0  0  0  0
  5  2  1  0  0  0  0
  5 10  1  0  0  0  0
  6 21  1  1  0  0  0
  6  4  1  0  0  0  0
  7  3  1  0  0  0  0
  8  5  2  0  0  0  0
  9  2  2  0  0  0  0
 10 15  1  0  0  0  0
 11 15  1  0  0  0  0
 11 13  1  0  0  0  0
 12 20  1  0  0  0  0
 13 14  1  0  0  0  0
 14 20  2  0  0  0  0
 15 12  2  0  0  0  0
 16 19  1  0  0  0  0
 17 11  2  0  0  0  0
 18 17  1  0  0  0  0
 18 16  2  0  0  0  0
 19 13  2  0  0  0  0
 22 21  1  0  0  0  0
 22 26  1  0  0  0  0
 23 26  1  0  0  0  0
 24 23  2  0  0  0  0
 25 24  1  0  0  0  0
 25 22  2  0  0  0  0
 27 29  1  0  0  0  0
 28 27  1  0  0  0  0
 28 29  1  0  0  0  0
 29 25  1  0  0  0  0
 30 31  1  0  0  0  0
 31 24  1  0  0  0  0
M  END
>  <MODEL>
7

>  <REMARK>
 VINA RESULT:      -8.0      2.008      2.902
  Name = 
  6 active torsions:
  status: ('A' for Active; 'I' for Inactive)
    1  A    between atoms: C_2  and  C_21
    2  A    between atoms: C_11  and  C_20
    3  A    between atoms: C_14  and  O_29
    4  A    between atoms: C_16  and  C_31
    5  A    between atoms: C_18  and  C_20
    6  A    between atoms: C_21  and  C_23
                            x       y       z     vdW  Elec       q    Type
                         _______ _______ _______ _____ _____    ______ ____

>  <TORSDO>
F 6

$$$$
=
 OpenBabel11072412413D

 31 36  0  0  1  0  0  0  0  0999 V2000
  161.2330  204.2270  152.5690 S   0  0  0  0  0  0  0  0  0  0  0  0
  161.9240  208.7830  150.5270 C   0  0  0  0  0  3  0  0  0  0  0  0
  161.3290  206.8630  152.4460 C   0  0  0  0  0  0  0  0  0  0  0  0
  161.6160  206.4730  151.1560 C   0  0  0  0  0  0  0  0  0  0  0  0
  161.6160  209.1770  151.8400 C   0  0  0  0  0  0  0  0  0  0  0  0
  161.5810  204.9970  150.9350 C   0  0  2  0  0  3  0  0  0  0  0  0
  161.0670  205.8080  153.3450 N   0  0  0  0  0  2  0  0  0  0  0  0
  161.3220  208.2080  152.8120 C   0  0  0  0  0  3  0  0  0  0  0  0
  161.9260  207.4260  150.1790 C   0  0  0  0  0  3  0  0  0  0  0  0
  161.6400  210.6210  152.2100 C   0  0  0  0  0  2  0  0  0  0  0  0
  160.5330  211.0300  154.4560 C   0  0  0  0  0  0  0  0  0  0  0  0
  159.2740  211.2660  152.4340 N   0  0  0  0  0  0  0  0  0  0  0  0
  159.3810  211.3920  155.1920 C   0  0  0  0  0  0  0  0  0  0  0  0
  158.1930  211.6840  154.5230 C   0  0  0  0  0  3  0  0  0  0  0  0
  160.4510  210.9690  153.0520 C   0  0  0  0  0  0  0  0  0  0  0  0
  160.6240  211.1680  157.2580 C   0  0  0  0  0  3  0  0  0  0  0  0
  161.7220  210.7380  155.1410 C   0  0  0  0  0  3  0  0  0  0  0  0
  161.7670  210.8090  156.5370 C   0  0  0  0  0  3  0  0  0  0  0  0
  159.4330  211.4600  156.5860 C   0  0  0  0  0  3  0  0  0  0  0  0
  158.1590  211.6150  153.1300 C   0  0  0  0  0  3  0  0  0  0  0  0
  160.4620  204.6260  149.9700 C   0  0  0  0  0  2  0  0  0  0  0  0
  160.5730  203.2150  149.4650 C   0  0  0  0  0  0  0  0  0  0  0  0
  160.4810  200.9060  149.2680 N   0  0  0  0  0  0  0  0  0  0  0  0
  161.1330  201.4160  148.2760 C   0  0  0  0  0  0  0  0  0  0  0  0
  161.1970  202.8630  148.3500 C   0  0  0  0  0  0  0  0  0  0  0  0
  160.0330  201.9880  150.1370 C   0  0  0  0  0  2  0  0  0  0  0  0
  161.1520  205.0350  147.1680 C   0  0  0  0  0  2  0  0  0  0  0  0
  161.1960  203.9460  146.1210 C   0  0  0  0  0  2  0  0  0  0  0  0
  161.9530  203.7720  147.4270 C   0  0  0  0  0  3  0  0  0  0  0  0
  161.0380  200.4000  146.0360 C   0  0  0  0  0  1  0  0  0  0  0  0
  161.7120  200.6520  147.2600 O   0  0  0  0  0  0  0  0  0  0  0  0
  1  7  1  0  0  0  0
  2  5  1  0  0  0  0
  3  8  1  0  0  0  0
  3  7  1  0  0  0  0
  4  3  2  0  0  0  0
  5 10  1  0  0  0  0
  5  8  2  0  0  0  0
  6 21  1  6  0  0  0
  6  4  1  0  0  0  0
  6  1  1  0  0  0  0
  9  2  2  0  0  0  0
  9  4  1  0  0  0  0
 10 15  1  0  0  0  0
 11 17  2  0  0  0  0
 11 13  1  0  0  0  0
 12 15  2  0  0  0  0
 12 20  1  0  0  0  0
 13 19  2  0  0  0  0
 14 13  1  0  0  0  0
 15 11  1  0  0  0  0
 17 18  1  0  0  0  0
 18 16  2  0  0  0  0
 19 16  1  0  0  0  0
 20 14  2  0  0  0  0
 22 21  1  0  0  0  0
 22 26  1  0  0  0  0
 23 26  1  0  0  0  0
 24 25  1  0  0  0  0
 24 23  2  0  0  0  0
 25 22  2  0  0  0  0
 27 29  1  0  0  0  0
 28 27  1  0  0  0  0
 28 29  1  0  0  0  0
 29 25  1  0  0  0  0
 30 31  1  0  0  0  0
 31 24  1  0  0  0  0
M  END
>  <MODEL>
8

>  <REMARK>
 VINA RESULT:      -7.9      1.376      2.597
  Name = 
  6 active torsions:
  status: ('A' for Active; 'I' for Inactive)
    1  A    between atoms: C_2  and  C_21
    2  A    between atoms: C_11  and  C_20
    3  A    between atoms: C_14  and  O_29
    4  A    between atoms: C_16  and  C_31
    5  A    between atoms: C_18  and  C_20
    6  A    between atoms: C_21  and  C_23
                            x       y       z     vdW  Elec       q    Type
                         _______ _______ _______ _____ _____    ______ ____

>  <TORSDO>
F 6

$$$$
=
 OpenBabel11072412413D

 31 36  0  0  1  0  0  0  0  0999 V2000
  161.7790  210.0320  152.3480 S   0  0  0  0  0  0  0  0  0  0  0  0
  161.2060  205.0380  152.7210 C   0  0  0  0  0  3  0  0  0  0  0  0
  161.4410  207.5420  151.5380 C   0  0  0  0  0  0  0  0  0  0  0  0
  161.4280  207.4340  152.9110 C   0  0  0  0  0  0  0  0  0  0  0  0
  161.2050  205.1540  151.3210 C   0  0  0  0  0  0  0  0  0  0  0  0
  161.5570  208.7350  153.6330 C   0  0  2  0  0  3  0  0  0  0  0  0
  161.5910  208.8540  151.0420 N   0  0  0  0  0  2  0  0  0  0  0  0
  161.3310  206.4160  150.7220 C   0  0  0  0  0  3  0  0  0  0  0  0
  161.3180  206.1820  153.5240 C   0  0  0  0  0  3  0  0  0  0  0  0
  161.1100  203.9310  150.4730 C   0  0  0  0  0  2  0  0  0  0  0  0
  161.1300  203.3160  148.0110 C   0  0  0  0  0  0  0  0  0  0  0  0
  161.5760  205.5670  148.6920 N   0  0  0  0  0  0  0  0  0  0  0  0
  161.2840  203.7140  146.6640 C   0  0  0  0  0  0  0  0  0  0  0  0
  161.5850  205.0420  146.3610 C   0  0  0  0  0  3  0  0  0  0  0  0
  161.2880  204.2780  149.0260 C   0  0  0  0  0  0  0  0  0  0  0  0
  160.8320  201.4480  145.9370 C   0  0  0  0  0  3  0  0  0  0  0  0
  160.8280  201.9760  148.3020 C   0  0  0  0  0  3  0  0  0  0  0  0
  160.6780  201.0480  147.2680 C   0  0  0  0  0  3  0  0  0  0  0  0
  161.1340  202.7800  145.6360 C   0  0  0  0  0  3  0  0  0  0  0  0
  161.7280  205.9620  147.3990 C   0  0  0  0  0  3  0  0  0  0  0  0
  160.2890  209.0390  154.4220 C   0  0  0  0  0  2  0  0  0  0  0  0
  160.4670  210.1680  155.3960 C   0  0  0  0  0  0  0  0  0  0  0  0
  161.2500  211.5470  157.0900 N   0  0  0  0  0  0  0  0  0  0  0  0
  160.1180  211.9800  156.6450 C   0  0  0  0  0  0  0  0  0  0  0  0
  159.6020  211.1570  155.5680 C   0  0  0  0  0  0  0  0  0  0  0  0
  161.6180  210.3500  156.3410 C   0  0  0  0  0  2  0  0  0  0  0  0
  158.4700  211.4530  153.3880 C   0  0  0  0  0  2  0  0  0  0  0  0
  158.1690  212.6720  154.2290 C   0  0  0  0  0  2  0  0  0  0  0  0
  158.2740  211.3070  154.8870 C   0  0  0  0  0  3  0  0  0  0  0  0
  159.9380  214.4230  156.8910 C   0  0  0  0  0  1  0  0  0  0  0  0
  159.4700  213.1080  157.1530 O   0  0  0  0  0  0  0  0  0  0  0  0
  1  6  1  0  0  0  0
  2  9  1  0  0  0  0
  3  4  1  0  0  0  0
  4  9  2  0  0  0  0
  4  6  1  0  0  0  0
  5  2  2  0  0  0  0
  6 21  1  6  0  0  0
  7  3  1  0  0  0  0
  7  1  1  0  0  0  0
  8  5  1  0  0  0  0
  8  3  2  0  0  0  0
 10  5  1  0  0  0  0
 11 17  1  0  0  0  0
 11 15  2  0  0  0  0
 12 15  1  0  0  0  0
 13 11  1  0  0  0  0
 14 13  2  0  0  0  0
 14 20  1  0  0  0  0
 15 10  1  0  0  0  0
 16 18  1  0  0  0  0
 18 17  2  0  0  0  0
 19 16  2  0  0  0  0
 19 13  1  0  0  0  0
 20 12  2  0  0  0  0
 21 22  1  0  0  0  0
 22 25  2  0  0  0  0
 22 26  1  0  0  0  0
 24 23  2  0  0  0  0
 24 31  1  0  0  0  0
 25 24  1  0  0  0  0
 26 23  1  0  0  0  0
 27 28  1  0  0  0  0
 27 29  1  0  0  0  0
 28 29  1  0  0  0  0
 29 25  1  0  0  0  0
 30 31  1  0  0  0  0
M  END
>  <MODEL>
9

>  <REMARK>
 VINA RESULT:      -7.7      3.323     10.072
  Name = 
  6 active torsions:
  status: ('A' for Active; 'I' for Inactive)
    1  A    between atoms: C_2  and  C_21
    2  A    between atoms: C_11  and  C_20
    3  A    between atoms: C_14  and  O_29
    4  A    between atoms: C_16  and  C_31
    5  A    between atoms: C_18  and  C_20
    6  A    between atoms: C_21  and  C_23
                            x       y       z     vdW  Elec       q    Type
                         _______ _______ _______ _____ _____    ______ ____

>  <TORSDO>
F 6

$$$$
