=
 OpenBabel11072412533D

 41 44  0  0  1  0  0  0  0  0999 V2000
  161.3630  207.2270  148.6840 C   0  0  1  0  0  3  0  0  0  0  0  0
  161.9230  205.8710  144.8740 N   0  0  0  0  0  2  0  0  0  0  0  0
  160.5120  205.9050  145.2580 C   0  0  0  0  0  2  0  0  0  0  0  0
  162.6670  205.0710  145.8470 C   0  0  0  0  0  2  0  0  0  0  0  0
  161.6050  206.7840  147.3030 N   0  0  0  0  0  0  0  0  0  0  0  0
  162.5300  205.6440  147.2650 C   0  0  0  0  0  2  0  0  0  0  0  0
  160.3250  206.4100  146.6960 C   0  0  0  0  0  2  0  0  0  0  0  0
  161.1410  206.0790  149.6950 C   0  0  0  0  0  2  0  0  0  0  0  0
  161.0930  207.3950  153.6750 C   0  0  0  0  0  0  0  0  0  0  0  0
  160.9590  207.8280  151.3490 N   0  0  0  0  0  0  0  0  0  0  0  0
  161.1270  206.5310  151.0860 N   0  0  0  0  0  0  0  0  0  0  0  0
  161.2710  206.0820  153.3900 N   0  0  0  0  0  2  0  0  0  0  0  0
  160.7090  209.7140  152.8150 N   0  0  0  0  0  2  0  0  0  0  0  0
  161.4480  204.4140  151.8750 O   0  0  0  0  0  0  0  0  0  0  0  0
  160.9320  208.3090  152.6170 C   0  0  0  0  0  0  0  0  0  0  0  0
  161.0630  207.7650  154.8780 O   0  0  0  0  0  0  0  0  0  0  0  0
  161.2880  205.6410  152.1080 C   0  0  0  0  0  0  0  0  0  0  0  0
  162.0910  210.5960  154.6110 C   0  0  0  0  0  1  0  0  0  0  0  0
  160.6750  210.3970  154.1020 C   0  0  1  0  0  3  0  0  0  0  0  0
  158.1500  211.5430  154.0130 S   0  0  0  0  0  0  0  0  0  0  0  0
  159.2950  213.6220  155.3350 O   0  0  0  0  0  1  0  0  0  0  0  0
  159.9970  211.7530  153.9490 C   0  0  1  0  0  3  0  0  0  0  0  0
  159.3690  212.2370  155.1850 C   0  0  2  0  0  0  0  0  0  0  0  0
  159.5320  211.4690  156.4090 N   0  0  0  0  0  1  0  0  0  0  0  0
  162.3710  208.2810  149.1290 C   0  0  0  0  0  2  0  0  0  0  0  0
  161.9620  209.6520  148.6180 C   0  0  0  0  0  2  0  0  0  0  0  0
  162.0160  210.6220  149.7020 N   0  0  0  0  0  2  0  0  0  0  0  0
  161.8320  211.9470  149.1230 C   0  0  2  0  0  3  0  0  0  0  0  0
  160.8820  212.7150  149.9160 N   0  0  0  0  0  2  0  0  0  0  0  0
  160.0540  213.3490  149.0530 O   0  0  0  0  0  0  0  0  0  0  0  0
  159.4200  214.0900  151.1620 N   0  0  0  0  0  1  0  0  0  0  0  0
  158.9620  213.7320  149.8310 C   0  0  0  0  0  2  0  0  0  0  0  0
  161.2630  211.8270  147.3870 S   0  0  0  0  0  0  0  0  0  0  0  0
  162.5320  212.9330  146.6740 C   0  0  0  0  0  2  0  0  0  0  0  0
  161.0920  212.9960  142.8180 C   0  0  1  0  0  3  0  0  0  0  0  0
  160.5670  213.3180  145.1480 C   0  0  0  0  0  2  0  0  0  0  0  0
  162.9420  213.7760  144.3580 C   0  0  0  0  0  2  0  0  0  0  0  0
  160.4280  211.6800  142.4640 C   0  0  0  0  0  1  0  0  0  0  0  0
  160.2660  213.7390  143.7800 N   0  0  0  0  0  2  0  0  0  0  0  0
  162.5280  212.7440  143.3110 C   0  0  0  0  0  2  0  0  0  0  0  0
  161.9720  213.7860  145.5470 C   0  0  2  0  0  3  0  0  0  0  0  0
  1 25  1  1  0  0  0
  1  8  1  0  0  0  0
  2  3  1  0  0  0  0
  2  4  1  0  0  0  0
  3  7  1  0  0  0  0
  4  6  1  0  0  0  0
  5  1  1  0  0  0  0
  6  5  1  0  0  0  0
  7  5  1  0  0  0  0
  8 11  1  0  0  0  0
  9 16  2  0  0  0  0
 10 15  2  0  0  0  0
 11 10  1  0  0  0  0
 11 17  1  0  0  0  0
 12  9  1  0  0  0  0
 13 19  1  0  0  0  0
 14 17  2  0  0  0  0
 15 13  1  0  0  0  0
 15  9  1  0  0  0  0
 17 12  1  0  0  0  0
 19 18  1  6  0  0  0
 20 23  1  0  0  0  0
 22 20  1  0  0  0  0
 22 19  1  1  0  0  0
 22 23  1  0  0  0  0
 23 21  1  1  0  0  0
 23 24  1  0  0  0  0
 26 25  1  0  0  0  0
 26 27  1  0  0  0  0
 28 33  1  6  0  0  0
 28 27  1  0  0  0  0
 28 29  1  0  0  0  0
 30 32  1  0  0  0  0
 30 29  1  0  0  0  0
 32 31  1  0  0  0  0
 34 33  1  0  0  0  0
 35 38  1  1  0  0  0
 35 40  1  0  0  0  0
 35 39  1  0  0  0  0
 36 41  1  0  0  0  0
 37 41  1  0  0  0  0
 39 36  1  0  0  0  0
 40 37  1  0  0  0  0
 41 34  1  1  0  0  0
M  END
>  <MODEL>
1

>  <REMARK>
 VINA RESULT:      -6.6      0.000      0.000
  Name = 
  15 active torsions:
  status: ('A' for Active; 'I' for Inactive)
    1  A    between atoms: N_3  and  C_16
    2  A    between atoms: N_3  and  O_23
    3  A    between atoms: S_11  and  C_16
    4  A    between atoms: S_11  and  C_34
    5  A    between atoms: C_15  and  O_23
    6  A    between atoms: C_16  and  N_31
    7  A    between atoms: N_17  and  C_21
    8  A    between atoms: C_19  and  C_27
    9  A    between atoms: C_20  and  C_21
   10  A    between atoms: C_20  and  N_35
   11  A    between atoms: C_20  and  C_37
   12  A    between atoms: C_27  and  N_30
   13  A    between atoms: C_28  and  C_34
   14  A    between atoms: N_31  and  C_40
   15  A    between atoms: C_37  and  C_40
                            x       y       z     vdW  Elec       q    Type
                         _______ _______ _______ _____ _____    ______ ____

>  <TORSDO>
F 15

$$$$
=
 OpenBabel11072412533D

 41 44  0  0  1  0  0  0  0  0999 V2000
  160.1340  210.3490  153.6550 C   0  0  1  0  0  3  0  0  0  0  0  0
  161.9420  208.6520  156.8990 N   0  0  0  0  0  2  0  0  0  0  0  0
  160.4970  208.4190  156.8730 C   0  0  0  0  0  2  0  0  0  0  0  0
  162.1980  210.0900  156.8290 C   0  0  0  0  0  2  0  0  0  0  0  0
  160.8300  209.7180  154.7860 N   0  0  0  0  0  0  0  0  0  0  0  0
  161.5980  210.7050  155.5560 C   0  0  0  0  0  2  0  0  0  0  0  0
  159.8370  209.0730  155.6500 C   0  0  0  0  0  2  0  0  0  0  0  0
  160.5170  211.8270  153.4120 C   0  0  0  0  0  2  0  0  0  0  0  0
  158.4610  213.5520  150.1920 C   0  0  0  0  0  0  0  0  0  0  0  0
  160.3880  212.5170  151.1020 N   0  0  0  0  0  0  0  0  0  0  0  0
  159.7940  212.4320  152.2930 N   0  0  0  0  0  0  0  0  0  0  0  0
  157.8740  213.4650  151.4100 N   0  0  0  0  0  2  0  0  0  0  0  0
  160.4660  213.0830  148.7690 N   0  0  0  0  0  2  0  0  0  0  0  0
  157.9530  212.8350  153.5800 O   0  0  0  0  0  0  0  0  0  0  0  0
  159.7690  213.0630  150.0250 C   0  0  0  0  0  0  0  0  0  0  0  0
  157.8160  214.0570  149.2350 O   0  0  0  0  0  0  0  0  0  0  0  0
  158.5270  212.9090  152.4610 C   0  0  0  0  0  0  0  0  0  0  0  0
  161.0560  214.4530  146.8480 C   0  0  0  0  0  1  0  0  0  0  0  0
  159.9590  213.6500  147.5250 C   0  0  1  0  0  3  0  0  0  0  0  0
  157.6530  212.5700  146.4250 S   0  0  0  0  0  0  0  0  0  0  0  0
  159.1800  212.1340  144.2210 O   0  0  0  0  0  1  0  0  0  0  0  0
  159.5050  212.5310  146.5960 C   0  0  1  0  0  3  0  0  0  0  0  0
  159.0220  213.0090  145.2950 C   0  0  2  0  0  0  0  0  0  0  0  0
  159.1130  214.4270  144.9840 N   0  0  0  0  0  1  0  0  0  0  0  0
  160.1620  209.4710  152.4090 C   0  0  0  0  0  2  0  0  0  0  0  0
  161.5070  209.5850  151.7110 C   0  0  0  0  0  2  0  0  0  0  0  0
  162.1540  208.2830  151.6630 N   0  0  0  0  0  2  0  0  0  0  0  0
  161.4450  207.4690  150.6820 C   0  0  2  0  0  3  0  0  0  0  0  0
  161.8220  206.0690  150.8250 N   0  0  0  0  0  2  0  0  0  0  0  0
  161.3850  205.6550  152.0370 O   0  0  0  0  0  0  0  0  0  0  0  0
  161.1580  203.9880  150.4350 N   0  0  0  0  0  1  0  0  0  0  0  0
  160.9550  204.3450  151.8280 C   0  0  0  0  0  2  0  0  0  0  0  0
  161.7880  208.0520  148.9820 S   0  0  0  0  0  0  0  0  0  0  0  0
  160.9430  206.6820  148.1170 C   0  0  0  0  0  2  0  0  0  0  0  0
  161.2800  203.9170  145.0850 C   0  0  1  0  0  3  0  0  0  0  0  0
  160.6710  206.1750  145.6660 C   0  0  0  0  0  2  0  0  0  0  0  0
  162.4500  204.9970  147.0510 C   0  0  0  0  0  2  0  0  0  0  0  0
  159.9550  203.2260  144.8300 C   0  0  0  0  0  1  0  0  0  0  0  0
  161.2230  205.3110  144.6240 N   0  0  0  0  0  2  0  0  0  0  0  0
  161.6670  203.7790  146.5690 C   0  0  0  0  0  2  0  0  0  0  0  0
  161.6590  206.2940  146.8320 C   0  0  2  0  0  3  0  0  0  0  0  0
  1 25  1  6  0  0  0
  1  5  1  0  0  0  0
  3  2  1  0  0  0  0
  4  2  1  0  0  0  0
  5  6  1  0  0  0  0
  5  7  1  0  0  0  0
  6  4  1  0  0  0  0
  7  3  1  0  0  0  0
  8  1  1  0  0  0  0
  9 12  1  0  0  0  0
 10 11  1  0  0  0  0
 11 17  1  0  0  0  0
 11  8  1  0  0  0  0
 12 17  1  0  0  0  0
 13 15  1  0  0  0  0
 15  9  1  0  0  0  0
 15 10  2  0  0  0  0
 16  9  2  0  0  0  0
 17 14  2  0  0  0  0
 19 18  1  6  0  0  0
 19 13  1  0  0  0  0
 20 22  1  0  0  0  0
 22 19  1  1  0  0  0
 23 21  1  6  0  0  0
 23 20  1  0  0  0  0
 23 22  1  0  0  0  0
 24 23  1  0  0  0  0
 26 25  1  0  0  0  0
 27 26  1  0  0  0  0
 28 33  1  6  0  0  0
 28 29  1  0  0  0  0
 28 27  1  0  0  0  0
 29 30  1  0  0  0  0
 31 32  1  0  0  0  0
 32 30  1  0  0  0  0
 34 33  1  0  0  0  0
 35 38  1  1  0  0  0
 35 40  1  0  0  0  0
 36 41  1  0  0  0  0
 39 35  1  0  0  0  0
 39 36  1  0  0  0  0
 40 37  1  0  0  0  0
 41 37  1  0  0  0  0
 41 34  1  1  0  0  0
M  END
>  <MODEL>
2

>  <REMARK>
 VINA RESULT:      -6.5      2.423      8.284
  Name = 
  15 active torsions:
  status: ('A' for Active; 'I' for Inactive)
    1  A    between atoms: N_3  and  C_16
    2  A    between atoms: N_3  and  O_23
    3  A    between atoms: S_11  and  C_16
    4  A    between atoms: S_11  and  C_34
    5  A    between atoms: C_15  and  O_23
    6  A    between atoms: C_16  and  N_31
    7  A    between atoms: N_17  and  C_21
    8  A    between atoms: C_19  and  C_27
    9  A    between atoms: C_20  and  C_21
   10  A    between atoms: C_20  and  N_35
   11  A    between atoms: C_20  and  C_37
   12  A    between atoms: C_27  and  N_30
   13  A    between atoms: C_28  and  C_34
   14  A    between atoms: N_31  and  C_40
   15  A    between atoms: C_37  and  C_40
                            x       y       z     vdW  Elec       q    Type
                         _______ _______ _______ _____ _____    ______ ____

>  <TORSDO>
F 15

$$$$
=
 OpenBabel11072412533D

 41 44  0  0  1  0  0  0  0  0999 V2000
  160.9350  212.5180  148.9780 C   0  0  1  0  0  3  0  0  0  0  0  0
  160.5590  213.9930  145.1890 N   0  0  0  0  0  2  0  0  0  0  0  0
  159.5340  213.0000  145.5120 C   0  0  0  0  0  2  0  0  0  0  0  0
  161.8820  213.4090  145.4130 C   0  0  0  0  0  2  0  0  0  0  0  0
  160.8100  213.1060  147.6360 N   0  0  0  0  0  0  0  0  0  0  0  0
  162.0500  212.9430  146.8670 C   0  0  0  0  0  2  0  0  0  0  0  0
  159.6990  212.4530  146.9370 C   0  0  0  0  0  2  0  0  0  0  0  0
  162.2980  211.8450  149.2580 C   0  0  0  0  0  2  0  0  0  0  0  0
  161.9670  207.7670  150.1720 C   0  0  0  0  0  0  0  0  0  0  0  0
  161.9550  209.5460  148.6060 N   0  0  0  0  0  0  0  0  0  0  0  0
  162.1810  210.4240  149.5850 N   0  0  0  0  0  0  0  0  0  0  0  0
  162.1880  208.6730  151.1550 N   0  0  0  0  0  2  0  0  0  0  0  0
  161.6360  207.3320  147.7290 N   0  0  0  0  0  2  0  0  0  0  0  0
  162.5110  210.8120  151.8090 O   0  0  0  0  0  0  0  0  0  0  0  0
  161.8430  208.2150  148.8440 C   0  0  0  0  0  0  0  0  0  0  0  0
  161.8910  206.5450  150.4670 O   0  0  0  0  0  0  0  0  0  0  0  0
  162.2990  209.9950  150.8750 C   0  0  0  0  0  0  0  0  0  0  0  0
  160.1620  205.5610  148.5060 C   0  0  0  0  0  1  0  0  0  0  0  0
  161.4700  205.8870  147.8080 C   0  0  1  0  0  3  0  0  0  0  0  0
  163.1560  204.6680  145.9730 S   0  0  0  0  0  0  0  0  0  0  0  0
  160.9870  203.1710  145.3150 O   0  0  0  0  0  1  0  0  0  0  0  0
  161.4580  205.2910  146.4060 C   0  0  1  0  0  3  0  0  0  0  0  0
  161.5860  203.8290  146.3890 C   0  0  2  0  0  0  0  0  0  0  0  0
  161.6070  203.1050  147.6510 N   0  0  0  0  0  1  0  0  0  0  0  0
  160.4630  213.4780  150.0660 C   0  0  0  0  0  2  0  0  0  0  0  0
  159.3480  212.8450  150.8810 C   0  0  0  0  0  2  0  0  0  0  0  0
  159.8000  212.6160  152.2460 N   0  0  0  0  0  2  0  0  0  0  0  0
  158.6180  212.4820  153.0890 C   0  0  2  0  0  3  0  0  0  0  0  0
  158.2890  213.7630  153.7000 N   0  0  0  0  0  2  0  0  0  0  0  0
  157.0350  214.0870  153.3070 O   0  0  0  0  0  0  0  0  0  0  0  0
  155.5090  213.0330  154.7060 N   0  0  0  0  0  1  0  0  0  0  0  0
  156.3170  214.2220  154.4950 C   0  0  0  0  0  2  0  0  0  0  0  0
  158.8800  211.2090  154.3790 S   0  0  0  0  0  0  0  0  0  0  0  0
  160.5870  211.7000  154.8110 C   0  0  0  0  0  2  0  0  0  0  0  0
  161.1140  207.9330  156.3860 C   0  0  1  0  0  3  0  0  0  0  0  0
  160.8430  209.2330  154.3760 C   0  0  0  0  0  2  0  0  0  0  0  0
  161.9450  210.3220  156.3940 C   0  0  0  0  0  2  0  0  0  0  0  0
  159.7840  207.2230  156.5550 C   0  0  0  0  0  1  0  0  0  0  0  0
  161.4550  208.0410  154.9610 N   0  0  0  0  0  2  0  0  0  0  0  0
  161.0810  209.2900  157.1130 C   0  0  0  0  0  2  0  0  0  0  0  0
  161.5100  210.4970  154.9320 C   0  0  2  0  0  3  0  0  0  0  0  0
  1  8  1  1  0  0  0
  1 25  1  0  0  0  0
  2  4  1  0  0  0  0
  2  3  1  0  0  0  0
  3  7  1  0  0  0  0
  4  6  1  0  0  0  0
  5  1  1  0  0  0  0
  6  5  1  0  0  0  0
  7  5  1  0  0  0  0
  8 11  1  0  0  0  0
  9 16  2  0  0  0  0
  9 12  1  0  0  0  0
 10 15  2  0  0  0  0
 10 11  1  0  0  0  0
 11 17  1  0  0  0  0
 13 19  1  0  0  0  0
 13 15  1  0  0  0  0
 15  9  1  0  0  0  0
 17 12  1  0  0  0  0
 17 14  2  0  0  0  0
 19 18  1  6  0  0  0
 20 23  1  0  0  0  0
 20 22  1  0  0  0  0
 22 19  1  1  0  0  0
 23 21  1  6  0  0  0
 23 22  1  0  0  0  0
 23 24  1  0  0  0  0
 25 26  1  0  0  0  0
 26 27  1  0  0  0  0
 28 27  1  1  0  0  0
 28 29  1  0  0  0  0
 28 33  1  0  0  0  0
 30 29  1  0  0  0  0
 30 32  1  0  0  0  0
 32 31  1  0  0  0  0
 33 34  1  0  0  0  0
 35 38  1  6  0  0  0
 35 40  1  0  0  0  0
 36 41  1  0  0  0  0
 36 39  1  0  0  0  0
 37 40  1  0  0  0  0
 39 35  1  0  0  0  0
 41 34  1  1  0  0  0
 41 37  1  0  0  0  0
M  END
>  <MODEL>
3

>  <REMARK>
 VINA RESULT:      -6.0      2.624      8.459
  Name = 
  15 active torsions:
  status: ('A' for Active; 'I' for Inactive)
    1  A    between atoms: N_3  and  C_16
    2  A    between atoms: N_3  and  O_23
    3  A    between atoms: S_11  and  C_16
    4  A    between atoms: S_11  and  C_34
    5  A    between atoms: C_15  and  O_23
    6  A    between atoms: C_16  and  N_31
    7  A    between atoms: N_17  and  C_21
    8  A    between atoms: C_19  and  C_27
    9  A    between atoms: C_20  and  C_21
   10  A    between atoms: C_20  and  N_35
   11  A    between atoms: C_20  and  C_37
   12  A    between atoms: C_27  and  N_30
   13  A    between atoms: C_28  and  C_34
   14  A    between atoms: N_31  and  C_40
   15  A    between atoms: C_37  and  C_40
                            x       y       z     vdW  Elec       q    Type
                         _______ _______ _______ _____ _____    ______ ____

>  <TORSDO>
F 15

$$$$
=
 OpenBabel11072412533D

 41 44  0  0  1  0  0  0  0  0999 V2000
  159.5280  211.2420  152.5730 C   0  0  1  0  0  3  0  0  0  0  0  0
  158.2580  211.4940  156.4450 N   0  0  0  0  0  2  0  0  0  0  0  0
  157.1580  211.5830  155.4840 C   0  0  0  0  0  2  0  0  0  0  0  0
  159.2520  212.5220  156.1350 C   0  0  0  0  0  2  0  0  0  0  0  0
  159.1090  211.2860  153.9820 N   0  0  0  0  0  0  0  0  0  0  0  0
  159.7970  212.3620  154.7080 C   0  0  0  0  0  2  0  0  0  0  0  0
  157.6590  211.4950  154.0350 C   0  0  0  0  0  2  0  0  0  0  0  0
  160.4010  212.4370  152.1270 C   0  0  0  0  0  2  0  0  0  0  0  0
  159.2950  213.9830  148.3910 C   0  0  0  0  0  0  0  0  0  0  0  0
  160.7530  212.7050  149.7540 N   0  0  0  0  0  0  0  0  0  0  0  0
  160.0100  212.9820  150.8270 N   0  0  0  0  0  0  0  0  0  0  0  0
  158.5570  214.2610  149.4920 N   0  0  0  0  0  2  0  0  0  0  0  0
  161.2720  212.8010  147.4100 N   0  0  0  0  0  2  0  0  0  0  0  0
  158.1910  214.0380  151.7110 O   0  0  0  0  0  0  0  0  0  0  0  0
  160.4400  213.1760  148.5200 C   0  0  0  0  0  0  0  0  0  0  0  0
  158.9330  214.4420  147.2750 O   0  0  0  0  0  0  0  0  0  0  0  0
  158.9010  213.7670  150.7070 C   0  0  0  0  0  0  0  0  0  0  0  0
  162.4480  213.5440  145.4150 C   0  0  0  0  0  1  0  0  0  0  0  0
  161.0950  213.2340  146.0300 C   0  0  1  0  0  3  0  0  0  0  0  0
  158.6850  212.6550  144.7840 S   0  0  0  0  0  0  0  0  0  0  0  0
  160.2100  211.4020  142.9180 O   0  0  0  0  0  1  0  0  0  0  0  0
  160.4140  212.1330  145.2270 C   0  0  1  0  0  3  0  0  0  0  0  0
  160.2220  212.4730  143.8120 C   0  0  2  0  0  0  0  0  0  0  0  0
  160.7640  213.7230  143.3040 N   0  0  0  0  0  1  0  0  0  0  0  0
  160.0780  209.8730  152.1860 C   0  0  0  0  0  2  0  0  0  0  0  0
  161.5940  209.9160  152.1030 C   0  0  0  0  0  2  0  0  0  0  0  0
  162.1520  208.6470  152.5450 N   0  0  0  0  0  2  0  0  0  0  0  0
  161.1920  208.0300  153.4530 C   0  0  2  0  0  3  0  0  0  0  0  0
  161.3220  208.6020  154.7860 N   0  0  0  0  0  2  0  0  0  0  0  0
  160.1240  208.4670  155.4020 O   0  0  0  0  0  0  0  0  0  0  0  0
  160.0540  206.9130  157.1280 N   0  0  0  0  0  1  0  0  0  0  0  0
  160.4390  208.2600  156.7450 C   0  0  0  0  0  2  0  0  0  0  0  0
  161.4250  206.2150  153.5110 S   0  0  0  0  0  0  0  0  0  0  0  0
  162.0850  206.0360  151.8160 C   0  0  0  0  0  2  0  0  0  0  0  0
  161.1900  205.1390  147.8990 C   0  0  1  0  0  3  0  0  0  0  0  0
  161.3000  204.3100  150.1590 C   0  0  0  0  0  2  0  0  0  0  0  0
  160.8310  206.7830  149.7880 C   0  0  0  0  0  2  0  0  0  0  0  0
  162.3730  204.4910  147.2050 C   0  0  0  0  0  1  0  0  0  0  0  0
  160.6050  204.2110  148.8770 N   0  0  0  0  0  2  0  0  0  0  0  0
  161.6130  206.4860  148.5110 C   0  0  0  0  0  2  0  0  0  0  0  0
  160.9980  205.6600  150.8200 C   0  0  2  0  0  3  0  0  0  0  0  0
  1  8  1  1  0  0  0
  1  5  1  0  0  0  0
  3  2  1  0  0  0  0
  4  2  1  0  0  0  0
  5  7  1  0  0  0  0
  5  6  1  0  0  0  0
  6  4  1  0  0  0  0
  7  3  1  0  0  0  0
  9 15  1  0  0  0  0
  9 12  1  0  0  0  0
 10 11  1  0  0  0  0
 11  8  1  0  0  0  0
 12 17  1  0  0  0  0
 13 15  1  0  0  0  0
 15 10  2  0  0  0  0
 16  9  2  0  0  0  0
 17 11  1  0  0  0  0
 17 14  2  0  0  0  0
 19 18  1  6  0  0  0
 19 13  1  0  0  0  0
 20 22  1  0  0  0  0
 22 19  1  1  0  0  0
 23 21  1  6  0  0  0
 23 20  1  0  0  0  0
 23 22  1  0  0  0  0
 24 23  1  0  0  0  0
 25  1  1  0  0  0  0
 26 25  1  0  0  0  0
 26 27  1  0  0  0  0
 28 27  1  6  0  0  0
 28 33  1  0  0  0  0
 28 29  1  0  0  0  0
 29 30  1  0  0  0  0
 30 32  1  0  0  0  0
 32 31  1  0  0  0  0
 34 33  1  0  0  0  0
 35 38  1  1  0  0  0
 35 40  1  0  0  0  0
 35 39  1  0  0  0  0
 36 41  1  0  0  0  0
 37 41  1  0  0  0  0
 39 36  1  0  0  0  0
 40 37  1  0  0  0  0
 41 34  1  1  0  0  0
M  END
>  <MODEL>
4

>  <REMARK>
 VINA RESULT:      -6.0      2.387      9.064
  Name = 
  15 active torsions:
  status: ('A' for Active; 'I' for Inactive)
    1  A    between atoms: N_3  and  C_16
    2  A    between atoms: N_3  and  O_23
    3  A    between atoms: S_11  and  C_16
    4  A    between atoms: S_11  and  C_34
    5  A    between atoms: C_15  and  O_23
    6  A    between atoms: C_16  and  N_31
    7  A    between atoms: N_17  and  C_21
    8  A    between atoms: C_19  and  C_27
    9  A    between atoms: C_20  and  C_21
   10  A    between atoms: C_20  and  N_35
   11  A    between atoms: C_20  and  C_37
   12  A    between atoms: C_27  and  N_30
   13  A    between atoms: C_28  and  C_34
   14  A    between atoms: N_31  and  C_40
   15  A    between atoms: C_37  and  C_40
                            x       y       z     vdW  Elec       q    Type
                         _______ _______ _______ _____ _____    ______ ____

>  <TORSDO>
F 15

$$$$
=
 OpenBabel11072412533D

 41 44  0  0  1  0  0  0  0  0999 V2000
  160.4930  210.3820  153.1560 C   0  0  1  0  0  3  0  0  0  0  0  0
  160.0160  208.5130  156.7540 N   0  0  0  0  0  2  0  0  0  0  0  0
  160.0710  209.9700  156.8790 C   0  0  0  0  0  2  0  0  0  0  0  0
  161.2140  208.0440  156.0560 C   0  0  0  0  0  2  0  0  0  0  0  0
  160.2790  209.6720  154.4250 N   0  0  0  0  0  0  0  0  0  0  0  0
  161.3350  208.6790  154.6630 C   0  0  0  0  0  2  0  0  0  0  0  0
  160.2600  210.6510  155.5160 C   0  0  0  0  0  2  0  0  0  0  0  0
  160.3130  211.9150  153.2410 C   0  0  0  0  0  2  0  0  0  0  0  0
  158.4430  213.5360  149.8580 C   0  0  0  0  0  0  0  0  0  0  0  0
  160.3320  212.5780  150.9200 N   0  0  0  0  0  0  0  0  0  0  0  0
  159.6550  212.4840  152.0650 N   0  0  0  0  0  0  0  0  0  0  0  0
  157.7720  213.4410  151.0300 N   0  0  0  0  0  2  0  0  0  0  0  0
  160.5630  213.1240  148.5920 N   0  0  0  0  0  2  0  0  0  0  0  0
  157.7110  212.8360  153.2080 O   0  0  0  0  0  0  0  0  0  0  0  0
  159.7760  213.0910  149.7940 C   0  0  0  0  0  0  0  0  0  0  0  0
  157.8550  214.0090  148.8490 O   0  0  0  0  0  0  0  0  0  0  0  0
  158.3630  212.9180  152.1330 C   0  0  0  0  0  0  0  0  0  0  0  0
  161.2640  214.4530  146.6800 C   0  0  0  0  0  1  0  0  0  0  0  0
  160.1320  213.6590  147.3070 C   0  0  1  0  0  3  0  0  0  0  0  0
  158.0090  212.7880  145.7490 S   0  0  0  0  0  0  0  0  0  0  0  0
  159.9230  211.9140  144.0310 O   0  0  0  0  0  1  0  0  0  0  0  0
  159.7380  212.5180  146.3780 C   0  0  1  0  0  3  0  0  0  0  0  0
  159.6560  212.9140  144.9660 C   0  0  2  0  0  0  0  0  0  0  0  0
  160.0390  214.2640  144.5860 N   0  0  0  0  0  1  0  0  0  0  0  0
  161.7710  209.9290  152.4590 C   0  0  0  0  0  2  0  0  0  0  0  0
  161.4380  209.0640  151.2550 C   0  0  0  0  0  2  0  0  0  0  0  0
  162.6320  208.3690  150.7970 N   0  0  0  0  0  2  0  0  0  0  0  0
  162.2540  206.9970  150.4810 C   0  0  2  0  0  3  0  0  0  0  0  0
  161.4080  206.9690  149.2950 N   0  0  0  0  0  2  0  0  0  0  0  0
  161.8400  205.9520  148.5140 O   0  0  0  0  0  0  0  0  0  0  0  0
  160.6240  206.5620  146.6300 N   0  0  0  0  0  1  0  0  0  0  0  0
  161.9430  206.5060  147.2380 C   0  0  0  0  0  2  0  0  0  0  0  0
  161.3950  206.2150  151.8950 S   0  0  0  0  0  0  0  0  0  0  0  0
  162.1320  204.5540  151.6950 C   0  0  0  0  0  2  0  0  0  0  0  0
  160.4550  201.5240  149.4690 C   0  0  1  0  0  3  0  0  0  0  0  0
  161.7100  202.0850  151.4490 C   0  0  0  0  0  2  0  0  0  0  0  0
  160.0600  203.7870  150.5270 C   0  0  0  0  0  2  0  0  0  0  0  0
  161.4800  200.8990  148.5420 C   0  0  0  0  0  1  0  0  0  0  0  0
  160.7430  201.1570  150.8630 N   0  0  0  0  0  2  0  0  0  0  0  0
  160.3930  203.0440  149.2360 C   0  0  0  0  0  2  0  0  0  0  0  0
  161.0710  203.4660  151.6360 C   0  0  2  0  0  3  0  0  0  0  0  0
  1 25  1  1  0  0  0
  1  8  1  0  0  0  0
  1  5  1  0  0  0  0
  2  3  1  0  0  0  0
  4  2  1  0  0  0  0
  5  6  1  0  0  0  0
  5  7  1  0  0  0  0
  6  4  1  0  0  0  0
  7  3  1  0  0  0  0
  9 12  1  0  0  0  0
 10 11  1  0  0  0  0
 11 17  1  0  0  0  0
 11  8  1  0  0  0  0
 12 17  1  0  0  0  0
 13 15  1  0  0  0  0
 15  9  1  0  0  0  0
 15 10  2  0  0  0  0
 16  9  2  0  0  0  0
 17 14  2  0  0  0  0
 19 18  1  6  0  0  0
 19 13  1  0  0  0  0
 20 22  1  0  0  0  0
 22 19  1  1  0  0  0
 23 21  1  6  0  0  0
 23 20  1  0  0  0  0
 23 22  1  0  0  0  0
 24 23  1  0  0  0  0
 26 25  1  0  0  0  0
 27 26  1  0  0  0  0
 28 29  1  6  0  0  0
 28 27  1  0  0  0  0
 28 33  1  0  0  0  0
 30 29  1  0  0  0  0
 31 32  1  0  0  0  0
 32 30  1  0  0  0  0
 34 33  1  0  0  0  0
 35 38  1  6  0  0  0
 35 39  1  0  0  0  0
 36 41  1  0  0  0  0
 37 41  1  0  0  0  0
 39 36  1  0  0  0  0
 40 35  1  0  0  0  0
 40 37  1  0  0  0  0
 41 34  1  6  0  0  0
M  END
>  <MODEL>
5

>  <REMARK>
 VINA RESULT:      -5.9      2.729      9.141
  Name = 
  15 active torsions:
  status: ('A' for Active; 'I' for Inactive)
    1  A    between atoms: N_3  and  C_16
    2  A    between atoms: N_3  and  O_23
    3  A    between atoms: S_11  and  C_16
    4  A    between atoms: S_11  and  C_34
    5  A    between atoms: C_15  and  O_23
    6  A    between atoms: C_16  and  N_31
    7  A    between atoms: N_17  and  C_21
    8  A    between atoms: C_19  and  C_27
    9  A    between atoms: C_20  and  C_21
   10  A    between atoms: C_20  and  N_35
   11  A    between atoms: C_20  and  C_37
   12  A    between atoms: C_27  and  N_30
   13  A    between atoms: C_28  and  C_34
   14  A    between atoms: N_31  and  C_40
   15  A    between atoms: C_37  and  C_40
                            x       y       z     vdW  Elec       q    Type
                         _______ _______ _______ _____ _____    ______ ____

>  <TORSDO>
F 15

$$$$
=
 OpenBabel11072412533D

 41 44  0  0  1  0  0  0  0  0999 V2000
  161.7940  207.0070  148.4620 C   0  0  1  0  0  3  0  0  0  0  0  0
  161.6650  205.5380  144.6550 N   0  0  0  0  0  2  0  0  0  0  0  0
  160.3350  205.8220  145.1950 C   0  0  0  0  0  2  0  0  0  0  0  0
  162.3680  204.6290  145.5610 C   0  0  0  0  0  2  0  0  0  0  0  0
  161.7940  206.5160  147.0760 N   0  0  0  0  0  0  0  0  0  0  0  0
  162.4980  205.2310  146.9680 C   0  0  0  0  0  2  0  0  0  0  0  0
  160.4070  206.3650  146.6290 C   0  0  0  0  0  2  0  0  0  0  0  0
  161.9970  205.9090  149.5310 C   0  0  0  0  0  2  0  0  0  0  0  0
  161.0460  207.2090  153.4010 C   0  0  0  0  0  0  0  0  0  0  0  0
  161.6570  207.6610  151.1570 N   0  0  0  0  0  0  0  0  0  0  0  0
  161.6660  206.3550  150.8850 N   0  0  0  0  0  0  0  0  0  0  0  0
  161.0680  205.8860  153.1100 N   0  0  0  0  0  2  0  0  0  0  0  0
  161.3310  209.5610  152.5910 N   0  0  0  0  0  2  0  0  0  0  0  0
  161.3780  204.2150  151.6200 O   0  0  0  0  0  0  0  0  0  0  0  0
  161.3530  208.1380  152.3910 C   0  0  0  0  0  0  0  0  0  0  0  0
  160.7380  207.5770  154.5660 O   0  0  0  0  0  0  0  0  0  0  0  0
  161.3720  205.4510  151.8630 C   0  0  0  0  0  0  0  0  0  0  0  0
  162.3430  210.4410  154.6190 C   0  0  0  0  0  1  0  0  0  0  0  0
  161.0490  210.2370  153.8510 C   0  0  1  0  0  3  0  0  0  0  0  0
  158.6370  211.3480  153.0510 S   0  0  0  0  0  0  0  0  0  0  0  0
  159.2420  213.3480  154.7870 O   0  0  0  0  0  1  0  0  0  0  0  0
  160.4040  211.5900  153.5780 C   0  0  1  0  0  3  0  0  0  0  0  0
  159.4080  211.9790  154.5840 C   0  0  2  0  0  0  0  0  0  0  0  0
  159.2110  211.1310  155.7490 N   0  0  0  0  0  1  0  0  0  0  0  0
  162.6850  208.2330  148.6310 C   0  0  0  0  0  2  0  0  0  0  0  0
  161.9700  209.4780  148.1350 C   0  0  0  0  0  2  0  0  0  0  0  0
  162.0550  210.5320  149.1350 N   0  0  0  0  0  2  0  0  0  0  0  0
  161.9000  211.8100  148.4510 C   0  0  2  0  0  3  0  0  0  0  0  0
  163.1990  212.4460  148.2750 N   0  0  0  0  0  2  0  0  0  0  0  0
  163.0290  213.4800  147.4190 O   0  0  0  0  0  0  0  0  0  0  0  0
  162.8140  213.9190  145.1470 N   0  0  0  0  0  1  0  0  0  0  0  0
  163.0110  212.8910  146.1550 C   0  0  0  0  0  2  0  0  0  0  0  0
  160.7700  212.9120  149.3780 S   0  0  0  0  0  0  0  0  0  0  0  0
  160.2560  213.9310  147.9510 C   0  0  0  0  0  2  0  0  0  0  0  0
  158.9360  213.0900  144.1430 C   0  0  1  0  0  3  0  0  0  0  0  0
  159.8520  212.1870  146.1810 C   0  0  0  0  0  2  0  0  0  0  0  0
  158.3970  214.2700  146.3150 C   0  0  0  0  0  2  0  0  0  0  0  0
  160.0930  213.0490  143.1630 C   0  0  0  0  0  1  0  0  0  0  0  0
  158.9840  211.9220  145.0340 N   0  0  0  0  0  2  0  0  0  0  0  0
  158.9310  214.4330  144.8940 C   0  0  0  0  0  2  0  0  0  0  0  0
  159.2070  213.2300  147.1010 C   0  0  2  0  0  3  0  0  0  0  0  0
  1 25  1  6  0  0  0
  1  8  1  0  0  0  0
  2  3  1  0  0  0  0
  2  4  1  0  0  0  0
  3  7  1  0  0  0  0
  4  6  1  0  0  0  0
  5  1  1  0  0  0  0
  6  5  1  0  0  0  0
  7  5  1  0  0  0  0
  8 11  1  0  0  0  0
  9 16  2  0  0  0  0
 10 15  2  0  0  0  0
 11 10  1  0  0  0  0
 11 17  1  0  0  0  0
 12  9  1  0  0  0  0
 13 19  1  0  0  0  0
 14 17  2  0  0  0  0
 15 13  1  0  0  0  0
 15  9  1  0  0  0  0
 17 12  1  0  0  0  0
 19 18  1  6  0  0  0
 20 22  1  0  0  0  0
 20 23  1  0  0  0  0
 22 19  1  1  0  0  0
 22 23  1  0  0  0  0
 23 21  1  1  0  0  0
 23 24  1  0  0  0  0
 26 25  1  0  0  0  0
 26 27  1  0  0  0  0
 28 29  1  1  0  0  0
 28 27  1  0  0  0  0
 28 33  1  0  0  0  0
 30 29  1  0  0  0  0
 31 32  1  0  0  0  0
 32 30  1  0  0  0  0
 34 33  1  0  0  0  0
 35 38  1  6  0  0  0
 35 40  1  0  0  0  0
 35 39  1  0  0  0  0
 36 41  1  0  0  0  0
 37 41  1  0  0  0  0
 39 36  1  0  0  0  0
 40 37  1  0  0  0  0
 41 34  1  6  0  0  0
M  END
>  <MODEL>
6

>  <REMARK>
 VINA RESULT:      -5.4      1.462      2.165
  Name = 
  15 active torsions:
  status: ('A' for Active; 'I' for Inactive)
    1  A    between atoms: N_3  and  C_16
    2  A    between atoms: N_3  and  O_23
    3  A    between atoms: S_11  and  C_16
    4  A    between atoms: S_11  and  C_34
    5  A    between atoms: C_15  and  O_23
    6  A    between atoms: C_16  and  N_31
    7  A    between atoms: N_17  and  C_21
    8  A    between atoms: C_19  and  C_27
    9  A    between atoms: C_20  and  C_21
   10  A    between atoms: C_20  and  N_35
   11  A    between atoms: C_20  and  C_37
   12  A    between atoms: C_27  and  N_30
   13  A    between atoms: C_28  and  C_34
   14  A    between atoms: N_31  and  C_40
   15  A    between atoms: C_37  and  C_40
                            x       y       z     vdW  Elec       q    Type
                         _______ _______ _______ _____ _____    ______ ____

>  <TORSDO>
F 15

$$$$
=
 OpenBabel11072412533D

 41 44  0  0  1  0  0  0  0  0999 V2000
  161.0650  210.6240  151.1630 C   0  0  1  0  0  3  0  0  0  0  0  0
  160.5050  211.6080  155.0860 N   0  0  0  0  0  2  0  0  0  0  0  0
  161.5880  210.6420  154.8960 C   0  0  0  0  0  2  0  0  0  0  0  0
  159.2810  211.0820  154.4800 C   0  0  0  0  0  2  0  0  0  0  0  0
  160.8580  211.0380  152.5590 N   0  0  0  0  0  0  0  0  0  0  0  0
  159.4710  210.8050  152.9820 C   0  0  0  0  0  2  0  0  0  0  0  0
  161.7750  210.2800  153.4160 C   0  0  0  0  0  2  0  0  0  0  0  0
  162.1350  211.4420  150.4050 C   0  0  0  0  0  2  0  0  0  0  0  0
  160.5660  213.6810  147.2270 C   0  0  0  0  0  0  0  0  0  0  0  0
  162.0900  212.0780  148.0760 N   0  0  0  0  0  0  0  0  0  0  0  0
  161.5840  212.2280  149.3010 N   0  0  0  0  0  0  0  0  0  0  0  0
  160.0680  213.8270  148.4780 N   0  0  0  0  0  2  0  0  0  0  0  0
  162.1960  212.5260  145.7180 N   0  0  0  0  0  2  0  0  0  0  0  0
  160.0770  213.2630  150.6670 O   0  0  0  0  0  0  0  0  0  0  0  0
  161.6190  212.7740  147.0110 C   0  0  0  0  0  0  0  0  0  0  0  0
  160.0650  214.3490  146.2840 O   0  0  0  0  0  0  0  0  0  0  0  0
  160.5640  213.1090  149.5160 C   0  0  0  0  0  0  0  0  0  0  0  0
  163.0810  213.6180  143.7340 C   0  0  0  0  0  1  0  0  0  0  0  0
  161.8260  213.1990  144.4790 C   0  0  1  0  0  3  0  0  0  0  0  0
  159.2020  212.4340  144.0060 S   0  0  0  0  0  0  0  0  0  0  0  0
  159.9690  212.2290  141.4080 O   0  0  0  0  0  1  0  0  0  0  0  0
  161.0090  212.2570  143.6040 C   0  0  1  0  0  3  0  0  0  0  0  0
  160.2200  212.9480  142.5770 C   0  0  2  0  0  0  0  0  0  0  0  0
  160.3610  214.3870  142.4250 N   0  0  0  0  0  1  0  0  0  0  0  0
  161.2100  209.1110  151.0330 C   0  0  0  0  0  2  0  0  0  0  0  0
  162.2660  208.7690  149.9960 C   0  0  0  0  0  2  0  0  0  0  0  0
  162.7170  207.3980  150.1810 N   0  0  0  0  0  2  0  0  0  0  0  0
  161.6740  206.6790  150.9020 C   0  0  2  0  0  3  0  0  0  0  0  0
  162.2580  205.9010  151.9870 N   0  0  0  0  0  2  0  0  0  0  0  0
  161.2540  205.5730  152.8340 O   0  0  0  0  0  0  0  0  0  0  0  0
  161.4430  206.9130  154.7220 N   0  0  0  0  0  1  0  0  0  0  0  0
  160.8590  206.7850  153.3980 C   0  0  0  0  0  2  0  0  0  0  0  0
  160.7330  205.5900  149.7710 S   0  0  0  0  0  0  0  0  0  0  0  0
  162.1220  205.2090  148.6460 C   0  0  0  0  0  2  0  0  0  0  0  0
  160.9750  204.8880  144.7050 C   0  0  1  0  0  3  0  0  0  0  0  0
  160.5210  205.9160  146.8360 C   0  0  0  0  0  2  0  0  0  0  0  0
  162.9190  205.2740  146.2780 C   0  0  0  0  0  2  0  0  0  0  0  0
  159.8710  203.8620  144.5420 C   0  0  0  0  0  1  0  0  0  0  0  0
  160.4600  206.0840  145.3850 N   0  0  0  0  0  2  0  0  0  0  0  0
  162.1830  204.2510  145.4160 C   0  0  0  0  0  2  0  0  0  0  0  0
  161.9800  205.9180  147.3080 C   0  0  2  0  0  3  0  0  0  0  0  0
  1  8  1  1  0  0  0
  1  5  1  0  0  0  0
  3  2  1  0  0  0  0
  4  2  1  0  0  0  0
  5  6  1  0  0  0  0
  5  7  1  0  0  0  0
  6  4  1  0  0  0  0
  7  3  1  0  0  0  0
  9 12  1  0  0  0  0
 10 11  1  0  0  0  0
 11 17  1  0  0  0  0
 11  8  1  0  0  0  0
 12 17  1  0  0  0  0
 13 15  1  0  0  0  0
 15  9  1  0  0  0  0
 15 10  2  0  0  0  0
 16  9  2  0  0  0  0
 17 14  2  0  0  0  0
 19 18  1  6  0  0  0
 19 13  1  0  0  0  0
 22 20  1  0  0  0  0
 22 19  1  1  0  0  0
 23 21  1  6  0  0  0
 23 22  1  0  0  0  0
 23 20  1  0  0  0  0
 24 23  1  0  0  0  0
 25  1  1  0  0  0  0
 26 27  1  0  0  0  0
 26 25  1  0  0  0  0
 27 28  1  0  0  0  0
 28 33  1  6  0  0  0
 28 29  1  0  0  0  0
 29 30  1  0  0  0  0
 30 32  1  0  0  0  0
 32 31  1  0  0  0  0
 34 33  1  0  0  0  0
 35 38  1  1  0  0  0
 35 39  1  0  0  0  0
 35 40  1  0  0  0  0
 36 41  1  0  0  0  0
 37 41  1  0  0  0  0
 39 36  1  0  0  0  0
 40 37  1  0  0  0  0
 41 34  1  1  0  0  0
M  END
>  <MODEL>
7

>  <REMARK>
 VINA RESULT:      -5.2      2.292      8.703
  Name = 
  15 active torsions:
  status: ('A' for Active; 'I' for Inactive)
    1  A    between atoms: N_3  and  C_16
    2  A    between atoms: N_3  and  O_23
    3  A    between atoms: S_11  and  C_16
    4  A    between atoms: S_11  and  C_34
    5  A    between atoms: C_15  and  O_23
    6  A    between atoms: C_16  and  N_31
    7  A    between atoms: N_17  and  C_21
    8  A    between atoms: C_19  and  C_27
    9  A    between atoms: C_20  and  C_21
   10  A    between atoms: C_20  and  N_35
   11  A    between atoms: C_20  and  C_37
   12  A    between atoms: C_27  and  N_30
   13  A    between atoms: C_28  and  C_34
   14  A    between atoms: N_31  and  C_40
   15  A    between atoms: C_37  and  C_40
                            x       y       z     vdW  Elec       q    Type
                         _______ _______ _______ _____ _____    ______ ____

>  <TORSDO>
F 15

$$$$
=
 OpenBabel11072412533D

 41 44  0  0  1  0  0  0  0  0999 V2000
  161.1590  207.1050  148.2970 C   0  0  1  0  0  3  0  0  0  0  0  0
  162.3050  205.3770  144.7790 N   0  0  0  0  0  2  0  0  0  0  0  0
  160.8700  205.6630  144.8260 C   0  0  0  0  0  2  0  0  0  0  0  0
  162.6680  204.5510  145.9300 C   0  0  0  0  0  2  0  0  0  0  0  0
  161.6210  206.5200  147.0290 N   0  0  0  0  0  0  0  0  0  0  0  0
  162.3220  205.2500  147.2530 C   0  0  0  0  0  2  0  0  0  0  0  0
  160.4600  206.3040  146.1600 C   0  0  0  0  0  2  0  0  0  0  0  0
  160.4470  206.1080  149.2400 C   0  0  0  0  0  2  0  0  0  0  0  0
  161.5410  206.5820  153.2590 C   0  0  0  0  0  0  0  0  0  0  0  0
  160.7220  207.4650  151.2170 N   0  0  0  0  0  0  0  0  0  0  0  0
  160.8330  206.2660  150.6420 N   0  0  0  0  0  0  0  0  0  0  0  0
  161.6550  205.3740  152.6570 N   0  0  0  0  0  2  0  0  0  0  0  0
  160.8760  208.9880  153.0690 N   0  0  0  0  0  2  0  0  0  0  0  0
  161.4140  204.0670  150.8270 O   0  0  0  0  0  0  0  0  0  0  0  0
  161.0590  207.6740  152.5150 C   0  0  0  0  0  0  0  0  0  0  0  0
  161.8570  206.6960  154.4720 O   0  0  0  0  0  0  0  0  0  0  0  0
  161.3040  205.2050  151.3580 C   0  0  0  0  0  0  0  0  0  0  0  0
  161.9240  210.7270  154.4060 C   0  0  0  0  0  1  0  0  0  0  0  0
  161.2060  209.3900  154.4300 C   0  0  1  0  0  3  0  0  0  0  0  0
  160.0860  208.5070  156.8100 S   0  0  0  0  0  0  0  0  0  0  0  0
  158.9700  210.9810  156.9390 O   0  0  0  0  0  1  0  0  0  0  0  0
  159.9310  209.5160  155.2550 C   0  0  1  0  0  3  0  0  0  0  0  0
  160.1010  210.3060  156.4810 C   0  0  2  0  0  0  0  0  0  0  0  0
  161.3790  210.9530  156.7340 N   0  0  0  0  0  1  0  0  0  0  0  0
  162.2420  207.9480  148.9620 C   0  0  0  0  0  2  0  0  0  0  0  0
  162.2860  209.3350  148.3440 C   0  0  0  0  0  2  0  0  0  0  0  0
  161.8890  210.3300  149.3280 N   0  0  0  0  0  2  0  0  0  0  0  0
  161.3030  211.4570  148.6120 C   0  0  2  0  0  3  0  0  0  0  0  0
  162.0150  211.6820  147.3610 N   0  0  0  0  0  2  0  0  0  0  0  0
  162.6700  212.8610  147.4760 O   0  0  0  0  0  0  0  0  0  0  0  0
  161.1820  213.6250  145.8640 N   0  0  0  0  0  1  0  0  0  0  0  0
  162.5800  213.4390  146.2100 C   0  0  0  0  0  2  0  0  0  0  0  0
  161.3300  212.9690  149.6430 S   0  0  0  0  0  0  0  0  0  0  0  0
  159.6850  213.5900  149.1440 C   0  0  0  0  0  2  0  0  0  0  0  0
  157.6820  213.3710  152.7340 C   0  0  1  0  0  3  0  0  0  0  0  0
  159.6880  214.0930  151.6110 C   0  0  0  0  0  2  0  0  0  0  0  0
  157.5100  214.0260  150.2970 C   0  0  0  0  0  2  0  0  0  0  0  0
  158.1140  212.1510  153.5250 C   0  0  0  0  0  1  0  0  0  0  0  0
  158.7610  214.3680  152.7080 N   0  0  0  0  0  2  0  0  0  0  0  0
  157.2060  212.9470  151.3330 C   0  0  0  0  0  2  0  0  0  0  0  0
  159.0070  214.3650  150.2640 C   0  0  2  0  0  3  0  0  0  0  0  0
  1 25  1  1  0  0  0
  1  8  1  0  0  0  0
  2  3  1  0  0  0  0
  2  4  1  0  0  0  0
  3  7  1  0  0  0  0
  4  6  1  0  0  0  0
  5  6  1  0  0  0  0
  5  1  1  0  0  0  0
  7  5  1  0  0  0  0
  8 11  1  0  0  0  0
  9 16  2  0  0  0  0
 10 15  2  0  0  0  0
 11 10  1  0  0  0  0
 11 17  1  0  0  0  0
 12  9  1  0  0  0  0
 13 19  1  0  0  0  0
 14 17  2  0  0  0  0
 15 13  1  0  0  0  0
 15  9  1  0  0  0  0
 17 12  1  0  0  0  0
 19 18  1  6  0  0  0
 22 19  1  6  0  0  0
 22 23  1  0  0  0  0
 22 20  1  0  0  0  0
 23 24  1  1  0  0  0
 23 20  1  0  0  0  0
 23 21  1  0  0  0  0
 26 25  1  0  0  0  0
 26 27  1  0  0  0  0
 28 29  1  6  0  0  0
 28 27  1  0  0  0  0
 28 33  1  0  0  0  0
 29 30  1  0  0  0  0
 31 32  1  0  0  0  0
 32 30  1  0  0  0  0
 34 33  1  0  0  0  0
 35 38  1  6  0  0  0
 36 39  1  0  0  0  0
 37 40  1  0  0  0  0
 39 35  1  0  0  0  0
 40 35  1  0  0  0  0
 41 34  1  6  0  0  0
 41 37  1  0  0  0  0
 41 36  1  0  0  0  0
M  END
>  <MODEL>
8

>  <REMARK>
 VINA RESULT:      -5.0      1.863      4.161
  Name = 
  15 active torsions:
  status: ('A' for Active; 'I' for Inactive)
    1  A    between atoms: N_3  and  C_16
    2  A    between atoms: N_3  and  O_23
    3  A    between atoms: S_11  and  C_16
    4  A    between atoms: S_11  and  C_34
    5  A    between atoms: C_15  and  O_23
    6  A    between atoms: C_16  and  N_31
    7  A    between atoms: N_17  and  C_21
    8  A    between atoms: C_19  and  C_27
    9  A    between atoms: C_20  and  C_21
   10  A    between atoms: C_20  and  N_35
   11  A    between atoms: C_20  and  C_37
   12  A    between atoms: C_27  and  N_30
   13  A    between atoms: C_28  and  C_34
   14  A    between atoms: N_31  and  C_40
   15  A    between atoms: C_37  and  C_40
                            x       y       z     vdW  Elec       q    Type
                         _______ _______ _______ _____ _____    ______ ____

>  <TORSDO>
F 15

$$$$
=
 OpenBabel11072412533D

 41 44  0  0  1  0  0  0  0  0999 V2000
  162.2790  207.9880  148.5070 C   0  0  1  0  0  3  0  0  0  0  0  0
  161.1520  205.8720  145.2020 N   0  0  0  0  0  2  0  0  0  0  0  0
  160.0730  206.0040  146.1820 C   0  0  0  0  0  2  0  0  0  0  0  0
  162.3210  205.2790  145.8510 C   0  0  0  0  0  2  0  0  0  0  0  0
  161.9010  207.2680  147.2820 N   0  0  0  0  0  0  0  0  0  0  0  0
  162.7980  206.1320  147.0350 C   0  0  0  0  0  2  0  0  0  0  0  0
  160.5210  206.7940  147.4200 C   0  0  0  0  0  2  0  0  0  0  0  0
  162.7720  209.4340  148.2750 C   0  0  0  0  0  2  0  0  0  0  0  0
  160.7750  212.2470  150.6560 C   0  0  0  0  0  0  0  0  0  0  0  0
  161.6720  210.0790  150.3240 N   0  0  0  0  0  0  0  0  0  0  0  0
  162.0740  210.4210  149.0990 N   0  0  0  0  0  0  0  0  0  0  0  0
  161.1840  212.5750  149.4070 N   0  0  0  0  0  2  0  0  0  0  0  0
  160.6570  210.5140  152.4580 N   0  0  0  0  0  2  0  0  0  0  0  0
  162.2050  212.0130  147.4700 O   0  0  0  0  0  0  0  0  0  0  0  0
  161.0250  210.9500  151.1390 C   0  0  0  0  0  0  0  0  0  0  0  0
  160.1950  213.1150  151.3610 O   0  0  0  0  0  0  0  0  0  0  0  0
  161.8320  211.6770  148.6250 C   0  0  0  0  0  0  0  0  0  0  0  0
  158.4780  211.4130  153.0530 C   0  0  0  0  0  1  0  0  0  0  0  0
  159.9400  211.3080  153.4470 C   0  0  1  0  0  3  0  0  0  0  0  0
  161.6840  211.0780  155.5920 S   0  0  0  0  0  0  0  0  0  0  0  0
  159.4420  211.1000  157.1260 O   0  0  0  0  0  1  0  0  0  0  0  0
  160.0490  210.6490  154.8160 C   0  0  1  0  0  3  0  0  0  0  0  0
  159.9650  211.5980  155.9330 C   0  0  2  0  0  0  0  0  0  0  0  0
  159.6940  212.9990  155.6520 N   0  0  0  0  0  1  0  0  0  0  0  0
  161.2240  207.8430  149.6000 C   0  0  0  0  0  2  0  0  0  0  0  0
  161.8460  207.2670  150.8610 C   0  0  0  0  0  2  0  0  0  0  0  0
  160.8250  207.0920  151.8830 N   0  0  0  0  0  2  0  0  0  0  0  0
  161.0720  205.8180  152.5470 C   0  0  2  0  0  3  0  0  0  0  0  0
  161.4980  206.0430  153.9220 N   0  0  0  0  0  2  0  0  0  0  0  0
  160.4430  206.5640  154.5900 O   0  0  0  0  0  0  0  0  0  0  0  0
  160.2470  207.1500  156.8300 N   0  0  0  0  0  1  0  0  0  0  0  0
  161.0140  207.3270  155.6090 C   0  0  0  0  0  2  0  0  0  0  0  0
  162.3310  204.8450  151.6400 S   0  0  0  0  0  0  0  0  0  0  0  0
  161.4810  203.2320  151.7720 C   0  0  0  0  0  2  0  0  0  0  0  0
  160.7010  201.7550  148.0090 C   0  0  1  0  0  3  0  0  0  0  0  0
  160.2310  201.5600  150.3640 C   0  0  0  0  0  2  0  0  0  0  0  0
  160.8570  203.8420  149.4300 C   0  0  0  0  0  2  0  0  0  0  0  0
  161.5790  200.5560  147.7020 C   0  0  0  0  0  1  0  0  0  0  0  0
  159.6910  201.4000  149.0150 N   0  0  0  0  0  2  0  0  0  0  0  0
  161.5750  202.9550  148.4150 C   0  0  0  0  0  2  0  0  0  0  0  0
  160.4440  203.0470  150.6750 C   0  0  2  0  0  3  0  0  0  0  0  0
  1  8  1  6  0  0  0
  1 25  1  0  0  0  0
  2  4  1  0  0  0  0
  2  3  1  0  0  0  0
  3  7  1  0  0  0  0
  4  6  1  0  0  0  0
  5  7  1  0  0  0  0
  5  1  1  0  0  0  0
  6  5  1  0  0  0  0
  8 11  1  0  0  0  0
  9 15  1  0  0  0  0
  9 16  2  0  0  0  0
 10 15  2  0  0  0  0
 11 10  1  0  0  0  0
 12  9  1  0  0  0  0
 13 19  1  0  0  0  0
 14 17  2  0  0  0  0
 15 13  1  0  0  0  0
 17 11  1  0  0  0  0
 17 12  1  0  0  0  0
 19 18  1  6  0  0  0
 20 23  1  0  0  0  0
 22 19  1  6  0  0  0
 22 20  1  0  0  0  0
 22 23  1  0  0  0  0
 23 24  1  6  0  0  0
 23 21  1  0  0  0  0
 25 26  1  0  0  0  0
 26 27  1  0  0  0  0
 27 28  1  0  0  0  0
 28 33  1  6  0  0  0
 28 29  1  0  0  0  0
 29 30  1  0  0  0  0
 30 32  1  0  0  0  0
 32 31  1  0  0  0  0
 33 34  1  0  0  0  0
 35 38  1  1  0  0  0
 35 40  1  0  0  0  0
 35 39  1  0  0  0  0
 36 41  1  0  0  0  0
 37 41  1  0  0  0  0
 39 36  1  0  0  0  0
 40 37  1  0  0  0  0
 41 34  1  1  0  0  0
M  END
>  <MODEL>
9

>  <REMARK>
 VINA RESULT:      -4.8      2.960      6.949
  Name = 
  15 active torsions:
  status: ('A' for Active; 'I' for Inactive)
    1  A    between atoms: N_3  and  C_16
    2  A    between atoms: N_3  and  O_23
    3  A    between atoms: S_11  and  C_16
    4  A    between atoms: S_11  and  C_34
    5  A    between atoms: C_15  and  O_23
    6  A    between atoms: C_16  and  N_31
    7  A    between atoms: N_17  and  C_21
    8  A    between atoms: C_19  and  C_27
    9  A    between atoms: C_20  and  C_21
   10  A    between atoms: C_20  and  N_35
   11  A    between atoms: C_20  and  C_37
   12  A    between atoms: C_27  and  N_30
   13  A    between atoms: C_28  and  C_34
   14  A    between atoms: N_31  and  C_40
   15  A    between atoms: C_37  and  C_40
                            x       y       z     vdW  Elec       q    Type
                         _______ _______ _______ _____ _____    ______ ____

>  <TORSDO>
F 15

$$$$
