=
 OpenBabel11072415013D

 39 43  0  0  1  0  0  0  0  0999 V2000
  160.8440  208.5740  153.9460 C   0  0  0  0  0  0  0  0  0  0  0  0
  162.0160  210.7240  152.7610 S   0  0  0  0  0  0  0  0  0  0  0  0
  160.0360  212.7680  152.9940 C   0  0  0  0  0  2  0  0  0  0  0  0
  159.4780  208.6910  155.8830 C   0  0  0  0  0  2  0  0  0  0  0  0
  161.6310  211.7160  147.3440 C   0  0  1  0  0  3  0  0  0  0  0  0
  161.0190  206.9010  154.5420 S   0  0  0  0  0  0  0  0  0  0  0  0
  160.7810  206.6950  150.2380 O   0  0  0  0  0  1  0  0  0  0  0  0
  160.6670  210.5350  147.5290 C   0  0  0  0  0  2  0  0  0  0  0  0
  159.1570  214.1400  151.1240 C   0  0  0  0  0  2  0  0  0  0  0  0
  160.0810  209.3520  154.7020 C   0  0  0  0  0  0  0  0  0  0  0  0
  160.9190  212.9360  146.7280 C   0  0  2  0  0  3  0  0  0  0  0  0
  158.2790  211.9690  151.5900 O   0  0  0  0  0  1  0  0  0  0  0  0
  161.3340  209.2890  148.0960 C   0  0  0  0  0  2  0  0  0  0  0  0
  159.8270  213.9040  148.7930 N   0  0  0  0  0  2  0  0  0  0  0  0
  161.3310  209.0390  152.6020 C   0  0  1  0  0  3  0  0  0  0  0  0
  159.4550  212.7210  151.5880 C   0  0  2  0  0  3  0  0  0  0  0  0
  162.3500  208.1470  152.0690 N   0  0  0  0  0  2  0  0  0  0  0  0
  159.6760  213.3220  147.4960 C   0  0  0  0  0  0  0  0  0  0  0  0
  158.6980  214.1530  149.6750 C   0  0  0  0  0  2  0  0  0  0  0  0
  161.4130  209.4130  149.6050 C   0  0  0  0  0  2  0  0  0  0  0  0
  160.4910  211.4170  153.4360 C   0  0  0  0  0  0  0  0  0  0  0  0
  163.2390  207.3880  149.6730 O   0  0  0  0  0  0  0  0  0  0  0  0
  159.5880  207.1920  155.6340 C   0  0  0  0  0  2  0  0  0  0  0  0
  159.7700  210.7470  154.3420 C   0  0  0  0  0  3  0  0  0  0  0  0
  158.5130  212.8990  147.1110 N   0  0  0  0  0  2  0  0  0  0  0  0
  161.9890  207.8710  150.3730 P   0  0  2  0  0  0  0  0  0  0  0  0
  158.8130  214.4460  142.5880 C   0  0  0  0  0  2  0  0  0  0  0  0
  161.7390  213.7350  142.0140 O   0  0  0  0  0  0  0  0  0  0  0  0
  159.8090  213.7610  143.4310 C   0  0  2  0  0  0  0  0  0  0  0  0
  159.5340  213.4780  144.7720 O   0  0  0  0  0  0  0  0  0  0  0  0
  161.2150  213.5350  143.0990 C   0  0  0  0  0  0  0  0  0  0  0  0
  161.8940  213.0340  144.2970 C   0  0  2  0  0  3  0  0  0  0  0  0
  160.6750  212.7550  145.2170 C   0  0  1  0  0  3  0  0  0  0  0  0
  162.8020  214.1350  144.8300 C   0  0  0  0  0  1  0  0  0  0  0  0
  158.9530  213.0410  142.5820 O   0  0  0  0  0  0  0  0  0  0  0  0
  162.3250  212.1100  148.6490 C   0  0  0  0  0  2  0  0  0  0  0  0
  164.6210  212.6080  148.2470 O   0  0  0  0  0  0  0  0  0  0  0  0
  163.2070  214.4120  148.2810 O   0  0  0  0  0  1  0  0  0  0  0  0
  163.4520  213.0500  148.3920 C   0  0  0  0  0  0  0  0  0  0  0  0
  1  6  1  0  0  0  0
  1 10  2  0  0  0  0
  2 21  1  0  0  0  0
  3 21  1  0  0  0  0
  5  8  1  0  0  0  0
  5 36  1  1  0  0  0
  6 23  1  0  0  0  0
  7 26  1  0  0  0  0
  8 13  1  0  0  0  0
  9 16  1  0  0  0  0
 10  4  1  0  0  0  0
 11  5  1  0  0  0  0
 11 18  1  1  0  0  0
 13 20  1  0  0  0  0
 14 19  1  0  0  0  0
 15 17  1  1  0  0  0
 15  2  1  0  0  0  0
 15  1  1  0  0  0  0
 16 12  1  1  0  0  0
 16  3  1  0  0  0  0
 18 14  1  0  0  0  0
 19  9  1  0  0  0  0
 20 26  1  0  0  0  0
 21 24  2  0  0  0  0
 23  4  1  0  0  0  0
 24 10  1  0  0  0  0
 25 18  2  0  0  0  0
 26 22  2  6  0  0  0
 26 17  1  0  0  0  0
 28 31  2  0  0  0  0
 29 27  1  6  0  0  0
 29 30  1  0  0  0  0
 31 29  1  0  0  0  0
 31 32  1  0  0  0  0
 32 34  1  1  0  0  0
 32 33  1  0  0  0  0
 33 30  1  6  0  0  0
 33 11  1  0  0  0  0
 35 27  1  0  0  0  0
 35 29  1  0  0  0  0
 37 39  2  0  0  0  0
 38 39  1  0  0  0  0
 39 36  1  0  0  0  0
M  END
>  <MODEL>
1

>  <REMARK>
 VINA RESULT:      -1.2      0.000      0.000
  Name = 
  3 active torsions:
  status: ('A' for Active; 'I' for Inactive)
    1  A    between atoms: C_6  and  C_7
    2  A    between atoms: C_6  and  C_30
    3  A    between atoms: C_16  and  C_31
                            x       y       z     vdW  Elec       q    Type
                         _______ _______ _______ _____ _____    ______ ____

>  <TORSDO>
F 3

$$$$
