=
 OpenBabel11072412243D

 27 30  0  0  1  0  0  0  0  0999 V2000
  161.0580  206.0360  151.7020 C   0  0  1  0  0  3  0  0  0  0  0  0
  161.2420  203.5510  148.8040 C   0  0  0  0  0  0  0  0  0  0  0  0
  160.9020  202.2470  149.1130 C   0  0  0  0  0  0  0  0  0  0  0  0
  160.6440  203.6300  152.4010 C   0  0  0  0  0  2  0  0  0  0  0  0
  160.8360  201.1700  148.1850 N   0  0  0  0  0  1  0  0  0  0  0  0
  161.1850  204.2280  150.0010 C   0  0  0  0  0  0  0  0  0  0  0  0
  161.5870  205.6330  150.3150 C   0  0  0  0  0  2  0  0  0  0  0  0
  161.3590  204.9470  152.7430 C   0  0  0  0  0  2  0  0  0  0  0  0
  160.6530  202.1200  150.4000 O   0  0  0  0  0  0  0  0  0  0  0  0
  160.8300  203.2990  150.9540 C   0  0  0  0  0  0  0  0  0  0  0  0
  161.6750  204.0870  147.4820 C   0  0  0  0  0  2  0  0  0  0  0  0
  160.8950  205.1940  147.1440 O   0  0  0  0  0  0  0  0  0  0  0  0
  161.0980  205.3910  145.4730 P   0  0  0  0  0  0  0  0  0  0  0  0
  162.7000  205.8180  145.1340 O   0  0  0  0  0  1  0  0  0  0  0  0
  160.1790  206.4890  144.9880 O   0  0  0  0  0  1  0  0  0  0  0  0
  160.7160  203.9520  144.6690 O   0  0  0  0  0  0  0  0  0  0  0  0
  161.6830  207.3510  152.1460 C   0  0  0  0  0  2  0  0  0  0  0  0
  161.0520  207.8480  153.4050 C   0  0  0  0  0  0  0  0  0  0  0  0
  160.2290  209.6590  154.7620 C   0  0  0  0  0  0  0  0  0  0  0  0
  160.0700  211.0610  154.6930 N   0  0  0  0  0  0  0  0  0  0  0  0
  159.8960  208.8020  155.8110 C   0  0  0  0  0  3  0  0  0  0  0  0
  161.0110  210.2760  152.7010 N   0  0  0  0  0  0  0  0  0  0  0  0
  160.1560  207.4300  155.6420 C   0  0  0  0  0  3  0  0  0  0  0  0
  160.7340  206.9550  154.4460 C   0  0  0  0  0  3  0  0  0  0  0  0
  160.5330  211.4940  153.3730 C   0  0  0  0  0  3  0  0  0  0  0  0
  159.3160  211.8810  155.6240 C   0  0  0  0  0  1  0  0  0  0  0  0
  160.7830  209.2040  153.6060 C   0  0  0  0  0  0  0  0  0  0  0  0
  1 17  1  1  0  0  0
  1  8  1  0  0  0  0
  2  3  2  0  0  0  0
  2  6  1  0  0  0  0
  3  9  1  0  0  0  0
  4  8  1  0  0  0  0
  5  3  1  0  0  0  0
  6  7  1  0  0  0  0
  6 10  2  0  0  0  0
  7  1  1  0  0  0  0
  9 10  1  0  0  0  0
 10  4  1  0  0  0  0
 11  2  1  0  0  0  0
 12 11  1  0  0  0  0
 13 12  1  0  0  0  0
 14 13  1  0  0  0  0
 15 13  1  0  0  0  0
 16 13  2  0  0  0  0
 17 18  1  0  0  0  0
 18 27  2  0  0  0  0
 18 24  1  0  0  0  0
 19 21  2  0  0  0  0
 20 19  1  0  0  0  0
 20 26  1  0  0  0  0
 22 25  2  0  0  0  0
 22 27  1  0  0  0  0
 23 21  1  0  0  0  0
 24 23  2  0  0  0  0
 25 20  1  0  0  0  0
 27 19  1  0  0  0  0
M  END
>  <MODEL>
1

>  <REMARK>
 VINA RESULT:      -9.6      0.000      0.000
  Name = 
  5 active torsions:
  status: ('A' for Active; 'I' for Inactive)
    1  A    between atoms: C_1  and  C_5
    2  A    between atoms: C_2  and  C_5
    3  A    between atoms: C_3  and  C_6
    4  A    between atoms: C_3  and  O_11
    5  A    between atoms: P_4  and  O_11
                            x       y       z     vdW  Elec       q    Type
                         _______ _______ _______ _____ _____    ______ ____

>  <TORSDO>
F 5

$$$$
=
 OpenBabel11072412243D

 27 30  0  0  1  0  0  0  0  0999 V2000
  160.9860  207.4040  152.4340 C   0  0  1  0  0  3  0  0  0  0  0  0
  160.8700  205.0770  149.4060 C   0  0  0  0  0  0  0  0  0  0  0  0
  160.8640  203.7240  149.6920 C   0  0  0  0  0  0  0  0  0  0  0  0
  161.2100  204.9470  153.0340 C   0  0  0  0  0  2  0  0  0  0  0  0
  160.7600  202.6790  148.7320 N   0  0  0  0  0  1  0  0  0  0  0  0
  161.0000  205.6990  150.6260 C   0  0  0  0  0  0  0  0  0  0  0  0
  161.2050  207.1470  150.9340 C   0  0  0  0  0  2  0  0  0  0  0  0
  161.7360  206.3690  153.2860 C   0  0  0  0  0  2  0  0  0  0  0  0
  160.9810  203.5190  150.9870 O   0  0  0  0  0  0  0  0  0  0  0  0
  161.0760  204.6950  151.5660 C   0  0  0  0  0  0  0  0  0  0  0  0
  160.8440  205.7200  148.0610 C   0  0  0  0  0  2  0  0  0  0  0  0
  162.0290  205.4350  147.3790 O   0  0  0  0  0  0  0  0  0  0  0  0
  161.5850  205.2860  145.7520 P   0  0  0  0  0  0  0  0  0  0  0  0
  161.2550  203.6660  145.3900 O   0  0  0  0  0  1  0  0  0  0  0  0
  162.7230  205.7670  144.8810 O   0  0  0  0  0  0  0  0  0  0  0  0
  160.2110  206.2240  145.4370 O   0  0  0  0  0  1  0  0  0  0  0  0
  161.4530  208.8040  152.8060 C   0  0  0  0  0  2  0  0  0  0  0  0
  160.5730  209.4040  153.8530 C   0  0  0  0  0  0  0  0  0  0  0  0
  158.9770  211.0700  154.5440 C   0  0  0  0  0  0  0  0  0  0  0  0
  158.2700  212.1650  154.0000 N   0  0  0  0  0  0  0  0  0  0  0  0
  158.9340  210.5750  155.8480 C   0  0  0  0  0  3  0  0  0  0  0  0
  159.6100  211.1930  152.3470 N   0  0  0  0  0  0  0  0  0  0  0  0
  159.7410  209.4640  156.1520 C   0  0  0  0  0  3  0  0  0  0  0  0
  160.5590  208.8830  155.1600 C   0  0  0  0  0  3  0  0  0  0  0  0
  158.6250  212.2600  152.5820 C   0  0  0  0  0  3  0  0  0  0  0  0
  157.1740  212.8740  154.6360 C   0  0  0  0  0  1  0  0  0  0  0  0
  159.7620  210.5100  153.5840 C   0  0  0  0  0  0  0  0  0  0  0  0
  1 17  1  1  0  0  0
  1  8  1  0  0  0  0
  2  3  2  0  0  0  0
  2  6  1  0  0  0  0
  3  9  1  0  0  0  0
  4  8  1  0  0  0  0
  5  3  1  0  0  0  0
  6  7  1  0  0  0  0
  6 10  2  0  0  0  0
  7  1  1  0  0  0  0
  9 10  1  0  0  0  0
 10  4  1  0  0  0  0
 11  2  1  0  0  0  0
 12 11  1  0  0  0  0
 13 12  1  0  0  0  0
 14 13  1  0  0  0  0
 15 13  2  0  0  0  0
 16 13  1  0  0  0  0
 17 18  1  0  0  0  0
 18 24  1  0  0  0  0
 19 21  2  0  0  0  0
 20 19  1  0  0  0  0
 20 26  1  0  0  0  0
 21 23  1  0  0  0  0
 22 25  2  0  0  0  0
 22 27  1  0  0  0  0
 24 23  2  0  0  0  0
 25 20  1  0  0  0  0
 27 18  2  0  0  0  0
 27 19  1  0  0  0  0
M  END
>  <MODEL>
2

>  <REMARK>
 VINA RESULT:      -9.3      1.326      1.872
  Name = 
  5 active torsions:
  status: ('A' for Active; 'I' for Inactive)
    1  A    between atoms: C_1  and  C_5
    2  A    between atoms: C_2  and  C_5
    3  A    between atoms: C_3  and  C_6
    4  A    between atoms: C_3  and  O_11
    5  A    between atoms: P_4  and  O_11
                            x       y       z     vdW  Elec       q    Type
                         _______ _______ _______ _____ _____    ______ ____

>  <TORSDO>
F 5

$$$$
=
 OpenBabel11072412243D

 27 30  0  0  1  0  0  0  0  0999 V2000
  161.1800  207.2500  152.1370 C   0  0  1  0  0  3  0  0  0  0  0  0
  160.8500  204.6430  149.3630 C   0  0  0  0  0  0  0  0  0  0  0  0
  160.6800  203.3380  149.7870 C   0  0  0  0  0  0  0  0  0  0  0  0
  161.1020  204.8610  152.9950 C   0  0  0  0  0  2  0  0  0  0  0  0
  160.4720  202.2150  148.9380 N   0  0  0  0  0  1  0  0  0  0  0  0
  161.0290  205.3720  150.5170 C   0  0  0  0  0  0  0  0  0  0  0  0
  161.3970  206.8120  150.6790 C   0  0  0  0  0  2  0  0  0  0  0  0
  161.7870  206.2320  153.1150 C   0  0  0  0  0  2  0  0  0  0  0  0
  160.7470  203.2590  151.1000 O   0  0  0  0  0  0  0  0  0  0  0  0
  160.9680  204.4720  151.5570 C   0  0  0  0  0  0  0  0  0  0  0  0
  160.9270  205.1380  147.9590 C   0  0  0  0  0  2  0  0  0  0  0  0
  162.2180  204.9490  147.4620 O   0  0  0  0  0  0  0  0  0  0  0  0
  162.0130  204.5100  145.8390 P   0  0  0  0  0  0  0  0  0  0  0  0
  161.1400  205.7080  145.0230 O   0  0  0  0  0  0  0  0  0  0  0  0
  161.2490  203.2070  145.7700 O   0  0  0  0  0  1  0  0  0  0  0  0
  163.5210  204.3080  145.0970 O   0  0  0  0  0  1  0  0  0  0  0  0
  161.8010  208.6190  152.3770 C   0  0  0  0  0  2  0  0  0  0  0  0
  160.8100  209.5620  152.9770 C   0  0  0  0  0  0  0  0  0  0  0  0
  159.6890  210.4760  154.9020 C   0  0  0  0  0  0  0  0  0  0  0  0
  159.6950  210.3410  156.3080 N   0  0  0  0  0  0  0  0  0  0  0  0
  158.8990  211.3170  154.1180 C   0  0  0  0  0  3  0  0  0  0  0  0
  161.2830  208.9020  155.3720 N   0  0  0  0  0  0  0  0  0  0  0  0
  159.0760  211.2670  152.7230 C   0  0  0  0  0  3  0  0  0  0  0  0
  160.0250  210.3910  152.1550 C   0  0  0  0  0  3  0  0  0  0  0  0
  160.7270  209.3600  156.6530 C   0  0  0  0  0  3  0  0  0  0  0  0
  159.0270  211.2190  157.2530 C   0  0  0  0  0  1  0  0  0  0  0  0
  160.6070  209.6330  154.3580 C   0  0  0  0  0  0  0  0  0  0  0  0
  1 17  1  6  0  0  0
  1  8  1  0  0  0  0
  2  3  2  0  0  0  0
  2  6  1  0  0  0  0
  3  9  1  0  0  0  0
  4  8  1  0  0  0  0
  5  3  1  0  0  0  0
  6  7  1  0  0  0  0
  6 10  2  0  0  0  0
  7  1  1  0  0  0  0
  9 10  1  0  0  0  0
 10  4  1  0  0  0  0
 11  2  1  0  0  0  0
 12 11  1  0  0  0  0
 13 12  1  0  0  0  0
 14 13  2  0  0  0  0
 15 13  1  0  0  0  0
 16 13  1  0  0  0  0
 17 18  1  0  0  0  0
 18 27  1  0  0  0  0
 19 20  1  0  0  0  0
 20 25  1  0  0  0  0
 20 26  1  0  0  0  0
 21 19  1  0  0  0  0
 22 25  2  0  0  0  0
 23 21  2  0  0  0  0
 24 23  1  0  0  0  0
 24 18  2  0  0  0  0
 27 19  2  0  0  0  0
 27 22  1  0  0  0  0
M  END
>  <MODEL>
3

>  <REMARK>
 VINA RESULT:      -9.1      1.426      2.244
  Name = 
  5 active torsions:
  status: ('A' for Active; 'I' for Inactive)
    1  A    between atoms: C_1  and  C_5
    2  A    between atoms: C_2  and  C_5
    3  A    between atoms: C_3  and  C_6
    4  A    between atoms: C_3  and  O_11
    5  A    between atoms: P_4  and  O_11
                            x       y       z     vdW  Elec       q    Type
                         _______ _______ _______ _____ _____    ______ ____

>  <TORSDO>
F 5

$$$$
=
 OpenBabel11072412243D

 27 30  0  0  1  0  0  0  0  0999 V2000
  161.4410  206.1180  151.7370 C   0  0  1  0  0  3  0  0  0  0  0  0
  161.2860  203.5010  148.9570 C   0  0  0  0  0  0  0  0  0  0  0  0
  160.6940  202.3000  149.3000 C   0  0  0  0  0  0  0  0  0  0  0  0
  160.5510  203.8690  152.5100 C   0  0  0  0  0  2  0  0  0  0  0  0
  160.4690  201.2090  148.4140 N   0  0  0  0  0  1  0  0  0  0  0  0
  161.3030  204.2350  150.1210 C   0  0  0  0  0  0  0  0  0  0  0  0
  161.9470  205.5560  150.3980 C   0  0  0  0  0  2  0  0  0  0  0  0
  161.4840  205.0460  152.8360 C   0  0  0  0  0  2  0  0  0  0  0  0
  160.3670  202.2850  150.5750 O   0  0  0  0  0  0  0  0  0  0  0  0
  160.7370  203.4370  151.0900 C   0  0  0  0  0  0  0  0  0  0  0  0
  161.8710  203.8800  147.6390 C   0  0  0  0  0  2  0  0  0  0  0  0
  160.9170  204.5570  146.8770 O   0  0  0  0  0  0  0  0  0  0  0  0
  161.7890  205.7000  145.9810 P   0  0  0  0  0  0  0  0  0  0  0  0
  161.0110  205.9930  144.5070 O   0  0  0  0  0  0  0  0  0  0  0  0
  163.1770  205.1660  145.7110 O   0  0  0  0  0  1  0  0  0  0  0  0
  161.9120  207.1470  146.8500 O   0  0  0  0  0  1  0  0  0  0  0  0
  162.2810  207.3150  152.1600 C   0  0  0  0  0  2  0  0  0  0  0  0
  161.4200  208.4160  152.6880 C   0  0  0  0  0  0  0  0  0  0  0  0
  160.3230  209.5170  154.5270 C   0  0  0  0  0  0  0  0  0  0  0  0
  160.1950  209.3900  155.9280 N   0  0  0  0  0  0  0  0  0  0  0  0
  159.7520  210.4770  153.6900 C   0  0  0  0  0  3  0  0  0  0  0  0
  161.5830  207.6960  155.1070 N   0  0  0  0  0  0  0  0  0  0  0  0
  160.0290  210.3910  152.3140 C   0  0  0  0  0  3  0  0  0  0  0  0
  160.8560  209.3630  151.8150 C   0  0  0  0  0  3  0  0  0  0  0  0
  161.0130  208.2490  156.3450 C   0  0  0  0  0  3  0  0  0  0  0  0
  159.6130  210.3730  156.8240 C   0  0  0  0  0  1  0  0  0  0  0  0
  161.1240  208.5270  154.0490 C   0  0  0  0  0  0  0  0  0  0  0  0
  1 17  1  1  0  0  0
  1  8  1  0  0  0  0
  2  3  2  0  0  0  0
  2  6  1  0  0  0  0
  3  9  1  0  0  0  0
  4  8  1  0  0  0  0
  5  3  1  0  0  0  0
  6  7  1  0  0  0  0
  6 10  2  0  0  0  0
  7  1  1  0  0  0  0
  9 10  1  0  0  0  0
 10  4  1  0  0  0  0
 11  2  1  0  0  0  0
 12 11  1  0  0  0  0
 13 16  1  0  0  0  0
 13 12  1  0  0  0  0
 14 13  2  0  0  0  0
 15 13  1  0  0  0  0
 17 18  1  0  0  0  0
 18 27  1  0  0  0  0
 19 20  1  0  0  0  0
 20 25  1  0  0  0  0
 20 26  1  0  0  0  0
 21 19  1  0  0  0  0
 22 25  2  0  0  0  0
 23 21  2  0  0  0  0
 24 23  1  0  0  0  0
 24 18  2  0  0  0  0
 27 19  2  0  0  0  0
 27 22  1  0  0  0  0
M  END
>  <MODEL>
4

>  <REMARK>
 VINA RESULT:      -8.5      1.243      2.072
  Name = 
  5 active torsions:
  status: ('A' for Active; 'I' for Inactive)
    1  A    between atoms: C_1  and  C_5
    2  A    between atoms: C_2  and  C_5
    3  A    between atoms: C_3  and  C_6
    4  A    between atoms: C_3  and  O_11
    5  A    between atoms: P_4  and  O_11
                            x       y       z     vdW  Elec       q    Type
                         _______ _______ _______ _____ _____    ______ ____

>  <TORSDO>
F 5

$$$$
=
 OpenBabel11072412243D

 27 30  0  0  1  0  0  0  0  0999 V2000
  161.1520  207.8920  152.0370 C   0  0  1  0  0  3  0  0  0  0  0  0
  160.7960  204.9450  149.6300 C   0  0  0  0  0  0  0  0  0  0  0  0
  160.7410  203.6960  150.2190 C   0  0  0  0  0  0  0  0  0  0  0  0
  161.2880  205.6270  153.1790 C   0  0  0  0  0  2  0  0  0  0  0  0
  160.5460  202.4670  149.5290 N   0  0  0  0  0  1  0  0  0  0  0  0
  161.0080  205.8210  150.6700 C   0  0  0  0  0  0  0  0  0  0  0  0
  161.2940  207.2880  150.6300 C   0  0  0  0  0  2  0  0  0  0  0  0
  161.8900  207.0380  153.0800 C   0  0  0  0  0  2  0  0  0  0  0  0
  160.9040  203.7850  151.5230 O   0  0  0  0  0  0  0  0  0  0  0  0
  161.0790  205.0550  151.8120 C   0  0  0  0  0  0  0  0  0  0  0  0
  160.7420  205.2650  148.1750 C   0  0  0  0  0  2  0  0  0  0  0  0
  162.0250  205.5580  147.7080 O   0  0  0  0  0  0  0  0  0  0  0  0
  162.1130  204.8570  146.1690 P   0  0  0  0  0  0  0  0  0  0  0  0
  161.3980  203.3230  146.1930 O   0  0  0  0  0  1  0  0  0  0  0  0
  163.5640  204.7210  145.7680 O   0  0  0  0  0  1  0  0  0  0  0  0
  161.3140  205.8330  145.0400 O   0  0  0  0  0  0  0  0  0  0  0  0
  161.7000  209.3110  152.0620 C   0  0  0  0  0  2  0  0  0  0  0  0
  160.6920  210.2670  152.6130 C   0  0  0  0  0  0  0  0  0  0  0  0
  159.4410  212.3170  152.4470 C   0  0  0  0  0  0  0  0  0  0  0  0
  159.2780  213.4020  151.5570 N   0  0  0  0  0  0  0  0  0  0  0  0
  158.8140  212.1050  153.6750 C   0  0  0  0  0  3  0  0  0  0  0  0
  160.8180  211.8810  150.6710 N   0  0  0  0  0  0  0  0  0  0  0  0
  159.1470  210.9380  154.3850 C   0  0  0  0  0  3  0  0  0  0  0  0
  160.0840  210.0240  153.8590 C   0  0  0  0  0  3  0  0  0  0  0  0
  160.1240  213.1470  150.3890 C   0  0  0  0  0  3  0  0  0  0  0  0
  158.2500  214.4250  151.6370 C   0  0  0  0  0  1  0  0  0  0  0  0
  160.3420  211.4370  151.9340 C   0  0  0  0  0  0  0  0  0  0  0  0
  1 17  1  6  0  0  0
  1  8  1  0  0  0  0
  2  3  2  0  0  0  0
  2  6  1  0  0  0  0
  3  9  1  0  0  0  0
  5  3  1  0  0  0  0
  6 10  2  0  0  0  0
  7  6  1  0  0  0  0
  7  1  1  0  0  0  0
  8  4  1  0  0  0  0
  9 10  1  0  0  0  0
 10  4  1  0  0  0  0
 11  2  1  0  0  0  0
 12 11  1  0  0  0  0
 13 14  1  0  0  0  0
 13 12  1  0  0  0  0
 15 13  1  0  0  0  0
 16 13  2  0  0  0  0
 17 18  1  0  0  0  0
 18 24  1  0  0  0  0
 19 21  2  0  0  0  0
 20 26  1  0  0  0  0
 20 19  1  0  0  0  0
 21 23  1  0  0  0  0
 22 27  1  0  0  0  0
 24 23  2  0  0  0  0
 25 22  2  0  0  0  0
 25 20  1  0  0  0  0
 27 19  1  0  0  0  0
 27 18  2  0  0  0  0
M  END
>  <MODEL>
5

>  <REMARK>
 VINA RESULT:      -8.5      1.877      2.740
  Name = 
  5 active torsions:
  status: ('A' for Active; 'I' for Inactive)
    1  A    between atoms: C_1  and  C_5
    2  A    between atoms: C_2  and  C_5
    3  A    between atoms: C_3  and  C_6
    4  A    between atoms: C_3  and  O_11
    5  A    between atoms: P_4  and  O_11
                            x       y       z     vdW  Elec       q    Type
                         _______ _______ _______ _____ _____    ______ ____

>  <TORSDO>
F 5

$$$$
=
 OpenBabel11072412243D

 27 30  0  0  1  0  0  0  0  0999 V2000
  160.6540  209.4190  153.7660 C   0  0  1  0  0  3  0  0  0  0  0  0
  161.3900  206.5080  151.4020 C   0  0  0  0  0  0  0  0  0  0  0  0
  161.3360  205.2490  151.9700 C   0  0  0  0  0  0  0  0  0  0  0  0
  160.7600  207.1660  154.9340 C   0  0  0  0  0  2  0  0  0  0  0  0
  161.5110  204.0210  151.2730 N   0  0  0  0  0  1  0  0  0  0  0  0
  161.1800  207.3800  152.4460 C   0  0  0  0  0  0  0  0  0  0  0  0
  161.2680  208.8720  152.4660 C   0  0  0  0  0  2  0  0  0  0  0  0
  161.1730  208.6460  154.9880 C   0  0  0  0  0  2  0  0  0  0  0  0
  161.1100  205.3280  153.2650 O   0  0  0  0  0  0  0  0  0  0  0  0
  161.0250  206.6040  153.5730 C   0  0  0  0  0  0  0  0  0  0  0  0
  161.7090  206.8520  149.9870 C   0  0  0  0  0  2  0  0  0  0  0  0
  160.6050  206.5810  149.1760 O   0  0  0  0  0  0  0  0  0  0  0  0
  161.2490  205.9750  147.7310 P   0  0  0  0  0  0  0  0  0  0  0  0
  161.4620  204.3010  147.8530 O   0  0  0  0  0  1  0  0  0  0  0  0
  162.5880  206.6270  147.4730 O   0  0  0  0  0  1  0  0  0  0  0  0
  160.2070  206.3180  146.4420 O   0  0  0  0  0  0  0  0  0  0  0  0
  160.9780  210.8970  153.9240 C   0  0  0  0  0  2  0  0  0  0  0  0
  159.7880  211.7450  153.6110 C   0  0  0  0  0  0  0  0  0  0  0  0
  157.6580  212.6770  154.2360 C   0  0  0  0  0  0  0  0  0  0  0  0
  156.7760  212.6840  155.3390 N   0  0  0  0  0  0  0  0  0  0  0  0
  157.5080  213.3170  153.0050 C   0  0  0  0  0  3  0  0  0  0  0  0
  158.6610  211.3980  155.8480 N   0  0  0  0  0  0  0  0  0  0  0  0
  158.5340  213.1550  152.0560 C   0  0  0  0  0  3  0  0  0  0  0  0
  159.6670  212.3710  152.3560 C   0  0  0  0  0  3  0  0  0  0  0  0
  157.3970  211.8970  156.4070 C   0  0  0  0  0  3  0  0  0  0  0  0
  155.6190  213.5460  155.5010 C   0  0  0  0  0  1  0  0  0  0  0  0
  158.7510  211.9230  154.5300 C   0  0  0  0  0  0  0  0  0  0  0  0
  1 17  1  1  0  0  0
  1  8  1  0  0  0  0
  2  3  2  0  0  0  0
  2  6  1  0  0  0  0
  3  9  1  0  0  0  0
  4  8  1  0  0  0  0
  5  3  1  0  0  0  0
  6  7  1  0  0  0  0
  6 10  2  0  0  0  0
  7  1  1  0  0  0  0
  9 10  1  0  0  0  0
 10  4  1  0  0  0  0
 11  2  1  0  0  0  0
 12 11  1  0  0  0  0
 13 14  1  0  0  0  0
 13 12  1  0  0  0  0
 15 13  1  0  0  0  0
 16 13  2  0  0  0  0
 18 17  1  0  0  0  0
 18 27  1  0  0  0  0
 19 27  2  0  0  0  0
 19 20  1  0  0  0  0
 20 26  1  0  0  0  0
 20 25  1  0  0  0  0
 21 19  1  0  0  0  0
 22 25  2  0  0  0  0
 23 24  1  0  0  0  0
 23 21  2  0  0  0  0
 24 18  2  0  0  0  0
 27 22  1  0  0  0  0
M  END
>  <MODEL>
6

>  <REMARK>
 VINA RESULT:      -8.3      2.301      4.193
  Name = 
  5 active torsions:
  status: ('A' for Active; 'I' for Inactive)
    1  A    between atoms: C_1  and  C_5
    2  A    between atoms: C_2  and  C_5
    3  A    between atoms: C_3  and  C_6
    4  A    between atoms: C_3  and  O_11
    5  A    between atoms: P_4  and  O_11
                            x       y       z     vdW  Elec       q    Type
                         _______ _______ _______ _____ _____    ______ ____

>  <TORSDO>
F 5

$$$$
=
 OpenBabel11072412243D

 27 30  0  0  1  0  0  0  0  0999 V2000
  161.3920  205.6680  150.7720 C   0  0  1  0  0  3  0  0  0  0  0  0
  161.1420  208.6560  153.1400 C   0  0  0  0  0  0  0  0  0  0  0  0
  161.1800  208.3550  154.4890 C   0  0  0  0  0  0  0  0  0  0  0  0
  161.2390  205.0120  153.2200 C   0  0  0  0  0  2  0  0  0  0  0  0
  161.1680  209.3060  155.5470 N   0  0  0  0  0  1  0  0  0  0  0  0
  161.1600  207.4380  152.5010 C   0  0  0  0  0  0  0  0  0  0  0  0
  160.9940  207.1280  151.0480 C   0  0  0  0  0  2  0  0  0  0  0  0
  160.7490  204.7180  151.7930 C   0  0  0  0  0  2  0  0  0  0  0  0
  161.2200  207.0520  154.6770 O   0  0  0  0  0  0  0  0  0  0  0  0
  161.1960  206.4820  153.4920 C   0  0  0  0  0  0  0  0  0  0  0  0
  161.0060  210.0030  152.5150 C   0  0  0  0  0  2  0  0  0  0  0  0
  159.6550  210.3250  152.3770 O   0  0  0  0  0  0  0  0  0  0  0  0
  159.5310  211.9480  152.8470 P   0  0  0  0  0  0  0  0  0  0  0  0
  160.0810  212.9530  151.6010 O   0  0  0  0  0  0  0  0  0  0  0  0
  160.3800  212.1750  154.0760 O   0  0  0  0  0  1  0  0  0  0  0  0
  157.9210  212.3270  153.2070 O   0  0  0  0  0  1  0  0  0  0  0  0
  160.9750  205.2620  149.3660 C   0  0  0  0  0  2  0  0  0  0  0  0
  160.9420  203.7760  149.2230 C   0  0  0  0  0  0  0  0  0  0  0  0
  160.9400  201.8050  147.8390 C   0  0  0  0  0  0  0  0  0  0  0  0
  161.0080  201.4580  146.4710 N   0  0  0  0  0  0  0  0  0  0  0  0
  160.8350  200.9570  148.9420 C   0  0  0  0  0  3  0  0  0  0  0  0
  161.1110  203.7830  146.6990 N   0  0  0  0  0  0  0  0  0  0  0  0
  160.7790  201.5480  150.2170 C   0  0  0  0  0  3  0  0  0  0  0  0
  160.8290  202.9510  150.3570 C   0  0  0  0  0  3  0  0  0  0  0  0
  161.1490  202.6990  145.7070 C   0  0  0  0  0  3  0  0  0  0  0  0
  161.2060  200.1210  145.9390 C   0  0  0  0  0  1  0  0  0  0  0  0
  160.9920  203.1580  147.9700 C   0  0  0  0  0  0  0  0  0  0  0  0
  1 17  1  6  0  0  0
  1  7  1  0  0  0  0
  1  8  1  0  0  0  0
  2  3  2  0  0  0  0
  3  9  1  0  0  0  0
  3  5  1  0  0  0  0
  4 10  1  0  0  0  0
  6  2  1  0  0  0  0
  6 10  2  0  0  0  0
  7  6  1  0  0  0  0
  8  4  1  0  0  0  0
 10  9  1  0  0  0  0
 11  2  1  0  0  0  0
 12 11  1  0  0  0  0
 12 13  1  0  0  0  0
 13 16  1  0  0  0  0
 13 15  1  0  0  0  0
 14 13  2  0  0  0  0
 18 17  1  0  0  0  0
 18 24  1  0  0  0  0
 19 27  1  0  0  0  0
 19 21  2  0  0  0  0
 20 19  1  0  0  0  0
 21 23  1  0  0  0  0
 22 27  1  0  0  0  0
 23 24  2  0  0  0  0
 25 20  1  0  0  0  0
 25 22  2  0  0  0  0
 26 20  1  0  0  0  0
 27 18  2  0  0  0  0
M  END
>  <MODEL>
7

>  <REMARK>
 VINA RESULT:      -8.3      4.418      8.478
  Name = 
  5 active torsions:
  status: ('A' for Active; 'I' for Inactive)
    1  A    between atoms: C_1  and  C_5
    2  A    between atoms: C_2  and  C_5
    3  A    between atoms: C_3  and  C_6
    4  A    between atoms: C_3  and  O_11
    5  A    between atoms: P_4  and  O_11
                            x       y       z     vdW  Elec       q    Type
                         _______ _______ _______ _____ _____    ______ ____

>  <TORSDO>
F 5

$$$$
=
 OpenBabel11072412243D

 27 30  0  0  1  0  0  0  0  0999 V2000
  161.3760  206.3710  149.7260 C   0  0  1  0  0  3  0  0  0  0  0  0
  160.8550  208.6770  152.7280 C   0  0  0  0  0  0  0  0  0  0  0  0
  161.0650  210.0230  152.4920 C   0  0  0  0  0  0  0  0  0  0  0  0
  162.0030  208.7890  149.2690 C   0  0  0  0  0  2  0  0  0  0  0  0
  160.8690  211.0670  153.4380 N   0  0  0  0  0  1  0  0  0  0  0  0
  161.1810  208.0520  151.5470 C   0  0  0  0  0  0  0  0  0  0  0  0
  161.2850  206.5920  151.2460 C   0  0  0  0  0  2  0  0  0  0  0  0
  162.4080  207.3170  149.0930 C   0  0  0  0  0  2  0  0  0  0  0  0
  161.4890  210.2220  151.2610 O   0  0  0  0  0  0  0  0  0  0  0  0
  161.5770  209.0460  150.6790 C   0  0  0  0  0  0  0  0  0  0  0  0
  160.4590  208.0330  154.0140 C   0  0  0  0  0  2  0  0  0  0  0  0
  161.5790  207.8950  154.8360 O   0  0  0  0  0  0  0  0  0  0  0  0
  161.0540  208.3370  156.3850 P   0  0  0  0  0  0  0  0  0  0  0  0
  162.3390  209.0040  157.2610 O   0  0  0  0  0  1  0  0  0  0  0  0
  160.5480  207.1090  157.1060 O   0  0  0  0  0  1  0  0  0  0  0  0
  159.8020  209.4700  156.2720 O   0  0  0  0  0  0  0  0  0  0  0  0
  161.7530  204.9290  149.4210 C   0  0  0  0  0  2  0  0  0  0  0  0
  161.5410  204.6110  147.9770 C   0  0  0  0  0  0  0  0  0  0  0  0
  160.9810  203.0420  146.2390 C   0  0  0  0  0  0  0  0  0  0  0  0
  160.5920  201.6920  146.1010 N   0  0  0  0  0  0  0  0  0  0  0  0
  161.1800  203.9910  145.2350 C   0  0  0  0  0  3  0  0  0  0  0  0
  160.8750  202.2030  148.3660 N   0  0  0  0  0  0  0  0  0  0  0  0
  161.5740  205.2830  145.6260 C   0  0  0  0  0  3  0  0  0  0  0  0
  161.7570  205.5910  146.9900 C   0  0  0  0  0  3  0  0  0  0  0  0
  160.4830  201.1240  147.4470 C   0  0  0  0  0  3  0  0  0  0  0  0
  160.1000  201.0640  144.8880 C   0  0  0  0  0  1  0  0  0  0  0  0
  161.1530  203.3370  147.5560 C   0  0  0  0  0  0  0  0  0  0  0  0
  1 17  1  1  0  0  0
  1  7  1  0  0  0  0
  2 11  1  0  0  0  0
  3  2  2  0  0  0  0
  3  5  1  0  0  0  0
  4 10  1  0  0  0  0
  6  2  1  0  0  0  0
  7  6  1  0  0  0  0
  8  4  1  0  0  0  0
  8  1  1  0  0  0  0
  9  3  1  0  0  0  0
 10  9  1  0  0  0  0
 10  6  2  0  0  0  0
 11 12  1  0  0  0  0
 12 13  1  0  0  0  0
 13 15  1  0  0  0  0
 13 14  1  0  0  0  0
 16 13  2  0  0  0  0
 18 17  1  0  0  0  0
 19 27  2  0  0  0  0
 20 19  1  0  0  0  0
 20 25  1  0  0  0  0
 21 23  2  0  0  0  0
 21 19  1  0  0  0  0
 23 24  1  0  0  0  0
 24 18  2  0  0  0  0
 25 22  2  0  0  0  0
 26 20  1  0  0  0  0
 27 18  1  0  0  0  0
 27 22  1  0  0  0  0
M  END
>  <MODEL>
8

>  <REMARK>
 VINA RESULT:      -8.2      4.535      9.253
  Name = 
  5 active torsions:
  status: ('A' for Active; 'I' for Inactive)
    1  A    between atoms: C_1  and  C_5
    2  A    between atoms: C_2  and  C_5
    3  A    between atoms: C_3  and  C_6
    4  A    between atoms: C_3  and  O_11
    5  A    between atoms: P_4  and  O_11
                            x       y       z     vdW  Elec       q    Type
                         _______ _______ _______ _____ _____    ______ ____

>  <TORSDO>
F 5

$$$$
=
 OpenBabel11072412243D

 27 30  0  0  1  0  0  0  0  0999 V2000
  160.8730  208.6650  152.0100 C   0  0  1  0  0  3  0  0  0  0  0  0
  159.0990  211.4010  154.0020 C   0  0  0  0  0  0  0  0  0  0  0  0
  159.2590  212.6880  153.5220 C   0  0  0  0  0  0  0  0  0  0  0  0
  161.4030  211.0130  151.2020 C   0  0  0  0  0  2  0  0  0  0  0  0
  158.6410  213.8510  154.0610 N   0  0  0  0  0  1  0  0  0  0  0  0
  159.8840  210.6170  153.1880 C   0  0  0  0  0  0  0  0  0  0  0  0
  160.2200  209.1660  153.3100 C   0  0  0  0  0  2  0  0  0  0  0  0
  161.9750  209.6260  151.5410 C   0  0  0  0  0  2  0  0  0  0  0  0
  160.0780  212.7050  152.4920 O   0  0  0  0  0  0  0  0  0  0  0  0
  160.4750  211.4700  152.2820 C   0  0  0  0  0  0  0  0  0  0  0  0
  158.3260  210.9690  155.2010 C   0  0  0  0  0  2  0  0  0  0  0  0
  156.9610  210.9680  154.9070 O   0  0  0  0  0  0  0  0  0  0  0  0
  156.2420  211.9120  156.1160 P   0  0  0  0  0  0  0  0  0  0  0  0
  157.4030  212.3660  157.2600 O   0  0  0  0  0  1  0  0  0  0  0  0
  155.1620  211.1050  156.7990 O   0  0  0  0  0  1  0  0  0  0  0  0
  155.5510  213.2990  155.4350 O   0  0  0  0  0  0  0  0  0  0  0  0
  161.4630  207.2770  152.2140 C   0  0  0  0  0  2  0  0  0  0  0  0
  161.2460  206.4180  151.0110 C   0  0  0  0  0  0  0  0  0  0  0  0
  160.9790  204.2440  150.0110 C   0  0  0  0  0  0  0  0  0  0  0  0
  160.9230  202.8870  150.4000 N   0  0  0  0  0  0  0  0  0  0  0  0
  160.8780  204.7800  148.7270 C   0  0  0  0  0  3  0  0  0  0  0  0
  161.2120  204.2350  152.2880 N   0  0  0  0  0  0  0  0  0  0  0  0
  160.9680  206.1780  148.5940 C   0  0  0  0  0  3  0  0  0  0  0  0
  161.1540  206.9920  149.7300 C   0  0  0  0  0  3  0  0  0  0  0  0
  161.0390  202.8400  151.8590 C   0  0  0  0  0  3  0  0  0  0  0  0
  160.5240  201.7730  149.5570 C   0  0  0  0  0  1  0  0  0  0  0  0
  161.1550  205.0270  151.1090 C   0  0  0  0  0  0  0  0  0  0  0  0
  1 17  1  1  0  0  0
  1  7  1  0  0  0  0
  2 11  1  0  0  0  0
  3  2  2  0  0  0  0
  3  5  1  0  0  0  0
  4  8  1  0  0  0  0
  4 10  1  0  0  0  0
  6  7  1  0  0  0  0
  6  2  1  0  0  0  0
  8  1  1  0  0  0  0
  9  3  1  0  0  0  0
 10  9  1  0  0  0  0
 10  6  2  0  0  0  0
 12 11  1  0  0  0  0
 12 13  1  0  0  0  0
 13 15  1  0  0  0  0
 13 14  1  0  0  0  0
 16 13  2  0  0  0  0
 18 27  1  0  0  0  0
 18 17  1  0  0  0  0
 19 20  1  0  0  0  0
 19 27  2  0  0  0  0
 20 25  1  0  0  0  0
 21 19  1  0  0  0  0
 23 21  2  0  0  0  0
 23 24  1  0  0  0  0
 24 18  2  0  0  0  0
 25 22  2  0  0  0  0
 26 20  1  0  0  0  0
 27 22  1  0  0  0  0
M  END
>  <MODEL>
9

>  <REMARK>
 VINA RESULT:      -8.1      5.873      9.389
  Name = 
  5 active torsions:
  status: ('A' for Active; 'I' for Inactive)
    1  A    between atoms: C_1  and  C_5
    2  A    between atoms: C_2  and  C_5
    3  A    between atoms: C_3  and  C_6
    4  A    between atoms: C_3  and  O_11
    5  A    between atoms: P_4  and  O_11
                            x       y       z     vdW  Elec       q    Type
                         _______ _______ _______ _____ _____    ______ ____

>  <TORSDO>
F 5

$$$$
