=
 OpenBabel11072412443D

 55 63  0  0  1  0  0  0  0  0999 V2000
  162.3400  206.5860  147.2710 C   0  0  0  0  0  3  0  0  0  0  0  0
  161.6750  208.3520  151.5690 C   0  0  2  0  0  3  0  0  0  0  0  0
  162.0900  207.8390  149.3090 C   0  0  0  0  0  0  0  0  0  0  0  0
  162.6860  207.6960  148.0540 C   0  0  0  0  0  3  0  0  0  0  0  0
  160.8300  205.8030  149.0130 C   0  0  0  0  0  3  0  0  0  0  0  0
  162.2790  208.9600  150.2690 C   0  0  1  0  0  3  0  0  0  0  0  0
  161.4010  205.6450  147.7370 C   0  0  0  0  0  0  0  0  0  0  0  0
  160.6900  207.2620  151.1170 C   0  0  0  0  0  2  0  0  0  0  0  0
  161.1910  206.9140  149.7750 C   0  0  0  0  0  0  0  0  0  0  0  0
  161.9500  204.4290  145.6560 C   0  0  0  0  0  2  0  0  0  0  0  0
  160.5040  204.8550  145.5530 C   0  0  0  0  0  2  0  0  0  0  0  0
  161.0760  204.4430  146.9000 C   0  0  0  0  0  3  0  0  0  0  0  0
  161.4860  210.1720  149.7620 C   0  0  2  0  0  3  0  0  0  0  0  0
  162.2430  210.8280  148.6190 C   0  0  2  0  0  3  0  0  0  0  0  0
  162.2630  211.4530  149.9940 C   0  0  0  0  0  2  0  0  0  0  0  0
  161.2530  211.5610  147.7390 C   0  0  0  0  0  2  0  0  0  0  0  0
  161.5250  213.0580  147.7900 C   0  0  2  0  0  3  0  0  0  0  0  0
  159.5770  214.1120  146.4820 C   0  0  2  0  0  3  0  0  0  0  0  0
  160.0660  212.8790  145.8500 C   0  0  2  0  0  3  0  0  0  0  0  0
  161.0220  213.7430  146.5700 N   0  0  0  0  0  0  0  0  0  0  0  0
  156.8240  212.8240  148.7670 C   0  0  0  0  0  3  0  0  0  0  0  0
  158.4340  214.0170  150.1260 C   0  0  0  0  0  0  0  0  0  0  0  0
  159.1880  214.2980  148.9830 C   0  0  0  0  0  3  0  0  0  0  0  0
  158.7480  213.8700  147.7190 C   0  0  0  0  0  0  0  0  0  0  0  0
  158.8560  214.4490  151.3400 F   0  0  0  0  0  0  0  0  0  0  0  0
  157.5760  213.1080  147.6240 C   0  0  0  0  0  3  0  0  0  0  0  0
  157.2490  213.2830  150.0180 C   0  0  0  0  0  3  0  0  0  0  0  0
  160.2000  213.0970  144.3520 C   0  0  1  0  0  3  0  0  0  0  0  0
  162.3940  212.8720  143.3670 O   0  0  0  0  0  1  0  0  0  0  0  0
  161.5330  213.7660  144.0110 C   0  0  0  0  0  2  0  0  0  0  0  0
  160.0370  211.7670  143.6220 C   0  0  0  0  0  2  0  0  0  0  0  0
  160.3230  211.2200  141.3190 O   0  0  0  0  0  0  0  0  0  0  0  0
  159.7940  211.9850  142.1670 C   0  0  0  0  0  0  0  0  0  0  0  0
  158.9590  213.0120  141.7500 O   0  0  0  0  0  1  0  0  0  0  0  0
  162.8680  213.3170  148.1040 O   0  0  0  0  0  0  0  0  0  0  0  0
  163.2200  214.4070  147.3100 C   0  0  0  0  0  1  0  0  0  0  0  0
  161.1320  209.3510  152.6240 C   0  0  1  0  0  3  0  0  0  0  0  0
  160.2600  212.4260  156.8580 O   0  0  0  0  0  1  0  0  0  0  0  0
  161.5210  207.5670  156.1720 C   0  0  0  0  0  2  0  0  0  0  0  0
  161.1650  210.1900  155.0940 C   0  0  1  0  0  3  0  0  0  0  0  0
  159.7950  213.5520  154.9470 O   0  0  0  0  0  1  0  0  0  0  0  0
  159.7090  209.9010  155.4780 C   0  0  1  0  0  0  0  0  0  0  0  0
  157.5150  210.9690  155.4660 C   0  0  0  0  0  0  0  0  0  0  0  0
  161.5860  209.0990  154.0910 C   0  0  1  0  0  3  0  0  0  0  0  0
  160.2130  207.7750  156.9460 C   0  0  0  0  0  2  0  0  0  0  0  0
  160.1350  211.2090  154.7560 C   0  0  1  0  0  3  0  0  0  0  0  0
  156.2660  210.8860  155.5920 O   0  0  0  0  0  0  0  0  0  0  0  0
  158.3000  209.7980  154.9080 C   0  0  0  0  0  2  0  0  0  0  0  0
  161.3040  207.6860  154.6540 C   0  0  0  0  0  2  0  0  0  0  0  0
  159.8160  209.5430  157.2600 S   0  0  0  0  0  0  0  0  0  0  0  0
  159.6000  212.3520  155.6280 C   0  0  0  0  0  0  0  0  0  0  0  0
  158.1850  212.1590  155.8290 O   0  0  0  0  0  0  0  0  0  0  0  0
  161.4880  210.7960  152.2310 C   0  0  0  0  0  2  0  0  0  0  0  0
  160.2930  211.7460  152.2550 C   0  0  0  0  0  2  0  0  0  0  0  0
  159.1110  211.0430  152.0210 O   0  0  0  0  0  1  0  0  0  0  0  0
  1  7  2  0  0  0  0
  1  4  1  0  0  0  0
  2 37  1  6  0  0  0
  3  9  1  0  0  0  0
  4  3  2  0  0  0  0
  5  9  2  0  0  0  0
  6  3  1  6  0  0  0
  6  2  1  0  0  0  0
  7  5  1  0  0  0  0
  8  2  1  0  0  0  0
  9  8  1  0  0  0  0
 10 12  1  0  0  0  0
 11 10  1  0  0  0  0
 11 12  1  0  0  0  0
 12  7  1  0  0  0  0
 13 15  1  1  0  0  0
 13  6  1  0  0  0  0
 14 16  1  6  0  0  0
 14 13  1  0  0  0  0
 14 15  1  0  0  0  0
 17 16  1  6  0  0  0
 17 35  1  0  0  0  0
 18 20  1  0  0  0  0
 18 24  1  1  0  0  0
 19 28  1  6  0  0  0
 19 18  1  0  0  0  0
 19 20  1  0  0  0  0
 20 17  1  0  0  0  0
 21 27  1  0  0  0  0
 22 25  1  0  0  0  0
 23 22  1  0  0  0  0
 24 23  2  0  0  0  0
 26 24  1  0  0  0  0
 26 21  2  0  0  0  0
 27 22  2  0  0  0  0
 28 31  1  6  0  0  0
 29 30  1  0  0  0  0
 30 28  1  0  0  0  0
 32 33  2  0  0  0  0
 33 31  1  0  0  0  0
 34 33  1  0  0  0  0
 36 35  1  0  0  0  0
 37 53  1  6  0  0  0
 37 44  1  0  0  0  0
 39 45  1  0  0  0  0
 40 42  1  0  0  0  0
 41 51  1  0  0  0  0
 42 50  1  0  0  0  0
 43 47  2  0  0  0  0
 43 52  1  0  0  0  0
 44 49  1  0  0  0  0
 44 40  1  0  0  0  0
 45 50  1  0  0  0  0
 46 40  1  0  0  0  0
 46 42  1  0  0  0  0
 46 51  1  0  0  0  0
 48 43  1  0  0  0  0
 48 42  1  0  0  0  0
 49 39  1  0  0  0  0
 51 52  1  0  0  0  0
 51 38  1  0  0  0  0
 53 54  1  0  0  0  0
 55 54  1  0  0  0  0
M  END
>  <MODEL>
1

>  <REMARK>
 VINA RESULT:      -6.0      0.000      0.000
  Name = 
  15 active torsions:
  status: ('A' for Active; 'I' for Inactive)
    1  A    between atoms: C_1  and  C_21
    2  A    between atoms: C_2  and  C_22
    3  A    between atoms: C_2  and  C_24
    4  A    between atoms: C_2  and  C_26
    5  A    between atoms: C_4  and  C_6
    6  A    between atoms: C_4  and  C_11
    7  A    between atoms: C_4  and  C_18
    8  A    between atoms: C_7  and  C_32
    9  A    between atoms: C_7  and  C_48
   10  A    between atoms: C_17  and  C_49
   11  A    between atoms: C_18  and  C_38
   12  A    between atoms: C_24  and  C_34
   13  A    between atoms: C_32  and  N_33
   14  A    between atoms: C_32  and  O_40
   15  A    between atoms: C_39  and  C_50
                            x       y       z     vdW  Elec       q    Type
                         _______ _______ _______ _____ _____    ______ ____

>  <TORSDO>
F 15

$$$$
=
 OpenBabel11072412443D

 55 63  0  0  1  0  0  0  0  0999 V2000
  162.1320  206.5890  147.2910 C   0  0  0  0  0  3  0  0  0  0  0  0
  161.8910  208.3330  151.6420 C   0  0  2  0  0  3  0  0  0  0  0  0
  162.0570  207.8360  149.3470 C   0  0  0  0  0  0  0  0  0  0  0  0
  162.5020  207.7220  148.0280 C   0  0  0  0  0  3  0  0  0  0  0  0
  160.8990  205.7240  149.2030 C   0  0  0  0  0  3  0  0  0  0  0  0
  162.2920  208.9710  150.2790 C   0  0  1  0  0  3  0  0  0  0  0  0
  161.3170  205.5940  147.8660 C   0  0  0  0  0  0  0  0  0  0  0  0
  160.9270  207.1820  151.3120 C   0  0  0  0  0  2  0  0  0  0  0  0
  161.2810  206.8590  149.9180 C   0  0  0  0  0  0  0  0  0  0  0  0
  162.2090  203.8310  146.3820 C   0  0  0  0  0  2  0  0  0  0  0  0
  161.1840  204.6030  145.5860 C   0  0  0  0  0  2  0  0  0  0  0  0
  160.9670  204.3710  147.0730 C   0  0  0  0  0  3  0  0  0  0  0  0
  161.3690  210.1280  149.8770 C   0  0  2  0  0  3  0  0  0  0  0  0
  162.0170  210.9240  148.7550 C   0  0  2  0  0  3  0  0  0  0  0  0
  162.0290  211.4620  150.1660 C   0  0  0  0  0  2  0  0  0  0  0  0
  160.9290  211.6100  147.9550 C   0  0  0  0  0  2  0  0  0  0  0  0
  161.0760  213.1200  148.0720 C   0  0  2  0  0  3  0  0  0  0  0  0
  158.7750  214.2670  148.1350 C   0  0  2  0  0  3  0  0  0  0  0  0
  158.7490  213.0120  147.3720 C   0  0  2  0  0  3  0  0  0  0  0  0
  159.9770  213.8280  147.3650 N   0  0  0  0  0  0  0  0  0  0  0  0
  160.0170  214.3250  151.7300 C   0  0  0  0  0  3  0  0  0  0  0  0
  157.7500  213.4760  151.7290 C   0  0  0  0  0  0  0  0  0  0  0  0
  157.7040  213.6040  150.3370 C   0  0  0  0  0  3  0  0  0  0  0  0
  158.8270  214.0650  149.6290 C   0  0  0  0  0  0  0  0  0  0  0  0
  156.6690  213.0130  152.4030 F   0  0  0  0  0  0  0  0  0  0  0  0
  159.9720  214.4510  150.3380 C   0  0  0  0  0  3  0  0  0  0  0  0
  158.9080  213.8320  152.4250 C   0  0  0  0  0  3  0  0  0  0  0  0
  157.9810  213.2230  146.0770 C   0  0  1  0  0  3  0  0  0  0  0  0
  155.9030  214.0580  145.1740 O   0  0  0  0  0  1  0  0  0  0  0  0
  156.6990  214.0200  146.3230 C   0  0  0  0  0  2  0  0  0  0  0  0
  158.8790  213.9060  145.0510 C   0  0  0  0  0  2  0  0  0  0  0  0
  159.6560  211.7680  144.3360 O   0  0  0  0  0  1  0  0  0  0  0  0
  159.3280  212.9380  144.0090 C   0  0  0  0  0  0  0  0  0  0  0  0
  159.3540  213.3190  142.6740 O   0  0  0  0  0  0  0  0  0  0  0  0
  162.3710  213.5300  147.7200 O   0  0  0  0  0  0  0  0  0  0  0  0
  162.3250  213.7210  146.3390 C   0  0  0  0  0  1  0  0  0  0  0  0
  161.4210  209.3020  152.7590 C   0  0  1  0  0  3  0  0  0  0  0  0
  160.2100  211.8330  157.2610 O   0  0  0  0  0  1  0  0  0  0  0  0
  160.6370  206.9710  155.9010 C   0  0  0  0  0  2  0  0  0  0  0  0
  161.0480  209.7370  155.3030 C   0  0  1  0  0  3  0  0  0  0  0  0
  160.4200  213.3070  155.5500 O   0  0  0  0  0  1  0  0  0  0  0  0
  159.5150  209.7350  155.3380 C   0  0  1  0  0  0  0  0  0  0  0  0
  157.6290  211.2680  155.1110 C   0  0  0  0  0  0  0  0  0  0  0  0
  161.4700  208.7380  154.2080 C   0  0  1  0  0  3  0  0  0  0  0  0
  159.2500  207.3580  156.4350 C   0  0  0  0  0  2  0  0  0  0  0  0
  160.3380  211.0030  154.9780 C   0  0  1  0  0  3  0  0  0  0  0  0
  156.3920  211.4560  154.9770 O   0  0  0  0  0  0  0  0  0  0  0  0
  158.2810  210.0440  154.4990 C   0  0  0  0  0  2  0  0  0  0  0  0
  160.8000  207.3600  154.4220 C   0  0  0  0  0  2  0  0  0  0  0  0
  159.1390  209.1030  157.0030 S   0  0  0  0  0  0  0  0  0  0  0  0
  159.8480  212.0960  155.9360 C   0  0  0  0  0  0  0  0  0  0  0  0
  158.4140  212.2060  155.8200 O   0  0  0  0  0  0  0  0  0  0  0  0
  162.2220  210.6160  152.7050 C   0  0  0  0  0  2  0  0  0  0  0  0
  163.6770  210.4600  153.1380 C   0  0  0  0  0  2  0  0  0  0  0  0
  163.8640  210.9990  154.4110 O   0  0  0  0  0  1  0  0  0  0  0  0
  1  7  2  0  0  0  0
  1  4  1  0  0  0  0
  2 37  1  1  0  0  0
  3  9  1  0  0  0  0
  4  3  2  0  0  0  0
  5  9  2  0  0  0  0
  6  3  1  6  0  0  0
  6  2  1  0  0  0  0
  7  5  1  0  0  0  0
  8  2  1  0  0  0  0
  9  8  1  0  0  0  0
 10 12  1  0  0  0  0
 11 10  1  0  0  0  0
 11 12  1  0  0  0  0
 12  7  1  0  0  0  0
 13 15  1  1  0  0  0
 13  6  1  0  0  0  0
 14 16  1  6  0  0  0
 14 13  1  0  0  0  0
 14 15  1  0  0  0  0
 17 16  1  6  0  0  0
 18 24  1  1  0  0  0
 19 28  1  6  0  0  0
 19 18  1  0  0  0  0
 20 19  1  0  0  0  0
 20 17  1  0  0  0  0
 20 18  1  0  0  0  0
 21 27  1  0  0  0  0
 22 25  1  0  0  0  0
 22 27  2  0  0  0  0
 23 22  1  0  0  0  0
 24 23  2  0  0  0  0
 24 26  1  0  0  0  0
 26 21  2  0  0  0  0
 28 31  1  6  0  0  0
 28 30  1  0  0  0  0
 29 30  1  0  0  0  0
 33 32  1  0  0  0  0
 33 31  1  0  0  0  0
 34 33  2  0  0  0  0
 35 17  1  0  0  0  0
 36 35  1  0  0  0  0
 37 53  1  1  0  0  0
 37 44  1  0  0  0  0
 39 45  1  0  0  0  0
 40 42  1  0  0  0  0
 41 51  1  0  0  0  0
 42 50  1  0  0  0  0
 43 52  1  0  0  0  0
 44 49  1  0  0  0  0
 44 40  1  0  0  0  0
 45 50  1  0  0  0  0
 46 40  1  0  0  0  0
 46 42  1  0  0  0  0
 46 51  1  0  0  0  0
 47 43  2  0  0  0  0
 48 43  1  0  0  0  0
 48 42  1  0  0  0  0
 49 39  1  0  0  0  0
 51 38  1  0  0  0  0
 52 51  1  0  0  0  0
 53 54  1  0  0  0  0
 54 55  1  0  0  0  0
M  END
>  <MODEL>
2

>  <REMARK>
 VINA RESULT:      -5.5      1.410      2.071
  Name = 
  15 active torsions:
  status: ('A' for Active; 'I' for Inactive)
    1  A    between atoms: C_1  and  C_21
    2  A    between atoms: C_2  and  C_22
    3  A    between atoms: C_2  and  C_24
    4  A    between atoms: C_2  and  C_26
    5  A    between atoms: C_4  and  C_6
    6  A    between atoms: C_4  and  C_11
    7  A    between atoms: C_4  and  C_18
    8  A    between atoms: C_7  and  C_32
    9  A    between atoms: C_7  and  C_48
   10  A    between atoms: C_17  and  C_49
   11  A    between atoms: C_18  and  C_38
   12  A    between atoms: C_24  and  C_34
   13  A    between atoms: C_32  and  N_33
   14  A    between atoms: C_32  and  O_40
   15  A    between atoms: C_39  and  C_50
                            x       y       z     vdW  Elec       q    Type
                         _______ _______ _______ _____ _____    ______ ____

>  <TORSDO>
F 15

$$$$
