=
 OpenBabel11072414183D

 56 60  0  0  1  0  0  0  0  0999 V2000
  159.4910  213.1630  152.2400 O   0  0  0  0  0  1  0  0  0  0  0  0
  161.3940  204.0830  151.1290 C   0  0  1  0  0  3  0  0  0  0  0  0
  160.3360  205.3460  149.1250 C   0  0  2  0  0  0  0  0  0  0  0  0
  161.3480  206.2670  148.4450 C   0  0  1  0  0  3  0  0  0  0  0  0
  159.7590  205.7650  154.1430 C   0  0  0  0  0  2  0  0  0  0  0  0
  159.3570  214.3900  148.7050 C   0  0  0  0  0  2  0  0  0  0  0  0
  160.3330  205.5040  147.6040 C   0  0  1  0  0  3  0  0  0  0  0  0
  161.2410  203.9110  153.9490 O   0  0  0  0  0  0  0  0  0  0  0  0
  162.7380  212.4210  148.5050 C   0  0  2  0  0  3  0  0  0  0  0  0
  161.8710  210.0240  148.7280 C   0  0  2  0  0  3  0  0  0  0  0  0
  160.1280  209.8600  152.8660 N   0  0  0  0  0  2  0  0  0  0  0  0
  160.1030  209.5710  154.2920 C   0  0  0  0  0  2  0  0  0  0  0  0
  159.9990  213.5400  150.9950 C   0  0  1  0  0  3  0  0  0  0  0  0
  161.7930  211.4900  153.0360 O   0  0  0  0  0  0  0  0  0  0  0  0
  162.0250  210.1790  150.2330 C   0  0  0  0  0  2  0  0  0  0  0  0
  159.0620  205.9240  149.7360 C   0  0  0  0  0  1  0  0  0  0  0  0
  160.9480  211.0950  150.8250 C   0  0  2  0  0  3  0  0  0  0  0  0
  162.1800  208.5970  148.3210 C   0  0  0  0  0  2  0  0  0  0  0  0
  161.1190  212.6020  150.4500 C   0  0  1  0  0  3  0  0  0  0  0  0
  160.5470  204.8680  151.9620 O   0  0  0  0  0  0  0  0  0  0  0  0
  162.8120  210.9740  147.9940 C   0  0  0  0  0  2  0  0  0  0  0  0
  159.4740  208.2090  154.5290 C   0  0  0  0  0  2  0  0  0  0  0  0
  160.8510  214.1940  148.4550 C   0  0  0  0  0  2  0  0  0  0  0  0
  158.8610  213.7090  149.9920 C   0  0  0  0  0  2  0  0  0  0  0  0
  160.8700  204.0170  149.6830 C   0  0  0  0  0  2  0  0  0  0  0  0
  160.9790  210.8610  152.3060 C   0  0  0  0  0  0  0  0  0  0  0  0
  160.9560  207.7300  148.5390 C   0  0  0  0  0  2  0  0  0  0  0  0
  160.4210  207.1240  154.0460 C   0  0  0  0  0  2  0  0  0  0  0  0
  160.5530  204.7820  153.3560 C   0  0  0  0  0  0  0  0  0  0  0  0
  161.3100  212.8080  148.9230 C   0  0  1  0  0  3  0  0  0  0  0  0
  163.4720  213.4110  147.5860 C   0  0  2  0  0  3  0  0  0  0  0  0
  164.2700  214.4450  148.3640 C   0  0  0  0  0  1  0  0  0  0  0  0
  162.4840  214.1040  146.6590 C   0  0  0  0  0  2  0  0  0  0  0  0
  162.9370  214.2590  144.3300 O   0  0  0  0  0  1  0  0  0  0  0  0
  162.4190  213.4070  145.3050 C   0  0  2  0  0  3  0  0  0  0  0  0
  160.5940  212.9850  143.6080 C   0  0  0  0  0  0  0  0  0  0  0  0
  161.0410  213.0750  144.9620 N   0  0  0  0  0  2  0  0  0  0  0  0
  161.5110  213.2100  142.5290 N   0  0  0  0  0  2  0  0  0  0  0  0
  159.3590  212.6880  143.3610 N   0  0  0  0  0  2  0  0  0  0  0  0
  160.7110  210.9270  138.5910 F   0  0  0  0  0  0  0  0  0  0  0  0
  162.2580  212.4910  139.1760 O   0  0  0  0  0  0  0  0  0  0  0  0
  161.5040  211.3930  139.6210 C   0  0  1  0  0  0  0  0  0  0  0  0
  162.3300  213.3900  140.2520 C   0  0  0  0  0  2  0  0  0  0  0  0
  160.6190  211.8350  140.7610 C   0  0  0  0  0  2  0  0  0  0  0  0
  161.1180  213.2000  141.1280 C   0  0  1  0  0  3  0  0  0  0  0  0
  162.4250  210.2780  140.0940 C   0  0  0  0  0  2  0  0  0  0  0  0
  161.7200  209.0770  140.1970 O   0  0  0  0  0  1  0  0  0  0  0  0
  162.8710  204.4920  151.2660 C   0  0  0  0  0  3  0  0  0  0  0  0
  163.7160  203.4760  151.9730 C   0  0  0  0  0  3  0  0  0  0  0  0
  163.3830  202.3010  151.9990 O   0  0  0  0  0  0  0  0  0  0  0  0
  163.0070  205.8340  151.9090 C   0  0  0  0  0  3  0  0  0  0  0  0
  162.4180  206.7990  151.4500 O   0  0  0  0  0  0  0  0  0  0  0  0
  161.0570  204.3960  146.8520 C   0  0  0  0  0  2  0  0  0  0  0  0
  161.2050  204.7690  145.4200 C   0  0  0  0  0  0  0  0  0  0  0  0
  161.9040  204.0570  144.6530 O   0  0  0  0  0  0  0  0  0  0  0  0
  160.6040  205.9230  144.9380 O   0  0  0  0  0  1  0  0  0  0  0  0
  2 48  1  6  0  0  0
  2 20  1  0  0  0  0
  3 25  1  0  0  0  0
  3 16  1  1  0  0  0
  4 27  1  1  0  0  0
  4  3  1  0  0  0  0
  6 24  1  0  0  0  0
  7 53  1  6  0  0  0
  7  4  1  0  0  0  0
  7  3  1  0  0  0  0
  9 31  1  6  0  0  0
  9 30  1  0  0  0  0
 10 21  1  6  0  0  0
 10 15  1  0  0  0  0
 11 12  1  0  0  0  0
 12 22  1  0  0  0  0
 13  1  1  1  0  0  0
 17 15  1  6  0  0  0
 17 26  1  0  0  0  0
 18 27  1  0  0  0  0
 18 10  1  0  0  0  0
 19 17  1  0  0  0  0
 19 13  1  0  0  0  0
 20 29  1  0  0  0  0
 21  9  1  0  0  0  0
 23  6  1  0  0  0  0
 23 30  1  0  0  0  0
 24 13  1  0  0  0  0
 25  2  1  0  0  0  0
 26 11  1  0  0  0  0
 26 14  2  0  0  0  0
 28  5  1  0  0  0  0
 28 22  1  0  0  0  0
 29  8  2  0  0  0  0
 29  5  1  0  0  0  0
 30 19  1  0  0  0  0
 31 32  1  0  0  0  0
 33 31  1  0  0  0  0
 34 35  1  0  0  0  0
 35 33  1  0  0  0  0
 36 37  1  0  0  0  0
 37 35  1  0  0  0  0
 38 36  1  0  0  0  0
 39 36  2  0  0  0  0
 40 42  1  0  0  0  0
 41 42  1  0  0  0  0
 41 43  1  0  0  0  0
 42 46  1  0  0  0  0
 42 44  1  0  0  0  0
 43 45  1  0  0  0  0
 44 45  1  0  0  0  0
 45 38  1  0  0  0  0
 46 47  1  0  0  0  0
 48 51  1  0  0  0  0
 48 49  1  0  0  0  0
 49 50  2  0  0  0  0
 52 51  2  0  0  0  0
 54 53  1  0  0  0  0
 55 54  2  0  0  0  0
 56 54  1  0  0  0  0
M  END
>  <MODEL>
1

>  <REMARK>
 VINA RESULT:       6.7      0.000      0.000
  Name = 
  11 active torsions:
  status: ('A' for Active; 'I' for Inactive)
    1  A    between atoms: C_2  and  C_9
    2  A    between atoms: C_7  and  C_22
    3  A    between atoms: C_9  and  C_13
    4  A    between atoms: C_9  and  C_27
    5  A    between atoms: C_10  and  C_22
    6  A    between atoms: C_14  and  C_24
    7  A    between atoms: C_24  and  C_34
    8  A    between atoms: C_29  and  C_43
    9  A    between atoms: N_30  and  C_52
   10  A    between atoms: N_33  and  C_55
   11  A    between atoms: C_34  and  C_52
                            x       y       z     vdW  Elec       q    Type
                         _______ _______ _______ _____ _____    ______ ____

>  <TORSDO>
F 11

$$$$
=
 OpenBabel11072414183D

 56 60  0  0  1  0  0  0  0  0999 V2000
  162.2400  202.8150  149.5450 O   0  0  0  0  0  1  0  0  0  0  0  0
  160.4420  211.4880  152.5170 C   0  0  1  0  0  3  0  0  0  0  0  0
  162.1610  211.2060  150.5940 C   0  0  2  0  0  0  0  0  0  0  0  0
  161.4730  210.8610  149.2740 C   0  0  1  0  0  3  0  0  0  0  0  0
  161.0430  208.3770  154.6490 C   0  0  0  0  0  2  0  0  0  0  0  0
  163.6000  203.4120  146.1080 C   0  0  0  0  0  2  0  0  0  0  0  0
  162.6790  211.7920  149.2800 C   0  0  1  0  0  3  0  0  0  0  0  0
  159.6350  210.2760  154.9430 O   0  0  0  0  0  0  0  0  0  0  0  0
  160.4000  205.6610  145.8640 C   0  0  2  0  0  3  0  0  0  0  0  0
  161.0430  207.5270  147.4940 C   0  0  2  0  0  3  0  0  0  0  0  0
  161.2930  205.4720  151.4810 N   0  0  0  0  0  2  0  0  0  0  0  0
  160.8280  205.0410  152.7910 C   0  0  0  0  0  2  0  0  0  0  0  0
  162.1940  203.1450  148.1890 C   0  0  1  0  0  3  0  0  0  0  0  0
  159.7370  204.1910  150.3010 O   0  0  0  0  0  0  0  0  0  0  0  0
  160.4010  206.6960  148.5940 C   0  0  0  0  0  2  0  0  0  0  0  0
  163.1800  210.2460  151.2020 C   0  0  0  0  0  1  0  0  0  0  0  0
  161.2550  205.4770  148.9590 C   0  0  2  0  0  3  0  0  0  0  0  0
  160.8280  209.0010  147.7690 C   0  0  0  0  0  2  0  0  0  0  0  0
  161.2830  204.3670  147.8600 C   0  0  1  0  0  3  0  0  0  0  0  0
  160.9940  210.2980  153.0710 O   0  0  0  0  0  0  0  0  0  0  0  0
  160.4420  207.1730  146.1370 C   0  0  0  0  0  2  0  0  0  0  0  0
  161.2840  206.0310  153.8490 C   0  0  0  0  0  2  0  0  0  0  0  0
  162.2690  203.8970  145.5370 C   0  0  0  0  0  2  0  0  0  0  0  0
  163.6070  203.3270  147.6440 C   0  0  0  0  0  2  0  0  0  0  0  0
  161.4160  212.1650  151.5360 C   0  0  0  0  0  2  0  0  0  0  0  0
  160.7210  204.9790  150.2690 C   0  0  0  0  0  0  0  0  0  0  0  0
  161.8720  209.4920  148.7520 C   0  0  0  0  0  2  0  0  0  0  0  0
  160.5090  207.3280  153.6960 C   0  0  0  0  0  2  0  0  0  0  0  0
  160.5180  209.7100  154.2450 C   0  0  0  0  0  0  0  0  0  0  0  0
  161.6220  204.9390  146.4570 C   0  0  1  0  0  3  0  0  0  0  0  0
  160.0580  205.3330  144.4010 C   0  0  2  0  0  3  0  0  0  0  0  0
  159.0790  204.1770  144.2780 C   0  0  0  0  0  1  0  0  0  0  0  0
  161.3260  205.0300  143.6170 C   0  0  0  0  0  2  0  0  0  0  0  0
  160.7710  207.2120  142.8500 O   0  0  0  0  0  1  0  0  0  0  0  0
  161.7690  206.2380  142.7990 C   0  0  2  0  0  3  0  0  0  0  0  0
  162.1040  206.8350  140.3660 C   0  0  0  0  0  0  0  0  0  0  0  0
  161.9970  205.8630  141.4080 N   0  0  0  0  0  2  0  0  0  0  0  0
  162.0000  208.2320  140.6690 N   0  0  0  0  0  2  0  0  0  0  0  0
  162.3050  206.4460  139.1480 N   0  0  0  0  0  2  0  0  0  0  0  0
  162.3740  212.6860  139.4900 F   0  0  0  0  0  0  0  0  0  0  0  0
  160.6730  211.1830  139.3090 O   0  0  0  0  0  0  0  0  0  0  0  0
  161.7610  211.6040  140.0910 C   0  0  1  0  0  0  0  0  0  0  0  0
  160.6390  209.7820  139.3900 C   0  0  0  0  0  2  0  0  0  0  0  0
  162.7550  210.4730  140.1980 C   0  0  0  0  0  2  0  0  0  0  0  0
  162.0350  209.2760  139.6550 C   0  0  1  0  0  3  0  0  0  0  0  0
  161.2890  212.0000  141.4820 C   0  0  0  0  0  2  0  0  0  0  0  0
  162.3830  212.2250  142.3210 O   0  0  0  0  0  1  0  0  0  0  0  0
  159.0220  211.2600  151.9680 C   0  0  0  0  0  3  0  0  0  0  0  0
  158.6380  212.2090  150.8750 C   0  0  0  0  0  3  0  0  0  0  0  0
  158.1360  213.2910  151.1380 O   0  0  0  0  0  0  0  0  0  0  0  0
  158.0060  211.2760  153.0640 C   0  0  0  0  0  3  0  0  0  0  0  0
  157.7610  212.3110  153.6620 O   0  0  0  0  0  0  0  0  0  0  0  0
  162.2010  213.2080  148.9890 C   0  0  0  0  0  2  0  0  0  0  0  0
  161.6680  213.2870  147.6030 C   0  0  0  0  0  0  0  0  0  0  0  0
  160.4730  213.6290  147.4070 O   0  0  0  0  0  1  0  0  0  0  0  0
  162.4760  212.9470  146.5270 O   0  0  0  0  0  0  0  0  0  0  0  0
  2 48  1  6  0  0  0
  2 20  1  0  0  0  0
  3 16  1  1  0  0  0
  3 25  1  0  0  0  0
  4 27  1  6  0  0  0
  4  7  1  0  0  0  0
  4  3  1  0  0  0  0
  6 24  1  0  0  0  0
  7 53  1  1  0  0  0
  7  3  1  0  0  0  0
  9 31  1  6  0  0  0
  9 21  1  0  0  0  0
  9 30  1  0  0  0  0
 10 21  1  6  0  0  0
 10 18  1  0  0  0  0
 10 15  1  0  0  0  0
 11 12  1  0  0  0  0
 12 22  1  0  0  0  0
 13  1  1  1  0  0  0
 17 15  1  6  0  0  0
 17 26  1  0  0  0  0
 18 27  1  0  0  0  0
 19 13  1  0  0  0  0
 19 17  1  0  0  0  0
 20 29  1  0  0  0  0
 23  6  1  0  0  0  0
 23 30  1  0  0  0  0
 24 13  1  0  0  0  0
 25  2  1  0  0  0  0
 26 14  2  0  0  0  0
 26 11  1  0  0  0  0
 28 22  1  0  0  0  0
 28  5  1  0  0  0  0
 29  5  1  0  0  0  0
 29  8  2  0  0  0  0
 30 19  1  0  0  0  0
 32 31  1  0  0  0  0
 33 31  1  0  0  0  0
 35 34  1  0  0  0  0
 35 33  1  0  0  0  0
 36 38  1  0  0  0  0
 36 37  1  0  0  0  0
 37 35  1  0  0  0  0
 39 36  2  0  0  0  0
 40 42  1  0  0  0  0
 41 43  1  0  0  0  0
 41 42  1  0  0  0  0
 42 44  1  0  0  0  0
 42 46  1  0  0  0  0
 43 45  1  0  0  0  0
 45 44  1  0  0  0  0
 45 38  1  0  0  0  0
 46 47  1  0  0  0  0
 48 51  1  0  0  0  0
 49 50  2  0  0  0  0
 49 48  1  0  0  0  0
 51 52  2  0  0  0  0
 54 53  1  0  0  0  0
 55 54  1  0  0  0  0
 56 54  2  0  0  0  0
M  END
>  <MODEL>
2

>  <REMARK>
 VINA RESULT:       7.9      2.516      7.253
  Name = 
  11 active torsions:
  status: ('A' for Active; 'I' for Inactive)
    1  A    between atoms: C_2  and  C_9
    2  A    between atoms: C_7  and  C_22
    3  A    between atoms: C_9  and  C_13
    4  A    between atoms: C_9  and  C_27
    5  A    between atoms: C_10  and  C_22
    6  A    between atoms: C_14  and  C_24
    7  A    between atoms: C_24  and  C_34
    8  A    between atoms: C_29  and  C_43
    9  A    between atoms: N_30  and  C_52
   10  A    between atoms: N_33  and  C_55
   11  A    between atoms: C_34  and  C_52
                            x       y       z     vdW  Elec       q    Type
                         _______ _______ _______ _____ _____    ______ ____

>  <TORSDO>
F 11

$$$$
=
 OpenBabel11072414183D

 56 60  0  0  1  0  0  0  0  0999 V2000
  159.5090  208.4210  156.9820 O   0  0  0  0  0  1  0  0  0  0  0  0
  157.3390  214.1190  149.9030 C   0  0  1  0  0  3  0  0  0  0  0  0
  159.8530  213.7560  150.4300 C   0  0  2  0  0  0  0  0  0  0  0  0
  160.3270  212.3760  149.9760 C   0  0  1  0  0  3  0  0  0  0  0  0
  155.7250  213.9890  153.3620 C   0  0  0  0  0  2  0  0  0  0  0  0
  163.0280  207.4370  156.1670 C   0  0  0  0  0  2  0  0  0  0  0  0
  161.2470  213.5810  149.8270 C   0  0  1  0  0  3  0  0  0  0  0  0
  154.8460  214.4520  151.1980 O   0  0  0  0  0  0  0  0  0  0  0  0
  161.4140  206.7700  152.6600 C   0  0  2  0  0  3  0  0  0  0  0  0
  160.8940  209.1720  151.9460 C   0  0  2  0  0  3  0  0  0  0  0  0
  157.8250  210.5670  154.9160 N   0  0  0  0  0  2  0  0  0  0  0  0
  156.4910  210.8570  155.4190 C   0  0  0  0  0  2  0  0  0  0  0  0
  160.5270  207.7610  156.2910 C   0  0  1  0  0  3  0  0  0  0  0  0
  157.4930  208.2560  154.8290 O   0  0  0  0  0  0  0  0  0  0  0  0
  159.5420  209.0100  152.6230 C   0  0  0  0  0  2  0  0  0  0  0  0
  159.9420  214.1520  151.9010 C   0  0  0  0  0  1  0  0  0  0  0  0
  159.6650  209.0200  154.1510 C   0  0  2  0  0  3  0  0  0  0  0  0
  160.7550  210.0520  150.7210 C   0  0  0  0  0  2  0  0  0  0  0  0
  160.3400  207.7410  154.7430 C   0  0  1  0  0  3  0  0  0  0  0  0
  157.1270  214.0910  151.3110 O   0  0  0  0  0  0  0  0  0  0  0  0
  161.4510  207.8130  151.5320 C   0  0  0  0  0  2  0  0  0  0  0  0
  156.1480  212.3130  155.1550 C   0  0  0  0  0  2  0  0  0  0  0  0
  162.6410  206.6200  154.9360 C   0  0  0  0  0  2  0  0  0  0  0  0
  161.8870  208.3230  156.6930 C   0  0  0  0  0  2  0  0  0  0  0  0
  158.8000  214.4530  149.5530 C   0  0  0  0  0  2  0  0  0  0  0  0
  158.2750  209.2330  154.6730 C   0  0  0  0  0  0  0  0  0  0  0  0
  160.7850  211.5090  151.1350 C   0  0  0  0  0  2  0  0  0  0  0  0
  155.9310  212.5190  153.6660 C   0  0  0  0  0  2  0  0  0  0  0  0
  155.8640  214.2040  151.8960 C   0  0  0  0  0  0  0  0  0  0  0  0
  161.6800  207.4040  154.0350 C   0  0  1  0  0  3  0  0  0  0  0  0
  162.2230  205.5070  152.3240 C   0  0  2  0  0  3  0  0  0  0  0  0
  163.6330  205.8270  151.8520 C   0  0  0  0  0  1  0  0  0  0  0  0
  161.4980  204.6770  151.2750 C   0  0  0  0  0  2  0  0  0  0  0  0
  161.3170  203.0060  152.9570 O   0  0  0  0  0  1  0  0  0  0  0  0
  160.6090  203.6230  151.9260 C   0  0  2  0  0  3  0  0  0  0  0  0
  160.6740  202.6340  149.6010 C   0  0  0  0  0  0  0  0  0  0  0  0
  160.2100  202.6130  150.9520 N   0  0  0  0  0  2  0  0  0  0  0  0
  161.5720  203.6610  149.1620 N   0  0  0  0  0  2  0  0  0  0  0  0
  160.2860  201.7130  148.7780 N   0  0  0  0  0  2  0  0  0  0  0  0
  162.5520  206.2560  145.4650 F   0  0  0  0  0  0  0  0  0  0  0  0
  160.9930  204.6400  145.8420 O   0  0  0  0  0  0  0  0  0  0  0  0
  161.7110  205.7040  146.4120 C   0  0  1  0  0  0  0  0  0  0  0  0
  160.8740  203.6580  146.8380 C   0  0  0  0  0  2  0  0  0  0  0  0
  162.5400  205.1790  147.5580 C   0  0  0  0  0  2  0  0  0  0  0  0
  162.0370  203.7860  147.7890 C   0  0  1  0  0  3  0  0  0  0  0  0
  160.7550  206.7720  146.9220 C   0  0  0  0  0  2  0  0  0  0  0  0
  160.7200  206.7660  148.3180 O   0  0  0  0  0  1  0  0  0  0  0  0
  156.7770  212.8630  149.2130 C   0  0  0  0  0  3  0  0  0  0  0  0
  157.6770  212.3010  148.1560 C   0  0  0  0  0  3  0  0  0  0  0  0
  157.2480  212.0570  147.0390 O   0  0  0  0  0  0  0  0  0  0  0  0
  155.4070  213.1090  148.6670 C   0  0  0  0  0  3  0  0  0  0  0  0
  155.2540  213.8130  147.6830 O   0  0  0  0  0  0  0  0  0  0  0  0
  161.3460  213.9380  148.3500 C   0  0  0  0  0  2  0  0  0  0  0  0
  161.6760  212.7240  147.5560 C   0  0  0  0  0  0  0  0  0  0  0  0
  162.8440  212.2560  147.5780 O   0  0  0  0  0  1  0  0  0  0  0  0
  160.7060  212.1280  146.7620 O   0  0  0  0  0  0  0  0  0  0  0  0
  2 48  1  1  0  0  0
  2 20  1  0  0  0  0
  3 16  1  1  0  0  0
  4  3  1  0  0  0  0
  4 27  1  1  0  0  0
  5 28  1  0  0  0  0
  6 24  1  0  0  0  0
  7 53  1  6  0  0  0
  7  4  1  0  0  0  0
  7  3  1  0  0  0  0
  8 29  2  0  0  0  0
  9 31  1  6  0  0  0
  9 30  1  0  0  0  0
 10 18  1  6  0  0  0
 10 15  1  0  0  0  0
 11 12  1  0  0  0  0
 13 24  1  0  0  0  0
 13  1  1  1  0  0  0
 17 15  1  6  0  0  0
 17 26  1  0  0  0  0
 17 19  1  0  0  0  0
 18 27  1  0  0  0  0
 19 13  1  0  0  0  0
 20 29  1  0  0  0  0
 21 10  1  0  0  0  0
 21  9  1  0  0  0  0
 22 12  1  0  0  0  0
 23  6  1  0  0  0  0
 25  2  1  0  0  0  0
 25  3  1  0  0  0  0
 26 14  2  0  0  0  0
 26 11  1  0  0  0  0
 28 22  1  0  0  0  0
 29  5  1  0  0  0  0
 30 19  1  0  0  0  0
 30 23  1  0  0  0  0
 32 31  1  0  0  0  0
 33 35  1  0  0  0  0
 33 31  1  0  0  0  0
 35 34  1  0  0  0  0
 36 37  1  0  0  0  0
 37 35  1  0  0  0  0
 38 36  1  0  0  0  0
 39 36  2  0  0  0  0
 40 42  1  0  0  0  0
 41 42  1  0  0  0  0
 41 43  1  0  0  0  0
 42 46  1  0  0  0  0
 42 44  1  0  0  0  0
 43 45  1  0  0  0  0
 44 45  1  0  0  0  0
 45 38  1  0  0  0  0
 46 47  1  0  0  0  0
 49 48  1  0  0  0  0
 50 49  2  0  0  0  0
 51 48  1  0  0  0  0
 52 51  2  0  0  0  0
 54 55  1  0  0  0  0
 54 53  1  0  0  0  0
 56 54  2  0  0  0  0
M  END
>  <MODEL>
3

>  <REMARK>
 VINA RESULT:       8.2      4.277      9.095
  Name = 
  11 active torsions:
  status: ('A' for Active; 'I' for Inactive)
    1  A    between atoms: C_2  and  C_9
    2  A    between atoms: C_7  and  C_22
    3  A    between atoms: C_9  and  C_13
    4  A    between atoms: C_9  and  C_27
    5  A    between atoms: C_10  and  C_22
    6  A    between atoms: C_14  and  C_24
    7  A    between atoms: C_24  and  C_34
    8  A    between atoms: C_29  and  C_43
    9  A    between atoms: N_30  and  C_52
   10  A    between atoms: N_33  and  C_55
   11  A    between atoms: C_34  and  C_52
                            x       y       z     vdW  Elec       q    Type
                         _______ _______ _______ _____ _____    ______ ____

>  <TORSDO>
F 11

$$$$
=
 OpenBabel11072414183D

 56 60  0  0  1  0  0  0  0  0999 V2000
  158.1210  213.7510  150.8950 O   0  0  0  0  0  1  0  0  0  0  0  0
  161.6760  205.2940  152.6670 C   0  0  1  0  0  3  0  0  0  0  0  0
  160.6150  205.6910  150.3320 C   0  0  2  0  0  0  0  0  0  0  0  0
  161.5130  206.5540  149.4480 C   0  0  1  0  0  3  0  0  0  0  0  0
  159.4870  207.4250  154.9600 C   0  0  0  0  0  2  0  0  0  0  0  0
  158.1200  213.8510  147.1520 C   0  0  0  0  0  2  0  0  0  0  0  0
  160.7320  205.3980  148.8360 C   0  0  1  0  0  3  0  0  0  0  0  0
  161.2820  205.9210  155.3970 O   0  0  0  0  0  0  0  0  0  0  0  0
  161.7960  212.6100  147.6970 C   0  0  2  0  0  3  0  0  0  0  0  0
  161.3430  210.2580  148.6000 C   0  0  2  0  0  3  0  0  0  0  0  0
  159.2600  210.9630  152.5180 N   0  0  0  0  0  2  0  0  0  0  0  0
  159.1460  211.1000  153.9620 C   0  0  0  0  0  2  0  0  0  0  0  0
  158.6740  213.8440  149.6160 C   0  0  1  0  0  3  0  0  0  0  0  0
  160.5900  212.8650  152.2540 O   0  0  0  0  0  0  0  0  0  0  0  0
  161.3190  210.8700  149.9920 C   0  0  0  0  0  2  0  0  0  0  0  0
  159.2060  206.1600  150.6860 C   0  0  0  0  0  1  0  0  0  0  0  0
  160.0470  211.6890  150.2340 C   0  0  2  0  0  3  0  0  0  0  0  0
  161.9330  208.8650  148.6580 C   0  0  0  0  0  2  0  0  0  0  0  0
  159.9880  213.0250  149.4270 C   0  0  1  0  0  3  0  0  0  0  0  0
  160.6280  206.1060  153.1870 O   0  0  0  0  0  0  0  0  0  0  0  0
  162.1700  211.1200  147.6520 C   0  0  0  0  0  2  0  0  0  0  0  0
  158.7440  209.7700  154.5750 C   0  0  0  0  0  2  0  0  0  0  0  0
  159.6420  213.8870  147.0340 C   0  0  0  0  0  2  0  0  0  0  0  0
  157.6280  213.4890  148.5630 C   0  0  0  0  0  2  0  0  0  0  0  0
  161.3150  204.7110  151.2890 C   0  0  0  0  0  2  0  0  0  0  0  0
  159.9730  211.9060  151.7160 C   0  0  0  0  0  0  0  0  0  0  0  0
  160.8640  207.8760  149.0780 C   0  0  0  0  0  2  0  0  0  0  0  0
  159.9090  208.7990  154.4830 C   0  0  0  0  0  2  0  0  0  0  0  0
  160.5130  206.4310  154.5400 C   0  0  0  0  0  0  0  0  0  0  0  0
  160.2880  212.8140  147.9190 C   0  0  1  0  0  3  0  0  0  0  0  0
  162.4320  213.4150  146.5520 C   0  0  2  0  0  3  0  0  0  0  0  0
  161.4840  214.4530  145.9740 C   0  0  0  0  0  1  0  0  0  0  0  0
  162.9150  212.4800  145.4530 C   0  0  0  0  0  2  0  0  0  0  0  0
  164.2830  214.2970  144.7600 O   0  0  0  0  0  1  0  0  0  0  0  0
  163.4830  213.2630  144.2750 C   0  0  2  0  0  3  0  0  0  0  0  0
  161.7710  213.0970  142.4220 C   0  0  0  0  0  0  0  0  0  0  0  0
  162.4080  213.8320  143.4680 N   0  0  0  0  0  2  0  0  0  0  0  0
  162.1710  211.7500  142.1400 N   0  0  0  0  0  2  0  0  0  0  0  0
  160.8240  213.6520  141.7370 N   0  0  0  0  0  2  0  0  0  0  0  0
  161.6300  210.9460  137.6210 F   0  0  0  0  0  0  0  0  0  0  0  0
  160.1700  211.5350  139.2650 O   0  0  0  0  0  0  0  0  0  0  0  0
  161.4810  211.6790  138.7820 C   0  0  1  0  0  0  0  0  0  0  0  0
  160.2610  211.4970  140.6650 C   0  0  0  0  0  2  0  0  0  0  0  0
  162.4460  211.1580  139.8190 C   0  0  0  0  0  2  0  0  0  0  0  0
  161.6160  210.9600  141.0510 C   0  0  1  0  0  3  0  0  0  0  0  0
  161.7800  213.1430  138.4970 C   0  0  0  0  0  2  0  0  0  0  0  0
  163.0260  213.4950  139.0200 O   0  0  0  0  0  1  0  0  0  0  0  0
  163.0390  206.0060  152.7330 C   0  0  0  0  0  3  0  0  0  0  0  0
  162.9430  207.5000  152.6760 C   0  0  0  0  0  3  0  0  0  0  0  0
  162.3930  208.0520  151.7360 O   0  0  0  0  0  0  0  0  0  0  0  0
  163.9720  205.4940  151.6840 C   0  0  0  0  0  3  0  0  0  0  0  0
  164.7040  206.2630  151.0820 O   0  0  0  0  0  0  0  0  0  0  0  0
  161.7090  204.2830  148.4860 C   0  0  0  0  0  2  0  0  0  0  0  0
  161.0170  203.2360  147.6860 C   0  0  0  0  0  0  0  0  0  0  0  0
  160.5440  202.2200  148.2560 O   0  0  0  0  0  1  0  0  0  0  0  0
  160.9270  203.3630  146.3070 O   0  0  0  0  0  0  0  0  0  0  0  0
  2 48  1  6  0  0  0
  2 20  1  0  0  0  0
  3 16  1  1  0  0  0
  3 25  1  0  0  0  0
  4 27  1  6  0  0  0
  4  3  1  0  0  0  0
  6 24  1  0  0  0  0
  7 53  1  1  0  0  0
  7  4  1  0  0  0  0
  7  3  1  0  0  0  0
  9 31  1  6  0  0  0
  9 30  1  0  0  0  0
 10 21  1  6  0  0  0
 10 18  1  0  0  0  0
 10 15  1  0  0  0  0
 11 12  1  0  0  0  0
 12 22  1  0  0  0  0
 13  1  1  1  0  0  0
 17 15  1  1  0  0  0
 17 26  1  0  0  0  0
 18 27  1  0  0  0  0
 19 13  1  0  0  0  0
 19 17  1  0  0  0  0
 20 29  1  0  0  0  0
 21  9  1  0  0  0  0
 23  6  1  0  0  0  0
 23 30  1  0  0  0  0
 24 13  1  0  0  0  0
 25  2  1  0  0  0  0
 26 14  2  0  0  0  0
 26 11  1  0  0  0  0
 28 22  1  0  0  0  0
 28  5  1  0  0  0  0
 29  5  1  0  0  0  0
 29  8  2  0  0  0  0
 30 19  1  0  0  0  0
 32 31  1  0  0  0  0
 33 31  1  0  0  0  0
 35 34  1  0  0  0  0
 35 33  1  0  0  0  0
 36 37  1  0  0  0  0
 37 35  1  0  0  0  0
 38 36  1  0  0  0  0
 39 36  2  0  0  0  0
 40 42  1  0  0  0  0
 41 43  1  0  0  0  0
 42 41  1  0  0  0  0
 42 44  1  0  0  0  0
 43 45  1  0  0  0  0
 44 45  1  0  0  0  0
 45 38  1  0  0  0  0
 46 42  1  0  0  0  0
 46 47  1  0  0  0  0
 49 48  1  0  0  0  0
 50 49  2  0  0  0  0
 51 48  1  0  0  0  0
 52 51  2  0  0  0  0
 54 55  1  0  0  0  0
 54 53  1  0  0  0  0
 56 54  2  0  0  0  0
M  END
>  <MODEL>
4

>  <REMARK>
 VINA RESULT:       8.2      1.603      2.222
  Name = 
  11 active torsions:
  status: ('A' for Active; 'I' for Inactive)
    1  A    between atoms: C_2  and  C_9
    2  A    between atoms: C_7  and  C_22
    3  A    between atoms: C_9  and  C_13
    4  A    between atoms: C_9  and  C_27
    5  A    between atoms: C_10  and  C_22
    6  A    between atoms: C_14  and  C_24
    7  A    between atoms: C_24  and  C_34
    8  A    between atoms: C_29  and  C_43
    9  A    between atoms: N_30  and  C_52
   10  A    between atoms: N_33  and  C_55
   11  A    between atoms: C_34  and  C_52
                            x       y       z     vdW  Elec       q    Type
                         _______ _______ _______ _____ _____    ______ ____

>  <TORSDO>
F 11

$$$$
