=
 OpenBabel11072410383D

 50 55  0  0  1  0  0  0  0  0999 V2000
  161.1290  213.0720  147.2130 C   0  0  1  0  0  3  0  0  0  0  0  0
  161.8480  214.1870  143.6750 C   0  0  0  0  0  3  0  0  0  0  0  0
  161.6930  214.1290  145.0030 C   0  0  0  0  0  3  0  0  0  0  0  0
  159.5600  212.6650  145.2280 C   0  0  0  0  0  2  0  0  0  0  0  0
  159.7500  213.1340  142.7120 C   0  0  1  0  0  3  0  0  0  0  0  0
  161.0030  212.9730  145.6860 C   0  0  2  0  0  3  0  0  0  0  0  0
  161.2960  213.1100  142.7850 C   0  0  1  0  0  3  0  0  0  0  0  0
  159.0540  213.4830  144.0390 C   0  0  0  0  0  2  0  0  0  0  0  0
  159.2040  214.0060  141.5770 C   0  0  0  0  0  2  0  0  0  0  0  0
  158.1400  213.2900  140.7600 C   0  0  0  0  0  2  0  0  0  0  0  0
  158.6020  211.8800  140.4500 C   0  0  0  0  0  2  0  0  0  0  0  0
  158.1660  211.4870  139.0460 C   0  0  2  0  0  3  0  0  0  0  0  0
  156.7100  209.6570  138.3530 C   0  0  0  0  0  2  0  0  0  0  0  0
  156.7700  211.9460  138.7890 C   0  0  0  0  0  3  0  0  0  0  0  0
  158.0870  209.9660  138.9330 C   0  0  1  0  0  3  0  0  0  0  0  0
  155.9820  210.9520  138.4150 C   0  0  0  0  0  3  0  0  0  0  0  0
  159.7720  210.3810  137.2540 O   0  0  0  0  0  1  0  0  0  0  0  0
  160.1820  208.8050  138.8550 O   0  0  0  0  0  1  0  0  0  0  0  0
  159.1980  209.3900  138.0550 C   0  0  0  0  0  3  0  0  0  0  0  0
  161.8760  213.1850  141.5160 O   0  0  0  0  0  0  0  0  0  0  0  0
  162.5730  211.9860  141.3640 C   0  0  1  0  0  3  0  0  0  0  0  0
  161.6720  210.9810  140.9680 O   0  0  0  0  0  0  0  0  0  0  0  0
  162.4810  211.5330  139.9600 C   0  0  0  0  0  2  0  0  0  0  0  0
  159.0450  213.3190  148.1480 C   0  0  0  0  0  1  0  0  0  0  0  0
  160.2320  213.9880  147.8120 O   0  0  0  0  0  0  0  0  0  0  0  0
  161.1120  211.8140  147.8380 O   0  0  0  0  0  0  0  0  0  0  0  0
  163.2730  211.0810  147.9160 O   0  0  0  0  0  1  0  0  0  0  0  0
  162.2780  211.7770  148.6050 C   0  0  2  0  0  3  0  0  0  0  0  0
  161.9970  211.0940  149.9300 C   0  0  0  0  0  2  0  0  0  0  0  0
  161.9910  209.5820  149.7460 C   0  0  0  0  0  2  0  0  0  0  0  0
  160.8010  207.3230  152.5090 C   0  0  1  0  0  3  0  0  0  0  0  0
  161.3880  208.9060  150.9420 C   0  0  0  0  0  0  0  0  0  0  0  0
  162.0250  206.5180  150.3740 C   0  0  2  0  0  3  0  0  0  0  0  0
  162.0190  205.3110  151.1190 O   0  0  0  0  0  0  0  0  0  0  0  0
  161.7700  206.4070  153.2840 C   0  0  0  0  0  2  0  0  0  0  0  0
  160.8810  209.6330  152.1330 C   0  0  0  0  0  3  0  0  0  0  0  0
  160.6600  208.6200  153.1730 N   0  0  0  0  0  0  0  0  0  0  0  0
  161.3300  207.6050  151.1560 C   0  0  0  0  0  0  0  0  0  0  0  0
  162.6690  205.5670  152.3490 C   0  0  0  0  0  2  0  0  0  0  0  0
  160.0920  206.9360  148.9790 O   0  0  0  0  0  1  0  0  0  0  0  0
  161.3460  206.3200  149.0160 C   0  0  2  0  0  3  0  0  0  0  0  0
  161.8820  204.2540  147.4240 C   0  0  1  0  0  3  0  0  0  0  0  0
  160.9820  202.1680  146.5350 O   0  0  0  0  0  1  0  0  0  0  0  0
  160.6490  203.9990  149.4230 C   0  0  0  0  0  3  0  0  0  0  0  0
  161.2370  204.8790  148.6310 C   0  0  0  0  0  0  0  0  0  0  0  0
  161.6490  202.7420  147.6230 C   0  0  2  0  0  3  0  0  0  0  0  0
  160.7890  202.6840  148.8360 C   0  0  0  0  0  0  0  0  0  0  0  0
  160.5430  201.5640  149.5060 C   0  0  0  0  0  2  0  0  0  0  0  0
  161.2690  204.7180  146.2560 O   0  0  0  0  0  0  0  0  0  0  0  0
  162.1200  205.7150  145.7760 C   0  0  0  0  0  1  0  0  0  0  0  0
  1 25  1  1  0  0  0
  1 26  1  0  0  0  0
  2  3  2  0  0  0  0
  3  6  1  0  0  0  0
  4  6  1  0  0  0  0
  5  9  1  6  0  0  0
  5  7  1  0  0  0  0
  5  8  1  0  0  0  0
  6  1  1  1  0  0  0
  7 20  1  6  0  0  0
  7  2  1  0  0  0  0
  8  4  1  0  0  0  0
 10  9  1  0  0  0  0
 11 10  1  0  0  0  0
 12 11  1  1  0  0  0
 13 16  1  0  0  0  0
 13 15  1  0  0  0  0
 14 12  1  0  0  0  0
 15 19  1  6  0  0  0
 15 12  1  0  0  0  0
 16 14  2  0  0  0  0
 17 19  1  0  0  0  0
 19 18  1  0  0  0  0
 21 20  1  6  0  0  0
 22 21  1  0  0  0  0
 23 22  1  0  0  0  0
 23 21  1  0  0  0  0
 25 24  1  0  0  0  0
 26 28  1  0  0  0  0
 28 27  1  6  0  0  0
 28 29  1  0  0  0  0
 30 29  1  0  0  0  0
 30 32  1  0  0  0  0
 31 37  1  0  0  0  0
 31 35  1  1  0  0  0
 32 38  2  0  0  0  0
 32 36  1  0  0  0  0
 33 41  1  6  0  0  0
 33 34  1  0  0  0  0
 33 38  1  0  0  0  0
 34 39  1  0  0  0  0
 36 37  2  0  0  0  0
 38 31  1  0  0  0  0
 39 35  1  0  0  0  0
 41 40  1  1  0  0  0
 42 49  1  6  0  0  0
 42 46  1  0  0  0  0
 42 45  1  0  0  0  0
 45 41  1  0  0  0  0
 45 44  2  0  0  0  0
 46 43  1  6  0  0  0
 46 47  1  0  0  0  0
 47 44  1  0  0  0  0
 47 48  2  0  0  0  0
 50 49  1  0  0  0  0
M  END
>  <MODEL>
1

>  <REMARK>
 VINA RESULT:      -6.9      0.000      0.000
  Name = 
  17 active torsions:
  status: ('A' for Active; 'I' for Inactive)
    1  A    between atoms: C_2  and  C_12
    2  A    between atoms: C_2  and  C_42
    3  A    between atoms: C_3  and  C_12
    4  A    between atoms: C_4  and  C_35
    5  A    between atoms: C_7  and  C_32
    6  A    between atoms: C_7  and  O_39
    7  A    between atoms: C_7  and  O_45
    8  A    between atoms: C_8  and  O_49
    9  A    between atoms: C_9  and  O_31
   10  A    between atoms: C_11  and  C_21
   11  A    between atoms: C_11  and  C_48
   12  A    between atoms: C_16  and  C_30
   13  A    between atoms: C_16  and  C_48
   14  A    between atoms: C_33  and  C_35
   15  A    between atoms: O_39  and  C_42
   16  A    between atoms: C_40  and  O_49
   17  A    between atoms: C_43  and  C_44
                            x       y       z     vdW  Elec       q    Type
                         _______ _______ _______ _____ _____    ______ ____

>  <TORSDO>
F 17

$$$$
=
 OpenBabel11072410383D

 50 55  0  0  1  0  0  0  0  0999 V2000
  160.7210  212.9230  146.8420 C   0  0  1  0  0  3  0  0  0  0  0  0
  161.5880  212.5530  143.1830 C   0  0  0  0  0  3  0  0  0  0  0  0
  161.5810  212.8820  144.4800 C   0  0  0  0  0  3  0  0  0  0  0  0
  159.0480  213.2380  144.9260 C   0  0  0  0  0  2  0  0  0  0  0  0
  159.2130  212.9460  142.3820 C   0  0  1  0  0  3  0  0  0  0  0  0
  160.3920  212.6210  145.3730 C   0  0  2  0  0  3  0  0  0  0  0  0
  160.3790  211.9410  142.5350 C   0  0  1  0  0  3  0  0  0  0  0  0
  159.0560  213.9240  143.5590 C   0  0  0  0  0  2  0  0  0  0  0  0
  159.2310  213.7090  141.0540 C   0  0  0  0  0  2  0  0  0  0  0  0
  157.8610  213.7540  140.3960 C   0  0  0  0  0  2  0  0  0  0  0  0
  157.4700  212.3620  139.9410 C   0  0  0  0  0  2  0  0  0  0  0  0
  156.1370  212.4110  139.2070 C   0  0  2  0  0  3  0  0  0  0  0  0
  153.9850  211.4850  139.8820 C   0  0  0  0  0  2  0  0  0  0  0  0
  155.2480  213.4430  139.8150 C   0  0  0  0  0  3  0  0  0  0  0  0
  155.3830  211.0990  139.4120 C   0  0  1  0  0  3  0  0  0  0  0  0
  154.0810  212.9380  140.1820 C   0  0  0  0  0  3  0  0  0  0  0  0
  154.2500  209.3660  138.1690 O   0  0  0  0  0  1  0  0  0  0  0  0
  155.2070  211.0920  137.0220 O   0  0  0  0  0  1  0  0  0  0  0  0
  155.3240  210.2580  138.1360 C   0  0  0  0  0  3  0  0  0  0  0  0
  160.7270  211.3610  141.3110 O   0  0  0  0  0  0  0  0  0  0  0  0
  162.0630  211.7090  141.1120 C   0  0  1  0  0  3  0  0  0  0  0  0
  162.6890  210.7060  140.3500 O   0  0  0  0  0  0  0  0  0  0  0  0
  162.3230  211.8780  139.6670 C   0  0  0  0  0  2  0  0  0  0  0  0
  158.8790  213.2800  148.1670 C   0  0  0  0  0  1  0  0  0  0  0  0
  159.8950  213.9090  147.4310 O   0  0  0  0  0  0  0  0  0  0  0  0
  160.8130  211.7590  147.6240 O   0  0  0  0  0  0  0  0  0  0  0  0
  163.0250  211.2330  147.8330 O   0  0  0  0  0  1  0  0  0  0  0  0
  161.9610  211.9370  148.4000 C   0  0  2  0  0  3  0  0  0  0  0  0
  161.7070  211.4370  149.8090 C   0  0  0  0  0  2  0  0  0  0  0  0
  162.1970  210.0020  149.9500 C   0  0  0  0  0  2  0  0  0  0  0  0
  160.7450  207.6960  152.5450 C   0  0  1  0  0  3  0  0  0  0  0  0
  161.4850  209.3070  151.0730 C   0  0  0  0  0  0  0  0  0  0  0  0
  162.1350  206.9240  150.5020 C   0  0  2  0  0  3  0  0  0  0  0  0
  162.0490  205.6990  151.2140 O   0  0  0  0  0  0  0  0  0  0  0  0
  161.6310  206.7480  153.3760 C   0  0  0  0  0  2  0  0  0  0  0  0
  160.8880  210.0140  152.2330 C   0  0  0  0  0  3  0  0  0  0  0  0
  160.5650  208.9800  153.2260 N   0  0  0  0  0  0  0  0  0  0  0  0
  161.3910  208.0030  151.2480 C   0  0  0  0  0  0  0  0  0  0  0  0
  162.5960  205.9160  152.5000 C   0  0  0  0  0  2  0  0  0  0  0  0
  160.3640  207.4550  148.9410 O   0  0  0  0  0  1  0  0  0  0  0  0
  161.5710  206.7680  149.0870 C   0  0  2  0  0  3  0  0  0  0  0  0
  161.9810  204.7240  147.4300 C   0  0  1  0  0  3  0  0  0  0  0  0
  160.9950  202.6700  146.5560 O   0  0  0  0  0  1  0  0  0  0  0  0
  160.8580  204.4510  149.4910 C   0  0  0  0  0  3  0  0  0  0  0  0
  161.4160  205.3360  148.6820 C   0  0  0  0  0  0  0  0  0  0  0  0
  161.7330  203.2130  147.6140 C   0  0  2  0  0  3  0  0  0  0  0  0
  160.9420  203.1460  148.8730 C   0  0  0  0  0  0  0  0  0  0  0  0
  160.7150  202.0170  149.5350 C   0  0  0  0  0  2  0  0  0  0  0  0
  161.3110  205.2200  146.3070 O   0  0  0  0  0  0  0  0  0  0  0  0
  162.3190  205.5040  145.3840 C   0  0  0  0  0  1  0  0  0  0  0  0
  1 25  1  1  0  0  0
  1 26  1  0  0  0  0
  2  3  2  0  0  0  0
  3  6  1  0  0  0  0
  4  6  1  0  0  0  0
  5  9  1  6  0  0  0
  5  7  1  0  0  0  0
  5  8  1  0  0  0  0
  6  1  1  1  0  0  0
  7 20  1  6  0  0  0
  7  2  1  0  0  0  0
  8  4  1  0  0  0  0
 10  9  1  0  0  0  0
 11 10  1  0  0  0  0
 12 15  1  0  0  0  0
 12 14  1  0  0  0  0
 12 11  1  1  0  0  0
 13 16  1  0  0  0  0
 14 16  2  0  0  0  0
 15 19  1  6  0  0  0
 15 13  1  0  0  0  0
 18 19  1  0  0  0  0
 19 17  1  0  0  0  0
 21 20  1  6  0  0  0
 22 21  1  0  0  0  0
 23 22  1  0  0  0  0
 23 21  1  0  0  0  0
 25 24  1  0  0  0  0
 26 28  1  0  0  0  0
 28 27  1  6  0  0  0
 28 29  1  0  0  0  0
 29 30  1  0  0  0  0
 30 32  1  0  0  0  0
 31 37  1  0  0  0  0
 31 35  1  1  0  0  0
 32 38  2  0  0  0  0
 32 36  1  0  0  0  0
 33 41  1  6  0  0  0
 33 34  1  0  0  0  0
 33 38  1  0  0  0  0
 34 39  1  0  0  0  0
 36 37  2  0  0  0  0
 38 31  1  0  0  0  0
 39 35  1  0  0  0  0
 41 40  1  1  0  0  0
 42 49  1  6  0  0  0
 42 46  1  0  0  0  0
 42 45  1  0  0  0  0
 45 41  1  0  0  0  0
 45 44  2  0  0  0  0
 46 43  1  6  0  0  0
 46 47  1  0  0  0  0
 47 44  1  0  0  0  0
 47 48  2  0  0  0  0
 50 49  1  0  0  0  0
M  END
>  <MODEL>
2

>  <REMARK>
 VINA RESULT:      -6.9      1.393      1.726
  Name = 
  17 active torsions:
  status: ('A' for Active; 'I' for Inactive)
    1  A    between atoms: C_2  and  C_12
    2  A    between atoms: C_2  and  C_42
    3  A    between atoms: C_3  and  C_12
    4  A    between atoms: C_4  and  C_35
    5  A    between atoms: C_7  and  C_32
    6  A    between atoms: C_7  and  O_39
    7  A    between atoms: C_7  and  O_45
    8  A    between atoms: C_8  and  O_49
    9  A    between atoms: C_9  and  O_31
   10  A    between atoms: C_11  and  C_21
   11  A    between atoms: C_11  and  C_48
   12  A    between atoms: C_16  and  C_30
   13  A    between atoms: C_16  and  C_48
   14  A    between atoms: C_33  and  C_35
   15  A    between atoms: O_39  and  C_42
   16  A    between atoms: C_40  and  O_49
   17  A    between atoms: C_43  and  C_44
                            x       y       z     vdW  Elec       q    Type
                         _______ _______ _______ _____ _____    ______ ____

>  <TORSDO>
F 17

$$$$
=
 OpenBabel11072410383D

 50 55  0  0  1  0  0  0  0  0999 V2000
  161.4430  213.0640  147.0100 C   0  0  1  0  0  3  0  0  0  0  0  0
  162.4000  213.4370  143.3740 C   0  0  0  0  0  3  0  0  0  0  0  0
  162.2420  213.6140  144.6910 C   0  0  0  0  0  3  0  0  0  0  0  0
  159.8130  212.7700  145.0540 C   0  0  0  0  0  2  0  0  0  0  0  0
  160.1020  212.8040  142.5050 C   0  0  1  0  0  3  0  0  0  0  0  0
  161.2890  212.7770  145.5100 C   0  0  2  0  0  3  0  0  0  0  0  0
  161.5940  212.4110  142.6300 C   0  0  1  0  0  3  0  0  0  0  0  0
  159.5210  213.5050  143.7450 C   0  0  0  0  0  2  0  0  0  0  0  0
  159.7850  213.6090  141.2400 C   0  0  0  0  0  2  0  0  0  0  0  0
  158.3190  213.5080  140.8460 C   0  0  0  0  0  2  0  0  0  0  0  0
  158.2120  213.0670  139.4000 C   0  0  0  0  0  2  0  0  0  0  0  0
  157.1940  211.9420  139.2750 C   0  0  2  0  0  3  0  0  0  0  0  0
  156.2200  210.9800  137.2560 C   0  0  0  0  0  2  0  0  0  0  0  0
  157.8700  210.6740  138.8740 C   0  0  0  0  0  3  0  0  0  0  0  0
  156.2360  212.2360  138.1220 C   0  0  1  0  0  3  0  0  0  0  0  0
  157.3410  210.1540  137.7780 C   0  0  0  0  0  3  0  0  0  0  0  0
  154.5230  211.9050  139.7920 O   0  0  0  0  0  1  0  0  0  0  0  0
  154.7300  213.9630  138.8250 O   0  0  0  0  0  1  0  0  0  0  0  0
  154.8300  212.5860  138.6120 C   0  0  0  0  0  3  0  0  0  0  0  0
  162.1690  212.1540  141.3820 O   0  0  0  0  0  0  0  0  0  0  0  0
  161.7520  210.8650  141.0490 C   0  0  1  0  0  3  0  0  0  0  0  0
  161.3420  210.8490  139.7040 O   0  0  0  0  0  0  0  0  0  0  0  0
  162.6160  210.3240  139.9790 C   0  0  0  0  0  2  0  0  0  0  0  0
  161.0650  214.4460  148.8060 C   0  0  0  0  0  1  0  0  0  0  0  0
  160.9630  214.3330  147.4110 O   0  0  0  0  0  0  0  0  0  0  0  0
  160.9460  212.0220  147.8120 O   0  0  0  0  0  0  0  0  0  0  0  0
  162.8140  210.7240  148.0100 O   0  0  0  0  0  1  0  0  0  0  0  0
  162.0110  211.6720  148.6460 C   0  0  2  0  0  3  0  0  0  0  0  0
  161.4740  211.1020  149.9460 C   0  0  0  0  0  2  0  0  0  0  0  0
  162.3370  209.9310  150.3980 C   0  0  0  0  0  2  0  0  0  0  0  0
  160.9480  207.5620  152.9690 C   0  0  1  0  0  3  0  0  0  0  0  0
  161.6960  209.2150  151.5490 C   0  0  0  0  0  0  0  0  0  0  0  0
  161.9250  206.8440  150.6810 C   0  0  2  0  0  3  0  0  0  0  0  0
  161.7680  205.5710  151.2880 O   0  0  0  0  0  0  0  0  0  0  0  0
  161.7990  206.4270  153.5720 C   0  0  0  0  0  2  0  0  0  0  0  0
  161.3670  209.8630  152.8440 C   0  0  0  0  0  3  0  0  0  0  0  0
  161.0430  208.7780  153.7790 N   0  0  0  0  0  0  0  0  0  0  0  0
  161.4470  207.9210  151.6220 C   0  0  0  0  0  0  0  0  0  0  0  0
  162.5100  205.5790  152.4920 C   0  0  0  0  0  2  0  0  0  0  0  0
  159.7760  206.9150  149.5710 O   0  0  0  0  0  1  0  0  0  0  0  0
  161.1570  206.9110  149.3580 C   0  0  2  0  0  3  0  0  0  0  0  0
  160.8840  204.4690  148.3320 C   0  0  1  0  0  3  0  0  0  0  0  0
  162.1040  202.6040  147.3410 O   0  0  0  0  0  1  0  0  0  0  0  0
  162.4380  206.0210  147.4600 C   0  0  0  0  0  3  0  0  0  0  0  0
  161.5420  205.8200  148.4110 C   0  0  0  0  0  0  0  0  0  0  0  0
  161.4970  203.8350  147.0670 C   0  0  2  0  0  3  0  0  0  0  0  0
  162.5230  204.8270  146.6480 C   0  0  0  0  0  0  0  0  0  0  0  0
  163.1290  204.7990  145.4660 C   0  0  0  0  0  2  0  0  0  0  0  0
  161.1820  203.7220  149.4760 O   0  0  0  0  0  0  0  0  0  0  0  0
  160.2530  202.6800  149.4750 C   0  0  0  0  0  1  0  0  0  0  0  0
  1 25  1  1  0  0  0
  1 26  1  0  0  0  0
  2  3  2  0  0  0  0
  3  6  1  0  0  0  0
  4  6  1  0  0  0  0
  5  9  1  6  0  0  0
  5  7  1  0  0  0  0
  5  8  1  0  0  0  0
  6  1  1  1  0  0  0
  7 20  1  6  0  0  0
  7  2  1  0  0  0  0
  8  4  1  0  0  0  0
 10  9  1  0  0  0  0
 11 10  1  0  0  0  0
 12 11  1  6  0  0  0
 13 16  1  0  0  0  0
 13 15  1  0  0  0  0
 14 12  1  0  0  0  0
 15 19  1  1  0  0  0
 15 12  1  0  0  0  0
 16 14  2  0  0  0  0
 19 18  1  0  0  0  0
 19 17  1  0  0  0  0
 21 20  1  6  0  0  0
 22 23  1  0  0  0  0
 22 21  1  0  0  0  0
 23 21  1  0  0  0  0
 25 24  1  0  0  0  0
 26 28  1  0  0  0  0
 28 27  1  6  0  0  0
 28 29  1  0  0  0  0
 29 30  1  0  0  0  0
 30 32  1  0  0  0  0
 31 35  1  1  0  0  0
 31 37  1  0  0  0  0
 32 38  2  0  0  0  0
 32 36  1  0  0  0  0
 33 41  1  6  0  0  0
 33 34  1  0  0  0  0
 33 38  1  0  0  0  0
 34 39  1  0  0  0  0
 36 37  2  0  0  0  0
 38 31  1  0  0  0  0
 39 35  1  0  0  0  0
 41 40  1  1  0  0  0
 42 45  1  0  0  0  0
 42 49  1  1  0  0  0
 44 45  2  0  0  0  0
 45 41  1  0  0  0  0
 46 43  1  1  0  0  0
 46 42  1  0  0  0  0
 47 46  1  0  0  0  0
 47 44  1  0  0  0  0
 48 47  2  0  0  0  0
 50 49  1  0  0  0  0
M  END
>  <MODEL>
3

>  <REMARK>
 VINA RESULT:      -5.7      1.579      2.315
  Name = 
  17 active torsions:
  status: ('A' for Active; 'I' for Inactive)
    1  A    between atoms: C_2  and  C_12
    2  A    between atoms: C_2  and  C_42
    3  A    between atoms: C_3  and  C_12
    4  A    between atoms: C_4  and  C_35
    5  A    between atoms: C_7  and  C_32
    6  A    between atoms: C_7  and  O_39
    7  A    between atoms: C_7  and  O_45
    8  A    between atoms: C_8  and  O_49
    9  A    between atoms: C_9  and  O_31
   10  A    between atoms: C_11  and  C_21
   11  A    between atoms: C_11  and  C_48
   12  A    between atoms: C_16  and  C_30
   13  A    between atoms: C_16  and  C_48
   14  A    between atoms: C_33  and  C_35
   15  A    between atoms: O_39  and  C_42
   16  A    between atoms: C_40  and  O_49
   17  A    between atoms: C_43  and  C_44
                            x       y       z     vdW  Elec       q    Type
                         _______ _______ _______ _____ _____    ______ ____

>  <TORSDO>
F 17

$$$$
=
 OpenBabel11072410383D

 50 55  0  0  1  0  0  0  0  0999 V2000
  162.1820  211.6860  148.0740 C   0  0  1  0  0  3  0  0  0  0  0  0
  162.0950  214.3720  145.4170 C   0  0  0  0  0  3  0  0  0  0  0  0
  162.1640  213.7050  146.5740 C   0  0  0  0  0  3  0  0  0  0  0  0
  160.4420  211.7980  146.1950 C   0  0  0  0  0  2  0  0  0  0  0  0
  160.1370  213.3450  144.1710 C   0  0  1  0  0  3  0  0  0  0  0  0
  161.8430  212.2330  146.6800 C   0  0  2  0  0  3  0  0  0  0  0  0
  161.6460  213.6870  144.1570 C   0  0  1  0  0  3  0  0  0  0  0  0
  159.5990  212.8930  145.5390 C   0  0  0  0  0  2  0  0  0  0  0  0
  159.2520  214.4530  143.5900 C   0  0  0  0  0  2  0  0  0  0  0  0
  159.0090  214.2740  142.0990 C   0  0  0  0  0  2  0  0  0  0  0  0
  159.2000  212.8180  141.7250 C   0  0  0  0  0  2  0  0  0  0  0  0
  158.9910  212.6360  140.2280 C   0  0  2  0  0  3  0  0  0  0  0  0
  157.9030  210.7980  139.0500 C   0  0  0  0  0  2  0  0  0  0  0  0
  157.5830  212.9610  139.8580 C   0  0  0  0  0  3  0  0  0  0  0  0
  159.1440  211.1610  139.8590 C   0  0  1  0  0  3  0  0  0  0  0  0
  156.9940  211.9620  139.2200 C   0  0  0  0  0  3  0  0  0  0  0  0
  161.2680  212.0030  139.0780 O   0  0  0  0  0  1  0  0  0  0  0  0
  161.0890  209.7860  139.5920 O   0  0  0  0  0  1  0  0  0  0  0  0
  160.4210  210.8920  139.0620 C   0  0  0  0  0  3  0  0  0  0  0  0
  161.9930  214.4530  143.0390 O   0  0  0  0  0  0  0  0  0  0  0  0
  163.1160  213.8220  142.5030 C   0  0  1  0  0  3  0  0  0  0  0  0
  162.7020  212.9120  141.5150 O   0  0  0  0  0  0  0  0  0  0  0  0
  163.2230  214.1370  141.0630 C   0  0  0  0  0  2  0  0  0  0  0  0
  160.9530  213.1720  149.3240 C   0  0  0  0  0  1  0  0  0  0  0  0
  162.2440  212.6740  149.0850 O   0  0  0  0  0  0  0  0  0  0  0  0
  161.3750  210.5940  148.4360 O   0  0  0  0  0  0  0  0  0  0  0  0
  161.9580  208.4330  148.8890 O   0  0  0  0  0  1  0  0  0  0  0  0
  162.2050  209.7710  149.2010 C   0  0  2  0  0  3  0  0  0  0  0  0
  161.9430  210.0120  150.6760 C   0  0  0  0  0  2  0  0  0  0  0  0
  160.8030  209.1240  151.1550 C   0  0  0  0  0  2  0  0  0  0  0  0
  161.6310  207.1360  154.2400 C   0  0  1  0  0  3  0  0  0  0  0  0
  161.2820  208.1750  152.2130 C   0  0  0  0  0  0  0  0  0  0  0  0
  160.4090  209.4180  154.2430 C   0  0  2  0  0  3  0  0  0  0  0  0
  160.2540  209.0580  155.6070 O   0  0  0  0  0  0  0  0  0  0  0  0
  160.5390  206.6670  155.2210 C   0  0  0  0  0  2  0  0  0  0  0  0
  161.8200  206.8210  151.9260 C   0  0  0  0  0  3  0  0  0  0  0  0
  161.8880  206.1210  153.2160 N   0  0  0  0  0  0  0  0  0  0  0  0
  161.1890  208.3500  153.5180 C   0  0  0  0  0  0  0  0  0  0  0  0
  159.5890  207.8110  155.6440 C   0  0  0  0  0  2  0  0  0  0  0  0
  161.9570  211.0100  155.2060 O   0  0  0  0  0  1  0  0  0  0  0  0
  161.1140  210.7720  154.1180 C   0  0  2  0  0  3  0  0  0  0  0  0
  159.4760  212.6550  155.0460 C   0  0  1  0  0  3  0  0  0  0  0  0
  157.4200  213.8810  154.5770 O   0  0  0  0  0  1  0  0  0  0  0  0
  159.9320  212.4270  152.7390 C   0  0  0  0  0  3  0  0  0  0  0  0
  160.1570  211.9060  153.9330 C   0  0  0  0  0  0  0  0  0  0  0  0
  158.7970  213.8400  154.3310 C   0  0  2  0  0  3  0  0  0  0  0  0
  159.0490  213.5620  152.8910 C   0  0  0  0  0  0  0  0  0  0  0  0
  158.8460  214.4530  151.9270 C   0  0  0  0  0  2  0  0  0  0  0  0
  158.5390  211.8310  155.6770 O   0  0  0  0  0  0  0  0  0  0  0  0
  158.7910  211.9810  157.0420 C   0  0  0  0  0  1  0  0  0  0  0  0
  1 26  1  1  0  0  0
  1 25  1  0  0  0  0
  2  3  2  0  0  0  0
  3  6  1  0  0  0  0
  4  6  1  0  0  0  0
  5  9  1  1  0  0  0
  5  8  1  0  0  0  0
  6  1  1  1  0  0  0
  7 20  1  6  0  0  0
  7  5  1  0  0  0  0
  7  2  1  0  0  0  0
  8  4  1  0  0  0  0
 10  9  1  0  0  0  0
 11 10  1  0  0  0  0
 12 11  1  1  0  0  0
 13 16  1  0  0  0  0
 13 15  1  0  0  0  0
 14 12  1  0  0  0  0
 15 19  1  6  0  0  0
 15 12  1  0  0  0  0
 16 14  2  0  0  0  0
 19 17  1  0  0  0  0
 19 18  1  0  0  0  0
 21 20  1  1  0  0  0
 22 21  1  0  0  0  0
 23 22  1  0  0  0  0
 23 21  1  0  0  0  0
 25 24  1  0  0  0  0
 26 28  1  0  0  0  0
 28 27  1  6  0  0  0
 28 29  1  0  0  0  0
 29 30  1  0  0  0  0
 30 32  1  0  0  0  0
 31 35  1  1  0  0  0
 32 38  2  0  0  0  0
 33 41  1  1  0  0  0
 33 34  1  0  0  0  0
 34 39  1  0  0  0  0
 35 39  1  0  0  0  0
 36 32  1  0  0  0  0
 36 37  2  0  0  0  0
 37 31  1  0  0  0  0
 38 31  1  0  0  0  0
 38 33  1  0  0  0  0
 41 40  1  1  0  0  0
 42 49  1  6  0  0  0
 44 47  1  0  0  0  0
 44 45  2  0  0  0  0
 45 41  1  0  0  0  0
 45 42  1  0  0  0  0
 46 43  1  6  0  0  0
 46 42  1  0  0  0  0
 47 46  1  0  0  0  0
 48 47  2  0  0  0  0
 49 50  1  0  0  0  0
M  END
>  <MODEL>
4

>  <REMARK>
 VINA RESULT:      -5.5      2.965      5.780
  Name = 
  17 active torsions:
  status: ('A' for Active; 'I' for Inactive)
    1  A    between atoms: C_2  and  C_12
    2  A    between atoms: C_2  and  C_42
    3  A    between atoms: C_3  and  C_12
    4  A    between atoms: C_4  and  C_35
    5  A    between atoms: C_7  and  C_32
    6  A    between atoms: C_7  and  O_39
    7  A    between atoms: C_7  and  O_45
    8  A    between atoms: C_8  and  O_49
    9  A    between atoms: C_9  and  O_31
   10  A    between atoms: C_11  and  C_21
   11  A    between atoms: C_11  and  C_48
   12  A    between atoms: C_16  and  C_30
   13  A    between atoms: C_16  and  C_48
   14  A    between atoms: C_33  and  C_35
   15  A    between atoms: O_39  and  C_42
   16  A    between atoms: C_40  and  O_49
   17  A    between atoms: C_43  and  C_44
                            x       y       z     vdW  Elec       q    Type
                         _______ _______ _______ _____ _____    ______ ____

>  <TORSDO>
F 17

$$$$
=
 OpenBabel11072410383D

 50 55  0  0  1  0  0  0  0  0999 V2000
  160.7990  206.0340  150.0030 C   0  0  1  0  0  3  0  0  0  0  0  0
  161.8800  203.7800  147.1690 C   0  0  0  0  0  3  0  0  0  0  0  0
  161.8260  204.4990  148.2960 C   0  0  0  0  0  3  0  0  0  0  0  0
  160.5240  206.6080  147.5200 C   0  0  0  0  0  2  0  0  0  0  0  0
  160.9940  205.3150  145.3540 C   0  0  1  0  0  3  0  0  0  0  0  0
  160.7200  205.4910  148.5690 C   0  0  2  0  0  3  0  0  0  0  0  0
  160.8530  203.9600  146.0870 C   0  0  1  0  0  3  0  0  0  0  0  0
  161.3860  206.4940  146.2610 C   0  0  0  0  0  2  0  0  0  0  0  0
  161.9120  205.2560  144.1290 C   0  0  0  0  0  2  0  0  0  0  0  0
  161.2160  205.7340  142.8630 C   0  0  0  0  0  2  0  0  0  0  0  0
  162.1680  206.5910  142.0540 C   0  0  0  0  0  2  0  0  0  0  0  0
  161.5910  206.8400  140.6670 C   0  0  2  0  0  3  0  0  0  0  0  0
  162.6370  207.9230  138.7480 C   0  0  0  0  0  2  0  0  0  0  0  0
  162.1380  205.8510  139.6930 C   0  0  0  0  0  3  0  0  0  0  0  0
  162.0720  208.1900  140.1400 C   0  0  1  0  0  3  0  0  0  0  0  0
  162.7060  206.4410  138.6530 C   0  0  0  0  0  3  0  0  0  0  0  0
  161.4210  210.4970  140.4310 O   0  0  0  0  0  1  0  0  0  0  0  0
  160.3910  209.2630  138.8100 O   0  0  0  0  0  1  0  0  0  0  0  0
  160.9490  209.2270  140.0900 C   0  0  0  0  0  3  0  0  0  0  0  0
  160.8930  202.8820  145.1970 O   0  0  0  0  0  0  0  0  0  0  0  0
  160.1850  201.8610  145.8330 C   0  0  1  0  0  3  0  0  0  0  0  0
  159.7150  200.9580  144.8630 O   0  0  0  0  0  0  0  0  0  0  0  0
  160.8530  200.5660  145.5870 C   0  0  0  0  0  2  0  0  0  0  0  0
  161.7050  205.2890  151.9780 C   0  0  0  0  0  1  0  0  0  0  0  0
  160.7250  205.0400  151.0050 O   0  0  0  0  0  0  0  0  0  0  0  0
  161.8850  206.9080  150.1890 O   0  0  0  0  0  0  0  0  0  0  0  0
  162.3160  208.9930  149.3640 O   0  0  0  0  0  1  0  0  0  0  0  0
  161.3590  208.1850  149.9810 C   0  0  2  0  0  3  0  0  0  0  0  0
  160.9530  208.7920  151.3100 C   0  0  0  0  0  2  0  0  0  0  0  0
  161.7370  210.0740  151.5590 C   0  0  0  0  0  2  0  0  0  0  0  0
  159.9970  212.1130  154.1990 C   0  0  1  0  0  3  0  0  0  0  0  0
  161.2280  210.7750  152.7830 C   0  0  0  0  0  0  0  0  0  0  0  0
  159.5730  212.3300  151.6550 C   0  0  2  0  0  3  0  0  0  0  0  0
  158.5260  213.1520  152.1450 O   0  0  0  0  0  0  0  0  0  0  0  0
  158.4630  212.1080  154.3490 C   0  0  0  0  0  2  0  0  0  0  0  0
  161.5180  210.3320  154.1700 C   0  0  0  0  0  3  0  0  0  0  0  0
  160.6110  211.0860  155.0440 N   0  0  0  0  0  0  0  0  0  0  0  0
  160.3800  211.7860  152.8070 C   0  0  0  0  0  0  0  0  0  0  0  0
  157.7340  212.3600  153.0090 C   0  0  0  0  0  2  0  0  0  0  0  0
  160.5850  214.4530  151.0840 O   0  0  0  0  0  1  0  0  0  0  0  0
  160.4740  213.1150  150.6960 C   0  0  2  0  0  3  0  0  0  0  0  0
  160.8600  212.4790  148.1390 C   0  0  1  0  0  3  0  0  0  0  0  0
  160.3050  213.1080  145.8490 O   0  0  0  0  0  1  0  0  0  0  0  0
  158.7800  213.2800  148.9230 C   0  0  0  0  0  3  0  0  0  0  0  0
  160.0280  213.0140  149.2730 C   0  0  0  0  0  0  0  0  0  0  0  0
  159.8670  212.3850  146.9640 C   0  0  2  0  0  3  0  0  0  0  0  0
  158.6260  212.9960  147.5130 C   0  0  0  0  0  0  0  0  0  0  0  0
  157.4410  212.9070  146.9200 C   0  0  0  0  0  2  0  0  0  0  0  0
  161.9080  213.3610  147.8560 O   0  0  0  0  0  0  0  0  0  0  0  0
  163.0620  212.5760  147.9070 C   0  0  0  0  0  1  0  0  0  0  0  0
  1 26  1  6  0  0  0
  1 25  1  0  0  0  0
  2  3  2  0  0  0  0
  3  6  1  0  0  0  0
  4  6  1  0  0  0  0
  5  9  1  6  0  0  0
  5  7  1  0  0  0  0
  5  8  1  0  0  0  0
  6  1  1  1  0  0  0
  7 20  1  6  0  0  0
  7  2  1  0  0  0  0
  8  4  1  0  0  0  0
 10  9  1  0  0  0  0
 11 10  1  0  0  0  0
 12 11  1  1  0  0  0
 13 15  1  0  0  0  0
 14 12  1  0  0  0  0
 15 19  1  6  0  0  0
 15 12  1  0  0  0  0
 16 13  1  0  0  0  0
 16 14  2  0  0  0  0
 18 19  1  0  0  0  0
 19 17  1  0  0  0  0
 21 20  1  6  0  0  0
 22 23  1  0  0  0  0
 22 21  1  0  0  0  0
 23 21  1  0  0  0  0
 25 24  1  0  0  0  0
 28 27  1  1  0  0  0
 28 26  1  0  0  0  0
 28 29  1  0  0  0  0
 29 30  1  0  0  0  0
 30 32  1  0  0  0  0
 31 35  1  6  0  0  0
 31 37  1  0  0  0  0
 32 38  2  0  0  0  0
 32 36  1  0  0  0  0
 33 41  1  6  0  0  0
 33 34  1  0  0  0  0
 33 38  1  0  0  0  0
 34 39  1  0  0  0  0
 36 37  2  0  0  0  0
 38 31  1  0  0  0  0
 39 35  1  0  0  0  0
 41 40  1  1  0  0  0
 42 49  1  6  0  0  0
 42 45  1  0  0  0  0
 44 45  2  0  0  0  0
 45 41  1  0  0  0  0
 46 43  1  6  0  0  0
 46 47  1  0  0  0  0
 46 42  1  0  0  0  0
 47 44  1  0  0  0  0
 48 47  2  0  0  0  0
 49 50  1  0  0  0  0
M  END
>  <MODEL>
5

>  <REMARK>
 VINA RESULT:      -5.0      2.738      7.840
  Name = 
  17 active torsions:
  status: ('A' for Active; 'I' for Inactive)
    1  A    between atoms: C_2  and  C_12
    2  A    between atoms: C_2  and  C_42
    3  A    between atoms: C_3  and  C_12
    4  A    between atoms: C_4  and  C_35
    5  A    between atoms: C_7  and  C_32
    6  A    between atoms: C_7  and  O_39
    7  A    between atoms: C_7  and  O_45
    8  A    between atoms: C_8  and  O_49
    9  A    between atoms: C_9  and  O_31
   10  A    between atoms: C_11  and  C_21
   11  A    between atoms: C_11  and  C_48
   12  A    between atoms: C_16  and  C_30
   13  A    between atoms: C_16  and  C_48
   14  A    between atoms: C_33  and  C_35
   15  A    between atoms: O_39  and  C_42
   16  A    between atoms: C_40  and  O_49
   17  A    between atoms: C_43  and  C_44
                            x       y       z     vdW  Elec       q    Type
                         _______ _______ _______ _____ _____    ______ ____

>  <TORSDO>
F 17

$$$$
=
 OpenBabel11072410383D

 50 55  0  0  1  0  0  0  0  0999 V2000
  161.0160  208.4240  152.0140 C   0  0  1  0  0  3  0  0  0  0  0  0
  160.1600  206.1410  149.1270 C   0  0  0  0  0  3  0  0  0  0  0  0
  160.1190  207.0440  150.1130 C   0  0  0  0  0  3  0  0  0  0  0  0
  161.6260  205.9360  151.9150 C   0  0  0  0  0  2  0  0  0  0  0  0
  161.3490  204.1290  150.1150 C   0  0  1  0  0  3  0  0  0  0  0  0
  161.2380  207.1990  151.1150 C   0  0  2  0  0  3  0  0  0  0  0  0
  161.3200  205.1950  148.9940 C   0  0  1  0  0  3  0  0  0  0  0  0
  160.9180  204.6460  151.4980 C   0  0  0  0  0  2  0  0  0  0  0  0
  160.5850  202.8490  149.7620 C   0  0  0  0  0  2  0  0  0  0  0  0
  161.5090  201.7410  149.2790 C   0  0  0  0  0  2  0  0  0  0  0  0
  160.7320  200.7790  148.4030 C   0  0  0  0  0  2  0  0  0  0  0  0
  161.2860  200.8060  146.9850 C   0  0  2  0  0  3  0  0  0  0  0  0
  160.0740  200.7320  144.8690 C   0  0  0  0  0  2  0  0  0  0  0  0
  161.1150  202.1630  146.3880 C   0  0  0  0  0  3  0  0  0  0  0  0
  160.4540  199.8940  146.0850 C   0  0  1  0  0  3  0  0  0  0  0  0
  160.4560  202.1210  145.2410 C   0  0  0  0  0  3  0  0  0  0  0  0
  160.3450  197.5690  145.4410 O   0  0  0  0  0  1  0  0  0  0  0  0
  161.9630  198.8880  144.5170 O   0  0  0  0  0  1  0  0  0  0  0  0
  161.2180  198.6350  145.6710 C   0  0  0  0  0  3  0  0  0  0  0  0
  161.3270  204.6120  147.7230 O   0  0  0  0  0  0  0  0  0  0  0  0
  161.2070  205.6810  146.8340 C   0  0  1  0  0  3  0  0  0  0  0  0
  162.3750  206.4620  146.8980 O   0  0  0  0  0  0  0  0  0  0  0  0
  162.2620  205.5890  145.8030 C   0  0  0  0  0  2  0  0  0  0  0  0
  161.4640  209.4830  154.0030 C   0  0  0  0  0  1  0  0  0  0  0  0
  161.9350  208.5330  153.0840 O   0  0  0  0  0  0  0  0  0  0  0  0
  160.8980  209.6170  151.2810 O   0  0  0  0  0  0  0  0  0  0  0  0
  162.9920  210.5040  151.0710 O   0  0  0  0  0  1  0  0  0  0  0  0
  162.0440  209.6640  150.4830 C   0  0  2  0  0  3  0  0  0  0  0  0
  161.6840  210.1800  149.1030 C   0  0  0  0  0  2  0  0  0  0  0  0
  162.1390  211.6250  148.9520 C   0  0  0  0  0  2  0  0  0  0  0  0
  159.0860  213.8200  148.8130 C   0  0  1  0  0  3  0  0  0  0  0  0
  160.9880  212.5650  149.1560 C   0  0  0  0  0  0  0  0  0  0  0  0
  160.1310  212.6200  146.7700 C   0  0  2  0  0  3  0  0  0  0  0  0
  158.9310  213.0990  146.1830 O   0  0  0  0  0  0  0  0  0  0  0  0
  157.7320  213.2960  148.2970 C   0  0  0  0  0  2  0  0  0  0  0  0
  160.4910  212.9840  150.4900 C   0  0  0  0  0  3  0  0  0  0  0  0
  159.2010  213.6470  150.2620 N   0  0  0  0  0  0  0  0  0  0  0  0
  160.1990  213.0490  148.2150 C   0  0  0  0  0  0  0  0  0  0  0  0
  157.8520  212.5780  146.9340 C   0  0  0  0  0  2  0  0  0  0  0  0
  161.8440  214.3160  146.5610 O   0  0  0  0  0  1  0  0  0  0  0  0
  161.3520  213.1340  146.0020 C   0  0  2  0  0  3  0  0  0  0  0  0
  161.7460  212.5370  143.4370 C   0  0  1  0  0  3  0  0  0  0  0  0
  161.7890  213.4700  141.1830 O   0  0  0  0  0  1  0  0  0  0  0  0
  160.1140  214.1050  144.1150 C   0  0  0  0  0  3  0  0  0  0  0  0
  161.0820  213.3120  144.5420 C   0  0  0  0  0  0  0  0  0  0  0  0
  160.9560  212.9420  142.1760 C   0  0  2  0  0  3  0  0  0  0  0  0
  160.0290  213.9940  142.6750 C   0  0  0  0  0  0  0  0  0  0  0  0
  158.9980  214.4530  141.9750 C   0  0  0  0  0  2  0  0  0  0  0  0
  163.0930  212.9000  143.3370 O   0  0  0  0  0  0  0  0  0  0  0  0
  163.0970  214.2930  143.4360 C   0  0  0  0  0  1  0  0  0  0  0  0
  1 26  1  6  0  0  0
  1 25  1  0  0  0  0
  2  3  2  0  0  0  0
  3  6  1  0  0  0  0
  5  9  1  6  0  0  0
  5  8  1  0  0  0  0
  6  4  1  0  0  0  0
  6  1  1  1  0  0  0
  7 20  1  6  0  0  0
  7  2  1  0  0  0  0
  7  5  1  0  0  0  0
  8  4  1  0  0  0  0
 10  9  1  0  0  0  0
 11 10  1  0  0  0  0
 12 11  1  1  0  0  0
 13 16  1  0  0  0  0
 13 15  1  0  0  0  0
 14 12  1  0  0  0  0
 15 19  1  6  0  0  0
 15 12  1  0  0  0  0
 16 14  2  0  0  0  0
 17 19  1  0  0  0  0
 18 19  1  0  0  0  0
 21 22  1  0  0  0  0
 21 20  1  1  0  0  0
 23 21  1  0  0  0  0
 23 22  1  0  0  0  0
 25 24  1  0  0  0  0
 28 27  1  1  0  0  0
 28 26  1  0  0  0  0
 29 28  1  0  0  0  0
 30 29  1  0  0  0  0
 30 32  1  0  0  0  0
 31 35  1  6  0  0  0
 31 37  1  0  0  0  0
 32 36  1  0  0  0  0
 33 41  1  6  0  0  0
 33 38  1  0  0  0  0
 34 33  1  0  0  0  0
 34 39  1  0  0  0  0
 37 36  2  0  0  0  0
 38 31  1  0  0  0  0
 38 32  2  0  0  0  0
 39 35  1  0  0  0  0
 41 40  1  1  0  0  0
 42 49  1  6  0  0  0
 42 45  1  0  0  0  0
 44 45  2  0  0  0  0
 45 41  1  0  0  0  0
 46 43  1  6  0  0  0
 46 47  1  0  0  0  0
 46 42  1  0  0  0  0
 47 44  1  0  0  0  0
 48 47  2  0  0  0  0
 49 50  1  0  0  0  0
M  END
>  <MODEL>
6

>  <REMARK>
 VINA RESULT:      -4.4      2.787      9.928
  Name = 
  17 active torsions:
  status: ('A' for Active; 'I' for Inactive)
    1  A    between atoms: C_2  and  C_12
    2  A    between atoms: C_2  and  C_42
    3  A    between atoms: C_3  and  C_12
    4  A    between atoms: C_4  and  C_35
    5  A    between atoms: C_7  and  C_32
    6  A    between atoms: C_7  and  O_39
    7  A    between atoms: C_7  and  O_45
    8  A    between atoms: C_8  and  O_49
    9  A    between atoms: C_9  and  O_31
   10  A    between atoms: C_11  and  C_21
   11  A    between atoms: C_11  and  C_48
   12  A    between atoms: C_16  and  C_30
   13  A    between atoms: C_16  and  C_48
   14  A    between atoms: C_33  and  C_35
   15  A    between atoms: O_39  and  C_42
   16  A    between atoms: C_40  and  O_49
   17  A    between atoms: C_43  and  C_44
                            x       y       z     vdW  Elec       q    Type
                         _______ _______ _______ _____ _____    ______ ____

>  <TORSDO>
F 17

$$$$
=
 OpenBabel11072410383D

 50 55  0  0  1  0  0  0  0  0999 V2000
  160.9160  208.0930  155.1720 C   0  0  1  0  0  3  0  0  0  0  0  0
  158.1550  210.6430  155.5660 C   0  0  0  0  0  3  0  0  0  0  0  0
  158.9690  209.6830  155.1120 C   0  0  0  0  0  3  0  0  0  0  0  0
  161.2860  210.5080  155.9460 C   0  0  0  0  0  2  0  0  0  0  0  0
  159.6930  212.4530  156.4580 C   0  0  1  0  0  3  0  0  0  0  0  0
  160.2790  209.3480  155.7850 C   0  0  2  0  0  3  0  0  0  0  0  0
  158.5330  211.4740  156.7590 C   0  0  1  0  0  3  0  0  0  0  0  0
  160.7780  211.8880  155.5260 C   0  0  0  0  0  2  0  0  0  0  0  0
  159.2240  213.8250  155.9610 C   0  0  0  0  0  2  0  0  0  0  0  0
  159.2780  213.9380  154.4450 C   0  0  0  0  0  2  0  0  0  0  0  0
  157.8810  214.1660  153.9030 C   0  0  0  0  0  2  0  0  0  0  0  0
  157.7120  213.4300  152.5810 C   0  0  2  0  0  3  0  0  0  0  0  0
  158.5630  214.0330  150.3760 C   0  0  0  0  0  2  0  0  0  0  0  0
  158.9590  212.6870  152.2380 C   0  0  0  0  0  3  0  0  0  0  0  0
  157.5510  214.4370  151.4440 C   0  0  1  0  0  3  0  0  0  0  0  0
  159.4200  213.0160  151.0420 C   0  0  0  0  0  3  0  0  0  0  0  0
  156.0340  213.6620  149.7320 O   0  0  0  0  0  1  0  0  0  0  0  0
  155.2300  213.9920  151.8430 O   0  0  0  0  0  1  0  0  0  0  0  0
  156.1300  214.4530  150.8800 C   0  0  0  0  0  3  0  0  0  0  0  0
  157.4100  212.1400  157.2610 O   0  0  0  0  0  0  0  0  0  0  0  0
  156.3590  211.7550  156.4280 C   0  0  1  0  0  3  0  0  0  0  0  0
  155.3710  211.1200  157.2020 O   0  0  0  0  0  0  0  0  0  0  0  0
  155.1210  212.4530  156.8350 C   0  0  0  0  0  2  0  0  0  0  0  0
  160.8890  206.9990  157.1910 C   0  0  0  0  0  1  0  0  0  0  0  0
  160.5730  206.8880  155.8280 O   0  0  0  0  0  0  0  0  0  0  0  0
  160.7320  208.0200  153.7800 O   0  0  0  0  0  0  0  0  0  0  0  0
  162.5130  206.6400  153.4100 O   0  0  0  0  0  1  0  0  0  0  0  0
  161.1200  206.7240  153.4340 C   0  0  2  0  0  3  0  0  0  0  0  0
  160.5600  206.3710  152.0680 C   0  0  0  0  0  2  0  0  0  0  0  0
  161.6970  206.0560  151.1040 C   0  0  0  0  0  2  0  0  0  0  0  0
  162.3160  208.7420  148.5440 C   0  0  1  0  0  3  0  0  0  0  0  0
  162.0540  207.2670  150.2940 C   0  0  0  0  0  0  0  0  0  0  0  0
  161.5170  206.3420  147.9950 C   0  0  2  0  0  3  0  0  0  0  0  0
  161.3690  206.9440  146.7190 O   0  0  0  0  0  0  0  0  0  0  0  0
  161.2100  209.2190  147.5830 C   0  0  0  0  0  2  0  0  0  0  0  0
  162.3300  208.6010  150.8820 C   0  0  0  0  0  3  0  0  0  0  0  0
  162.3390  209.5530  149.7630 N   0  0  0  0  0  0  0  0  0  0  0  0
  162.0590  207.3500  148.9770 C   0  0  0  0  0  0  0  0  0  0  0  0
  160.4980  208.0480  146.8680 C   0  0  0  0  0  2  0  0  0  0  0  0
  163.4580  205.3170  146.9760 O   0  0  0  0  0  1  0  0  0  0  0  0
  162.4420  205.1240  147.9160 C   0  0  2  0  0  3  0  0  0  0  0  0
  161.5710  203.2040  146.2890 C   0  0  1  0  0  3  0  0  0  0  0  0
  159.7350  201.6490  145.8840 O   0  0  0  0  0  1  0  0  0  0  0  0
  161.1970  203.1260  148.6200 C   0  0  0  0  0  3  0  0  0  0  0  0
  161.7010  203.8550  147.6390 C   0  0  0  0  0  0  0  0  0  0  0  0
  160.9240  201.8390  146.5980 C   0  0  2  0  0  3  0  0  0  0  0  0
  160.6350  201.9180  148.0560 C   0  0  0  0  0  0  0  0  0  0  0  0
  160.2940  200.8680  148.7930 C   0  0  0  0  0  2  0  0  0  0  0  0
  160.7580  203.9800  145.4570 O   0  0  0  0  0  0  0  0  0  0  0  0
  161.5720  204.3200  144.3750 C   0  0  0  0  0  1  0  0  0  0  0  0
  1 26  1  6  0  0  0
  1 25  1  0  0  0  0
  2  7  1  0  0  0  0
  3  2  2  0  0  0  0
  3  6  1  0  0  0  0
  5  9  1  6  0  0  0
  5  7  1  0  0  0  0
  6  1  1  6  0  0  0
  6  4  1  0  0  0  0
  7 20  1  6  0  0  0
  8  4  1  0  0  0  0
  8  5  1  0  0  0  0
 10  9  1  0  0  0  0
 11 10  1  0  0  0  0
 12 11  1  1  0  0  0
 13 16  1  0  0  0  0
 13 15  1  0  0  0  0
 14 12  1  0  0  0  0
 15 19  1  6  0  0  0
 15 12  1  0  0  0  0
 16 14  2  0  0  0  0
 17 19  1  0  0  0  0
 19 18  1  0  0  0  0
 21 23  1  0  0  0  0
 21 22  1  0  0  0  0
 21 20  1  1  0  0  0
 23 22  1  0  0  0  0
 25 24  1  0  0  0  0
 28 27  1  6  0  0  0
 28 26  1  0  0  0  0
 29 28  1  0  0  0  0
 30 29  1  0  0  0  0
 31 35  1  6  0  0  0
 31 38  1  0  0  0  0
 31 37  1  0  0  0  0
 32 36  1  0  0  0  0
 32 30  1  0  0  0  0
 33 41  1  6  0  0  0
 33 38  1  0  0  0  0
 34 39  1  0  0  0  0
 34 33  1  0  0  0  0
 37 36  2  0  0  0  0
 38 32  2  0  0  0  0
 39 35  1  0  0  0  0
 41 40  1  6  0  0  0
 42 49  1  6  0  0  0
 42 46  1  0  0  0  0
 42 45  1  0  0  0  0
 45 41  1  0  0  0  0
 45 44  2  0  0  0  0
 46 43  1  6  0  0  0
 46 47  1  0  0  0  0
 47 44  1  0  0  0  0
 47 48  2  0  0  0  0
 50 49  1  0  0  0  0
M  END
>  <MODEL>
7

>  <REMARK>
 VINA RESULT:      -4.1      5.450     10.042
  Name = 
  17 active torsions:
  status: ('A' for Active; 'I' for Inactive)
    1  A    between atoms: C_2  and  C_12
    2  A    between atoms: C_2  and  C_42
    3  A    between atoms: C_3  and  C_12
    4  A    between atoms: C_4  and  C_35
    5  A    between atoms: C_7  and  C_32
    6  A    between atoms: C_7  and  O_39
    7  A    between atoms: C_7  and  O_45
    8  A    between atoms: C_8  and  O_49
    9  A    between atoms: C_9  and  O_31
   10  A    between atoms: C_11  and  C_21
   11  A    between atoms: C_11  and  C_48
   12  A    between atoms: C_16  and  C_30
   13  A    between atoms: C_16  and  C_48
   14  A    between atoms: C_33  and  C_35
   15  A    between atoms: O_39  and  C_42
   16  A    between atoms: C_40  and  O_49
   17  A    between atoms: C_43  and  C_44
                            x       y       z     vdW  Elec       q    Type
                         _______ _______ _______ _____ _____    ______ ____

>  <TORSDO>
F 17

$$$$
=
 OpenBabel11072410383D

 50 55  0  0  1  0  0  0  0  0999 V2000
  161.4380  206.0310  149.3390 C   0  0  1  0  0  3  0  0  0  0  0  0
  161.5960  203.7020  146.3670 C   0  0  0  0  0  3  0  0  0  0  0  0
  161.8380  204.3500  147.5120 C   0  0  0  0  0  3  0  0  0  0  0  0
  161.1640  206.7830  146.9040 C   0  0  0  0  0  2  0  0  0  0  0  0
  161.0710  205.5180  144.6730 C   0  0  1  0  0  3  0  0  0  0  0  0
  161.0980  205.6060  147.9030 C   0  0  2  0  0  3  0  0  0  0  0  0
  160.5910  204.2280  145.3800 C   0  0  1  0  0  3  0  0  0  0  0  0
  161.8590  206.4840  145.5750 C   0  0  0  0  0  2  0  0  0  0  0  0
  161.8400  205.2550  143.3740 C   0  0  0  0  0  2  0  0  0  0  0  0
  161.8140  206.4520  142.4370 C   0  0  0  0  0  2  0  0  0  0  0  0
  161.9530  205.9780  141.0040 C   0  0  0  0  0  2  0  0  0  0  0  0
  162.5720  207.0770  140.1510 C   0  0  2  0  0  3  0  0  0  0  0  0
  161.5770  209.1760  139.4070 C   0  0  0  0  0  2  0  0  0  0  0  0
  162.9820  208.2280  141.0070 C   0  0  0  0  0  3  0  0  0  0  0  0
  161.5160  207.6640  139.2160 C   0  0  1  0  0  3  0  0  0  0  0  0
  162.4410  209.3660  140.6020 C   0  0  0  0  0  3  0  0  0  0  0  0
  162.1930  208.3820  137.0120 O   0  0  0  0  0  1  0  0  0  0  0  0
  162.7090  206.2610  137.6820 O   0  0  0  0  0  1  0  0  0  0  0  0
  161.7580  207.2820  137.7550 C   0  0  0  0  0  3  0  0  0  0  0  0
  160.2460  203.2310  144.4630 O   0  0  0  0  0  0  0  0  0  0  0  0
  160.6560  202.0360  145.0550 C   0  0  1  0  0  3  0  0  0  0  0  0
  159.6620  201.6050  145.9500 O   0  0  0  0  0  0  0  0  0  0  0  0
  159.7080  200.9580  144.7040 C   0  0  0  0  0  2  0  0  0  0  0  0
  160.5420  204.5830  150.8800 C   0  0  0  0  0  1  0  0  0  0  0  0
  161.7180  204.9530  150.2110 O   0  0  0  0  0  0  0  0  0  0  0  0
  162.4230  207.0330  149.3860 O   0  0  0  0  0  0  0  0  0  0  0  0
  162.6510  209.0480  150.4350 O   0  0  0  0  0  1  0  0  0  0  0  0
  161.7500  208.1770  149.8190 C   0  0  2  0  0  3  0  0  0  0  0  0
  160.6590  207.7880  150.7990 C   0  0  0  0  0  2  0  0  0  0  0  0
  160.6020  208.7940  151.9420 C   0  0  0  0  0  2  0  0  0  0  0  0
  161.2360  207.6580  155.4720 C   0  0  1  0  0  3  0  0  0  0  0  0
  161.0170  208.1520  153.2320 C   0  0  0  0  0  0  0  0  0  0  0  0
  159.9860  209.8320  154.8270 C   0  0  2  0  0  3  0  0  0  0  0  0
  159.7390  209.8160  156.2240 O   0  0  0  0  0  0  0  0  0  0  0  0
  160.0840  207.4130  156.4660 C   0  0  0  0  0  2  0  0  0  0  0  0
  161.5930  206.7870  153.3270 C   0  0  0  0  0  3  0  0  0  0  0  0
  161.5790  206.4300  154.7520 N   0  0  0  0  0  0  0  0  0  0  0  0
  160.8290  208.6420  154.4430 C   0  0  0  0  0  0  0  0  0  0  0  0
  159.0900  208.5960  156.5280 C   0  0  0  0  0  2  0  0  0  0  0  0
  161.2060  211.8020  155.5220 O   0  0  0  0  0  1  0  0  0  0  0  0
  160.6790  211.1330  154.4140 C   0  0  2  0  0  3  0  0  0  0  0  0
  158.8460  213.0540  154.2140 C   0  0  1  0  0  3  0  0  0  0  0  0
  156.9560  213.8410  152.8860 O   0  0  0  0  0  1  0  0  0  0  0  0
  159.8570  212.0930  152.3070 C   0  0  0  0  0  3  0  0  0  0  0  0
  159.7860  212.0370  153.6260 C   0  0  0  0  0  0  0  0  0  0  0  0
  158.3520  213.8510  152.9890 C   0  0  2  0  0  3  0  0  0  0  0  0
  158.9530  213.1210  151.8400 C   0  0  0  0  0  0  0  0  0  0  0  0
  158.9840  213.6030  150.6020 C   0  0  0  0  0  2  0  0  0  0  0  0
  157.7900  212.4110  154.8670 O   0  0  0  0  0  0  0  0  0  0  0  0
  157.8850  212.8250  156.1970 C   0  0  0  0  0  1  0  0  0  0  0  0
  1 26  1  6  0  0  0
  1 25  1  0  0  0  0
  2  3  2  0  0  0  0
  3  6  1  0  0  0  0
  4  6  1  0  0  0  0
  5  9  1  6  0  0  0
  5  7  1  0  0  0  0
  5  8  1  0  0  0  0
  6  1  1  1  0  0  0
  7 20  1  6  0  0  0
  7  2  1  0  0  0  0
  8  4  1  0  0  0  0
 10  9  1  0  0  0  0
 11 10  1  0  0  0  0
 12 11  1  1  0  0  0
 12 14  1  0  0  0  0
 13 16  1  0  0  0  0
 15 19  1  6  0  0  0
 15 13  1  0  0  0  0
 15 12  1  0  0  0  0
 16 14  2  0  0  0  0
 17 19  1  0  0  0  0
 18 19  1  0  0  0  0
 21 20  1  6  0  0  0
 21 22  1  0  0  0  0
 23 21  1  0  0  0  0
 23 22  1  0  0  0  0
 25 24  1  0  0  0  0
 26 28  1  0  0  0  0
 28 27  1  1  0  0  0
 28 29  1  0  0  0  0
 29 30  1  0  0  0  0
 30 32  1  0  0  0  0
 31 35  1  1  0  0  0
 32 36  1  0  0  0  0
 32 38  2  0  0  0  0
 33 41  1  1  0  0  0
 33 34  1  0  0  0  0
 34 39  1  0  0  0  0
 35 39  1  0  0  0  0
 36 37  2  0  0  0  0
 37 31  1  0  0  0  0
 38 33  1  0  0  0  0
 38 31  1  0  0  0  0
 41 40  1  1  0  0  0
 42 49  1  6  0  0  0
 44 45  2  0  0  0  0
 45 42  1  0  0  0  0
 45 41  1  0  0  0  0
 46 43  1  6  0  0  0
 46 42  1  0  0  0  0
 47 44  1  0  0  0  0
 47 46  1  0  0  0  0
 48 47  2  0  0  0  0
 49 50  1  0  0  0  0
M  END
>  <MODEL>
8

>  <REMARK>
 VINA RESULT:      -4.0      3.721      8.094
  Name = 
  17 active torsions:
  status: ('A' for Active; 'I' for Inactive)
    1  A    between atoms: C_2  and  C_12
    2  A    between atoms: C_2  and  C_42
    3  A    between atoms: C_3  and  C_12
    4  A    between atoms: C_4  and  C_35
    5  A    between atoms: C_7  and  C_32
    6  A    between atoms: C_7  and  O_39
    7  A    between atoms: C_7  and  O_45
    8  A    between atoms: C_8  and  O_49
    9  A    between atoms: C_9  and  O_31
   10  A    between atoms: C_11  and  C_21
   11  A    between atoms: C_11  and  C_48
   12  A    between atoms: C_16  and  C_30
   13  A    between atoms: C_16  and  C_48
   14  A    between atoms: C_33  and  C_35
   15  A    between atoms: O_39  and  C_42
   16  A    between atoms: C_40  and  O_49
   17  A    between atoms: C_43  and  C_44
                            x       y       z     vdW  Elec       q    Type
                         _______ _______ _______ _____ _____    ______ ____

>  <TORSDO>
F 17

$$$$
