=
 OpenBabel11072412033D

 45 50  0  0  1  0  0  0  0  0999 V2000
  161.8470  209.8990  154.2920 C   0  0  0  0  0  2  0  0  0  0  0  0
  159.7720  210.5890  152.4860 C   0  0  0  0  0  0  0  0  0  0  0  0
  158.8210  213.9110  154.4670 C   0  0  0  0  0  2  0  0  0  0  0  0
  158.9250  212.8630  152.4720 C   0  0  2  0  0  3  0  0  0  0  0  0
  161.6910  211.3480  156.2820 O   0  0  0  0  0  1  0  0  0  0  0  0
  160.4560  208.2710  152.9000 C   0  0  1  0  0  3  0  0  0  0  0  0
  159.1310  214.1020  153.1120 O   0  0  0  0  0  0  0  0  0  0  0  0
  159.9800  213.1930  155.1550 C   0  0  0  0  0  2  0  0  0  0  0  0
  159.8340  211.7820  153.0120 C   0  0  0  0  0  0  0  0  0  0  0  0
  160.8650  208.7280  154.3190 C   0  0  0  0  0  2  0  0  0  0  0  0
  160.3880  211.9560  154.3920 C   0  0  0  0  0  0  0  0  0  0  0  0
  159.7920  209.3510  152.0770 C   0  0  0  0  0  3  0  0  0  0  0  0
  161.2700  211.1060  154.9770 C   0  0  0  0  0  0  0  0  0  0  0  0
  162.5590  208.5740  151.6560 O   0  0  0  0  0  0  0  0  0  0  0  0
  161.6260  207.6210  152.1370 C   0  0  2  0  0  3  0  0  0  0  0  0
  161.1450  206.6280  151.0560 C   0  0  1  0  0  3  0  0  0  0  0  0
  161.8750  206.8320  149.7140 C   0  0  2  0  0  3  0  0  0  0  0  0
  162.0010  208.3160  149.3270 C   0  0  0  0  0  2  0  0  0  0  0  0
  161.9900  209.2290  150.5500 C   0  0  0  0  0  2  0  0  0  0  0  0
  162.1170  205.9580  147.3350 C   0  0  0  0  0  2  0  0  0  0  0  0
  161.5250  203.6880  147.9000 C   0  0  1  0  0  3  0  0  0  0  0  0
  161.2500  205.9990  148.5870 C   0  0  1  0  0  3  0  0  0  0  0  0
  161.0140  204.5620  149.0250 C   0  0  0  0  0  2  0  0  0  0  0  0
  162.5570  204.5160  147.1680 C   0  0  1  0  0  3  0  0  0  0  0  0
  162.1200  202.5420  148.4280 O   0  0  0  0  0  1  0  0  0  0  0  0
  162.5910  204.1340  145.6980 C   0  0  0  0  0  2  0  0  0  0  0  0
  161.2000  203.0330  145.3010 S   0  0  0  0  0  0  0  0  0  0  0  0
  161.2460  205.1360  143.7240 O   0  0  0  0  0  1  0  0  0  0  0  0
  160.3250  204.3540  144.4210 C   0  0  0  0  0  2  0  0  0  0  0  0
  161.3520  205.2110  151.5720 C   0  0  0  0  0  2  0  0  0  0  0  0
  160.7980  205.0780  152.8450 O   0  0  0  0  0  1  0  0  0  0  0  0
  159.0100  213.0080  150.9350 C   0  0  2  0  0  3  0  0  0  0  0  0
  160.6910  214.2650  149.4790 C   0  0  0  0  0  2  0  0  0  0  0  0
  160.4740  213.1100  150.4380 C   0  0  2  0  0  3  0  0  0  0  0  0
  161.8760  213.8800  148.6180 C   0  0  1  0  0  3  0  0  0  0  0  0
  163.0350  214.4500  149.1440 O   0  0  0  0  0  1  0  0  0  0  0  0
  160.9100  211.8910  149.6440 C   0  0  0  0  0  2  0  0  0  0  0  0
  161.9870  212.3690  148.6880 C   0  0  0  0  0  2  0  0  0  0  0  0
  158.3210  214.4510  148.9740 C   0  0  0  0  0  2  0  0  0  0  0  0
  158.1520  214.2070  150.4680 C   0  0  1  0  0  3  0  0  0  0  0  0
  157.0940  213.8550  148.2910 C   0  0  2  0  0  3  0  0  0  0  0  0
  156.1900  213.2820  149.3680 C   0  0  0  0  0  2  0  0  0  0  0  0
  156.6590  213.9400  150.6470 C   0  0  0  0  0  2  0  0  0  0  0  0
  156.9020  213.4240  146.0340 C   0  0  0  0  0  1  0  0  0  0  0  0
  157.4000  212.9390  147.2560 O   0  0  0  0  0  0  0  0  0  0  0  0
  1 10  1  0  0  0  0
  1 13  1  0  0  0  0
  2  9  2  0  0  0  0
  3  8  1  0  0  0  0
  4 32  1  6  0  0  0
  4  9  1  0  0  0  0
  4  7  1  0  0  0  0
  6 12  1  6  0  0  0
  6 10  1  0  0  0  0
  7  3  1  0  0  0  0
  9 11  1  0  0  0  0
 11 13  2  0  0  0  0
 11  8  1  0  0  0  0
 12  2  2  0  0  0  0
 13  5  1  0  0  0  0
 15 14  1  6  0  0  0
 15  6  1  0  0  0  0
 16 30  1  1  0  0  0
 16 15  1  0  0  0  0
 17 18  1  6  0  0  0
 17 16  1  0  0  0  0
 18 19  1  0  0  0  0
 19 14  1  0  0  0  0
 21 25  1  1  0  0  0
 21 23  1  0  0  0  0
 22 20  1  6  0  0  0
 22 23  1  0  0  0  0
 22 17  1  0  0  0  0
 24 26  1  6  0  0  0
 24 20  1  0  0  0  0
 24 21  1  0  0  0  0
 27 26  1  0  0  0  0
 28 29  1  0  0  0  0
 29 27  1  0  0  0  0
 30 31  1  0  0  0  0
 32 34  1  1  0  0  0
 34 33  1  6  0  0  0
 35 38  1  0  0  0  0
 35 36  1  1  0  0  0
 35 33  1  0  0  0  0
 37 34  1  0  0  0  0
 38 37  1  0  0  0  0
 39 40  1  0  0  0  0
 40 43  1  0  0  0  0
 40 32  1  6  0  0  0
 41 45  1  6  0  0  0
 41 39  1  0  0  0  0
 41 42  1  0  0  0  0
 42 43  1  0  0  0  0
 44 45  1  0  0  0  0
M  END
>  <MODEL>
1

>  <REMARK>
 VINA RESULT:      -5.5      0.000      0.000
  Name = 
  10 active torsions:
  status: ('A' for Active; 'I' for Inactive)
    1  A    between atoms: C_2  and  C_3
    2  A    between atoms: C_3  and  C_7
    3  A    between atoms: C_3  and  C_17
    4  A    between atoms: C_6  and  C_29
    5  A    between atoms: C_10  and  O_45
    6  A    between atoms: C_19  and  C_22
    7  A    between atoms: C_24  and  S_35
    8  A    between atoms: C_31  and  C_32
    9  A    between atoms: C_34  and  S_35
   10  A    between atoms: C_34  and  C_42
                            x       y       z     vdW  Elec       q    Type
                         _______ _______ _______ _____ _____    ______ ____

>  <TORSDO>
F 10

$$$$
=
 OpenBabel11072412033D

 45 50  0  0  1  0  0  0  0  0999 V2000
  162.3730  209.4800  155.3450 C   0  0  0  0  0  2  0  0  0  0  0  0
  159.8290  209.9160  154.1700 C   0  0  0  0  0  0  0  0  0  0  0  0
  159.2040  213.2900  156.1950 C   0  0  0  0  0  2  0  0  0  0  0  0
  158.8320  212.1250  154.2980 C   0  0  2  0  0  3  0  0  0  0  0  0
  162.6610  211.0390  157.2340 O   0  0  0  0  0  1  0  0  0  0  0  0
  160.7850  207.6800  154.4730 C   0  0  1  0  0  3  0  0  0  0  0  0
  159.1080  213.4140  154.8000 O   0  0  0  0  0  0  0  0  0  0  0  0
  160.5620  212.6930  156.5580 C   0  0  0  0  0  2  0  0  0  0  0  0
  159.9390  211.1420  154.6060 C   0  0  0  0  0  0  0  0  0  0  0  0
  161.5340  208.2510  155.6980 C   0  0  0  0  0  2  0  0  0  0  0  0
  160.8400  211.4390  155.7650 C   0  0  0  0  0  0  0  0  0  0  0  0
  159.8330  208.6590  153.8250 C   0  0  0  0  0  3  0  0  0  0  0  0
  161.9140  210.6880  156.1130 C   0  0  0  0  0  0  0  0  0  0  0  0
  162.5920  208.0220  152.8370 O   0  0  0  0  0  0  0  0  0  0  0  0
  161.7450  207.0590  153.4400 C   0  0  2  0  0  3  0  0  0  0  0  0
  161.0110  206.1580  152.4210 C   0  0  1  0  0  3  0  0  0  0  0  0
  161.4540  206.4420  150.9720 C   0  0  2  0  0  3  0  0  0  0  0  0
  161.5520  207.9470  150.6660 C   0  0  0  0  0  2  0  0  0  0  0  0
  161.8300  208.7690  151.9210 C   0  0  0  0  0  2  0  0  0  0  0  0
  160.3730  206.5060  148.6670 C   0  0  0  0  0  2  0  0  0  0  0  0
  161.0960  204.2880  148.0520 C   0  0  1  0  0  3  0  0  0  0  0  0
  160.5760  205.7080  149.9490 C   0  0  1  0  0  3  0  0  0  0  0  0
  161.1800  204.3680  149.5610 C   0  0  0  0  0  2  0  0  0  0  0  0
  161.0510  205.7180  147.5630 C   0  0  1  0  0  3  0  0  0  0  0  0
  162.2300  203.6480  147.5510 O   0  0  0  0  0  1  0  0  0  0  0  0
  160.2510  205.8070  146.2740 C   0  0  0  0  0  2  0  0  0  0  0  0
  161.3600  205.7220  144.8370 S   0  0  0  0  0  0  0  0  0  0  0  0
  159.7080  203.7480  144.3030 O   0  0  0  0  0  1  0  0  0  0  0  0
  161.0500  203.9490  144.6240 C   0  0  0  0  0  2  0  0  0  0  0  0
  161.2680  204.7040  152.7870 C   0  0  0  0  0  2  0  0  0  0  0  0
  160.1230  203.9410  152.5580 O   0  0  0  0  0  1  0  0  0  0  0  0
  158.4740  212.1780  152.7940 C   0  0  2  0  0  3  0  0  0  0  0  0
  159.1610  213.3350  150.6240 C   0  0  0  0  0  2  0  0  0  0  0  0
  159.6350  212.7440  151.9370 C   0  0  2  0  0  3  0  0  0  0  0  0
  160.3350  213.2400  149.6710 C   0  0  1  0  0  3  0  0  0  0  0  0
  161.0220  214.4530  149.6610 O   0  0  0  0  0  1  0  0  0  0  0  0
  160.6290  211.6760  151.5180 C   0  0  0  0  0  2  0  0  0  0  0  0
  161.2440  212.1550  150.2170 C   0  0  0  0  0  2  0  0  0  0  0  0
  156.0380  212.3900  153.4440 C   0  0  0  0  0  2  0  0  0  0  0  0
  157.1610  212.9670  152.5900 C   0  0  1  0  0  3  0  0  0  0  0  0
  155.8980  213.3020  154.6590 C   0  0  2  0  0  3  0  0  0  0  0  0
  156.9100  214.4260  154.5190 C   0  0  0  0  0  2  0  0  0  0  0  0
  157.2900  214.4160  153.0560 C   0  0  0  0  0  2  0  0  0  0  0  0
  155.7340  211.2520  155.6990 C   0  0  0  0  0  1  0  0  0  0  0  0
  155.9660  212.6240  155.8990 O   0  0  0  0  0  0  0  0  0  0  0  0
  1 10  1  0  0  0  0
  1 13  1  0  0  0  0
  2  9  2  0  0  0  0
  3  8  1  0  0  0  0
  4 32  1  6  0  0  0
  4  9  1  0  0  0  0
  4  7  1  0  0  0  0
  6 12  1  6  0  0  0
  6 10  1  0  0  0  0
  7  3  1  0  0  0  0
  9 11  1  0  0  0  0
 11 13  2  0  0  0  0
 11  8  1  0  0  0  0
 12  2  2  0  0  0  0
 13  5  1  0  0  0  0
 15 14  1  6  0  0  0
 15  6  1  0  0  0  0
 16 30  1  1  0  0  0
 16 15  1  0  0  0  0
 17 18  1  6  0  0  0
 17 16  1  0  0  0  0
 18 19  1  0  0  0  0
 19 14  1  0  0  0  0
 21 25  1  6  0  0  0
 21 23  1  0  0  0  0
 22 20  1  6  0  0  0
 22 17  1  0  0  0  0
 23 22  1  0  0  0  0
 24 26  1  6  0  0  0
 24 21  1  0  0  0  0
 24 20  1  0  0  0  0
 27 26  1  0  0  0  0
 28 29  1  0  0  0  0
 29 27  1  0  0  0  0
 31 30  1  0  0  0  0
 32 34  1  6  0  0  0
 34 33  1  6  0  0  0
 35 36  1  1  0  0  0
 35 38  1  0  0  0  0
 35 33  1  0  0  0  0
 37 34  1  0  0  0  0
 38 37  1  0  0  0  0
 39 41  1  0  0  0  0
 40 32  1  1  0  0  0
 40 43  1  0  0  0  0
 40 39  1  0  0  0  0
 41 45  1  1  0  0  0
 42 41  1  0  0  0  0
 43 42  1  0  0  0  0
 44 45  1  0  0  0  0
M  END
>  <MODEL>
2

>  <REMARK>
 VINA RESULT:      -4.1      1.852      2.998
  Name = 
  10 active torsions:
  status: ('A' for Active; 'I' for Inactive)
    1  A    between atoms: C_2  and  C_3
    2  A    between atoms: C_3  and  C_7
    3  A    between atoms: C_3  and  C_17
    4  A    between atoms: C_6  and  C_29
    5  A    between atoms: C_10  and  O_45
    6  A    between atoms: C_19  and  C_22
    7  A    between atoms: C_24  and  S_35
    8  A    between atoms: C_31  and  C_32
    9  A    between atoms: C_34  and  S_35
   10  A    between atoms: C_34  and  C_42
                            x       y       z     vdW  Elec       q    Type
                         _______ _______ _______ _____ _____    ______ ____

>  <TORSDO>
F 10

$$$$
=
 OpenBabel11072412033D

 45 50  0  0  1  0  0  0  0  0999 V2000
  160.2880  204.8530  152.5060 C   0  0  0  0  0  2  0  0  0  0  0  0
  161.5330  204.8260  149.9590 C   0  0  0  0  0  0  0  0  0  0  0  0
  161.4790  200.8510  149.7050 C   0  0  0  0  0  2  0  0  0  0  0  0
  161.4060  202.8180  148.6020 C   0  0  2  0  0  3  0  0  0  0  0  0
  160.2510  202.5560  153.4040 O   0  0  0  0  0  1  0  0  0  0  0  0
  161.9030  206.6100  151.5990 C   0  0  1  0  0  3  0  0  0  0  0  0
  160.8610  201.5180  148.6350 O   0  0  0  0  0  0  0  0  0  0  0  0
  160.8510  201.3110  151.0190 C   0  0  0  0  0  2  0  0  0  0  0  0
  161.1150  203.5930  149.8680 C   0  0  0  0  0  0  0  0  0  0  0  0
  161.6340  205.5530  152.6930 C   0  0  0  0  0  2  0  0  0  0  0  0
  160.8170  202.8170  151.1130 C   0  0  0  0  0  0  0  0  0  0  0  0
  161.9190  206.0490  150.1950 C   0  0  0  0  0  3  0  0  0  0  0  0
  160.4700  203.3750  152.3000 C   0  0  0  0  0  0  0  0  0  0  0  0
  160.9260  208.6000  150.5280 O   0  0  0  0  0  0  0  0  0  0  0  0
  160.9550  207.8200  151.7110 C   0  0  2  0  0  3  0  0  0  0  0  0
  161.2070  208.6490  152.9900 C   0  0  1  0  0  3  0  0  0  0  0  0
  161.2610  210.1620  152.7000 C   0  0  2  0  0  3  0  0  0  0  0  0
  162.0920  210.4960  151.4480 C   0  0  0  0  0  2  0  0  0  0  0  0
  162.1210  209.3380  150.4550 C   0  0  0  0  0  2  0  0  0  0  0  0
  160.5620  211.4720  154.7680 C   0  0  0  0  0  2  0  0  0  0  0  0
  162.1150  210.3570  156.2400 C   0  0  1  0  0  3  0  0  0  0  0  0
  161.7240  210.9650  153.9240 C   0  0  1  0  0  3  0  0  0  0  0  0
  162.6160  210.1310  154.8300 C   0  0  0  0  0  2  0  0  0  0  0  0
  160.6650  210.7630  156.1060 C   0  0  1  0  0  3  0  0  0  0  0  0
  162.2130  209.1720  156.9700 O   0  0  0  0  0  1  0  0  0  0  0  0
  160.2740  211.6970  157.2380 C   0  0  0  0  0  2  0  0  0  0  0  0
  159.7780  213.3160  156.5770 S   0  0  0  0  0  0  0  0  0  0  0  0
  157.3550  212.3750  156.1860 O   0  0  0  0  0  1  0  0  0  0  0  0
  158.0700  213.0940  157.1430 C   0  0  0  0  0  2  0  0  0  0  0  0
  160.1090  208.3320  153.9950 C   0  0  0  0  0  2  0  0  0  0  0  0
  160.5590  207.3870  154.9170 O   0  0  0  0  0  1  0  0  0  0  0  0
  160.9720  203.5710  147.3220 C   0  0  2  0  0  3  0  0  0  0  0  0
  159.5060  202.3610  145.6170 C   0  0  0  0  0  2  0  0  0  0  0  0
  160.9210  202.6390  146.0850 C   0  0  2  0  0  3  0  0  0  0  0  0
  159.5550  201.0250  144.9020 C   0  0  1  0  0  3  0  0  0  0  0  0
  159.6810  201.2390  143.5290 O   0  0  0  0  0  1  0  0  0  0  0  0
  161.4910  201.2610  146.3650 C   0  0  0  0  0  2  0  0  0  0  0  0
  160.7910  200.3100  145.4120 C   0  0  0  0  0  2  0  0  0  0  0  0
  162.5440  204.7370  145.7190 C   0  0  0  0  0  2  0  0  0  0  0  0
  161.8880  204.7950  147.0930 C   0  0  1  0  0  3  0  0  0  0  0  0
  161.7620  205.6900  144.8200 C   0  0  2  0  0  3  0  0  0  0  0  0
  160.6670  206.3290  145.6550 C   0  0  0  0  0  2  0  0  0  0  0  0
  161.0990  206.1020  147.0860 C   0  0  0  0  0  2  0  0  0  0  0  0
  161.6330  205.9160  142.5290 C   0  0  0  0  0  1  0  0  0  0  0  0
  161.2950  205.0980  143.6220 O   0  0  0  0  0  0  0  0  0  0  0  0
  1 10  1  0  0  0  0
  2 12  2  0  0  0  0
  3  8  1  0  0  0  0
  4 32  1  6  0  0  0
  4  7  1  0  0  0  0
  4  9  1  0  0  0  0
  6 12  1  6  0  0  0
  6 15  1  0  0  0  0
  6 10  1  0  0  0  0
  7  3  1  0  0  0  0
  8 11  1  0  0  0  0
  9  2  2  0  0  0  0
  9 11  1  0  0  0  0
 11 13  2  0  0  0  0
 13  1  1  0  0  0  0
 13  5  1  0  0  0  0
 15 14  1  6  0  0  0
 15 16  1  0  0  0  0
 16 30  1  1  0  0  0
 17 18  1  6  0  0  0
 17 16  1  0  0  0  0
 17 22  1  0  0  0  0
 19 14  1  0  0  0  0
 19 18  1  0  0  0  0
 20 24  1  0  0  0  0
 21 25  1  1  0  0  0
 22 20  1  1  0  0  0
 22 23  1  0  0  0  0
 23 21  1  0  0  0  0
 24 21  1  0  0  0  0
 24 26  1  1  0  0  0
 27 29  1  0  0  0  0
 27 26  1  0  0  0  0
 28 29  1  0  0  0  0
 30 31  1  0  0  0  0
 32 34  1  6  0  0  0
 34 33  1  1  0  0  0
 34 37  1  0  0  0  0
 35 36  1  6  0  0  0
 35 38  1  0  0  0  0
 35 33  1  0  0  0  0
 38 37  1  0  0  0  0
 39 40  1  0  0  0  0
 40 32  1  6  0  0  0
 41 45  1  6  0  0  0
 41 42  1  0  0  0  0
 41 39  1  0  0  0  0
 42 43  1  0  0  0  0
 43 40  1  0  0  0  0
 44 45  1  0  0  0  0
M  END
>  <MODEL>
3

>  <REMARK>
 VINA RESULT:      -3.9      4.077      9.891
  Name = 
  10 active torsions:
  status: ('A' for Active; 'I' for Inactive)
    1  A    between atoms: C_2  and  C_3
    2  A    between atoms: C_3  and  C_7
    3  A    between atoms: C_3  and  C_17
    4  A    between atoms: C_6  and  C_29
    5  A    between atoms: C_10  and  O_45
    6  A    between atoms: C_19  and  C_22
    7  A    between atoms: C_24  and  S_35
    8  A    between atoms: C_31  and  C_32
    9  A    between atoms: C_34  and  S_35
   10  A    between atoms: C_34  and  C_42
                            x       y       z     vdW  Elec       q    Type
                         _______ _______ _______ _____ _____    ______ ____

>  <TORSDO>
F 10

$$$$
=
 OpenBabel11072412033D

 45 50  0  0  1  0  0  0  0  0999 V2000
  161.1770  210.8530  150.9780 C   0  0  0  0  0  2  0  0  0  0  0  0
  161.8800  208.8310  149.1180 C   0  0  0  0  0  0  0  0  0  0  0  0
  162.3950  206.0720  151.9440 C   0  0  0  0  0  2  0  0  0  0  0  0
  161.8000  206.5070  149.8120 C   0  0  2  0  0  3  0  0  0  0  0  0
  161.6770  210.0540  153.2570 O   0  0  0  0  0  1  0  0  0  0  0  0
  162.2860  211.2140  148.7060 C   0  0  1  0  0  3  0  0  0  0  0  0
  161.4820  205.7210  150.9380 O   0  0  0  0  0  0  0  0  0  0  0  0
  161.9770  207.4020  152.5670 C   0  0  0  0  0  2  0  0  0  0  0  0
  161.6490  207.9870  150.0860 C   0  0  0  0  0  0  0  0  0  0  0  0
  162.4080  211.3780  150.2380 C   0  0  0  0  0  2  0  0  0  0  0  0
  161.7300  208.4490  151.5080 C   0  0  0  0  0  0  0  0  0  0  0  0
  162.1100  209.7820  148.2550 C   0  0  0  0  0  3  0  0  0  0  0  0
  161.5420  209.7310  151.9090 C   0  0  0  0  0  0  0  0  0  0  0  0
  160.0400  211.4180  147.7200 O   0  0  0  0  0  0  0  0  0  0  0  0
  161.2030  212.1310  148.1050 C   0  0  2  0  0  3  0  0  0  0  0  0
  161.7590  213.0510  146.9960 C   0  0  1  0  0  3  0  0  0  0  0  0
  160.8540  213.0690  145.7490 C   0  0  2  0  0  3  0  0  0  0  0  0
  160.3710  211.6640  145.3470 C   0  0  0  0  0  2  0  0  0  0  0  0
  160.3260  210.7120  146.5380 C   0  0  0  0  0  2  0  0  0  0  0  0
  162.3570  212.8850  143.7020 C   0  0  0  0  0  2  0  0  0  0  0  0
  160.8650  214.1090  142.2540 C   0  0  1  0  0  3  0  0  0  0  0  0
  161.5110  213.8050  144.5730 C   0  0  1  0  0  3  0  0  0  0  0  0
  160.4700  214.4530  143.6740 C   0  0  0  0  0  2  0  0  0  0  0  0
  161.6790  212.8380  142.3460 C   0  0  1  0  0  3  0  0  0  0  0  0
  159.7200  213.8890  141.4880 O   0  0  0  0  0  1  0  0  0  0  0  0
  162.7110  212.7940  141.2320 C   0  0  0  0  0  2  0  0  0  0  0  0
  162.5930  211.2230  140.3270 S   0  0  0  0  0  0  0  0  0  0  0  0
  163.9160  212.9650  138.8700 O   0  0  0  0  0  1  0  0  0  0  0  0
  162.8760  212.0450  138.7370 C   0  0  0  0  0  2  0  0  0  0  0  0
  161.9190  214.4530  147.5650 C   0  0  0  0  0  2  0  0  0  0  0  0
  162.0420  214.3970  148.9540 O   0  0  0  0  0  1  0  0  0  0  0  0
  161.0090  206.0430  148.5660 C   0  0  2  0  0  3  0  0  0  0  0  0
  159.8870  203.9960  149.6040 C   0  0  0  0  0  2  0  0  0  0  0  0
  160.8280  204.5040  148.5290 C   0  0  2  0  0  3  0  0  0  0  0  0
  160.2900  202.5610  149.8740 C   0  0  1  0  0  3  0  0  0  0  0  0
  159.4770  201.7040  149.1320 O   0  0  0  0  0  1  0  0  0  0  0  0
  162.1220  203.7550  148.7950 C   0  0  0  0  0  2  0  0  0  0  0  0
  161.7250  202.4220  149.4000 C   0  0  0  0  0  2  0  0  0  0  0  0
  162.6610  205.5650  146.7110 C   0  0  0  0  0  2  0  0  0  0  0  0
  161.6800  206.5820  147.2820 C   0  0  1  0  0  3  0  0  0  0  0  0
  161.9550  204.8820  145.5440 C   0  0  2  0  0  3  0  0  0  0  0  0
  160.5760  205.5020  145.4040 C   0  0  0  0  0  2  0  0  0  0  0  0
  160.6670  206.8070  146.1630 C   0  0  0  0  0  2  0  0  0  0  0  0
  160.6780  202.9880  145.2390 C   0  0  0  0  0  1  0  0  0  0  0  0
  161.9410  203.4690  145.6270 O   0  0  0  0  0  0  0  0  0  0  0  0
  1 13  1  0  0  0  0
  2  9  2  0  0  0  0
  3  8  1  0  0  0  0
  4 32  1  6  0  0  0
  4  9  1  0  0  0  0
  4  7  1  0  0  0  0
  6 12  1  1  0  0  0
  6 10  1  0  0  0  0
  7  3  1  0  0  0  0
  9 11  1  0  0  0  0
 10  1  1  0  0  0  0
 11 13  2  0  0  0  0
 11  8  1  0  0  0  0
 12  2  2  0  0  0  0
 13  5  1  0  0  0  0
 15 14  1  6  0  0  0
 15  6  1  0  0  0  0
 16 30  1  1  0  0  0
 16 15  1  0  0  0  0
 17 18  1  6  0  0  0
 17 16  1  0  0  0  0
 18 19  1  0  0  0  0
 19 14  1  0  0  0  0
 20 22  1  0  0  0  0
 21 25  1  6  0  0  0
 21 24  1  0  0  0  0
 21 23  1  0  0  0  0
 22 23  1  6  0  0  0
 22 17  1  0  0  0  0
 24 26  1  6  0  0  0
 24 20  1  0  0  0  0
 27 26  1  0  0  0  0
 29 28  1  0  0  0  0
 29 27  1  0  0  0  0
 30 31  1  0  0  0  0
 32 40  1  6  0  0  0
 33 35  1  0  0  0  0
 34 32  1  1  0  0  0
 34 37  1  0  0  0  0
 34 33  1  0  0  0  0
 35 36  1  6  0  0  0
 37 38  1  0  0  0  0
 38 35  1  0  0  0  0
 39 40  1  0  0  0  0
 40 43  1  6  0  0  0
 41 45  1  1  0  0  0
 41 39  1  0  0  0  0
 42 41  1  0  0  0  0
 42 43  1  0  0  0  0
 44 45  1  0  0  0  0
M  END
>  <MODEL>
4

>  <REMARK>
 VINA RESULT:      -3.8      3.707      8.651
  Name = 
  10 active torsions:
  status: ('A' for Active; 'I' for Inactive)
    1  A    between atoms: C_2  and  C_3
    2  A    between atoms: C_3  and  C_7
    3  A    between atoms: C_3  and  C_17
    4  A    between atoms: C_6  and  C_29
    5  A    between atoms: C_10  and  O_45
    6  A    between atoms: C_19  and  C_22
    7  A    between atoms: C_24  and  S_35
    8  A    between atoms: C_31  and  C_32
    9  A    between atoms: C_34  and  S_35
   10  A    between atoms: C_34  and  C_42
                            x       y       z     vdW  Elec       q    Type
                         _______ _______ _______ _____ _____    ______ ____

>  <TORSDO>
F 10

$$$$
=
 OpenBabel11072412033D

 45 50  0  0  1  0  0  0  0  0999 V2000
  160.8790  209.8520  148.2380 C   0  0  0  0  0  2  0  0  0  0  0  0
  161.1760  210.5590  150.9690 C   0  0  0  0  0  0  0  0  0  0  0  0
  161.4660  214.4530  150.1800 C   0  0  0  0  0  2  0  0  0  0  0  0
  160.8100  212.8620  151.6390 C   0  0  2  0  0  3  0  0  0  0  0  0
  161.3980  211.8170  146.8410 O   0  0  0  0  0  1  0  0  0  0  0  0
  161.8890  208.3910  150.0730 C   0  0  1  0  0  3  0  0  0  0  0  0
  160.4530  214.1100  151.0880 O   0  0  0  0  0  0  0  0  0  0  0  0
  161.2790  213.6590  148.8890 C   0  0  0  0  0  2  0  0  0  0  0  0
  160.8870  211.7750  150.5910 C   0  0  0  0  0  0  0  0  0  0  0  0
  162.1250  209.1130  148.7270 C   0  0  0  0  0  2  0  0  0  0  0  0
  161.1180  212.1850  149.1700 C   0  0  0  0  0  0  0  0  0  0  0  0
  161.4850  209.3140  151.2010 C   0  0  0  0  0  3  0  0  0  0  0  0
  161.1380  211.3280  148.1180 C   0  0  0  0  0  0  0  0  0  0  0  0
  160.6280  206.5900  151.1810 O   0  0  0  0  0  0  0  0  0  0  0  0
  160.9120  207.2070  149.9370 C   0  0  2  0  0  3  0  0  0  0  0  0
  161.3450  206.2100  148.8390 C   0  0  1  0  0  3  0  0  0  0  0  0
  161.2630  204.7480  149.3190 C   0  0  2  0  0  3  0  0  0  0  0  0
  161.8350  204.5550  150.7350 C   0  0  0  0  0  2  0  0  0  0  0  0
  161.7480  205.8320  151.5650 C   0  0  0  0  0  2  0  0  0  0  0  0
  160.9530  202.6460  147.9150 C   0  0  0  0  0  2  0  0  0  0  0  0
  161.8160  203.6350  145.8900 C   0  0  1  0  0  3  0  0  0  0  0  0
  161.8940  203.7760  148.3110 C   0  0  1  0  0  3  0  0  0  0  0  0
  162.3090  204.4930  147.0360 C   0  0  0  0  0  2  0  0  0  0  0  0
  160.6560  202.8360  146.4390 C   0  0  1  0  0  3  0  0  0  0  0  0
  161.3820  204.4500  144.8450 O   0  0  0  0  0  1  0  0  0  0  0  0
  160.5630  201.4930  145.7350 C   0  0  0  0  0  2  0  0  0  0  0  0
  161.2010  200.1730  146.8090 S   0  0  0  0  0  0  0  0  0  0  0  0
  160.9840  197.8380  145.6200 O   0  0  0  0  0  1  0  0  0  0  0  0
  161.5400  199.0970  145.3900 C   0  0  0  0  0  2  0  0  0  0  0  0
  160.4660  206.4260  147.6160 C   0  0  0  0  0  2  0  0  0  0  0  0
  161.2260  206.9290  146.5600 O   0  0  0  0  0  1  0  0  0  0  0  0
  159.8870  212.4920  152.8240 C   0  0  2  0  0  3  0  0  0  0  0  0
  159.4800  210.2190  153.9150 C   0  0  0  0  0  2  0  0  0  0  0  0
  160.4720  211.3420  153.6830 C   0  0  2  0  0  3  0  0  0  0  0  0
  159.8980  209.5480  155.2080 C   0  0  1  0  0  3  0  0  0  0  0  0
  160.6840  208.4330  154.9180 O   0  0  0  0  0  1  0  0  0  0  0  0
  160.8500  211.7890  155.0830 C   0  0  0  0  0  2  0  0  0  0  0  0
  160.7310  210.5630  155.9680 C   0  0  0  0  0  2  0  0  0  0  0  0
  157.4850  212.0230  153.4630 C   0  0  0  0  0  2  0  0  0  0  0  0
  158.4670  212.1690  152.3070 C   0  0  1  0  0  3  0  0  0  0  0  0
  156.6980  213.3280  153.5380 C   0  0  2  0  0  3  0  0  0  0  0  0
  157.1890  214.2340  152.4220 C   0  0  0  0  0  2  0  0  0  0  0  0
  157.8970  213.3060  151.4620 C   0  0  0  0  0  2  0  0  0  0  0  0
  157.3520  213.0860  155.7350 C   0  0  0  0  0  1  0  0  0  0  0  0
  156.7130  213.9360  154.8160 O   0  0  0  0  0  0  0  0  0  0  0  0
  1 10  1  0  0  0  0
  2 12  2  0  0  0  0
  3  7  1  0  0  0  0
  4 32  1  1  0  0  0
  5 13  1  0  0  0  0
  6 10  1  6  0  0  0
  6 12  1  0  0  0  0
  7  4  1  0  0  0  0
  8 11  1  0  0  0  0
  8  3  1  0  0  0  0
  9  2  2  0  0  0  0
  9  4  1  0  0  0  0
 11  9  1  0  0  0  0
 13  1  1  0  0  0  0
 13 11  2  0  0  0  0
 14 19  1  0  0  0  0
 15  6  1  0  0  0  0
 15 14  1  1  0  0  0
 16 30  1  6  0  0  0
 16 17  1  0  0  0  0
 16 15  1  0  0  0  0
 17 18  1  1  0  0  0
 18 19  1  0  0  0  0
 20 22  1  0  0  0  0
 21 25  1  6  0  0  0
 21 24  1  0  0  0  0
 21 23  1  0  0  0  0
 22 23  1  6  0  0  0
 22 17  1  0  0  0  0
 24 26  1  6  0  0  0
 24 20  1  0  0  0  0
 26 27  1  0  0  0  0
 29 28  1  0  0  0  0
 29 27  1  0  0  0  0
 31 30  1  0  0  0  0
 32 40  1  6  0  0  0
 33 35  1  0  0  0  0
 34 32  1  6  0  0  0
 34 33  1  0  0  0  0
 34 37  1  0  0  0  0
 35 36  1  6  0  0  0
 35 38  1  0  0  0  0
 37 38  1  0  0  0  0
 39 41  1  0  0  0  0
 40 43  1  6  0  0  0
 40 39  1  0  0  0  0
 41 45  1  1  0  0  0
 42 41  1  0  0  0  0
 43 42  1  0  0  0  0
 45 44  1  0  0  0  0
M  END
>  <MODEL>
5

>  <REMARK>
 VINA RESULT:      -3.5      2.080      4.998
  Name = 
  10 active torsions:
  status: ('A' for Active; 'I' for Inactive)
    1  A    between atoms: C_2  and  C_3
    2  A    between atoms: C_3  and  C_7
    3  A    between atoms: C_3  and  C_17
    4  A    between atoms: C_6  and  C_29
    5  A    between atoms: C_10  and  O_45
    6  A    between atoms: C_19  and  C_22
    7  A    between atoms: C_24  and  S_35
    8  A    between atoms: C_31  and  C_32
    9  A    between atoms: C_34  and  S_35
   10  A    between atoms: C_34  and  C_42
                            x       y       z     vdW  Elec       q    Type
                         _______ _______ _______ _____ _____    ______ ____

>  <TORSDO>
F 10

$$$$
=
 OpenBabel11072412033D

 45 50  0  0  1  0  0  0  0  0999 V2000
  160.3180  210.3580  150.3920 C   0  0  0  0  0  2  0  0  0  0  0  0
  160.4490  210.2710  153.2230 C   0  0  0  0  0  0  0  0  0  0  0  0
  160.0640  214.2180  153.6040 C   0  0  0  0  0  2  0  0  0  0  0  0
  159.6760  212.1840  154.5010 C   0  0  2  0  0  3  0  0  0  0  0  0
  160.5040  212.7030  149.6530 O   0  0  0  0  0  1  0  0  0  0  0  0
  161.5420  208.6080  151.7920 C   0  0  1  0  0  3  0  0  0  0  0  0
  159.1140  213.4630  154.3090 O   0  0  0  0  0  0  0  0  0  0  0  0
  160.0360  213.8180  152.1300 C   0  0  0  0  0  2  0  0  0  0  0  0
  159.9560  211.4800  153.1920 C   0  0  0  0  0  0  0  0  0  0  0  0
  161.6670  209.7210  150.7270 C   0  0  0  0  0  2  0  0  0  0  0  0
  160.1320  212.3210  151.9660 C   0  0  0  0  0  0  0  0  0  0  0  0
  160.9680  209.0810  153.1080 C   0  0  0  0  0  3  0  0  0  0  0  0
  160.3160  211.8260  150.7170 C   0  0  0  0  0  0  0  0  0  0  0  0
  160.5720  206.3950  152.2620 O   0  0  0  0  0  0  0  0  0  0  0  0
  160.7890  207.3730  151.2600 C   0  0  2  0  0  3  0  0  0  0  0  0
  161.4250  206.8060  149.9710 C   0  0  1  0  0  3  0  0  0  0  0  0
  161.5800  205.2740  150.0260 C   0  0  2  0  0  3  0  0  0  0  0  0
  162.1270  204.7810  151.3790 C   0  0  0  0  0  2  0  0  0  0  0  0
  161.7920  205.7430  152.5150 C   0  0  0  0  0  2  0  0  0  0  0  0
  161.6820  203.6380  148.0770 C   0  0  0  0  0  2  0  0  0  0  0  0
  162.4460  205.2820  146.4840 C   0  0  1  0  0  3  0  0  0  0  0  0
  162.4040  204.7360  148.8480 C   0  0  1  0  0  3  0  0  0  0  0  0
  162.7430  205.8400  147.8590 C   0  0  0  0  0  2  0  0  0  0  0  0
  161.4160  204.1950  146.6910 C   0  0  1  0  0  3  0  0  0  0  0  0
  161.9230  206.2870  145.6710 O   0  0  0  0  0  1  0  0  0  0  0  0
  161.5770  203.1100  145.6390 C   0  0  0  0  0  2  0  0  0  0  0  0
  160.9600  201.5230  146.2720 S   0  0  0  0  0  0  0  0  0  0  0  0
  159.3880  202.4850  144.3980 O   0  0  0  0  0  1  0  0  0  0  0  0
  159.9300  201.2660  144.8020 C   0  0  0  0  0  2  0  0  0  0  0  0
  160.5660  207.2180  148.7850 C   0  0  0  0  0  2  0  0  0  0  0  0
  159.4960  206.3340  148.6370 O   0  0  0  0  0  1  0  0  0  0  0  0
  158.8160  211.3370  155.4680 C   0  0  2  0  0  3  0  0  0  0  0  0
  157.0660  212.3960  156.9970 C   0  0  0  0  0  2  0  0  0  0  0  0
  157.3730  211.8870  155.6020 C   0  0  2  0  0  3  0  0  0  0  0  0
  155.5650  212.2820  157.1660 C   0  0  1  0  0  3  0  0  0  0  0  0
  154.9720  213.5110  156.8770 O   0  0  0  0  0  1  0  0  0  0  0  0
  156.3160  210.8250  155.3610 C   0  0  0  0  0  2  0  0  0  0  0  0
  155.0960  211.2510  156.1570 C   0  0  0  0  0  2  0  0  0  0  0  0
  159.6510  209.7580  157.2600 C   0  0  0  0  0  2  0  0  0  0  0  0
  159.5230  211.2170  156.8370 C   0  0  1  0  0  3  0  0  0  0  0  0
  161.0870  209.3390  156.9610 C   0  0  2  0  0  3  0  0  0  0  0  0
  161.8160  210.5420  156.3880 C   0  0  0  0  0  2  0  0  0  0  0  0
  160.9620  211.7270  156.7810 C   0  0  0  0  0  2  0  0  0  0  0  0
  160.1610  207.2800  156.4970 C   0  0  0  0  0  1  0  0  0  0  0  0
  161.1930  208.1750  156.1630 O   0  0  0  0  0  0  0  0  0  0  0  0
  1 13  1  0  0  0  0
  1 10  1  0  0  0  0
  3  7  1  0  0  0  0
  4 32  1  1  0  0  0
  5 13  1  0  0  0  0
  6 10  1  6  0  0  0
  6 12  1  0  0  0  0
  7  4  1  0  0  0  0
  8  3  1  0  0  0  0
  9  2  2  0  0  0  0
  9  4  1  0  0  0  0
 11  8  1  0  0  0  0
 11  9  1  0  0  0  0
 12  2  2  0  0  0  0
 13 11  2  0  0  0  0
 14 19  1  0  0  0  0
 15  6  1  0  0  0  0
 15 14  1  1  0  0  0
 16 30  1  6  0  0  0
 16 17  1  0  0  0  0
 16 15  1  0  0  0  0
 17 18  1  1  0  0  0
 18 19  1  0  0  0  0
 20 22  1  0  0  0  0
 21 25  1  6  0  0  0
 21 24  1  0  0  0  0
 21 23  1  0  0  0  0
 22 23  1  6  0  0  0
 22 17  1  0  0  0  0
 24 26  1  6  0  0  0
 24 20  1  0  0  0  0
 26 27  1  0  0  0  0
 28 29  1  0  0  0  0
 29 27  1  0  0  0  0
 31 30  1  0  0  0  0
 32 34  1  1  0  0  0
 33 35  1  0  0  0  0
 34 37  1  1  0  0  0
 34 33  1  0  0  0  0
 35 36  1  6  0  0  0
 37 38  1  0  0  0  0
 38 35  1  0  0  0  0
 40 32  1  6  0  0  0
 40 39  1  0  0  0  0
 41 45  1  6  0  0  0
 41 39  1  0  0  0  0
 42 43  1  0  0  0  0
 42 41  1  0  0  0  0
 43 40  1  0  0  0  0
 45 44  1  0  0  0  0
M  END
>  <MODEL>
6

>  <REMARK>
 VINA RESULT:      -3.4      2.396      5.764
  Name = 
  10 active torsions:
  status: ('A' for Active; 'I' for Inactive)
    1  A    between atoms: C_2  and  C_3
    2  A    between atoms: C_3  and  C_7
    3  A    between atoms: C_3  and  C_17
    4  A    between atoms: C_6  and  C_29
    5  A    between atoms: C_10  and  O_45
    6  A    between atoms: C_19  and  C_22
    7  A    between atoms: C_24  and  S_35
    8  A    between atoms: C_31  and  C_32
    9  A    between atoms: C_34  and  S_35
   10  A    between atoms: C_34  and  C_42
                            x       y       z     vdW  Elec       q    Type
                         _______ _______ _______ _____ _____    ______ ____

>  <TORSDO>
F 10

$$$$
=
 OpenBabel11072412033D

 45 50  0  0  1  0  0  0  0  0999 V2000
  161.0450  209.8960  149.7510 C   0  0  0  0  0  2  0  0  0  0  0  0
  160.3200  210.4810  152.4290 C   0  0  0  0  0  0  0  0  0  0  0  0
  160.3800  214.4210  151.8410 C   0  0  0  0  0  2  0  0  0  0  0  0
  159.4710  212.6900  152.9680 C   0  0  2  0  0  3  0  0  0  0  0  0
  161.7590  211.9800  148.6410 O   0  0  0  0  0  1  0  0  0  0  0  0
  161.5510  208.4570  151.7990 C   0  0  1  0  0  3  0  0  0  0  0  0
  159.1700  213.9190  152.3460 O   0  0  0  0  0  0  0  0  0  0  0  0
  160.7350  213.6830  150.5520 C   0  0  0  0  0  2  0  0  0  0  0  0
  160.0270  211.6760  151.9930 C   0  0  0  0  0  0  0  0  0  0  0  0
  162.1350  209.2730  150.6230 C   0  0  0  0  0  2  0  0  0  0  0  0
  160.6700  212.1870  150.7410 C   0  0  0  0  0  0  0  0  0  0  0  0
  160.6820  209.2670  152.7350 C   0  0  0  0  0  3  0  0  0  0  0  0
  161.1470  211.3960  149.7470 C   0  0  0  0  0  0  0  0  0  0  0  0
  160.7420  206.1940  152.3350 O   0  0  0  0  0  0  0  0  0  0  0  0
  160.8280  207.1820  151.3220 C   0  0  2  0  0  3  0  0  0  0  0  0
  161.3950  206.6480  149.9870 C   0  0  1  0  0  3  0  0  0  0  0  0
  161.6370  205.1270  150.0260 C   0  0  2  0  0  3  0  0  0  0  0  0
  162.3110  204.6680  151.3320 C   0  0  0  0  0  2  0  0  0  0  0  0
  162.0110  205.6110  152.4930 C   0  0  0  0  0  2  0  0  0  0  0  0
  161.7150  203.4520  148.1110 C   0  0  0  0  0  2  0  0  0  0  0  0
  162.1720  205.1110  146.4190 C   0  0  1  0  0  3  0  0  0  0  0  0
  162.3980  204.6340  148.7870 C   0  0  1  0  0  3  0  0  0  0  0  0
  162.5380  205.7350  147.7490 C   0  0  0  0  0  2  0  0  0  0  0  0
  161.2720  203.9400  146.7450 C   0  0  1  0  0  3  0  0  0  0  0  0
  161.4830  206.0390  145.6380 O   0  0  0  0  0  1  0  0  0  0  0  0
  161.4380  202.8450  145.7050 C   0  0  0  0  0  2  0  0  0  0  0  0
  160.8100  201.2660  146.3470 S   0  0  0  0  0  0  0  0  0  0  0  0
  159.6330  202.2800  144.2260 O   0  0  0  0  0  1  0  0  0  0  0  0
  159.6380  201.1020  144.9740 C   0  0  0  0  0  2  0  0  0  0  0  0
  160.4260  207.0110  148.8710 C   0  0  0  0  0  2  0  0  0  0  0  0
  159.3960  206.0720  148.8050 O   0  0  0  0  0  1  0  0  0  0  0  0
  158.2570  212.1560  153.7640 C   0  0  2  0  0  3  0  0  0  0  0  0
  156.9800  213.8250  152.3130 C   0  0  0  0  0  2  0  0  0  0  0  0
  156.9100  212.5270  153.0940 C   0  0  2  0  0  3  0  0  0  0  0  0
  155.5690  214.3760  152.2830 C   0  0  1  0  0  3  0  0  0  0  0  0
  154.9510  214.0020  151.0890 O   0  0  0  0  0  1  0  0  0  0  0  0
  155.8010  212.7680  154.1010 C   0  0  0  0  0  2  0  0  0  0  0  0
  154.8340  213.7370  153.4460 C   0  0  0  0  0  2  0  0  0  0  0  0
  158.0270  211.5030  156.1970 C   0  0  0  0  0  2  0  0  0  0  0  0
  158.3310  212.6400  155.2300 C   0  0  1  0  0  3  0  0  0  0  0  0
  159.3680  211.0160  156.7380 C   0  0  2  0  0  3  0  0  0  0  0  0
  160.4600  211.8710  156.1180 C   0  0  0  0  0  2  0  0  0  0  0  0
  159.7380  213.0980  155.6070 C   0  0  0  0  0  2  0  0  0  0  0  0
  160.9550  209.3470  156.6460 C   0  0  0  0  0  1  0  0  0  0  0  0
  159.5780  209.6240  156.5880 O   0  0  0  0  0  0  0  0  0  0  0  0
  1 10  1  0  0  0  0
  2 12  2  0  0  0  0
  3  7  1  0  0  0  0
  4 32  1  6  0  0  0
  5 13  1  0  0  0  0
  6 10  1  6  0  0  0
  6 12  1  0  0  0  0
  7  4  1  0  0  0  0
  8 11  1  0  0  0  0
  8  3  1  0  0  0  0
  9  2  2  0  0  0  0
  9  4  1  0  0  0  0
 11  9  1  0  0  0  0
 13  1  1  0  0  0  0
 13 11  2  0  0  0  0
 14 19  1  0  0  0  0
 15  6  1  0  0  0  0
 15 14  1  1  0  0  0
 16 30  1  6  0  0  0
 16 17  1  0  0  0  0
 16 15  1  0  0  0  0
 17 18  1  1  0  0  0
 18 19  1  0  0  0  0
 20 22  1  0  0  0  0
 21 25  1  6  0  0  0
 21 24  1  0  0  0  0
 21 23  1  0  0  0  0
 22 23  1  6  0  0  0
 22 17  1  0  0  0  0
 24 26  1  6  0  0  0
 24 20  1  0  0  0  0
 26 27  1  0  0  0  0
 28 29  1  0  0  0  0
 29 27  1  0  0  0  0
 31 30  1  0  0  0  0
 32 34  1  6  0  0  0
 34 33  1  1  0  0  0
 34 37  1  0  0  0  0
 35 36  1  6  0  0  0
 35 33  1  0  0  0  0
 35 38  1  0  0  0  0
 38 37  1  0  0  0  0
 39 41  1  0  0  0  0
 40 32  1  6  0  0  0
 40 43  1  0  0  0  0
 40 39  1  0  0  0  0
 41 45  1  6  0  0  0
 42 41  1  0  0  0  0
 43 42  1  0  0  0  0
 45 44  1  0  0  0  0
M  END
>  <MODEL>
7

>  <REMARK>
 VINA RESULT:      -3.4      2.139      5.041
  Name = 
  10 active torsions:
  status: ('A' for Active; 'I' for Inactive)
    1  A    between atoms: C_2  and  C_3
    2  A    between atoms: C_3  and  C_7
    3  A    between atoms: C_3  and  C_17
    4  A    between atoms: C_6  and  C_29
    5  A    between atoms: C_10  and  O_45
    6  A    between atoms: C_19  and  C_22
    7  A    between atoms: C_24  and  S_35
    8  A    between atoms: C_31  and  C_32
    9  A    between atoms: C_34  and  S_35
   10  A    between atoms: C_34  and  C_42
                            x       y       z     vdW  Elec       q    Type
                         _______ _______ _______ _____ _____    ______ ____

>  <TORSDO>
F 10

$$$$
=
 OpenBabel11072412033D

 45 50  0  0  1  0  0  0  0  0999 V2000
  161.6880  209.4310  149.6390 C   0  0  0  0  0  2  0  0  0  0  0  0
  160.5980  211.2050  151.5640 C   0  0  0  0  0  0  0  0  0  0  0  0
  161.4930  214.4510  149.4350 C   0  0  0  0  0  2  0  0  0  0  0  0
  160.0870  213.4870  150.9120 C   0  0  2  0  0  3  0  0  0  0  0  0
  162.9690  210.7350  147.9830 O   0  0  0  0  0  1  0  0  0  0  0  0
  161.5290  209.0160  152.1540 C   0  0  1  0  0  3  0  0  0  0  0  0
  160.1390  214.3320  149.7850 O   0  0  0  0  0  0  0  0  0  0  0  0
  161.9400  213.1900  148.6990 C   0  0  0  0  0  2  0  0  0  0  0  0
  160.6180  212.1020  150.6150 C   0  0  0  0  0  0  0  0  0  0  0  0
  162.4620  209.1700  150.9310 C   0  0  0  0  0  2  0  0  0  0  0  0
  161.5660  211.9460  149.4670 C   0  0  0  0  0  0  0  0  0  0  0  0
  160.6660  210.2280  152.4230 C   0  0  0  0  0  3  0  0  0  0  0  0
  162.0640  210.7580  149.0410 C   0  0  0  0  0  0  0  0  0  0  0  0
  160.4640  207.1520  153.3600 O   0  0  0  0  0  0  0  0  0  0  0  0
  160.6850  207.7280  152.0830 C   0  0  2  0  0  3  0  0  0  0  0  0
  161.2250  206.7260  151.0390 C   0  0  1  0  0  3  0  0  0  0  0  0
  161.2990  205.2910  151.5970 C   0  0  2  0  0  3  0  0  0  0  0  0
  161.8840  205.2370  153.0200 C   0  0  0  0  0  2  0  0  0  0  0  0
  161.6580  206.5400  153.7810 C   0  0  0  0  0  2  0  0  0  0  0  0
  161.3530  202.9820  150.5230 C   0  0  0  0  0  2  0  0  0  0  0  0
  161.7380  203.8150  148.2910 C   0  0  1  0  0  3  0  0  0  0  0  0
  162.0340  204.3400  150.6410 C   0  0  1  0  0  3  0  0  0  0  0  0
  162.1290  204.9260  149.2420 C   0  0  0  0  0  2  0  0  0  0  0  0
  160.8660  202.8730  149.0910 C   0  0  1  0  0  3  0  0  0  0  0  0
  161.0140  204.3430  147.2220 O   0  0  0  0  0  1  0  0  0  0  0  0
  161.0230  201.4510  148.5800 C   0  0  0  0  0  2  0  0  0  0  0  0
  160.6960  201.3840  146.7940 S   0  0  0  0  0  0  0  0  0  0  0  0
  160.8220  199.1040  145.4910 O   0  0  0  0  0  1  0  0  0  0  0  0
  161.2580  199.6640  146.6920 C   0  0  0  0  0  2  0  0  0  0  0  0
  160.3320  206.7800  149.8090 C   0  0  0  0  0  2  0  0  0  0  0  0
  160.9980  207.4130  148.7590 O   0  0  0  0  0  1  0  0  0  0  0  0
  158.6680  213.4670  151.5290 C   0  0  2  0  0  3  0  0  0  0  0  0
  156.4250  213.1530  150.3500 C   0  0  0  0  0  2  0  0  0  0  0  0
  157.6080  214.0740  150.5750 C   0  0  2  0  0  3  0  0  0  0  0  0
  155.8500  213.5290  148.9990 C   0  0  1  0  0  3  0  0  0  0  0  0
  154.7860  214.4130  149.1790 O   0  0  0  0  0  1  0  0  0  0  0  0
  158.1490  214.3210  149.1790 C   0  0  0  0  0  2  0  0  0  0  0  0
  156.9600  214.2310  148.2400 C   0  0  0  0  0  2  0  0  0  0  0  0
  157.3100  214.0990  153.5680 C   0  0  0  0  0  2  0  0  0  0  0  0
  158.6810  214.1680  152.9070 C   0  0  1  0  0  3  0  0  0  0  0  0
  157.3810  212.9870  154.6090 C   0  0  2  0  0  3  0  0  0  0  0  0
  158.7880  212.4140  154.5880 C   0  0  0  0  0  2  0  0  0  0  0  0
  159.6170  213.4700  153.8910 C   0  0  0  0  0  2  0  0  0  0  0  0
  156.1360  211.3990  155.7240 C   0  0  0  0  0  1  0  0  0  0  0  0
  156.3650  212.0100  154.4790 O   0  0  0  0  0  0  0  0  0  0  0  0
  1 10  1  0  0  0  0
  2 12  2  0  0  0  0
  3  7  1  0  0  0  0
  4 32  1  6  0  0  0
  5 13  1  0  0  0  0
  6 10  1  6  0  0  0
  6 12  1  0  0  0  0
  7  4  1  0  0  0  0
  8  3  1  0  0  0  0
  8 11  1  0  0  0  0
  9  4  1  0  0  0  0
  9  2  2  0  0  0  0
 11  9  1  0  0  0  0
 13 11  2  0  0  0  0
 13  1  1  0  0  0  0
 14 19  1  0  0  0  0
 15  6  1  0  0  0  0
 15 14  1  1  0  0  0
 16 30  1  6  0  0  0
 16 17  1  0  0  0  0
 16 15  1  0  0  0  0
 17 18  1  1  0  0  0
 18 19  1  0  0  0  0
 20 22  1  0  0  0  0
 21 25  1  6  0  0  0
 21 24  1  0  0  0  0
 21 23  1  0  0  0  0
 22 23  1  6  0  0  0
 22 17  1  0  0  0  0
 24 26  1  6  0  0  0
 24 20  1  0  0  0  0
 27 26  1  0  0  0  0
 28 29  1  0  0  0  0
 29 27  1  0  0  0  0
 31 30  1  0  0  0  0
 32 34  1  6  0  0  0
 33 34  1  0  0  0  0
 34 37  1  6  0  0  0
 35 36  1  1  0  0  0
 35 33  1  0  0  0  0
 38 35  1  0  0  0  0
 38 37  1  0  0  0  0
 39 41  1  0  0  0  0
 40 32  1  6  0  0  0
 40 39  1  0  0  0  0
 40 43  1  0  0  0  0
 41 45  1  6  0  0  0
 42 41  1  0  0  0  0
 43 42  1  0  0  0  0
 45 44  1  0  0  0  0
M  END
>  <MODEL>
8

>  <REMARK>
 VINA RESULT:      -3.3      2.031      4.595
  Name = 
  10 active torsions:
  status: ('A' for Active; 'I' for Inactive)
    1  A    between atoms: C_2  and  C_3
    2  A    between atoms: C_3  and  C_7
    3  A    between atoms: C_3  and  C_17
    4  A    between atoms: C_6  and  C_29
    5  A    between atoms: C_10  and  O_45
    6  A    between atoms: C_19  and  C_22
    7  A    between atoms: C_24  and  S_35
    8  A    between atoms: C_31  and  C_32
    9  A    between atoms: C_34  and  S_35
   10  A    between atoms: C_34  and  C_42
                            x       y       z     vdW  Elec       q    Type
                         _______ _______ _______ _____ _____    ______ ____

>  <TORSDO>
F 10

$$$$
=
 OpenBabel11072412033D

 45 50  0  0  1  0  0  0  0  0999 V2000
  162.1560  209.3370  150.6520 C   0  0  0  0  0  2  0  0  0  0  0  0
  160.8960  206.8010  150.5050 C   0  0  0  0  0  0  0  0  0  0  0  0
  161.1280  206.6460  146.5320 C   0  0  0  0  0  2  0  0  0  0  0  0
  161.1050  205.4930  148.4710 C   0  0  2  0  0  3  0  0  0  0  0  0
  162.3020  210.2910  148.3830 O   0  0  0  0  0  1  0  0  0  0  0  0
  160.4570  208.3990  152.3120 C   0  0  1  0  0  3  0  0  0  0  0  0
  161.7070  205.5550  147.1980 O   0  0  0  0  0  0  0  0  0  0  0  0
  161.7430  207.9430  147.0520 C   0  0  0  0  0  2  0  0  0  0  0  0
  161.3690  206.7370  149.2900 C   0  0  0  0  0  0  0  0  0  0  0  0
  160.7810  209.5170  151.2960 C   0  0  0  0  0  2  0  0  0  0  0  0
  161.7090  207.9990  148.5600 C   0  0  0  0  0  0  0  0  0  0  0  0
  160.4570  207.0100  151.7150 C   0  0  0  0  0  3  0  0  0  0  0  0
  162.0390  209.1690  149.1630 C   0  0  0  0  0  0  0  0  0  0  0  0
  161.3150  207.2800  154.3310 O   0  0  0  0  0  0  0  0  0  0  0  0
  161.3500  208.4730  153.5660 C   0  0  2  0  0  3  0  0  0  0  0  0
  161.0910  209.7480  154.3990 C   0  0  1  0  0  3  0  0  0  0  0  0
  160.9590  209.4410  155.9030 C   0  0  2  0  0  3  0  0  0  0  0  0
  160.0850  208.2060  156.1830 C   0  0  0  0  0  2  0  0  0  0  0  0
  160.0860  207.2280  155.0110 C   0  0  0  0  0  2  0  0  0  0  0  0
  160.4620  211.9380  155.8630 C   0  0  0  0  0  2  0  0  0  0  0  0
  158.3230  211.7290  156.9590 C   0  0  1  0  0  3  0  0  0  0  0  0
  160.4890  210.6660  156.7010 C   0  0  1  0  0  3  0  0  0  0  0  0
  159.0900  210.4590  157.2600 C   0  0  0  0  0  2  0  0  0  0  0  0
  159.0070  212.3530  155.7640 C   0  0  1  0  0  3  0  0  0  0  0  0
  157.0010  211.4160  156.6440 O   0  0  0  0  0  1  0  0  0  0  0  0
  158.8770  213.8660  155.8160 C   0  0  0  0  0  2  0  0  0  0  0  0
  157.8020  214.4520  154.4740 S   0  0  0  0  0  0  0  0  0  0  0  0
  158.0560  213.5830  152.0060 O   0  0  0  0  0  1  0  0  0  0  0  0
  158.6230  213.3810  153.2640 C   0  0  0  0  0  2  0  0  0  0  0  0
  162.2250  210.7300  154.1470 C   0  0  0  0  0  2  0  0  0  0  0  0
  163.3900  210.2910  154.7770 O   0  0  0  0  0  1  0  0  0  0  0  0
  161.4950  204.1920  149.2110 C   0  0  2  0  0  3  0  0  0  0  0  0
  162.1870  201.9120  148.2900 C   0  0  0  0  0  2  0  0  0  0  0  0
  161.0660  202.9250  148.4290 C   0  0  2  0  0  3  0  0  0  0  0  0
  161.8760  201.1100  147.0430 C   0  0  1  0  0  3  0  0  0  0  0  0
  161.2190  199.9330  147.4020 O   0  0  0  0  0  1  0  0  0  0  0  0
  160.6680  203.2260  146.9960 C   0  0  0  0  0  2  0  0  0  0  0  0
  160.9470  201.9640  146.2020 C   0  0  0  0  0  2  0  0  0  0  0  0
  159.9060  203.0970  150.8460 C   0  0  0  0  0  2  0  0  0  0  0  0
  160.9280  204.2100  150.6480 C   0  0  1  0  0  3  0  0  0  0  0  0
  160.6180  201.9770  151.5980 C   0  0  2  0  0  3  0  0  0  0  0  0
  162.0430  202.4260  151.8680 C   0  0  0  0  0  2  0  0  0  0  0  0
  162.0080  203.9280  151.6900 C   0  0  0  0  0  2  0  0  0  0  0  0
  159.3390  200.6430  150.2210 C   0  0  0  0  0  1  0  0  0  0  0  0
  160.5280  200.7130  150.9680 O   0  0  0  0  0  0  0  0  0  0  0  0
  1 10  1  0  0  0  0
  2 12  2  0  0  0  0
  3  8  1  0  0  0  0
  3  7  1  0  0  0  0
  4 32  1  1  0  0  0
  4  9  1  0  0  0  0
  5 13  1  0  0  0  0
  6 10  1  6  0  0  0
  6 15  1  0  0  0  0
  7  4  1  0  0  0  0
  8 11  1  0  0  0  0
  9  2  2  0  0  0  0
 11 13  2  0  0  0  0
 11  9  1  0  0  0  0
 12  6  1  0  0  0  0
 13  1  1  0  0  0  0
 14 19  1  0  0  0  0
 15 14  1  1  0  0  0
 15 16  1  0  0  0  0
 16 30  1  1  0  0  0
 16 17  1  0  0  0  0
 17 18  1  6  0  0  0
 17 22  1  0  0  0  0
 19 18  1  0  0  0  0
 21 25  1  6  0  0  0
 21 23  1  0  0  0  0
 22 20  1  6  0  0  0
 22 23  1  0  0  0  0
 24 26  1  1  0  0  0
 24 20  1  0  0  0  0
 24 21  1  0  0  0  0
 27 26  1  0  0  0  0
 28 29  1  0  0  0  0
 29 27  1  0  0  0  0
 30 31  1  0  0  0  0
 32 34  1  6  0  0  0
 33 34  1  0  0  0  0
 34 37  1  6  0  0  0
 35 36  1  1  0  0  0
 35 33  1  0  0  0  0
 38 37  1  0  0  0  0
 38 35  1  0  0  0  0
 39 41  1  0  0  0  0
 40 32  1  6  0  0  0
 40 39  1  0  0  0  0
 40 43  1  0  0  0  0
 41 45  1  6  0  0  0
 41 42  1  0  0  0  0
 43 42  1  0  0  0  0
 44 45  1  0  0  0  0
M  END
>  <MODEL>
9

>  <REMARK>
 VINA RESULT:      -3.1      3.602      9.894
  Name = 
  10 active torsions:
  status: ('A' for Active; 'I' for Inactive)
    1  A    between atoms: C_2  and  C_3
    2  A    between atoms: C_3  and  C_7
    3  A    between atoms: C_3  and  C_17
    4  A    between atoms: C_6  and  C_29
    5  A    between atoms: C_10  and  O_45
    6  A    between atoms: C_19  and  C_22
    7  A    between atoms: C_24  and  S_35
    8  A    between atoms: C_31  and  C_32
    9  A    between atoms: C_34  and  S_35
   10  A    between atoms: C_34  and  C_42
                            x       y       z     vdW  Elec       q    Type
                         _______ _______ _______ _____ _____    ______ ____

>  <TORSDO>
F 10

$$$$
