=
 OpenBabel11072409553D

 48 57  0  0  1  0  0  0  0  0999 V2000
  159.2830  214.3720  151.5940 C   0  0  0  0  0  2  0  0  0  0  0  0
  155.8120  214.4020  153.1630 C   0  0  0  0  0  1  0  0  0  0  0  0
  159.6140  212.0580  154.3010 C   0  0  2  0  0  3  0  0  0  0  0  0
  158.7220  210.9430  154.8490 C   0  0  0  0  0  1  0  0  0  0  0  0
  159.1530  213.3790  154.7310 N   0  0  2  0  0  0  0  0  0  0  0  0
  156.4170  213.9030  155.5290 C   0  0  1  0  0  3  0  0  0  0  0  0
  157.3510  213.1090  156.4240 C   0  0  0  0  0  2  0  0  0  0  0  0
  160.0390  213.7870  150.4400 C   0  0  0  0  0  0  0  0  0  0  0  0
  159.6860  210.8910  151.8920 C   0  0  1  0  0  3  0  0  0  0  0  0
  156.7280  213.5900  154.0690 C   0  0  2  0  0  3  0  0  0  0  0  0
  159.4890  212.1240  152.7830 C   0  0  2  0  0  0  0  0  0  0  0  0
  155.0980  213.5560  155.8250 O   0  0  0  0  0  1  0  0  0  0  0  0
  160.7490  212.6680  150.6250 C   0  0  0  0  0  3  0  0  0  0  0  0
  158.7880  213.5310  156.1450 C   0  0  0  0  0  2  0  0  0  0  0  0
  158.1920  213.9120  153.7320 C   0  0  2  0  0  3  0  0  0  0  0  0
  160.7730  211.9630  151.9530 C   0  0  2  0  0  3  0  0  0  0  0  0
  158.5660  213.2860  152.3880 C   0  0  1  0  0  3  0  0  0  0  0  0
  160.7210  208.7510  153.1170 C   0  0  0  0  0  0  0  0  0  0  0  0
  160.2260  209.7130  152.5830 C   0  0  0  0  0  0  0  0  0  0  0  0
  161.5410  207.4920  155.0230 C   0  0  0  0  0  3  0  0  0  0  0  0
  161.3930  207.5980  153.6930 C   0  0  0  0  0  0  0  0  0  0  0  0
  162.0450  207.8550  150.3150 C   0  0  0  0  0  2  0  0  0  0  0  0
  160.8210  205.9840  151.8630 C   0  0  1  0  0  0  0  0  0  0  0  0
  161.8710  206.5220  152.7390 C   0  0  2  0  0  0  0  0  0  0  0  0
  161.6250  206.1550  148.6260 C   0  0  0  0  0  2  0  0  0  0  0  0
  161.2590  207.5620  149.0920 C   0  0  0  0  0  2  0  0  0  0  0  0
  161.2180  205.2780  153.0850 N   0  0  0  0  0  2  0  0  0  0  0  0
  161.7600  207.0730  151.3380 C   0  0  2  0  0  3  0  0  0  0  0  0
  160.8580  204.8730  150.7990 C   0  0  0  0  0  0  0  0  0  0  0  0
  161.1290  204.9990  149.4690 C   0  0  0  0  0  3  0  0  0  0  0  0
  160.3980  203.6190  151.2300 O   0  0  0  0  0  0  0  0  0  0  0  0
  161.0250  202.3890  150.8720 C   0  0  0  0  0  2  0  0  0  0  0  0
  160.2420  201.6990  149.7670 C   0  0  0  0  0  2  0  0  0  0  0  0
  161.4440  202.3220  147.7820 O   0  0  0  0  0  0  0  0  0  0  0  0
  161.1510  201.2420  148.6330 C   0  0  2  0  0  3  0  0  0  0  0  0
  160.4670  201.4150  147.3330 C   0  0  0  0  0  2  0  0  0  0  0  0
  161.1120  208.5090  155.9530 C   0  0  0  0  0  0  0  0  0  0  0  0
  160.7890  209.3160  156.7190 N   0  0  0  0  0  0  0  0  0  0  0  0
  159.8820  214.3910  149.0850 C   0  0  0  0  0  2  0  0  0  0  0  0
  160.6460  213.5930  148.0430 C   0  0  0  0  0  2  0  0  0  0  0  0
  158.5760  213.3660  146.0610 C   0  0  0  0  0  2  0  0  0  0  0  0
  160.8460  214.4530  146.7870 C   0  0  2  0  0  3  0  0  0  0  0  0
  159.6370  214.4530  145.8340 C   0  0  1  0  0  3  0  0  0  0  0  0
  160.6000  212.1980  145.4400 C   0  0  0  0  0  2  0  0  0  0  0  0
  160.8890  213.6870  145.4690 C   0  0  2  0  0  0  0  0  0  0  0  0
  159.0910  212.0960  145.4130 C   0  0  0  0  0  2  0  0  0  0  0  0
  162.3500  212.8540  143.3760 C   0  0  0  0  0  1  0  0  0  0  0  0
  161.9200  214.4390  144.1620 S   0  0  0  0  0  0  0  0  0  0  0  0
  1 17  1  0  0  0  0
  3  5  1  0  0  0  0
  3  4  1  1  0  0  0
  5 14  1  1  0  0  0
  6 12  1  1  0  0  0
  6  7  1  0  0  0  0
  8 13  2  0  0  0  0
  8  1  1  0  0  0  0
  9 16  1  0  0  0  0
  9 19  1  1  0  0  0
  9 11  1  0  0  0  0
 10  2  1  6  0  0  0
 10  6  1  0  0  0  0
 11  3  1  0  0  0  0
 13 16  1  0  0  0  0
 14  7  1  0  0  0  0
 15 10  1  0  0  0  0
 15  5  1  0  0  0  0
 16 11  1  0  0  0  0
 17 11  1  0  0  0  0
 17 15  1  0  0  0  0
 18 21  1  0  0  0  0
 19 18  3  0  0  0  0
 20 37  1  0  0  0  0
 21 20  2  0  0  0  0
 22 28  1  0  0  0  0
 23 24  1  0  0  0  0
 23 27  1  0  0  0  0
 24 27  1  0  0  0  0
 24 21  1  0  0  0  0
 25 26  1  0  0  0  0
 25 30  1  0  0  0  0
 26 22  1  0  0  0  0
 28 23  1  0  0  0  0
 28 24  1  0  0  0  0
 29 31  1  0  0  0  0
 29 23  1  0  0  0  0
 30 29  2  0  0  0  0
 32 31  1  0  0  0  0
 33 32  1  0  0  0  0
 34 35  1  0  0  0  0
 35 33  1  0  0  0  0
 36 34  1  0  0  0  0
 36 35  1  0  0  0  0
 37 38  3  0  0  0  0
 39  8  1  0  0  0  0
 40 39  1  0  0  0  0
 42 40  1  0  0  0  0
 43 41  1  0  0  0  0
 43 42  1  0  0  0  0
 44 45  1  0  0  0  0
 45 43  1  0  0  0  0
 45 42  1  0  0  0  0
 46 44  1  0  0  0  0
 46 41  1  0  0  0  0
 47 48  1  0  0  0  0
 48 45  1  0  0  0  0
M  END
>  <MODEL>
1

>  <REMARK>
 VINA RESULT:      -7.1      0.000      0.000
  Name = 
  12 active torsions:
  status: ('A' for Active; 'I' for Inactive)
    1  A    between atoms: C_3  and  C_44
    2  A    between atoms: C_4  and  C_5
    3  A    between atoms: C_10  and  C_18
    4  A    between atoms: C_10  and  C_25
    5  A    between atoms: C_15  and  C_20
    6  A    between atoms: C_19  and  C_44
    7  A    between atoms: C_22  and  C_33
    8  A    between atoms: C_25  and  C_30
    9  A    between atoms: C_31  and  C_33
   10  A    between atoms: C_31  and  O_41
   11  A    between atoms: C_40  and  O_41
   12  A    between atoms: S_43  and  C_46
                            x       y       z     vdW  Elec       q    Type
                         _______ _______ _______ _____ _____    ______ ____

>  <TORSDO>
F 12

$$$$
=
 OpenBabel11072409553D

 48 57  0  0  1  0  0  0  0  0999 V2000
  161.2900  214.4530  147.2040 C   0  0  0  0  0  2  0  0  0  0  0  0
  157.4890  214.4250  146.9540 C   0  0  0  0  0  1  0  0  0  0  0  0
  160.3080  212.7470  150.1910 C   0  0  2  0  0  3  0  0  0  0  0  0
  159.2640  211.6710  150.4950 C   0  0  0  0  0  1  0  0  0  0  0  0
  159.6980  214.0710  150.0620 N   0  0  2  0  0  0  0  0  0  0  0  0
  156.9080  214.4530  149.3770 C   0  0  1  0  0  3  0  0  0  0  0  0
  157.3110  213.9460  150.7500 C   0  0  0  0  0  2  0  0  0  0  0  0
  162.5010  213.7390  146.6860 C   0  0  0  0  0  0  0  0  0  0  0  0
  161.5070  211.1540  148.4040 C   0  0  1  0  0  3  0  0  0  0  0  0
  157.8710  213.9000  148.3310 C   0  0  2  0  0  3  0  0  0  0  0  0
  160.9120  212.5080  148.8120 C   0  0  2  0  0  0  0  0  0  0  0  0
  155.6050  214.0360  149.1010 O   0  0  0  0  0  1  0  0  0  0  0  0
  163.0410  212.7550  147.4150 C   0  0  0  0  0  3  0  0  0  0  0  0
  158.7090  214.4530  151.0780 C   0  0  0  0  0  2  0  0  0  0  0  0
  159.3200  214.3010  148.6440 C   0  0  2  0  0  3  0  0  0  0  0  0
  162.4360  212.3230  148.7230 C   0  0  2  0  0  3  0  0  0  0  0  0
  160.2830  213.4700  147.7950 C   0  0  1  0  0  3  0  0  0  0  0  0
  161.7650  209.4450  150.4450 C   0  0  0  0  0  0  0  0  0  0  0  0
  161.6580  210.1910  149.5030 C   0  0  0  0  0  0  0  0  0  0  0  0
  161.8340  207.2880  151.5550 C   0  0  0  0  0  3  0  0  0  0  0  0
  161.8790  208.6270  151.6400 C   0  0  0  0  0  0  0  0  0  0  0  0
  161.3190  207.4590  154.8390 C   0  0  0  0  0  2  0  0  0  0  0  0
  160.8510  209.8270  153.5870 C   0  0  1  0  0  0  0  0  0  0  0  0
  162.0890  209.3450  152.9590 C   0  0  2  0  0  0  0  0  0  0  0  0
  160.4880  208.7500  156.7260 C   0  0  0  0  0  2  0  0  0  0  0  0
  160.1900  207.5790  155.7920 C   0  0  0  0  0  2  0  0  0  0  0  0
  161.6960  210.7280  152.7960 N   0  0  0  0  0  2  0  0  0  0  0  0
  161.4630  208.5010  154.0430 C   0  0  2  0  0  3  0  0  0  0  0  0
  160.6130  210.6270  154.8780 C   0  0  0  0  0  0  0  0  0  0  0  0
  160.4030  210.1410  156.1350 C   0  0  0  0  0  3  0  0  0  0  0  0
  160.4300  212.0070  154.7010 O   0  0  0  0  0  0  0  0  0  0  0  0
  159.3120  212.7240  155.2190 C   0  0  0  0  0  2  0  0  0  0  0  0
  158.0690  212.4300  154.3940 C   0  0  0  0  0  2  0  0  0  0  0  0
  156.7590  210.7370  155.4860 O   0  0  0  0  0  0  0  0  0  0  0  0
  156.8650  212.1230  155.2780 C   0  0  2  0  0  3  0  0  0  0  0  0
  155.8880  211.2980  154.5350 C   0  0  0  0  0  2  0  0  0  0  0  0
  161.6160  206.5790  150.3170 C   0  0  0  0  0  0  0  0  0  0  0  0
  161.4120  206.0080  149.3300 N   0  0  0  0  0  0  0  0  0  0  0  0
  163.0000  214.0530  145.3160 C   0  0  0  0  0  2  0  0  0  0  0  0
  162.4780  213.0480  144.3040 C   0  0  0  0  0  2  0  0  0  0  0  0
  159.7080  213.8130  144.1920 C   0  0  0  0  0  2  0  0  0  0  0  0
  162.0530  213.7850  143.0260 C   0  0  2  0  0  3  0  0  0  0  0  0
  160.6200  214.3430  143.0750 C   0  0  1  0  0  3  0  0  0  0  0  0
  160.2120  211.9110  142.7880 C   0  0  0  0  0  2  0  0  0  0  0  0
  160.9300  213.1260  142.2330 C   0  0  2  0  0  0  0  0  0  0  0  0
  159.1730  212.4720  143.7340 C   0  0  0  0  0  2  0  0  0  0  0  0
  161.6910  211.7800  140.0390 C   0  0  0  0  0  1  0  0  0  0  0  0
  160.9770  213.4080  140.4290 S   0  0  0  0  0  0  0  0  0  0  0  0
  1 17  1  0  0  0  0
  3  4  1  6  0  0  0
  5  3  1  0  0  0  0
  5 14  1  1  0  0  0
  6 12  1  6  0  0  0
  6  7  1  0  0  0  0
  7 14  1  0  0  0  0
  8  1  1  0  0  0  0
  8 13  2  0  0  0  0
  9 16  1  0  0  0  0
  9 11  1  0  0  0  0
  9 19  1  1  0  0  0
 10  2  1  6  0  0  0
 10 15  1  0  0  0  0
 10  6  1  0  0  0  0
 11  3  1  0  0  0  0
 13 16  1  0  0  0  0
 15  5  1  0  0  0  0
 16 11  1  0  0  0  0
 17 15  1  0  0  0  0
 17 11  1  0  0  0  0
 18 21  1  0  0  0  0
 19 18  3  0  0  0  0
 20 21  2  0  0  0  0
 21 24  1  0  0  0  0
 22 26  1  0  0  0  0
 23 28  1  0  0  0  0
 23 29  1  0  0  0  0
 24 23  1  0  0  0  0
 24 28  1  0  0  0  0
 26 25  1  0  0  0  0
 27 24  1  0  0  0  0
 27 23  1  0  0  0  0
 28 22  1  0  0  0  0
 29 30  2  0  0  0  0
 30 25  1  0  0  0  0
 31 29  1  0  0  0  0
 31 32  1  0  0  0  0
 33 32  1  0  0  0  0
 33 35  1  0  0  0  0
 35 34  1  0  0  0  0
 36 35  1  0  0  0  0
 36 34  1  0  0  0  0
 37 20  1  0  0  0  0
 38 37  3  0  0  0  0
 39  8  1  0  0  0  0
 40 39  1  0  0  0  0
 42 43  1  0  0  0  0
 42 40  1  0  0  0  0
 43 41  1  0  0  0  0
 44 46  1  0  0  0  0
 45 44  1  0  0  0  0
 45 42  1  0  0  0  0
 45 43  1  0  0  0  0
 46 41  1  0  0  0  0
 47 48  1  0  0  0  0
 48 45  1  0  0  0  0
M  END
>  <MODEL>
2

>  <REMARK>
 VINA RESULT:      -5.0      3.229      6.259
  Name = 
  12 active torsions:
  status: ('A' for Active; 'I' for Inactive)
    1  A    between atoms: C_3  and  C_44
    2  A    between atoms: C_4  and  C_5
    3  A    between atoms: C_10  and  C_18
    4  A    between atoms: C_10  and  C_25
    5  A    between atoms: C_15  and  C_20
    6  A    between atoms: C_19  and  C_44
    7  A    between atoms: C_22  and  C_33
    8  A    between atoms: C_25  and  C_30
    9  A    between atoms: C_31  and  C_33
   10  A    between atoms: C_31  and  O_41
   11  A    between atoms: C_40  and  O_41
   12  A    between atoms: S_43  and  C_46
                            x       y       z     vdW  Elec       q    Type
                         _______ _______ _______ _____ _____    ______ ____

>  <TORSDO>
F 12

$$$$
=
 OpenBabel11072409553D

 48 57  0  0  1  0  0  0  0  0999 V2000
  162.3980  209.0560  147.9030 C   0  0  0  0  0  2  0  0  0  0  0  0
  160.0680  211.4370  146.0550 C   0  0  0  0  0  1  0  0  0  0  0  0
  161.9630  211.7230  150.2470 C   0  0  2  0  0  3  0  0  0  0  0  0
  160.7520  212.5390  150.7020 C   0  0  0  0  0  1  0  0  0  0  0  0
  162.4640  212.1780  148.9490 N   0  0  2  0  0  0  0  0  0  0  0  0
  160.8120  213.6020  147.0410 C   0  0  1  0  0  3  0  0  0  0  0  0
  161.2970  214.2800  148.3100 C   0  0  0  0  0  2  0  0  0  0  0  0
  162.3820  207.7850  148.6970 C   0  0  0  0  0  0  0  0  0  0  0  0
  160.7800  209.4430  151.0010 C   0  0  1  0  0  3  0  0  0  0  0  0
  160.5310  212.1310  147.3290 C   0  0  2  0  0  3  0  0  0  0  0  0
  161.5450  210.2830  149.9710 C   0  0  2  0  0  0  0  0  0  0  0  0
  159.6490  214.2370  146.6010 O   0  0  0  0  0  1  0  0  0  0  0  0
  162.3360  207.8510  150.0330 C   0  0  0  0  0  3  0  0  0  0  0  0
  162.5990  213.6270  148.7570 C   0  0  0  0  0  2  0  0  0  0  0  0
  161.7830  211.4220  147.8680 C   0  0  2  0  0  3  0  0  0  0  0  0
  162.2620  209.1700  150.7530 C   0  0  2  0  0  3  0  0  0  0  0  0
  161.3980  210.0650  148.4590 C   0  0  1  0  0  3  0  0  0  0  0  0
  160.5610  210.5000  153.4480 C   0  0  0  0  0  0  0  0  0  0  0  0
  160.6860  210.0430  152.3380 C   0  0  0  0  0  0  0  0  0  0  0  0
  160.6470  210.2560  155.8610 C   0  0  0  0  0  3  0  0  0  0  0  0
  160.3220  210.9990  154.7920 C   0  0  0  0  0  0  0  0  0  0  0  0
  157.9970  212.1520  157.0660 C   0  0  0  0  0  2  0  0  0  0  0  0
  158.3720  212.5260  154.3990 C   0  0  1  0  0  0  0  0  0  0  0  0
  159.7390  212.3920  154.9230 C   0  0  2  0  0  0  0  0  0  0  0  0
  156.2430  213.7830  156.6430 C   0  0  0  0  0  2  0  0  0  0  0  0
  156.5260  212.3330  157.0280 C   0  0  0  0  0  2  0  0  0  0  0  0
  159.5310  212.9300  153.5960 N   0  0  0  0  0  2  0  0  0  0  0  0
  158.5900  212.3150  155.8990 C   0  0  2  0  0  3  0  0  0  0  0  0
  157.4400  213.7440  154.2930 C   0  0  0  0  0  0  0  0  0  0  0  0
  156.5350  214.1860  155.2130 C   0  0  0  0  0  3  0  0  0  0  0  0
  157.4120  214.3680  153.0370 O   0  0  0  0  0  0  0  0  0  0  0  0
  156.4130  214.1070  152.0530 C   0  0  0  0  0  2  0  0  0  0  0  0
  156.9340  214.4530  150.6680 C   0  0  0  0  0  2  0  0  0  0  0  0
  156.8160  212.9480  148.7990 O   0  0  0  0  0  0  0  0  0  0  0  0
  156.0640  213.8490  149.5710 C   0  0  2  0  0  3  0  0  0  0  0  0
  156.5950  214.2190  148.2410 C   0  0  0  0  0  2  0  0  0  0  0  0
  161.1850  208.9200  155.7660 C   0  0  0  0  0  0  0  0  0  0  0  0
  161.5900  207.8390  155.6820 N   0  0  0  0  0  0  0  0  0  0  0  0
  162.2870  206.4810  147.9810 C   0  0  0  0  0  2  0  0  0  0  0  0
  162.3080  205.3210  148.9610 C   0  0  0  0  0  2  0  0  0  0  0  0
  160.7620  205.1760  151.3800 C   0  0  0  0  0  2  0  0  0  0  0  0
  160.9930  204.5360  148.8510 C   0  0  2  0  0  3  0  0  0  0  0  0
  160.1030  204.6340  150.1030 C   0  0  1  0  0  3  0  0  0  0  0  0
  161.9030  203.1060  150.8730 C   0  0  0  0  0  2  0  0  0  0  0  0
  160.8540  203.3550  149.8060 C   0  0  2  0  0  0  0  0  0  0  0  0
  161.5270  204.0300  152.0100 C   0  0  0  0  0  2  0  0  0  0  0  0
  161.2580  200.9240  148.7410 C   0  0  0  0  0  1  0  0  0  0  0  0
  159.8360  201.9680  149.1900 S   0  0  0  0  0  0  0  0  0  0  0  0
  1 17  1  0  0  0  0
  1  8  1  0  0  0  0
  3  4  1  6  0  0  0
  5 14  1  6  0  0  0
  5  3  1  0  0  0  0
  6 12  1  1  0  0  0
  6 10  1  0  0  0  0
  6  7  1  0  0  0  0
  7 14  1  0  0  0  0
  8 13  2  0  0  0  0
  9 19  1  1  0  0  0
 10  2  1  6  0  0  0
 10 15  1  0  0  0  0
 11  3  1  0  0  0  0
 11 16  1  0  0  0  0
 11  9  1  0  0  0  0
 13 16  1  0  0  0  0
 15 17  1  0  0  0  0
 15  5  1  0  0  0  0
 16  9  1  0  0  0  0
 17 11  1  0  0  0  0
 18 21  1  0  0  0  0
 19 18  3  0  0  0  0
 21 24  1  0  0  0  0
 21 20  2  0  0  0  0
 23 24  1  0  0  0  0
 23 28  1  0  0  0  0
 24 28  1  0  0  0  0
 25 26  1  0  0  0  0
 26 22  1  0  0  0  0
 27 23  1  0  0  0  0
 27 24  1  0  0  0  0
 28 22  1  0  0  0  0
 29 23  1  0  0  0  0
 29 30  2  0  0  0  0
 30 25  1  0  0  0  0
 31 29  1  0  0  0  0
 32 31  1  0  0  0  0
 33 32  1  0  0  0  0
 34 35  1  0  0  0  0
 35 33  1  0  0  0  0
 36 34  1  0  0  0  0
 36 35  1  0  0  0  0
 37 20  1  0  0  0  0
 38 37  3  0  0  0  0
 39  8  1  0  0  0  0
 39 40  1  0  0  0  0
 41 46  1  0  0  0  0
 42 40  1  0  0  0  0
 42 45  1  0  0  0  0
 42 43  1  0  0  0  0
 43 41  1  0  0  0  0
 44 46  1  0  0  0  0
 45 43  1  0  0  0  0
 45 44  1  0  0  0  0
 47 48  1  0  0  0  0
 48 45  1  0  0  0  0
M  END
>  <MODEL>
3

>  <REMARK>
 VINA RESULT:      -4.3      3.398      8.881
  Name = 
  12 active torsions:
  status: ('A' for Active; 'I' for Inactive)
    1  A    between atoms: C_3  and  C_44
    2  A    between atoms: C_4  and  C_5
    3  A    between atoms: C_10  and  C_18
    4  A    between atoms: C_10  and  C_25
    5  A    between atoms: C_15  and  C_20
    6  A    between atoms: C_19  and  C_44
    7  A    between atoms: C_22  and  C_33
    8  A    between atoms: C_25  and  C_30
    9  A    between atoms: C_31  and  C_33
   10  A    between atoms: C_31  and  O_41
   11  A    between atoms: C_40  and  O_41
   12  A    between atoms: S_43  and  C_46
                            x       y       z     vdW  Elec       q    Type
                         _______ _______ _______ _____ _____    ______ ____

>  <TORSDO>
F 12

$$$$
