=
 OpenBabel11072410573D

 42 46  0  0  1  0  0  0  0  0999 V2000
  162.0840  211.2970  148.1260 C   0  0  2  0  0  3  0  0  0  0  0  0
  161.0490  209.4220  156.2570 C   0  0  0  0  0  2  0  0  0  0  0  0
  162.0280  206.8950  150.1440 C   0  0  2  0  0  3  0  0  0  0  0  0
  160.0140  214.4520  151.7170 O   0  0  0  0  0  1  0  0  0  0  0  0
  159.6280  210.7940  152.7790 C   0  0  1  0  0  3  0  0  0  0  0  0
  161.2160  206.1930  157.2530 O   0  0  0  0  0  0  0  0  0  0  0  0
  158.4160  210.6000  157.0760 O   0  0  0  0  0  0  0  0  0  0  0  0
  160.1470  211.0450  149.5290 C   0  0  0  0  0  2  0  0  0  0  0  0
  159.6610  209.0060  155.8200 C   0  0  1  0  0  0  0  0  0  0  0  0
  160.2440  206.7140  155.1430 C   0  0  2  0  0  3  0  0  0  0  0  0
  158.5910  210.0490  156.0010 C   0  0  0  0  0  0  0  0  0  0  0  0
  157.7370  210.4150  154.8250 C   0  0  0  0  0  2  0  0  0  0  0  0
  161.1190  206.1500  152.8350 C   0  0  2  0  0  3  0  0  0  0  0  0
  161.2070  210.2550  148.7720 C   0  0  2  0  0  3  0  0  0  0  0  0
  160.6720  213.2560  147.2980 C   0  0  0  0  0  1  0  0  0  0  0  0
  162.5440  206.3670  151.7740 S   0  0  0  0  0  0  0  0  0  0  0  0
  161.4460  212.6490  148.4600 C   0  0  1  0  0  3  0  0  0  0  0  0
  162.1870  211.0660  146.7500 O   0  0  0  0  0  1  0  0  0  0  0  0
  160.2190  208.3010  150.7390 O   0  0  0  0  0  0  0  0  0  0  0  0
  157.9690  211.7230  154.3460 O   0  0  0  0  0  0  0  0  0  0  0  0
  163.3050  205.0690  151.6650 O   0  0  0  0  0  0  0  0  0  0  0  0
  159.5770  207.9990  154.6720 C   0  0  0  0  0  2  0  0  0  0  0  0
  157.9800  212.4030  151.6860 C   0  0  0  0  0  1  0  0  0  0  0  0
  160.5420  212.4530  149.5860 N   0  0  2  0  0  0  0  0  0  0  0  0
  160.6340  207.0050  156.5520 C   0  0  0  0  0  0  0  0  0  0  0  0
  159.2960  211.8320  153.8560 C   0  0  2  0  0  3  0  0  0  0  0  0
  163.4570  207.4170  152.3470 O   0  0  0  0  0  0  0  0  0  0  0  0
  159.3260  212.2320  152.3780 C   0  0  1  0  0  0  0  0  0  0  0  0
  161.3280  212.6510  150.8050 C   0  0  0  0  0  2  0  0  0  0  0  0
  160.2760  208.3630  157.0440 C   0  0  1  0  0  3  0  0  0  0  0  0
  161.4800  206.4260  154.2950 C   0  0  0  0  0  2  0  0  0  0  0  0
  161.3310  208.2190  150.2340 C   0  0  0  0  0  0  0  0  0  0  0  0
  162.0440  209.4480  149.7610 C   0  0  0  0  0  2  0  0  0  0  0  0
  161.1030  210.4550  152.8990 C   0  0  0  0  0  1  0  0  0  0  0  0
  160.4850  213.1630  151.9810 C   0  0  1  0  0  3  0  0  0  0  0  0
  160.5520  204.7470  152.6710 C   0  0  0  0  0  2  0  0  0  0  0  0
  161.5660  203.8530  151.9850 C   0  0  0  0  0  2  0  0  0  0  0  0
  160.8870  202.6440  151.4220 C   0  0  0  0  0  3  0  0  0  0  0  0
  160.8550  202.4660  150.2130 O   0  0  0  0  0  0  0  0  0  0  0  0
  161.1560  205.8320  149.4830 C   0  0  0  0  0  2  0  0  0  0  0  0
  161.2580  204.5990  147.4660 O   0  0  0  0  0  0  0  0  0  0  0  0
  161.5020  205.6550  148.0360 C   0  0  0  0  0  3  0  0  0  0  0  0
  1 18  1  6  0  0  0
  1 17  1  0  0  0  0
  1 14  1  0  0  0  0
  3 40  1  1  0  0  0
  3 32  1  0  0  0  0
  3 16  1  0  0  0  0
  5 34  1  1  0  0  0
  5 26  1  0  0  0  0
  9 22  1  6  0  0  0
  9 11  1  0  0  0  0
  9  2  1  0  0  0  0
  9 30  1  0  0  0  0
 10 31  1  6  0  0  0
 10 25  1  0  0  0  0
 11  7  2  0  0  0  0
 12 11  1  0  0  0  0
 13 36  1  1  0  0  0
 13 31  1  0  0  0  0
 14  8  1  1  0  0  0
 14 33  1  0  0  0  0
 16 27  2  0  0  0  0
 16 13  1  0  0  0  0
 17 15  1  6  0  0  0
 17 24  1  0  0  0  0
 20 12  1  0  0  0  0
 21 16  2  0  0  0  0
 22 10  1  0  0  0  0
 24  8  1  1  0  0  0
 24 29  1  0  0  0  0
 25 30  1  0  0  0  0
 25  6  2  0  0  0  0
 26 20  1  6  0  0  0
 28 23  1  6  0  0  0
 28  5  1  0  0  0  0
 28 26  1  0  0  0  0
 29 35  1  0  0  0  0
 30  2  1  6  0  0  0
 32 19  2  0  0  0  0
 33 32  1  0  0  0  0
 35  4  1  6  0  0  0
 35 28  1  0  0  0  0
 37 36  1  0  0  0  0
 38 37  1  0  0  0  0
 39 38  2  0  0  0  0
 41 42  2  0  0  0  0
 42 40  1  0  0  0  0
M  END
>  <MODEL>
1

>  <REMARK>
 VINA RESULT:       6.6      0.000      0.000
  Name = 
  5 active torsions:
  status: ('A' for Active; 'I' for Inactive)
    1  A    between atoms: C_1  and  C_14
    2  A    between atoms: C_1  and  C_25
    3  A    between atoms: C_4  and  C_21
    4  A    between atoms: C_21  and  C_34
    5  A    between atoms: C_24  and  C_25
                            x       y       z     vdW  Elec       q    Type
                         _______ _______ _______ _____ _____    ______ ____

>  <TORSDO>
F 5

$$$$
=
 OpenBabel11072410573D

 42 46  0  0  1  0  0  0  0  0999 V2000
  159.8670  213.3050  155.1790 C   0  0  2  0  0  3  0  0  0  0  0  0
  163.4460  207.1820  150.6650 C   0  0  0  0  0  2  0  0  0  0  0  0
  160.1970  213.0180  150.3570 C   0  0  2  0  0  3  0  0  0  0  0  0
  160.8970  208.4950  156.8900 O   0  0  0  0  0  1  0  0  0  0  0  0
  160.5440  208.5040  153.0780 C   0  0  1  0  0  3  0  0  0  0  0  0
  163.5710  207.4560  147.2950 O   0  0  0  0  0  0  0  0  0  0  0  0
  162.0540  204.6370  151.4230 O   0  0  0  0  0  0  0  0  0  0  0  0
  159.1050  211.1560  154.4160 C   0  0  0  0  0  2  0  0  0  0  0  0
  162.0160  206.7760  150.3780 C   0  0  1  0  0  0  0  0  0  0  0  0
  161.6660  208.2790  148.4620 C   0  0  2  0  0  3  0  0  0  0  0  0
  161.4650  205.6950  151.2690 C   0  0  0  0  0  0  0  0  0  0  0  0
  160.1710  205.9410  151.9810 C   0  0  0  0  0  2  0  0  0  0  0  0
  160.9100  210.6800  148.7280 C   0  0  2  0  0  3  0  0  0  0  0  0
  159.3590  212.5860  153.9560 C   0  0  2  0  0  3  0  0  0  0  0  0
  158.6230  212.5050  157.2610 C   0  0  0  0  0  1  0  0  0  0  0  0
  161.4590  212.2740  149.3290 S   0  0  0  0  0  0  0  0  0  0  0  0
  159.8030  212.2880  156.3230 C   0  0  1  0  0  3  0  0  0  0  0  0
  159.1040  214.4530  155.4250 O   0  0  0  0  0  1  0  0  0  0  0  0
  159.3670  211.0770  151.4290 O   0  0  0  0  0  0  0  0  0  0  0  0
  160.3130  206.0700  153.3800 O   0  0  0  0  0  0  0  0  0  0  0  0
  161.7610  213.1860  148.1650 O   0  0  0  0  0  0  0  0  0  0  0  0
  161.0970  207.8580  149.8110 C   0  0  0  0  0  2  0  0  0  0  0  0
  158.8950  207.8540  154.9100 C   0  0  0  0  0  1  0  0  0  0  0  0
  159.7080  210.9580  155.7350 N   0  0  2  0  0  0  0  0  0  0  0  0
  162.8490  207.3920  148.2760 C   0  0  0  0  0  0  0  0  0  0  0  0
  161.0980  207.2120  153.6860 C   0  0  2  0  0  3  0  0  0  0  0  0
  162.7080  212.1110  150.1530 O   0  0  0  0  0  0  0  0  0  0  0  0
  160.3330  208.2120  154.5570 C   0  0  1  0  0  0  0  0  0  0  0  0
  161.0770  210.4790  155.5370 C   0  0  0  0  0  2  0  0  0  0  0  0
  163.1000  206.4260  149.3810 C   0  0  1  0  0  3  0  0  0  0  0  0
  162.0980  209.7420  148.5110 C   0  0  0  0  0  2  0  0  0  0  0  0
  159.9390  212.1520  151.5530 C   0  0  0  0  0  0  0  0  0  0  0  0
  160.4510  212.5920  152.8900 C   0  0  0  0  0  2  0  0  0  0  0  0
  161.7200  209.4100  152.7620 C   0  0  0  0  0  1  0  0  0  0  0  0
  161.1890  208.9500  155.6010 C   0  0  1  0  0  3  0  0  0  0  0  0
  160.1100  210.8520  147.4450 C   0  0  0  0  0  2  0  0  0  0  0  0
  160.6680  212.0040  146.6330 C   0  0  0  0  0  2  0  0  0  0  0  0
  159.6610  212.4550  145.6230 C   0  0  0  0  0  3  0  0  0  0  0  0
  159.5290  211.8430  144.5730 O   0  0  0  0  0  0  0  0  0  0  0  0
  158.9270  213.2750  149.5500 C   0  0  0  0  0  2  0  0  0  0  0  0
  156.7750  214.1840  149.9270 O   0  0  0  0  0  0  0  0  0  0  0  0
  157.9210  214.0580  150.3380 C   0  0  0  0  0  3  0  0  0  0  0  0
  1 18  1  1  0  0  0
  1 17  1  0  0  0  0
  3 40  1  6  0  0  0
  3 32  1  0  0  0  0
  5 34  1  1  0  0  0
  5 26  1  0  0  0  0
  5 28  1  0  0  0  0
  6 25  2  0  0  0  0
  9 22  1  6  0  0  0
  9  2  1  0  0  0  0
  9 11  1  0  0  0  0
 10 31  1  1  0  0  0
 10 22  1  0  0  0  0
 11  7  2  0  0  0  0
 11 12  1  0  0  0  0
 12 20  1  0  0  0  0
 13 36  1  6  0  0  0
 13 16  1  0  0  0  0
 14 33  1  6  0  0  0
 14  8  1  0  0  0  0
 14  1  1  0  0  0  0
 16 27  2  0  0  0  0
 16  3  1  0  0  0  0
 17 15  1  1  0  0  0
 19 32  2  0  0  0  0
 21 16  2  0  0  0  0
 24  8  1  6  0  0  0
 24 17  1  0  0  0  0
 25 10  1  0  0  0  0
 25 30  1  0  0  0  0
 26 20  1  6  0  0  0
 26 28  1  0  0  0  0
 28 23  1  1  0  0  0
 28 35  1  0  0  0  0
 29 35  1  0  0  0  0
 29 24  1  0  0  0  0
 30  9  1  0  0  0  0
 30  2  1  1  0  0  0
 31 13  1  0  0  0  0
 32 33  1  0  0  0  0
 35  4  1  1  0  0  0
 37 36  1  0  0  0  0
 38 37  1  0  0  0  0
 39 38  2  0  0  0  0
 40 42  1  0  0  0  0
 41 42  2  0  0  0  0
M  END
>  <MODEL>
2

>  <REMARK>
 VINA RESULT:       7.0      2.452      7.315
  Name = 
  5 active torsions:
  status: ('A' for Active; 'I' for Inactive)
    1  A    between atoms: C_1  and  C_14
    2  A    between atoms: C_1  and  C_25
    3  A    between atoms: C_4  and  C_21
    4  A    between atoms: C_21  and  C_34
    5  A    between atoms: C_24  and  C_25
                            x       y       z     vdW  Elec       q    Type
                         _______ _______ _______ _____ _____    ______ ____

>  <TORSDO>
F 5

$$$$
=
 OpenBabel11072410573D

 42 46  0  0  1  0  0  0  0  0999 V2000
  162.7490  211.0240  147.9140 C   0  0  2  0  0  3  0  0  0  0  0  0
  162.7650  203.6820  152.0100 C   0  0  0  0  0  2  0  0  0  0  0  0
  161.7270  206.6480  146.1090 C   0  0  2  0  0  3  0  0  0  0  0  0
  162.4820  210.4450  153.0830 O   0  0  0  0  0  1  0  0  0  0  0  0
  161.1980  207.2970  151.3240 C   0  0  1  0  0  3  0  0  0  0  0  0
  162.1160  200.8290  150.3120 O   0  0  0  0  0  0  0  0  0  0  0  0
  160.8320  203.9690  154.2840 O   0  0  0  0  0  0  0  0  0  0  0  0
  161.1360  209.9040  149.3010 C   0  0  0  0  0  2  0  0  0  0  0  0
  161.2590  203.8250  151.9460 C   0  0  1  0  0  0  0  0  0  0  0  0
  160.9660  202.8270  149.7170 C   0  0  2  0  0  3  0  0  0  0  0  0
  160.6190  204.4220  153.1710 C   0  0  0  0  0  0  0  0  0  0  0  0
  159.7110  205.6020  153.0050 C   0  0  0  0  0  2  0  0  0  0  0  0
  161.1650  204.1700  147.5810 C   0  0  2  0  0  3  0  0  0  0  0  0
  161.7340  209.9100  147.9000 C   0  0  2  0  0  3  0  0  0  0  0  0
  161.8790  213.0010  149.2760 C   0  0  0  0  0  1  0  0  0  0  0  0
  162.3570  205.0370  146.5640 S   0  0  0  0  0  0  0  0  0  0  0  0
  162.6360  211.6800  149.2940 C   0  0  1  0  0  3  0  0  0  0  0  0
  162.5110  211.9170  146.8630 O   0  0  0  0  0  1  0  0  0  0  0  0
  160.5880  207.2070  148.1080 O   0  0  0  0  0  0  0  0  0  0  0  0
  160.2390  206.7980  153.5380 O   0  0  0  0  0  0  0  0  0  0  0  0
  162.6440  204.2380  145.3170 O   0  0  0  0  0  0  0  0  0  0  0  0
  160.6510  204.0540  150.5630 C   0  0  0  0  0  2  0  0  0  0  0  0
  159.9490  209.2620  152.3620 C   0  0  0  0  0  1  0  0  0  0  0  0
  161.9490  210.7470  150.1780 N   0  0  2  0  0  0  0  0  0  0  0  0
  161.6890  201.9200  150.6530 C   0  0  0  0  0  0  0  0  0  0  0  0
  161.4150  207.1660  152.8350 C   0  0  2  0  0  3  0  0  0  0  0  0
  163.6410  205.2260  147.3250 O   0  0  0  0  0  0  0  0  0  0  0  0
  161.2830  208.5480  152.1880 C   0  0  1  0  0  0  0  0  0  0  0  0
  162.9760  209.9020  150.7900 C   0  0  0  0  0  2  0  0  0  0  0  0
  161.8690  202.4420  152.0350 C   0  0  1  0  0  3  0  0  0  0  0  0
  161.8670  203.2160  148.5480 C   0  0  0  0  0  2  0  0  0  0  0  0
  161.5020  207.4750  147.3390 C   0  0  0  0  0  0  0  0  0  0  0  0
  162.4550  208.5880  147.6480 C   0  0  0  0  0  2  0  0  0  0  0  0
  162.4910  206.9020  150.6330 C   0  0  0  0  0  1  0  0  0  0  0  0
  162.5730  209.3850  152.1770 C   0  0  1  0  0  3  0  0  0  0  0  0
  160.1730  203.4220  146.7020 C   0  0  0  0  0  2  0  0  0  0  0  0
  160.7530  202.0850  146.2830 C   0  0  0  0  0  2  0  0  0  0  0  0
  160.0810  201.6020  145.0370 C   0  0  0  0  0  3  0  0  0  0  0  0
  160.0570  200.4070  144.7770 O   0  0  0  0  0  0  0  0  0  0  0  0
  160.4590  206.5150  145.2690 C   0  0  0  0  0  2  0  0  0  0  0  0
  161.2840  205.8570  143.1520 O   0  0  0  0  0  0  0  0  0  0  0  0
  160.6410  205.5420  144.1450 C   0  0  0  0  0  3  0  0  0  0  0  0
  1 18  1  6  0  0  0
  1 17  1  0  0  0  0
  3 40  1  1  0  0  0
  3 16  1  0  0  0  0
  3 32  1  0  0  0  0
  5 34  1  6  0  0  0
  5 28  1  0  0  0  0
  5 26  1  0  0  0  0
  6 25  2  0  0  0  0
  9 22  1  6  0  0  0
  9  2  1  0  0  0  0
  9 30  1  0  0  0  0
  9 11  1  0  0  0  0
 10 31  1  6  0  0  0
 10 22  1  0  0  0  0
 10 25  1  0  0  0  0
 11  7  2  0  0  0  0
 12 11  1  0  0  0  0
 12 20  1  0  0  0  0
 13 36  1  6  0  0  0
 13 31  1  0  0  0  0
 14 33  1  1  0  0  0
 14  1  1  0  0  0  0
 14  8  1  0  0  0  0
 16 27  2  0  0  0  0
 16 13  1  0  0  0  0
 17 15  1  6  0  0  0
 17 24  1  0  0  0  0
 21 16  2  0  0  0  0
 24  8  1  6  0  0  0
 24 29  1  0  0  0  0
 25 30  1  0  0  0  0
 26 20  1  1  0  0  0
 28 23  1  1  0  0  0
 28 26  1  0  0  0  0
 29 35  1  0  0  0  0
 30  2  1  6  0  0  0
 32 33  1  0  0  0  0
 32 19  2  0  0  0  0
 35 28  1  0  0  0  0
 35  4  1  1  0  0  0
 37 36  1  0  0  0  0
 38 37  1  0  0  0  0
 39 38  2  0  0  0  0
 41 42  2  0  0  0  0
 42 40  1  0  0  0  0
M  END
>  <MODEL>
3

>  <REMARK>
 VINA RESULT:       7.1      2.892      5.183
  Name = 
  5 active torsions:
  status: ('A' for Active; 'I' for Inactive)
    1  A    between atoms: C_1  and  C_14
    2  A    between atoms: C_1  and  C_25
    3  A    between atoms: C_4  and  C_21
    4  A    between atoms: C_21  and  C_34
    5  A    between atoms: C_24  and  C_25
                            x       y       z     vdW  Elec       q    Type
                         _______ _______ _______ _____ _____    ______ ____

>  <TORSDO>
F 5

$$$$
=
 OpenBabel11072410573D

 42 46  0  0  1  0  0  0  0  0999 V2000
  161.3850  206.7320  146.7140 C   0  0  2  0  0  3  0  0  0  0  0  0
  158.4810  211.0830  153.2960 C   0  0  0  0  0  2  0  0  0  0  0  0
  160.9990  211.5420  147.1190 C   0  0  2  0  0  3  0  0  0  0  0  0
  160.9730  204.9320  151.5840 O   0  0  0  0  0  1  0  0  0  0  0  0
  161.2490  208.7500  151.5960 C   0  0  1  0  0  3  0  0  0  0  0  0
  158.2600  214.4530  153.0950 O   0  0  0  0  0  0  0  0  0  0  0  0
  160.1830  210.3170  155.6430 O   0  0  0  0  0  0  0  0  0  0  0  0
  162.3840  207.4800  148.7690 C   0  0  0  0  0  2  0  0  0  0  0  0
  159.9430  211.3940  153.5330 C   0  0  1  0  0  0  0  0  0  0  0  0
  160.0740  213.3380  152.0310 C   0  0  2  0  0  3  0  0  0  0  0  0
  160.6380  210.4990  154.5250 C   0  0  0  0  0  0  0  0  0  0  0  0
  161.9070  209.8180  154.1140 C   0  0  0  0  0  2  0  0  0  0  0  0
  160.5410  213.1210  149.5520 C   0  0  2  0  0  3  0  0  0  0  0  0
  161.9520  207.9550  147.3880 C   0  0  2  0  0  3  0  0  0  0  0  0
  162.7550  204.6660  147.3240 C   0  0  0  0  0  1  0  0  0  0  0  0
  159.8160  212.5320  148.0260 S   0  0  0  0  0  0  0  0  0  0  0  0
  161.5920  205.5750  147.6970 C   0  0  1  0  0  3  0  0  0  0  0  0
  162.0080  206.5190  145.4800 O   0  0  0  0  0  1  0  0  0  0  0  0
  162.0760  210.4600  148.9280 O   0  0  0  0  0  0  0  0  0  0  0  0
  161.7770  208.4180  153.9800 O   0  0  0  0  0  0  0  0  0  0  0  0
  159.3840  213.7020  147.1770 O   0  0  0  0  0  0  0  0  0  0  0  0
  160.7150  211.9950  152.3580 C   0  0  0  0  0  2  0  0  0  0  0  0
  162.9990  206.9440  152.0130 C   0  0  0  0  0  1  0  0  0  0  0  0
  161.8340  206.1460  149.0160 N   0  0  2  0  0  0  0  0  0  0  0  0
  159.0030  213.4860  153.0570 C   0  0  0  0  0  0  0  0  0  0  0  0
  160.8660  208.1120  152.9350 C   0  0  2  0  0  3  0  0  0  0  0  0
  158.6120  211.6800  148.3230 O   0  0  0  0  0  0  0  0  0  0  0  0
  161.5220  207.2710  151.8360 C   0  0  1  0  0  0  0  0  0  0  0  0
  160.5300  206.3080  149.6590 C   0  0  0  0  0  2  0  0  0  0  0  0
  158.8910  212.3630  154.0270 C   0  0  1  0  0  3  0  0  0  0  0  0
  159.4710  213.3010  150.6290 C   0  0  0  0  0  2  0  0  0  0  0  0
  161.3820  210.3390  147.9280 C   0  0  0  0  0  0  0  0  0  0  0  0
  160.8460  208.9980  147.5300 C   0  0  0  0  0  2  0  0  0  0  0  0
  159.9670  209.0540  150.8430 C   0  0  0  0  0  1  0  0  0  0  0  0
  160.6040  206.2200  151.1890 C   0  0  1  0  0  3  0  0  0  0  0  0
  161.2900  214.4240  149.3080 C   0  0  0  0  0  2  0  0  0  0  0  0
  162.2200  214.2750  148.1200 C   0  0  0  0  0  2  0  0  0  0  0  0
  163.6400  214.4520  148.5550 C   0  0  0  0  0  3  0  0  0  0  0  0
  164.4390  213.5340  148.4330 O   0  0  0  0  0  0  0  0  0  0  0  0
  162.2130  212.3780  146.7250 C   0  0  0  0  0  2  0  0  0  0  0  0
  162.8910  212.9820  144.5400 O   0  0  0  0  0  0  0  0  0  0  0  0
  162.0190  213.0440  145.3970 C   0  0  0  0  0  3  0  0  0  0  0  0
  1 18  1  6  0  0  0
  1 14  1  0  0  0  0
  1 17  1  0  0  0  0
  2  9  1  0  0  0  0
  3 40  1  1  0  0  0
  3 32  1  0  0  0  0
  3 16  1  0  0  0  0
  5 34  1  6  0  0  0
  5 28  1  0  0  0  0
  5 26  1  0  0  0  0
  9 22  1  6  0  0  0
  9 30  1  0  0  0  0
  9 11  1  0  0  0  0
 10 31  1  6  0  0  0
 10 22  1  0  0  0  0
 10 25  1  0  0  0  0
 11  7  2  0  0  0  0
 12 11  1  0  0  0  0
 13 36  1  6  0  0  0
 13 31  1  0  0  0  0
 14 33  1  1  0  0  0
 14  8  1  0  0  0  0
 16 27  2  0  0  0  0
 16 13  1  0  0  0  0
 17 15  1  6  0  0  0
 17 24  1  0  0  0  0
 20 12  1  0  0  0  0
 21 16  2  0  0  0  0
 24  8  1  6  0  0  0
 24 29  1  0  0  0  0
 25  6  2  0  0  0  0
 25 30  1  0  0  0  0
 26 20  1  1  0  0  0
 28 23  1  1  0  0  0
 28 26  1  0  0  0  0
 29 35  1  0  0  0  0
 30  2  1  6  0  0  0
 32 19  2  0  0  0  0
 33 32  1  0  0  0  0
 35  4  1  6  0  0  0
 35 28  1  0  0  0  0
 37 38  1  0  0  0  0
 37 36  1  0  0  0  0
 39 38  2  0  0  0  0
 41 42  2  0  0  0  0
 42 40  1  0  0  0  0
M  END
>  <MODEL>
4

>  <REMARK>
 VINA RESULT:       7.1      2.688      6.920
  Name = 
  5 active torsions:
  status: ('A' for Active; 'I' for Inactive)
    1  A    between atoms: C_1  and  C_14
    2  A    between atoms: C_1  and  C_25
    3  A    between atoms: C_4  and  C_21
    4  A    between atoms: C_21  and  C_34
    5  A    between atoms: C_24  and  C_25
                            x       y       z     vdW  Elec       q    Type
                         _______ _______ _______ _____ _____    ______ ____

>  <TORSDO>
F 5

$$$$
=
 OpenBabel11072410573D

 42 46  0  0  1  0  0  0  0  0999 V2000
  160.8340  206.6030  153.2370 C   0  0  2  0  0  3  0  0  0  0  0  0
  159.4900  204.5110  145.2050 C   0  0  0  0  0  2  0  0  0  0  0  0
  160.6080  202.1460  151.3580 C   0  0  2  0  0  3  0  0  0  0  0  0
  161.4680  209.7610  149.1430 O   0  0  0  0  0  1  0  0  0  0  0  0
  161.7910  206.1020  148.0640 C   0  0  1  0  0  3  0  0  0  0  0  0
  159.2740  201.2450  144.3510 O   0  0  0  0  0  0  0  0  0  0  0  0
  161.6520  205.8360  143.6050 O   0  0  0  0  0  0  0  0  0  0  0  0
  162.2660  206.4340  151.3130 C   0  0  0  0  0  2  0  0  0  0  0  0
  160.9720  204.2070  145.2030 C   0  0  1  0  0  0  0  0  0  0  0  0
  160.7980  201.9060  146.0560 C   0  0  2  0  0  3  0  0  0  0  0  0
  161.8540  205.3140  144.6890 C   0  0  0  0  0  0  0  0  0  0  0  0
  162.9940  205.7790  145.5420 C   0  0  0  0  0  2  0  0  0  0  0  0
  160.7110  201.3680  148.5280 C   0  0  2  0  0  3  0  0  0  0  0  0
  161.5500  205.6010  152.3680 C   0  0  2  0  0  3  0  0  0  0  0  0
  162.2770  208.6830  153.5680 C   0  0  0  0  0  1  0  0  0  0  0  0
  159.6630  201.5250  149.9710 S   0  0  0  0  0  0  0  0  0  0  0  0
  161.2350  207.9840  152.7060 C   0  0  1  0  0  3  0  0  0  0  0  0
  161.1710  206.4160  154.5820 O   0  0  0  0  0  1  0  0  0  0  0  0
  162.0390  203.6500  150.2200 O   0  0  0  0  0  0  0  0  0  0  0  0
  162.8200  207.0840  146.0520 O   0  0  0  0  0  0  0  0  0  0  0  0
  159.0730  200.1830  150.3250 O   0  0  0  0  0  0  0  0  0  0  0  0
  161.4770  203.2500  146.2830 C   0  0  0  0  0  2  0  0  0  0  0  0
  163.5650  207.8580  148.5790 C   0  0  0  0  0  1  0  0  0  0  0  0
  161.7660  207.8090  151.3600 N   0  0  2  0  0  0  0  0  0  0  0  0
  159.9780  202.1190  144.8300 C   0  0  0  0  0  0  0  0  0  0  0  0
  161.7000  207.1200  146.9230 C   0  0  2  0  0  3  0  0  0  0  0  0
  158.5420  202.4890  149.6900 O   0  0  0  0  0  0  0  0  0  0  0  0
  162.0900  207.5700  148.3340 C   0  0  1  0  0  0  0  0  0  0  0  0
  160.6350  207.9090  150.4370 C   0  0  0  0  0  2  0  0  0  0  0  0
  160.0650  203.4800  144.2330 C   0  0  1  0  0  3  0  0  0  0  0  0
  159.9030  201.5660  147.2450 C   0  0  0  0  0  2  0  0  0  0  0  0
  161.1420  203.5100  151.0410 C   0  0  0  0  0  0  0  0  0  0  0  0
  160.5150  204.7040  151.6940 C   0  0  0  0  0  2  0  0  0  0  0  0
  160.3790  205.6590  148.4040 C   0  0  0  0  0  1  0  0  0  0  0  0
  161.0390  208.4340  149.0530 C   0  0  1  0  0  3  0  0  0  0  0  0
  161.4060  200.0140  148.5310 C   0  0  0  0  0  2  0  0  0  0  0  0
  162.0980  199.7810  147.2020 C   0  0  0  0  0  2  0  0  0  0  0  0
  161.5810  198.5300  146.5660 C   0  0  0  0  0  3  0  0  0  0  0  0
  161.2120  198.5420  145.4000 O   0  0  0  0  0  0  0  0  0  0  0  0
  161.7180  201.1690  151.7360 C   0  0  0  0  0  2  0  0  0  0  0  0
  164.0160  201.2440  152.2940 O   0  0  0  0  0  0  0  0  0  0  0  0
  163.0250  201.8710  151.9450 C   0  0  0  0  0  3  0  0  0  0  0  0
  1 18  1  1  0  0  0
  3 40  1  6  0  0  0
  5 28  1  0  0  0  0
  5 34  1  1  0  0  0
  6 25  2  0  0  0  0
  7 11  2  0  0  0  0
  8 24  1  0  0  0  0
  9  2  1  1  0  0  0
  9 22  1  0  0  0  0
 10 22  1  1  0  0  0
 10 31  1  0  0  0  0
 11  9  1  0  0  0  0
 11 12  1  0  0  0  0
 12 20  1  0  0  0  0
 13 36  1  6  0  0  0
 13 16  1  0  0  0  0
 14  8  1  6  0  0  0
 14  1  1  0  0  0  0
 16 21  2  0  0  0  0
 16  3  1  0  0  0  0
 17  1  1  0  0  0  0
 17 15  1  1  0  0  0
 19 32  2  0  0  0  0
 24 29  1  6  0  0  0
 24 17  1  0  0  0  0
 25 10  1  0  0  0  0
 26 20  1  6  0  0  0
 26  5  1  0  0  0  0
 26 28  1  0  0  0  0
 27 16  2  0  0  0  0
 28 23  1  1  0  0  0
 28 35  1  0  0  0  0
 30 25  1  0  0  0  0
 30  9  1  0  0  0  0
 30  2  1  1  0  0  0
 31 13  1  0  0  0  0
 32  3  1  0  0  0  0
 32 33  1  0  0  0  0
 33 14  1  0  0  0  0
 35  4  1  1  0  0  0
 35 29  1  0  0  0  0
 37 36  1  0  0  0  0
 38 37  1  0  0  0  0
 39 38  2  0  0  0  0
 40 42  1  0  0  0  0
 42 41  2  0  0  0  0
M  END
>  <MODEL>
5

>  <REMARK>
 VINA RESULT:       7.2      3.530      8.395
  Name = 
  5 active torsions:
  status: ('A' for Active; 'I' for Inactive)
    1  A    between atoms: C_1  and  C_14
    2  A    between atoms: C_1  and  C_25
    3  A    between atoms: C_4  and  C_21
    4  A    between atoms: C_21  and  C_34
    5  A    between atoms: C_24  and  C_25
                            x       y       z     vdW  Elec       q    Type
                         _______ _______ _______ _____ _____    ______ ____

>  <TORSDO>
F 5

$$$$
=
 OpenBabel11072410573D

 42 46  0  0  1  0  0  0  0  0999 V2000
  162.5530  209.4250  149.5900 C   0  0  2  0  0  3  0  0  0  0  0  0
  162.6570  201.0190  149.4330 C   0  0  0  0  0  2  0  0  0  0  0  0
  161.6200  206.5430  145.8120 C   0  0  2  0  0  3  0  0  0  0  0  0
  162.2520  206.3190  153.7600 O   0  0  0  0  0  1  0  0  0  0  0  0
  161.0360  204.4720  150.6350 C   0  0  1  0  0  3  0  0  0  0  0  0
  162.0700  199.4030  146.5200 O   0  0  0  0  0  0  0  0  0  0  0  0
  160.7000  200.1020  151.5120 O   0  0  0  0  0  0  0  0  0  0  0  0
  160.9470  207.7420  150.1990 C   0  0  0  0  0  2  0  0  0  0  0  0
  161.1500  201.1600  149.4260 C   0  0  1  0  0  0  0  0  0  0  0  0
  160.8930  201.4170  146.9930 C   0  0  2  0  0  3  0  0  0  0  0  0
  160.4890  201.0520  150.7750 C   0  0  0  0  0  0  0  0  0  0  0  0
  159.5630  202.1460  151.2110 C   0  0  0  0  0  2  0  0  0  0  0  0
  161.0870  203.6550  145.8270 C   0  0  2  0  0  3  0  0  0  0  0  0
  161.5580  208.4590  149.0010 C   0  0  2  0  0  3  0  0  0  0  0  0
  161.6390  210.4380  151.7480 C   0  0  0  0  0  1  0  0  0  0  0  0
  162.2720  204.9280  145.4040 S   0  0  0  0  0  0  0  0  0  0  0  0
  162.4180  209.2950  151.1100 C   0  0  1  0  0  3  0  0  0  0  0  0
  162.3090  210.7230  149.1280 O   0  0  0  0  0  1  0  0  0  0  0  0
  160.4550  206.0070  147.8020 O   0  0  0  0  0  0  0  0  0  0  0  0
  160.0660  202.9170  152.2820 O   0  0  0  0  0  0  0  0  0  0  0  0
  162.5840  204.8690  143.9290 O   0  0  0  0  0  0  0  0  0  0  0  0
  160.5490  202.0480  148.3370 C   0  0  0  0  0  2  0  0  0  0  0  0
  159.7460  205.6340  152.5020 C   0  0  0  0  0  1  0  0  0  0  0  0
  161.7390  208.0370  151.3940 N   0  0  2  0  0  0  0  0  0  0  0  0
  161.6230  200.1690  147.3570 C   0  0  0  0  0  0  0  0  0  0  0  0
  161.2420  203.6000  151.8780 C   0  0  2  0  0  3  0  0  0  0  0  0
  163.5470  204.7210  146.1770 O   0  0  0  0  0  0  0  0  0  0  0  0
  161.0930  205.1180  152.0130 C   0  0  1  0  0  0  0  0  0  0  0  0
  162.7740  207.0090  151.5130 C   0  0  0  0  0  2  0  0  0  0  0  0
  161.7820  199.9270  148.8170 C   0  0  1  0  0  3  0  0  0  0  0  0
  161.7960  202.3510  146.1930 C   0  0  0  0  0  2  0  0  0  0  0  0
  161.3710  206.6350  147.2870 C   0  0  0  0  0  0  0  0  0  0  0  0
  162.3030  207.4510  148.1300 C   0  0  0  0  0  2  0  0  0  0  0  0
  162.3410  204.4920  149.8600 C   0  0  0  0  0  1  0  0  0  0  0  0
  162.3690  205.8600  152.4460 C   0  0  1  0  0  3  0  0  0  0  0  0
  160.1150  203.4410  144.6750 C   0  0  0  0  0  2  0  0  0  0  0  0
  159.2350  202.2380  144.9530 C   0  0  0  0  0  2  0  0  0  0  0  0
  159.7080  201.0620  144.1580 C   0  0  0  0  0  3  0  0  0  0  0  0
  159.6220  199.9340  144.6220 O   0  0  0  0  0  0  0  0  0  0  0  0
  160.3620  206.8380  144.9990 C   0  0  0  0  0  2  0  0  0  0  0  0
  158.3650  205.5800  144.8320 O   0  0  0  0  0  0  0  0  0  0  0  0
  159.1610  206.1470  145.5690 C   0  0  0  0  0  3  0  0  0  0  0  0
  1 18  1  6  0  0  0
  1 17  1  0  0  0  0
  3 40  1  6  0  0  0
  3 32  1  0  0  0  0
  5 34  1  6  0  0  0
  5 26  1  0  0  0  0
  5 28  1  0  0  0  0
  6 25  2  0  0  0  0
  9 22  1  6  0  0  0
  9  2  1  0  0  0  0
  9 11  1  0  0  0  0
 10 31  1  6  0  0  0
 10 25  1  0  0  0  0
 10 22  1  0  0  0  0
 11 12  1  0  0  0  0
 11  7  2  0  0  0  0
 12 20  1  0  0  0  0
 13 36  1  6  0  0  0
 13 31  1  0  0  0  0
 14 33  1  6  0  0  0
 14  1  1  0  0  0  0
 14  8  1  0  0  0  0
 16  3  1  0  0  0  0
 16 13  1  0  0  0  0
 16 27  2  0  0  0  0
 17 24  1  0  0  0  0
 17 15  1  6  0  0  0
 21 16  2  0  0  0  0
 24  8  1  6  0  0  0
 24 29  1  0  0  0  0
 25 30  1  0  0  0  0
 26 28  1  0  0  0  0
 26 20  1  1  0  0  0
 28 35  1  0  0  0  0
 28 23  1  1  0  0  0
 29 35  1  0  0  0  0
 30  9  1  0  0  0  0
 30  2  1  6  0  0  0
 32 19  2  0  0  0  0
 32 33  1  0  0  0  0
 35  4  1  1  0  0  0
 36 37  1  0  0  0  0
 38 39  2  0  0  0  0
 38 37  1  0  0  0  0
 40 42  1  0  0  0  0
 41 42  2  0  0  0  0
M  END
>  <MODEL>
6

>  <REMARK>
 VINA RESULT:       9.4      3.540      7.566
  Name = 
  5 active torsions:
  status: ('A' for Active; 'I' for Inactive)
    1  A    between atoms: C_1  and  C_14
    2  A    between atoms: C_1  and  C_25
    3  A    between atoms: C_4  and  C_21
    4  A    between atoms: C_21  and  C_34
    5  A    between atoms: C_24  and  C_25
                            x       y       z     vdW  Elec       q    Type
                         _______ _______ _______ _____ _____    ______ ____

>  <TORSDO>
F 5

$$$$
