=
 OpenBabel11072414593D

 39 44  0  0  1  0  0  0  0  0999 V2000
  162.3040  209.9340  150.6870 C   0  0  0  0  0  3  0  0  0  0  0  0
  160.7570  209.2030  152.4220 C   0  0  0  0  0  0  0  0  0  0  0  0
  158.8430  212.1360  152.6640 N   0  0  0  0  0  0  0  0  0  0  0  0
  160.5870  211.4060  151.5010 C   0  0  0  0  0  0  0  0  0  0  0  0
  162.3620  207.5860  151.7860 C   0  0  1  0  0  3  0  0  0  0  0  0
  161.6730  211.1970  150.6390 C   0  0  0  0  0  3  0  0  0  0  0  0
  160.1400  210.4470  152.3680 C   0  0  0  0  0  0  0  0  0  0  0  0
  160.4280  208.0510  153.2900 C   0  0  0  0  0  3  0  0  0  0  0  0
  161.8220  208.9520  151.5850 C   0  0  0  0  0  0  0  0  0  0  0  0
  161.4110  206.9600  152.8270 C   0  0  0  0  0  3  0  0  0  0  0  0
  159.7430  212.4710  151.7090 C   0  0  0  0  0  0  0  0  0  0  0  0
  159.0850  210.8930  153.0710 N   0  0  0  0  0  2  0  0  0  0  0  0
  162.2830  206.8340  150.5450 N   0  0  0  0  0  2  0  0  0  0  0  0
  162.1300  206.7510  147.9410 O   0  0  0  0  0  1  0  0  0  0  0  0
  160.9210  206.9980  150.0390 C   0  0  1  0  0  3  0  0  0  0  0  0
  160.8630  206.9500  148.5090 C   0  0  2  0  0  3  0  0  0  0  0  0
  160.3920  205.7450  149.3310 C   0  0  1  0  0  3  0  0  0  0  0  0
  159.4880  201.7660  149.1520 C   0  0  0  0  0  1  0  0  0  0  0  0
  161.3630  204.5540  149.3320 C   0  0  2  0  0  3  0  0  0  0  0  0
  161.6300  204.1350  147.9700 N   0  0  0  0  0  2  0  0  0  0  0  0
  160.7780  203.4370  150.0670 N   0  0  0  0  0  0  0  0  0  0  0  0
  160.8380  202.3000  149.2370 N   0  0  0  0  0  0  0  0  0  0  0  0
  161.1960  202.7530  147.9020 C   0  0  0  0  0  2  0  0  0  0  0  0
  161.5740  203.2100  151.2840 C   0  0  0  0  0  3  0  0  0  0  0  0
  161.9900  201.7520  151.4800 C   0  0  0  0  0  1  0  0  0  0  0  0
  160.8390  203.7160  152.5110 C   0  0  0  0  0  1  0  0  0  0  0  0
  159.7830  213.7920  151.0160 C   0  0  0  0  0  2  0  0  0  0  0  0
  158.0160  213.4270  148.7920 O   0  0  0  0  0  0  0  0  0  0  0  0
  159.2580  213.3950  148.5630 C   0  0  0  0  0  0  0  0  0  0  0  0
  160.1880  213.6270  149.6260 N   0  0  0  0  0  2  0  0  0  0  0  0
  159.7500  213.1380  147.2010 C   0  0  0  0  0  0  0  0  0  0  0  0
  162.8030  213.2310  145.4560 O   0  0  0  0  0  0  0  0  0  0  0  0
  158.7830  212.6230  146.1560 C   0  0  0  0  0  2  0  0  0  0  0  0
  159.3780  212.5020  144.7780 C   0  0  0  0  0  3  0  0  0  0  0  0
  161.5610  213.0990  145.6290 C   0  0  0  0  0  0  0  0  0  0  0  0
  161.0100  213.3170  146.9310 N   0  0  0  0  0  0  0  0  0  0  0  0
  160.6670  212.7070  144.5140 C   0  0  0  0  0  0  0  0  0  0  0  0
  160.4320  211.7430  142.2240 C   0  0  0  0  0  1  0  0  0  0  0  0
  161.1040  212.5390  143.1900 O   0  0  0  0  0  0  0  0  0  0  0  0
  1  9  1  0  0  0  0
  2  8  1  0  0  0  0
  3 12  1  0  0  0  0
  4 11  1  0  0  0  0
  4  7  2  0  0  0  0
  5 13  1  6  0  0  0
  5 10  1  0  0  0  0
  6  1  2  0  0  0  0
  6  4  1  0  0  0  0
  7  2  1  0  0  0  0
  7 12  1  0  0  0  0
  9  5  1  0  0  0  0
  9  2  2  0  0  0  0
 10  8  2  0  0  0  0
 11  3  2  0  0  0  0
 15 13  1  6  0  0  0
 16 14  1  6  0  0  0
 16 17  1  0  0  0  0
 16 15  1  0  0  0  0
 17 19  1  6  0  0  0
 17 15  1  0  0  0  0
 18 22  1  0  0  0  0
 19 20  1  6  0  0  0
 19 21  1  0  0  0  0
 21 24  1  0  0  0  0
 22 21  1  0  0  0  0
 23 20  1  0  0  0  0
 23 22  1  0  0  0  0
 24 25  1  0  0  0  0
 24 26  1  0  0  0  0
 27 11  1  0  0  0  0
 29 28  2  0  0  0  0
 29 30  1  0  0  0  0
 30 27  1  0  0  0  0
 31 29  1  0  0  0  0
 32 35  2  0  0  0  0
 33 31  1  0  0  0  0
 34 33  1  0  0  0  0
 35 36  1  0  0  0  0
 36 31  2  0  0  0  0
 37 34  2  0  0  0  0
 37 35  1  0  0  0  0
 38 39  1  0  0  0  0
 39 37  1  0  0  0  0
M  END
>  <MODEL>
1

>  <REMARK>
 VINA RESULT:      -7.8      0.000      0.000
  Name = 
  8 active torsions:
  status: ('A' for Active; 'I' for Inactive)
    1  A    between atoms: C_3  and  N_33
    2  A    between atoms: C_4  and  C_24
    3  A    between atoms: C_10  and  C_26
    4  A    between atoms: C_12  and  N_13
    5  A    between atoms: N_13  and  C_14
    6  A    between atoms: C_19  and  N_32
    7  A    between atoms: C_19  and  C_36
    8  A    between atoms: C_34  and  O_38
                            x       y       z     vdW  Elec       q    Type
                         _______ _______ _______ _____ _____    ______ ____

>  <TORSDO>
F 8

$$$$
=
 OpenBabel11072414593D

 39 44  0  0  1  0  0  0  0  0999 V2000
  162.3700  209.4920  150.8870 C   0  0  0  0  0  3  0  0  0  0  0  0
  160.8920  208.5080  152.5550 C   0  0  0  0  0  0  0  0  0  0  0  0
  158.9640  211.3530  153.2680 N   0  0  0  0  0  0  0  0  0  0  0  0
  160.6710  210.8140  151.9560 C   0  0  0  0  0  0  0  0  0  0  0  0
  162.4870  207.0150  151.6470 C   0  0  1  0  0  3  0  0  0  0  0  0
  161.7280  210.7410  151.0370 C   0  0  0  0  0  3  0  0  0  0  0  0
  160.2630  209.7380  152.6960 C   0  0  0  0  0  0  0  0  0  0  0  0
  160.6040  207.2420  153.2660 C   0  0  0  0  0  3  0  0  0  0  0  0
  161.9290  208.3890  151.6560 C   0  0  0  0  0  0  0  0  0  0  0  0
  161.5790  206.2390  152.6220 C   0  0  0  0  0  3  0  0  0  0  0  0
  159.8260  211.8290  152.3380 C   0  0  0  0  0  0  0  0  0  0  0  0
  159.2310  210.0690  153.4900 N   0  0  0  0  0  2  0  0  0  0  0  0
  162.3700  206.4420  150.3170 N   0  0  0  0  0  2  0  0  0  0  0  0
  162.6470  207.8220  148.1190 O   0  0  0  0  0  1  0  0  0  0  0  0
  161.1010  206.9130  149.7650 C   0  0  1  0  0  3  0  0  0  0  0  0
  161.2950  207.7230  148.4790 C   0  0  2  0  0  3  0  0  0  0  0  0
  160.7710  206.2840  148.4060 C   0  0  1  0  0  3  0  0  0  0  0  0
  160.5190  203.8500  145.1360 C   0  0  0  0  0  1  0  0  0  0  0  0
  161.7990  205.2560  147.9120 C   0  0  2  0  0  3  0  0  0  0  0  0
  162.6430  205.8500  146.8940 N   0  0  0  0  0  2  0  0  0  0  0  0
  161.1120  204.1000  147.3450 N   0  0  0  0  0  0  0  0  0  0  0  0
  161.6430  203.8740  146.0590 N   0  0  0  0  0  0  0  0  0  0  0  0
  162.4490  205.0340  145.7110 C   0  0  0  0  0  2  0  0  0  0  0  0
  161.3710  202.9330  148.2040 C   0  0  0  0  0  3  0  0  0  0  0  0
  160.8570  201.6160  147.6200 C   0  0  0  0  0  1  0  0  0  0  0  0
  160.8030  203.1490  149.5940 C   0  0  0  0  0  1  0  0  0  0  0  0
  159.8300  213.2340  151.8350 C   0  0  0  0  0  2  0  0  0  0  0  0
  158.2400  213.7570  149.5120 O   0  0  0  0  0  0  0  0  0  0  0  0
  159.4640  213.4970  149.3350 C   0  0  0  0  0  0  0  0  0  0  0  0
  160.3190  213.2820  150.4630 N   0  0  0  0  0  2  0  0  0  0  0  0
  160.0150  213.4330  147.9730 C   0  0  0  0  0  0  0  0  0  0  0  0
  159.0580  212.2150  144.8150 O   0  0  0  0  0  0  0  0  0  0  0  0
  161.3460  214.0940  147.6870 C   0  0  0  0  0  2  0  0  0  0  0  0
  161.8540  213.8690  146.2880 C   0  0  0  0  0  3  0  0  0  0  0  0
  159.8030  212.7380  145.6880 C   0  0  0  0  0  0  0  0  0  0  0  0
  159.3300  212.8500  147.0330 N   0  0  0  0  0  0  0  0  0  0  0  0
  161.1490  213.2520  145.3410 C   0  0  0  0  0  0  0  0  0  0  0  0
  163.1220  213.1810  143.8150 C   0  0  0  0  0  1  0  0  0  0  0  0
  161.7250  213.1250  144.0680 O   0  0  0  0  0  0  0  0  0  0  0  0
  1  6  2  0  0  0  0
  1  9  1  0  0  0  0
  2  7  1  0  0  0  0
  2  8  1  0  0  0  0
  3 12  1  0  0  0  0
  4 11  1  0  0  0  0
  4  7  2  0  0  0  0
  5 13  1  6  0  0  0
  5  9  1  0  0  0  0
  5 10  1  0  0  0  0
  6  4  1  0  0  0  0
  7 12  1  0  0  0  0
  9  2  2  0  0  0  0
 10  8  2  0  0  0  0
 11  3  2  0  0  0  0
 15 13  1  6  0  0  0
 16 14  1  6  0  0  0
 16 15  1  0  0  0  0
 17 19  1  6  0  0  0
 17 16  1  0  0  0  0
 17 15  1  0  0  0  0
 18 22  1  0  0  0  0
 19 20  1  6  0  0  0
 21 19  1  0  0  0  0
 21 24  1  0  0  0  0
 22 21  1  0  0  0  0
 23 22  1  0  0  0  0
 23 20  1  0  0  0  0
 24 26  1  0  0  0  0
 25 24  1  0  0  0  0
 27 11  1  0  0  0  0
 29 28  2  0  0  0  0
 29 30  1  0  0  0  0
 30 27  1  0  0  0  0
 31 29  1  0  0  0  0
 32 35  2  0  0  0  0
 33 31  1  0  0  0  0
 34 33  1  0  0  0  0
 35 36  1  0  0  0  0
 36 31  2  0  0  0  0
 37 35  1  0  0  0  0
 37 34  2  0  0  0  0
 38 39  1  0  0  0  0
 39 37  1  0  0  0  0
M  END
>  <MODEL>
2

>  <REMARK>
 VINA RESULT:      -7.4      1.396      2.082
  Name = 
  8 active torsions:
  status: ('A' for Active; 'I' for Inactive)
    1  A    between atoms: C_3  and  N_33
    2  A    between atoms: C_4  and  C_24
    3  A    between atoms: C_10  and  C_26
    4  A    between atoms: C_12  and  N_13
    5  A    between atoms: N_13  and  C_14
    6  A    between atoms: C_19  and  N_32
    7  A    between atoms: C_19  and  C_36
    8  A    between atoms: C_34  and  O_38
                            x       y       z     vdW  Elec       q    Type
                         _______ _______ _______ _____ _____    ______ ____

>  <TORSDO>
F 8

$$$$
=
 OpenBabel11072414593D

 39 44  0  0  1  0  0  0  0  0999 V2000
  159.6260  208.5190  156.1340 C   0  0  0  0  0  3  0  0  0  0  0  0
  160.7550  209.9950  154.5570 C   0  0  0  0  0  0  0  0  0  0  0  0
  161.9330  207.5510  152.3290 N   0  0  0  0  0  0  0  0  0  0  0  0
  160.7690  207.6260  154.2170 C   0  0  0  0  0  0  0  0  0  0  0  0
  159.7060  211.1010  156.3660 C   0  0  1  0  0  3  0  0  0  0  0  0
  160.0150  207.3920  155.3770 C   0  0  0  0  0  3  0  0  0  0  0  0
  161.1330  208.8820  153.8160 C   0  0  0  0  0  0  0  0  0  0  0  0
  161.0560  211.4190  154.2940 C   0  0  0  0  0  3  0  0  0  0  0  0
  160.0050  209.8110  155.6990 C   0  0  0  0  0  0  0  0  0  0  0  0
  160.3070  212.1590  155.4180 C   0  0  0  0  0  3  0  0  0  0  0  0
  161.2890  206.7970  153.2520 C   0  0  2  0  0  3  0  0  0  0  0  0
  161.8380  208.8330  152.6740 N   0  0  0  0  0  0  0  0  0  0  0  0
  158.2680  211.2920  156.4540 N   0  0  0  0  0  2  0  0  0  0  0  0
  155.6620  211.2100  156.5620 O   0  0  0  0  0  1  0  0  0  0  0  0
  157.6700  210.4750  155.3990 C   0  0  1  0  0  3  0  0  0  0  0  0
  156.1410  210.4430  155.4910 C   0  0  2  0  0  3  0  0  0  0  0  0
  156.8250  211.2950  154.4170 C   0  0  1  0  0  3  0  0  0  0  0  0
  154.8600  214.2130  152.3410 C   0  0  0  0  0  1  0  0  0  0  0  0
  156.8090  212.8060  154.6950 C   0  0  2  0  0  3  0  0  0  0  0  0
  155.6410  213.1500  155.4810 N   0  0  0  0  0  2  0  0  0  0  0  0
  156.7700  213.5420  153.4360 N   0  0  0  0  0  0  0  0  0  0  0  0
  155.6960  214.4530  153.5060 N   0  0  0  0  0  0  0  0  0  0  0  0
  154.9020  214.1020  154.6730 C   0  0  0  0  0  2  0  0  0  0  0  0
  158.0360  214.2750  153.2810 C   0  0  0  0  0  3  0  0  0  0  0  0
  158.9950  213.6360  152.2750 C   0  0  0  0  0  1  0  0  0  0  0  0
  158.7240  214.4530  154.6220 C   0  0  0  0  0  1  0  0  0  0  0  0
  161.1840  205.3090  153.1980 C   0  0  0  0  0  2  0  0  0  0  0  0
  160.4760  202.6780  152.3180 O   0  0  0  0  0  0  0  0  0  0  0  0
  160.8590  203.5030  151.4410 C   0  0  0  0  0  0  0  0  0  0  0  0
  161.1720  204.8490  151.8150 N   0  0  0  0  0  2  0  0  0  0  0  0
  160.9640  203.0880  150.0340 C   0  0  0  0  0  0  0  0  0  0  0  0
  161.5890  204.5700  146.9060 O   0  0  0  0  0  0  0  0  0  0  0  0
  160.8510  201.6190  149.6910 C   0  0  0  0  0  2  0  0  0  0  0  0
  160.8670  201.3310  148.2140 C   0  0  0  0  0  3  0  0  0  0  0  0
  161.3000  203.6600  147.7300 C   0  0  0  0  0  0  0  0  0  0  0  0
  161.1950  203.9840  149.1190 N   0  0  0  0  0  0  0  0  0  0  0  0
  161.0860  202.2630  147.2870 C   0  0  0  0  0  0  0  0  0  0  0  0
  159.9330  201.6570  145.1580 C   0  0  0  0  0  1  0  0  0  0  0  0
  161.1000  201.8630  145.9410 O   0  0  0  0  0  0  0  0  0  0  0  0
  2  9  2  0  0  0  0
  3 12  2  0  0  0  0
  3 11  1  0  0  0  0
  4  6  1  0  0  0  0
  5 13  1  6  0  0  0
  6  1  2  0  0  0  0
  7  4  2  0  0  0  0
  7  2  1  0  0  0  0
  8  2  1  0  0  0  0
  8 10  2  0  0  0  0
  9  1  1  0  0  0  0
  9  5  1  0  0  0  0
 10  5  1  0  0  0  0
 11 27  1  1  0  0  0
 11  4  1  0  0  0  0
 12  7  1  0  0  0  0
 15 16  1  0  0  0  0
 15 13  1  1  0  0  0
 16 14  1  1  0  0  0
 17 19  1  1  0  0  0
 17 15  1  0  0  0  0
 17 16  1  0  0  0  0
 18 22  1  0  0  0  0
 19 20  1  1  0  0  0
 21 22  1  0  0  0  0
 21 19  1  0  0  0  0
 22 23  1  0  0  0  0
 23 20  1  0  0  0  0
 24 21  1  0  0  0  0
 24 26  1  0  0  0  0
 25 24  1  0  0  0  0
 29 30  1  0  0  0  0
 29 28  2  0  0  0  0
 30 27  1  0  0  0  0
 31 29  1  0  0  0  0
 32 35  2  0  0  0  0
 33 31  1  0  0  0  0
 34 33  1  0  0  0  0
 35 36  1  0  0  0  0
 36 31  2  0  0  0  0
 37 35  1  0  0  0  0
 37 34  2  0  0  0  0
 38 39  1  0  0  0  0
 39 37  1  0  0  0  0
M  END
>  <MODEL>
3

>  <REMARK>
 VINA RESULT:      -7.0      4.495      9.531
  Name = 
  8 active torsions:
  status: ('A' for Active; 'I' for Inactive)
    1  A    between atoms: C_3  and  N_33
    2  A    between atoms: C_4  and  C_24
    3  A    between atoms: C_10  and  C_26
    4  A    between atoms: C_12  and  N_13
    5  A    between atoms: N_13  and  C_14
    6  A    between atoms: C_19  and  N_32
    7  A    between atoms: C_19  and  C_36
    8  A    between atoms: C_34  and  O_38
                            x       y       z     vdW  Elec       q    Type
                         _______ _______ _______ _____ _____    ______ ____

>  <TORSDO>
F 8

$$$$
=
 OpenBabel11072414593D

 39 44  0  0  1  0  0  0  0  0999 V2000
  160.9510  210.1960  153.5040 C   0  0  0  0  0  3  0  0  0  0  0  0
  159.7320  209.4510  155.4780 C   0  0  0  0  0  0  0  0  0  0  0  0
  157.9130  212.3910  156.0910 N   0  0  0  0  0  0  0  0  0  0  0  0
  159.4170  211.6660  154.6280 C   0  0  0  0  0  0  0  0  0  0  0  0
  161.1880  207.8340  154.5480 C   0  0  1  0  0  3  0  0  0  0  0  0
  160.3310  211.4630  153.5840 C   0  0  0  0  0  3  0  0  0  0  0  0
  159.1250  210.6980  155.5500 C   0  0  0  0  0  0  0  0  0  0  0  0
  159.5550  208.2900  156.3780 C   0  0  0  0  0  3  0  0  0  0  0  0
  160.6300  209.2050  154.4620 C   0  0  0  0  0  0  0  0  0  0  0  0
  160.4330  207.2000  155.7340 C   0  0  0  0  0  3  0  0  0  0  0  0
  158.6310  212.7330  154.9950 C   0  0  0  0  0  0  0  0  0  0  0  0
  158.2150  211.1410  156.4340 N   0  0  0  0  0  2  0  0  0  0  0  0
  160.8840  207.0980  153.3330 N   0  0  0  0  0  2  0  0  0  0  0  0
  160.2820  204.7920  152.2690 O   0  0  0  0  0  1  0  0  0  0  0  0
  162.0540  206.2750  153.0350 C   0  0  1  0  0  3  0  0  0  0  0  0
  161.6700  204.9270  152.4170 C   0  0  2  0  0  3  0  0  0  0  0  0
  162.2500  206.0370  151.5330 C   0  0  1  0  0  3  0  0  0  0  0  0
  162.4540  206.6880  147.5060 C   0  0  0  0  0  1  0  0  0  0  0  0
  161.2210  206.7410  150.6360 C   0  0  2  0  0  3  0  0  0  0  0  0
  160.3510  205.7590  150.0190 N   0  0  0  0  0  2  0  0  0  0  0  0
  161.9060  207.4940  149.5900 N   0  0  0  0  0  0  0  0  0  0  0  0
  161.3510  207.1110  148.3530 N   0  0  0  0  0  0  0  0  0  0  0  0
  160.5270  205.9350  148.5900 C   0  0  0  0  0  2  0  0  0  0  0  0
  161.6760  208.9290  149.8180 C   0  0  0  0  0  3  0  0  0  0  0  0
  161.9790  209.8000  148.5980 C   0  0  0  0  0  1  0  0  0  0  0  0
  162.4610  209.4170  151.0210 C   0  0  0  0  0  1  0  0  0  0  0  0
  158.5560  214.0630  154.3220 C   0  0  0  0  0  2  0  0  0  0  0  0
  156.7960  213.9580  152.0650 O   0  0  0  0  0  0  0  0  0  0  0  0
  158.0350  213.8500  151.8440 C   0  0  0  0  0  0  0  0  0  0  0  0
  158.9660  213.9510  152.9270 N   0  0  0  0  0  2  0  0  0  0  0  0
  158.5240  213.6400  150.4730 C   0  0  0  0  0  0  0  0  0  0  0  0
  157.1810  213.2350  147.2470 O   0  0  0  0  0  0  0  0  0  0  0  0
  160.0160  213.6340  150.2180 C   0  0  0  0  0  2  0  0  0  0  0  0
  160.3930  213.3030  148.7980 C   0  0  0  0  0  3  0  0  0  0  0  0
  158.0640  213.2900  148.1450 C   0  0  0  0  0  0  0  0  0  0  0  0
  157.6680  213.5080  149.5030 N   0  0  0  0  0  0  0  0  0  0  0  0
  159.5030  213.1510  147.8180 C   0  0  0  0  0  0  0  0  0  0  0  0
  161.3420  213.0040  146.1380 C   0  0  0  0  0  1  0  0  0  0  0  0
  159.9830  212.8680  146.5300 O   0  0  0  0  0  0  0  0  0  0  0  0
  1  6  2  0  0  0  0
  1  9  1  0  0  0  0
  2  7  1  0  0  0  0
  2  8  1  0  0  0  0
  3 12  1  0  0  0  0
  4 11  1  0  0  0  0
  4  7  2  0  0  0  0
  5 13  1  6  0  0  0
  5 10  1  0  0  0  0
  6  4  1  0  0  0  0
  7 12  1  0  0  0  0
  9  5  1  0  0  0  0
  9  2  2  0  0  0  0
 10  8  2  0  0  0  0
 11  3  2  0  0  0  0
 15 13  1  6  0  0  0
 16 14  1  6  0  0  0
 16 15  1  0  0  0  0
 17 19  1  6  0  0  0
 17 16  1  0  0  0  0
 17 15  1  0  0  0  0
 18 22  1  0  0  0  0
 19 20  1  6  0  0  0
 21 24  1  0  0  0  0
 21 19  1  0  0  0  0
 22 23  1  0  0  0  0
 22 21  1  0  0  0  0
 23 20  1  0  0  0  0
 24 26  1  0  0  0  0
 25 24  1  0  0  0  0
 27 11  1  0  0  0  0
 29 28  2  0  0  0  0
 29 30  1  0  0  0  0
 30 27  1  0  0  0  0
 31 29  1  0  0  0  0
 32 35  2  0  0  0  0
 33 31  1  0  0  0  0
 34 33  1  0  0  0  0
 35 36  1  0  0  0  0
 36 31  2  0  0  0  0
 37 35  1  0  0  0  0
 37 34  2  0  0  0  0
 38 39  1  0  0  0  0
 39 37  1  0  0  0  0
M  END
>  <MODEL>
4

>  <REMARK>
 VINA RESULT:      -7.0      2.400      4.133
  Name = 
  8 active torsions:
  status: ('A' for Active; 'I' for Inactive)
    1  A    between atoms: C_3  and  N_33
    2  A    between atoms: C_4  and  C_24
    3  A    between atoms: C_10  and  C_26
    4  A    between atoms: C_12  and  N_13
    5  A    between atoms: N_13  and  C_14
    6  A    between atoms: C_19  and  N_32
    7  A    between atoms: C_19  and  C_36
    8  A    between atoms: C_34  and  O_38
                            x       y       z     vdW  Elec       q    Type
                         _______ _______ _______ _____ _____    ______ ____

>  <TORSDO>
F 8

$$$$
=
 OpenBabel11072414593D

 39 44  0  0  1  0  0  0  0  0999 V2000
  161.5300  208.6240  151.4420 C   0  0  0  0  0  3  0  0  0  0  0  0
  160.8250  208.0880  153.7120 C   0  0  0  0  0  0  0  0  0  0  0  0
  159.2180  211.1150  154.4730 N   0  0  0  0  0  0  0  0  0  0  0  0
  160.3190  210.2260  152.7640 C   0  0  0  0  0  0  0  0  0  0  0  0
  162.0070  206.3590  152.6110 C   0  0  1  0  0  3  0  0  0  0  0  0
  160.9520  209.9080  151.5530 C   0  0  0  0  0  3  0  0  0  0  0  0
  160.2570  209.3510  153.8130 C   0  0  0  0  0  0  0  0  0  0  0  0
  160.8690  207.0160  154.7310 C   0  0  0  0  0  3  0  0  0  0  0  0
  161.4490  207.7310  152.5360 C   0  0  0  0  0  0  0  0  0  0  0  0
  161.5610  205.8510  153.9980 C   0  0  0  0  0  3  0  0  0  0  0  0
  159.6490  211.3400  153.2090 C   0  0  0  0  0  0  0  0  0  0  0  0
  159.5910  209.8930  154.8470 N   0  0  0  0  0  2  0  0  0  0  0  0
  161.4140  205.5260  151.5790 N   0  0  0  0  0  2  0  0  0  0  0  0
  159.7820  203.4900  151.5570 O   0  0  0  0  0  1  0  0  0  0  0  0
  162.0970  204.2340  151.6350 C   0  0  1  0  0  3  0  0  0  0  0  0
  161.1140  203.0600  151.6260 C   0  0  2  0  0  3  0  0  0  0  0  0
  161.9080  203.4030  150.3610 C   0  0  1  0  0  3  0  0  0  0  0  0
  163.0820  204.3320  146.5600 C   0  0  0  0  0  1  0  0  0  0  0  0
  161.0890  204.0960  149.2620 C   0  0  2  0  0  3  0  0  0  0  0  0
  160.4870  203.1030  148.3940 N   0  0  0  0  0  2  0  0  0  0  0  0
  161.9560  204.9600  148.4670 N   0  0  0  0  0  0  0  0  0  0  0  0
  161.7680  204.6260  147.1110 N   0  0  0  0  0  0  0  0  0  0  0  0
  161.0080  203.3850  147.0700 C   0  0  0  0  0  2  0  0  0  0  0  0
  161.5610  206.3590  148.6950 C   0  0  0  0  0  3  0  0  0  0  0  0
  160.0810  206.6300  148.4180 C   0  0  0  0  0  1  0  0  0  0  0  0
  162.4290  207.3040  147.8870 C   0  0  0  0  0  1  0  0  0  0  0  0
  159.4160  212.6060  152.4550 C   0  0  0  0  0  2  0  0  0  0  0  0
  158.9130  214.3060  150.2050 O   0  0  0  0  0  0  0  0  0  0  0  0
  159.8170  213.4310  150.0850 C   0  0  0  0  0  0  0  0  0  0  0  0
  160.1500  212.5910  151.1950 N   0  0  0  0  0  2  0  0  0  0  0  0
  160.5400  213.2880  148.8130 C   0  0  0  0  0  0  0  0  0  0  0  0
  163.6970  212.2050  147.7000 O   0  0  0  0  0  0  0  0  0  0  0  0
  159.8210  213.6060  147.5200 C   0  0  0  0  0  2  0  0  0  0  0  0
  160.6950  213.5250  146.2960 C   0  0  0  0  0  3  0  0  0  0  0  0
  162.5370  212.6940  147.6250 C   0  0  0  0  0  0  0  0  0  0  0  0
  161.7650  212.8510  148.8190 N   0  0  0  0  0  0  0  0  0  0  0  0
  161.9550  213.0940  146.3220 C   0  0  0  0  0  0  0  0  0  0  0  0
  162.0410  212.9550  143.8320 C   0  0  0  0  0  1  0  0  0  0  0  0
  162.6590  213.0430  145.1080 O   0  0  0  0  0  0  0  0  0  0  0  0
  1  6  2  0  0  0  0
  1  9  1  0  0  0  0
  2  7  1  0  0  0  0
  2  8  1  0  0  0  0
  3 12  1  0  0  0  0
  4 11  1  0  0  0  0
  4  7  2  0  0  0  0
  5 13  1  6  0  0  0
  5 10  1  0  0  0  0
  6  4  1  0  0  0  0
  7 12  1  0  0  0  0
  9  5  1  0  0  0  0
  9  2  2  0  0  0  0
 10  8  2  0  0  0  0
 11  3  2  0  0  0  0
 15 13  1  6  0  0  0
 16 14  1  6  0  0  0
 16 15  1  0  0  0  0
 17 19  1  6  0  0  0
 17 16  1  0  0  0  0
 17 15  1  0  0  0  0
 18 22  1  0  0  0  0
 19 20  1  6  0  0  0
 21 24  1  0  0  0  0
 21 19  1  0  0  0  0
 22 21  1  0  0  0  0
 23 22  1  0  0  0  0
 23 20  1  0  0  0  0
 25 24  1  0  0  0  0
 26 24  1  0  0  0  0
 27 11  1  0  0  0  0
 29 28  2  0  0  0  0
 29 30  1  0  0  0  0
 30 27  1  0  0  0  0
 31 36  2  0  0  0  0
 31 29  1  0  0  0  0
 33 31  1  0  0  0  0
 34 37  2  0  0  0  0
 34 33  1  0  0  0  0
 35 32  2  0  0  0  0
 35 36  1  0  0  0  0
 37 35  1  0  0  0  0
 38 39  1  0  0  0  0
 39 37  1  0  0  0  0
M  END
>  <MODEL>
5

>  <REMARK>
 VINA RESULT:      -6.8      1.719      2.837
  Name = 
  8 active torsions:
  status: ('A' for Active; 'I' for Inactive)
    1  A    between atoms: C_3  and  N_33
    2  A    between atoms: C_4  and  C_24
    3  A    between atoms: C_10  and  C_26
    4  A    between atoms: C_12  and  N_13
    5  A    between atoms: N_13  and  C_14
    6  A    between atoms: C_19  and  N_32
    7  A    between atoms: C_19  and  C_36
    8  A    between atoms: C_34  and  O_38
                            x       y       z     vdW  Elec       q    Type
                         _______ _______ _______ _____ _____    ______ ____

>  <TORSDO>
F 8

$$$$
=
 OpenBabel11072414593D

 39 44  0  0  1  0  0  0  0  0999 V2000
  160.7950  209.7450  152.1690 C   0  0  0  0  0  3  0  0  0  0  0  0
  161.5490  210.4360  149.9570 C   0  0  0  0  0  0  0  0  0  0  0  0
  162.3640  207.2670  148.6850 N   0  0  0  0  0  0  0  0  0  0  0  0
  161.5810  208.1240  150.5760 C   0  0  0  0  0  0  0  0  0  0  0  0
  160.8270  212.2060  151.3510 C   0  0  1  0  0  3  0  0  0  0  0  0
  161.0720  208.3960  151.8550 C   0  0  0  0  0  2  0  0  0  0  0  0
  161.8170  209.1070  149.6540 C   0  0  0  0  0  0  0  0  0  0  0  0
  161.7440  211.6300  149.1050 C   0  0  0  0  0  3  0  0  0  0  0  0
  161.0390  210.7460  151.1990 C   0  0  0  0  0  0  0  0  0  0  0  0
  161.1980  212.7820  149.9690 C   0  0  0  0  0  3  0  0  0  0  0  0
  161.9360  206.9630  149.9330 C   0  0  0  0  0  0  0  0  0  0  0  0
  162.2910  208.5850  148.5110 N   0  0  0  0  0  0  0  0  0  0  0  0
  159.4270  212.4780  151.6290 N   0  0  0  0  0  2  0  0  0  0  0  0
  157.1590  213.4250  150.7510 O   0  0  0  0  0  1  0  0  0  0  0  0
  159.3020  213.9250  151.7900 C   0  0  1  0  0  3  0  0  0  0  0  0
  157.9650  214.4530  151.2620 C   0  0  2  0  0  3  0  0  0  0  0  0
  158.1940  214.3230  152.7720 C   0  0  1  0  0  3  0  0  0  0  0  0
  157.1750  213.8680  156.7010 C   0  0  0  0  0  1  0  0  0  0  0  0
  157.4680  213.1400  153.4280 C   0  0  2  0  0  3  0  0  0  0  0  0
  156.0480  213.4200  153.5170 N   0  0  0  0  0  2  0  0  0  0  0  0
  157.9950  212.9180  154.7710 N   0  0  0  0  0  0  0  0  0  0  0  0
  156.9010  212.8890  155.6610 N   0  0  0  0  0  0  0  0  0  0  0  0
  155.7350  213.3630  154.9320 C   0  0  0  0  0  2  0  0  0  0  0  0
  158.6910  211.6220  154.7940 C   0  0  0  0  0  3  0  0  0  0  0  0
  158.0960  210.6240  155.7880 C   0  0  0  0  0  1  0  0  0  0  0  0
  160.1720  211.8100  155.0610 C   0  0  0  0  0  1  0  0  0  0  0  0
  161.8750  205.5780  150.4880 C   0  0  0  0  0  2  0  0  0  0  0  0
  160.1410  203.2990  150.4690 O   0  0  0  0  0  0  0  0  0  0  0  0
  160.9150  203.4520  149.4820 C   0  0  0  0  0  0  0  0  0  0  0  0
  161.7640  204.6030  149.4110 N   0  0  0  0  0  2  0  0  0  0  0  0
  160.9310  202.4600  148.3970 C   0  0  0  0  0  0  0  0  0  0  0  0
  160.4600  202.3800  144.9120 O   0  0  0  0  0  0  0  0  0  0  0  0
  161.2980  201.0270  148.7180 C   0  0  0  0  0  2  0  0  0  0  0  0
  161.1740  200.0860  147.5480 C   0  0  0  0  0  3  0  0  0  0  0  0
  160.6570  201.9310  146.0740 C   0  0  0  0  0  0  0  0  0  0  0  0
  160.6710  202.8390  147.1800 N   0  0  0  0  0  0  0  0  0  0  0  0
  160.8890  200.4870  146.3110 C   0  0  0  0  0  0  0  0  0  0  0  0
  161.6060  198.3270  145.2880 C   0  0  0  0  0  1  0  0  0  0  0  0
  160.8250  199.5140  145.3010 O   0  0  0  0  0  0  0  0  0  0  0  0
  2  9  1  0  0  0  0
  3 11  1  0  0  0  0
  4  6  1  0  0  0  0
  5 13  1  6  0  0  0
  6  1  1  0  0  0  0
  7  2  2  0  0  0  0
  7  4  1  0  0  0  0
  8  2  1  0  0  0  0
  8 10  2  0  0  0  0
  9  5  1  0  0  0  0
  9  1  2  0  0  0  0
 10  5  1  0  0  0  0
 11 27  1  0  0  0  0
 11  4  2  0  0  0  0
 12  3  2  0  0  0  0
 12  7  1  0  0  0  0
 15 13  1  6  0  0  0
 15 17  1  0  0  0  0
 16 14  1  6  0  0  0
 16 15  1  0  0  0  0
 16 17  1  0  0  0  0
 17 19  1  6  0  0  0
 19 20  1  1  0  0  0
 19 21  1  0  0  0  0
 20 23  1  0  0  0  0
 21 24  1  0  0  0  0
 21 22  1  0  0  0  0
 22 18  1  0  0  0  0
 23 22  1  0  0  0  0
 24 26  1  0  0  0  0
 24 25  1  0  0  0  0
 29 28  2  0  0  0  0
 30 29  1  0  0  0  0
 30 27  1  0  0  0  0
 31 33  1  0  0  0  0
 31 29  1  0  0  0  0
 32 35  2  0  0  0  0
 34 33  1  0  0  0  0
 35 37  1  0  0  0  0
 35 36  1  0  0  0  0
 36 31  2  0  0  0  0
 37 34  2  0  0  0  0
 38 39  1  0  0  0  0
 39 37  1  0  0  0  0
M  END
>  <MODEL>
6

>  <REMARK>
 VINA RESULT:      -6.4      3.226      9.479
  Name = 
  8 active torsions:
  status: ('A' for Active; 'I' for Inactive)
    1  A    between atoms: C_3  and  N_33
    2  A    between atoms: C_4  and  C_24
    3  A    between atoms: C_10  and  C_26
    4  A    between atoms: C_12  and  N_13
    5  A    between atoms: N_13  and  C_14
    6  A    between atoms: C_19  and  N_32
    7  A    between atoms: C_19  and  C_36
    8  A    between atoms: C_34  and  O_38
                            x       y       z     vdW  Elec       q    Type
                         _______ _______ _______ _____ _____    ______ ____

>  <TORSDO>
F 8

$$$$
=
 OpenBabel11072414593D

 39 44  0  0  1  0  0  0  0  0999 V2000
  162.0020  209.1900  151.2420 C   0  0  0  0  0  3  0  0  0  0  0  0
  160.5160  209.0340  153.1660 C   0  0  0  0  0  0  0  0  0  0  0  0
  159.1360  212.2570  153.0070 N   0  0  0  0  0  0  0  0  0  0  0  0
  160.6270  211.0540  151.8880 C   0  0  0  0  0  0  0  0  0  0  0  0
  161.7730  207.0780  152.7280 C   0  0  1  0  0  3  0  0  0  0  0  0
  161.5850  210.5200  151.0120 C   0  0  0  0  0  3  0  0  0  0  0  0
  160.1090  210.3410  152.9340 C   0  0  0  0  0  0  0  0  0  0  0  0
  160.0820  208.1130  154.2400 C   0  0  0  0  0  3  0  0  0  0  0  0
  161.4480  208.4670  152.3240 C   0  0  0  0  0  0  0  0  0  0  0  0
  160.8290  206.8050  153.9170 C   0  0  0  0  0  3  0  0  0  0  0  0
  159.9900  212.2700  151.9560 C   0  0  0  0  0  0  0  0  0  0  0  0
  159.2070  211.0730  153.6090 N   0  0  0  0  0  2  0  0  0  0  0  0
  161.4630  206.1610  151.6450 N   0  0  0  0  0  2  0  0  0  0  0  0
  160.3910  203.8410  152.1730 O   0  0  0  0  0  1  0  0  0  0  0  0
  162.4390  205.0750  151.7190 C   0  0  1  0  0  3  0  0  0  0  0  0
  161.7820  203.7280  152.0350 C   0  0  2  0  0  3  0  0  0  0  0  0
  162.2570  204.0320  150.6100 C   0  0  1  0  0  3  0  0  0  0  0  0
  162.3210  203.6690  146.5420 C   0  0  0  0  0  1  0  0  0  0  0  0
  161.1300  204.3480  149.6150 C   0  0  2  0  0  3  0  0  0  0  0  0
  160.3950  203.1390  149.3010 N   0  0  0  0  0  2  0  0  0  0  0  0
  161.6930  204.8960  148.3850 N   0  0  0  0  0  0  0  0  0  0  0  0
  161.1800  204.1460  147.3080 N   0  0  0  0  0  0  0  0  0  0  0  0
  160.5280  202.9710  147.8670 C   0  0  0  0  0  2  0  0  0  0  0  0
  161.2710  206.3000  148.2610 C   0  0  0  0  0  3  0  0  0  0  0  0
  160.4880  206.5940  146.9810 C   0  0  0  0  0  1  0  0  0  0  0  0
  162.4620  207.2340  148.3740 C   0  0  0  0  0  1  0  0  0  0  0  0
  160.1840  213.4340  151.0420 C   0  0  0  0  0  2  0  0  0  0  0  0
  161.7990  214.4490  148.9070 O   0  0  0  0  0  0  0  0  0  0  0  0
  160.9210  213.5880  148.6160 C   0  0  0  0  0  0  0  0  0  0  0  0
  160.1220  213.0050  149.6510 N   0  0  0  0  0  2  0  0  0  0  0  0
  160.7310  213.1720  147.2190 C   0  0  0  0  0  0  0  0  0  0  0  0
  162.6040  213.0540  144.2430 O   0  0  0  0  0  0  0  0  0  0  0  0
  159.4180  212.5380  146.8130 C   0  0  0  0  0  2  0  0  0  0  0  0
  159.3050  212.2540  145.3380 C   0  0  0  0  0  3  0  0  0  0  0  0
  161.5960  212.9450  144.9930 C   0  0  0  0  0  0  0  0  0  0  0  0
  161.7070  213.3160  146.3710 N   0  0  0  0  0  0  0  0  0  0  0  0
  160.3080  212.4250  144.4780 C   0  0  0  0  0  0  0  0  0  0  0  0
  161.0880  212.1170  142.1280 C   0  0  0  0  0  1  0  0  0  0  0  0
  160.0820  212.1010  143.1310 O   0  0  0  0  0  0  0  0  0  0  0  0
  1  9  1  0  0  0  0
  2  8  1  0  0  0  0
  3 12  1  0  0  0  0
  4 11  1  0  0  0  0
  4  7  2  0  0  0  0
  5 13  1  6  0  0  0
  5 10  1  0  0  0  0
  6  1  2  0  0  0  0
  6  4  1  0  0  0  0
  7  2  1  0  0  0  0
  7 12  1  0  0  0  0
  9  5  1  0  0  0  0
  9  2  2  0  0  0  0
 10  8  2  0  0  0  0
 11  3  2  0  0  0  0
 15 13  1  6  0  0  0
 15 16  1  0  0  0  0
 16 14  1  6  0  0  0
 17 19  1  6  0  0  0
 17 15  1  0  0  0  0
 17 16  1  0  0  0  0
 18 22  1  0  0  0  0
 19 20  1  6  0  0  0
 21 19  1  0  0  0  0
 22 23  1  0  0  0  0
 22 21  1  0  0  0  0
 23 20  1  0  0  0  0
 24 26  1  0  0  0  0
 24 21  1  0  0  0  0
 25 24  1  0  0  0  0
 27 11  1  0  0  0  0
 29 28  2  0  0  0  0
 29 30  1  0  0  0  0
 30 27  1  0  0  0  0
 31 29  1  0  0  0  0
 32 35  2  0  0  0  0
 33 31  1  0  0  0  0
 34 33  1  0  0  0  0
 35 36  1  0  0  0  0
 36 31  2  0  0  0  0
 37 35  1  0  0  0  0
 37 34  2  0  0  0  0
 38 39  1  0  0  0  0
 39 37  1  0  0  0  0
M  END
>  <MODEL>
7

>  <REMARK>
 VINA RESULT:      -6.3      1.465      2.480
  Name = 
  8 active torsions:
  status: ('A' for Active; 'I' for Inactive)
    1  A    between atoms: C_3  and  N_33
    2  A    between atoms: C_4  and  C_24
    3  A    between atoms: C_10  and  C_26
    4  A    between atoms: C_12  and  N_13
    5  A    between atoms: N_13  and  C_14
    6  A    between atoms: C_19  and  N_32
    7  A    between atoms: C_19  and  C_36
    8  A    between atoms: C_34  and  O_38
                            x       y       z     vdW  Elec       q    Type
                         _______ _______ _______ _____ _____    ______ ____

>  <TORSDO>
F 8

$$$$
=
 OpenBabel11072414593D

 39 44  0  0  1  0  0  0  0  0999 V2000
  160.1250  210.0330  152.4380 C   0  0  0  0  0  3  0  0  0  0  0  0
  160.9900  208.2620  153.8700 C   0  0  0  0  0  0  0  0  0  0  0  0
  162.8060  206.4890  151.4450 N   0  0  0  0  0  0  0  0  0  0  0  0
  161.5230  208.2960  151.5370 C   0  0  0  0  0  0  0  0  0  0  0  0
  159.6350  209.8530  154.9780 C   0  0  1  0  0  3  0  0  0  0  0  0
  160.7750  209.4640  151.3200 C   0  0  0  0  0  3  0  0  0  0  0  0
  161.6280  207.7080  152.7680 C   0  0  0  0  0  0  0  0  0  0  0  0
  160.9780  207.7720  155.2660 C   0  0  0  0  0  3  0  0  0  0  0  0
  160.2530  209.4140  153.7040 C   0  0  0  0  0  0  0  0  0  0  0  0
  160.1690  208.8460  156.0180 C   0  0  0  0  0  3  0  0  0  0  0  0
  162.2830  207.5010  150.7140 C   0  0  0  0  0  0  0  0  0  0  0  0
  162.4050  206.6140  152.7080 N   0  0  0  0  0  2  0  0  0  0  0  0
  160.0960  211.1880  155.3180 N   0  0  0  0  0  2  0  0  0  0  0  0
  160.5520  213.6050  156.1940 O   0  0  0  0  0  1  0  0  0  0  0  0
  160.0320  211.2990  156.7750 C   0  0  1  0  0  3  0  0  0  0  0  0
  160.3090  212.7260  157.2590 C   0  0  2  0  0  3  0  0  0  0  0  0
  158.8750  212.1820  157.2560 C   0  0  1  0  0  3  0  0  0  0  0  0
  154.8140  212.6180  157.2540 C   0  0  0  0  0  1  0  0  0  0  0  0
  157.9850  212.7360  156.1340 C   0  0  2  0  0  3  0  0  0  0  0  0
  157.7250  214.1450  156.3600 N   0  0  0  0  0  2  0  0  0  0  0  0
  156.7160  212.0160  156.1060 N   0  0  0  0  0  0  0  0  0  0  0  0
  155.6800  212.9720  156.1400 N   0  0  0  0  0  0  0  0  0  0  0  0
  156.2830  214.2550  156.4680 C   0  0  0  0  0  2  0  0  0  0  0  0
  156.6420  211.2450  154.8550 C   0  0  0  0  0  3  0  0  0  0  0  0
  157.0700  212.0390  153.6200 C   0  0  0  0  0  1  0  0  0  0  0  0
  155.2520  210.6720  154.6560 C   0  0  0  0  0  1  0  0  0  0  0  0
  162.5150  207.6900  149.2510 C   0  0  0  0  0  2  0  0  0  0  0  0
  160.3140  205.9060  149.6660 O   0  0  0  0  0  0  0  0  0  0  0  0
  161.1900  205.5660  148.8220 C   0  0  0  0  0  0  0  0  0  0  0  0
  162.2830  206.4430  148.5330 N   0  0  0  0  0  2  0  0  0  0  0  0
  161.0790  204.2770  148.1230 C   0  0  0  0  0  0  0  0  0  0  0  0
  160.3170  200.9320  148.9020 O   0  0  0  0  0  0  0  0  0  0  0  0
  161.2620  204.2370  146.6210 C   0  0  0  0  0  2  0  0  0  0  0  0
  161.2310  202.8500  146.0370 C   0  0  0  0  0  3  0  0  0  0  0  0
  160.6680  201.9150  148.1940 C   0  0  0  0  0  0  0  0  0  0  0  0
  160.7840  203.2060  148.8000 N   0  0  0  0  0  0  0  0  0  0  0  0
  160.9460  201.7600  146.7470 C   0  0  0  0  0  0  0  0  0  0  0  0
  161.6740  199.3870  146.4850 C   0  0  0  0  0  1  0  0  0  0  0  0
  160.9260  200.5250  146.0800 O   0  0  0  0  0  0  0  0  0  0  0  0
  1  9  1  0  0  0  0
  2  8  1  0  0  0  0
  3 12  1  0  0  0  0
  4  7  2  0  0  0  0
  5 13  1  1  0  0  0
  5 10  1  0  0  0  0
  6  4  1  0  0  0  0
  6  1  2  0  0  0  0
  7  2  1  0  0  0  0
  8 10  2  0  0  0  0
  9  2  2  0  0  0  0
  9  5  1  0  0  0  0
 11  3  2  0  0  0  0
 11  4  1  0  0  0  0
 12  7  1  0  0  0  0
 15 13  1  6  0  0  0
 15 17  1  0  0  0  0
 15 16  1  0  0  0  0
 16 14  1  6  0  0  0
 17 19  1  6  0  0  0
 17 16  1  0  0  0  0
 19 20  1  1  0  0  0
 20 23  1  0  0  0  0
 21 19  1  0  0  0  0
 21 22  1  0  0  0  0
 22 23  1  0  0  0  0
 22 18  1  0  0  0  0
 24 21  1  0  0  0  0
 25 24  1  0  0  0  0
 26 24  1  0  0  0  0
 27 11  1  0  0  0  0
 29 28  2  0  0  0  0
 30 29  1  0  0  0  0
 30 27  1  0  0  0  0
 31 36  2  0  0  0  0
 31 29  1  0  0  0  0
 33 31  1  0  0  0  0
 34 33  1  0  0  0  0
 34 37  2  0  0  0  0
 35 36  1  0  0  0  0
 35 32  2  0  0  0  0
 37 35  1  0  0  0  0
 39 38  1  0  0  0  0
 39 37  1  0  0  0  0
M  END
>  <MODEL>
8

>  <REMARK>
 VINA RESULT:      -6.0      4.377      9.293
  Name = 
  8 active torsions:
  status: ('A' for Active; 'I' for Inactive)
    1  A    between atoms: C_3  and  N_33
    2  A    between atoms: C_4  and  C_24
    3  A    between atoms: C_10  and  C_26
    4  A    between atoms: C_12  and  N_13
    5  A    between atoms: N_13  and  C_14
    6  A    between atoms: C_19  and  N_32
    7  A    between atoms: C_19  and  C_36
    8  A    between atoms: C_34  and  O_38
                            x       y       z     vdW  Elec       q    Type
                         _______ _______ _______ _____ _____    ______ ____

>  <TORSDO>
F 8

$$$$
=
 OpenBabel11072414593D

 39 44  0  0  1  0  0  0  0  0999 V2000
  159.2120  209.6410  153.8440 C   0  0  0  0  0  3  0  0  0  0  0  0
  161.1750  210.5910  154.9310 C   0  0  0  0  0  0  0  0  0  0  0  0
  163.3930  210.4210  152.2160 N   0  0  0  0  0  0  0  0  0  0  0  0
  161.2820  209.8880  152.6460 C   0  0  0  0  0  0  0  0  0  0  0  0
  159.2570  210.4430  156.3100 C   0  0  1  0  0  3  0  0  0  0  0  0
  159.9410  209.4750  152.6460 C   0  0  0  0  0  3  0  0  0  0  0  0
  161.8860  210.4260  153.7500 C   0  0  0  0  0  0  0  0  0  0  0  0
  161.6500  211.1400  156.2210 C   0  0  0  0  0  3  0  0  0  0  0  0
  159.8520  210.2070  154.9720 C   0  0  0  0  0  0  0  0  0  0  0  0
  160.3880  211.1290  157.1040 C   0  0  0  0  0  3  0  0  0  0  0  0
  162.2630  209.8980  151.6830 C   0  0  0  0  0  0  0  0  0  0  0  0
  163.1630  210.7470  153.4860 N   0  0  0  0  0  2  0  0  0  0  0  0
  158.1270  211.3490  156.1970 N   0  0  0  0  0  2  0  0  0  0  0  0
  155.8250  212.0490  157.2080 O   0  0  0  0  0  1  0  0  0  0  0  0
  157.0060  210.5630  155.6850 C   0  0  1  0  0  3  0  0  0  0  0  0
  155.6700  210.9930  156.3000 C   0  0  2  0  0  3  0  0  0  0  0  0
  156.0180  211.3980  154.8630 C   0  0  1  0  0  3  0  0  0  0  0  0
  155.7870  213.6910  151.4910 C   0  0  0  0  0  1  0  0  0  0  0  0
  156.4140  212.8720  154.6940 C   0  0  2  0  0  3  0  0  0  0  0  0
  155.2480  213.7180  154.8540 N   0  0  0  0  0  2  0  0  0  0  0  0
  156.9780  213.0850  153.3650 N   0  0  0  0  0  0  0  0  0  0  0  0
  156.2860  214.1610  152.7730 N   0  0  0  0  0  0  0  0  0  0  0  0
  155.1220  214.4380  153.6020 C   0  0  0  0  0  2  0  0  0  0  0  0
  158.4020  213.4260  153.5090 C   0  0  0  0  0  3  0  0  0  0  0  0
  158.6800  214.4400  154.6190 C   0  0  0  0  0  1  0  0  0  0  0  0
  158.9750  213.9180  152.1930 C   0  0  0  0  0  1  0  0  0  0  0  0
  162.1400  209.4180  150.2760 C   0  0  0  0  0  2  0  0  0  0  0  0
  161.2700  207.8690  148.0300 O   0  0  0  0  0  0  0  0  0  0  0  0
  161.5210  207.2510  149.1040 C   0  0  0  0  0  0  0  0  0  0  0  0
  162.0120  207.9670  150.2410 N   0  0  0  0  0  2  0  0  0  0  0  0
  161.3260  205.7950  149.1790 C   0  0  0  0  0  0  0  0  0  0  0  0
  160.7530  203.3530  151.6460 O   0  0  0  0  0  0  0  0  0  0  0  0
  161.2760  204.9930  147.8970 C   0  0  0  0  0  2  0  0  0  0  0  0
  161.1810  203.5050  148.1080 C   0  0  0  0  0  3  0  0  0  0  0  0
  160.9740  203.8220  150.4960 C   0  0  0  0  0  0  0  0  0  0  0  0
  161.1580  205.2320  150.3400 N   0  0  0  0  0  0  0  0  0  0  0  0
  161.0290  202.9420  149.3050 C   0  0  0  0  0  0  0  0  0  0  0  0
  161.2780  200.6710  148.3020 C   0  0  0  0  0  1  0  0  0  0  0  0
  160.9280  201.5430  149.3670 O   0  0  0  0  0  0  0  0  0  0  0  0
  1  9  1  0  0  0  0
  2  9  2  0  0  0  0
  2  8  1  0  0  0  0
  3 12  1  0  0  0  0
  4  7  2  0  0  0  0
  5 13  1  6  0  0  0
  5 10  1  0  0  0  0
  6  4  1  0  0  0  0
  6  1  2  0  0  0  0
  7  2  1  0  0  0  0
  8 10  2  0  0  0  0
  9  5  1  0  0  0  0
 11  3  2  0  0  0  0
 11  4  1  0  0  0  0
 12  7  1  0  0  0  0
 15 13  1  1  0  0  0
 15 16  1  0  0  0  0
 16 14  1  1  0  0  0
 17 19  1  1  0  0  0
 17 15  1  0  0  0  0
 17 16  1  0  0  0  0
 18 22  1  0  0  0  0
 19 20  1  6  0  0  0
 21 24  1  0  0  0  0
 21 19  1  0  0  0  0
 22 21  1  0  0  0  0
 22 23  1  0  0  0  0
 23 20  1  0  0  0  0
 24 25  1  0  0  0  0
 26 24  1  0  0  0  0
 27 11  1  0  0  0  0
 28 29  2  0  0  0  0
 29 31  1  0  0  0  0
 29 30  1  0  0  0  0
 30 27  1  0  0  0  0
 31 36  2  0  0  0  0
 33 34  1  0  0  0  0
 33 31  1  0  0  0  0
 34 37  2  0  0  0  0
 35 32  2  0  0  0  0
 36 35  1  0  0  0  0
 37 39  1  0  0  0  0
 37 35  1  0  0  0  0
 38 39  1  0  0  0  0
M  END
>  <MODEL>
9

>  <REMARK>
 VINA RESULT:      -5.4      3.778      9.039
  Name = 
  8 active torsions:
  status: ('A' for Active; 'I' for Inactive)
    1  A    between atoms: C_3  and  N_33
    2  A    between atoms: C_4  and  C_24
    3  A    between atoms: C_10  and  C_26
    4  A    between atoms: C_12  and  N_13
    5  A    between atoms: N_13  and  C_14
    6  A    between atoms: C_19  and  N_32
    7  A    between atoms: C_19  and  C_36
    8  A    between atoms: C_34  and  O_38
                            x       y       z     vdW  Elec       q    Type
                         _______ _______ _______ _____ _____    ______ ____

>  <TORSDO>
F 8

$$$$
