=
 OpenBabel11072414503D

 47 51  0  0  1  0  0  0  0  0999 V2000
  162.3810  210.2880  149.3070 C   0  0  0  0  0  2  0  0  0  0  0  0
  161.0910  209.5960  153.3890 C   0  0  0  0  0  2  0  0  0  0  0  0
  161.4890  212.5870  148.6280 C   0  0  2  0  0  0  0  0  0  0  0  0
  162.7480  212.7290  148.0380 O   0  0  0  0  0  1  0  0  0  0  0  0
  160.3870  212.7210  152.3450 C   0  0  0  0  0  2  0  0  0  0  0  0
  159.3490  211.5240  154.9630 C   0  0  2  0  0  3  0  0  0  0  0  0
  160.2080  212.9810  150.8540 C   0  0  2  0  0  3  0  0  0  0  0  0
  158.8560  212.4130  150.4000 C   0  0  0  0  0  2  0  0  0  0  0  0
  161.2260  208.9890  151.0040 C   0  0  0  0  0  2  0  0  0  0  0  0
  159.2900  213.2910  153.1280 N   0  0  1  0  0  0  0  0  0  0  0  0
  161.2270  211.6720  156.4790 O   0  0  0  0  0  1  0  0  0  0  0  0
  160.6400  210.8790  155.4920 C   0  0  2  0  0  3  0  0  0  0  0  0
  162.0540  208.9390  149.7990 N   0  0  0  0  0  0  0  0  0  0  0  0
  162.0250  209.4680  152.2040 C   0  0  0  0  0  2  0  0  0  0  0  0
  161.6480  210.6000  154.3830 C   0  0  0  0  0  2  0  0  0  0  0  0
  161.4530  212.4220  150.1390 C   0  0  1  0  0  3  0  0  0  0  0  0
  157.7340  212.9880  151.2530 C   0  0  0  0  0  2  0  0  0  0  0  0
  158.0150  212.6870  152.7190 C   0  0  0  0  0  2  0  0  0  0  0  0
  161.1680  211.2220  149.2230 C   0  0  2  0  0  3  0  0  0  0  0  0
  159.5720  213.0070  154.5430 C   0  0  1  0  0  3  0  0  0  0  0  0
  158.1740  211.2910  155.9310 C   0  0  1  0  0  3  0  0  0  0  0  0
  158.6320  211.2060  157.2470 O   0  0  0  0  0  1  0  0  0  0  0  0
  156.0220  212.1320  156.6020 O   0  0  0  0  0  0  0  0  0  0  0  0
  155.8840  212.0370  155.2080 C   0  0  1  0  0  0  0  0  0  0  0  0
  155.0750  213.0660  154.7280 O   0  0  0  0  0  1  0  0  0  0  0  0
  157.1710  212.4370  155.8380 C   0  0  2  0  0  3  0  0  0  0  0  0
  154.7730  209.8720  155.5640 C   0  0  0  0  0  2  0  0  0  0  0  0
  155.5500  210.6330  154.8000 C   0  0  0  0  0  3  0  0  0  0  0  0
  158.9080  213.9180  155.3710 O   0  0  0  0  0  0  0  0  0  0  0  0
  159.8580  214.4520  156.1080 O   0  0  0  0  0  1  0  0  0  0  0  0
  159.9020  212.3930  147.0220 O   0  0  0  0  0  1  0  0  0  0  0  0
  160.3700  213.2450  147.9660 N   0  0  0  0  0  2  0  0  0  0  0  0
  161.2820  208.2440  148.7780 C   0  0  0  0  0  2  0  0  0  0  0  0
  162.1410  207.2050  148.0590 C   0  0  0  0  0  2  0  0  0  0  0  0
  160.5530  203.3580  149.3560 C   0  0  2  0  0  3  0  0  0  0  0  0
  161.6080  203.3340  148.2550 C   0  0  0  0  0  2  0  0  0  0  0  0
  161.7530  204.7130  147.6090 C   0  0  1  0  0  3  0  0  0  0  0  0
  161.0140  205.7690  149.7990 C   0  0  0  0  0  2  0  0  0  0  0  0
  160.9380  204.3780  150.4180 C   0  0  0  0  0  2  0  0  0  0  0  0
  162.0410  205.8000  148.6660 C   0  0  2  0  0  3  0  0  0  0  0  0
  160.4370  201.7460  150.0940 Cl  0  0  0  0  0  0  0  0  0  0  0  0
  162.8220  204.6680  146.5120 C   0  0  0  0  0  2  0  0  0  0  0  0
  162.4310  203.7840  145.4220 N   0  0  0  0  0  2  0  0  0  0  0  0
  161.1580  204.1500  145.0460 O   0  0  0  0  0  0  0  0  0  0  0  0
  160.1010  206.3570  145.1290 N   0  0  0  0  0  1  0  0  0  0  0  0
  160.9100  205.3900  144.4650 C   0  0  0  0  0  0  0  0  0  0  0  0
  161.4190  205.6670  143.3110 N   0  0  0  0  0  2  0  0  0  0  0  0
  1 13  1  0  0  0  0
  2 15  1  0  0  0  0
  3  4  1  6  0  0  0
  3 19  1  0  0  0  0
  3 16  1  0  0  0  0
  6 12  1  0  0  0  0
  6 21  1  1  0  0  0
  7  8  1  6  0  0  0
  7  5  1  0  0  0  0
  8 17  1  0  0  0  0
  9 14  1  0  0  0  0
 10  5  1  6  0  0  0
 10 20  1  0  0  0  0
 12 11  1  1  0  0  0
 13  9  1  0  0  0  0
 14  2  1  0  0  0  0
 15 12  1  0  0  0  0
 16  7  1  0  0  0  0
 17 18  1  0  0  0  0
 18 10  1  0  0  0  0
 19  1  1  0  0  0  0
 19 16  1  0  0  0  0
 20  6  1  0  0  0  0
 20 29  1  0  0  0  0
 21 22  1  0  0  0  0
 24 26  1  0  0  0  0
 24 23  1  0  0  0  0
 25 24  1  0  0  0  0
 26 21  1  0  0  0  0
 26 23  1  0  0  0  0
 28 24  1  0  0  0  0
 28 27  2  0  0  0  0
 29 30  1  0  0  0  0
 31 32  1  0  0  0  0
 32  3  1  0  0  0  0
 33 13  1  0  0  0  0
 34 40  1  0  0  0  0
 34 33  1  0  0  0  0
 35 41  1  0  0  0  0
 35 39  1  0  0  0  0
 36 35  1  0  0  0  0
 37 36  1  0  0  0  0
 37 40  1  0  0  0  0
 38 39  1  0  0  0  0
 40 38  1  0  0  0  0
 42 37  1  0  0  0  0
 43 42  1  0  0  0  0
 44 43  1  0  0  0  0
 46 44  1  0  0  0  0
 46 45  1  0  0  0  0
 47 46  2  0  0  0  0
M  END
>  <MODEL>
1

>  <REMARK>
 VINA RESULT:      -5.8      0.000      0.000
  Name = 
  12 active torsions:
  status: ('A' for Active; 'I' for Inactive)
    1  A    between atoms: C_2  and  C_11
    2  A    between atoms: C_2  and  C_29
    3  A    between atoms: C_4  and  N_28
    4  A    between atoms: O_14  and  C_47
    5  A    between atoms: C_15  and  C_38
    6  A    between atoms: C_18  and  C_41
    7  A    between atoms: C_19  and  C_31
    8  A    between atoms: C_19  and  C_44
    9  A    between atoms: C_22  and  O_32
   10  A    between atoms: N_23  and  O_32
   11  A    between atoms: N_23  and  C_41
   12  A    between atoms: N_36  and  C_44
                            x       y       z     vdW  Elec       q    Type
                         _______ _______ _______ _____ _____    ______ ____

>  <TORSDO>
F 12

$$$$
=
 OpenBabel11072414503D

 47 51  0  0  1  0  0  0  0  0999 V2000
  162.5890  210.2340  148.8170 C   0  0  0  0  0  2  0  0  0  0  0  0
  161.0400  209.6660  152.8280 C   0  0  0  0  0  2  0  0  0  0  0  0
  161.7920  212.5350  148.0350 C   0  0  2  0  0  0  0  0  0  0  0  0
  163.0880  212.6370  147.5200 O   0  0  0  0  0  1  0  0  0  0  0  0
  160.4740  212.7800  151.6760 C   0  0  0  0  0  2  0  0  0  0  0  0
  159.2530  211.6680  154.2520 C   0  0  2  0  0  3  0  0  0  0  0  0
  160.3900  213.0100  150.1710 C   0  0  2  0  0  3  0  0  0  0  0  0
  159.0550  212.4610  149.6490 C   0  0  0  0  0  2  0  0  0  0  0  0
  161.3040  209.0010  150.4690 C   0  0  0  0  0  2  0  0  0  0  0  0
  159.3450  213.3920  152.3790 N   0  0  1  0  0  0  0  0  0  0  0  0
  161.0390  211.8100  155.8750 O   0  0  0  0  0  1  0  0  0  0  0  0
  160.4950  211.0070  154.8710 C   0  0  2  0  0  3  0  0  0  0  0  0
  162.2020  208.9050  149.3180 N   0  0  0  0  0  0  0  0  0  0  0  0
  162.0410  209.4900  151.7050 C   0  0  0  0  0  2  0  0  0  0  0  0
  161.5600  210.6800  153.8320 C   0  0  0  0  0  2  0  0  0  0  0  0
  161.6630  212.4060  149.5450 C   0  0  1  0  0  3  0  0  0  0  0  0
  157.8980  213.0810  150.4200 C   0  0  0  0  0  2  0  0  0  0  0  0
  158.0830  212.8070  151.9060 C   0  0  0  0  0  2  0  0  0  0  0  0
  161.4040  211.1930  148.6400 C   0  0  2  0  0  3  0  0  0  0  0  0
  159.5350  213.1360  153.8140 C   0  0  1  0  0  3  0  0  0  0  0  0
  158.0170  211.4830  155.1520 C   0  0  1  0  0  3  0  0  0  0  0  0
  158.3780  211.5480  156.4990 O   0  0  0  0  0  1  0  0  0  0  0  0
  155.9590  212.5200  155.8410 O   0  0  0  0  0  0  0  0  0  0  0  0
  155.6340  212.0300  154.5660 C   0  0  1  0  0  0  0  0  0  0  0  0
  154.7440  212.8920  153.9250 O   0  0  0  0  0  1  0  0  0  0  0  0
  156.9850  212.5710  154.8710 C   0  0  2  0  0  3  0  0  0  0  0  0
  154.8230  210.0370  155.7560 C   0  0  0  0  0  2  0  0  0  0  0  0
  155.2790  210.5750  154.6290 C   0  0  0  0  0  3  0  0  0  0  0  0
  158.8440  214.0800  154.5800 O   0  0  0  0  0  0  0  0  0  0  0  0
  159.7040  214.4530  155.5030 O   0  0  0  0  0  1  0  0  0  0  0  0
  160.4690  212.4500  146.1970 O   0  0  0  0  0  1  0  0  0  0  0  0
  160.7300  213.2020  147.2940 N   0  0  0  0  0  2  0  0  0  0  0  0
  161.4760  208.2030  148.2680 C   0  0  0  0  0  2  0  0  0  0  0  0
  162.3380  207.1020  147.6530 C   0  0  0  0  0  2  0  0  0  0  0  0
  161.3100  203.1560  146.1100 C   0  0  2  0  0  3  0  0  0  0  0  0
  160.8460  203.4870  147.5250 C   0  0  0  0  0  2  0  0  0  0  0  0
  161.6200  204.6810  148.0870 C   0  0  1  0  0  3  0  0  0  0  0  0
  161.9310  205.5390  145.7150 C   0  0  0  0  0  2  0  0  0  0  0  0
  161.1060  204.3630  145.2050 C   0  0  0  0  0  2  0  0  0  0  0  0
  161.5290  205.9010  147.1460 C   0  0  2  0  0  3  0  0  0  0  0  0
  160.3670  201.7830  145.4900 Cl  0  0  0  0  0  0  0  0  0  0  0  0
  161.1350  205.0000  149.5050 C   0  0  0  0  0  2  0  0  0  0  0  0
  161.5700  203.9880  150.4580 N   0  0  0  0  0  2  0  0  0  0  0  0
  161.1300  204.3900  151.7000 O   0  0  0  0  0  0  0  0  0  0  0  0
  160.7350  206.3350  153.1360 N   0  0  0  0  0  1  0  0  0  0  0  0
  161.5770  205.5810  152.2670 C   0  0  0  0  0  0  0  0  0  0  0  0
  162.7670  206.0050  152.0040 N   0  0  0  0  0  2  0  0  0  0  0  0
  1 13  1  0  0  0  0
  2 15  1  0  0  0  0
  3  4  1  6  0  0  0
  3 19  1  0  0  0  0
  3 16  1  0  0  0  0
  6 12  1  0  0  0  0
  6 21  1  1  0  0  0
  7  8  1  6  0  0  0
  7  5  1  0  0  0  0
  8 17  1  0  0  0  0
  9 14  1  0  0  0  0
 10  5  1  6  0  0  0
 10 20  1  0  0  0  0
 12 11  1  1  0  0  0
 13  9  1  0  0  0  0
 14  2  1  0  0  0  0
 15 12  1  0  0  0  0
 16  7  1  0  0  0  0
 17 18  1  0  0  0  0
 18 10  1  0  0  0  0
 19  1  1  0  0  0  0
 19 16  1  0  0  0  0
 20  6  1  0  0  0  0
 20 29  1  0  0  0  0
 21 22  1  0  0  0  0
 24 28  1  0  0  0  0
 24 26  1  0  0  0  0
 24 23  1  0  0  0  0
 25 24  1  0  0  0  0
 26 21  1  0  0  0  0
 26 23  1  0  0  0  0
 28 27  2  0  0  0  0
 29 30  1  0  0  0  0
 31 32  1  0  0  0  0
 32  3  1  0  0  0  0
 33 13  1  0  0  0  0
 34 33  1  0  0  0  0
 35 36  1  0  0  0  0
 36 37  1  0  0  0  0
 37 42  1  0  0  0  0
 38 40  1  0  0  0  0
 39 38  1  0  0  0  0
 39 35  1  0  0  0  0
 40 34  1  0  0  0  0
 40 37  1  0  0  0  0
 41 35  1  0  0  0  0
 42 43  1  0  0  0  0
 43 44  1  0  0  0  0
 44 46  1  0  0  0  0
 46 45  1  0  0  0  0
 47 46  2  0  0  0  0
M  END
>  <MODEL>
2

>  <REMARK>
 VINA RESULT:      -5.8      2.041      2.856
  Name = 
  12 active torsions:
  status: ('A' for Active; 'I' for Inactive)
    1  A    between atoms: C_2  and  C_11
    2  A    between atoms: C_2  and  C_29
    3  A    between atoms: C_4  and  N_28
    4  A    between atoms: O_14  and  C_47
    5  A    between atoms: C_15  and  C_38
    6  A    between atoms: C_18  and  C_41
    7  A    between atoms: C_19  and  C_31
    8  A    between atoms: C_19  and  C_44
    9  A    between atoms: C_22  and  O_32
   10  A    between atoms: N_23  and  O_32
   11  A    between atoms: N_23  and  C_41
   12  A    between atoms: N_36  and  C_44
                            x       y       z     vdW  Elec       q    Type
                         _______ _______ _______ _____ _____    ______ ____

>  <TORSDO>
F 12

$$$$
