=
 OpenBabel11072410173D

 37 42  0  0  1  0  0  0  0  0999 V2000
  161.5100  209.3400  150.9780 C   0  0  0  0  0  0  0  0  0  0  0  0
  162.2070  208.3250  150.1260 C   0  0  2  0  0  3  0  0  0  0  0  0
  159.8640  210.3690  154.2730 C   0  0  2  0  0  3  0  0  0  0  0  0
  159.6420  212.6760  155.4840 C   0  0  0  0  0  1  0  0  0  0  0  0
  160.4370  210.2710  152.9000 C   0  0  0  0  0  0  0  0  0  0  0  0
  161.3930  210.5590  150.3390 C   0  0  0  0  0  0  0  0  0  0  0  0
  161.0370  209.1610  152.2870 C   0  0  0  0  0  3  0  0  0  0  0  0
  161.9820  210.4530  149.0310 C   0  0  0  0  0  0  0  0  0  0  0  0
  162.0380  211.3850  148.1870 O   0  0  0  0  0  0  0  0  0  0  0  0
  160.3180  211.4800  152.2500 C   0  0  0  0  0  0  0  0  0  0  0  0
  159.6730  212.4560  153.0420 N   0  0  0  0  0  2  0  0  0  0  0  0
  162.5230  209.0780  148.8120 C   0  0  0  0  0  2  0  0  0  0  0  0
  159.2670  211.8120  154.2900 C   0  0  1  0  0  3  0  0  0  0  0  0
  160.7950  211.6700  150.9470 C   0  0  0  0  0  3  0  0  0  0  0  0
  162.0750  210.8510  155.3450 C   0  0  0  0  0  3  0  0  0  0  0  0
  160.9040  210.0860  155.3290 C   0  0  0  0  0  0  0  0  0  0  0  0
  161.7110  208.8330  157.2480 C   0  0  0  0  0  3  0  0  0  0  0  0
  160.7260  209.0710  156.2850 C   0  0  0  0  0  3  0  0  0  0  0  0
  162.8760  209.6030  157.2610 C   0  0  0  0  0  3  0  0  0  0  0  0
  163.0590  210.6120  156.3090 C   0  0  0  0  0  3  0  0  0  0  0  0
  161.2820  207.1500  149.8470 C   0  0  0  0  0  2  0  0  0  0  0  0
  161.8640  205.8760  150.4330 C   0  0  0  0  0  2  0  0  0  0  0  0
  161.5850  205.0630  148.0650 C   0  0  1  0  0  3  0  0  0  0  0  0
  161.2700  201.8170  148.3620 C   0  0  2  0  0  3  0  0  0  0  0  0
  160.2880  201.6120  149.5300 C   0  0  1  0  0  3  0  0  0  0  0  0
  161.3950  204.5850  145.7430 C   0  0  0  0  0  2  0  0  0  0  0  0
  160.4590  205.9410  147.5600 C   0  0  0  0  0  2  0  0  0  0  0  0
  160.3660  202.7300  150.5710 C   0  0  0  0  0  2  0  0  0  0  0  0
  160.7650  202.7760  147.2830 C   0  0  0  0  0  2  0  0  0  0  0  0
  161.5220  204.6840  149.5540 C   0  0  2  0  0  3  0  0  0  0  0  0
  158.8490  201.3830  149.0860 C   0  0  0  0  0  1  0  0  0  0  0  0
  160.1710  204.1180  149.9700 C   0  0  0  0  0  2  0  0  0  0  0  0
  161.7450  203.9250  147.0610 C   0  0  2  0  0  3  0  0  0  0  0  0
  160.4260  205.7210  146.0560 C   0  0  0  0  0  2  0  0  0  0  0  0
  161.7770  200.5570  147.8110 N   0  0  0  0  0  2  0  0  0  0  0  0
  161.1910  200.2820  146.5020 C   0  0  0  0  0  2  0  0  0  0  0  0
  161.5370  198.8690  146.0750 C   0  0  0  0  0  1  0  0  0  0  0  0
  1  7  1  0  0  0  0
  2 21  1  6  0  0  0
  2  1  1  0  0  0  0
  3 13  1  0  0  0  0
  3 16  1  1  0  0  0
  5  3  1  0  0  0  0
  6 14  1  0  0  0  0
  6  1  2  0  0  0  0
  7  5  2  0  0  0  0
  8  6  1  0  0  0  0
  9  8  2  0  0  0  0
 10  5  1  0  0  0  0
 10 11  1  0  0  0  0
 11 13  1  0  0  0  0
 12  8  1  0  0  0  0
 12  2  1  0  0  0  0
 13  4  1  1  0  0  0
 14 10  2  0  0  0  0
 15 20  1  0  0  0  0
 16 15  2  0  0  0  0
 16 18  1  0  0  0  0
 17 19  1  0  0  0  0
 18 17  2  0  0  0  0
 20 19  2  0  0  0  0
 21 22  1  0  0  0  0
 23 27  1  6  0  0  0
 23 30  1  0  0  0  0
 24 35  1  6  0  0  0
 24 25  1  0  0  0  0
 25 31  1  6  0  0  0
 25 28  1  0  0  0  0
 26 34  1  0  0  0  0
 29 24  1  0  0  0  0
 30 32  1  0  0  0  0
 30 22  1  1  0  0  0
 32 28  1  0  0  0  0
 33 26  1  6  0  0  0
 33 29  1  0  0  0  0
 33 23  1  0  0  0  0
 34 27  1  0  0  0  0
 36 35  1  0  0  0  0
 37 36  1  0  0  0  0
M  END
>  <MODEL>
1

>  <REMARK>
 VINA RESULT:      -7.9      0.000      0.000
  Name = 
  6 active torsions:
  status: ('A' for Active; 'I' for Inactive)
    1  A    between atoms: C_2  and  N_7
    2  A    between atoms: C_4  and  C_28
    3  A    between atoms: C_4  and  C_37
    4  A    between atoms: C_5  and  C_37
    5  A    between atoms: N_7  and  C_9
    6  A    between atoms: C_8  and  C_11
                            x       y       z     vdW  Elec       q    Type
                         _______ _______ _______ _____ _____    ______ ____

>  <TORSDO>
F 6

$$$$
=
 OpenBabel11072410173D

 37 42  0  0  1  0  0  0  0  0999 V2000
  161.2900  210.8750  150.6230 C   0  0  0  0  0  0  0  0  0  0  0  0
  162.2140  210.3720  149.5570 C   0  0  2  0  0  3  0  0  0  0  0  0
  159.3910  210.3730  153.9040 C   0  0  2  0  0  3  0  0  0  0  0  0
  158.6290  212.0400  155.7700 C   0  0  0  0  0  1  0  0  0  0  0  0
  159.9970  210.8630  152.6330 C   0  0  0  0  0  0  0  0  0  0  0  0
  160.9130  212.1860  150.4040 C   0  0  0  0  0  0  0  0  0  0  0  0
  160.8440  210.1730  151.7530 C   0  0  0  0  0  3  0  0  0  0  0  0
  161.5360  212.6490  149.1930 C   0  0  0  0  0  0  0  0  0  0  0  0
  161.3960  213.8010  148.7050 O   0  0  0  0  0  0  0  0  0  0  0  0
  159.6200  212.1670  152.4000 C   0  0  0  0  0  0  0  0  0  0  0  0
  158.7570  212.6650  153.4010 N   0  0  0  0  0  2  0  0  0  0  0  0
  162.3770  211.5710  148.5930 C   0  0  0  0  0  2  0  0  0  0  0  0
  158.4820  211.5700  154.3300 C   0  0  1  0  0  3  0  0  0  0  0  0
  160.0670  212.8780  151.2800 C   0  0  0  0  0  3  0  0  0  0  0  0
  160.2740  208.7900  155.6310 C   0  0  0  0  0  3  0  0  0  0  0  0
  160.4470  209.9730  154.9040 C   0  0  0  0  0  0  0  0  0  0  0  0
  162.5460  210.3640  156.0640 C   0  0  0  0  0  3  0  0  0  0  0  0
  161.5890  210.7620  155.1270 C   0  0  0  0  0  3  0  0  0  0  0  0
  162.3690  209.1800  156.7840 C   0  0  0  0  0  3  0  0  0  0  0  0
  161.2330  208.3930  156.5680 C   0  0  0  0  0  3  0  0  0  0  0  0
  161.5840  209.1960  148.8280 C   0  0  0  0  0  2  0  0  0  0  0  0
  161.3510  208.0460  149.7930 C   0  0  0  0  0  2  0  0  0  0  0  0
  161.0340  205.5550  149.9920 C   0  0  1  0  0  3  0  0  0  0  0  0
  161.2410  204.4720  146.9080 C   0  0  2  0  0  3  0  0  0  0  0  0
  162.4530  205.2020  146.3040 C   0  0  1  0  0  3  0  0  0  0  0  0
  160.6600  203.2570  150.4750 C   0  0  0  0  0  2  0  0  0  0  0  0
  162.0580  205.1890  151.0470 C   0  0  0  0  0  2  0  0  0  0  0  0
  162.6750  206.5860  146.9170 C   0  0  0  0  0  2  0  0  0  0  0  0
  161.5330  203.7710  148.2370 C   0  0  0  0  0  2  0  0  0  0  0  0
  161.4190  206.7170  149.0610 C   0  0  2  0  0  3  0  0  0  0  0  0
  163.7370  204.3840  146.3320 C   0  0  0  0  0  1  0  0  0  0  0  0
  162.7980  206.5520  148.4370 C   0  0  0  0  0  2  0  0  0  0  0  0
  160.5890  204.2520  149.3350 C   0  0  2  0  0  3  0  0  0  0  0  0
  161.7320  203.7560  151.4380 C   0  0  0  0  0  2  0  0  0  0  0  0
  160.5550  203.6030  145.9460 N   0  0  0  0  0  2  0  0  0  0  0  0
  160.8720  202.1990  146.1870 C   0  0  0  0  0  2  0  0  0  0  0  0
  160.1150  201.3280  145.2030 C   0  0  0  0  0  1  0  0  0  0  0  0
  1  7  1  0  0  0  0
  2 21  1  6  0  0  0
  2  1  1  0  0  0  0
  3 13  1  0  0  0  0
  3 16  1  1  0  0  0
  5  3  1  0  0  0  0
  6  1  2  0  0  0  0
  6 14  1  0  0  0  0
  7  5  2  0  0  0  0
  8  6  1  0  0  0  0
  9  8  2  0  0  0  0
 10  5  1  0  0  0  0
 10 11  1  0  0  0  0
 11 13  1  0  0  0  0
 12  8  1  0  0  0  0
 12  2  1  0  0  0  0
 13  4  1  1  0  0  0
 14 10  2  0  0  0  0
 15 20  1  0  0  0  0
 16 18  1  0  0  0  0
 16 15  2  0  0  0  0
 17 19  1  0  0  0  0
 18 17  2  0  0  0  0
 20 19  2  0  0  0  0
 21 22  1  0  0  0  0
 23 27  1  6  0  0  0
 24 35  1  6  0  0  0
 24 29  1  0  0  0  0
 25 31  1  1  0  0  0
 25 24  1  0  0  0  0
 25 28  1  0  0  0  0
 26 34  1  0  0  0  0
 27 34  1  0  0  0  0
 28 32  1  0  0  0  0
 30 22  1  1  0  0  0
 30 23  1  0  0  0  0
 32 30  1  0  0  0  0
 33 29  1  6  0  0  0
 33 23  1  0  0  0  0
 33 26  1  0  0  0  0
 35 36  1  0  0  0  0
 37 36  1  0  0  0  0
M  END
>  <MODEL>
2

>  <REMARK>
 VINA RESULT:      -7.8      1.461      2.936
  Name = 
  6 active torsions:
  status: ('A' for Active; 'I' for Inactive)
    1  A    between atoms: C_2  and  N_7
    2  A    between atoms: C_4  and  C_28
    3  A    between atoms: C_4  and  C_37
    4  A    between atoms: C_5  and  C_37
    5  A    between atoms: N_7  and  C_9
    6  A    between atoms: C_8  and  C_11
                            x       y       z     vdW  Elec       q    Type
                         _______ _______ _______ _____ _____    ______ ____

>  <TORSDO>
F 6

$$$$
=
 OpenBabel11072410173D

 37 42  0  0  1  0  0  0  0  0999 V2000
  161.3830  210.5200  150.7500 C   0  0  0  0  0  0  0  0  0  0  0  0
  162.2670  209.9010  149.7120 C   0  0  2  0  0  3  0  0  0  0  0  0
  159.5940  210.3810  154.1260 C   0  0  2  0  0  3  0  0  0  0  0  0
  158.9070  212.2400  155.8330 C   0  0  0  0  0  1  0  0  0  0  0  0
  160.1590  210.7300  152.7920 C   0  0  0  0  0  0  0  0  0  0  0  0
  161.0080  211.8050  150.4090 C   0  0  0  0  0  0  0  0  0  0  0  0
  160.9710  209.9440  151.9610 C   0  0  0  0  0  3  0  0  0  0  0  0
  161.5930  212.1340  149.1360 C   0  0  0  0  0  0  0  0  0  0  0  0
  161.4440  213.2310  148.5360 O   0  0  0  0  0  0  0  0  0  0  0  0
  159.7840  212.0070  152.4380 C   0  0  0  0  0  0  0  0  0  0  0  0
  158.9590  212.6150  153.4090 N   0  0  0  0  0  2  0  0  0  0  0  0
  162.4050  210.9920  148.6240 C   0  0  0  0  0  2  0  0  0  0  0  0
  158.7080  211.6250  154.4560 C   0  0  1  0  0  3  0  0  0  0  0  0
  160.1980  212.5940  151.2350 C   0  0  0  0  0  3  0  0  0  0  0  0
  160.5230  208.9770  155.9790 C   0  0  0  0  0  3  0  0  0  0  0  0
  160.6800  210.0760  155.1270 C   0  0  0  0  0  0  0  0  0  0  0  0
  162.8200  210.5620  156.1700 C   0  0  0  0  0  3  0  0  0  0  0  0
  161.8350  210.8710  155.2280 C   0  0  0  0  0  3  0  0  0  0  0  0
  162.6590  209.4610  157.0140 C   0  0  0  0  0  3  0  0  0  0  0  0
  161.5100  208.6690  156.9200 C   0  0  0  0  0  3  0  0  0  0  0  0
  161.6050  208.6610  149.1310 C   0  0  0  0  0  2  0  0  0  0  0  0
  162.6510  207.7510  148.5110 C   0  0  0  0  0  2  0  0  0  0  0  0
  161.8660  205.8960  146.9970 C   0  0  1  0  0  3  0  0  0  0  0  0
  161.6700  203.2850  148.9620 C   0  0  2  0  0  3  0  0  0  0  0  0
  160.9730  203.7910  150.2390 C   0  0  1  0  0  3  0  0  0  0  0  0
  161.1730  204.3440  145.3340 C   0  0  0  0  0  2  0  0  0  0  0  0
  160.6430  206.5140  146.3490 C   0  0  0  0  0  2  0  0  0  0  0  0
  161.2650  205.2650  150.5250 C   0  0  0  0  0  2  0  0  0  0  0  0
  160.9240  203.6220  147.6690 C   0  0  0  0  0  2  0  0  0  0  0  0
  162.1390  206.3210  148.4500 C   0  0  2  0  0  3  0  0  0  0  0  0
  159.4750  203.5180  150.2680 C   0  0  0  0  0  1  0  0  0  0  0  0
  160.9220  206.1790  149.3530 C   0  0  0  0  0  2  0  0  0  0  0  0
  161.8150  204.4000  146.7050 C   0  0  2  0  0  3  0  0  0  0  0  0
  160.2810  205.5760  145.2080 C   0  0  0  0  0  2  0  0  0  0  0  0
  162.0590  201.8730  149.0430 N   0  0  0  0  0  2  0  0  0  0  0  0
  161.0170  201.0080  148.4980 C   0  0  0  0  0  2  0  0  0  0  0  0
  161.5980  200.1370  147.4020 C   0  0  0  0  0  1  0  0  0  0  0  0
  1  7  1  0  0  0  0
  2 21  1  6  0  0  0
  2  1  1  0  0  0  0
  3 13  1  0  0  0  0
  3 16  1  1  0  0  0
  5  3  1  0  0  0  0
  6  1  2  0  0  0  0
  6 14  1  0  0  0  0
  7  5  2  0  0  0  0
  8  6  1  0  0  0  0
  9  8  2  0  0  0  0
 10  5  1  0  0  0  0
 10 11  1  0  0  0  0
 11 13  1  0  0  0  0
 12  8  1  0  0  0  0
 12  2  1  0  0  0  0
 13  4  1  1  0  0  0
 14 10  2  0  0  0  0
 15 20  1  0  0  0  0
 16 18  1  0  0  0  0
 16 15  2  0  0  0  0
 17 19  1  0  0  0  0
 18 17  2  0  0  0  0
 20 19  2  0  0  0  0
 22 21  1  0  0  0  0
 23 27  1  1  0  0  0
 23 30  1  0  0  0  0
 24 35  1  1  0  0  0
 24 25  1  0  0  0  0
 25 31  1  6  0  0  0
 25 28  1  0  0  0  0
 29 24  1  0  0  0  0
 30 22  1  6  0  0  0
 30 32  1  0  0  0  0
 32 28  1  0  0  0  0
 33 26  1  6  0  0  0
 33 23  1  0  0  0  0
 33 29  1  0  0  0  0
 34 26  1  0  0  0  0
 34 27  1  0  0  0  0
 36 35  1  0  0  0  0
 37 36  1  0  0  0  0
M  END
>  <MODEL>
3

>  <REMARK>
 VINA RESULT:      -7.6      1.049      1.683
  Name = 
  6 active torsions:
  status: ('A' for Active; 'I' for Inactive)
    1  A    between atoms: C_2  and  N_7
    2  A    between atoms: C_4  and  C_28
    3  A    between atoms: C_4  and  C_37
    4  A    between atoms: C_5  and  C_37
    5  A    between atoms: N_7  and  C_9
    6  A    between atoms: C_8  and  C_11
                            x       y       z     vdW  Elec       q    Type
                         _______ _______ _______ _____ _____    ______ ____

>  <TORSDO>
F 6

$$$$
=
 OpenBabel11072410173D

 37 42  0  0  1  0  0  0  0  0999 V2000
  160.3750  209.1010  154.5940 C   0  0  0  0  0  0  0  0  0  0  0  0
  160.4250  207.8580  153.7610 C   0  0  2  0  0  3  0  0  0  0  0  0
  159.8710  212.8770  154.9310 C   0  0  2  0  0  3  0  0  0  0  0  0
  158.9890  214.3670  156.8910 C   0  0  0  0  0  1  0  0  0  0  0  0
  160.1110  211.4180  155.1200 C   0  0  0  0  0  0  0  0  0  0  0  0
  160.5610  208.8320  155.9360 C   0  0  0  0  0  0  0  0  0  0  0  0
  160.1380  210.4090  154.1450 C   0  0  0  0  0  3  0  0  0  0  0  0
  160.7570  207.4160  156.1000 C   0  0  0  0  0  0  0  0  0  0  0  0
  160.9580  206.8380  157.2000 O   0  0  0  0  0  0  0  0  0  0  0  0
  160.3070  211.1390  156.4550 C   0  0  0  0  0  0  0  0  0  0  0  0
  160.2520  212.2970  157.2610 N   0  0  0  0  0  2  0  0  0  0  0  0
  160.6840  206.7230  154.7800 C   0  0  0  0  0  2  0  0  0  0  0  0
  160.0810  213.4450  156.3700 C   0  0  1  0  0  3  0  0  0  0  0  0
  160.5350  209.8360  156.9130 C   0  0  0  0  0  3  0  0  0  0  0  0
  158.4210  214.0440  153.2570 C   0  0  0  0  0  3  0  0  0  0  0  0
  158.5170  213.1420  154.3220 C   0  0  0  0  0  0  0  0  0  0  0  0
  156.1160  212.7830  154.2170 C   0  0  0  0  0  3  0  0  0  0  0  0
  157.3550  212.5120  154.8030 C   0  0  0  0  0  3  0  0  0  0  0  0
  156.0280  213.6830  153.1520 C   0  0  0  0  0  3  0  0  0  0  0  0
  157.1800  214.3140  152.6720 C   0  0  0  0  0  3  0  0  0  0  0  0
  161.5710  207.9400  152.7650 C   0  0  0  0  0  2  0  0  0  0  0  0
  161.0620  208.4310  151.4210 C   0  0  0  0  0  2  0  0  0  0  0  0
  160.8210  205.9600  150.9930 C   0  0  1  0  0  3  0  0  0  0  0  0
  161.0360  205.6850  147.7370 C   0  0  2  0  0  3  0  0  0  0  0  0
  162.2220  206.5790  147.3340 C   0  0  1  0  0  3  0  0  0  0  0  0
  160.5180  203.6040  150.8900 C   0  0  0  0  0  2  0  0  0  0  0  0
  161.8630  205.3750  151.9250 C   0  0  0  0  0  2  0  0  0  0  0  0
  162.4070  207.7730  148.2720 C   0  0  0  0  0  2  0  0  0  0  0  0
  161.3590  204.6850  148.8490 C   0  0  0  0  0  2  0  0  0  0  0  0
  161.1640  207.3290  150.3810 C   0  0  2  0  0  3  0  0  0  0  0  0
  163.5300  205.8190  147.1580 C   0  0  0  0  0  1  0  0  0  0  0  0
  162.5430  207.3660  149.7350 C   0  0  0  0  0  2  0  0  0  0  0  0
  160.4090  204.8490  150.0330 C   0  0  2  0  0  3  0  0  0  0  0  0
  161.5830  203.8810  151.9470 C   0  0  0  0  0  2  0  0  0  0  0  0
  160.3700  205.0620  146.5890 N   0  0  0  0  0  2  0  0  0  0  0  0
  160.4550  205.9130  145.4060 C   0  0  0  0  0  2  0  0  0  0  0  0
  161.0460  205.1260  144.2530 C   0  0  0  0  0  1  0  0  0  0  0  0
  1  6  1  0  0  0  0
  2 21  1  6  0  0  0
  2  1  1  0  0  0  0
  2 12  1  0  0  0  0
  3 16  1  1  0  0  0
  3  5  1  0  0  0  0
  3 13  1  0  0  0  0
  5 10  2  0  0  0  0
  6  8  1  0  0  0  0
  6 14  2  0  0  0  0
  7  1  2  0  0  0  0
  7  5  1  0  0  0  0
  8  9  2  0  0  0  0
 10 14  1  0  0  0  0
 10 11  1  0  0  0  0
 12  8  1  0  0  0  0
 13  4  1  1  0  0  0
 13 11  1  0  0  0  0
 15 16  1  0  0  0  0
 16 18  2  0  0  0  0
 17 18  1  0  0  0  0
 19 17  2  0  0  0  0
 20 19  1  0  0  0  0
 20 15  2  0  0  0  0
 22 21  1  0  0  0  0
 23 27  1  6  0  0  0
 24 35  1  6  0  0  0
 24 29  1  0  0  0  0
 25 31  1  1  0  0  0
 25 24  1  0  0  0  0
 25 28  1  0  0  0  0
 26 34  1  0  0  0  0
 27 34  1  0  0  0  0
 28 32  1  0  0  0  0
 30 23  1  0  0  0  0
 30 22  1  1  0  0  0
 32 30  1  0  0  0  0
 33 29  1  6  0  0  0
 33 26  1  0  0  0  0
 33 23  1  0  0  0  0
 36 35  1  0  0  0  0
 37 36  1  0  0  0  0
M  END
>  <MODEL>
4

>  <REMARK>
 VINA RESULT:      -7.4      2.921      5.290
  Name = 
  6 active torsions:
  status: ('A' for Active; 'I' for Inactive)
    1  A    between atoms: C_2  and  N_7
    2  A    between atoms: C_4  and  C_28
    3  A    between atoms: C_4  and  C_37
    4  A    between atoms: C_5  and  C_37
    5  A    between atoms: N_7  and  C_9
    6  A    between atoms: C_8  and  C_11
                            x       y       z     vdW  Elec       q    Type
                         _______ _______ _______ _____ _____    ______ ____

>  <TORSDO>
F 6

$$$$
=
 OpenBabel11072410173D

 37 42  0  0  1  0  0  0  0  0999 V2000
  161.3390  206.5960  151.2590 C   0  0  0  0  0  0  0  0  0  0  0  0
  161.6190  208.0080  151.6700 C   0  0  2  0  0  3  0  0  0  0  0  0
  160.4260  204.0150  148.5890 C   0  0  2  0  0  3  0  0  0  0  0  0
  161.0040  201.4780  148.3220 C   0  0  0  0  0  1  0  0  0  0  0  0
  160.7930  204.7630  149.8240 C   0  0  0  0  0  0  0  0  0  0  0  0
  161.5050  205.7100  152.3050 C   0  0  0  0  0  0  0  0  0  0  0  0
  160.9810  206.1450  149.9800 C   0  0  0  0  0  3  0  0  0  0  0  0
  161.8920  206.4490  153.4780 C   0  0  0  0  0  0  0  0  0  0  0  0
  162.1190  205.9410  154.6070 O   0  0  0  0  0  0  0  0  0  0  0  0
  160.9530  203.8900  150.8780 C   0  0  0  0  0  0  0  0  0  0  0  0
  160.7040  202.5500  150.5080 N   0  0  0  0  0  2  0  0  0  0  0  0
  161.9910  207.9050  153.1680 C   0  0  0  0  0  2  0  0  0  0  0  0
  160.2700  202.5520  149.1120 C   0  0  1  0  0  3  0  0  0  0  0  0
  161.3180  204.3300  152.1560 C   0  0  0  0  0  3  0  0  0  0  0  0
  161.1400  203.7930  146.1990 C   0  0  0  0  0  3  0  0  0  0  0  0
  161.4510  204.2080  147.4990 C   0  0  0  0  0  0  0  0  0  0  0  0
  163.6350  204.9430  146.7280 C   0  0  0  0  0  3  0  0  0  0  0  0
  162.7070  204.7820  147.7610 C   0  0  0  0  0  3  0  0  0  0  0  0
  163.3160  204.5300  145.4320 C   0  0  0  0  0  3  0  0  0  0  0  0
  162.0690  203.9550  145.1670 C   0  0  0  0  0  3  0  0  0  0  0  0
  160.3730  208.8630  151.4970 C   0  0  0  0  0  2  0  0  0  0  0  0
  160.7230  210.3340  151.6460 C   0  0  0  0  0  2  0  0  0  0  0  0
  159.0080  212.0750  152.2590 C   0  0  1  0  0  3  0  0  0  0  0  0
  158.2630  211.4050  155.3760 C   0  0  2  0  0  3  0  0  0  0  0  0
  159.6140  211.1570  156.0700 C   0  0  1  0  0  3  0  0  0  0  0  0
  157.3870  213.7920  152.5360 C   0  0  0  0  0  2  0  0  0  0  0  0
  159.7020  213.3590  151.8510 C   0  0  0  0  0  2  0  0  0  0  0  0
  160.6660  210.5750  155.1240 C   0  0  0  0  0  2  0  0  0  0  0  0
  158.1960  212.7170  154.5910 C   0  0  0  0  0  2  0  0  0  0  0  0
  159.9250  210.9550  152.7800 C   0  0  2  0  0  3  0  0  0  0  0  0
  160.1590  212.3760  156.8030 C   0  0  0  0  0  1  0  0  0  0  0  0
  160.8760  211.4220  153.8730 C   0  0  0  0  0  2  0  0  0  0  0  0
  157.8210  212.4700  153.1320 C   0  0  2  0  0  3  0  0  0  0  0  0
  158.6250  214.4300  151.9140 C   0  0  0  0  0  2  0  0  0  0  0  0
  157.1160  211.2190  156.2700 N   0  0  0  0  0  2  0  0  0  0  0  0
  155.8600  211.4960  155.5790 C   0  0  0  0  0  2  0  0  0  0  0  0
  155.2730  210.2030  155.0480 C   0  0  0  0  0  1  0  0  0  0  0  0
  1  2  1  0  0  0  0
  1  6  1  0  0  0  0
  2 21  1  1  0  0  0
  2 12  1  0  0  0  0
  3 16  1  6  0  0  0
  3 13  1  0  0  0  0
  3  5  1  0  0  0  0
  5  7  1  0  0  0  0
  5 10  2  0  0  0  0
  6  8  1  0  0  0  0
  7  1  2  0  0  0  0
  8  9  2  0  0  0  0
 10 14  1  0  0  0  0
 11 10  1  0  0  0  0
 12  8  1  0  0  0  0
 13  4  1  6  0  0  0
 13 11  1  0  0  0  0
 14  6  2  0  0  0  0
 15 16  1  0  0  0  0
 16 18  2  0  0  0  0
 17 18  1  0  0  0  0
 19 17  2  0  0  0  0
 20 19  1  0  0  0  0
 20 15  2  0  0  0  0
 21 22  1  0  0  0  0
 23 27  1  1  0  0  0
 23 30  1  0  0  0  0
 23 33  1  0  0  0  0
 24 25  1  0  0  0  0
 24 35  1  1  0  0  0
 25 31  1  6  0  0  0
 27 34  1  0  0  0  0
 28 25  1  0  0  0  0
 29 24  1  0  0  0  0
 30 22  1  6  0  0  0
 30 32  1  0  0  0  0
 32 28  1  0  0  0  0
 33 26  1  6  0  0  0
 33 29  1  0  0  0  0
 34 26  1  0  0  0  0
 36 35  1  0  0  0  0
 37 36  1  0  0  0  0
M  END
>  <MODEL>
5

>  <REMARK>
 VINA RESULT:      -6.8      2.472      9.972
  Name = 
  6 active torsions:
  status: ('A' for Active; 'I' for Inactive)
    1  A    between atoms: C_2  and  N_7
    2  A    between atoms: C_4  and  C_28
    3  A    between atoms: C_4  and  C_37
    4  A    between atoms: C_5  and  C_37
    5  A    between atoms: N_7  and  C_9
    6  A    between atoms: C_8  and  C_11
                            x       y       z     vdW  Elec       q    Type
                         _______ _______ _______ _____ _____    ______ ____

>  <TORSDO>
F 6

$$$$
=
 OpenBabel11072410173D

 37 42  0  0  1  0  0  0  0  0999 V2000
  160.9320  207.8840  152.5500 C   0  0  0  0  0  0  0  0  0  0  0  0
  161.0740  209.3450  152.8450 C   0  0  2  0  0  3  0  0  0  0  0  0
  160.1240  205.0270  150.1410 C   0  0  2  0  0  3  0  0  0  0  0  0
  160.9770  202.5590  149.9870 C   0  0  0  0  0  1  0  0  0  0  0  0
  160.4960  205.9010  151.2890 C   0  0  0  0  0  0  0  0  0  0  0  0
  161.2850  207.1020  153.6330 C   0  0  0  0  0  0  0  0  0  0  0  0
  160.5290  207.3020  151.3390 C   0  0  0  0  0  3  0  0  0  0  0  0
  161.6730  207.9640  154.7170 C   0  0  0  0  0  0  0  0  0  0  0  0
  162.0480  207.5690  155.8530 O   0  0  0  0  0  0  0  0  0  0  0  0
  160.8420  205.1310  152.3780 C   0  0  0  0  0  0  0  0  0  0  0  0
  160.7260  203.7470  152.1180 N   0  0  0  0  0  2  0  0  0  0  0  0
  161.5730  209.3950  154.3080 C   0  0  0  0  0  2  0  0  0  0  0  0
  160.1850  203.5980  150.7670 C   0  0  1  0  0  3  0  0  0  0  0  0
  161.2530  205.7020  153.5880 C   0  0  0  0  0  3  0  0  0  0  0  0
  161.3810  204.1600  148.1560 C   0  0  0  0  0  3  0  0  0  0  0  0
  161.0280  205.2530  148.9550 C   0  0  0  0  0  0  0  0  0  0  0  0
  162.3680  206.7040  147.5390 C   0  0  0  0  0  3  0  0  0  0  0  0
  161.5300  206.5290  148.6430 C   0  0  0  0  0  3  0  0  0  0  0  0
  162.7130  205.6080  146.7430 C   0  0  0  0  0  3  0  0  0  0  0  0
  162.2200  204.3360  147.0520 C   0  0  0  0  0  3  0  0  0  0  0  0
  159.7250  210.0380  152.7270 C   0  0  0  0  0  2  0  0  0  0  0  0
  159.8910  211.5380  152.8920 C   0  0  0  0  0  2  0  0  0  0  0  0
  159.5560  213.0090  154.9100 C   0  0  1  0  0  3  0  0  0  0  0  0
  156.3030  213.2010  155.2320 C   0  0  2  0  0  3  0  0  0  0  0  0
  155.7930  211.7600  155.0450 C   0  0  1  0  0  3  0  0  0  0  0  0
  159.5440  214.4530  156.8000 C   0  0  0  0  0  2  0  0  0  0  0  0
  160.4320  212.3320  155.9440 C   0  0  0  0  0  2  0  0  0  0  0  0
  156.6800  210.9370  154.1100 C   0  0  0  0  0  2  0  0  0  0  0  0
  157.4200  213.3380  156.2680 C   0  0  0  0  0  2  0  0  0  0  0  0
  158.8800  212.0760  153.8910 C   0  0  2  0  0  3  0  0  0  0  0  0
  155.5520  211.0220  156.3550 C   0  0  0  0  0  1  0  0  0  0  0  0
  158.1420  210.9140  154.5420 C   0  0  0  0  0  2  0  0  0  0  0  0
  158.6600  213.9900  155.6600 C   0  0  2  0  0  3  0  0  0  0  0  0
  160.5180  213.3170  157.0990 C   0  0  0  0  0  2  0  0  0  0  0  0
  155.2220  214.1710  155.4300 N   0  0  0  0  0  2  0  0  0  0  0  0
  154.4610  214.3700  154.2000 C   0  0  0  0  0  2  0  0  0  0  0  0
  155.4110  214.4520  153.0200 C   0  0  0  0  0  1  0  0  0  0  0  0
  1  2  1  0  0  0  0
  1  6  1  0  0  0  0
  2 21  1  1  0  0  0
  2 12  1  0  0  0  0
  3 16  1  6  0  0  0
  3 13  1  0  0  0  0
  3  5  1  0  0  0  0
  5  7  1  0  0  0  0
  5 10  2  0  0  0  0
  6  8  1  0  0  0  0
  7  1  2  0  0  0  0
  8  9  2  0  0  0  0
 10 14  1  0  0  0  0
 11 10  1  0  0  0  0
 12  8  1  0  0  0  0
 13  4  1  6  0  0  0
 13 11  1  0  0  0  0
 14  6  2  0  0  0  0
 15 16  1  0  0  0  0
 17 18  1  0  0  0  0
 18 16  2  0  0  0  0
 19 20  1  0  0  0  0
 19 17  2  0  0  0  0
 20 15  2  0  0  0  0
 21 22  1  0  0  0  0
 23 33  1  0  0  0  0
 23 27  1  1  0  0  0
 24 35  1  1  0  0  0
 24 29  1  0  0  0  0
 25 24  1  0  0  0  0
 25 31  1  1  0  0  0
 26 34  1  0  0  0  0
 27 34  1  0  0  0  0
 28 32  1  0  0  0  0
 28 25  1  0  0  0  0
 30 22  1  6  0  0  0
 30 32  1  0  0  0  0
 30 23  1  0  0  0  0
 33 29  1  1  0  0  0
 33 26  1  0  0  0  0
 36 35  1  0  0  0  0
 37 36  1  0  0  0  0
M  END
>  <MODEL>
6

>  <REMARK>
 VINA RESULT:      -6.7      2.880     10.344
  Name = 
  6 active torsions:
  status: ('A' for Active; 'I' for Inactive)
    1  A    between atoms: C_2  and  N_7
    2  A    between atoms: C_4  and  C_28
    3  A    between atoms: C_4  and  C_37
    4  A    between atoms: C_5  and  C_37
    5  A    between atoms: N_7  and  C_9
    6  A    between atoms: C_8  and  C_11
                            x       y       z     vdW  Elec       q    Type
                         _______ _______ _______ _____ _____    ______ ____

>  <TORSDO>
F 6

$$$$
=
 OpenBabel11072410173D

 37 42  0  0  1  0  0  0  0  0999 V2000
  160.6140  208.3510  153.3530 C   0  0  0  0  0  0  0  0  0  0  0  0
  160.4720  207.2230  152.3780 C   0  0  2  0  0  3  0  0  0  0  0  0
  160.3290  212.0630  154.2270 C   0  0  2  0  0  3  0  0  0  0  0  0
  159.8490  213.3110  156.4750 C   0  0  0  0  0  1  0  0  0  0  0  0
  160.5370  210.5880  154.1930 C   0  0  0  0  0  0  0  0  0  0  0  0
  161.0100  207.9100  154.6000 C   0  0  0  0  0  0  0  0  0  0  0  0
  160.3600  209.7100  153.1130 C   0  0  0  0  0  3  0  0  0  0  0  0
  161.1710  206.4810  154.5550 C   0  0  0  0  0  0  0  0  0  0  0  0
  161.5290  205.7650  155.5260 O   0  0  0  0  0  0  0  0  0  0  0  0
  160.9410  210.1380  155.4310 C   0  0  0  0  0  0  0  0  0  0  0  0
  161.0700  211.1860  156.3690 N   0  0  0  0  0  2  0  0  0  0  0  0
  160.8510  205.9630  153.1920 C   0  0  0  0  0  2  0  0  0  0  0  0
  160.8010  212.4400  155.6670 C   0  0  1  0  0  3  0  0  0  0  0  0
  161.1890  208.7820  155.6820 C   0  0  0  0  0  3  0  0  0  0  0  0
  157.8640  211.7410  154.5280 C   0  0  0  0  0  3  0  0  0  0  0  0
  158.9050  212.4300  153.8940 C   0  0  0  0  0  0  0  0  0  0  0  0
  157.2690  213.7500  152.6740 C   0  0  0  0  0  3  0  0  0  0  0  0
  158.6010  213.4370  152.9610 C   0  0  0  0  0  3  0  0  0  0  0  0
  156.2360  213.0600  153.3130 C   0  0  0  0  0  3  0  0  0  0  0  0
  156.5330  212.0560  154.2390 C   0  0  0  0  0  3  0  0  0  0  0  0
  161.4380  207.4070  151.2180 C   0  0  0  0  0  2  0  0  0  0  0  0
  160.6750  207.4660  149.9060 C   0  0  0  0  0  2  0  0  0  0  0  0
  160.7230  204.9500  149.7900 C   0  0  1  0  0  3  0  0  0  0  0  0
  161.3810  204.3050  146.6480 C   0  0  2  0  0  3  0  0  0  0  0  0
  162.5200  205.2680  146.2670 C   0  0  1  0  0  3  0  0  0  0  0  0
  160.6580  202.5800  149.9700 C   0  0  0  0  0  2  0  0  0  0  0  0
  161.6870  204.6000  150.9060 C   0  0  0  0  0  2  0  0  0  0  0  0
  162.4700  206.5800  147.0510 C   0  0  0  0  0  2  0  0  0  0  0  0
  161.6500  203.4890  147.9140 C   0  0  0  0  0  2  0  0  0  0  0  0
  161.0130  206.2630  149.0430 C   0  0  2  0  0  3  0  0  0  0  0  0
  163.9050  204.6390  146.3480 C   0  0  0  0  0  1  0  0  0  0  0  0
  162.4540  206.3720  148.5620 C   0  0  0  0  0  2  0  0  0  0  0  0
  160.5440  203.6910  148.9470 C   0  0  2  0  0  3  0  0  0  0  0  0
  161.5470  203.0990  151.0960 C   0  0  0  0  0  2  0  0  0  0  0  0
  160.9290  203.4780  145.5240 N   0  0  0  0  0  2  0  0  0  0  0  0
  160.8900  202.0660  145.8930 C   0  0  0  0  0  2  0  0  0  0  0  0
  159.8930  201.3360  145.0150 C   0  0  0  0  0  1  0  0  0  0  0  0
  1  6  1  0  0  0  0
  2 21  1  6  0  0  0
  2 12  1  0  0  0  0
  2  1  1  0  0  0  0
  3 16  1  1  0  0  0
  3 13  1  0  0  0  0
  5  3  1  0  0  0  0
  5 10  2  0  0  0  0
  6 14  2  0  0  0  0
  7  1  2  0  0  0  0
  7  5  1  0  0  0  0
  8  6  1  0  0  0  0
  8  9  2  0  0  0  0
 10 14  1  0  0  0  0
 10 11  1  0  0  0  0
 12  8  1  0  0  0  0
 13 11  1  0  0  0  0
 13  4  1  1  0  0  0
 16 15  2  0  0  0  0
 17 18  2  0  0  0  0
 17 19  1  0  0  0  0
 18 16  1  0  0  0  0
 19 20  2  0  0  0  0
 20 15  1  0  0  0  0
 22 21  1  0  0  0  0
 23 27  1  1  0  0  0
 24 35  1  6  0  0  0
 24 29  1  0  0  0  0
 25 31  1  1  0  0  0
 25 24  1  0  0  0  0
 25 28  1  0  0  0  0
 26 34  1  0  0  0  0
 27 34  1  0  0  0  0
 28 32  1  0  0  0  0
 30 23  1  0  0  0  0
 30 22  1  1  0  0  0
 32 30  1  0  0  0  0
 33 29  1  6  0  0  0
 33 23  1  0  0  0  0
 33 26  1  0  0  0  0
 35 36  1  0  0  0  0
 37 36  1  0  0  0  0
M  END
>  <MODEL>
7

>  <REMARK>
 VINA RESULT:      -6.0      2.452      4.566
  Name = 
  6 active torsions:
  status: ('A' for Active; 'I' for Inactive)
    1  A    between atoms: C_2  and  N_7
    2  A    between atoms: C_4  and  C_28
    3  A    between atoms: C_4  and  C_37
    4  A    between atoms: C_5  and  C_37
    5  A    between atoms: N_7  and  C_9
    6  A    between atoms: C_8  and  C_11
                            x       y       z     vdW  Elec       q    Type
                         _______ _______ _______ _____ _____    ______ ____

>  <TORSDO>
F 6

$$$$
=
 OpenBabel11072410173D

 37 42  0  0  1  0  0  0  0  0999 V2000
  161.0330  207.8510  152.5940 C   0  0  0  0  0  0  0  0  0  0  0  0
  160.9660  206.9150  151.4270 C   0  0  2  0  0  3  0  0  0  0  0  0
  160.9890  211.3890  154.0440 C   0  0  2  0  0  3  0  0  0  0  0  0
  160.2090  212.3350  156.3540 C   0  0  0  0  0  1  0  0  0  0  0  0
  161.0360  209.9220  153.7880 C   0  0  0  0  0  0  0  0  0  0  0  0
  161.1210  207.1740  153.7950 C   0  0  0  0  0  0  0  0  0  0  0  0
  160.9830  209.2520  152.5560 C   0  0  0  0  0  3  0  0  0  0  0  0
  161.1300  205.7600  153.5280 C   0  0  0  0  0  0  0  0  0  0  0  0
  161.2060  204.8610  154.4060 O   0  0  0  0  0  0  0  0  0  0  0  0
  161.1330  209.2360  154.9790 C   0  0  0  0  0  0  0  0  0  0  0  0
  161.1850  210.1000  156.0950 N   0  0  0  0  0  2  0  0  0  0  0  0
  161.0340  205.5050  152.0610 C   0  0  0  0  0  2  0  0  0  0  0  0
  161.2010  211.4720  155.5890 C   0  0  1  0  0  3  0  0  0  0  0  0
  161.1750  207.8370  155.0280 C   0  0  0  0  0  3  0  0  0  0  0  0
  159.7770  212.9530  152.5090 C   0  0  0  0  0  3  0  0  0  0  0  0
  159.7090  212.0000  153.5320 C   0  0  0  0  0  0  0  0  0  0  0  0
  157.2900  212.2320  153.5670 C   0  0  0  0  0  3  0  0  0  0  0  0
  158.4570  211.6430  154.0630 C   0  0  0  0  0  3  0  0  0  0  0  0
  157.3660  213.1790  152.5440 C   0  0  0  0  0  3  0  0  0  0  0  0
  158.6090  213.5400  152.0150 C   0  0  0  0  0  3  0  0  0  0  0  0
  162.1590  207.1350  150.5100 C   0  0  0  0  0  2  0  0  0  0  0  0
  161.7100  207.1350  149.0590 C   0  0  0  0  0  2  0  0  0  0  0  0
  161.6520  205.6610  147.0160 C   0  0  1  0  0  3  0  0  0  0  0  0
  161.7130  202.6170  148.2220 C   0  0  2  0  0  3  0  0  0  0  0  0
  160.7040  202.6230  149.3850 C   0  0  1  0  0  3  0  0  0  0  0  0
  161.6390  204.5300  144.9250 C   0  0  0  0  0  2  0  0  0  0  0  0
  160.4560  206.2090  146.2650 C   0  0  0  0  0  2  0  0  0  0  0  0
  160.5950  203.9880  150.0650 C   0  0  0  0  0  2  0  0  0  0  0  0
  161.1520  203.1610  146.9060 C   0  0  0  0  0  2  0  0  0  0  0  0
  161.5590  205.7110  148.5510 C   0  0  2  0  0  3  0  0  0  0  0  0
  159.3280  202.0940  149.0030 C   0  0  0  0  0  1  0  0  0  0  0  0
  160.2660  205.1150  149.0910 C   0  0  0  0  0  2  0  0  0  0  0  0
  161.9980  204.3180  146.3810 C   0  0  2  0  0  3  0  0  0  0  0  0
  160.5260  205.5720  144.8860 C   0  0  0  0  0  2  0  0  0  0  0  0
  162.3950  201.3290  148.0590 N   0  0  0  0  0  2  0  0  0  0  0  0
  161.4340  200.2370  147.9380 C   0  0  0  0  0  2  0  0  0  0  0  0
  161.5810  199.5750  146.5820 C   0  0  0  0  0  1  0  0  0  0  0  0
  1  6  1  0  0  0  0
  2 21  1  6  0  0  0
  2 12  1  0  0  0  0
  2  1  1  0  0  0  0
  3 16  1  1  0  0  0
  3 13  1  0  0  0  0
  5  3  1  0  0  0  0
  5 10  2  0  0  0  0
  6 14  2  0  0  0  0
  7  1  2  0  0  0  0
  7  5  1  0  0  0  0
  8  6  1  0  0  0  0
  8  9  2  0  0  0  0
 10 14  1  0  0  0  0
 10 11  1  0  0  0  0
 12  8  1  0  0  0  0
 13 11  1  0  0  0  0
 13  4  1  1  0  0  0
 15 16  1  0  0  0  0
 16 18  2  0  0  0  0
 17 18  1  0  0  0  0
 19 17  2  0  0  0  0
 20 15  2  0  0  0  0
 20 19  1  0  0  0  0
 22 21  1  0  0  0  0
 23 27  1  6  0  0  0
 23 30  1  0  0  0  0
 24 35  1  6  0  0  0
 24 25  1  0  0  0  0
 25 31  1  6  0  0  0
 25 28  1  0  0  0  0
 29 24  1  0  0  0  0
 30 22  1  6  0  0  0
 30 32  1  0  0  0  0
 32 28  1  0  0  0  0
 33 26  1  6  0  0  0
 33 29  1  0  0  0  0
 33 23  1  0  0  0  0
 34 26  1  0  0  0  0
 34 27  1  0  0  0  0
 36 35  1  0  0  0  0
 37 36  1  0  0  0  0
M  END
>  <MODEL>
8

>  <REMARK>
 VINA RESULT:      -5.7      2.185      3.601
  Name = 
  6 active torsions:
  status: ('A' for Active; 'I' for Inactive)
    1  A    between atoms: C_2  and  N_7
    2  A    between atoms: C_4  and  C_28
    3  A    between atoms: C_4  and  C_37
    4  A    between atoms: C_5  and  C_37
    5  A    between atoms: N_7  and  C_9
    6  A    between atoms: C_8  and  C_11
                            x       y       z     vdW  Elec       q    Type
                         _______ _______ _______ _____ _____    ______ ____

>  <TORSDO>
F 6

$$$$
=
 OpenBabel11072410173D

 37 42  0  0  1  0  0  0  0  0999 V2000
  158.2790  213.2460  149.6290 C   0  0  0  0  0  0  0  0  0  0  0  0
  157.0070  213.3190  150.4150 C   0  0  2  0  0  3  0  0  0  0  0  0
  161.9900  212.3650  149.3560 C   0  0  2  0  0  3  0  0  0  0  0  0
  163.4760  211.6050  147.3420 C   0  0  0  0  0  1  0  0  0  0  0  0
  160.5780  212.7960  149.1530 C   0  0  0  0  0  0  0  0  0  0  0  0
  158.1020  213.6510  148.3200 C   0  0  0  0  0  0  0  0  0  0  0  0
  159.5280  212.7990  150.0840 C   0  0  0  0  0  3  0  0  0  0  0  0
  156.7260  214.0290  148.1370 C   0  0  0  0  0  0  0  0  0  0  0  0
  156.2310  214.4500  147.0580 O   0  0  0  0  0  0  0  0  0  0  0  0
  160.3910  213.2100  147.8530 C   0  0  0  0  0  0  0  0  0  0  0  0
  161.5770  213.1380  147.0890 N   0  0  0  0  0  2  0  0  0  0  0  0
  155.9610  213.8500  149.4060 C   0  0  0  0  0  2  0  0  0  0  0  0
  162.6520  212.7110  147.9850 C   0  0  1  0  0  3  0  0  0  0  0  0
  159.1460  213.6490  147.3870 C   0  0  0  0  0  3  0  0  0  0  0  0
  161.9530  209.9270  148.7860 C   0  0  0  0  0  3  0  0  0  0  0  0
  162.0740  210.9160  149.7690 C   0  0  0  0  0  0  0  0  0  0  0  0
  162.3330  209.1890  151.4580 C   0  0  0  0  0  3  0  0  0  0  0  0
  162.2630  210.5410  151.1100 C   0  0  0  0  0  3  0  0  0  0  0  0
  162.2140  208.2070  150.4720 C   0  0  0  0  0  3  0  0  0  0  0  0
  162.0240  208.5750  149.1370 C   0  0  0  0  0  3  0  0  0  0  0  0
  157.1610  214.2950  151.5720 C   0  0  0  0  0  2  0  0  0  0  0  0
  156.2040  213.9310  152.6940 C   0  0  0  0  0  2  0  0  0  0  0  0
  155.9260  212.6220  154.8290 C   0  0  1  0  0  3  0  0  0  0  0  0
  158.7410  210.9770  155.1340 C   0  0  2  0  0  3  0  0  0  0  0  0
  159.8450  212.0030  154.8170 C   0  0  1  0  0  3  0  0  0  0  0  0
  155.3670  211.4780  156.8370 C   0  0  0  0  0  2  0  0  0  0  0  0
  155.5090  213.7000  155.8090 C   0  0  0  0  0  2  0  0  0  0  0  0
  159.3890  213.0720  153.8230 C   0  0  0  0  0  2  0  0  0  0  0  0
  157.7370  211.4460  156.1890 C   0  0  0  0  0  2  0  0  0  0  0  0
  156.9030  213.0620  153.7250 C   0  0  2  0  0  3  0  0  0  0  0  0
  160.4610  212.6410  156.0560 C   0  0  0  0  0  1  0  0  0  0  0  0
  158.1230  213.7970  154.2650 C   0  0  0  0  0  2  0  0  0  0  0  0
  156.3090  211.3970  155.6530 C   0  0  2  0  0  3  0  0  0  0  0  0
  155.0380  212.9530  157.0460 C   0  0  0  0  0  2  0  0  0  0  0  0
  159.2660  209.6350  155.4050 N   0  0  0  0  0  2  0  0  0  0  0  0
  160.5660  209.4410  154.7710 C   0  0  0  0  0  2  0  0  0  0  0  0
  160.8310  207.9580  154.5950 C   0  0  0  0  0  1  0  0  0  0  0  0
  1  7  1  0  0  0  0
  1  2  1  0  0  0  0
  2 21  1  1  0  0  0
  3 16  1  6  0  0  0
  5  3  1  0  0  0  0
  5  7  2  0  0  0  0
  6  1  2  0  0  0  0
  8  6  1  0  0  0  0
  8 12  1  0  0  0  0
  9  8  2  0  0  0  0
 10  5  1  0  0  0  0
 11 10  1  0  0  0  0
 11 13  1  0  0  0  0
 12  2  1  0  0  0  0
 13  4  1  6  0  0  0
 13  3  1  0  0  0  0
 14 10  2  0  0  0  0
 14  6  1  0  0  0  0
 15 20  2  0  0  0  0
 15 16  1  0  0  0  0
 16 18  2  0  0  0  0
 18 17  1  0  0  0  0
 19 17  2  0  0  0  0
 20 19  1  0  0  0  0
 21 22  1  0  0  0  0
 23 33  1  0  0  0  0
 23 27  1  1  0  0  0
 24 35  1  1  0  0  0
 24 29  1  0  0  0  0
 25 24  1  0  0  0  0
 25 31  1  1  0  0  0
 26 34  1  0  0  0  0
 27 34  1  0  0  0  0
 28 32  1  0  0  0  0
 28 25  1  0  0  0  0
 30 22  1  6  0  0  0
 30 32  1  0  0  0  0
 30 23  1  0  0  0  0
 33 29  1  1  0  0  0
 33 26  1  0  0  0  0
 36 35  1  0  0  0  0
 37 36  1  0  0  0  0
M  END
>  <MODEL>
9

>  <REMARK>
 VINA RESULT:      -5.3      4.686      9.348
  Name = 
  6 active torsions:
  status: ('A' for Active; 'I' for Inactive)
    1  A    between atoms: C_2  and  N_7
    2  A    between atoms: C_4  and  C_28
    3  A    between atoms: C_4  and  C_37
    4  A    between atoms: C_5  and  C_37
    5  A    between atoms: N_7  and  C_9
    6  A    between atoms: C_8  and  C_11
                            x       y       z     vdW  Elec       q    Type
                         _______ _______ _______ _____ _____    ______ ____

>  <TORSDO>
F 6

$$$$
