=
 OpenBabel11072415073D

 58 63  0  0  1  0  0  0  0  0999 V2000
  161.5750  208.3390  150.4940 C   0  0  0  0  0  3  0  0  0  0  0  0
  161.5340  208.8060  149.2320 C   0  0  0  0  0  0  0  0  0  0  0  0
  161.7500  210.2950  148.9930 C   0  0  2  0  0  3  0  0  0  0  0  0
  161.2300  210.6110  151.3820 C   0  0  0  0  0  3  0  0  0  0  0  0
  163.3640  209.4520  151.7820 C   0  0  0  0  0  1  0  0  0  0  0  0
  161.1580  211.1120  150.1410 C   0  0  0  0  0  0  0  0  0  0  0  0
  161.8570  209.2610  151.6520 C   0  0  2  0  0  0  0  0  0  0  0  0
  160.0610  207.8130  155.4100 O   0  0  0  0  0  0  0  0  0  0  0  0
  160.6870  209.4880  153.8970 N   0  0  0  0  0  2  0  0  0  0  0  0
  161.3090  208.6470  152.9140 C   0  0  0  0  0  0  0  0  0  0  0  0
  160.1270  209.0400  155.1390 C   0  0  0  0  0  0  0  0  0  0  0  0
  161.4730  207.4170  153.1430 O   0  0  0  0  0  0  0  0  0  0  0  0
  159.6130  210.0100  156.1120 C   0  0  0  0  0  3  0  0  0  0  0  0
  159.2390  211.2330  155.7550 C   0  0  0  0  0  2  0  0  0  0  0  0
  160.5680  212.4540  150.0080 C   0  0  0  0  0  3  0  0  0  0  0  0
  159.9420  213.0940  150.9850 C   0  0  0  0  0  3  0  0  0  0  0  0
  159.3660  214.4530  150.7680 C   0  0  0  0  0  2  0  0  0  0  0  0
  157.9380  214.4500  151.0450 N   0  0  0  0  0  0  0  0  0  0  0  0
  158.0060  214.2610  153.4010 O   0  0  0  0  0  0  0  0  0  0  0  0
  157.3470  214.3340  152.3310 C   0  0  0  0  0  0  0  0  0  0  0  0
  155.6380  214.2960  150.8760 C   0  0  0  0  0  0  0  0  0  0  0  0
  155.0510  213.8430  153.3440 C   0  0  0  0  0  1  0  0  0  0  0  0
  156.8800  214.4090  150.0400 C   0  0  0  0  0  2  0  0  0  0  0  0
  155.9360  214.2690  152.2710 N   0  0  0  0  0  0  0  0  0  0  0  0
  154.4230  214.1190  150.3770 C   0  0  0  0  0  2  0  0  0  0  0  0
  160.3040  206.7270  148.4980 C   0  0  0  0  0  1  0  0  0  0  0  0
  161.2090  207.8800  148.0850 C   0  0  2  0  0  3  0  0  0  0  0  0
  162.4280  207.4230  147.2760 C   0  0  0  0  0  2  0  0  0  0  0  0
  162.7670  205.9450  147.4520 C   0  0  0  0  0  2  0  0  0  0  0  0
  163.1290  205.9220  144.9650 C   0  0  0  0  0  1  0  0  0  0  0  0
  162.5480  205.1720  146.1540 C   0  0  2  0  0  3  0  0  0  0  0  0
  161.0750  204.8360  145.9210 C   0  0  1  0  0  3  0  0  0  0  0  0
  160.5760  205.5920  144.8580 O   0  0  0  0  0  1  0  0  0  0  0  0
  160.8410  203.3520  145.6560 C   0  0  0  0  0  2  0  0  0  0  0  0
  160.9700  202.5680  146.9230 C   0  0  0  0  0  0  0  0  0  0  0  0
  161.1740  201.1770  146.9280 C   0  0  0  0  0  0  0  0  0  0  0  0
  161.1800  200.3160  150.5520 C   0  0  0  0  0  1  0  0  0  0  0  0
  161.1010  201.1500  149.3170 C   0  0  0  0  0  0  0  0  0  0  0  0
  160.8430  203.2360  148.1400 C   0  0  0  0  0  3  0  0  0  0  0  0
  161.2200  200.5160  148.1180 N   0  0  0  0  0  0  0  0  0  0  0  0
  160.9110  202.5500  149.3570 C   0  0  0  0  0  0  0  0  0  0  0  0
  161.2730  200.3960  145.6460 C   0  0  0  0  0  3  0  0  0  0  0  0
  159.9860  199.6360  145.3740 C   0  0  0  0  0  2  0  0  0  0  0  0
  161.1830  198.9080  145.9390 C   0  0  0  0  0  2  0  0  0  0  0  0
  160.7680  203.3320  150.6120 C   0  0  0  0  0  0  0  0  0  0  0  0
  160.0660  202.9090  151.5680 O   0  0  0  0  0  0  0  0  0  0  0  0
  161.4290  204.5860  150.7490 N   0  0  0  0  0  1  0  0  0  0  0  0
  161.2670  210.6750  147.7280 O   0  0  0  0  0  0  0  0  0  0  0  0
  162.5550  212.6460  147.1160 C   0  0  0  0  0  2  0  0  0  0  0  0
  158.0730  213.5300  146.8450 C   0  0  0  0  0  2  0  0  0  0  0  0
  162.4650  212.8520  145.5910 C   0  0  1  0  0  3  0  0  0  0  0  0
  161.2450  212.0810  147.7200 C   0  0  1  0  0  3  0  0  0  0  0  0
  160.0480  212.5590  146.8920 C   0  0  2  0  0  3  0  0  0  0  0  0
  161.2150  213.6610  145.1800 C   0  0  0  0  0  2  0  0  0  0  0  0
  163.7140  213.5450  145.0920 C   0  0  0  0  0  1  0  0  0  0  0  0
  160.3200  213.8610  146.3200 N   0  0  1  0  0  0  0  0  0  0  0  0
  159.0030  214.2440  145.8820 C   0  0  0  0  0  2  0  0  0  0  0  0
  158.8510  212.6420  147.6110 O   0  0  0  0  0  0  0  0  0  0  0  0
  1  7  1  0  0  0  0
  2  1  2  0  0  0  0
  3 48  1  6  0  0  0
  3  2  1  0  0  0  0
  3  6  1  0  0  0  0
  4  7  1  0  0  0  0
  6  4  2  0  0  0  0
  7  5  1  1  0  0  0
  7 10  1  0  0  0  0
  9 11  1  0  0  0  0
 10 12  2  0  0  0  0
 10  9  1  0  0  0  0
 11  8  2  0  0  0  0
 11 13  1  0  0  0  0
 14 13  2  0  0  0  0
 15  6  1  0  0  0  0
 15 16  2  0  0  0  0
 17 16  1  0  0  0  0
 17 18  1  0  0  0  0
 18 20  1  0  0  0  0
 20 19  2  0  0  0  0
 21 24  1  0  0  0  0
 23 21  1  0  0  0  0
 23 18  1  0  0  0  0
 24 20  1  0  0  0  0
 24 22  1  0  0  0  0
 25 21  2  0  0  0  0
 27 26  1  1  0  0  0
 27  2  1  0  0  0  0
 28 29  1  0  0  0  0
 28 27  1  0  0  0  0
 31 30  1  6  0  0  0
 31 29  1  0  0  0  0
 32 33  1  6  0  0  0
 32 31  1  0  0  0  0
 34 32  1  0  0  0  0
 34 35  1  0  0  0  0
 35 36  2  0  0  0  0
 35 39  1  0  0  0  0
 36 40  1  0  0  0  0
 38 41  1  0  0  0  0
 38 37  1  0  0  0  0
 39 41  2  0  0  0  0
 40 38  2  0  0  0  0
 41 45  1  0  0  0  0
 42 44  1  0  0  0  0
 42 36  1  0  0  0  0
 43 42  1  0  0  0  0
 43 44  1  0  0  0  0
 45 47  1  0  0  0  0
 45 46  2  0  0  0  0
 49 52  1  0  0  0  0
 50 58  1  0  0  0  0
 51 55  1  1  0  0  0
 51 49  1  0  0  0  0
 52 48  1  6  0  0  0
 53 58  1  1  0  0  0
 53 52  1  0  0  0  0
 54 51  1  0  0  0  0
 56 54  1  6  0  0  0
 56 53  1  0  0  0  0
 57 56  1  0  0  0  0
 57 50  1  0  0  0  0
M  END
>  <MODEL>
1

>  <REMARK>
 VINA RESULT:      -2.7      0.000      0.000
  Name = 
  16 active torsions:
  status: ('A' for Active; 'I' for Inactive)
    1  A    between atoms: C_1  and  C_14
    2  A    between atoms: N_3  and  C_39
    3  A    between atoms: C_5  and  C_10
    4  A    between atoms: C_8  and  C_52
    5  A    between atoms: C_12  and  C_44
    6  A    between atoms: C_14  and  C_41
    7  A    between atoms: C_17  and  C_42
    8  A    between atoms: O_18  and  C_22
    9  A    between atoms: O_18  and  C_35
   10  A    between atoms: C_21  and  C_33
   11  A    between atoms: C_21  and  C_44
   12  A    between atoms: C_27  and  C_43
   13  A    between atoms: C_31  and  C_39
   14  A    between atoms: C_33  and  C_55
   15  A    between atoms: C_41  and  C_55
   16  A    between atoms: C_46  and  C_50
                            x       y       z     vdW  Elec       q    Type
                         _______ _______ _______ _____ _____    ______ ____

>  <TORSDO>
F 16

$$$$
=
 OpenBabel11072415073D

 58 63  0  0  1  0  0  0  0  0999 V2000
  161.9140  208.8760  148.7760 C   0  0  0  0  0  3  0  0  0  0  0  0
  161.9110  210.0350  149.4600 C   0  0  0  0  0  0  0  0  0  0  0  0
  162.1330  209.9990  150.9670 C   0  0  2  0  0  3  0  0  0  0  0  0
  161.5400  207.6080  150.8560 C   0  0  0  0  0  3  0  0  0  0  0  0
  163.6610  207.3570  149.6340 C   0  0  0  0  0  1  0  0  0  0  0  0
  161.5050  208.7420  151.5700 C   0  0  0  0  0  0  0  0  0  0  0  0
  162.1600  207.5640  149.4770 C   0  0  2  0  0  0  0  0  0  0  0  0
  160.4120  204.0880  147.4010 O   0  0  0  0  0  0  0  0  0  0  0  0
  161.4480  205.1370  149.2200 N   0  0  0  0  0  2  0  0  0  0  0  0
  161.5740  206.4480  148.6500 C   0  0  0  0  0  0  0  0  0  0  0  0
  160.9130  203.9870  148.5510 C   0  0  0  0  0  0  0  0  0  0  0  0
  161.2770  206.6450  147.4400 O   0  0  0  0  0  0  0  0  0  0  0  0
  160.9340  202.6740  149.2030 C   0  0  0  0  0  3  0  0  0  0  0  0
  160.0380  201.7360  148.9250 C   0  0  0  0  0  2  0  0  0  0  0  0
  160.9190  208.6510  152.9170 C   0  0  0  0  0  3  0  0  0  0  0  0
  160.9770  207.5740  153.6850 C   0  0  0  0  0  3  0  0  0  0  0  0
  160.3520  207.5610  155.0390 C   0  0  0  0  0  2  0  0  0  0  0  0
  160.8030  208.7050  155.8170 N   0  0  0  0  0  0  0  0  0  0  0  0
  158.7640  209.8930  155.9680 O   0  0  0  0  0  0  0  0  0  0  0  0
  159.9960  209.8040  156.2140 C   0  0  0  0  0  0  0  0  0  0  0  0
  162.0830  210.3270  156.8540 C   0  0  0  0  0  0  0  0  0  0  0  0
  160.3020  212.1690  157.1370 C   0  0  0  0  0  1  0  0  0  0  0  0
  162.1880  208.9880  156.1830 C   0  0  0  0  0  2  0  0  0  0  0  0
  160.7390  210.8050  156.8810 N   0  0  0  0  0  0  0  0  0  0  0  0
  163.1270  211.0360  157.2600 C   0  0  0  0  0  2  0  0  0  0  0  0
  160.5440  211.2020  147.6870 C   0  0  0  0  0  1  0  0  0  0  0  0
  161.6210  211.3380  148.7550 C   0  0  2  0  0  3  0  0  0  0  0  0
  162.8680  212.0770  148.2560 C   0  0  0  0  0  2  0  0  0  0  0  0
  162.5630  213.2180  147.2890 C   0  0  0  0  0  2  0  0  0  0  0  0
  163.9310  213.1780  145.1810 C   0  0  0  0  0  1  0  0  0  0  0  0
  162.6300  212.7450  145.8390 C   0  0  2  0  0  3  0  0  0  0  0  0
  161.4240  213.2080  145.0230 C   0  0  1  0  0  3  0  0  0  0  0  0
  160.6590  214.1080  145.7680 O   0  0  0  0  0  1  0  0  0  0  0  0
  161.8190  213.8430  143.6920 C   0  0  0  0  0  2  0  0  0  0  0  0
  161.1710  213.1190  142.5550 C   0  0  0  0  0  0  0  0  0  0  0  0
  159.8540  213.3940  142.1430 C   0  0  0  0  0  0  0  0  0  0  0  0
  159.2750  210.9360  139.4040 C   0  0  0  0  0  1  0  0  0  0  0  0
  159.9840  211.6680  140.4950 C   0  0  0  0  0  0  0  0  0  0  0  0
  161.8850  212.1110  141.9080 C   0  0  0  0  0  3  0  0  0  0  0  0
  159.3040  212.6540  141.1410 N   0  0  0  0  0  0  0  0  0  0  0  0
  161.3150  211.3710  140.8670 C   0  0  0  0  0  0  0  0  0  0  0  0
  159.0210  214.4390  142.8320 C   0  0  0  0  0  3  0  0  0  0  0  0
  158.2050  213.8250  143.9580 C   0  0  0  0  0  2  0  0  0  0  0  0
  157.5450  214.1350  142.6350 C   0  0  0  0  0  2  0  0  0  0  0  0
  162.1400  210.3130  140.2270 C   0  0  0  0  0  0  0  0  0  0  0  0
  161.9500  209.0950  140.4810 O   0  0  0  0  0  0  0  0  0  0  0  0
  163.1690  210.6710  139.3090 N   0  0  0  0  0  1  0  0  0  0  0  0
  161.6880  211.1900  151.5690 O   0  0  0  0  0  0  0  0  0  0  0  0
  159.3900  210.8200  152.2740 C   0  0  0  0  0  2  0  0  0  0  0  0
  159.6360  214.4510  149.4980 C   0  0  0  0  0  2  0  0  0  0  0  0
  158.9970  211.9050  153.2970 C   0  0  1  0  0  3  0  0  0  0  0  0
  160.3480  211.3530  151.1780 C   0  0  1  0  0  3  0  0  0  0  0  0
  160.0730  212.8400  150.9340 C   0  0  2  0  0  3  0  0  0  0  0  0
  158.4790  213.1920  152.6190 C   0  0  0  0  0  2  0  0  0  0  0  0
  157.9470  211.3620  154.2420 C   0  0  0  0  0  1  0  0  0  0  0  0
  158.6770  213.1400  151.1700 N   0  0  1  0  0  0  0  0  0  0  0  0
  158.5800  214.4530  150.5880 C   0  0  0  0  0  2  0  0  0  0  0  0
  160.3990  213.2770  149.6460 O   0  0  0  0  0  0  0  0  0  0  0  0
  1  2  2  0  0  0  0
  1  7  1  0  0  0  0
  2  3  1  0  0  0  0
  3 48  1  1  0  0  0
  3  6  1  0  0  0  0
  4  6  2  0  0  0  0
  6 15  1  0  0  0  0
  7  5  1  1  0  0  0
  7  4  1  0  0  0  0
  8 11  2  0  0  0  0
 10  9  1  0  0  0  0
 10  7  1  0  0  0  0
 11 13  1  0  0  0  0
 11  9  1  0  0  0  0
 12 10  2  0  0  0  0
 14 13  2  0  0  0  0
 15 16  2  0  0  0  0
 16 17  1  0  0  0  0
 17 18  1  0  0  0  0
 18 23  1  0  0  0  0
 18 20  1  0  0  0  0
 19 20  2  0  0  0  0
 20 24  1  0  0  0  0
 21 24  1  0  0  0  0
 21 25  2  0  0  0  0
 23 21  1  0  0  0  0
 24 22  1  0  0  0  0
 27 26  1  6  0  0  0
 27  2  1  0  0  0  0
 28 27  1  0  0  0  0
 29 28  1  0  0  0  0
 31 30  1  6  0  0  0
 31 29  1  0  0  0  0
 32 33  1  1  0  0  0
 32 31  1  0  0  0  0
 34 32  1  0  0  0  0
 35 34  1  0  0  0  0
 36 35  1  0  0  0  0
 36 42  1  0  0  0  0
 37 38  1  0  0  0  0
 38 41  2  0  0  0  0
 38 40  1  0  0  0  0
 39 35  2  0  0  0  0
 40 36  2  0  0  0  0
 41 39  1  0  0  0  0
 42 43  1  0  0  0  0
 44 42  1  0  0  0  0
 44 43  1  0  0  0  0
 45 46  2  0  0  0  0
 45 41  1  0  0  0  0
 47 45  1  0  0  0  0
 49 51  1  0  0  0  0
 50 58  1  0  0  0  0
 50 57  1  0  0  0  0
 51 55  1  1  0  0  0
 52 48  1  1  0  0  0
 52 49  1  0  0  0  0
 53 58  1  6  0  0  0
 53 56  1  0  0  0  0
 53 52  1  0  0  0  0
 54 51  1  0  0  0  0
 56 57  1  6  0  0  0
 56 54  1  0  0  0  0
M  END
>  <MODEL>
2

>  <REMARK>
 VINA RESULT:      -2.1      2.855      8.779
  Name = 
  16 active torsions:
  status: ('A' for Active; 'I' for Inactive)
    1  A    between atoms: C_1  and  C_14
    2  A    between atoms: N_3  and  C_39
    3  A    between atoms: C_5  and  C_10
    4  A    between atoms: C_8  and  C_52
    5  A    between atoms: C_12  and  C_44
    6  A    between atoms: C_14  and  C_41
    7  A    between atoms: C_17  and  C_42
    8  A    between atoms: O_18  and  C_22
    9  A    between atoms: O_18  and  C_35
   10  A    between atoms: C_21  and  C_33
   11  A    between atoms: C_21  and  C_44
   12  A    between atoms: C_27  and  C_43
   13  A    between atoms: C_31  and  C_39
   14  A    between atoms: C_33  and  C_55
   15  A    between atoms: C_41  and  C_55
   16  A    between atoms: C_46  and  C_50
                            x       y       z     vdW  Elec       q    Type
                         _______ _______ _______ _____ _____    ______ ____

>  <TORSDO>
F 16

$$$$
=
 OpenBabel11072415073D

 58 63  0  0  1  0  0  0  0  0999 V2000
  162.2110  209.2500  152.3970 C   0  0  0  0  0  3  0  0  0  0  0  0
  161.9240  209.5300  151.1120 C   0  0  0  0  0  0  0  0  0  0  0  0
  161.5390  210.9570  150.7400 C   0  0  2  0  0  3  0  0  0  0  0  0
  161.0710  211.3060  153.1360 C   0  0  0  0  0  3  0  0  0  0  0  0
  163.5040  211.0830  153.4260 C   0  0  0  0  0  1  0  0  0  0  0  0
  160.7430  211.6080  151.8720 C   0  0  0  0  0  0  0  0  0  0  0  0
  162.1810  210.3280  153.4500 C   0  0  2  0  0  0  0  0  0  0  0  0
  161.4530  208.1380  157.2070 O   0  0  0  0  0  0  0  0  0  0  0  0
  161.1790  208.5060  154.9110 N   0  0  0  0  0  2  0  0  0  0  0  0
  161.9810  209.6900  154.8010 C   0  0  0  0  0  0  0  0  0  0  0  0
  160.9030  207.7980  156.1270 C   0  0  0  0  0  0  0  0  0  0  0  0
  162.4440  210.2420  155.8360 O   0  0  0  0  0  0  0  0  0  0  0  0
  159.9800  206.6590  156.1290 C   0  0  0  0  0  3  0  0  0  0  0  0
  158.6940  206.7950  155.8320 C   0  0  0  0  0  2  0  0  0  0  0  0
  159.6780  212.6080  151.6900 C   0  0  0  0  0  3  0  0  0  0  0  0
  158.9820  213.1440  152.6820 C   0  0  0  0  0  3  0  0  0  0  0  0
  157.9130  214.1490  152.4130 C   0  0  0  0  0  2  0  0  0  0  0  0
  157.0630  214.3110  153.5820 N   0  0  0  0  0  0  0  0  0  0  0  0
  158.6800  213.9990  155.2790 O   0  0  0  0  0  0  0  0  0  0  0  0
  157.4860  214.2060  154.9330 C   0  0  0  0  0  0  0  0  0  0  0  0
  155.2570  214.4530  155.0190 C   0  0  0  0  0  0  0  0  0  0  0  0
  156.4410  213.9550  157.2530 C   0  0  0  0  0  1  0  0  0  0  0  0
  155.6090  214.4510  153.5600 C   0  0  0  0  0  2  0  0  0  0  0  0
  156.4130  214.3200  155.8460 N   0  0  0  0  0  0  0  0  0  0  0  0
  154.0150  214.4530  155.4820 C   0  0  0  0  0  2  0  0  0  0  0  0
  162.1410  208.9580  148.6630 C   0  0  0  0  0  1  0  0  0  0  0  0
  161.9150  208.4340  150.0740 C   0  0  2  0  0  3  0  0  0  0  0  0
  160.7190  207.4800  150.1740 C   0  0  0  0  0  2  0  0  0  0  0  0
  160.4110  207.0220  151.5970 C   0  0  0  0  0  2  0  0  0  0  0  0
  160.8590  205.1480  153.2110 C   0  0  0  0  0  1  0  0  0  0  0  0
  160.6380  205.5200  151.7530 C   0  0  2  0  0  3  0  0  0  0  0  0
  161.7870  205.0140  150.8800 C   0  0  1  0  0  3  0  0  0  0  0  0
  163.0050  205.2140  151.5320 O   0  0  0  0  0  1  0  0  0  0  0  0
  161.6380  203.5430  150.5010 C   0  0  0  0  0  2  0  0  0  0  0  0
  161.3500  203.4070  149.0390 C   0  0  0  0  0  0  0  0  0  0  0  0
  161.0170  202.1740  148.4510 C   0  0  0  0  0  0  0  0  0  0  0  0
  160.6840  203.0040  144.8350 C   0  0  0  0  0  1  0  0  0  0  0  0
  160.9250  203.2010  146.2940 C   0  0  0  0  0  0  0  0  0  0  0  0
  161.4560  204.5360  148.2280 C   0  0  0  0  0  3  0  0  0  0  0  0
  160.8290  202.1110  147.1030 N   0  0  0  0  0  0  0  0  0  0  0  0
  161.2410  204.4620  146.8470 C   0  0  0  0  0  0  0  0  0  0  0  0
  160.9330  200.9150  149.2680 C   0  0  0  0  0  3  0  0  0  0  0  0
  159.5050  200.6560  149.7190 C   0  0  0  0  0  2  0  0  0  0  0  0
  160.5040  201.2470  150.6870 C   0  0  0  0  0  2  0  0  0  0  0  0
  161.3710  205.7090  146.0500 C   0  0  0  0  0  0  0  0  0  0  0  0
  162.2320  206.5820  146.3390 O   0  0  0  0  0  0  0  0  0  0  0  0
  160.5110  205.9360  144.9380 N   0  0  0  0  0  1  0  0  0  0  0  0
  160.8780  210.9910  149.4990 O   0  0  0  0  0  0  0  0  0  0  0  0
  162.3860  212.7030  148.6550 C   0  0  0  0  0  2  0  0  0  0  0  0
  158.1620  213.3570  147.0190 C   0  0  0  0  0  2  0  0  0  0  0  0
  162.6820  212.4250  147.1680 C   0  0  1  0  0  3  0  0  0  0  0  0
  160.9370  212.3240  149.0570 C   0  0  1  0  0  3  0  0  0  0  0  0
  160.0080  212.4940  147.8510 C   0  0  2  0  0  3  0  0  0  0  0  0
  161.6170  213.0380  146.2320 C   0  0  0  0  0  2  0  0  0  0  0  0
  164.0520  212.9570  146.8100 C   0  0  0  0  0  1  0  0  0  0  0  0
  160.4840  213.5600  146.9950 N   0  0  1  0  0  0  0  0  0  0  0  0
  159.3380  213.7590  146.1470 C   0  0  0  0  0  2  0  0  0  0  0  0
  158.6790  212.7680  148.1880 O   0  0  0  0  0  0  0  0  0  0  0  0
  1  7  1  0  0  0  0
  2  1  2  0  0  0  0
  3 48  1  6  0  0  0
  3  2  1  0  0  0  0
  3  6  1  0  0  0  0
  4  7  1  0  0  0  0
  6  4  2  0  0  0  0
  7  5  1  6  0  0  0
  7 10  1  0  0  0  0
  9 11  1  0  0  0  0
 10  9  1  0  0  0  0
 10 12  2  0  0  0  0
 11 13  1  0  0  0  0
 11  8  2  0  0  0  0
 14 13  2  0  0  0  0
 15  6  1  0  0  0  0
 15 16  2  0  0  0  0
 17 16  1  0  0  0  0
 17 18  1  0  0  0  0
 18 20  1  0  0  0  0
 20 19  2  0  0  0  0
 20 24  1  0  0  0  0
 21 25  2  0  0  0  0
 21 24  1  0  0  0  0
 23 18  1  0  0  0  0
 23 21  1  0  0  0  0
 24 22  1  0  0  0  0
 27 26  1  6  0  0  0
 27 28  1  0  0  0  0
 27  2  1  0  0  0  0
 28 29  1  0  0  0  0
 29 31  1  0  0  0  0
 31 30  1  1  0  0  0
 32 33  1  1  0  0  0
 32 31  1  0  0  0  0
 34 32  1  0  0  0  0
 35 34  1  0  0  0  0
 36 35  1  0  0  0  0
 36 42  1  0  0  0  0
 37 38  1  0  0  0  0
 38 41  2  0  0  0  0
 38 40  1  0  0  0  0
 39 35  2  0  0  0  0
 40 36  2  0  0  0  0
 41 39  1  0  0  0  0
 42 43  1  0  0  0  0
 42 44  1  0  0  0  0
 43 44  1  0  0  0  0
 45 46  2  0  0  0  0
 45 41  1  0  0  0  0
 47 45  1  0  0  0  0
 49 52  1  0  0  0  0
 50 58  1  0  0  0  0
 51 55  1  6  0  0  0
 51 49  1  0  0  0  0
 52 48  1  6  0  0  0
 53 58  1  1  0  0  0
 53 52  1  0  0  0  0
 54 56  1  0  0  0  0
 54 51  1  0  0  0  0
 56 57  1  6  0  0  0
 56 53  1  0  0  0  0
 57 50  1  0  0  0  0
M  END
>  <MODEL>
3

>  <REMARK>
 VINA RESULT:      -2.1      1.964      3.560
  Name = 
  16 active torsions:
  status: ('A' for Active; 'I' for Inactive)
    1  A    between atoms: C_1  and  C_14
    2  A    between atoms: N_3  and  C_39
    3  A    between atoms: C_5  and  C_10
    4  A    between atoms: C_8  and  C_52
    5  A    between atoms: C_12  and  C_44
    6  A    between atoms: C_14  and  C_41
    7  A    between atoms: C_17  and  C_42
    8  A    between atoms: O_18  and  C_22
    9  A    between atoms: O_18  and  C_35
   10  A    between atoms: C_21  and  C_33
   11  A    between atoms: C_21  and  C_44
   12  A    between atoms: C_27  and  C_43
   13  A    between atoms: C_31  and  C_39
   14  A    between atoms: C_33  and  C_55
   15  A    between atoms: C_41  and  C_55
   16  A    between atoms: C_46  and  C_50
                            x       y       z     vdW  Elec       q    Type
                         _______ _______ _______ _____ _____    ______ ____

>  <TORSDO>
F 16

$$$$
=
 OpenBabel11072415073D

 58 63  0  0  1  0  0  0  0  0999 V2000
  162.1000  206.4890  149.7960 C   0  0  0  0  0  3  0  0  0  0  0  0
  162.1050  207.2040  150.9370 C   0  0  0  0  0  0  0  0  0  0  0  0
  161.6000  208.6410  150.9060 C   0  0  2  0  0  3  0  0  0  0  0  0
  161.9300  208.5550  148.4640 C   0  0  0  0  0  3  0  0  0  0  0  0
  160.0620  206.9530  148.4810 C   0  0  0  0  0  1  0  0  0  0  0  0
  161.9580  209.3030  149.5750 C   0  0  0  0  0  0  0  0  0  0  0  0
  161.5800  207.0840  148.5120 C   0  0  2  0  0  0  0  0  0  0  0  0
  163.0960  205.1250  144.8640 O   0  0  0  0  0  0  0  0  0  0  0  0
  161.5460  206.4070  146.0620 N   0  0  0  0  0  2  0  0  0  0  0  0
  162.1810  206.3410  147.3470 C   0  0  0  0  0  0  0  0  0  0  0  0
  162.0040  205.7510  144.8730 C   0  0  0  0  0  0  0  0  0  0  0  0
  163.1860  205.5980  147.5200 O   0  0  0  0  0  0  0  0  0  0  0  0
  161.2090  205.8080  143.6420 C   0  0  0  0  0  3  0  0  0  0  0  0
  161.7730  205.9160  142.4450 C   0  0  0  0  0  2  0  0  0  0  0  0
  162.2660  210.7320  149.3970 C   0  0  0  0  0  3  0  0  0  0  0  0
  161.5100  211.5790  148.7140 C   0  0  0  0  0  3  0  0  0  0  0  0
  161.8950  213.0130  148.5760 C   0  0  0  0  0  2  0  0  0  0  0  0
  161.8930  213.4080  147.1760 N   0  0  0  0  0  0  0  0  0  0  0  0
  159.5970  213.9110  146.9240 O   0  0  0  0  0  0  0  0  0  0  0  0
  160.7520  213.8080  146.4330 C   0  0  0  0  0  0  0  0  0  0  0  0
  162.4360  213.7220  144.9510 C   0  0  0  0  0  0  0  0  0  0  0  0
  160.0850  214.1570  143.9890 C   0  0  0  0  0  1  0  0  0  0  0  0
  163.0300  213.3060  146.2660 C   0  0  0  0  0  2  0  0  0  0  0  0
  161.0510  214.0420  145.0710 N   0  0  0  0  0  0  0  0  0  0  0  0
  163.0870  213.6780  143.7970 C   0  0  0  0  0  2  0  0  0  0  0  0
  163.9510  205.8260  151.9720 C   0  0  0  0  0  1  0  0  0  0  0  0
  162.6670  206.6120  152.2060 C   0  0  2  0  0  3  0  0  0  0  0  0
  161.6450  205.8460  153.0540 C   0  0  0  0  0  2  0  0  0  0  0  0
  160.4190  205.3820  152.2720 C   0  0  0  0  0  2  0  0  0  0  0  0
  161.9660  203.4120  152.0730 C   0  0  0  0  0  1  0  0  0  0  0  0
  160.5460  203.9150  151.8690 C   0  0  2  0  0  3  0  0  0  0  0  0
  160.0800  203.6660  150.4340 C   0  0  1  0  0  3  0  0  0  0  0  0
  159.1360  204.6270  150.0650 O   0  0  0  0  0  1  0  0  0  0  0  0
  161.2300  203.6580  149.4310 C   0  0  0  0  0  2  0  0  0  0  0  0
  161.0910  202.5080  148.4850 C   0  0  0  0  0  0  0  0  0  0  0  0
  161.4350  201.1930  148.8470 C   0  0  0  0  0  0  0  0  0  0  0  0
  160.8350  199.2540  145.7230 C   0  0  0  0  0  1  0  0  0  0  0  0
  160.9030  200.4240  146.6470 C   0  0  0  0  0  0  0  0  0  0  0  0
  160.6410  202.7570  147.1900 C   0  0  0  0  0  3  0  0  0  0  0  0
  161.3420  200.2030  147.9160 N   0  0  0  0  0  0  0  0  0  0  0  0
  160.5320  201.7280  146.2480 C   0  0  0  0  0  0  0  0  0  0  0  0
  161.9680  200.8720  150.2150 C   0  0  0  0  0  3  0  0  0  0  0  0
  161.4740  199.5130  150.6840 C   0  0  0  0  0  2  0  0  0  0  0  0
  160.8210  200.7710  151.2070 C   0  0  0  0  0  2  0  0  0  0  0  0
  160.0440  202.0730  144.8870 C   0  0  0  0  0  0  0  0  0  0  0  0
  159.7060  201.1770  144.0690 O   0  0  0  0  0  0  0  0  0  0  0  0
  159.9540  203.4370  144.4870 N   0  0  0  0  0  1  0  0  0  0  0  0
  162.0550  209.3570  152.0270 O   0  0  0  0  0  0  0  0  0  0  0  0
  161.1630  208.9710  154.2570 C   0  0  0  0  0  2  0  0  0  0  0  0
  159.3730  212.7840  152.4660 C   0  0  0  0  0  2  0  0  0  0  0  0
  161.7900  209.9860  155.2330 C   0  0  1  0  0  3  0  0  0  0  0  0
  160.9310  209.5660  152.8450 C   0  0  1  0  0  3  0  0  0  0  0  0
  160.6650  211.0700  152.9570 C   0  0  2  0  0  3  0  0  0  0  0  0
  161.0220  211.3260  155.2620 C   0  0  0  0  0  2  0  0  0  0  0  0
  161.8470  209.3930  156.6240 C   0  0  0  0  0  1  0  0  0  0  0  0
  160.0060  211.3720  154.2100 N   0  0  1  0  0  0  0  0  0  0  0  0
  159.5740  212.7250  153.9700 C   0  0  0  0  0  2  0  0  0  0  0  0
  159.8860  211.5920  151.9200 O   0  0  0  0  0  0  0  0  0  0  0  0
  1  2  2  0  0  0  0
  2 27  1  0  0  0  0
  3  2  1  0  0  0  0
  3 48  1  1  0  0  0
  4  7  1  0  0  0  0
  4  6  2  0  0  0  0
  6  3  1  0  0  0  0
  7  5  1  6  0  0  0
  7  1  1  0  0  0  0
  8 11  2  0  0  0  0
  9 10  1  0  0  0  0
 10 12  2  0  0  0  0
 10  7  1  0  0  0  0
 11  9  1  0  0  0  0
 13 11  1  0  0  0  0
 14 13  2  0  0  0  0
 15  6  1  0  0  0  0
 16 15  2  0  0  0  0
 17 16  1  0  0  0  0
 18 17  1  0  0  0  0
 20 19  2  0  0  0  0
 20 18  1  0  0  0  0
 21 24  1  0  0  0  0
 21 23  1  0  0  0  0
 22 24  1  0  0  0  0
 23 18  1  0  0  0  0
 24 20  1  0  0  0  0
 25 21  2  0  0  0  0
 27 26  1  6  0  0  0
 27 28  1  0  0  0  0
 29 28  1  0  0  0  0
 31 30  1  6  0  0  0
 31 29  1  0  0  0  0
 32 33  1  6  0  0  0
 32 31  1  0  0  0  0
 34 32  1  0  0  0  0
 35 36  1  0  0  0  0
 35 34  1  0  0  0  0
 36 42  1  0  0  0  0
 37 38  1  0  0  0  0
 38 40  1  0  0  0  0
 39 35  2  0  0  0  0
 40 36  2  0  0  0  0
 41 38  2  0  0  0  0
 41 39  1  0  0  0  0
 42 43  1  0  0  0  0
 42 44  1  0  0  0  0
 43 44  1  0  0  0  0
 45 41  1  0  0  0  0
 46 45  2  0  0  0  0
 47 45  1  0  0  0  0
 49 51  1  0  0  0  0
 50 57  1  0  0  0  0
 51 54  1  0  0  0  0
 51 55  1  1  0  0  0
 52 48  1  6  0  0  0
 52 53  1  0  0  0  0
 52 49  1  0  0  0  0
 53 58  1  6  0  0  0
 53 56  1  0  0  0  0
 56 57  1  6  0  0  0
 56 54  1  0  0  0  0
 58 50  1  0  0  0  0
M  END
>  <MODEL>
4

>  <REMARK>
 VINA RESULT:      -0.2      2.325      6.841
  Name = 
  16 active torsions:
  status: ('A' for Active; 'I' for Inactive)
    1  A    between atoms: C_1  and  C_14
    2  A    between atoms: N_3  and  C_39
    3  A    between atoms: C_5  and  C_10
    4  A    between atoms: C_8  and  C_52
    5  A    between atoms: C_12  and  C_44
    6  A    between atoms: C_14  and  C_41
    7  A    between atoms: C_17  and  C_42
    8  A    between atoms: O_18  and  C_22
    9  A    between atoms: O_18  and  C_35
   10  A    between atoms: C_21  and  C_33
   11  A    between atoms: C_21  and  C_44
   12  A    between atoms: C_27  and  C_43
   13  A    between atoms: C_31  and  C_39
   14  A    between atoms: C_33  and  C_55
   15  A    between atoms: C_41  and  C_55
   16  A    between atoms: C_46  and  C_50
                            x       y       z     vdW  Elec       q    Type
                         _______ _______ _______ _____ _____    ______ ____

>  <TORSDO>
F 16

$$$$
=
 OpenBabel11072415073D

 58 64  0  0  1  0  0  0  0  0999 V2000
  159.6450  209.8520  154.5460 C   0  0  0  0  0  3  0  0  0  0  0  0
  160.6260  209.3500  153.7710 C   0  0  0  0  0  0  0  0  0  0  0  0
  161.5070  210.3130  152.9860 C   0  0  2  0  0  3  0  0  0  0  0  0
  159.7350  211.9930  153.3300 C   0  0  0  0  0  3  0  0  0  0  0  0
  160.4010  211.9010  155.6970 C   0  0  0  0  0  1  0  0  0  0  0  0
  160.6950  211.5220  152.5210 C   0  0  0  0  0  0  0  0  0  0  0  0
  159.4350  211.3410  154.6600 C   0  0  2  0  0  0  0  0  0  0  0  0
  155.2580  212.3810  155.6170 O   0  0  0  0  0  0  0  0  0  0  0  0
  157.3270  212.7590  154.5870 N   0  0  0  0  0  2  0  0  0  0  0  0
  158.0150  211.6040  155.0900 C   0  0  0  0  0  0  0  0  0  0  0  0
  155.9810  213.1320  154.9110 C   0  0  0  0  0  0  0  0  0  0  0  0
  157.4650  210.8630  155.9510 O   0  0  0  0  0  0  0  0  0  0  0  0
  155.4220  214.3940  154.4160 C   0  0  0  0  0  3  0  0  0  0  0  0
  154.2400  214.4530  153.8170 C   0  0  0  0  0  2  0  0  0  0  0  0
  160.9280  212.2680  151.2730 C   0  0  0  0  0  0  0  0  0  0  0  0
  160.3260  213.4070  150.9620 C   0  0  0  0  0  3  0  0  0  0  0  0
  160.6140  214.1000  149.6730 C   0  0  0  0  0  2  0  0  0  0  0  0
  159.5800  213.8010  148.6940 N   0  0  0  0  0  0  0  0  0  0  0  0
  160.9020  212.7250  147.0560 O   0  0  0  0  0  0  0  0  0  0  0  0
  159.7850  213.1580  147.4460 C   0  0  0  0  0  0  0  0  0  0  0  0
  157.6260  213.7730  147.4580 C   0  0  0  0  0  0  0  0  0  0  0  0
  158.5240  212.7900  145.2520 C   0  0  0  0  0  1  0  0  0  0  0  0
  158.1930  214.2530  148.7630 C   0  0  0  0  0  2  0  0  0  0  0  0
  158.6030  213.0920  146.6730 N   0  0  0  0  0  0  0  0  0  0  0  0
  156.4030  214.0550  147.0330 C   0  0  0  0  0  2  0  0  0  0  0  0
  160.4400  207.1010  154.9020 C   0  0  0  0  0  1  0  0  0  0  0  0
  160.8000  207.8570  153.6310 C   0  0  2  0  0  3  0  0  0  0  0  0
  162.1500  207.4310  153.0440 C   0  0  0  0  0  2  0  0  0  0  0  0
  162.3310  205.9180  152.9480 C   0  0  0  0  0  2  0  0  0  0  0  0
  160.6940  204.0270  152.7000 C   0  0  0  0  0  1  0  0  0  0  0  0
  161.2560  205.2900  152.0650 C   0  0  2  0  0  3  0  0  0  0  0  0
  161.7590  205.0110  150.6490 C   0  0  1  0  0  3  0  0  0  0  0  0
  162.9530  205.7000  150.4220 O   0  0  0  0  0  1  0  0  0  0  0  0
  161.9610  203.5230  150.3750 C   0  0  0  0  0  2  0  0  0  0  0  0
  161.5310  203.1850  148.9820 C   0  0  0  0  0  0  0  0  0  0  0  0
  160.8880  201.9750  148.6680 C   0  0  0  0  0  0  0  0  0  0  0  0
  160.4480  202.1640  144.9740 C   0  0  0  0  0  1  0  0  0  0  0  0
  160.8460  202.5710  146.3540 C   0  0  0  0  0  0  0  0  0  0  0  0
  161.8140  204.0860  147.9570 C   0  0  0  0  0  3  0  0  0  0  0  0
  160.5810  201.7040  147.3690 N   0  0  0  0  0  0  0  0  0  0  0  0
  161.4760  203.8060  146.6290 C   0  0  0  0  0  0  0  0  0  0  0  0
  160.5980  200.9450  149.7250 C   0  0  0  0  0  3  0  0  0  0  0  0
  159.1080  200.8740  150.0170 C   0  0  0  0  0  2  0  0  0  0  0  0
  160.0240  201.6190  150.9600 C   0  0  0  0  0  2  0  0  0  0  0  0
  161.8100  204.8160  145.5920 C   0  0  0  0  0  0  0  0  0  0  0  0
  163.0060  205.0990  145.3170 O   0  0  0  0  0  0  0  0  0  0  0  0
  160.7680  205.4870  144.8900 N   0  0  0  0  0  1  0  0  0  0  0  0
  162.1690  209.6480  151.9390 O   0  0  0  0  0  0  0  0  0  0  0  0
  161.9900  211.1680  150.0490 C   0  0  1  0  0  3  0  0  0  0  0  0
  160.4870  207.0040  148.8880 C   0  0  0  0  0  2  0  0  0  0  0  0
  163.0820  210.8210  149.0180 C   0  0  1  0  0  3  0  0  0  0  0  0
  161.4320  209.9160  150.7730 C   0  0  1  0  0  3  0  0  0  0  0  0
  161.5120  208.7040  149.8390 C   0  0  2  0  0  3  0  0  0  0  0  0
  162.6370  209.7090  148.0420 C   0  0  0  0  0  2  0  0  0  0  0  0
  163.4700  212.0620  148.2450 C   0  0  0  0  0  1  0  0  0  0  0  0
  161.3650  209.1200  148.4600 N   0  0  1  0  0  0  0  0  0  0  0  0
  161.1480  207.8510  147.8160 C   0  0  0  0  0  2  0  0  0  0  0  0
  160.5550  207.7180  150.0990 O   0  0  0  0  0  0  0  0  0  0  0  0
  1  7  1  0  0  0  0
  2  1  2  0  0  0  0
  3 48  1  6  0  0  0
  3  2  1  0  0  0  0
  4  7  1  0  0  0  0
  6  3  1  0  0  0  0
  6  4  2  0  0  0  0
  7 10  1  0  0  0  0
  7  5  1  1  0  0  0
  9 11  1  0  0  0  0
  9 10  1  0  0  0  0
 10 12  2  0  0  0  0
 11  8  2  0  0  0  0
 13 11  1  0  0  0  0
 14 13  2  0  0  0  0
 15  6  1  0  0  0  0
 16 15  2  0  0  0  0
 17 16  1  0  0  0  0
 18 23  1  0  0  0  0
 18 17  1  0  0  0  0
 19 20  2  0  0  0  0
 20 18  1  0  0  0  0
 21 23  1  0  0  0  0
 22 24  1  0  0  0  0
 24 20  1  0  0  0  0
 24 21  1  0  0  0  0
 25 21  2  0  0  0  0
 27  2  1  0  0  0  0
 27 26  1  1  0  0  0
 28 27  1  0  0  0  0
 29 28  1  0  0  0  0
 31 30  1  1  0  0  0
 31 29  1  0  0  0  0
 32 33  1  1  0  0  0
 32 31  1  0  0  0  0
 34 32  1  0  0  0  0
 35 34  1  0  0  0  0
 36 35  1  0  0  0  0
 36 42  1  0  0  0  0
 37 38  1  0  0  0  0
 38 41  2  0  0  0  0
 38 40  1  0  0  0  0
 39 35  2  0  0  0  0
 40 36  2  0  0  0  0
 41 39  1  0  0  0  0
 42 43  1  0  0  0  0
 42 44  1  0  0  0  0
 43 44  1  0  0  0  0
 45 41  1  0  0  0  0
 46 45  2  0  0  0  0
 47 45  1  0  0  0  0
 49 52  1  0  0  0  0
 49 15  1  1  0  0  0
 50 58  1  0  0  0  0
 51 55  1  6  0  0  0
 51 49  1  0  0  0  0
 52 48  1  1  0  0  0
 53 58  1  1  0  0  0
 53 52  1  0  0  0  0
 54 56  1  0  0  0  0
 54 51  1  0  0  0  0
 56 57  1  6  0  0  0
 56 53  1  0  0  0  0
 57 50  1  0  0  0  0
M  END
>  <MODEL>
5

>  <REMARK>
 VINA RESULT:      -0.1      2.192      5.058
  Name = 
  16 active torsions:
  status: ('A' for Active; 'I' for Inactive)
    1  A    between atoms: C_1  and  C_14
    2  A    between atoms: N_3  and  C_39
    3  A    between atoms: C_5  and  C_10
    4  A    between atoms: C_8  and  C_52
    5  A    between atoms: C_12  and  C_44
    6  A    between atoms: C_14  and  C_41
    7  A    between atoms: C_17  and  C_42
    8  A    between atoms: O_18  and  C_22
    9  A    between atoms: O_18  and  C_35
   10  A    between atoms: C_21  and  C_33
   11  A    between atoms: C_21  and  C_44
   12  A    between atoms: C_27  and  C_43
   13  A    between atoms: C_31  and  C_39
   14  A    between atoms: C_33  and  C_55
   15  A    between atoms: C_41  and  C_55
   16  A    between atoms: C_46  and  C_50
                            x       y       z     vdW  Elec       q    Type
                         _______ _______ _______ _____ _____    ______ ____

>  <TORSDO>
F 16

$$$$
