=
 OpenBabel11072413553D

 46 48  0  0  1  0  0  0  0  0999 V2000
  160.9290  214.4530  148.8490 C   0  0  0  0  0  2  0  0  0  0  0  0
  162.8030  213.0320  147.8820 C   0  0  0  0  0  2  0  0  0  0  0  0
  162.0130  212.0410  147.1160 N   0  0  0  0  0  0  0  0  0  0  0  0
  161.0890  212.6570  146.1400 C   0  0  1  0  0  3  0  0  0  0  0  0
  159.9500  213.7170  148.0620 N   0  0  2  0  0  0  0  0  0  0  0  0
  162.1180  213.5510  149.1580 C   0  0  0  0  0  2  0  0  0  0  0  0
  160.3130  213.8790  146.6550 C   0  0  0  0  0  2  0  0  0  0  0  0
  158.6010  214.2110  148.3650 C   0  0  2  0  0  3  0  0  0  0  0  0
  155.9160  214.1030  149.1180 N   0  0  0  0  0  0  0  0  0  0  0  0
  156.1700  214.1670  147.8430 C   0  0  0  0  0  3  0  0  0  0  0  0
  158.1810  213.8080  149.7550 C   0  0  0  0  0  0  0  0  0  0  0  0
  157.5350  213.8340  147.3230 C   0  0  0  0  0  2  0  0  0  0  0  0
  156.9160  213.8000  150.0640 N   0  0  0  0  0  0  0  0  0  0  0  0
  159.1710  213.4870  150.6960 O   0  0  0  0  0  0  0  0  0  0  0  0
  159.2110  211.7640  152.3700 C   0  0  0  0  0  3  0  0  0  0  0  0
  159.0840  211.3390  153.6940 C   0  0  0  0  0  3  0  0  0  0  0  0
  158.5890  214.0050  153.0290 C   0  0  0  0  0  3  0  0  0  0  0  0
  158.7110  212.2460  154.6900 C   0  0  0  0  0  0  0  0  0  0  0  0
  158.9720  213.1000  152.0280 C   0  0  0  0  0  0  0  0  0  0  0  0
  158.4600  213.5790  154.3530 C   0  0  0  0  0  3  0  0  0  0  0  0
  157.1710  211.5980  156.7690 O   0  0  0  0  0  0  0  0  0  0  0  0
  159.2720  212.7430  157.2600 O   0  0  0  0  0  0  0  0  0  0  0  0
  158.6170  211.7290  156.3650 S   0  0  0  0  0  0  0  0  0  0  0  0
  159.3860  210.1830  156.5430 N   0  0  0  0  0  2  0  0  0  0  0  0
  160.8040  209.9870  156.5220 C   0  0  0  0  0  0  0  0  0  0  0  0
  161.2660  208.8190  156.5620 O   0  0  0  0  0  0  0  0  0  0  0  0
  163.0490  210.6720  156.2840 O   0  0  0  0  0  1  0  0  0  0  0  0
  161.7500  211.1400  156.4890 C   0  0  0  0  0  2  0  0  0  0  0  0
  161.8400  213.0660  144.8830 C   0  0  0  0  0  2  0  0  0  0  0  0
  161.1110  212.6580  143.6490 C   0  0  0  0  0  0  0  0  0  0  0  0
  160.2660  211.7780  143.6990 O   0  0  0  0  0  0  0  0  0  0  0  0
  161.3720  213.3620  142.3620 C   0  0  0  0  0  1  0  0  0  0  0  0
  161.2750  211.1090  147.9700 C   0  0  0  0  0  2  0  0  0  0  0  0
  162.2270  210.2720  148.8100 C   0  0  0  0  0  2  0  0  0  0  0  0
  161.7420  208.6960  150.6660 C   0  0  0  0  0  1  0  0  0  0  0  0
  161.5980  208.9320  149.1720 C   0  0  2  0  0  3  0  0  0  0  0  0
  162.2270  207.8010  148.4100 C   0  0  0  0  0  0  0  0  0  0  0  0
  163.3480  207.9340  147.9360 O   0  0  0  0  0  0  0  0  0  0  0  0
  161.4920  206.4970  148.2770 C   0  0  1  0  0  3  0  0  0  0  0  0
  160.2050  206.6210  148.8010 O   0  0  0  0  0  1  0  0  0  0  0  0
  161.4130  206.1080  146.9220 O   0  0  0  0  0  0  0  0  0  0  0  0
  161.8980  204.7850  146.7550 C   0  0  0  0  0  0  0  0  0  0  0  0
  161.5070  203.9850  147.9890 C   0  0  0  0  0  1  0  0  0  0  0  0
  163.4230  204.7540  146.6770 C   0  0  0  0  0  1  0  0  0  0  0  0
  160.4710  205.0280  144.6590 C   0  0  0  0  0  1  0  0  0  0  0  0
  161.3110  204.0870  145.5150 C   0  0  0  0  0  2  0  0  0  0  0  0
  1  6  1  0  0  0  0
  2  6  1  0  0  0  0
  3  2  1  0  0  0  0
  3 33  1  0  0  0  0
  4 29  1  6  0  0  0
  4  7  1  0  0  0  0
  4  3  1  0  0  0  0
  5  7  1  6  0  0  0
  5  8  1  0  0  0  0
  5  1  1  0  0  0  0
  8 12  1  6  0  0  0
  8 11  1  0  0  0  0
  9 13  1  0  0  0  0
 10  9  2  0  0  0  0
 11 13  2  0  0  0  0
 11 14  1  0  0  0  0
 12 10  1  0  0  0  0
 14 19  1  0  0  0  0
 15 16  1  0  0  0  0
 16 18  2  0  0  0  0
 17 20  2  0  0  0  0
 18 23  1  0  0  0  0
 19 15  2  0  0  0  0
 19 17  1  0  0  0  0
 20 18  1  0  0  0  0
 23 24  1  0  0  0  0
 23 21  2  0  0  0  0
 23 22  2  0  0  0  0
 25 24  1  0  0  0  0
 25 26  2  0  0  0  0
 27 28  1  0  0  0  0
 28 25  1  0  0  0  0
 30 31  2  0  0  0  0
 30 29  1  0  0  0  0
 32 30  1  0  0  0  0
 33 34  1  0  0  0  0
 34 36  1  0  0  0  0
 36 35  1  1  0  0  0
 37 36  1  0  0  0  0
 38 37  2  0  0  0  0
 39 37  1  0  0  0  0
 39 40  1  6  0  0  0
 41 39  1  0  0  0  0
 42 41  1  0  0  0  0
 42 43  1  0  0  0  0
 44 42  1  0  0  0  0
 45 46  1  0  0  0  0
 46 42  1  0  0  0  0
M  END
>  <MODEL>
1

>  <REMARK>
 VINA RESULT:      -5.3      0.000      0.000
  Name = 
  16 active torsions:
  status: ('A' for Active; 'I' for Inactive)
    1  A    between atoms: C_1  and  C_8
    2  A    between atoms: C_2  and  C_17
    3  A    between atoms: C_2  and  O_21
    4  A    between atoms: O_4  and  C_35
    5  A    between atoms: O_4  and  C_39
    6  A    between atoms: C_5  and  O_21
    7  A    between atoms: C_5  and  C_38
    8  A    between atoms: C_8  and  C_12
    9  A    between atoms: N_10  and  S_25
   10  A    between atoms: N_11  and  C_30
   11  A    between atoms: N_14  and  C_28
   12  A    between atoms: C_16  and  C_40
   13  A    between atoms: C_17  and  C_34
   14  A    between atoms: C_24  and  C_30
   15  A    between atoms: C_24  and  C_34
   16  A    between atoms: S_25  and  C_32
                            x       y       z     vdW  Elec       q    Type
                         _______ _______ _______ _____ _____    ______ ____

>  <TORSDO>
F 16

$$$$
=
 OpenBabel11072413553D

 46 48  0  0  1  0  0  0  0  0999 V2000
  160.8440  214.4530  148.9210 C   0  0  0  0  0  2  0  0  0  0  0  0
  162.7610  213.1320  147.8970 C   0  0  0  0  0  2  0  0  0  0  0  0
  162.0020  212.1110  147.1410 N   0  0  0  0  0  0  0  0  0  0  0  0
  161.0260  212.6890  146.1930 C   0  0  1  0  0  3  0  0  0  0  0  0
  159.8840  213.6760  148.1510 N   0  0  2  0  0  0  0  0  0  0  0  0
  162.0820  213.6080  149.1940 C   0  0  0  0  0  2  0  0  0  0  0  0
  160.2040  213.8670  146.7370 C   0  0  0  0  0  2  0  0  0  0  0  0
  158.5200  214.1020  148.4890 C   0  0  2  0  0  3  0  0  0  0  0  0
  155.8820  213.8700  149.3710 N   0  0  0  0  0  0  0  0  0  0  0  0
  156.0760  213.8800  148.0830 C   0  0  0  0  0  3  0  0  0  0  0  0
  158.1860  213.7500  149.9160 C   0  0  0  0  0  0  0  0  0  0  0  0
  157.4360  213.6040  147.5190 C   0  0  0  0  0  2  0  0  0  0  0  0
  156.9390  213.6810  150.2830 N   0  0  0  0  0  0  0  0  0  0  0  0
  159.2340  213.5430  150.8260 O   0  0  0  0  0  0  0  0  0  0  0  0
  159.2710  211.7610  152.4380 C   0  0  0  0  0  3  0  0  0  0  0  0
  159.2250  211.2990  153.7550 C   0  0  0  0  0  3  0  0  0  0  0  0
  158.9110  214.0210  153.2170 C   0  0  0  0  0  3  0  0  0  0  0  0
  159.0240  212.1960  154.8070 C   0  0  0  0  0  0  0  0  0  0  0  0
  159.1220  213.1250  152.1590 C   0  0  0  0  0  0  0  0  0  0  0  0
  158.8630  213.5580  154.5350 C   0  0  0  0  0  3  0  0  0  0  0  0
  160.0920  212.3690  157.2450 O   0  0  0  0  0  0  0  0  0  0  0  0
  159.3550  210.1600  156.5130 O   0  0  0  0  0  0  0  0  0  0  0  0
  159.0360  211.6270  156.4670 S   0  0  0  0  0  0  0  0  0  0  0  0
  157.4920  211.9300  157.2000 N   0  0  0  0  0  2  0  0  0  0  0  0
  156.2390  211.6010  156.5900 C   0  0  0  0  0  0  0  0  0  0  0  0
  155.1690  211.9470  157.1540 O   0  0  0  0  0  0  0  0  0  0  0  0
  154.9060  210.2480  155.1910 O   0  0  0  0  0  1  0  0  0  0  0  0
  156.1700  210.8280  155.3170 C   0  0  0  0  0  2  0  0  0  0  0  0
  161.7250  213.1450  144.9220 C   0  0  0  0  0  2  0  0  0  0  0  0
  160.9050  212.8620  143.7100 C   0  0  0  0  0  0  0  0  0  0  0  0
  159.7210  213.1590  143.6880 O   0  0  0  0  0  0  0  0  0  0  0  0
  161.5430  212.2670  142.5020 C   0  0  0  0  0  1  0  0  0  0  0  0
  161.3300  211.1370  148.0030 C   0  0  0  0  0  2  0  0  0  0  0  0
  162.3410  210.2400  148.6990 C   0  0  0  0  0  2  0  0  0  0  0  0
  162.0470  209.2100  150.9380 C   0  0  0  0  0  1  0  0  0  0  0  0
  161.6420  209.1320  149.4770 C   0  0  2  0  0  3  0  0  0  0  0  0
  161.9700  207.7750  148.9240 C   0  0  0  0  0  0  0  0  0  0  0  0
  162.7690  207.6680  148.0030 O   0  0  0  0  0  0  0  0  0  0  0  0
  161.3490  206.5520  149.5410 C   0  0  1  0  0  3  0  0  0  0  0  0
  161.4490  205.4740  148.6630 O   0  0  0  0  0  1  0  0  0  0  0  0
  161.9890  206.2310  150.7570 O   0  0  0  0  0  0  0  0  0  0  0  0
  161.2670  205.2260  151.4510 C   0  0  0  0  0  0  0  0  0  0  0  0
  162.2230  204.0780  151.7370 C   0  0  0  0  0  1  0  0  0  0  0  0
  160.1400  204.6550  150.5910 C   0  0  0  0  0  1  0  0  0  0  0  0
  161.5610  206.7830  153.4450 C   0  0  0  0  0  1  0  0  0  0  0  0
  160.6850  205.7230  152.7860 C   0  0  0  0  0  2  0  0  0  0  0  0
  1  6  1  0  0  0  0
  2  6  1  0  0  0  0
  3  2  1  0  0  0  0
  3 33  1  0  0  0  0
  4 29  1  6  0  0  0
  4  7  1  0  0  0  0
  4  3  1  0  0  0  0
  5  7  1  6  0  0  0
  5  8  1  0  0  0  0
  5  1  1  0  0  0  0
  8 12  1  6  0  0  0
  8 11  1  0  0  0  0
  9 13  1  0  0  0  0
 10  9  2  0  0  0  0
 11 13  2  0  0  0  0
 11 14  1  0  0  0  0
 12 10  1  0  0  0  0
 14 19  1  0  0  0  0
 15 16  1  0  0  0  0
 16 18  2  0  0  0  0
 17 20  2  0  0  0  0
 18 23  1  0  0  0  0
 19 15  2  0  0  0  0
 19 17  1  0  0  0  0
 20 18  1  0  0  0  0
 23 22  2  0  0  0  0
 23 24  1  0  0  0  0
 23 21  2  0  0  0  0
 25 26  2  0  0  0  0
 25 24  1  0  0  0  0
 27 28  1  0  0  0  0
 28 25  1  0  0  0  0
 30 29  1  0  0  0  0
 31 30  2  0  0  0  0
 32 30  1  0  0  0  0
 33 34  1  0  0  0  0
 34 36  1  0  0  0  0
 36 35  1  1  0  0  0
 37 36  1  0  0  0  0
 37 39  1  0  0  0  0
 38 37  2  0  0  0  0
 39 40  1  6  0  0  0
 39 41  1  0  0  0  0
 41 42  1  0  0  0  0
 42 43  1  0  0  0  0
 42 46  1  0  0  0  0
 44 42  1  0  0  0  0
 46 45  1  0  0  0  0
M  END
>  <MODEL>
2

>  <REMARK>
 VINA RESULT:      -4.5      1.817      3.026
  Name = 
  16 active torsions:
  status: ('A' for Active; 'I' for Inactive)
    1  A    between atoms: C_1  and  C_8
    2  A    between atoms: C_2  and  C_17
    3  A    between atoms: C_2  and  O_21
    4  A    between atoms: O_4  and  C_35
    5  A    between atoms: O_4  and  C_39
    6  A    between atoms: C_5  and  O_21
    7  A    between atoms: C_5  and  C_38
    8  A    between atoms: C_8  and  C_12
    9  A    between atoms: N_10  and  S_25
   10  A    between atoms: N_11  and  C_30
   11  A    between atoms: N_14  and  C_28
   12  A    between atoms: C_16  and  C_40
   13  A    between atoms: C_17  and  C_34
   14  A    between atoms: C_24  and  C_30
   15  A    between atoms: C_24  and  C_34
   16  A    between atoms: S_25  and  C_32
                            x       y       z     vdW  Elec       q    Type
                         _______ _______ _______ _____ _____    ______ ____

>  <TORSDO>
F 16

$$$$
=
 OpenBabel11072413553D

 46 48  0  0  1  0  0  0  0  0999 V2000
  160.8910  214.4520  148.9770 C   0  0  0  0  0  2  0  0  0  0  0  0
  162.8100  213.1400  147.9440 C   0  0  0  0  0  2  0  0  0  0  0  0
  162.0530  212.0930  147.2210 N   0  0  0  0  0  0  0  0  0  0  0  0
  161.0530  212.6380  146.2790 C   0  0  1  0  0  3  0  0  0  0  0  0
  159.9300  213.6460  148.2380 N   0  0  2  0  0  0  0  0  0  0  0  0
  162.1470  213.6300  149.2430 C   0  0  0  0  0  2  0  0  0  0  0  0
  160.2220  213.8150  146.8160 C   0  0  0  0  0  2  0  0  0  0  0  0
  158.5650  214.0580  148.5920 C   0  0  2  0  0  3  0  0  0  0  0  0
  155.9680  213.8200  149.5850 N   0  0  0  0  0  0  0  0  0  0  0  0
  156.1180  213.7350  148.2950 C   0  0  0  0  0  3  0  0  0  0  0  0
  158.2920  213.8090  150.0540 C   0  0  0  0  0  0  0  0  0  0  0  0
  157.4650  213.4540  147.7040 C   0  0  0  0  0  2  0  0  0  0  0  0
  157.0610  213.7340  150.4700 N   0  0  0  0  0  0  0  0  0  0  0  0
  159.3770  213.7040  150.9380 O   0  0  0  0  0  0  0  0  0  0  0  0
  158.8670  213.6370  153.2840 C   0  0  0  0  0  3  0  0  0  0  0  0
  158.8180  212.9670  154.5090 C   0  0  0  0  0  3  0  0  0  0  0  0
  159.9130  211.7080  152.2710 C   0  0  0  0  0  3  0  0  0  0  0  0
  159.3160  211.6660  154.6180 C   0  0  0  0  0  0  0  0  0  0  0  0
  159.4070  213.0110  152.1550 C   0  0  0  0  0  0  0  0  0  0  0  0
  159.8670  211.0390  153.4970 C   0  0  0  0  0  3  0  0  0  0  0  0
  157.7410  210.5540  156.4610 O   0  0  0  0  0  0  0  0  0  0  0  0
  159.7980  211.6080  157.2510 O   0  0  0  0  0  0  0  0  0  0  0  0
  159.1930  210.7980  156.1390 S   0  0  0  0  0  0  0  0  0  0  0  0
  159.9980  209.2670  156.0050 N   0  0  0  0  0  2  0  0  0  0  0  0
  161.3700  209.0500  156.3510 C   0  0  0  0  0  0  0  0  0  0  0  0
  161.8940  207.9290  156.1280 O   0  0  0  0  0  0  0  0  0  0  0  0
  162.7420  210.9420  156.0250 O   0  0  0  0  0  1  0  0  0  0  0  0
  162.1870  210.1150  157.0030 C   0  0  0  0  0  2  0  0  0  0  0  0
  161.7230  213.0800  144.9880 C   0  0  0  0  0  2  0  0  0  0  0  0
  160.7810  213.0330  143.8340 C   0  0  0  0  0  0  0  0  0  0  0  0
  159.7520  213.6890  143.8550 O   0  0  0  0  0  0  0  0  0  0  0  0
  161.1210  212.2270  142.6280 C   0  0  0  0  0  1  0  0  0  0  0  0
  161.4120  211.1260  148.1130 C   0  0  0  0  0  2  0  0  0  0  0  0
  161.9660  209.7280  147.8880 C   0  0  0  0  0  2  0  0  0  0  0  0
  162.0870  209.3820  150.3420 C   0  0  0  0  0  1  0  0  0  0  0  0
  161.5830  208.8000  149.0330 C   0  0  2  0  0  3  0  0  0  0  0  0
  162.1400  207.4190  148.8360 C   0  0  0  0  0  0  0  0  0  0  0  0
  163.3300  207.2080  149.0300 O   0  0  0  0  0  0  0  0  0  0  0  0
  161.2180  206.2960  148.4480 C   0  0  1  0  0  3  0  0  0  0  0  0
  160.9990  206.3160  147.0710 O   0  0  0  0  0  1  0  0  0  0  0  0
  161.7700  205.0510  148.8200 O   0  0  0  0  0  0  0  0  0  0  0  0
  161.1150  204.5390  149.9690 C   0  0  0  0  0  0  0  0  0  0  0  0
  160.6850  203.1120  149.6640 C   0  0  0  0  0  1  0  0  0  0  0  0
  159.8420  205.3230  150.2830 C   0  0  0  0  0  1  0  0  0  0  0  0
  161.2620  204.8630  152.4910 C   0  0  0  0  0  1  0  0  0  0  0  0
  162.0200  204.5200  151.2140 C   0  0  0  0  0  2  0  0  0  0  0  0
  1  6  1  0  0  0  0
  2  6  1  0  0  0  0
  3  2  1  0  0  0  0
  3 33  1  0  0  0  0
  4 29  1  6  0  0  0
  4  7  1  0  0  0  0
  4  3  1  0  0  0  0
  5  7  1  6  0  0  0
  5  8  1  0  0  0  0
  5  1  1  0  0  0  0
  8 12  1  6  0  0  0
  8 11  1  0  0  0  0
  9 13  1  0  0  0  0
 10  9  2  0  0  0  0
 11 13  2  0  0  0  0
 11 14  1  0  0  0  0
 12 10  1  0  0  0  0
 14 19  1  0  0  0  0
 15 16  1  0  0  0  0
 16 18  2  0  0  0  0
 17 20  2  0  0  0  0
 18 23  1  0  0  0  0
 19 17  1  0  0  0  0
 19 15  2  0  0  0  0
 20 18  1  0  0  0  0
 23 21  2  0  0  0  0
 23 22  2  0  0  0  0
 24 23  1  0  0  0  0
 24 25  1  0  0  0  0
 25 28  1  0  0  0  0
 26 25  2  0  0  0  0
 27 28  1  0  0  0  0
 30 31  2  0  0  0  0
 30 29  1  0  0  0  0
 32 30  1  0  0  0  0
 34 33  1  0  0  0  0
 34 36  1  0  0  0  0
 36 35  1  1  0  0  0
 37 38  2  0  0  0  0
 37 36  1  0  0  0  0
 39 40  1  6  0  0  0
 39 41  1  0  0  0  0
 39 37  1  0  0  0  0
 41 42  1  0  0  0  0
 42 44  1  0  0  0  0
 42 46  1  0  0  0  0
 43 42  1  0  0  0  0
 46 45  1  0  0  0  0
M  END
>  <MODEL>
3

>  <REMARK>
 VINA RESULT:      -4.2      1.308      2.045
  Name = 
  16 active torsions:
  status: ('A' for Active; 'I' for Inactive)
    1  A    between atoms: C_1  and  C_8
    2  A    between atoms: C_2  and  C_17
    3  A    between atoms: C_2  and  O_21
    4  A    between atoms: O_4  and  C_35
    5  A    between atoms: O_4  and  C_39
    6  A    between atoms: C_5  and  O_21
    7  A    between atoms: C_5  and  C_38
    8  A    between atoms: C_8  and  C_12
    9  A    between atoms: N_10  and  S_25
   10  A    between atoms: N_11  and  C_30
   11  A    between atoms: N_14  and  C_28
   12  A    between atoms: C_16  and  C_40
   13  A    between atoms: C_17  and  C_34
   14  A    between atoms: C_24  and  C_30
   15  A    between atoms: C_24  and  C_34
   16  A    between atoms: S_25  and  C_32
                            x       y       z     vdW  Elec       q    Type
                         _______ _______ _______ _____ _____    ______ ____

>  <TORSDO>
F 16

$$$$
=
 OpenBabel11072413553D

 46 48  0  0  1  0  0  0  0  0999 V2000
  163.0990  211.5480  148.6630 C   0  0  0  0  0  2  0  0  0  0  0  0
  162.5730  213.8160  147.6380 C   0  0  0  0  0  2  0  0  0  0  0  0
  161.1900  213.5760  147.1650 N   0  0  0  0  0  0  0  0  0  0  0  0
  160.2780  213.1130  148.2320 C   0  0  1  0  0  3  0  0  0  0  0  0
  161.7250  211.1200  148.4440 N   0  0  2  0  0  0  0  0  0  0  0  0
  163.4860  212.5780  147.6080 C   0  0  0  0  0  2  0  0  0  0  0  0
  160.8590  212.0460  149.1720 C   0  0  0  0  0  2  0  0  0  0  0  0
  161.5670  209.7270  148.8820 C   0  0  2  0  0  3  0  0  0  0  0  0
  162.2960  207.2530  149.9480 N   0  0  0  0  0  0  0  0  0  0  0  0
  162.2600  207.3500  148.6510 C   0  0  0  0  0  3  0  0  0  0  0  0
  161.9650  209.5700  150.3270 C   0  0  0  0  0  0  0  0  0  0  0  0
  162.2740  208.6930  147.9890 C   0  0  0  0  0  2  0  0  0  0  0  0
  162.2690  208.3890  150.7820 N   0  0  0  0  0  0  0  0  0  0  0  0
  161.9570  210.7010  151.1590 O   0  0  0  0  0  0  0  0  0  0  0  0
  160.0800  211.3100  152.5290 C   0  0  0  0  0  3  0  0  0  0  0  0
  159.4390  211.3810  153.7670 C   0  0  0  0  0  3  0  0  0  0  0  0
  162.0420  210.3850  153.5970 C   0  0  0  0  0  3  0  0  0  0  0  0
  160.0960  210.9520  154.9240 C   0  0  0  0  0  0  0  0  0  0  0  0
  161.3820  210.8050  152.4320 C   0  0  0  0  0  0  0  0  0  0  0  0
  161.4010  210.4580  154.8360 C   0  0  0  0  0  3  0  0  0  0  0  0
  159.7130  212.1820  157.2600 O   0  0  0  0  0  0  0  0  0  0  0  0
  159.6000  209.7420  157.2600 O   0  0  0  0  0  0  0  0  0  0  0  0
  159.2670  210.9770  156.4710 S   0  0  0  0  0  0  0  0  0  0  0  0
  157.5540  211.0830  156.2150 N   0  0  0  0  0  2  0  0  0  0  0  0
  156.8490  212.3140  156.0240 C   0  0  0  0  0  0  0  0  0  0  0  0
  155.5940  212.3000  155.9430 O   0  0  0  0  0  0  0  0  0  0  0  0
  157.0270  214.3360  154.8220 O   0  0  0  0  0  1  0  0  0  0  0  0
  157.5690  213.6130  155.8860 C   0  0  0  0  0  2  0  0  0  0  0  0
  159.8110  214.2870  149.0780 C   0  0  0  0  0  2  0  0  0  0  0  0
  158.5750  213.9570  149.8430 C   0  0  0  0  0  0  0  0  0  0  0  0
  158.5230  214.1670  151.0440 O   0  0  0  0  0  0  0  0  0  0  0  0
  157.3800  213.4220  149.1320 C   0  0  0  0  0  1  0  0  0  0  0  0
  161.1230  212.6560  146.0280 C   0  0  0  0  0  2  0  0  0  0  0  0
  161.8560  213.2260  144.8240 C   0  0  0  0  0  2  0  0  0  0  0  0
  159.4610  213.4150  144.2000 C   0  0  0  0  0  1  0  0  0  0  0  0
  160.8870  213.5250  143.6870 C   0  0  2  0  0  3  0  0  0  0  0  0
  161.0900  212.5930  142.5280 C   0  0  0  0  0  0  0  0  0  0  0  0
  160.5780  211.4800  142.5420 O   0  0  0  0  0  0  0  0  0  0  0  0
  161.8820  213.0530  141.3350 C   0  0  1  0  0  3  0  0  0  0  0  0
  162.8590  213.9640  141.7370 O   0  0  0  0  0  1  0  0  0  0  0  0
  162.4950  211.9560  140.6940 O   0  0  0  0  0  0  0  0  0  0  0  0
  162.2150  211.9710  139.3030 C   0  0  0  0  0  0  0  0  0  0  0  0
  163.2110  212.9090  138.6370 C   0  0  0  0  0  1  0  0  0  0  0  0
  160.8240  212.5350  139.0190 C   0  0  0  0  0  1  0  0  0  0  0  0
  161.5540  210.4720  137.3530 C   0  0  0  0  0  1  0  0  0  0  0  0
  162.3420  210.5820  138.6540 C   0  0  0  0  0  2  0  0  0  0  0  0
  3  2  1  0  0  0  0
  3  4  1  0  0  0  0
  4 29  1  1  0  0  0
  4  7  1  0  0  0  0
  5  1  1  1  0  0  0
  5  8  1  0  0  0  0
  5  7  1  0  0  0  0
  6  2  1  0  0  0  0
  6  1  1  0  0  0  0
  8 12  1  6  0  0  0
  8 11  1  0  0  0  0
  9 13  1  0  0  0  0
 10  9  2  0  0  0  0
 11 13  2  0  0  0  0
 11 14  1  0  0  0  0
 12 10  1  0  0  0  0
 14 19  1  0  0  0  0
 15 16  1  0  0  0  0
 16 18  2  0  0  0  0
 17 20  2  0  0  0  0
 18 23  1  0  0  0  0
 19 15  2  0  0  0  0
 19 17  1  0  0  0  0
 20 18  1  0  0  0  0
 23 22  2  0  0  0  0
 23 21  2  0  0  0  0
 24 23  1  0  0  0  0
 25 24  1  0  0  0  0
 26 25  2  0  0  0  0
 27 28  1  0  0  0  0
 28 25  1  0  0  0  0
 29 30  1  0  0  0  0
 30 31  2  0  0  0  0
 32 30  1  0  0  0  0
 33  3  1  0  0  0  0
 34 33  1  0  0  0  0
 36 35  1  1  0  0  0
 36 34  1  0  0  0  0
 37 38  2  0  0  0  0
 37 36  1  0  0  0  0
 39 40  1  1  0  0  0
 39 37  1  0  0  0  0
 41 39  1  0  0  0  0
 42 41  1  0  0  0  0
 43 42  1  0  0  0  0
 44 42  1  0  0  0  0
 45 46  1  0  0  0  0
 46 42  1  0  0  0  0
M  END
>  <MODEL>
4

>  <REMARK>
 VINA RESULT:      -4.1      2.593      6.489
  Name = 
  16 active torsions:
  status: ('A' for Active; 'I' for Inactive)
    1  A    between atoms: C_1  and  C_8
    2  A    between atoms: C_2  and  C_17
    3  A    between atoms: C_2  and  O_21
    4  A    between atoms: O_4  and  C_35
    5  A    between atoms: O_4  and  C_39
    6  A    between atoms: C_5  and  O_21
    7  A    between atoms: C_5  and  C_38
    8  A    between atoms: C_8  and  C_12
    9  A    between atoms: N_10  and  S_25
   10  A    between atoms: N_11  and  C_30
   11  A    between atoms: N_14  and  C_28
   12  A    between atoms: C_16  and  C_40
   13  A    between atoms: C_17  and  C_34
   14  A    between atoms: C_24  and  C_30
   15  A    between atoms: C_24  and  C_34
   16  A    between atoms: S_25  and  C_32
                            x       y       z     vdW  Elec       q    Type
                         _______ _______ _______ _____ _____    ______ ____

>  <TORSDO>
F 16

$$$$
=
 OpenBabel11072413553D

 46 48  0  0  1  0  0  0  0  0999 V2000
  162.8550  212.6460  149.1930 C   0  0  0  0  0  2  0  0  0  0  0  0
  161.6770  213.9270  147.3380 C   0  0  0  0  0  2  0  0  0  0  0  0
  160.3920  213.1920  147.2860 N   0  0  0  0  0  0  0  0  0  0  0  0
  159.6950  213.1390  148.5890 C   0  0  1  0  0  3  0  0  0  0  0  0
  161.6430  211.8820  149.4490 N   0  0  2  0  0  0  0  0  0  0  0  0
  162.8930  213.0680  147.7290 C   0  0  0  0  0  2  0  0  0  0  0  0
  160.5920  212.8360  149.7990 C   0  0  0  0  0  2  0  0  0  0  0  0
  161.8950  210.8960  150.5080 C   0  0  2  0  0  3  0  0  0  0  0  0
  161.3770  208.7700  152.2380 N   0  0  0  0  0  0  0  0  0  0  0  0
  161.2580  209.9710  152.7260 C   0  0  0  0  0  3  0  0  0  0  0  0
  161.6750  209.4940  150.0010 C   0  0  0  0  0  0  0  0  0  0  0  0
  161.1240  211.1510  151.8130 C   0  0  0  0  0  2  0  0  0  0  0  0
  161.4640  208.5320  150.8520 N   0  0  0  0  0  0  0  0  0  0  0  0
  161.7420  209.2550  148.6200 O   0  0  0  0  0  0  0  0  0  0  0  0
  162.8040  207.1600  148.1140 C   0  0  0  0  0  3  0  0  0  0  0  0
  162.7900  205.8860  147.5440 C   0  0  0  0  0  3  0  0  0  0  0  0
  160.5840  207.5700  147.2510 C   0  0  0  0  0  3  0  0  0  0  0  0
  161.6730  205.4480  146.8280 C   0  0  0  0  0  0  0  0  0  0  0  0
  161.7000  208.0090  147.9790 C   0  0  0  0  0  0  0  0  0  0  0  0
  160.5710  206.2960  146.6790 C   0  0  0  0  0  3  0  0  0  0  0  0
  162.8610  203.5820  145.3380 O   0  0  0  0  0  0  0  0  0  0  0  0
  160.4200  203.6500  145.2900 O   0  0  0  0  0  0  0  0  0  0  0  0
  161.6270  203.8220  146.1690 S   0  0  0  0  0  0  0  0  0  0  0  0
  161.5960  202.6670  147.4650 N   0  0  0  0  0  2  0  0  0  0  0  0
  161.1810  201.3060  147.3140 C   0  0  0  0  0  0  0  0  0  0  0  0
  161.1000  200.5690  148.3300 O   0  0  0  0  0  0  0  0  0  0  0  0
  161.2620  199.3870  145.9440 O   0  0  0  0  0  1  0  0  0  0  0  0
  160.8740  200.7280  145.9740 C   0  0  0  0  0  2  0  0  0  0  0  0
  158.9650  214.4460  148.8540 C   0  0  0  0  0  2  0  0  0  0  0  0
  157.5010  214.2320  149.0350 C   0  0  0  0  0  0  0  0  0  0  0  0
  157.0200  214.2020  150.1560 O   0  0  0  0  0  0  0  0  0  0  0  0
  156.6140  214.1100  147.8440 C   0  0  0  0  0  1  0  0  0  0  0  0
  160.5250  211.8380  146.7450 C   0  0  0  0  0  2  0  0  0  0  0  0
  160.1870  211.8110  145.2630 C   0  0  0  0  0  2  0  0  0  0  0  0
  159.3420  213.5900  143.7520 C   0  0  0  0  0  1  0  0  0  0  0  0
  160.5180  213.1440  144.6040 C   0  0  2  0  0  3  0  0  0  0  0  0
  161.7580  213.0510  143.7610 C   0  0  0  0  0  0  0  0  0  0  0  0
  162.8570  212.9860  144.2980 O   0  0  0  0  0  0  0  0  0  0  0  0
  161.6340  212.9920  142.2640 C   0  0  1  0  0  3  0  0  0  0  0  0
  162.4720  213.9420  141.6800 O   0  0  0  0  0  1  0  0  0  0  0  0
  161.9760  211.7070  141.7890 O   0  0  0  0  0  0  0  0  0  0  0  0
  161.2070  211.3790  140.6420 C   0  0  0  0  0  0  0  0  0  0  0  0
  159.7450  211.6400  140.9700 C   0  0  0  0  0  1  0  0  0  0  0  0
  161.3220  209.8950  140.2980 C   0  0  0  0  0  1  0  0  0  0  0  0
  160.4230  212.3960  138.4430 C   0  0  0  0  0  1  0  0  0  0  0  0
  161.5890  212.2180  139.4090 C   0  0  0  0  0  2  0  0  0  0  0  0
  2  6  1  0  0  0  0
  3  2  1  0  0  0  0
  3  4  1  0  0  0  0
  4 29  1  1  0  0  0
  4  7  1  0  0  0  0
  5  1  1  1  0  0  0
  5  7  1  0  0  0  0
  5  8  1  0  0  0  0
  6  1  1  0  0  0  0
  8 12  1  1  0  0  0
  9 10  2  0  0  0  0
 11  8  1  0  0  0  0
 11 13  2  0  0  0  0
 12 10  1  0  0  0  0
 13  9  1  0  0  0  0
 14 11  1  0  0  0  0
 16 15  2  0  0  0  0
 17 19  2  0  0  0  0
 18 16  1  0  0  0  0
 19 15  1  0  0  0  0
 19 14  1  0  0  0  0
 20 18  2  0  0  0  0
 20 17  1  0  0  0  0
 21 23  2  0  0  0  0
 22 23  2  0  0  0  0
 23 18  1  0  0  0  0
 23 24  1  0  0  0  0
 25 24  1  0  0  0  0
 25 26  2  0  0  0  0
 27 28  1  0  0  0  0
 28 25  1  0  0  0  0
 29 30  1  0  0  0  0
 30 31  2  0  0  0  0
 32 30  1  0  0  0  0
 33  3  1  0  0  0  0
 34 33  1  0  0  0  0
 36 35  1  6  0  0  0
 36 34  1  0  0  0  0
 37 38  2  0  0  0  0
 37 36  1  0  0  0  0
 39 40  1  6  0  0  0
 39 37  1  0  0  0  0
 41 39  1  0  0  0  0
 42 43  1  0  0  0  0
 42 41  1  0  0  0  0
 44 42  1  0  0  0  0
 45 46  1  0  0  0  0
 46 42  1  0  0  0  0
M  END
>  <MODEL>
5

>  <REMARK>
 VINA RESULT:      -4.0      3.784      8.713
  Name = 
  16 active torsions:
  status: ('A' for Active; 'I' for Inactive)
    1  A    between atoms: C_1  and  C_8
    2  A    between atoms: C_2  and  C_17
    3  A    between atoms: C_2  and  O_21
    4  A    between atoms: O_4  and  C_35
    5  A    between atoms: O_4  and  C_39
    6  A    between atoms: C_5  and  O_21
    7  A    between atoms: C_5  and  C_38
    8  A    between atoms: C_8  and  C_12
    9  A    between atoms: N_10  and  S_25
   10  A    between atoms: N_11  and  C_30
   11  A    between atoms: N_14  and  C_28
   12  A    between atoms: C_16  and  C_40
   13  A    between atoms: C_17  and  C_34
   14  A    between atoms: C_24  and  C_30
   15  A    between atoms: C_24  and  C_34
   16  A    between atoms: S_25  and  C_32
                            x       y       z     vdW  Elec       q    Type
                         _______ _______ _______ _____ _____    ______ ____

>  <TORSDO>
F 16

$$$$
=
 OpenBabel11072413553D

 46 48  0  0  1  0  0  0  0  0999 V2000
  160.1940  206.8370  149.9390 C   0  0  0  0  0  2  0  0  0  0  0  0
  159.6750  204.6390  151.1090 C   0  0  0  0  0  2  0  0  0  0  0  0
  160.9930  204.3470  151.7160 N   0  0  0  0  0  0  0  0  0  0  0  0
  161.5000  205.4400  152.5720 C   0  0  1  0  0  3  0  0  0  0  0  0
  161.5150  206.8620  150.5490 N   0  0  2  0  0  0  0  0  0  0  0  0
  159.7380  205.3930  149.7690 C   0  0  0  0  0  2  0  0  0  0  0  0
  161.3250  206.8550  151.9990 C   0  0  0  0  0  2  0  0  0  0  0  0
  162.2550  208.0390  150.0760 C   0  0  2  0  0  3  0  0  0  0  0  0
  162.6580  210.6380  149.1460 N   0  0  0  0  0  0  0  0  0  0  0  0
  162.6630  209.6860  148.2590 C   0  0  0  0  0  3  0  0  0  0  0  0
  161.9490  209.2440  150.9270 C   0  0  0  0  0  0  0  0  0  0  0  0
  162.0760  208.3460  148.5800 C   0  0  0  0  0  2  0  0  0  0  0  0
  162.1800  210.4350  150.4560 N   0  0  0  0  0  0  0  0  0  0  0  0
  161.4560  209.0480  152.2270 O   0  0  0  0  0  0  0  0  0  0  0  0
  159.6220  210.5020  152.7670 C   0  0  0  0  0  3  0  0  0  0  0  0
  158.9970  211.4260  153.6060 C   0  0  0  0  0  3  0  0  0  0  0  0
  161.5520  210.4840  154.2220 C   0  0  0  0  0  3  0  0  0  0  0  0
  159.6470  211.8820  154.7570 C   0  0  0  0  0  0  0  0  0  0  0  0
  160.8990  210.0180  153.0710 C   0  0  0  0  0  0  0  0  0  0  0  0
  160.9270  211.4110  155.0600 C   0  0  0  0  0  3  0  0  0  0  0  0
  159.7630  214.1300  156.1870 O   0  0  0  0  0  0  0  0  0  0  0  0
  158.4620  212.2880  157.1230 O   0  0  0  0  0  0  0  0  0  0  0  0
  158.8350  212.9910  155.8490 S   0  0  0  0  0  0  0  0  0  0  0  0
  157.4190  213.6370  155.0810 N   0  0  0  0  0  2  0  0  0  0  0  0
  156.1760  212.9360  154.9770 C   0  0  0  0  0  0  0  0  0  0  0  0
  155.2340  213.4450  154.3180 O   0  0  0  0  0  0  0  0  0  0  0  0
  155.2800  211.8380  156.8640 O   0  0  0  0  0  1  0  0  0  0  0  0
  155.9570  211.6280  155.6610 C   0  0  0  0  0  2  0  0  0  0  0  0
  160.8340  205.3970  153.9390 C   0  0  0  0  0  2  0  0  0  0  0  0
  161.0520  206.6610  154.6980 C   0  0  0  0  0  0  0  0  0  0  0  0
  162.1570  207.1770  154.7230 O   0  0  0  0  0  0  0  0  0  0  0  0
  159.9070  207.3260  155.3810 C   0  0  0  0  0  1  0  0  0  0  0  0
  162.0130  203.9840  150.7300 C   0  0  0  0  0  2  0  0  0  0  0  0
  161.9580  202.4980  150.4140 C   0  0  0  0  0  2  0  0  0  0  0  0
  159.7860  201.3140  150.2140 C   0  0  0  0  0  1  0  0  0  0  0  0
  160.7950  202.1820  149.4830 C   0  0  2  0  0  3  0  0  0  0  0  0
  161.2590  201.4890  148.2330 C   0  0  0  0  0  0  0  0  0  0  0  0
  161.5850  200.3100  148.2740 O   0  0  0  0  0  0  0  0  0  0  0  0
  161.2730  202.2400  146.9310 C   0  0  1  0  0  3  0  0  0  0  0  0
  160.4480  201.6020  146.0050 O   0  0  0  0  0  1  0  0  0  0  0  0
  160.8320  203.5680  147.1190 O   0  0  0  0  0  0  0  0  0  0  0  0
  161.5950  204.4640  146.3270 C   0  0  0  0  0  0  0  0  0  0  0  0
  161.5400  203.9770  144.8870 C   0  0  0  0  0  1  0  0  0  0  0  0
  163.0670  204.4570  146.7370 C   0  0  0  0  0  1  0  0  0  0  0  0
  160.0820  206.2040  145.2460 C   0  0  0  0  0  1  0  0  0  0  0  0
  161.0600  205.9060  146.3760 C   0  0  0  0  0  2  0  0  0  0  0  0
  2  3  1  0  0  0  0
  3  4  1  0  0  0  0
  4 29  1  1  0  0  0
  5  1  1  6  0  0  0
  5  7  1  0  0  0  0
  6  1  1  0  0  0  0
  6  2  1  0  0  0  0
  7  4  1  0  0  0  0
  8 12  1  6  0  0  0
  8  5  1  0  0  0  0
  8 11  1  0  0  0  0
  9 13  1  0  0  0  0
 10 12  1  0  0  0  0
 10  9  2  0  0  0  0
 11 14  1  0  0  0  0
 13 11  2  0  0  0  0
 14 19  1  0  0  0  0
 15 19  2  0  0  0  0
 15 16  1  0  0  0  0
 16 18  2  0  0  0  0
 17 20  2  0  0  0  0
 18 20  1  0  0  0  0
 18 23  1  0  0  0  0
 19 17  1  0  0  0  0
 23 21  2  0  0  0  0
 23 22  2  0  0  0  0
 24 23  1  0  0  0  0
 25 24  1  0  0  0  0
 25 28  1  0  0  0  0
 26 25  2  0  0  0  0
 28 27  1  0  0  0  0
 29 30  1  0  0  0  0
 30 31  2  0  0  0  0
 30 32  1  0  0  0  0
 33  3  1  0  0  0  0
 34 33  1  0  0  0  0
 36 35  1  1  0  0  0
 36 34  1  0  0  0  0
 37 38  2  0  0  0  0
 37 36  1  0  0  0  0
 39 40  1  6  0  0  0
 39 41  1  0  0  0  0
 39 37  1  0  0  0  0
 42 46  1  0  0  0  0
 42 44  1  0  0  0  0
 42 41  1  0  0  0  0
 43 42  1  0  0  0  0
 45 46  1  0  0  0  0
M  END
>  <MODEL>
6

>  <REMARK>
 VINA RESULT:      -3.3      3.830      6.913
  Name = 
  16 active torsions:
  status: ('A' for Active; 'I' for Inactive)
    1  A    between atoms: C_1  and  C_8
    2  A    between atoms: C_2  and  C_17
    3  A    between atoms: C_2  and  O_21
    4  A    between atoms: O_4  and  C_35
    5  A    between atoms: O_4  and  C_39
    6  A    between atoms: C_5  and  O_21
    7  A    between atoms: C_5  and  C_38
    8  A    between atoms: C_8  and  C_12
    9  A    between atoms: N_10  and  S_25
   10  A    between atoms: N_11  and  C_30
   11  A    between atoms: N_14  and  C_28
   12  A    between atoms: C_16  and  C_40
   13  A    between atoms: C_17  and  C_34
   14  A    between atoms: C_24  and  C_30
   15  A    between atoms: C_24  and  C_34
   16  A    between atoms: S_25  and  C_32
                            x       y       z     vdW  Elec       q    Type
                         _______ _______ _______ _____ _____    ______ ____

>  <TORSDO>
F 16

$$$$
=
 OpenBabel11072413553D

 46 48  0  0  1  0  0  0  0  0999 V2000
  161.2410  211.4060  154.6040 C   0  0  0  0  0  2  0  0  0  0  0  0
  159.6570  213.2390  153.8290 C   0  0  0  0  0  2  0  0  0  0  0  0
  158.3660  212.5170  153.8980 N   0  0  0  0  0  0  0  0  0  0  0  0
  158.0910  211.9350  155.2280 C   0  0  1  0  0  3  0  0  0  0  0  0
  160.1090  210.5430  154.9080 N   0  0  2  0  0  0  0  0  0  0  0  0
  160.8670  212.3580  153.4740 C   0  0  0  0  0  2  0  0  0  0  0  0
  159.2850  211.2360  155.8970 C   0  0  0  0  0  2  0  0  0  0  0  0
  160.5950  209.2410  155.3820 C   0  0  2  0  0  3  0  0  0  0  0  0
  160.5780  206.4920  155.8590 N   0  0  0  0  0  0  0  0  0  0  0  0
  160.2490  207.2650  156.8530 C   0  0  0  0  0  3  0  0  0  0  0  0
  160.6300  208.2380  154.2580 C   0  0  0  0  0  0  0  0  0  0  0  0
  159.8470  208.6870  156.6060 C   0  0  0  0  0  2  0  0  0  0  0  0
  160.6490  206.9660  154.5350 N   0  0  0  0  0  0  0  0  0  0  0  0
  160.6820  208.7050  152.9350 O   0  0  0  0  0  0  0  0  0  0  0  0
  160.9160  206.5810  151.8380 C   0  0  0  0  0  3  0  0  0  0  0  0
  161.2130  205.8090  150.7130 C   0  0  0  0  0  3  0  0  0  0  0  0
  161.5010  208.5840  150.6190 C   0  0  0  0  0  3  0  0  0  0  0  0
  161.6540  206.4220  149.5370 C   0  0  0  0  0  0  0  0  0  0  0  0
  161.0500  207.9730  151.7980 C   0  0  0  0  0  0  0  0  0  0  0  0
  161.8010  207.8110  149.4940 C   0  0  0  0  0  3  0  0  0  0  0  0
  161.5300  204.0370  148.3490 O   0  0  0  0  0  0  0  0  0  0  0  0
  163.4290  205.4620  147.7780 O   0  0  0  0  0  0  0  0  0  0  0  0
  161.9620  205.4600  148.1010 S   0  0  0  0  0  0  0  0  0  0  0  0
  161.0510  206.0930  146.7670 N   0  0  0  0  0  2  0  0  0  0  0  0
  161.0530  205.5220  145.4540 C   0  0  0  0  0  0  0  0  0  0  0  0
  160.4380  206.1060  144.5260 O   0  0  0  0  0  0  0  0  0  0  0  0
  160.7870  203.2390  144.9220 O   0  0  0  0  0  1  0  0  0  0  0  0
  161.7400  204.2290  145.1670 C   0  0  0  0  0  2  0  0  0  0  0  0
  157.5730  213.0020  156.1790 C   0  0  0  0  0  2  0  0  0  0  0  0
  156.0830  213.0190  156.2290 C   0  0  0  0  0  0  0  0  0  0  0  0
  155.4490  213.6490  155.3980 O   0  0  0  0  0  0  0  0  0  0  0  0
  155.3630  212.2200  157.2600 C   0  0  0  0  0  1  0  0  0  0  0  0
  158.2300  211.4820  152.8720 C   0  0  0  0  0  2  0  0  0  0  0  0
  158.5540  212.0380  151.4940 C   0  0  0  0  0  2  0  0  0  0  0  0
  156.6590  213.5980  151.8640 C   0  0  0  0  0  1  0  0  0  0  0  0
  158.0900  213.4840  151.3670 C   0  0  2  0  0  3  0  0  0  0  0  0
  158.1820  213.9720  149.9500 C   0  0  0  0  0  0  0  0  0  0  0  0
  157.1700  214.3260  149.3590 O   0  0  0  0  0  0  0  0  0  0  0  0
  159.5270  214.0680  149.2850 C   0  0  1  0  0  3  0  0  0  0  0  0
  160.5310  214.1430  150.2510 O   0  0  0  0  0  1  0  0  0  0  0  0
  159.7520  212.9460  148.4580 O   0  0  0  0  0  0  0  0  0  0  0  0
  160.9350  213.1190  147.6950 C   0  0  0  0  0  0  0  0  0  0  0  0
  161.8790  211.9750  148.0330 C   0  0  0  0  0  1  0  0  0  0  0  0
  161.6590  214.4110  148.0700 C   0  0  0  0  0  1  0  0  0  0  0  0
  159.2180  212.8050  145.8390 C   0  0  0  0  0  1  0  0  0  0  0  0
  160.6740  213.1050  146.1780 C   0  0  0  0  0  2  0  0  0  0  0  0
  2  3  1  0  0  0  0
  3  4  1  0  0  0  0
  4  7  1  0  0  0  0
  4 29  1  1  0  0  0
  5  1  1  1  0  0  0
  5  8  1  0  0  0  0
  5  7  1  0  0  0  0
  6  2  1  0  0  0  0
  6  1  1  0  0  0  0
  8 12  1  1  0  0  0
  9 10  2  0  0  0  0
 11 13  2  0  0  0  0
 11  8  1  0  0  0  0
 12 10  1  0  0  0  0
 13  9  1  0  0  0  0
 14 11  1  0  0  0  0
 16 15  2  0  0  0  0
 17 19  2  0  0  0  0
 18 16  1  0  0  0  0
 19 15  1  0  0  0  0
 19 14  1  0  0  0  0
 20 18  2  0  0  0  0
 20 17  1  0  0  0  0
 22 23  2  0  0  0  0
 23 21  2  0  0  0  0
 23 18  1  0  0  0  0
 24 23  1  0  0  0  0
 25 24  1  0  0  0  0
 26 25  2  0  0  0  0
 27 28  1  0  0  0  0
 28 25  1  0  0  0  0
 29 30  1  0  0  0  0
 30 32  1  0  0  0  0
 31 30  2  0  0  0  0
 33  3  1  0  0  0  0
 34 33  1  0  0  0  0
 36 34  1  0  0  0  0
 36 35  1  6  0  0  0
 37 36  1  0  0  0  0
 38 37  2  0  0  0  0
 39 37  1  0  0  0  0
 39 40  1  1  0  0  0
 41 39  1  0  0  0  0
 42 43  1  0  0  0  0
 42 44  1  0  0  0  0
 42 41  1  0  0  0  0
 45 46  1  0  0  0  0
 46 42  1  0  0  0  0
M  END
>  <MODEL>
7

>  <REMARK>
 VINA RESULT:      -3.1      3.111      9.467
  Name = 
  16 active torsions:
  status: ('A' for Active; 'I' for Inactive)
    1  A    between atoms: C_1  and  C_8
    2  A    between atoms: C_2  and  C_17
    3  A    between atoms: C_2  and  O_21
    4  A    between atoms: O_4  and  C_35
    5  A    between atoms: O_4  and  C_39
    6  A    between atoms: C_5  and  O_21
    7  A    between atoms: C_5  and  C_38
    8  A    between atoms: C_8  and  C_12
    9  A    between atoms: N_10  and  S_25
   10  A    between atoms: N_11  and  C_30
   11  A    between atoms: N_14  and  C_28
   12  A    between atoms: C_16  and  C_40
   13  A    between atoms: C_17  and  C_34
   14  A    between atoms: C_24  and  C_30
   15  A    between atoms: C_24  and  C_34
   16  A    between atoms: S_25  and  C_32
                            x       y       z     vdW  Elec       q    Type
                         _______ _______ _______ _____ _____    ______ ____

>  <TORSDO>
F 16

$$$$
