=
 OpenBabel11072410313D

 32 37  0  0  1  0  0  0  0  0999 V2000
  162.4140  211.0440  150.8660 C   0  0  0  0  0  1  0  0  0  0  0  0
  162.3270  206.0490  145.5500 N   0  0  1  0  0  0  0  0  0  0  0  0
  162.3220  203.1570  146.1750 O   0  0  0  0  0  0  0  0  0  0  0  0
  162.2620  209.6640  151.4150 C   0  0  0  0  0  3  0  0  0  0  0  0
  161.6300  207.3260  152.8000 N   0  0  0  0  0  2  0  0  0  0  0  0
  161.7820  206.0240  153.4740 C   0  0  0  0  0  2  0  0  0  0  0  0
  161.1090  205.5870  144.9250 C   0  0  2  0  0  0  0  0  0  0  0  0
  162.1240  207.2210  151.4180 C   0  0  2  0  0  3  0  0  0  0  0  0
  160.0770  200.2780  150.8450 O   0  0  0  0  0  0  0  0  0  0  0  0
  159.6070  201.5840  148.9570 C   0  0  0  0  0  2  0  0  0  0  0  0
  161.2040  206.8600  145.3670 O   0  0  0  0  0  0  0  0  0  0  0  0
  160.9820  202.4360  151.0490 C   0  0  0  0  0  2  0  0  0  0  0  0
  160.9620  203.8070  150.3640 C   0  0  2  0  0  3  0  0  0  0  0  0
  161.7540  206.4450  147.9220 C   0  0  0  0  0  2  0  0  0  0  0  0
  160.4060  201.6110  146.5700 C   0  0  0  0  0  2  0  0  0  0  0  0
  161.7550  203.7780  149.1950 O   0  0  0  0  0  0  0  0  0  0  0  0
  160.3970  204.5790  145.8010 C   0  0  0  0  0  2  0  0  0  0  0  0
  160.2120  201.3680  150.3130 C   0  0  0  0  0  0  0  0  0  0  0  0
  162.8180  207.4370  148.3910 C   0  0  0  0  0  2  0  0  0  0  0  0
  160.9640  210.3580  147.8560 O   0  0  0  0  0  0  0  0  0  0  0  0
  161.5820  202.0430  145.6800 C   0  0  0  0  0  2  0  0  0  0  0  0
  160.8900  203.5670  148.1070 C   0  0  1  0  0  3  0  0  0  0  0  0
  162.1440  208.5450  150.6790 C   0  0  0  0  0  0  0  0  0  0  0  0
  161.2530  206.2220  150.6940 C   0  0  0  0  0  2  0  0  0  0  0  0
  161.0370  204.9020  152.7250 C   0  0  0  0  0  2  0  0  0  0  0  0
  162.3020  205.4450  146.8950 C   0  0  1  0  0  3  0  0  0  0  0  0
  161.5640  209.4870  148.4980 C   0  0  0  0  0  0  0  0  0  0  0  0
  161.2410  205.4130  143.5490 O   0  0  0  0  0  1  0  0  0  0  0  0
  161.4840  204.1410  146.7760 C   0  0  1  0  0  0  0  0  0  0  0  0
  160.6790  202.0480  147.9920 C   0  0  1  0  0  3  0  0  0  0  0  0
  162.1980  208.5640  149.1760 C   0  0  0  0  0  0  0  0  0  0  0  0
  161.5420  204.8740  151.2830 C   0  0  1  0  0  3  0  0  0  0  0  0
  1  4  1  0  0  0  0
  2 11  1  1  0  0  0
  2 26  1  0  0  0  0
  3 29  1  0  0  0  0
  5  6  1  0  0  0  0
  7 28  1  6  0  0  0
  7 11  1  0  0  0  0
  7  2  1  0  0  0  0
  7 17  1  0  0  0  0
  8 24  1  6  0  0  0
  8  5  1  0  0  0  0
 10 18  1  0  0  0  0
 13 12  1  1  0  0  0
 13 32  1  0  0  0  0
 14 19  1  0  0  0  0
 16 13  1  0  0  0  0
 18  9  2  0  0  0  0
 18 12  1  0  0  0  0
 19 31  1  0  0  0  0
 20 27  2  0  0  0  0
 21  3  1  0  0  0  0
 21 15  1  0  0  0  0
 22 16  1  1  0  0  0
 23  4  2  0  0  0  0
 23  8  1  0  0  0  0
 25  6  1  0  0  0  0
 26 14  1  1  0  0  0
 27 31  2  0  0  0  0
 29 17  1  6  0  0  0
 29 26  1  0  0  0  0
 29 22  1  0  0  0  0
 30 15  1  6  0  0  0
 30 22  1  0  0  0  0
 30 10  1  0  0  0  0
 31 23  1  0  0  0  0
 32 24  1  6  0  0  0
 32 25  1  0  0  0  0
M  END
>  <MODEL>
1

>  <REMARK>
 VINA RESULT:      -6.4      0.000      0.000
  Name = 
  0 active torsions:
  status: ('A' for Active; 'I' for Inactive)
                            x       y       z     vdW  Elec       q    Type
                         _______ _______ _______ _____ _____    ______ ____

>  <TORSDO>
F 0

$$$$
=
 OpenBabel11072410313D

 32 37  0  0  1  0  0  0  0  0999 V2000
  159.9550  212.6720  156.7930 C   0  0  0  0  0  1  0  0  0  0  0  0
  162.4780  210.7780  150.2160 N   0  0  1  0  0  0  0  0  0  0  0  0
  163.1860  207.9700  149.6050 O   0  0  0  0  0  0  0  0  0  0  0  0
  160.1000  211.1920  156.6680 C   0  0  0  0  0  3  0  0  0  0  0  0
  159.8990  208.4100  156.7290 N   0  0  0  0  0  2  0  0  0  0  0  0
  160.2760  206.9900  156.8410 C   0  0  0  0  0  2  0  0  0  0  0  0
  161.6120  210.4620  149.1030 C   0  0  2  0  0  0  0  0  0  0  0  0
  160.6860  209.0420  155.6580 C   0  0  2  0  0  3  0  0  0  0  0  0
  160.9360  202.9250  151.7540 O   0  0  0  0  0  0  0  0  0  0  0  0
  160.5200  204.8580  150.4970 C   0  0  0  0  0  2  0  0  0  0  0  0
  161.2330  211.3810  150.0170 O   0  0  0  0  0  0  0  0  0  0  0  0
  161.1030  204.8590  153.0770 C   0  0  0  0  0  2  0  0  0  0  0  0
  160.8300  206.3670  153.0250 C   0  0  2  0  0  3  0  0  0  0  0  0
  161.3180  209.9270  152.2270 C   0  0  0  0  0  2  0  0  0  0  0  0
  161.7690  206.1230  148.7140 C   0  0  0  0  0  2  0  0  0  0  0  0
  161.8280  207.0150  152.2640 O   0  0  0  0  0  0  0  0  0  0  0  0
  161.0560  209.0600  149.2260 C   0  0  0  0  0  2  0  0  0  0  0  0
  160.8560  204.1420  151.7730 C   0  0  0  0  0  0  0  0  0  0  0  0
  161.9190  210.7490  153.3660 C   0  0  0  0  0  2  0  0  0  0  0  0
  159.4500  213.2300  153.4660 O   0  0  0  0  0  0  0  0  0  0  0  0
  162.9290  207.1070  148.4990 C   0  0  0  0  0  2  0  0  0  0  0  0
  161.3170  207.1920  150.9660 C   0  0  1  0  0  3  0  0  0  0  0  0
  160.4760  210.5400  155.5550 C   0  0  0  0  0  0  0  0  0  0  0  0
  160.3230  208.3640  154.3590 C   0  0  0  0  0  2  0  0  0  0  0  0
  160.0730  206.2370  155.5120 C   0  0  0  0  0  2  0  0  0  0  0  0
  162.3430  209.6240  151.1240 C   0  0  1  0  0  3  0  0  0  0  0  0
  160.1270  212.2750  153.8660 C   0  0  0  0  0  0  0  0  0  0  0  0
  162.0810  210.9710  147.8930 O   0  0  0  0  0  1  0  0  0  0  0  0
  161.9880  208.4080  150.2410 C   0  0  1  0  0  0  0  0  0  0  0  0
  161.5900  205.8890  150.1980 C   0  0  1  0  0  3  0  0  0  0  0  0
  160.8430  211.2620  154.2870 C   0  0  0  0  0  0  0  0  0  0  0  0
  160.8600  206.9650  154.4250 C   0  0  1  0  0  3  0  0  0  0  0  0
  2 11  1  1  0  0  0
  2 26  1  0  0  0  0
  3 29  1  0  0  0  0
  4  1  1  0  0  0  0
  5  6  1  0  0  0  0
  7 28  1  6  0  0  0
  7 17  1  0  0  0  0
  7 11  1  0  0  0  0
  7  2  1  0  0  0  0
  8 24  1  6  0  0  0
  8  5  1  0  0  0  0
  9 18  2  0  0  0  0
 10 18  1  0  0  0  0
 13 12  1  1  0  0  0
 13 32  1  0  0  0  0
 14 19  1  0  0  0  0
 16 13  1  0  0  0  0
 18 12  1  0  0  0  0
 19 31  1  0  0  0  0
 20 27  2  0  0  0  0
 21 15  1  0  0  0  0
 21  3  1  0  0  0  0
 22 16  1  1  0  0  0
 23  8  1  0  0  0  0
 23  4  2  0  0  0  0
 25  6  1  0  0  0  0
 26 14  1  1  0  0  0
 27 31  2  0  0  0  0
 29 17  1  6  0  0  0
 29 22  1  0  0  0  0
 29 26  1  0  0  0  0
 30 15  1  6  0  0  0
 30 10  1  0  0  0  0
 30 22  1  0  0  0  0
 31 23  1  0  0  0  0
 32 24  1  6  0  0  0
 32 25  1  0  0  0  0
M  END
>  <MODEL>
2

>  <REMARK>
 VINA RESULT:      -5.2      3.242      5.262
  Name = 
  0 active torsions:
  status: ('A' for Active; 'I' for Inactive)
                            x       y       z     vdW  Elec       q    Type
                         _______ _______ _______ _____ _____    ______ ____

>  <TORSDO>
F 0

$$$$
=
 OpenBabel11072410313D

 32 37  0  0  1  0  0  0  0  0999 V2000
  161.5380  202.8220  146.4660 C   0  0  0  0  0  1  0  0  0  0  0  0
  161.2140  209.7070  148.8540 N   0  0  1  0  0  0  0  0  0  0  0  0
  160.3180  210.3260  151.6060 O   0  0  0  0  0  0  0  0  0  0  0  0
  161.2070  202.8810  147.9200 C   0  0  0  0  0  3  0  0  0  0  0  0
  160.9180  202.5470  150.6740 N   0  0  0  0  0  2  0  0  0  0  0  0
  160.2990  202.4760  152.0100 C   0  0  0  0  0  2  0  0  0  0  0  0
  162.3510  210.3990  149.4150 C   0  0  2  0  0  0  0  0  0  0  0  0
  160.6710  203.8740  150.0910 C   0  0  2  0  0  3  0  0  0  0  0  0
  160.8160  207.1350  156.5770 O   0  0  0  0  0  0  0  0  0  0  0  0
  161.9560  208.2920  154.8870 C   0  0  0  0  0  2  0  0  0  0  0  0
  162.5300  209.4800  148.4420 O   0  0  0  0  0  0  0  0  0  0  0  0
  160.5130  206.1130  154.4840 C   0  0  0  0  0  2  0  0  0  0  0  0
  161.0280  206.1720  153.0410 C   0  0  2  0  0  3  0  0  0  0  0  0
  161.4380  207.3540  149.5800 C   0  0  0  0  0  2  0  0  0  0  0  0
  161.6370  210.4970  153.7150 C   0  0  0  0  0  2  0  0  0  0  0  0
  160.4810  207.2920  152.3760 O   0  0  0  0  0  0  0  0  0  0  0  0
  162.5920  209.9770  150.8490 C   0  0  0  0  0  2  0  0  0  0  0  0
  161.0810  207.1790  155.3870 C   0  0  0  0  0  0  0  0  0  0  0  0
  160.6180  206.5790  148.5500 C   0  0  0  0  0  2  0  0  0  0  0  0
  163.2620  205.7640  146.4040 O   0  0  0  0  0  0  0  0  0  0  0  0
  160.8030  211.1940  152.6290 C   0  0  0  0  0  2  0  0  0  0  0  0
  161.4360  208.3210  152.4310 C   0  0  1  0  0  3  0  0  0  0  0  0
  161.1450  204.0040  148.6570 C   0  0  0  0  0  0  0  0  0  0  0  0
  161.3520  204.8960  150.9700 C   0  0  0  0  0  2  0  0  0  0  0  0
  160.8310  203.5780  152.9460 C   0  0  0  0  0  2  0  0  0  0  0  0
  160.8310  208.7300  149.8900 C   0  0  1  0  0  3  0  0  0  0  0  0
  162.3420  205.5700  147.2090 C   0  0  0  0  0  0  0  0  0  0  0  0
  162.4270  211.7310  149.0110 O   0  0  0  0  0  1  0  0  0  0  0  0
  161.2710  209.3290  151.2440 C   0  0  1  0  0  0  0  0  0  0  0  0
  161.2420  209.0370  153.7780 C   0  0  1  0  0  3  0  0  0  0  0  0
  161.3700  205.3670  148.0620 C   0  0  0  0  0  0  0  0  0  0  0  0
  160.6050  204.9290  152.2700 C   0  0  1  0  0  3  0  0  0  0  0  0
  1  4  1  0  0  0  0
  2 11  1  6  0  0  0
  2  7  1  0  0  0  0
  2 26  1  0  0  0  0
  3 21  1  0  0  0  0
  4 23  2  0  0  0  0
  5  6  1  0  0  0  0
  6 25  1  0  0  0  0
  7 28  1  6  0  0  0
  7 17  1  0  0  0  0
  8  5  1  0  0  0  0
  8 24  1  1  0  0  0
 10 18  1  0  0  0  0
 11  7  1  0  0  0  0
 12 18  1  0  0  0  0
 13 12  1  1  0  0  0
 16 13  1  0  0  0  0
 18  9  2  0  0  0  0
 19 14  1  0  0  0  0
 20 27  2  0  0  0  0
 21 15  1  0  0  0  0
 22 16  1  6  0  0  0
 22 30  1  0  0  0  0
 23  8  1  0  0  0  0
 26 14  1  6  0  0  0
 26 29  1  0  0  0  0
 27 31  2  0  0  0  0
 29 17  1  6  0  0  0
 29  3  1  0  0  0  0
 29 22  1  0  0  0  0
 30 15  1  6  0  0  0
 30 10  1  0  0  0  0
 31 19  1  0  0  0  0
 31 23  1  0  0  0  0
 32 24  1  6  0  0  0
 32 25  1  0  0  0  0
 32 13  1  0  0  0  0
M  END
>  <MODEL>
3

>  <REMARK>
 VINA RESULT:      -5.2      2.656      6.509
  Name = 
  0 active torsions:
  status: ('A' for Active; 'I' for Inactive)
                            x       y       z     vdW  Elec       q    Type
                         _______ _______ _______ _____ _____    ______ ____

>  <TORSDO>
F 0

$$$$
=
 OpenBabel11072410313D

 32 37  0  0  1  0  0  0  0  0999 V2000
  161.3740  201.9800  150.1770 C   0  0  0  0  0  1  0  0  0  0  0  0
  161.3310  207.0100  155.4600 N   0  0  1  0  0  0  0  0  0  0  0  0
  161.9620  209.8410  154.8740 O   0  0  0  0  0  0  0  0  0  0  0  0
  161.5720  203.3530  149.6260 C   0  0  0  0  0  3  0  0  0  0  0  0
  161.6190  205.7380  148.1810 N   0  0  0  0  0  2  0  0  0  0  0  0
  162.1170  206.9770  147.5560 C   0  0  0  0  0  2  0  0  0  0  0  0
  160.1330  207.7000  155.8780 C   0  0  2  0  0  0  0  0  0  0  0  0
  161.8880  205.7790  149.6270 C   0  0  2  0  0  3  0  0  0  0  0  0
  161.0900  212.9900  149.9280 O   0  0  0  0  0  0  0  0  0  0  0  0
  160.0810  211.8300  151.6970 C   0  0  0  0  0  2  0  0  0  0  0  0
  160.0630  206.4230  155.4450 O   0  0  0  0  0  0  0  0  0  0  0  0
  161.6020  210.6980  149.8540 C   0  0  0  0  0  2  0  0  0  0  0  0
  161.2170  209.3680  150.5110 C   0  0  2  0  0  3  0  0  0  0  0  0
  161.0940  206.6790  153.0210 C   0  0  0  0  0  2  0  0  0  0  0  0
  160.4560  211.7040  154.1840 C   0  0  0  0  0  2  0  0  0  0  0  0
  161.7970  209.2750  151.7960 O   0  0  0  0  0  0  0  0  0  0  0  0
  159.7730  208.8040  154.9070 C   0  0  0  0  0  2  0  0  0  0  0  0
  160.9320  211.9040  150.4630 C   0  0  0  0  0  0  0  0  0  0  0  0
  162.0200  205.5000  152.7250 C   0  0  0  0  0  2  0  0  0  0  0  0
  159.5970  202.9790  152.9120 O   0  0  0  0  0  0  0  0  0  0  0  0
  161.3680  211.0820  155.2520 C   0  0  0  0  0  2  0  0  0  0  0  0
  160.8190  209.6630  152.7270 C   0  0  1  0  0  3  0  0  0  0  0  0
  161.5420  204.4890  150.3440 C   0  0  0  0  0  0  0  0  0  0  0  0
  161.1090  206.9350  150.2070 C   0  0  0  0  0  2  0  0  0  0  0  0
  161.4790  208.2320  148.1830 C   0  0  0  0  0  2  0  0  0  0  0  0
  161.6400  207.5810  154.1360 C   0  0  1  0  0  3  0  0  0  0  0  0
  160.4460  203.7120  152.3880 C   0  0  0  0  0  0  0  0  0  0  0  0
  160.0640  207.8750  157.2590 O   0  0  0  0  0  1  0  0  0  0  0  0
  161.0680  209.0160  154.1320 C   0  0  1  0  0  0  0  0  0  0  0  0
  160.8750  211.1960  152.8210 C   0  0  1  0  0  3  0  0  0  0  0  0
  161.3420  204.4900  151.8350 C   0  0  0  0  0  0  0  0  0  0  0  0
  161.7350  208.1940  149.6890 C   0  0  1  0  0  3  0  0  0  0  0  0
  2 11  1  6  0  0  0
  2  7  1  0  0  0  0
  3 21  1  0  0  0  0
  4  1  1  0  0  0  0
  4 23  2  0  0  0  0
  5  8  1  0  0  0  0
  6  5  1  0  0  0  0
  6 25  1  0  0  0  0
  7 28  1  1  0  0  0
  8 24  1  1  0  0  0
  8 23  1  0  0  0  0
  9 18  2  0  0  0  0
 11  7  1  0  0  0  0
 12 18  1  0  0  0  0
 13 12  1  6  0  0  0
 13 16  1  0  0  0  0
 15 21  1  0  0  0  0
 17  7  1  0  0  0  0
 18 10  1  0  0  0  0
 19 14  1  0  0  0  0
 22 16  1  6  0  0  0
 22 30  1  0  0  0  0
 22 29  1  0  0  0  0
 23 31  1  0  0  0  0
 26 14  1  6  0  0  0
 26  2  1  0  0  0  0
 27 20  2  0  0  0  0
 29 26  1  0  0  0  0
 29  3  1  0  0  0  0
 29 17  1  1  0  0  0
 30 10  1  6  0  0  0
 30 15  1  0  0  0  0
 31 27  2  0  0  0  0
 31 19  1  0  0  0  0
 32 25  1  6  0  0  0
 32 24  1  0  0  0  0
 32 13  1  0  0  0  0
M  END
>  <MODEL>
4

>  <REMARK>
 VINA RESULT:      -4.9      3.284      8.601
  Name = 
  0 active torsions:
  status: ('A' for Active; 'I' for Inactive)
                            x       y       z     vdW  Elec       q    Type
                         _______ _______ _______ _____ _____    ______ ____

>  <TORSDO>
F 0

$$$$
=
 OpenBabel11072410313D

 32 37  0  0  1  0  0  0  0  0999 V2000
  160.9210  201.3010  149.6390 C   0  0  0  0  0  1  0  0  0  0  0  0
  161.5910  206.5610  154.6490 N   0  0  1  0  0  0  0  0  0  0  0  0
  162.4850  209.2790  153.8950 O   0  0  0  0  0  0  0  0  0  0  0  0
  161.2360  202.6170  149.0110 C   0  0  0  0  0  3  0  0  0  0  0  0
  161.4720  204.9120  147.4420 N   0  0  0  0  0  2  0  0  0  0  0  0
  162.0690  206.0600  146.7360 C   0  0  0  0  0  2  0  0  0  0  0  0
  160.4860  207.3910  155.0700 C   0  0  2  0  0  0  0  0  0  0  0  0
  161.7990  204.9950  148.8740 C   0  0  2  0  0  3  0  0  0  0  0  0
  161.7510  212.2560  148.8220 O   0  0  0  0  0  0  0  0  0  0  0  0
  160.6970  211.2950  150.6820 C   0  0  0  0  0  2  0  0  0  0  0  0
  160.2700  206.1080  154.7070 O   0  0  0  0  0  0  0  0  0  0  0  0
  162.0240  209.9220  148.8510 C   0  0  0  0  0  2  0  0  0  0  0  0
  161.5310  208.6730  149.5900 C   0  0  2  0  0  3  0  0  0  0  0  0
  161.2300  206.1370  152.2400 C   0  0  0  0  0  2  0  0  0  0  0  0
  161.1510  211.2520  153.1580 C   0  0  0  0  0  2  0  0  0  0  0  0
  162.1470  208.5830  150.8580 O   0  0  0  0  0  0  0  0  0  0  0  0
  160.2050  208.4780  154.0550 C   0  0  0  0  0  2  0  0  0  0  0  0
  161.5030  211.2200  149.4180 C   0  0  0  0  0  0  0  0  0  0  0  0
  162.0190  204.8550  151.9760 C   0  0  0  0  0  2  0  0  0  0  0  0
  159.3610  202.6110  152.3750 O   0  0  0  0  0  0  0  0  0  0  0  0
  162.0350  210.5920  154.2270 C   0  0  0  0  0  2  0  0  0  0  0  0
  161.2480  209.1150  151.7990 C   0  0  1  0  0  3  0  0  0  0  0  0
  161.3500  203.7840  149.6690 C   0  0  0  0  0  0  0  0  0  0  0  0
  161.1630  206.2520  149.4180 C   0  0  0  0  0  2  0  0  0  0  0  0
  161.5860  207.4030  147.3180 C   0  0  0  0  0  2  0  0  0  0  0  0
  161.9070  207.0320  153.2880 C   0  0  1  0  0  3  0  0  0  0  0  0
  160.2590  203.2260  151.7860 C   0  0  0  0  0  0  0  0  0  0  0  0
  160.4890  207.6390  156.4420 O   0  0  0  0  0  1  0  0  0  0  0  0
  161.4840  208.5160  153.2270 C   0  0  1  0  0  0  0  0  0  0  0  0
  161.4650  210.6370  151.8110 C   0  0  1  0  0  3  0  0  0  0  0  0
  161.2080  203.8790  151.1640 C   0  0  0  0  0  0  0  0  0  0  0  0
  161.8940  207.4130  148.8140 C   0  0  1  0  0  3  0  0  0  0  0  0
  2 11  1  6  0  0  0
  2  7  1  0  0  0  0
  3 21  1  0  0  0  0
  4  1  1  0  0  0  0
  4 23  2  0  0  0  0
  5  8  1  0  0  0  0
  6 25  1  0  0  0  0
  6  5  1  0  0  0  0
  7 28  1  1  0  0  0
  8 24  1  1  0  0  0
  8 23  1  0  0  0  0
  9 18  2  0  0  0  0
 11  7  1  0  0  0  0
 12 18  1  0  0  0  0
 13 12  1  6  0  0  0
 13 16  1  0  0  0  0
 15 21  1  0  0  0  0
 17  7  1  0  0  0  0
 18 10  1  0  0  0  0
 19 14  1  0  0  0  0
 22 16  1  6  0  0  0
 22 30  1  0  0  0  0
 22 29  1  0  0  0  0
 23 31  1  0  0  0  0
 26 14  1  6  0  0  0
 26  2  1  0  0  0  0
 27 20  2  0  0  0  0
 29 26  1  0  0  0  0
 29  3  1  0  0  0  0
 29 17  1  1  0  0  0
 30 10  1  6  0  0  0
 30 15  1  0  0  0  0
 31 27  2  0  0  0  0
 31 19  1  0  0  0  0
 32 25  1  6  0  0  0
 32 24  1  0  0  0  0
 32 13  1  0  0  0  0
M  END
>  <MODEL>
5

>  <REMARK>
 VINA RESULT:      -4.9      2.775      8.168
  Name = 
  0 active torsions:
  status: ('A' for Active; 'I' for Inactive)
                            x       y       z     vdW  Elec       q    Type
                         _______ _______ _______ _____ _____    ______ ____

>  <TORSDO>
F 0

$$$$
=
 OpenBabel11072410313D

 32 37  0  0  1  0  0  0  0  0999 V2000
  161.8840  212.7280  149.3730 C   0  0  0  0  0  1  0  0  0  0  0  0
  162.1690  206.3550  145.8360 N   0  0  1  0  0  0  0  0  0  0  0  0
  162.4460  203.8040  147.3100 O   0  0  0  0  0  0  0  0  0  0  0  0
  161.8720  211.5760  150.3210 C   0  0  0  0  0  3  0  0  0  0  0  0
  161.4880  209.7320  152.3790 N   0  0  0  0  0  2  0  0  0  0  0  0
  161.7730  208.7170  153.4090 C   0  0  0  0  0  2  0  0  0  0  0  0
  160.9880  205.6230  145.4380 C   0  0  2  0  0  0  0  0  0  0  0  0
  161.9640  209.2490  151.0730 C   0  0  2  0  0  3  0  0  0  0  0  0
  160.5680  202.3190  152.7330 O   0  0  0  0  0  0  0  0  0  0  0  0
  159.9420  202.9390  150.5610 C   0  0  0  0  0  2  0  0  0  0  0  0
  160.9710  206.9730  145.4670 O   0  0  0  0  0  0  0  0  0  0  0  0
  161.2690  204.5040  152.2290 C   0  0  0  0  0  2  0  0  0  0  0  0
  161.1080  205.5920  151.1610 C   0  0  2  0  0  3  0  0  0  0  0  0
  161.6040  207.4100  147.9990 C   0  0  0  0  0  2  0  0  0  0  0  0
  160.6920  202.2990  148.2440 C   0  0  0  0  0  2  0  0  0  0  0  0
  161.8790  205.2720  150.0210 O   0  0  0  0  0  0  0  0  0  0  0  0
  160.3900  204.8760  146.6110 C   0  0  0  0  0  2  0  0  0  0  0  0
  160.5900  203.2010  151.8890 C   0  0  0  0  0  0  0  0  0  0  0  0
  162.5790  208.5830  148.0950 C   0  0  0  0  0  2  0  0  0  0  0  0
  160.4490  211.0340  146.7840 O   0  0  0  0  0  0  0  0  0  0  0  0
  161.8050  202.5340  147.2110 C   0  0  0  0  0  2  0  0  0  0  0  0
  161.0180  204.6660  149.0900 C   0  0  1  0  0  3  0  0  0  0  0  0
  161.8460  210.2790  149.9670 C   0  0  0  0  0  0  0  0  0  0  0  0
  161.1770  208.0070  150.7280 C   0  0  0  0  0  2  0  0  0  0  0  0
  161.1240  207.3600  153.0720 C   0  0  0  0  0  2  0  0  0  0  0  0
  162.2250  206.1930  147.3000 C   0  0  1  0  0  3  0  0  0  0  0  0
  161.1410  210.4550  147.6320 C   0  0  0  0  0  0  0  0  0  0  0  0
  161.1100  205.0460  144.1750 O   0  0  0  0  0  1  0  0  0  0  0  0
  161.5310  204.8510  147.6210 C   0  0  1  0  0  0  0  0  0  0  0  0
  160.9490  203.1730  149.4520 C   0  0  1  0  0  3  0  0  0  0  0  0
  161.8700  209.8400  148.5280 C   0  0  0  0  0  0  0  0  0  0  0  0
  161.6030  206.9350  151.6850 C   0  0  1  0  0  3  0  0  0  0  0  0
  1  4  1  0  0  0  0
  2 11  1  1  0  0  0
  2 26  1  0  0  0  0
  3 29  1  0  0  0  0
  5  6  1  0  0  0  0
  7 28  1  6  0  0  0
  7 11  1  0  0  0  0
  7  2  1  0  0  0  0
  7 17  1  0  0  0  0
  8 24  1  6  0  0  0
  8  5  1  0  0  0  0
 10 18  1  0  0  0  0
 13 32  1  0  0  0  0
 13 12  1  1  0  0  0
 14 19  1  0  0  0  0
 16 13  1  0  0  0  0
 18 12  1  0  0  0  0
 18  9  2  0  0  0  0
 19 31  1  0  0  0  0
 20 27  2  0  0  0  0
 21  3  1  0  0  0  0
 21 15  1  0  0  0  0
 22 30  1  0  0  0  0
 22 16  1  1  0  0  0
 23  4  2  0  0  0  0
 23  8  1  0  0  0  0
 25  6  1  0  0  0  0
 26 29  1  0  0  0  0
 26 14  1  1  0  0  0
 27 31  2  0  0  0  0
 29 17  1  6  0  0  0
 29 22  1  0  0  0  0
 30 15  1  6  0  0  0
 30 10  1  0  0  0  0
 31 23  1  0  0  0  0
 32 24  1  6  0  0  0
 32 25  1  0  0  0  0
M  END
>  <MODEL>
6

>  <REMARK>
 VINA RESULT:      -4.1      1.321      1.783
  Name = 
  0 active torsions:
  status: ('A' for Active; 'I' for Inactive)
                            x       y       z     vdW  Elec       q    Type
                         _______ _______ _______ _____ _____    ______ ____

>  <TORSDO>
F 0

$$$$
=
 OpenBabel11072410313D

 32 37  0  0  1  0  0  0  0  0999 V2000
  161.3870  209.1080  154.3910 C   0  0  0  0  0  1  0  0  0  0  0  0
  160.1180  202.6550  151.2340 N   0  0  1  0  0  0  0  0  0  0  0  0
  159.8460  202.4220  148.2970 O   0  0  0  0  0  0  0  0  0  0  0  0
  161.4380  209.2080  152.9030 C   0  0  0  0  0  3  0  0  0  0  0  0
  161.9560  209.7440  150.2150 N   0  0  0  0  0  2  0  0  0  0  0  0
  161.7370  210.0360  148.7860 C   0  0  0  0  0  2  0  0  0  0  0  0
  161.1710  201.7300  150.8860 C   0  0  2  0  0  0  0  0  0  0  0  0
  161.2680  208.4930  150.5690 C   0  0  2  0  0  3  0  0  0  0  0  0
  162.3310  205.6350  143.9790 O   0  0  0  0  0  0  0  0  0  0  0  0
  162.6980  204.1450  145.7510 C   0  0  0  0  0  2  0  0  0  0  0  0
  161.2980  202.5240  151.9710 O   0  0  0  0  0  0  0  0  0  0  0  0
  161.7410  206.5930  146.0410 C   0  0  0  0  0  2  0  0  0  0  0  0
  161.8380  206.3330  147.5490 C   0  0  2  0  0  3  0  0  0  0  0  0
  161.0560  204.9110  150.8530 C   0  0  0  0  0  2  0  0  0  0  0  0
  161.5890  202.0340  146.5570 C   0  0  0  0  0  2  0  0  0  0  0  0
  160.8950  205.3540  147.9350 O   0  0  0  0  0  0  0  0  0  0  0  0
  161.8640  202.1500  149.6080 C   0  0  0  0  0  2  0  0  0  0  0  0
  162.2620  205.4660  145.1860 C   0  0  0  0  0  0  0  0  0  0  0  0
  160.1990  205.8140  151.7380 C   0  0  0  0  0  2  0  0  0  0  0  0
  162.3130  205.8280  154.5290 O   0  0  0  0  0  0  0  0  0  0  0  0
  160.3660  201.5140  147.3280 C   0  0  0  0  0  2  0  0  0  0  0  0
  161.5690  204.1220  147.9920 C   0  0  1  0  0  3  0  0  0  0  0  0
  161.3130  208.1760  152.0510 C   0  0  0  0  0  0  0  0  0  0  0  0
  161.9000  207.3790  149.7680 C   0  0  0  0  0  2  0  0  0  0  0  0
  162.2250  208.8850  147.8860 C   0  0  0  0  0  2  0  0  0  0  0  0
  160.2510  203.7490  150.2540 C   0  0  1  0  0  3  0  0  0  0  0  0
  161.7020  206.2880  153.5560 C   0  0  0  0  0  0  0  0  0  0  0  0
  160.8310  200.4030  151.1440 O   0  0  0  0  0  1  0  0  0  0  0  0
  160.8750  203.1280  148.9850 C   0  0  1  0  0  0  0  0  0  0  0  0
  161.5700  203.5470  146.5670 C   0  0  1  0  0  3  0  0  0  0  0  0
  161.0570  206.7710  152.5250 C   0  0  0  0  0  0  0  0  0  0  0  0
  161.5280  207.6010  148.3330 C   0  0  1  0  0  3  0  0  0  0  0  0
  2 11  1  1  0  0  0
  3 29  1  0  0  0  0
  4  1  1  0  0  0  0
  5  8  1  0  0  0  0
  6  5  1  0  0  0  0
  7 28  1  1  0  0  0
  7  2  1  0  0  0  0
  7 11  1  0  0  0  0
  8 24  1  6  0  0  0
  8 23  1  0  0  0  0
  9 18  2  0  0  0  0
 13 12  1  6  0  0  0
 13 16  1  0  0  0  0
 13 32  1  0  0  0  0
 14 19  1  0  0  0  0
 15 30  1  0  0  0  0
 15 21  1  0  0  0  0
 17  7  1  0  0  0  0
 18 10  1  0  0  0  0
 18 12  1  0  0  0  0
 19 31  1  0  0  0  0
 21  3  1  0  0  0  0
 22 16  1  6  0  0  0
 22 29  1  0  0  0  0
 23 31  1  0  0  0  0
 23  4  2  0  0  0  0
 25  6  1  0  0  0  0
 26 14  1  1  0  0  0
 26  2  1  0  0  0  0
 27 20  2  0  0  0  0
 29 17  1  1  0  0  0
 29 26  1  0  0  0  0
 30 10  1  6  0  0  0
 30 22  1  0  0  0  0
 31 27  2  0  0  0  0
 32 25  1  6  0  0  0
 32 24  1  0  0  0  0
M  END
>  <MODEL>
7

>  <REMARK>
 VINA RESULT:      -3.4      2.037      5.059
  Name = 
  0 active torsions:
  status: ('A' for Active; 'I' for Inactive)
                            x       y       z     vdW  Elec       q    Type
                         _______ _______ _______ _____ _____    ______ ____

>  <TORSDO>
F 0

$$$$
