=
 OpenBabel11072413123D

 34 37  0  0  1  0  0  0  0  0999 V2000
  161.4150  207.6790  148.9490 N   0  0  0  0  0  0  0  0  0  0  0  0
  160.7890  205.5520  149.9800 C   0  0  0  0  0  0  0  0  0  0  0  0
  160.7060  207.6950  151.3010 C   0  0  1  0  0  3  0  0  0  0  0  0
  161.1080  203.3900  151.0600 C   0  0  0  0  0  0  0  0  0  0  0  0
  160.6640  206.4360  148.7500 C   0  0  0  0  0  2  0  0  0  0  0  0
  161.0970  205.4120  152.3960 C   0  0  0  0  0  3  0  0  0  0  0  0
  160.8860  206.1860  151.2450 C   0  0  0  0  0  0  0  0  0  0  0  0
  162.3260  209.2800  150.4540 N   0  0  0  0  0  2  0  0  0  0  0  0
  161.4470  208.4160  152.3930 C   0  0  0  0  0  0  0  0  0  0  0  0
  160.8630  204.1390  149.8940 C   0  0  0  0  0  0  0  0  0  0  0  0
  162.3050  209.3010  151.8810 C   0  0  0  0  0  3  0  0  0  0  0  0
  161.2200  204.0230  152.3020 C   0  0  0  0  0  3  0  0  0  0  0  0
  161.2260  202.0040  150.9910 O   0  0  0  0  0  1  0  0  0  0  0  0
  161.3830  208.2850  150.1020 C   0  0  0  0  0  0  0  0  0  0  0  0
  161.1270  208.3480  153.8330 C   0  0  0  0  0  0  0  0  0  0  0  0
  161.4000  207.3080  154.4950 O   0  0  0  0  0  0  0  0  0  0  0  0
  161.5120  210.1680  155.5120 C   0  0  0  0  0  2  0  0  0  0  0  0
  159.4460  211.8350  154.1890 C   0  0  2  0  0  3  0  0  0  0  0  0
  159.2590  213.0970  156.2160 F   0  0  0  0  0  0  0  0  0  0  0  0
  159.9970  210.5550  153.5140 C   0  0  0  0  0  2  0  0  0  0  0  0
  161.4650  211.9140  157.1030 O   0  0  0  0  0  0  0  0  0  0  0  0
  160.5260  209.5270  154.5260 C   0  0  1  0  0  3  0  0  0  0  0  0
  160.8820  211.3560  156.1790 C   0  0  0  0  0  0  0  0  0  0  0  0
  159.5270  211.8310  155.7250 C   0  0  2  0  0  3  0  0  0  0  0  0
  158.0440  212.0910  153.7410 C   0  0  0  0  0  0  0  0  0  0  0  0
  157.0850  211.5170  154.3190 O   0  0  0  0  0  1  0  0  0  0  0  0
  157.7900  212.9190  152.6520 O   0  0  0  0  0  0  0  0  0  0  0  0
  160.7420  203.4480  148.6780 O   0  0  0  0  0  0  0  0  0  0  0  0
  161.7730  203.2210  147.7970 O   0  0  0  0  0  0  0  0  0  0  0  0
  160.5210  202.5030  145.1750 C   0  0  0  0  0  1  0  0  0  0  0  0
  161.1240  204.7990  144.4370 C   0  0  0  0  0  1  0  0  0  0  0  0
  161.9940  203.9410  146.6140 C   0  0  0  0  0  0  0  0  0  0  0  0
  161.1590  203.7750  145.4600 N   0  0  0  0  0  0  0  0  0  0  0  0
  162.9710  204.7430  146.5740 O   0  0  0  0  0  0  0  0  0  0  0  0
  1 14  2  0  0  0  0
  2  7  1  0  0  0  0
  3 14  1  6  0  0  0
  3  9  1  0  0  0  0
  4 12  2  0  0  0  0
  5  1  1  0  0  0  0
  5  2  1  0  0  0  0
  7  3  1  0  0  0  0
  7  6  2  0  0  0  0
  8 11  1  0  0  0  0
  9 15  1  0  0  0  0
 10  2  2  0  0  0  0
 10  4  1  0  0  0  0
 11  9  2  0  0  0  0
 12  6  1  0  0  0  0
 13  4  1  0  0  0  0
 14  8  1  0  0  0  0
 15 16  2  0  0  0  0
 17 23  1  0  0  0  0
 18 25  1  1  0  0  0
 18 24  1  0  0  0  0
 20 18  1  0  0  0  0
 20 22  1  0  0  0  0
 22 15  1  6  0  0  0
 22 17  1  0  0  0  0
 23 21  2  0  0  0  0
 24 23  1  0  0  0  0
 24 19  1  6  0  0  0
 25 26  1  0  0  0  0
 27 25  2  0  0  0  0
 28 10  1  0  0  0  0
 29 28  1  0  0  0  0
 30 33  1  0  0  0  0
 31 33  1  0  0  0  0
 32 29  1  0  0  0  0
 33 32  1  0  0  0  0
 34 32  2  0  0  0  0
M  END
>  <MODEL>
1

>  <REMARK>
 VINA RESULT:      -9.4      0.000      0.000
  Name = 
  6 active torsions:
  status: ('A' for Active; 'I' for Inactive)
    1  A    between atoms: C_3  and  C_6
    2  A    between atoms: O_5  and  O_19
    3  A    between atoms: O_5  and  C_28
    4  A    between atoms: C_12  and  C_21
    5  A    between atoms: C_12  and  C_27
    6  A    between atoms: O_19  and  C_22
                            x       y       z     vdW  Elec       q    Type
                         _______ _______ _______ _____ _____    ______ ____

>  <TORSDO>
F 6

$$$$
=
 OpenBabel11072413123D

 34 37  0  0  1  0  0  0  0  0999 V2000
  161.4790  207.1320  148.2790 N   0  0  0  0  0  0  0  0  0  0  0  0
  160.8480  205.2150  149.6610 C   0  0  0  0  0  0  0  0  0  0  0  0
  160.7160  207.5590  150.5750 C   0  0  1  0  0  3  0  0  0  0  0  0
  161.1610  203.2850  151.1170 C   0  0  0  0  0  0  0  0  0  0  0  0
  160.7440  205.8630  148.2900 C   0  0  0  0  0  2  0  0  0  0  0  0
  161.1010  205.5140  152.0690 C   0  0  0  0  0  3  0  0  0  0  0  0
  160.9100  206.0670  150.7930 C   0  0  0  0  0  0  0  0  0  0  0  0
  162.3410  208.9870  149.4920 N   0  0  0  0  0  2  0  0  0  0  0  0
  161.4260  208.4730  151.5350 C   0  0  0  0  0  0  0  0  0  0  0  0
  160.9360  203.8110  149.8300 C   0  0  0  0  0  0  0  0  0  0  0  0
  162.2870  209.2630  150.8910 C   0  0  0  0  0  3  0  0  0  0  0  0
  161.2390  204.1320  152.2270 C   0  0  0  0  0  3  0  0  0  0  0  0
  161.2920  201.9110  151.3000 O   0  0  0  0  0  1  0  0  0  0  0  0
  161.4150  207.9330  149.3030 C   0  0  0  0  0  0  0  0  0  0  0  0
  161.0730  208.6590  152.9570 C   0  0  0  0  0  0  0  0  0  0  0  0
  161.5870  207.9180  153.8410 O   0  0  0  0  0  0  0  0  0  0  0  0
  159.9970  209.8390  154.8890 C   0  0  0  0  0  2  0  0  0  0  0  0
  159.7070  212.2870  153.2410 C   0  0  2  0  0  3  0  0  0  0  0  0
  158.0050  213.0270  154.7560 F   0  0  0  0  0  0  0  0  0  0  0  0
  160.5890  211.1050  152.7720 C   0  0  0  0  0  2  0  0  0  0  0  0
  158.7190  211.0920  156.4300 O   0  0  0  0  0  0  0  0  0  0  0  0
  160.1470  209.7580  153.3640 C   0  0  1  0  0  3  0  0  0  0  0  0
  159.0720  210.9600  155.2630 C   0  0  0  0  0  0  0  0  0  0  0  0
  158.5660  211.8930  154.1940 C   0  0  2  0  0  3  0  0  0  0  0  0
  159.1680  213.0290  152.0610 C   0  0  0  0  0  0  0  0  0  0  0  0
  157.9850  212.8290  151.6810 O   0  0  0  0  0  1  0  0  0  0  0  0
  159.9800  213.9000  151.3430 O   0  0  0  0  0  0  0  0  0  0  0  0
  160.8490  202.9120  148.7560 O   0  0  0  0  0  0  0  0  0  0  0  0
  161.6100  202.9780  147.6120 O   0  0  0  0  0  0  0  0  0  0  0  0
  161.2690  200.1520  146.6900 C   0  0  0  0  0  1  0  0  0  0  0  0
  159.8780  201.0840  144.8520 C   0  0  0  0  0  1  0  0  0  0  0  0
  161.1640  202.6350  146.3270 C   0  0  0  0  0  0  0  0  0  0  0  0
  160.7170  201.3090  146.0110 N   0  0  0  0  0  0  0  0  0  0  0  0
  161.1780  203.5260  145.4300 O   0  0  0  0  0  0  0  0  0  0  0  0
  1  5  1  0  0  0  0
  1 14  2  0  0  0  0
  2 10  2  0  0  0  0
  2  7  1  0  0  0  0
  3 14  1  6  0  0  0
  3  7  1  0  0  0  0
  3  9  1  0  0  0  0
  4 13  1  0  0  0  0
  4 12  2  0  0  0  0
  5  2  1  0  0  0  0
  6 12  1  0  0  0  0
  7  6  2  0  0  0  0
  8 11  1  0  0  0  0
  9 15  1  0  0  0  0
 10  4  1  0  0  0  0
 11  9  2  0  0  0  0
 14  8  1  0  0  0  0
 15 16  2  0  0  0  0
 17 23  1  0  0  0  0
 18 25  1  6  0  0  0
 18 24  1  0  0  0  0
 20 18  1  0  0  0  0
 20 22  1  0  0  0  0
 22 15  1  1  0  0  0
 22 17  1  0  0  0  0
 23 21  2  0  0  0  0
 24 19  1  1  0  0  0
 24 23  1  0  0  0  0
 26 25  1  0  0  0  0
 27 25  2  0  0  0  0
 28 10  1  0  0  0  0
 29 28  1  0  0  0  0
 31 33  1  0  0  0  0
 32 29  1  0  0  0  0
 33 32  1  0  0  0  0
 33 30  1  0  0  0  0
 34 32  2  0  0  0  0
M  END
>  <MODEL>
2

>  <REMARK>
 VINA RESULT:      -9.1      1.378      1.679
  Name = 
  6 active torsions:
  status: ('A' for Active; 'I' for Inactive)
    1  A    between atoms: C_3  and  C_6
    2  A    between atoms: O_5  and  O_19
    3  A    between atoms: O_5  and  C_28
    4  A    between atoms: C_12  and  C_21
    5  A    between atoms: C_12  and  C_27
    6  A    between atoms: O_19  and  C_22
                            x       y       z     vdW  Elec       q    Type
                         _______ _______ _______ _____ _____    ______ ____

>  <TORSDO>
F 6

$$$$
=
 OpenBabel11072413123D

 34 37  0  0  1  0  0  0  0  0999 V2000
  161.9660  208.3800  149.7900 N   0  0  0  0  0  0  0  0  0  0  0  0
  161.2130  206.2440  150.7120 C   0  0  0  0  0  0  0  0  0  0  0  0
  160.8120  208.3950  151.9590 C   0  0  1  0  0  3  0  0  0  0  0  0
  161.3780  204.1020  151.8650 C   0  0  0  0  0  0  0  0  0  0  0  0
  161.3040  207.1120  149.4680 C   0  0  0  0  0  2  0  0  0  0  0  0
  161.0480  206.1360  153.1440 C   0  0  0  0  0  3  0  0  0  0  0  0
  161.0430  206.8920  151.9620 C   0  0  0  0  0  0  0  0  0  0  0  0
  162.5190  210.0220  151.4200 N   0  0  0  0  0  2  0  0  0  0  0  0
  161.3060  209.1480  153.1640 C   0  0  0  0  0  0  0  0  0  0  0  0
  161.3430  204.8340  150.6620 C   0  0  0  0  0  0  0  0  0  0  0  0
  162.2200  210.0560  152.8150 C   0  0  0  0  0  3  0  0  0  0  0  0
  161.2280  204.7500  153.0960 C   0  0  0  0  0  3  0  0  0  0  0  0
  161.5470  202.7200  151.8410 O   0  0  0  0  0  1  0  0  0  0  0  0
  161.6920  208.9950  150.9060 C   0  0  0  0  0  0  0  0  0  0  0  0
  160.7140  209.0830  154.5150 C   0  0  0  0  0  0  0  0  0  0  0  0
  160.8450  208.0410  155.2160 O   0  0  0  0  0  0  0  0  0  0  0  0
  160.9490  211.1690  155.8850 C   0  0  0  0  0  2  0  0  0  0  0  0
  158.5980  212.3440  154.5120 C   0  0  2  0  0  3  0  0  0  0  0  0
  158.3650  213.8620  156.3490 F   0  0  0  0  0  0  0  0  0  0  0  0
  159.2760  211.0570  153.9810 C   0  0  0  0  0  2  0  0  0  0  0  0
  160.7620  213.1130  157.2130 O   0  0  0  0  0  0  0  0  0  0  0  0
  160.0010  210.2670  155.0810 C   0  0  1  0  0  3  0  0  0  0  0  0
  160.2050  212.3540  156.4270 C   0  0  0  0  0  0  0  0  0  0  0  0
  158.7720  212.5820  156.0210 C   0  0  2  0  0  3  0  0  0  0  0  0
  157.1480  212.3510  154.1460 C   0  0  0  0  0  0  0  0  0  0  0  0
  156.3930  211.4310  154.5550 O   0  0  0  0  0  1  0  0  0  0  0  0
  156.6350  213.3390  153.3110 O   0  0  0  0  0  0  0  0  0  0  0  0
  161.4810  204.1270  149.4560 O   0  0  0  0  0  0  0  0  0  0  0  0
  160.4740  203.4220  148.8390 O   0  0  0  0  0  0  0  0  0  0  0  0
  160.9280  202.2880  146.1080 C   0  0  0  0  0  1  0  0  0  0  0  0
  161.4380  200.1420  147.2540 C   0  0  0  0  0  1  0  0  0  0  0  0
  160.5030  202.0460  148.5710 C   0  0  0  0  0  0  0  0  0  0  0  0
  161.0220  201.5270  147.3390 N   0  0  0  0  0  0  0  0  0  0  0  0
  160.0400  201.2550  149.4430 O   0  0  0  0  0  0  0  0  0  0  0  0
  1 14  2  0  0  0  0
  2  7  1  0  0  0  0
  3 14  1  6  0  0  0
  3  7  1  0  0  0  0
  3  9  1  0  0  0  0
  4 12  2  0  0  0  0
  5  1  1  0  0  0  0
  5  2  1  0  0  0  0
  7  6  2  0  0  0  0
  8 11  1  0  0  0  0
  9 15  1  0  0  0  0
 10  2  2  0  0  0  0
 10  4  1  0  0  0  0
 11  9  2  0  0  0  0
 12  6  1  0  0  0  0
 13  4  1  0  0  0  0
 14  8  1  0  0  0  0
 15 16  2  0  0  0  0
 17 23  1  0  0  0  0
 18 25  1  1  0  0  0
 18 24  1  0  0  0  0
 20 18  1  0  0  0  0
 20 22  1  0  0  0  0
 22 15  1  6  0  0  0
 22 17  1  0  0  0  0
 23 21  2  0  0  0  0
 24 19  1  6  0  0  0
 24 23  1  0  0  0  0
 25 26  1  0  0  0  0
 27 25  2  0  0  0  0
 28 10  1  0  0  0  0
 29 28  1  0  0  0  0
 30 33  1  0  0  0  0
 31 33  1  0  0  0  0
 32 29  1  0  0  0  0
 32 34  2  0  0  0  0
 33 32  1  0  0  0  0
M  END
>  <MODEL>
3

>  <REMARK>
 VINA RESULT:      -8.8      1.392      1.854
  Name = 
  6 active torsions:
  status: ('A' for Active; 'I' for Inactive)
    1  A    between atoms: C_3  and  C_6
    2  A    between atoms: O_5  and  O_19
    3  A    between atoms: O_5  and  C_28
    4  A    between atoms: C_12  and  C_21
    5  A    between atoms: C_12  and  C_27
    6  A    between atoms: O_19  and  C_22
                            x       y       z     vdW  Elec       q    Type
                         _______ _______ _______ _____ _____    ______ ____

>  <TORSDO>
F 6

$$$$
=
 OpenBabel11072413123D

 34 37  0  0  1  0  0  0  0  0999 V2000
  161.9500  209.7210  150.9620 N   0  0  0  0  0  0  0  0  0  0  0  0
  161.7030  209.1720  153.3330 C   0  0  0  0  0  0  0  0  0  0  0  0
  162.0830  207.3600  151.6260 C   0  0  1  0  0  3  0  0  0  0  0  0
  160.5550  208.7350  155.4380 C   0  0  0  0  0  0  0  0  0  0  0  0
  162.3470  210.1070  152.3200 C   0  0  0  0  0  2  0  0  0  0  0  0
  160.8300  206.9480  153.8220 C   0  0  0  0  0  3  0  0  0  0  0  0
  161.5050  207.8210  152.9540 C   0  0  0  0  0  0  0  0  0  0  0  0
  161.2080  208.0240  149.4710 N   0  0  0  0  0  2  0  0  0  0  0  0
  161.3460  206.2520  150.9250 C   0  0  0  0  0  0  0  0  0  0  0  0
  161.2580  209.6220  154.6010 C   0  0  0  0  0  0  0  0  0  0  0  0
  160.9110  206.6530  149.7290 C   0  0  0  0  0  3  0  0  0  0  0  0
  160.3470  207.4070  155.0510 C   0  0  0  0  0  3  0  0  0  0  0  0
  160.0720  209.1670  156.6700 O   0  0  0  0  0  1  0  0  0  0  0  0
  161.8890  208.4630  150.6310 C   0  0  0  0  0  0  0  0  0  0  0  0
  161.2990  204.8430  151.3660 C   0  0  0  0  0  0  0  0  0  0  0  0
  161.1090  204.5650  152.5840 O   0  0  0  0  0  0  0  0  0  0  0  0
  160.7930  202.4370  150.8810 C   0  0  0  0  0  2  0  0  0  0  0  0
  160.8640  203.0010  147.9710 C   0  0  2  0  0  3  0  0  0  0  0  0
  161.2200  200.6630  147.5920 F   0  0  0  0  0  0  0  0  0  0  0  0
  160.8360  204.1490  149.0100 C   0  0  0  0  0  2  0  0  0  0  0  0
  160.6040  200.2040  150.1340 O   0  0  0  0  0  0  0  0  0  0  0  0
  161.4240  203.7390  150.3690 C   0  0  1  0  0  3  0  0  0  0  0  0
  160.9230  201.3540  149.8510 C   0  0  0  0  0  0  0  0  0  0  0  0
  161.4730  201.6860  148.4880 C   0  0  2  0  0  3  0  0  0  0  0  0
  161.5660  203.4470  146.7290 C   0  0  0  0  0  0  0  0  0  0  0  0
  162.4610  204.3290  146.7960 O   0  0  0  0  0  1  0  0  0  0  0  0
  161.2000  202.9350  145.4880 O   0  0  0  0  0  0  0  0  0  0  0  0
  161.4530  210.9380  155.0490 O   0  0  0  0  0  0  0  0  0  0  0  0
  160.4580  211.8790  155.1800 O   0  0  0  0  0  0  0  0  0  0  0  0
  157.5280  211.2930  155.3530 C   0  0  0  0  0  1  0  0  0  0  0  0
  157.2450  212.9720  153.5410 C   0  0  0  0  0  1  0  0  0  0  0  0
  159.5420  212.2260  154.1770 C   0  0  0  0  0  0  0  0  0  0  0  0
  158.1270  212.2190  154.4090 N   0  0  0  0  0  0  0  0  0  0  0  0
  159.9910  212.5360  153.0360 O   0  0  0  0  0  0  0  0  0  0  0  0
  1  5  1  0  0  0  0
  2 10  1  0  0  0  0
  3 14  1  6  0  0  0
  3  7  1  0  0  0  0
  4 13  1  0  0  0  0
  5  2  1  0  0  0  0
  6 12  2  0  0  0  0
  7  2  2  0  0  0  0
  7  6  1  0  0  0  0
  8 11  1  0  0  0  0
  8 14  1  0  0  0  0
  9 15  1  0  0  0  0
  9  3  1  0  0  0  0
 10 28  1  0  0  0  0
 10  4  2  0  0  0  0
 11  9  2  0  0  0  0
 12  4  1  0  0  0  0
 14  1  2  0  0  0  0
 15 16  2  0  0  0  0
 18 25  1  6  0  0  0
 18 24  1  0  0  0  0
 18 20  1  0  0  0  0
 20 22  1  0  0  0  0
 22 17  1  0  0  0  0
 22 15  1  1  0  0  0
 23 21  2  0  0  0  0
 23 17  1  0  0  0  0
 24 19  1  6  0  0  0
 24 23  1  0  0  0  0
 25 26  1  0  0  0  0
 27 25  2  0  0  0  0
 28 29  1  0  0  0  0
 31 33  1  0  0  0  0
 32 33  1  0  0  0  0
 32 29  1  0  0  0  0
 33 30  1  0  0  0  0
 34 32  2  0  0  0  0
M  END
>  <MODEL>
4

>  <REMARK>
 VINA RESULT:      -8.6      3.261      9.059
  Name = 
  6 active torsions:
  status: ('A' for Active; 'I' for Inactive)
    1  A    between atoms: C_3  and  C_6
    2  A    between atoms: O_5  and  O_19
    3  A    between atoms: O_5  and  C_28
    4  A    between atoms: C_12  and  C_21
    5  A    between atoms: C_12  and  C_27
    6  A    between atoms: O_19  and  C_22
                            x       y       z     vdW  Elec       q    Type
                         _______ _______ _______ _____ _____    ______ ____

>  <TORSDO>
F 6

$$$$
=
 OpenBabel11072413123D

 34 37  0  0  1  0  0  0  0  0999 V2000
  161.1010  204.7500  152.7920 N   0  0  0  0  0  0  0  0  0  0  0  0
  161.4480  205.4940  150.4880 C   0  0  0  0  0  0  0  0  0  0  0  0
  161.8590  207.0570  152.4200 C   0  0  1  0  0  3  0  0  0  0  0  0
  160.8570  206.3200  148.2720 C   0  0  0  0  0  0  0  0  0  0  0  0
  161.6670  204.3740  151.4920 C   0  0  0  0  0  2  0  0  0  0  0  0
  161.1800  207.8860  150.0930 C   0  0  0  0  0  3  0  0  0  0  0  0
  161.4700  206.8280  150.9680 C   0  0  0  0  0  0  0  0  0  0  0  0
  160.4560  206.4700  154.3010 N   0  0  0  0  0  2  0  0  0  0  0  0
  161.2500  208.2560  153.0940 C   0  0  0  0  0  0  0  0  0  0  0  0
  161.1770  205.2430  149.1200 C   0  0  0  0  0  0  0  0  0  0  0  0
  160.5130  207.8880  154.1440 C   0  0  0  0  0  3  0  0  0  0  0  0
  160.8630  207.6320  148.7560 C   0  0  0  0  0  3  0  0  0  0  0  0
  160.5460  206.0900  146.9340 O   0  0  0  0  0  1  0  0  0  0  0  0
  161.2430  205.9640  153.2400 C   0  0  0  0  0  0  0  0  0  0  0  0
  161.5910  209.6640  152.8050 C   0  0  0  0  0  0  0  0  0  0  0  0
  162.7180  209.9560  152.3170 O   0  0  0  0  0  0  0  0  0  0  0  0
  160.7200  211.3470  154.4450 C   0  0  0  0  0  2  0  0  0  0  0  0
  159.7060  213.0110  152.2090 C   0  0  2  0  0  3  0  0  0  0  0  0
  158.2250  214.0770  153.7600 F   0  0  0  0  0  0  0  0  0  0  0  0
  160.6710  211.8270  151.9540 C   0  0  0  0  0  2  0  0  0  0  0  0
  159.5650  212.9400  155.7510 O   0  0  0  0  0  0  0  0  0  0  0  0
  160.5860  210.7430  153.0400 C   0  0  1  0  0  3  0  0  0  0  0  0
  159.7060  212.4360  154.6430 C   0  0  0  0  0  0  0  0  0  0  0  0
  158.8530  212.8760  153.4820 C   0  0  2  0  0  3  0  0  0  0  0  0
  158.8330  213.2300  151.0160 C   0  0  0  0  0  0  0  0  0  0  0  0
  157.6070  212.9540  151.0760 O   0  0  0  0  0  1  0  0  0  0  0  0
  159.3740  213.6880  149.8190 O   0  0  0  0  0  0  0  0  0  0  0  0
  161.1730  203.9490  148.5740 O   0  0  0  0  0  0  0  0  0  0  0  0
  161.9690  203.5330  147.5320 O   0  0  0  0  0  0  0  0  0  0  0  0
  161.2060  200.6480  147.3040 C   0  0  0  0  0  1  0  0  0  0  0  0
  160.0190  201.2900  145.2150 C   0  0  0  0  0  1  0  0  0  0  0  0
  161.5020  202.9510  146.3450 C   0  0  0  0  0  0  0  0  0  0  0  0
  160.8580  201.6700  146.3340 N   0  0  0  0  0  0  0  0  0  0  0  0
  161.6750  203.5780  145.2610 O   0  0  0  0  0  0  0  0  0  0  0  0
  1 14  2  0  0  0  0
  2  7  1  0  0  0  0
  2  5  1  0  0  0  0
  3  7  1  6  0  0  0
  3  9  1  0  0  0  0
  3 14  1  0  0  0  0
  4 12  2  0  0  0  0
  4 10  1  0  0  0  0
  5  1  1  0  0  0  0
  6  7  2  0  0  0  0
  9 11  2  0  0  0  0
 10  2  2  0  0  0  0
 11  8  1  0  0  0  0
 12  6  1  0  0  0  0
 13  4  1  0  0  0  0
 14  8  1  0  0  0  0
 15  9  1  0  0  0  0
 16 15  2  0  0  0  0
 17 23  1  0  0  0  0
 18 25  1  6  0  0  0
 18 24  1  0  0  0  0
 20 18  1  0  0  0  0
 20 22  1  0  0  0  0
 22 15  1  6  0  0  0
 22 17  1  0  0  0  0
 23 21  2  0  0  0  0
 24 19  1  1  0  0  0
 24 23  1  0  0  0  0
 25 26  1  0  0  0  0
 27 25  2  0  0  0  0
 28 10  1  0  0  0  0
 29 28  1  0  0  0  0
 31 33  1  0  0  0  0
 32 29  1  0  0  0  0
 33 32  1  0  0  0  0
 33 30  1  0  0  0  0
 34 32  2  0  0  0  0
M  END
>  <MODEL>
5

>  <REMARK>
 VINA RESULT:      -8.5      2.144      3.016
  Name = 
  6 active torsions:
  status: ('A' for Active; 'I' for Inactive)
    1  A    between atoms: C_3  and  C_6
    2  A    between atoms: O_5  and  O_19
    3  A    between atoms: O_5  and  C_28
    4  A    between atoms: C_12  and  C_21
    5  A    between atoms: C_12  and  C_27
    6  A    between atoms: O_19  and  C_22
                            x       y       z     vdW  Elec       q    Type
                         _______ _______ _______ _____ _____    ______ ____

>  <TORSDO>
F 6

$$$$
=
 OpenBabel11072413123D

 34 37  0  0  1  0  0  0  0  0999 V2000
  161.1150  204.8220  152.7480 N   0  0  0  0  0  0  0  0  0  0  0  0
  161.4260  205.5310  150.4280 C   0  0  0  0  0  0  0  0  0  0  0  0
  161.9560  207.0930  152.3310 C   0  0  1  0  0  3  0  0  0  0  0  0
  160.8050  206.3600  148.2210 C   0  0  0  0  0  0  0  0  0  0  0  0
  161.6280  204.4120  151.4370 C   0  0  0  0  0  2  0  0  0  0  0  0
  161.2440  207.9290  150.0170 C   0  0  0  0  0  3  0  0  0  0  0  0
  161.5160  206.8670  150.8940 C   0  0  0  0  0  0  0  0  0  0  0  0
  160.5850  206.5810  154.2580 N   0  0  0  0  0  2  0  0  0  0  0  0
  161.4160  208.3210  153.0100 C   0  0  0  0  0  0  0  0  0  0  0  0
  161.1050  205.2780  149.0710 C   0  0  0  0  0  0  0  0  0  0  0  0
  160.6950  207.9930  154.0840 C   0  0  0  0  0  3  0  0  0  0  0  0
  160.8780  207.6750  148.6910 C   0  0  0  0  0  3  0  0  0  0  0  0
  160.4470  206.1320  146.8950 O   0  0  0  0  0  1  0  0  0  0  0  0
  161.3200  206.0340  153.1790 C   0  0  0  0  0  0  0  0  0  0  0  0
  161.8050  209.7120  152.6980 C   0  0  0  0  0  0  0  0  0  0  0  0
  162.9580  209.9620  152.2490 O   0  0  0  0  0  0  0  0  0  0  0  0
  160.7790  211.7320  151.6260 C   0  0  0  0  0  2  0  0  0  0  0  0
  158.3520  211.3940  153.2960 C   0  0  2  0  0  3  0  0  0  0  0  0
  157.8260  213.6930  152.8810 F   0  0  0  0  0  0  0  0  0  0  0  0
  159.4240  210.2800  153.2050 C   0  0  0  0  0  2  0  0  0  0  0  0
  159.6960  213.7340  150.9970 O   0  0  0  0  0  0  0  0  0  0  0  0
  160.8200  210.8220  152.8620 C   0  0  1  0  0  3  0  0  0  0  0  0
  159.7710  212.8270  151.8180 C   0  0  0  0  0  0  0  0  0  0  0  0
  158.8820  212.8140  153.0350 C   0  0  2  0  0  3  0  0  0  0  0  0
  157.6550  211.3320  154.6170 C   0  0  0  0  0  0  0  0  0  0  0  0
  156.4480  211.6740  154.7060 O   0  0  0  0  0  0  0  0  0  0  0  0
  158.3460  210.9510  155.7620 O   0  0  0  0  0  1  0  0  0  0  0  0
  161.0330  203.9810  148.5380 O   0  0  0  0  0  0  0  0  0  0  0  0
  161.8850  203.4740  147.5850 O   0  0  0  0  0  0  0  0  0  0  0  0
  161.1780  200.5800  147.3020 C   0  0  0  0  0  1  0  0  0  0  0  0
  160.0820  201.2190  145.1640 C   0  0  0  0  0  1  0  0  0  0  0  0
  161.4840  202.8930  146.3740 C   0  0  0  0  0  0  0  0  0  0  0  0
  160.8610  201.6030  146.3230 N   0  0  0  0  0  0  0  0  0  0  0  0
  161.7000  203.5310  145.3030 O   0  0  0  0  0  0  0  0  0  0  0  0
  1 14  2  0  0  0  0
  2  7  1  0  0  0  0
  2  5  1  0  0  0  0
  3  7  1  6  0  0  0
  3  9  1  0  0  0  0
  3 14  1  0  0  0  0
  4 12  2  0  0  0  0
  4 10  1  0  0  0  0
  5  1  1  0  0  0  0
  6  7  2  0  0  0  0
  9 11  2  0  0  0  0
 10  2  2  0  0  0  0
 11  8  1  0  0  0  0
 12  6  1  0  0  0  0
 13  4  1  0  0  0  0
 14  8  1  0  0  0  0
 15  9  1  0  0  0  0
 16 15  2  0  0  0  0
 17 23  1  0  0  0  0
 17 22  1  0  0  0  0
 18 25  1  1  0  0  0
 20 18  1  0  0  0  0
 21 23  2  0  0  0  0
 22 15  1  6  0  0  0
 22 20  1  0  0  0  0
 23 24  1  0  0  0  0
 24 19  1  6  0  0  0
 24 18  1  0  0  0  0
 25 26  2  0  0  0  0
 25 27  1  0  0  0  0
 28 10  1  0  0  0  0
 29 28  1  0  0  0  0
 31 33  1  0  0  0  0
 32 29  1  0  0  0  0
 33 32  1  0  0  0  0
 33 30  1  0  0  0  0
 34 32  2  0  0  0  0
M  END
>  <MODEL>
6

>  <REMARK>
 VINA RESULT:      -8.2      2.216      3.269
  Name = 
  6 active torsions:
  status: ('A' for Active; 'I' for Inactive)
    1  A    between atoms: C_3  and  C_6
    2  A    between atoms: O_5  and  O_19
    3  A    between atoms: O_5  and  C_28
    4  A    between atoms: C_12  and  C_21
    5  A    between atoms: C_12  and  C_27
    6  A    between atoms: O_19  and  C_22
                            x       y       z     vdW  Elec       q    Type
                         _______ _______ _______ _____ _____    ______ ____

>  <TORSDO>
F 6

$$$$
=
 OpenBabel11072413123D

 34 37  0  0  1  0  0  0  0  0999 V2000
  161.1950  207.0830  155.0270 N   0  0  0  0  0  0  0  0  0  0  0  0
  160.2660  209.1590  154.1290 C   0  0  0  0  0  0  0  0  0  0  0  0
  160.7620  207.2110  152.6120 C   0  0  1  0  0  3  0  0  0  0  0  0
  160.2550  211.4550  153.3090 C   0  0  0  0  0  0  0  0  0  0  0  0
  160.1900  208.1290  155.2440 C   0  0  0  0  0  2  0  0  0  0  0  0
  160.7980  209.6390  151.7970 C   0  0  0  0  0  3  0  0  0  0  0  0
  160.6250  208.7090  152.8330 C   0  0  0  0  0  0  0  0  0  0  0  0
  162.5680  205.8740  153.5080 N   0  0  0  0  0  2  0  0  0  0  0  0
  161.7480  206.7780  151.5620 C   0  0  0  0  0  0  0  0  0  0  0  0
  160.0420  210.5400  154.3570 C   0  0  0  0  0  0  0  0  0  0  0  0
  162.7060  206.0170  152.0950 C   0  0  0  0  0  3  0  0  0  0  0  0
  160.6260  211.0060  152.0370 C   0  0  0  0  0  3  0  0  0  0  0  0
  160.0810  212.8200  153.5230 O   0  0  0  0  0  1  0  0  0  0  0  0
  161.4110  206.6230  153.8280 C   0  0  0  0  0  0  0  0  0  0  0  0
  161.5780  206.9540  150.1050 C   0  0  0  0  0  0  0  0  0  0  0  0
  161.4370  208.1100  149.6180 O   0  0  0  0  0  0  0  0  0  0  0  0
  160.8310  204.5860  149.7640 C   0  0  0  0  0  2  0  0  0  0  0  0
  161.0950  204.9180  146.8290 C   0  0  2  0  0  3  0  0  0  0  0  0
  161.2070  202.5340  146.6350 F   0  0  0  0  0  0  0  0  0  0  0  0
  161.1480  206.1370  147.7820 C   0  0  0  0  0  2  0  0  0  0  0  0
  160.4300  202.3360  149.1670 O   0  0  0  0  0  0  0  0  0  0  0  0
  161.6250  205.7700  149.1960 C   0  0  1  0  0  3  0  0  0  0  0  0
  160.8860  203.4200  148.8210 C   0  0  0  0  0  0  0  0  0  0  0  0
  161.5300  203.5890  147.4690 C   0  0  2  0  0  3  0  0  0  0  0  0
  161.8960  205.1920  145.5980 C   0  0  0  0  0  0  0  0  0  0  0  0
  163.1490  205.0720  145.6240 O   0  0  0  0  0  1  0  0  0  0  0  0
  161.2750  205.6300  144.4330 O   0  0  0  0  0  0  0  0  0  0  0  0
  159.6520  211.0480  155.6070 O   0  0  0  0  0  0  0  0  0  0  0  0
  158.3660  211.0360  156.0930 O   0  0  0  0  0  0  0  0  0  0  0  0
  157.6460  213.9380  155.9760 C   0  0  0  0  0  1  0  0  0  0  0  0
  156.1800  213.3350  154.0600 C   0  0  0  0  0  1  0  0  0  0  0  0
  157.2430  211.5250  155.4110 C   0  0  0  0  0  0  0  0  0  0  0  0
  157.0890  212.9180  155.1080 N   0  0  0  0  0  0  0  0  0  0  0  0
  156.3410  210.7030  155.0750 O   0  0  0  0  0  0  0  0  0  0  0  0
  1  5  1  0  0  0  0
  2 10  1  0  0  0  0
  2  5  1  0  0  0  0
  3  9  1  6  0  0  0
  3  7  1  0  0  0  0
  3 14  1  0  0  0  0
  4 13  1  0  0  0  0
  4 10  2  0  0  0  0
  6 12  2  0  0  0  0
  6  7  1  0  0  0  0
  7  2  2  0  0  0  0
  8 14  1  0  0  0  0
  9 11  2  0  0  0  0
 10 28  1  0  0  0  0
 11  8  1  0  0  0  0
 12  4  1  0  0  0  0
 14  1  2  0  0  0  0
 15  9  1  0  0  0  0
 16 15  2  0  0  0  0
 18 25  1  6  0  0  0
 18 24  1  0  0  0  0
 18 20  1  0  0  0  0
 20 22  1  0  0  0  0
 22 17  1  0  0  0  0
 22 15  1  1  0  0  0
 23 21  2  0  0  0  0
 23 17  1  0  0  0  0
 24 19  1  6  0  0  0
 24 23  1  0  0  0  0
 25 26  1  0  0  0  0
 27 25  2  0  0  0  0
 28 29  1  0  0  0  0
 31 33  1  0  0  0  0
 32 29  1  0  0  0  0
 33 32  1  0  0  0  0
 33 30  1  0  0  0  0
 34 32  2  0  0  0  0
M  END
>  <MODEL>
7

>  <REMARK>
 VINA RESULT:      -8.1      3.523      9.456
  Name = 
  6 active torsions:
  status: ('A' for Active; 'I' for Inactive)
    1  A    between atoms: C_3  and  C_6
    2  A    between atoms: O_5  and  O_19
    3  A    between atoms: O_5  and  C_28
    4  A    between atoms: C_12  and  C_21
    5  A    between atoms: C_12  and  C_27
    6  A    between atoms: O_19  and  C_22
                            x       y       z     vdW  Elec       q    Type
                         _______ _______ _______ _____ _____    ______ ____

>  <TORSDO>
F 6

$$$$
=
 OpenBabel11072413123D

 34 37  0  0  1  0  0  0  0  0999 V2000
  161.6150  207.8130  148.5240 N   0  0  0  0  0  0  0  0  0  0  0  0
  160.9480  205.9720  149.9900 C   0  0  0  0  0  0  0  0  0  0  0  0
  160.8280  208.3580  150.7860 C   0  0  1  0  0  3  0  0  0  0  0  0
  161.2240  204.1130  151.5410 C   0  0  0  0  0  0  0  0  0  0  0  0
  160.8670  206.5530  148.5870 C   0  0  0  0  0  2  0  0  0  0  0  0
  161.1750  206.3860  152.3830 C   0  0  0  0  0  3  0  0  0  0  0  0
  161.0050  206.8770  151.0800 C   0  0  0  0  0  0  0  0  0  0  0  0
  162.4810  209.7170  149.6560 N   0  0  0  0  0  2  0  0  0  0  0  0
  161.5360  209.3110  151.7100 C   0  0  0  0  0  0  0  0  0  0  0  0
  161.0200  204.5770  150.2280 C   0  0  0  0  0  0  0  0  0  0  0  0
  162.4120  210.0610  151.0390 C   0  0  0  0  0  3  0  0  0  0  0  0
  161.2970  205.0110  152.6100 C   0  0  0  0  0  3  0  0  0  0  0  0
  161.3390  202.7480  151.7930 O   0  0  0  0  0  1  0  0  0  0  0  0
  161.5470  208.6640  149.5070 C   0  0  0  0  0  0  0  0  0  0  0  0
  161.1680  209.5710  153.1170 C   0  0  0  0  0  0  0  0  0  0  0  0
  161.5710  208.7980  154.0310 O   0  0  0  0  0  0  0  0  0  0  0  0
  159.6180  211.3410  152.2540 C   0  0  0  0  0  2  0  0  0  0  0  0
  158.4720  211.6720  154.9690 C   0  0  2  0  0  3  0  0  0  0  0  0
  157.6790  213.8310  154.3000 F   0  0  0  0  0  0  0  0  0  0  0  0
  159.3920  210.4750  154.6270 C   0  0  0  0  0  2  0  0  0  0  0  0
  158.2570  213.2130  151.7830 O   0  0  0  0  0  0  0  0  0  0  0  0
  160.3600  210.7750  153.4720 C   0  0  1  0  0  3  0  0  0  0  0  0
  158.8070  212.5410  152.6480 C   0  0  0  0  0  0  0  0  0  0  0  0
  158.7030  212.9220  154.1020 C   0  0  2  0  0  3  0  0  0  0  0  0
  158.5890  212.0150  156.4190 C   0  0  0  0  0  0  0  0  0  0  0  0
  157.6170  211.8100  157.1920 O   0  0  0  0  0  1  0  0  0  0  0  0
  159.7450  212.6090  156.9140 O   0  0  0  0  0  0  0  0  0  0  0  0
  160.9370  203.6270  149.1970 O   0  0  0  0  0  0  0  0  0  0  0  0
  161.7400  203.6070  148.0810 O   0  0  0  0  0  0  0  0  0  0  0  0
  161.1990  200.6930  147.6670 C   0  0  0  0  0  1  0  0  0  0  0  0
  160.0860  201.3610  145.5470 C   0  0  0  0  0  1  0  0  0  0  0  0
  161.3820  203.0580  146.8410 C   0  0  0  0  0  0  0  0  0  0  0  0
  160.8320  201.7380  146.7290 N   0  0  0  0  0  0  0  0  0  0  0  0
  161.5700  203.7520  145.8010 O   0  0  0  0  0  0  0  0  0  0  0  0
  1  5  1  0  0  0  0
  1 14  2  0  0  0  0
  2 10  2  0  0  0  0
  2  7  1  0  0  0  0
  3 14  1  6  0  0  0
  3  7  1  0  0  0  0
  3  9  1  0  0  0  0
  4 13  1  0  0  0  0
  4 12  2  0  0  0  0
  5  2  1  0  0  0  0
  6 12  1  0  0  0  0
  7  6  2  0  0  0  0
  8 11  1  0  0  0  0
  9 15  1  0  0  0  0
 10  4  1  0  0  0  0
 11  9  2  0  0  0  0
 14  8  1  0  0  0  0
 15 16  2  0  0  0  0
 17 23  1  0  0  0  0
 17 22  1  0  0  0  0
 18 25  1  1  0  0  0
 20 18  1  0  0  0  0
 21 23  2  0  0  0  0
 22 15  1  6  0  0  0
 22 20  1  0  0  0  0
 23 24  1  0  0  0  0
 24 19  1  6  0  0  0
 24 18  1  0  0  0  0
 25 27  2  0  0  0  0
 25 26  1  0  0  0  0
 28 10  1  0  0  0  0
 29 28  1  0  0  0  0
 31 33  1  0  0  0  0
 32 29  1  0  0  0  0
 33 32  1  0  0  0  0
 33 30  1  0  0  0  0
 34 32  2  0  0  0  0
M  END
>  <MODEL>
8

>  <REMARK>
 VINA RESULT:      -8.0      1.451      2.295
  Name = 
  6 active torsions:
  status: ('A' for Active; 'I' for Inactive)
    1  A    between atoms: C_3  and  C_6
    2  A    between atoms: O_5  and  O_19
    3  A    between atoms: O_5  and  C_28
    4  A    between atoms: C_12  and  C_21
    5  A    between atoms: C_12  and  C_27
    6  A    between atoms: O_19  and  C_22
                            x       y       z     vdW  Elec       q    Type
                         _______ _______ _______ _____ _____    ______ ____

>  <TORSDO>
F 6

$$$$
=
 OpenBabel11072413123D

 34 37  0  0  1  0  0  0  0  0999 V2000
  160.8310  205.8800  153.8980 N   0  0  0  0  0  0  0  0  0  0  0  0
  161.7300  207.1650  152.0210 C   0  0  0  0  0  0  0  0  0  0  0  0
  161.5370  208.1960  154.3110 C   0  0  1  0  0  3  0  0  0  0  0  0
  161.6960  208.5200  149.9950 C   0  0  0  0  0  0  0  0  0  0  0  0
  161.7370  205.8280  152.7460 C   0  0  0  0  0  2  0  0  0  0  0  0
  161.4470  209.5840  152.1590 C   0  0  0  0  0  3  0  0  0  0  0  0
  161.5540  208.3380  152.7970 C   0  0  0  0  0  0  0  0  0  0  0  0
  159.7230  207.1830  155.5500 N   0  0  0  0  0  2  0  0  0  0  0  0
  160.7100  209.2000  155.0660 C   0  0  0  0  0  0  0  0  0  0  0  0
  161.8400  207.2620  150.6120 C   0  0  0  0  0  0  0  0  0  0  0  0
  159.7440  208.5940  155.7600 C   0  0  0  0  0  3  0  0  0  0  0  0
  161.5050  209.6720  150.7650 C   0  0  0  0  0  3  0  0  0  0  0  0
  161.7600  208.6320  148.6090 O   0  0  0  0  0  1  0  0  0  0  0  0
  160.7870  206.9440  154.6470 C   0  0  0  0  0  0  0  0  0  0  0  0
  161.0390  210.6310  155.2280 C   0  0  0  0  0  0  0  0  0  0  0  0
  162.2170  210.9820  155.5180 O   0  0  0  0  0  0  0  0  0  0  0  0
  160.0260  212.2030  153.5590 C   0  0  0  0  0  2  0  0  0  0  0  0
  157.4720  212.1680  155.0660 C   0  0  2  0  0  3  0  0  0  0  0  0
  156.8830  214.2230  153.9870 F   0  0  0  0  0  0  0  0  0  0  0  0
  158.5980  211.1500  155.3720 C   0  0  0  0  0  2  0  0  0  0  0  0
  158.9170  213.8760  152.3150 O   0  0  0  0  0  0  0  0  0  0  0  0
  159.9940  211.6720  155.0000 C   0  0  1  0  0  3  0  0  0  0  0  0
  158.9560  213.2360  153.3600 C   0  0  0  0  0  0  0  0  0  0  0  0
  157.9600  213.4950  154.4600 C   0  0  2  0  0  3  0  0  0  0  0  0
  156.6600  212.4230  156.2950 C   0  0  0  0  0  0  0  0  0  0  0  0
  156.9880  213.3460  157.0840 O   0  0  0  0  0  1  0  0  0  0  0  0
  155.5720  211.6130  156.6020 O   0  0  0  0  0  0  0  0  0  0  0  0
  162.0480  206.1430  149.7890 O   0  0  0  0  0  0  0  0  0  0  0  0
  161.0480  205.4090  149.1940 O   0  0  0  0  0  0  0  0  0  0  0  0
  160.8310  202.9000  150.8090 C   0  0  0  0  0  1  0  0  0  0  0  0
  160.5670  201.7130  148.6410 C   0  0  0  0  0  1  0  0  0  0  0  0
  161.2060  204.1270  148.6510 C   0  0  0  0  0  0  0  0  0  0  0  0
  160.7980  202.9490  149.3600 N   0  0  0  0  0  0  0  0  0  0  0  0
  161.7400  204.0210  147.5090 O   0  0  0  0  0  0  0  0  0  0  0  0
  1 14  2  0  0  0  0
  2  5  1  0  0  0  0
  2  7  1  0  0  0  0
  3  7  1  6  0  0  0
  3 14  1  0  0  0  0
  3  9  1  0  0  0  0
  4 10  1  0  0  0  0
  4 12  2  0  0  0  0
  5  1  1  0  0  0  0
  6  7  2  0  0  0  0
  8 11  1  0  0  0  0
  9 15  1  0  0  0  0
  9 11  2  0  0  0  0
 10  2  2  0  0  0  0
 12  6  1  0  0  0  0
 13  4  1  0  0  0  0
 14  8  1  0  0  0  0
 15 16  2  0  0  0  0
 17 22  1  0  0  0  0
 18 20  1  0  0  0  0
 18 25  1  1  0  0  0
 21 23  2  0  0  0  0
 22 15  1  6  0  0  0
 22 20  1  0  0  0  0
 23 17  1  0  0  0  0
 23 24  1  0  0  0  0
 24 19  1  6  0  0  0
 24 18  1  0  0  0  0
 25 27  2  0  0  0  0
 25 26  1  0  0  0  0
 28 10  1  0  0  0  0
 29 28  1  0  0  0  0
 31 33  1  0  0  0  0
 32 29  1  0  0  0  0
 32 33  1  0  0  0  0
 33 30  1  0  0  0  0
 34 32  2  0  0  0  0
M  END
>  <MODEL>
9

>  <REMARK>
 VINA RESULT:      -7.7      2.388      4.058
  Name = 
  6 active torsions:
  status: ('A' for Active; 'I' for Inactive)
    1  A    between atoms: C_3  and  C_6
    2  A    between atoms: O_5  and  O_19
    3  A    between atoms: O_5  and  C_28
    4  A    between atoms: C_12  and  C_21
    5  A    between atoms: C_12  and  C_27
    6  A    between atoms: O_19  and  C_22
                            x       y       z     vdW  Elec       q    Type
                         _______ _______ _______ _____ _____    ______ ____

>  <TORSDO>
F 6

$$$$
