=
 OpenBabel11072415283D

 59 64  0  0  1  0  0  0  0  0999 V2000
  161.9960  206.5710  150.3940 C   0  0  2  0  0  3  0  0  0  0  0  0
  161.4580  208.9080  151.4290 C   0  0  1  0  0  0  0  0  0  0  0  0
  161.6310  207.2300  149.0580 C   0  0  1  0  0  3  0  0  0  0  0  0
  160.7330  206.4530  151.2340 C   0  0  0  0  0  2  0  0  0  0  0  0
  161.5200  208.7440  149.1280 C   0  0  0  0  0  2  0  0  0  0  0  0
  160.7330  209.1260  150.2250 O   0  0  0  0  0  0  0  0  0  0  0  0
  161.8220  207.4220  151.6620 C   0  0  1  0  0  3  0  0  0  0  0  0
  162.7480  209.7330  151.4580 C   0  0  0  0  0  1  0  0  0  0  0  0
  160.6380  209.3990  152.6280 C   0  0  0  0  0  2  0  0  0  0  0  0
  160.9510  210.8370  153.0520 C   0  0  1  0  0  3  0  0  0  0  0  0
  159.6850  211.6830  153.2740 C   0  0  2  0  0  3  0  0  0  0  0  0
  158.5240  210.9130  153.1290 O   0  0  0  0  0  1  0  0  0  0  0  0
  159.6100  212.8870  152.3180 C   0  0  2  0  0  3  0  0  0  0  0  0
  158.2190  213.2210  151.8680 C   0  0  0  0  0  3  0  0  0  0  0  0
  157.6240  214.2600  152.3220 N   0  0  0  0  0  2  0  0  0  0  0  0
  160.5400  212.7270  151.1080 C   0  0  0  0  0  2  0  0  0  0  0  0
  160.1940  213.6430  149.9330 C   0  0  0  0  0  2  0  0  0  0  0  0
  160.8480  213.1930  148.6710 C   0  0  0  0  0  0  0  0  0  0  0  0
  160.5730  213.7580  147.5790 O   0  0  0  0  0  0  0  0  0  0  0  0
  161.7630  212.1490  148.7010 O   0  0  0  0  0  1  0  0  0  0  0  0
  161.9020  210.7730  154.6070 S   0  0  0  0  0  0  0  0  0  0  0  0
  159.6710  210.7740  156.2780 N   0  0  0  0  0  2  0  0  0  0  0  0
  160.6230  211.5720  155.5690 C   0  0  0  0  0  0  0  0  0  0  0  0
  160.5680  212.8280  155.6150 O   0  0  0  0  0  0  0  0  0  0  0  0
  158.6750  211.3480  157.1680 C   0  0  0  0  0  2  0  0  0  0  0  0
  154.9300  211.9210  157.0370 C   0  0  0  0  0  1  0  0  0  0  0  0
  157.0570  212.7140  155.8830 C   0  0  2  0  0  0  0  0  0  0  0  0
  156.1610  212.6300  154.8270 F   0  0  0  0  0  0  0  0  0  0  0  0
  157.3150  211.3550  156.4970 C   0  0  2  0  0  3  0  0  0  0  0  0
  156.3920  212.3080  157.2240 C   0  0  2  0  0  0  0  0  0  0  0  0
  156.6280  213.7640  156.8840 C   0  0  0  0  0  2  0  0  0  0  0  0
  162.5380  206.7790  147.9030 C   0  0  0  0  0  2  0  0  0  0  0  0
  162.2880  205.3700  147.3190 C   0  0  1  0  0  3  0  0  0  0  0  0
  160.8520  204.8820  147.4680 C   0  0  0  0  0  2  0  0  0  0  0  0
  161.6350  202.5120  150.4450 C   0  0  0  0  0  2  0  0  0  0  0  0
  160.4500  201.5390  150.4460 C   0  0  0  0  0  2  0  0  0  0  0  0
  161.3740  203.8030  149.6660 C   0  0  0  0  0  2  0  0  0  0  0  0
  161.4630  202.4590  147.4770 C   0  0  0  0  0  2  0  0  0  0  0  0
  161.2140  201.0500  148.0460 C   0  0  0  0  0  2  0  0  0  0  0  0
  160.0670  200.9940  149.0600 C   0  0  0  0  0  2  0  0  0  0  0  0
  160.7860  203.5890  148.2670 C   0  0  0  0  0  3  0  0  0  0  0  0
  162.7400  205.2440  145.8720 C   0  0  0  0  0  2  0  0  0  0  0  0
  161.6710  205.7590  144.9140 C   0  0  2  0  0  3  0  0  0  0  0  0
  160.2980  205.1910  145.2780 C   0  0  0  0  0  2  0  0  0  0  0  0
  159.8490  204.0860  144.3300 C   0  0  0  0  0  1  0  0  0  0  0  0
  162.0560  205.4480  143.4690 C   0  0  0  0  0  2  0  0  0  0  0  0
  161.6160  206.5600  142.5350 C   0  0  0  0  0  2  0  0  0  0  0  0
  162.3990  206.4550  141.2410 C   0  0  0  0  0  2  0  0  0  0  0  0
  161.9510  207.4970  140.2740 C   0  0  0  0  0  0  0  0  0  0  0  0
  161.2510  207.1950  139.3200 O   0  0  0  0  0  0  0  0  0  0  0  0
  162.3730  208.9210  140.4860 C   0  0  0  0  0  2  0  0  0  0  0  0
  162.1720  210.2470  138.3420 C   0  0  0  0  0  2  0  0  0  0  0  0
  160.6970  211.0260  141.6210 O   0  0  0  0  0  0  0  0  0  0  0  0
  161.3790  212.5560  139.9630 C   0  0  2  0  0  3  0  0  0  0  0  0
  161.6100  211.4650  137.7750 N   0  0  0  0  0  2  0  0  0  0  0  0
  161.1960  211.1640  140.5130 C   0  0  0  0  0  0  0  0  0  0  0  0
  162.0820  212.5660  138.6050 C   0  0  0  0  0  2  0  0  0  0  0  0
  162.1060  213.3340  140.8610 O   0  0  0  0  0  1  0  0  0  0  0  0
  161.5320  209.9310  139.7000 C   0  0  2  0  0  3  0  0  0  0  0  0
  1  4  1  1  0  0  0
  1  7  1  0  0  0  0
  2  8  1  6  0  0  0
  2  7  1  0  0  0  0
  2  9  1  0  0  0  0
  3 32  1  6  0  0  0
  3  5  1  0  0  0  0
  3  1  1  0  0  0  0
  5  6  1  0  0  0  0
  6  2  1  0  0  0  0
  7  4  1  1  0  0  0
 10  9  1  1  0  0  0
 10 11  1  0  0  0  0
 10 21  1  0  0  0  0
 11 12  1  6  0  0  0
 13 16  1  6  0  0  0
 13 11  1  0  0  0  0
 14 13  1  0  0  0  0
 14 15  2  0  0  0  0
 17 16  1  0  0  0  0
 18 20  1  0  0  0  0
 18 17  1  0  0  0  0
 19 18  2  0  0  0  0
 21 23  1  0  0  0  0
 22 25  1  0  0  0  0
 23 24  2  0  0  0  0
 23 22  1  0  0  0  0
 27 28  1  6  0  0  0
 27 29  1  0  0  0  0
 27 31  1  0  0  0  0
 27 30  1  0  0  0  0
 29 25  1  1  0  0  0
 29 30  1  0  0  0  0
 30 26  1  6  0  0  0
 31 30  1  0  0  0  0
 33 42  1  6  0  0  0
 33 34  1  0  0  0  0
 33 32  1  0  0  0  0
 34 41  1  0  0  0  0
 35 36  1  0  0  0  0
 37 35  1  0  0  0  0
 38 39  1  0  0  0  0
 38 41  1  0  0  0  0
 39 40  1  0  0  0  0
 40 36  1  0  0  0  0
 41 37  1  0  0  0  0
 43 46  1  6  0  0  0
 43 44  1  0  0  0  0
 43 42  1  0  0  0  0
 45 44  1  0  0  0  0
 47 46  1  0  0  0  0
 48 47  1  0  0  0  0
 49 51  1  0  0  0  0
 49 48  1  0  0  0  0
 50 49  2  0  0  0  0
 52 59  1  0  0  0  0
 54 56  1  0  0  0  0
 54 58  1  1  0  0  0
 55 52  1  0  0  0  0
 55 57  1  0  0  0  0
 56 53  2  0  0  0  0
 57 54  1  0  0  0  0
 59 51  1  1  0  0  0
 59 56  1  0  0  0  0
M  END
>  <MODEL>
1

>  <REMARK>
 VINA RESULT:      -4.4      0.000      0.000
  Name = 
  25 active torsions:
  status: ('A' for Active; 'I' for Inactive)
    1  A    between atoms: C_3  and  C_25
    2  A    between atoms: C_5  and  C_42
    3  A    between atoms: C_6  and  C_19
    4  A    between atoms: C_6  and  C_31
    5  A    between atoms: C_9  and  C_19
    6  A    between atoms: C_9  and  C_54
    7  A    between atoms: C_11  and  C_27
    8  A    between atoms: C_13  and  C_25
    9  A    between atoms: C_13  and  C_28
   10  A    between atoms: C_15  and  C_28
   11  A    between atoms: C_15  and  C_59
   12  A    between atoms: C_17  and  C_37
   13  A    between atoms: C_27  and  C_38
   14  A    between atoms: C_28  and  C_41
   15  A    between atoms: C_30  and  C_37
   16  A    between atoms: C_30  and  C_38
   17  A    between atoms: C_31  and  C_37
   18  A    between atoms: C_38  and  C_48
   19  A    between atoms: C_39  and  C_48
   20  A    between atoms: C_42  and  C_59
   21  A    between atoms: N_44  and  C_57
   22  A    between atoms: C_45  and  C_57
   23  A    between atoms: C_46  and  S_55
   24  A    between atoms: C_52  and  C_54
   25  A    between atoms: S_55  and  C_59
                            x       y       z     vdW  Elec       q    Type
                         _______ _______ _______ _____ _____    ______ ____

>  <TORSDO>
F 25

$$$$
=
 OpenBabel11072415283D

 59 65  0  0  1  0  0  0  0  0999 V2000
  161.6210  205.0420  149.3220 C   0  0  2  0  0  3  0  0  0  0  0  0
  161.5210  207.3570  150.5270 C   0  0  1  0  0  0  0  0  0  0  0  0
  162.0400  205.8540  148.0910 C   0  0  1  0  0  3  0  0  0  0  0  0
  160.1670  205.3640  149.6400 C   0  0  0  0  0  2  0  0  0  0  0  0
  162.4130  207.2940  148.4000 C   0  0  0  0  0  2  0  0  0  0  0  0
  161.4360  207.8890  149.2110 O   0  0  0  0  0  0  0  0  0  0  0  0
  161.2570  205.8330  150.5890 C   0  0  1  0  0  3  0  0  0  0  0  0
  162.8920  207.6370  151.1510 C   0  0  0  0  0  1  0  0  0  0  0  0
  160.5110  208.0600  151.4410 C   0  0  0  0  0  2  0  0  0  0  0  0
  160.9220  209.4760  151.8550 C   0  0  1  0  0  3  0  0  0  0  0  0
  161.5700  209.5270  153.2490 C   0  0  2  0  0  3  0  0  0  0  0  0
  161.3600  208.3340  153.9540 O   0  0  0  0  0  1  0  0  0  0  0  0
  161.0510  210.7050  154.0940 C   0  0  2  0  0  3  0  0  0  0  0  0
  161.6940  210.8140  155.4450 C   0  0  0  0  0  3  0  0  0  0  0  0
  162.9690  210.8320  155.5550 N   0  0  0  0  0  2  0  0  0  0  0  0
  159.5220  210.6940  154.2270 C   0  0  0  0  0  2  0  0  0  0  0  0
  158.8700  212.0560  153.9880 C   0  0  0  0  0  2  0  0  0  0  0  0
  158.6980  212.8170  155.2580 C   0  0  0  0  0  0  0  0  0  0  0  0
  157.9580  212.3660  156.1730 O   0  0  0  0  0  1  0  0  0  0  0  0
  159.3560  214.0270  155.4330 O   0  0  0  0  0  0  0  0  0  0  0  0
  162.1150  210.1000  150.6240 S   0  0  0  0  0  0  0  0  0  0  0  0
  161.7510  212.5970  149.4390 N   0  0  0  0  0  2  0  0  0  0  0  0
  161.2540  211.6490  150.3880 C   0  0  0  0  0  0  0  0  0  0  0  0
  160.2180  211.8970  151.0580 O   0  0  0  0  0  0  0  0  0  0  0  0
  161.0440  213.8250  149.1130 C   0  0  0  0  0  2  0  0  0  0  0  0
  162.4050  213.2560  145.6210 C   0  0  0  0  0  1  0  0  0  0  0  0
  160.1730  213.5410  146.8110 C   0  0  2  0  0  0  0  0  0  0  0  0
  159.9710  214.2430  145.6320 F   0  0  0  0  0  0  0  0  0  0  0  0
  161.2570  214.1780  147.6530 C   0  0  2  0  0  3  0  0  0  0  0  0
  161.5960  212.9290  146.8700 C   0  0  2  0  0  0  0  0  0  0  0  0
  160.3950  212.0690  146.5430 C   0  0  0  0  0  2  0  0  0  0  0  0
  163.1220  205.1530  147.2550 C   0  0  0  0  0  2  0  0  0  0  0  0
  162.6740  204.4940  145.9310 C   0  0  1  0  0  3  0  0  0  0  0  0
  161.2430  203.9690  145.9510 C   0  0  2  0  0  3  0  0  0  0  0  0
  160.0090  200.3100  145.5320 C   0  0  0  0  0  2  0  0  0  0  0  0
  161.2050  199.4750  146.0050 C   0  0  0  0  0  2  0  0  0  0  0  0
  160.3660  201.7560  145.1780 C   0  0  0  0  0  2  0  0  0  0  0  0
  160.7190  202.2410  147.6780 C   0  0  0  0  0  2  0  0  0  0  0  0
  160.9060  200.7990  148.1820 C   0  0  0  0  0  2  0  0  0  0  0  0
  161.8510  199.9640  147.3130 C   0  0  0  0  0  2  0  0  0  0  0  0
  161.2040  202.4770  146.2400 C   0  0  0  0  0  3  0  0  0  0  0  0
  162.8870  205.3950  144.7240 C   0  0  0  0  0  2  0  0  0  0  0  0
  161.5580  205.8810  144.1570 C   0  0  2  0  0  3  0  0  0  0  0  0
  160.3860  205.3190  144.9650 C   0  0  2  0  0  3  0  0  0  0  0  0
  159.6470  206.3920  145.7550 C   0  0  0  0  0  1  0  0  0  0  0  0
  161.4510  205.5320  142.6740 C   0  0  0  0  0  2  0  0  0  0  0  0
  161.7620  206.7360  141.8050 C   0  0  0  0  0  2  0  0  0  0  0  0
  162.3770  206.2590  140.5040 C   0  0  0  0  0  2  0  0  0  0  0  0
  162.0300  207.1890  139.3920 C   0  0  0  0  0  0  0  0  0  0  0  0
  162.2100  206.8570  138.2300 O   0  0  0  0  0  0  0  0  0  0  0  0
  161.4610  208.5380  139.7160 C   0  0  0  0  0  2  0  0  0  0  0  0
  162.8160  210.6720  139.7580 C   0  0  0  0  0  2  0  0  0  0  0  0
  160.3640  209.6090  137.2300 O   0  0  0  0  0  0  0  0  0  0  0  0
  160.8870  211.8160  137.8720 C   0  0  2  0  0  3  0  0  0  0  0  0
  163.0410  211.9230  139.0470 N   0  0  0  0  0  2  0  0  0  0  0  0
  161.0380  210.3180  137.9640 C   0  0  0  0  0  0  0  0  0  0  0  0
  161.7380  212.5590  138.9020 C   0  0  0  0  0  2  0  0  0  0  0  0
  159.5510  212.1740  138.0370 O   0  0  0  0  0  1  0  0  0  0  0  0
  162.0580  209.6710  138.8770 C   0  0  2  0  0  3  0  0  0  0  0  0
  1  4  1  6  0  0  0
  1  7  1  0  0  0  0
  2  7  1  0  0  0  0
  2  8  1  1  0  0  0
  2  9  1  0  0  0  0
  3 32  1  1  0  0  0
  3  5  1  0  0  0  0
  3  1  1  0  0  0  0
  5  6  1  0  0  0  0
  6  2  1  0  0  0  0
  7  4  1  6  0  0  0
 10  9  1  6  0  0  0
 10 11  1  0  0  0  0
 11 12  1  1  0  0  0
 11 13  1  0  0  0  0
 13 16  1  1  0  0  0
 13 14  1  0  0  0  0
 14 15  2  0  0  0  0
 17 16  1  0  0  0  0
 17 18  1  0  0  0  0
 18 20  2  0  0  0  0
 18 19  1  0  0  0  0
 21 10  1  0  0  0  0
 22 23  1  0  0  0  0
 23 21  1  0  0  0  0
 23 24  2  0  0  0  0
 25 22  1  0  0  0  0
 27 28  1  6  0  0  0
 27 30  1  0  0  0  0
 27 29  1  0  0  0  0
 29 25  1  1  0  0  0
 30 26  1  6  0  0  0
 30 29  1  0  0  0  0
 31 27  1  0  0  0  0
 31 30  1  0  0  0  0
 33 34  1  0  0  0  0
 33 32  1  1  0  0  0
 34 41  1  6  0  0  0
 35 36  1  0  0  0  0
 36 40  1  0  0  0  0
 37 35  1  0  0  0  0
 37 41  1  0  0  0  0
 38 39  1  0  0  0  0
 40 39  1  0  0  0  0
 41 38  1  0  0  0  0
 42 33  1  0  0  0  0
 43 46  1  6  0  0  0
 43 42  1  0  0  0  0
 43 44  1  0  0  0  0
 44 45  1  1  0  0  0
 44 34  1  0  0  0  0
 47 46  1  0  0  0  0
 48 47  1  0  0  0  0
 49 51  1  0  0  0  0
 49 48  1  0  0  0  0
 50 49  2  0  0  0  0
 53 56  2  0  0  0  0
 54 56  1  0  0  0  0
 54 58  1  1  0  0  0
 54 57  1  0  0  0  0
 55 52  1  0  0  0  0
 56 59  1  0  0  0  0
 57 55  1  0  0  0  0
 59 51  1  1  0  0  0
 59 52  1  0  0  0  0
M  END
>  <MODEL>
2

>  <REMARK>
 VINA RESULT:      -3.5      2.445      5.024
  Name = 
  25 active torsions:
  status: ('A' for Active; 'I' for Inactive)
    1  A    between atoms: C_3  and  C_25
    2  A    between atoms: C_5  and  C_42
    3  A    between atoms: C_6  and  C_19
    4  A    between atoms: C_6  and  C_31
    5  A    between atoms: C_9  and  C_19
    6  A    between atoms: C_9  and  C_54
    7  A    between atoms: C_11  and  C_27
    8  A    between atoms: C_13  and  C_25
    9  A    between atoms: C_13  and  C_28
   10  A    between atoms: C_15  and  C_28
   11  A    between atoms: C_15  and  C_59
   12  A    between atoms: C_17  and  C_37
   13  A    between atoms: C_27  and  C_38
   14  A    between atoms: C_28  and  C_41
   15  A    between atoms: C_30  and  C_37
   16  A    between atoms: C_30  and  C_38
   17  A    between atoms: C_31  and  C_37
   18  A    between atoms: C_38  and  C_48
   19  A    between atoms: C_39  and  C_48
   20  A    between atoms: C_42  and  C_59
   21  A    between atoms: N_44  and  C_57
   22  A    between atoms: C_45  and  C_57
   23  A    between atoms: C_46  and  S_55
   24  A    between atoms: C_52  and  C_54
   25  A    between atoms: S_55  and  C_59
                            x       y       z     vdW  Elec       q    Type
                         _______ _______ _______ _____ _____    ______ ____

>  <TORSDO>
F 25

$$$$
=
 OpenBabel11072415283D

 59 64  0  0  1  0  0  0  0  0999 V2000
  161.8660  206.1980  150.1150 C   0  0  2  0  0  3  0  0  0  0  0  0
  161.4660  208.4640  151.3500 C   0  0  1  0  0  0  0  0  0  0  0  0
  161.7110  207.0250  148.8340 C   0  0  1  0  0  3  0  0  0  0  0  0
  160.5170  206.1380  150.8160 C   0  0  0  0  0  2  0  0  0  0  0  0
  161.7500  208.5270  149.0610 C   0  0  0  0  0  2  0  0  0  0  0  0
  160.8970  208.8830  150.1160 O   0  0  0  0  0  0  0  0  0  0  0  0
  161.6490  206.9300  151.4490 C   0  0  1  0  0  3  0  0  0  0  0  0
  162.8240  209.1300  151.5910 C   0  0  0  0  0  1  0  0  0  0  0  0
  160.5800  208.9210  152.5150 C   0  0  0  0  0  2  0  0  0  0  0  0
  160.2510  210.4160  152.5010 C   0  0  1  0  0  3  0  0  0  0  0  0
  160.3260  211.0580  153.8970 C   0  0  2  0  0  3  0  0  0  0  0  0
  161.6230  210.9870  154.4230 O   0  0  0  0  0  1  0  0  0  0  0  0
  159.3460  210.4120  154.8930 C   0  0  2  0  0  3  0  0  0  0  0  0
  158.2350  211.3210  155.3290 C   0  0  0  0  0  3  0  0  0  0  0  0
  158.4980  212.4620  155.8460 N   0  0  0  0  0  2  0  0  0  0  0  0
  160.0640  209.8190  156.1130 C   0  0  0  0  0  2  0  0  0  0  0  0
  161.0410  208.6940  155.7700 C   0  0  0  0  0  2  0  0  0  0  0  0
  160.3430  207.3870  155.6100 C   0  0  0  0  0  0  0  0  0  0  0  0
  159.2150  207.2010  156.1380 O   0  0  0  0  0  1  0  0  0  0  0  0
  160.9390  206.3710  154.8740 O   0  0  0  0  0  0  0  0  0  0  0  0
  161.4460  211.2470  151.4010 S   0  0  0  0  0  0  0  0  0  0  0  0
  160.4420  213.2620  149.7570 N   0  0  0  0  0  2  0  0  0  0  0  0
  160.3450  212.6050  151.0230 C   0  0  0  0  0  0  0  0  0  0  0  0
  159.4940  212.9750  151.8730 O   0  0  0  0  0  0  0  0  0  0  0  0
  159.5100  214.2960  149.3360 C   0  0  0  0  0  2  0  0  0  0  0  0
  155.9750  214.3300  147.9690 C   0  0  0  0  0  1  0  0  0  0  0  0
  158.1640  213.0670  147.6580 C   0  0  2  0  0  0  0  0  0  0  0  0
  157.2220  212.0550  147.5520 F   0  0  0  0  0  0  0  0  0  0  0  0
  158.1530  213.6880  149.0380 C   0  0  2  0  0  3  0  0  0  0  0  0
  157.4930  214.4430  147.9060 C   0  0  2  0  0  0  0  0  0  0  0  0
  158.0200  214.0710  146.5370 C   0  0  0  0  0  2  0  0  0  0  0  0
  162.6830  206.5930  147.7240 C   0  0  0  0  0  2  0  0  0  0  0  0
  162.4650  205.1960  147.1010 C   0  0  1  0  0  3  0  0  0  0  0  0
  161.0960  204.5930  147.3900 C   0  0  0  0  0  2  0  0  0  0  0  0
  160.6070  200.7890  146.7760 C   0  0  0  0  0  2  0  0  0  0  0  0
  161.7220  200.1480  147.6110 C   0  0  0  0  0  2  0  0  0  0  0  0
  160.8290  202.2750  146.4840 C   0  0  0  0  0  2  0  0  0  0  0  0
  160.3540  202.7940  148.9560 C   0  0  0  0  0  2  0  0  0  0  0  0
  160.5990  201.3950  149.5510 C   0  0  0  0  0  2  0  0  0  0  0  0
  161.8730  200.7230  149.0290 C   0  0  0  0  0  2  0  0  0  0  0  0
  161.1990  203.1110  147.7140 C   0  0  0  0  0  3  0  0  0  0  0  0
  162.7490  205.1670  145.6070 C   0  0  0  0  0  2  0  0  0  0  0  0
  161.6320  205.8450  144.8210 C   0  0  2  0  0  3  0  0  0  0  0  0
  160.2860  205.6640  145.5270 C   0  0  0  0  0  2  0  0  0  0  0  0
  159.1320  205.4700  144.5510 C   0  0  0  0  0  1  0  0  0  0  0  0
  161.6000  205.3250  143.3850 C   0  0  0  0  0  2  0  0  0  0  0  0
  161.6080  206.4700  142.3890 C   0  0  0  0  0  2  0  0  0  0  0  0
  162.1560  205.9700  141.0680 C   0  0  0  0  0  2  0  0  0  0  0  0
  162.0410  207.0270  140.0220 C   0  0  0  0  0  0  0  0  0  0  0  0
  162.4860  206.8370  138.9000 O   0  0  0  0  0  0  0  0  0  0  0  0
  161.3780  208.3270  140.3660 C   0  0  0  0  0  2  0  0  0  0  0  0
  162.6410  210.4120  139.6920 C   0  0  0  0  0  2  0  0  0  0  0  0
  159.3010  209.3420  138.5800 O   0  0  0  0  0  0  0  0  0  0  0  0
  160.0890  211.5520  138.8100 C   0  0  2  0  0  3  0  0  0  0  0  0
  162.5430  211.6260  138.8940 N   0  0  0  0  0  2  0  0  0  0  0  0
  160.2430  210.0540  138.9000 C   0  0  0  0  0  0  0  0  0  0  0  0
  161.3230  212.3020  139.3140 C   0  0  0  0  0  2  0  0  0  0  0  0
  158.9740  211.9630  139.5360 O   0  0  0  0  0  1  0  0  0  0  0  0
  161.5540  209.4050  139.2930 C   0  0  2  0  0  3  0  0  0  0  0  0
  1  4  1  6  0  0  0
  1  7  1  0  0  0  0
  2  7  1  0  0  0  0
  2  8  1  1  0  0  0
  2  9  1  0  0  0  0
  3 32  1  6  0  0  0
  3  5  1  0  0  0  0
  3  1  1  0  0  0  0
  5  6  1  0  0  0  0
  6  2  1  0  0  0  0
  7  4  1  6  0  0  0
 10  9  1  1  0  0  0
 10 11  1  0  0  0  0
 11 12  1  1  0  0  0
 11 13  1  0  0  0  0
 13 14  1  1  0  0  0
 13 16  1  0  0  0  0
 14 15  2  0  0  0  0
 17 16  1  0  0  0  0
 18 17  1  0  0  0  0
 18 19  1  0  0  0  0
 20 18  2  0  0  0  0
 21 10  1  0  0  0  0
 22 23  1  0  0  0  0
 23 21  1  0  0  0  0
 23 24  2  0  0  0  0
 25 22  1  0  0  0  0
 27 28  1  6  0  0  0
 27 30  1  0  0  0  0
 27 29  1  0  0  0  0
 29 25  1  6  0  0  0
 30 26  1  1  0  0  0
 30 29  1  0  0  0  0
 31 27  1  0  0  0  0
 31 30  1  0  0  0  0
 33 42  1  6  0  0  0
 33 34  1  0  0  0  0
 33 32  1  0  0  0  0
 34 41  1  0  0  0  0
 35 36  1  0  0  0  0
 36 40  1  0  0  0  0
 37 35  1  0  0  0  0
 37 41  1  0  0  0  0
 38 39  1  0  0  0  0
 40 39  1  0  0  0  0
 41 38  1  0  0  0  0
 43 46  1  6  0  0  0
 43 44  1  0  0  0  0
 43 42  1  0  0  0  0
 45 44  1  0  0  0  0
 47 46  1  0  0  0  0
 48 47  1  0  0  0  0
 49 51  1  0  0  0  0
 49 48  1  0  0  0  0
 50 49  2  0  0  0  0
 53 56  2  0  0  0  0
 54 56  1  0  0  0  0
 54 57  1  0  0  0  0
 54 58  1  1  0  0  0
 55 57  1  0  0  0  0
 55 52  1  0  0  0  0
 56 59  1  0  0  0  0
 59 52  1  0  0  0  0
 59 51  1  1  0  0  0
M  END
>  <MODEL>
3

>  <REMARK>
 VINA RESULT:      -3.2      2.216      4.455
  Name = 
  25 active torsions:
  status: ('A' for Active; 'I' for Inactive)
    1  A    between atoms: C_3  and  C_25
    2  A    between atoms: C_5  and  C_42
    3  A    between atoms: C_6  and  C_19
    4  A    between atoms: C_6  and  C_31
    5  A    between atoms: C_9  and  C_19
    6  A    between atoms: C_9  and  C_54
    7  A    between atoms: C_11  and  C_27
    8  A    between atoms: C_13  and  C_25
    9  A    between atoms: C_13  and  C_28
   10  A    between atoms: C_15  and  C_28
   11  A    between atoms: C_15  and  C_59
   12  A    between atoms: C_17  and  C_37
   13  A    between atoms: C_27  and  C_38
   14  A    between atoms: C_28  and  C_41
   15  A    between atoms: C_30  and  C_37
   16  A    between atoms: C_30  and  C_38
   17  A    between atoms: C_31  and  C_37
   18  A    between atoms: C_38  and  C_48
   19  A    between atoms: C_39  and  C_48
   20  A    between atoms: C_42  and  C_59
   21  A    between atoms: N_44  and  C_57
   22  A    between atoms: C_45  and  C_57
   23  A    between atoms: C_46  and  S_55
   24  A    between atoms: C_52  and  C_54
   25  A    between atoms: S_55  and  C_59
                            x       y       z     vdW  Elec       q    Type
                         _______ _______ _______ _____ _____    ______ ____

>  <TORSDO>
F 25

$$$$
=
 OpenBabel11072415283D

 59 64  0  0  1  0  0  0  0  0999 V2000
  161.9930  207.2550  150.2660 C   0  0  2  0  0  3  0  0  0  0  0  0
  161.7680  209.8480  150.4830 C   0  0  1  0  0  0  0  0  0  0  0  0
  161.9580  207.5150  148.7560 C   0  0  1  0  0  3  0  0  0  0  0  0
  160.6210  207.5790  150.8420 C   0  0  0  0  0  2  0  0  0  0  0  0
  162.1310  208.9760  148.3780 C   0  0  0  0  0  2  0  0  0  0  0  0
  161.2820  209.7840  149.1490 O   0  0  0  0  0  0  0  0  0  0  0  0
  161.8020  208.4700  151.1880 C   0  0  1  0  0  3  0  0  0  0  0  0
  163.1750  210.4530  150.5340 C   0  0  0  0  0  1  0  0  0  0  0  0
  160.8930  210.7940  151.3130 C   0  0  0  0  0  2  0  0  0  0  0  0
  160.1060  211.8100  150.4800 C   0  0  1  0  0  3  0  0  0  0  0  0
  159.2950  212.7910  151.3440 C   0  0  2  0  0  3  0  0  0  0  0  0
  159.8050  214.0940  151.2540 O   0  0  0  0  0  1  0  0  0  0  0  0
  159.2530  212.3710  152.8250 C   0  0  2  0  0  3  0  0  0  0  0  0
  158.1270  211.4380  153.1600 C   0  0  0  0  0  3  0  0  0  0  0  0
  157.9930  210.9870  154.3510 N   0  0  0  0  0  2  0  0  0  0  0  0
  159.2480  213.5800  153.7710 C   0  0  0  0  0  2  0  0  0  0  0  0
  157.9950  214.4480  153.6610 C   0  0  0  0  0  2  0  0  0  0  0  0
  157.1270  214.3190  154.8660 C   0  0  0  0  0  0  0  0  0  0  0  0
  155.8820  214.1740  154.7380 O   0  0  0  0  0  0  0  0  0  0  0  0
  157.6930  214.3590  156.1330 O   0  0  0  0  0  1  0  0  0  0  0  0
  161.2960  212.7540  149.4690 S   0  0  0  0  0  0  0  0  0  0  0  0
  160.6840  212.5850  146.7550 N   0  0  0  0  0  2  0  0  0  0  0  0
  160.1950  212.8810  148.0650 C   0  0  0  0  0  0  0  0  0  0  0  0
  158.9990  213.2290  148.2390 O   0  0  0  0  0  0  0  0  0  0  0  0
  159.8230  212.5570  145.5840 C   0  0  0  0  0  2  0  0  0  0  0  0
  160.5090  211.6830  141.9590 C   0  0  0  0  0  1  0  0  0  0  0  0
  160.3400  213.7300  143.4640 C   0  0  2  0  0  0  0  0  0  0  0  0
  161.4020  214.0590  142.6350 F   0  0  0  0  0  0  0  0  0  0  0  0
  160.6610  212.5240  144.3190 C   0  0  2  0  0  3  0  0  0  0  0  0
  159.7620  212.3340  143.1170 C   0  0  2  0  0  0  0  0  0  0  0  0
  159.0530  213.5970  142.6800 C   0  0  0  0  0  2  0  0  0  0  0  0
  162.9210  206.6080  147.9730 C   0  0  0  0  0  2  0  0  0  0  0  0
  162.3380  205.8350  146.7680 C   0  0  1  0  0  3  0  0  0  0  0  0
  162.5680  204.3290  146.8250 C   0  0  0  0  0  2  0  0  0  0  0  0
  160.4140  201.7300  148.7480 C   0  0  0  0  0  2  0  0  0  0  0  0
  160.9440  201.8220  150.1840 C   0  0  0  0  0  2  0  0  0  0  0  0
  161.3630  202.3160  147.7000 C   0  0  0  0  0  2  0  0  0  0  0  0
  160.8260  204.6690  148.5840 C   0  0  0  0  0  2  0  0  0  0  0  0
  160.2770  204.2900  149.9710 C   0  0  0  0  0  2  0  0  0  0  0  0
  161.1350  203.2560  150.7060 C   0  0  0  0  0  2  0  0  0  0  0  0
  161.8980  203.7110  148.0430 C   0  0  0  0  0  3  0  0  0  0  0  0
  160.8640  206.1340  146.5350 C   0  0  0  0  0  2  0  0  0  0  0  0
  160.4610  205.8310  145.0970 C   0  0  2  0  0  3  0  0  0  0  0  0
  160.6350  204.3430  144.7860 C   0  0  0  0  0  2  0  0  0  0  0  0
  159.3180  203.6540  144.4520 C   0  0  0  0  0  1  0  0  0  0  0  0
  161.2450  206.7140  144.1270 C   0  0  0  0  0  2  0  0  0  0  0  0
  161.8870  205.8840  143.0300 C   0  0  0  0  0  2  0  0  0  0  0  0
  161.2860  206.2800  141.6970 C   0  0  0  0  0  2  0  0  0  0  0  0
  162.2800  207.0300  140.8780 C   0  0  0  0  0  0  0  0  0  0  0  0
  163.1850  206.4380  140.3090 O   0  0  0  0  0  0  0  0  0  0  0  0
  162.1590  208.5210  140.7650 C   0  0  0  0  0  2  0  0  0  0  0  0
  162.9140  210.4800  139.3550 C   0  0  0  0  0  2  0  0  0  0  0  0
  160.6170  207.7680  138.4020 O   0  0  0  0  0  0  0  0  0  0  0  0
  160.6020  209.9920  137.6200 C   0  0  2  0  0  3  0  0  0  0  0  0
  162.7460  211.1100  138.0520 N   0  0  0  0  0  2  0  0  0  0  0  0
  161.1430  208.8700  138.4710 C   0  0  0  0  0  0  0  0  0  0  0  0
  161.3160  211.3200  137.8740 C   0  0  0  0  0  2  0  0  0  0  0  0
  159.2380  210.1530  137.8510 O   0  0  0  0  0  1  0  0  0  0  0  0
  162.3700  209.0450  139.3420 C   0  0  2  0  0  3  0  0  0  0  0  0
  1  4  1  6  0  0  0
  1  7  1  0  0  0  0
  2  8  1  6  0  0  0
  2  7  1  0  0  0  0
  2  9  1  0  0  0  0
  3 32  1  6  0  0  0
  3  1  1  0  0  0  0
  5  3  1  0  0  0  0
  5  6  1  0  0  0  0
  6  2  1  0  0  0  0
  7  4  1  6  0  0  0
 10  9  1  1  0  0  0
 10 11  1  0  0  0  0
 11 12  1  1  0  0  0
 11 13  1  0  0  0  0
 13 14  1  6  0  0  0
 13 16  1  0  0  0  0
 14 15  2  0  0  0  0
 17 16  1  0  0  0  0
 17 18  1  0  0  0  0
 18 20  1  0  0  0  0
 19 18  2  0  0  0  0
 21 10  1  0  0  0  0
 22 23  1  0  0  0  0
 23 24  2  0  0  0  0
 23 21  1  0  0  0  0
 25 22  1  0  0  0  0
 27 28  1  6  0  0  0
 27 29  1  0  0  0  0
 29 25  1  1  0  0  0
 30 26  1  6  0  0  0
 30 27  1  0  0  0  0
 30 29  1  0  0  0  0
 31 30  1  0  0  0  0
 31 27  1  0  0  0  0
 33 42  1  1  0  0  0
 33 34  1  0  0  0  0
 33 32  1  0  0  0  0
 34 41  1  0  0  0  0
 35 36  1  0  0  0  0
 36 40  1  0  0  0  0
 37 41  1  0  0  0  0
 37 35  1  0  0  0  0
 38 39  1  0  0  0  0
 39 40  1  0  0  0  0
 41 38  1  0  0  0  0
 43 46  1  6  0  0  0
 43 42  1  0  0  0  0
 44 43  1  0  0  0  0
 45 44  1  0  0  0  0
 47 46  1  0  0  0  0
 48 47  1  0  0  0  0
 49 48  1  0  0  0  0
 50 49  2  0  0  0  0
 51 49  1  0  0  0  0
 53 56  2  0  0  0  0
 54 58  1  1  0  0  0
 54 57  1  0  0  0  0
 54 56  1  0  0  0  0
 55 52  1  0  0  0  0
 56 59  1  0  0  0  0
 57 55  1  0  0  0  0
 59 52  1  0  0  0  0
 59 51  1  1  0  0  0
M  END
>  <MODEL>
4

>  <REMARK>
 VINA RESULT:      -2.3      2.781      5.821
  Name = 
  25 active torsions:
  status: ('A' for Active; 'I' for Inactive)
    1  A    between atoms: C_3  and  C_25
    2  A    between atoms: C_5  and  C_42
    3  A    between atoms: C_6  and  C_19
    4  A    between atoms: C_6  and  C_31
    5  A    between atoms: C_9  and  C_19
    6  A    between atoms: C_9  and  C_54
    7  A    between atoms: C_11  and  C_27
    8  A    between atoms: C_13  and  C_25
    9  A    between atoms: C_13  and  C_28
   10  A    between atoms: C_15  and  C_28
   11  A    between atoms: C_15  and  C_59
   12  A    between atoms: C_17  and  C_37
   13  A    between atoms: C_27  and  C_38
   14  A    between atoms: C_28  and  C_41
   15  A    between atoms: C_30  and  C_37
   16  A    between atoms: C_30  and  C_38
   17  A    between atoms: C_31  and  C_37
   18  A    between atoms: C_38  and  C_48
   19  A    between atoms: C_39  and  C_48
   20  A    between atoms: C_42  and  C_59
   21  A    between atoms: N_44  and  C_57
   22  A    between atoms: C_45  and  C_57
   23  A    between atoms: C_46  and  S_55
   24  A    between atoms: C_52  and  C_54
   25  A    between atoms: S_55  and  C_59
                            x       y       z     vdW  Elec       q    Type
                         _______ _______ _______ _____ _____    ______ ____

>  <TORSDO>
F 25

$$$$
=
 OpenBabel11072415283D

 59 64  0  0  1  0  0  0  0  0999 V2000
  161.6480  208.6070  150.5560 C   0  0  2  0  0  3  0  0  0  0  0  0
  161.9020  206.2180  151.5800 C   0  0  1  0  0  0  0  0  0  0  0  0
  160.7530  208.8840  151.7710 C   0  0  1  0  0  3  0  0  0  0  0  0
  160.9370  207.6110  149.6510 C   0  0  0  0  0  2  0  0  0  0  0  0
  160.8370  207.8210  152.8530 C   0  0  0  0  0  2  0  0  0  0  0  0
  160.7140  206.5420  152.2920 O   0  0  0  0  0  0  0  0  0  0  0  0
  162.1870  207.1760  150.3990 C   0  0  1  0  0  3  0  0  0  0  0  0
  163.1210  206.2160  152.5070 C   0  0  0  0  0  1  0  0  0  0  0  0
  161.8090  204.7890  151.0320 C   0  0  0  0  0  2  0  0  0  0  0  0
  160.8820  204.6430  149.8230 C   0  0  1  0  0  3  0  0  0  0  0  0
  161.5240  203.8520  148.6700 C   0  0  2  0  0  3  0  0  0  0  0  0
  162.7860  203.3580  149.0290 O   0  0  0  0  0  1  0  0  0  0  0  0
  161.6620  204.6930  147.3880 C   0  0  2  0  0  3  0  0  0  0  0  0
  163.0660  205.1360  147.0990 C   0  0  0  0  0  3  0  0  0  0  0  0
  163.5400  205.0530  145.9120 N   0  0  0  0  0  2  0  0  0  0  0  0
  160.7070  205.8940  147.3760 C   0  0  0  0  0  2  0  0  0  0  0  0
  160.6740  206.6470  146.0460 C   0  0  0  0  0  2  0  0  0  0  0  0
  160.5510  205.7160  144.8880 C   0  0  0  0  0  0  0  0  0  0  0  0
  160.8510  206.1030  143.7280 O   0  0  0  0  0  0  0  0  0  0  0  0
  160.1030  204.4170  145.0910 O   0  0  0  0  0  1  0  0  0  0  0  0
  159.3730  203.7740  150.3690 S   0  0  0  0  0  0  0  0  0  0  0  0
  160.0910  201.5330  148.8750 N   0  0  0  0  0  2  0  0  0  0  0  0
  160.0860  202.1460  150.1670 C   0  0  0  0  0  0  0  0  0  0  0  0
  160.5770  201.5520  151.1610 O   0  0  0  0  0  0  0  0  0  0  0  0
  160.7500  200.2640  148.6120 C   0  0  0  0  0  2  0  0  0  0  0  0
  161.3920  199.2830  145.0070 C   0  0  0  0  0  1  0  0  0  0  0  0
  160.8390  201.3500  146.3870 C   0  0  2  0  0  0  0  0  0  0  0  0
  161.7390  201.8480  145.4570 F   0  0  0  0  0  0  0  0  0  0  0  0
  161.4900  200.3240  147.2890 C   0  0  2  0  0  3  0  0  0  0  0  0
  160.5880  199.8350  146.1780 C   0  0  2  0  0  0  0  0  0  0  0  0
  159.5740  200.8600  145.7190 C   0  0  0  0  0  2  0  0  0  0  0  0
  160.9470  210.2970  152.3440 C   0  0  0  0  0  2  0  0  0  0  0  0
  159.6890  211.1850  152.4720 C   0  0  1  0  0  3  0  0  0  0  0  0
  158.5910  210.5860  153.3430 C   0  0  0  0  0  2  0  0  0  0  0  0
  159.3650  211.2400  157.0930 C   0  0  0  0  0  2  0  0  0  0  0  0
  159.0810  212.7370  157.2590 C   0  0  0  0  0  2  0  0  0  0  0  0
  159.5640  210.8060  155.6390 C   0  0  0  0  0  2  0  0  0  0  0  0
  157.0550  211.1770  155.2230 C   0  0  0  0  0  2  0  0  0  0  0  0
  156.7430  212.0980  156.4160 C   0  0  0  0  0  2  0  0  0  0  0  0
  157.7720  213.2170  156.6100 C   0  0  0  0  0  2  0  0  0  0  0  0
  158.4840  211.3100  154.6760 C   0  0  0  0  0  3  0  0  0  0  0  0
  160.0110  212.5990  152.9290 C   0  0  0  0  0  2  0  0  0  0  0  0
  159.2580  213.6320  152.0980 C   0  0  2  0  0  3  0  0  0  0  0  0
  158.2350  214.3790  152.9580 C   0  0  0  0  0  2  0  0  0  0  0  0
  156.8210  213.8340  152.7950 C   0  0  0  0  0  1  0  0  0  0  0  0
  158.6110  212.9700  150.8840 C   0  0  0  0  0  2  0  0  0  0  0  0
  158.0440  214.0080  149.9330 C   0  0  0  0  0  2  0  0  0  0  0  0
  157.1570  213.3150  148.9180 C   0  0  0  0  0  2  0  0  0  0  0  0
  157.4400  213.8220  147.5450 C   0  0  0  0  0  0  0  0  0  0  0  0
  156.5580  213.8450  146.7010 O   0  0  0  0  0  0  0  0  0  0  0  0
  158.8220  214.3000  147.2120 C   0  0  0  0  0  2  0  0  0  0  0  0
  161.0820  213.2900  147.7280 C   0  0  0  0  0  2  0  0  0  0  0  0
  159.1020  212.9300  144.6480 O   0  0  0  0  0  0  0  0  0  0  0  0
  161.4500  212.8930  144.8470 C   0  0  2  0  0  3  0  0  0  0  0  0
  162.1490  212.4730  147.1640 N   0  0  0  0  0  2  0  0  0  0  0  0
  160.0560  213.0190  145.4080 C   0  0  0  0  0  0  0  0  0  0  0  0
  162.5330  213.1020  145.9070 C   0  0  0  0  0  2  0  0  0  0  0  0
  161.6360  213.8120  143.8160 O   0  0  0  0  0  1  0  0  0  0  0  0
  159.8000  213.1660  146.8940 C   0  0  2  0  0  3  0  0  0  0  0  0
  1  4  1  6  0  0  0
  1  3  1  0  0  0  0
  2  6  1  0  0  0  0
  2  8  1  1  0  0  0
  3 32  1  1  0  0  0
  3  5  1  0  0  0  0
  6  5  1  0  0  0  0
  7  4  1  6  0  0  0
  7  1  1  0  0  0  0
  7  2  1  0  0  0  0
  9  2  1  0  0  0  0
 10 21  1  0  0  0  0
 10  9  1  1  0  0  0
 11 12  1  1  0  0  0
 11 10  1  0  0  0  0
 13 14  1  1  0  0  0
 13 11  1  0  0  0  0
 15 14  2  0  0  0  0
 16 13  1  0  0  0  0
 17 16  1  0  0  0  0
 18 20  1  0  0  0  0
 18 17  1  0  0  0  0
 19 18  2  0  0  0  0
 22 23  1  0  0  0  0
 23 21  1  0  0  0  0
 23 24  2  0  0  0  0
 25 22  1  0  0  0  0
 27 28  1  6  0  0  0
 27 29  1  0  0  0  0
 29 25  1  1  0  0  0
 30 26  1  6  0  0  0
 30 27  1  0  0  0  0
 30 29  1  0  0  0  0
 31 30  1  0  0  0  0
 31 27  1  0  0  0  0
 33 32  1  1  0  0  0
 33 42  1  0  0  0  0
 33 34  1  0  0  0  0
 34 41  1  0  0  0  0
 35 36  1  0  0  0  0
 37 35  1  0  0  0  0
 38 39  1  0  0  0  0
 39 40  1  0  0  0  0
 40 36  1  0  0  0  0
 41 38  1  0  0  0  0
 41 37  1  0  0  0  0
 43 46  1  6  0  0  0
 43 42  1  0  0  0  0
 43 44  1  0  0  0  0
 45 44  1  0  0  0  0
 47 46  1  0  0  0  0
 48 47  1  0  0  0  0
 49 48  1  0  0  0  0
 50 49  2  0  0  0  0
 51 49  1  0  0  0  0
 53 56  2  0  0  0  0
 54 58  1  6  0  0  0
 54 56  1  0  0  0  0
 54 57  1  0  0  0  0
 55 52  1  0  0  0  0
 56 59  1  0  0  0  0
 57 55  1  0  0  0  0
 59 51  1  6  0  0  0
 59 52  1  0  0  0  0
M  END
>  <MODEL>
5

>  <REMARK>
 VINA RESULT:      -2.3      4.156     10.277
  Name = 
  25 active torsions:
  status: ('A' for Active; 'I' for Inactive)
    1  A    between atoms: C_3  and  C_25
    2  A    between atoms: C_5  and  C_42
    3  A    between atoms: C_6  and  C_19
    4  A    between atoms: C_6  and  C_31
    5  A    between atoms: C_9  and  C_19
    6  A    between atoms: C_9  and  C_54
    7  A    between atoms: C_11  and  C_27
    8  A    between atoms: C_13  and  C_25
    9  A    between atoms: C_13  and  C_28
   10  A    between atoms: C_15  and  C_28
   11  A    between atoms: C_15  and  C_59
   12  A    between atoms: C_17  and  C_37
   13  A    between atoms: C_27  and  C_38
   14  A    between atoms: C_28  and  C_41
   15  A    between atoms: C_30  and  C_37
   16  A    between atoms: C_30  and  C_38
   17  A    between atoms: C_31  and  C_37
   18  A    between atoms: C_38  and  C_48
   19  A    between atoms: C_39  and  C_48
   20  A    between atoms: C_42  and  C_59
   21  A    between atoms: N_44  and  C_57
   22  A    between atoms: C_45  and  C_57
   23  A    between atoms: C_46  and  S_55
   24  A    between atoms: C_52  and  C_54
   25  A    between atoms: S_55  and  C_59
                            x       y       z     vdW  Elec       q    Type
                         _______ _______ _______ _____ _____    ______ ____

>  <TORSDO>
F 25

$$$$
