=
 OpenBabel11072412323D

 51 56  0  0  1  0  0  0  0  0999 V2000
  161.6620  211.3260  149.1990 N   0  0  0  0  0  0  0  0  0  0  0  0
  160.6250  212.2990  152.0140 N   0  0  1  0  0  0  0  0  0  0  0  0
  159.9440  212.4410  150.7200 C   0  0  1  0  0  3  0  0  0  0  0  0
  160.2240  209.5470  154.2260 O   0  0  0  0  0  0  0  0  0  0  0  0
  161.8030  210.1960  151.4500 C   0  0  0  0  0  2  0  0  0  0  0  0
  156.7130  214.3920  150.2750 C   0  0  0  0  0  2  0  0  0  0  0  0
  160.8220  210.7470  153.7810 C   0  0  1  0  0  0  0  0  0  0  0  0
  162.4250  209.7040  155.0060 C   0  0  0  0  0  3  0  0  0  0  0  0
  160.0870  212.0030  154.2470 C   0  0  1  0  0  3  0  0  0  0  0  0
  161.1770  208.9030  155.0400 C   0  0  0  0  0  2  0  0  0  0  0  0
  159.1120  213.7110  150.5710 C   0  0  2  0  0  3  0  0  0  0  0  0
  159.8360  212.8220  153.0610 N   0  0  0  0  0  2  0  0  0  0  0  0
  157.6620  213.4510  151.0050 C   0  0  0  0  0  2  0  0  0  0  0  0
  160.3260  213.2600  148.4740 C   0  0  0  0  0  2  0  0  0  0  0  0
  161.0060  212.5710  149.6360 C   0  0  2  0  0  3  0  0  0  0  0  0
  161.3340  210.1230  149.9930 C   0  0  2  0  0  3  0  0  0  0  0  0
  162.2240  210.7760  154.2810 C   0  0  0  0  0  3  0  0  0  0  0  0
  163.1000  211.5710  149.2120 C   0  0  0  0  0  1  0  0  0  0  0  0
  158.0030  214.0840  148.2920 C   0  0  0  0  0  3  0  0  0  0  0  0
  156.8450  214.1950  148.8500 N   0  0  0  0  0  0  0  0  0  0  0  0
  159.2720  214.1560  149.0980 C   0  0  1  0  0  3  0  0  0  0  0  0
  160.7140  210.8750  152.2800 C   0  0  1  0  0  3  0  0  0  0  0  0
  158.7590  211.7140  154.9450 C   0  0  0  0  0  2  0  0  0  0  0  0
  158.4790  213.0460  157.0930 N   0  0  0  0  0  2  0  0  0  0  0  0
  159.3900  210.9150  157.1060 O   0  0  0  0  0  0  0  0  0  0  0  0
  158.8760  211.8450  156.4320 C   0  0  0  0  0  0  0  0  0  0  0  0
  157.9800  214.2040  156.3760 C   0  0  0  0  0  2  0  0  0  0  0  0
  156.4670  214.2680  156.4650 C   0  0  0  0  0  2  0  0  0  0  0  0
  155.8040  213.4900  155.3300 C   0  0  2  0  0  3  0  0  0  0  0  0
  154.7350  214.4530  153.3660 N   0  0  0  0  0  1  0  0  0  0  0  0
  154.5840  214.2300  154.7950 C   0  0  0  0  0  2  0  0  0  0  0  0
  155.2890  211.2140  154.7140 O   0  0  0  0  0  1  0  0  0  0  0  0
  155.4090  212.0900  155.7970 C   0  0  0  0  0  2  0  0  0  0  0  0
  161.9540  208.6110  149.1820 S   0  0  0  0  0  0  0  0  0  0  0  0
  161.2680  207.5440  150.4460 C   0  0  0  0  0  3  0  0  0  0  0  0
  161.9410  206.4640  150.8450 C   0  0  0  0  0  3  0  0  0  0  0  0
  161.3890  205.5540  151.8910 C   0  0  0  0  0  2  0  0  0  0  0  0
  159.9370  203.6750  151.8270 O   0  0  0  0  0  0  0  0  0  0  0  0
  161.5370  203.7630  150.1190 N   0  0  0  0  0  2  0  0  0  0  0  0
  160.9050  204.2790  151.2940 C   0  0  0  0  0  0  0  0  0  0  0  0
  159.5560  202.0650  149.6220 O   0  0  0  0  0  0  0  0  0  0  0  0
  161.8470  201.2000  149.5810 O   0  0  0  0  0  0  0  0  0  0  0  0
  160.9780  202.3760  149.2390 S   0  0  0  0  0  0  0  0  0  0  0  0
  160.1120  200.9260  144.4330 F   0  0  0  0  0  0  0  0  0  0  0  0
  160.2200  203.6430  144.7230 S   0  0  0  0  0  0  0  0  0  0  0  0
  161.6950  204.2090  145.6370 C   0  0  2  0  0  3  0  0  0  0  0  0
  160.3630  201.9410  145.2940 C   0  0  0  0  0  0  0  0  0  0  0  0
  161.0830  202.7110  147.5190 C   0  0  0  0  0  0  0  0  0  0  0  0
  162.8250  203.5850  145.1400 F   0  0  0  0  0  0  0  0  0  0  0  0
  160.6720  201.6630  146.5640 C   0  0  0  0  0  3  0  0  0  0  0  0
  161.5370  203.8960  147.0980 C   0  0  0  0  0  3  0  0  0  0  0  0
  1 18  1  0  0  0  0
  1 15  1  0  0  0  0
  1 16  1  0  0  0  0
  2 22  1  0  0  0  0
  2 12  1  1  0  0  0
  3  2  1  0  0  0  0
  4 10  1  0  0  0  0
  5 22  1  0  0  0  0
  6 13  1  0  0  0  0
  7  4  1  0  0  0  0
  7  9  1  0  0  0  0
  7 17  1  0  0  0  0
  8 10  1  0  0  0  0
  9 23  1  0  0  0  0
 11  3  1  0  0  0  0
 11 13  1  0  0  0  0
 12  9  1  0  0  0  0
 14 21  1  0  0  0  0
 14 15  1  0  0  0  0
 15  3  1  0  0  0  0
 16  5  1  0  0  0  0
 17  8  2  0  0  0  0
 19 20  2  0  0  0  0
 19 21  1  0  0  0  0
 20  6  1  0  0  0  0
 21 11  1  0  0  0  0
 22  7  1  0  0  0  0
 23 26  1  0  0  0  0
 26 24  1  0  0  0  0
 26 25  2  0  0  0  0
 27 28  1  0  0  0  0
 27 24  1  0  0  0  0
 29 33  1  0  0  0  0
 29 28  1  0  0  0  0
 30 31  1  0  0  0  0
 31 29  1  0  0  0  0
 32 33  1  0  0  0  0
 34 16  1  0  0  0  0
 34 35  1  0  0  0  0
 35 36  2  0  0  0  0
 36 37  1  0  0  0  0
 39 40  1  0  0  0  0
 40 38  2  0  0  0  0
 40 37  1  0  0  0  0
 43 42  2  0  0  0  0
 43 41  2  0  0  0  0
 43 39  1  0  0  0  0
 44 47  1  0  0  0  0
 45 47  1  0  0  0  0
 45 46  1  0  0  0  0
 46 51  1  0  0  0  0
 47 50  2  0  0  0  0
 48 43  1  0  0  0  0
 49 46  1  0  0  0  0
 50 48  1  0  0  0  0
 51 48  2  0  0  0  0
M  END
>  <MODEL>
1

>  <REMARK>
 VINA RESULT:      -4.9      0.000      0.000
  Name = 
  13 active torsions:
  status: ('A' for Active; 'I' for Inactive)
    1  A    between atoms: C_14  and  C_16
    2  A    between atoms: C_14  and  C_39
    3  A    between atoms: C_16  and  N_22
    4  A    between atoms: C_19  and  C_32
    5  A    between atoms: C_20  and  S_44
    6  A    between atoms: C_28  and  C_39
    7  A    between atoms: C_29  and  S_49
    8  A    between atoms: C_32  and  C_50
    9  A    between atoms: C_33  and  C_43
   10  A    between atoms: C_33  and  C_51
   11  A    between atoms: N_35  and  S_44
   12  A    between atoms: C_36  and  S_49
   13  A    between atoms: C_39  and  C_47
                            x       y       z     vdW  Elec       q    Type
                         _______ _______ _______ _____ _____    ______ ____

>  <TORSDO>
F 13

$$$$
=
 OpenBabel11072412323D

 51 56  0  0  1  0  0  0  0  0999 V2000
  162.2620  211.3340  148.3060 N   0  0  0  0  0  0  0  0  0  0  0  0
  160.5890  212.6660  150.6240 N   0  0  1  0  0  0  0  0  0  0  0  0
  160.2480  212.6220  149.1960 C   0  0  1  0  0  3  0  0  0  0  0  0
  159.6030  210.2330  153.0190 O   0  0  0  0  0  0  0  0  0  0  0  0
  161.8260  210.5210  150.6540 C   0  0  0  0  0  2  0  0  0  0  0  0
  157.2630  214.4530  147.7170 C   0  0  0  0  0  2  0  0  0  0  0  0
  160.3170  211.3690  152.5780 C   0  0  1  0  0  0  0  0  0  0  0  0
  161.5510  210.5220  154.2870 C   0  0  0  0  0  3  0  0  0  0  0  0
  159.5160  212.6670  152.6770 C   0  0  1  0  0  3  0  0  0  0  0  0
  160.3160  209.7170  154.1210 C   0  0  0  0  0  2  0  0  0  0  0  0
  159.5030  213.8490  148.6790 C   0  0  2  0  0  3  0  0  0  0  0  0
  159.5790  213.3150  151.3660 N   0  0  0  0  0  2  0  0  0  0  0  0
  157.9860  213.6320  148.7760 C   0  0  0  0  0  2  0  0  0  0  0  0
  161.1830  213.1350  147.0230 C   0  0  0  0  0  2  0  0  0  0  0  0
  161.5450  212.6180  148.3970 C   0  0  2  0  0  3  0  0  0  0  0  0
  161.7260  210.2460  149.1500 C   0  0  2  0  0  3  0  0  0  0  0  0
  161.5540  211.4840  153.3970 C   0  0  0  0  0  3  0  0  0  0  0  0
  163.6580  211.5980  148.6370 C   0  0  0  0  0  1  0  0  0  0  0  0
  158.9920  213.8960  146.1690 C   0  0  0  0  0  3  0  0  0  0  0  0
  157.7360  214.0670  146.4070 N   0  0  0  0  0  0  0  0  0  0  0  0
  160.0280  214.0940  147.2440 C   0  0  1  0  0  3  0  0  0  0  0  0
  160.5810  211.2920  151.0920 C   0  0  1  0  0  3  0  0  0  0  0  0
  158.0530  212.4570  153.0610 C   0  0  0  0  0  2  0  0  0  0  0  0
  155.9970  213.9020  153.4530 N   0  0  0  0  0  2  0  0  0  0  0  0
  157.5690  214.4530  151.8410 O   0  0  0  0  0  0  0  0  0  0  0  0
  157.2230  213.6660  152.7610 C   0  0  0  0  0  0  0  0  0  0  0  0
  155.4720  212.9850  154.4470 C   0  0  0  0  0  2  0  0  0  0  0  0
  155.6620  213.5530  155.8410 C   0  0  0  0  0  2  0  0  0  0  0  0
  156.3290  212.5450  156.7740 C   0  0  2  0  0  3  0  0  0  0  0  0
  157.9750  214.3350  156.6570 N   0  0  0  0  0  1  0  0  0  0  0  0
  157.7410  212.9840  157.1400 C   0  0  0  0  0  2  0  0  0  0  0  0
  157.6710  210.7180  155.9430 O   0  0  0  0  0  1  0  0  0  0  0  0
  156.3580  211.1570  156.1350 C   0  0  0  0  0  2  0  0  0  0  0  0
  162.4940  208.6460  148.7250 S   0  0  0  0  0  0  0  0  0  0  0  0
  161.5360  207.7590  149.9510 C   0  0  0  0  0  3  0  0  0  0  0  0
  162.1100  206.8050  150.6840 C   0  0  0  0  0  3  0  0  0  0  0  0
  161.3340  206.0450  151.7070 C   0  0  0  0  0  2  0  0  0  0  0  0
  159.9460  204.1170  151.7370 O   0  0  0  0  0  0  0  0  0  0  0  0
  161.5630  204.1610  150.0440 N   0  0  0  0  0  2  0  0  0  0  0  0
  160.9000  204.7210  151.1800 C   0  0  0  0  0  0  0  0  0  0  0  0
  159.6430  202.3750  149.6170 O   0  0  0  0  0  0  0  0  0  0  0  0
  161.9590  201.5810  149.6680 O   0  0  0  0  0  0  0  0  0  0  0  0
  161.0620  202.7070  149.2410 S   0  0  0  0  0  0  0  0  0  0  0  0
  160.1230  201.0490  144.5170 F   0  0  0  0  0  0  0  0  0  0  0  0
  160.3860  203.7670  144.6590 S   0  0  0  0  0  0  0  0  0  0  0  0
  161.8900  204.2960  145.5480 C   0  0  2  0  0  3  0  0  0  0  0  0
  160.4300  202.0920  145.3220 C   0  0  0  0  0  0  0  0  0  0  0  0
  161.1900  202.9400  147.5050 C   0  0  0  0  0  0  0  0  0  0  0  0
  162.9830  203.5820  145.0910 F   0  0  0  0  0  0  0  0  0  0  0  0
  160.7200  201.8670  146.6070 C   0  0  0  0  0  3  0  0  0  0  0  0
  161.7110  204.0730  147.0220 C   0  0  0  0  0  3  0  0  0  0  0  0
  1 15  1  0  0  0  0
  1 18  1  0  0  0  0
  1 16  1  0  0  0  0
  2 22  1  0  0  0  0
  2 12  1  1  0  0  0
  3  2  1  0  0  0  0
  4 10  1  0  0  0  0
  5 22  1  0  0  0  0
  6 13  1  0  0  0  0
  7  9  1  0  0  0  0
  7  4  1  0  0  0  0
  7 17  1  0  0  0  0
  9 23  1  0  0  0  0
 10  8  1  0  0  0  0
 11 13  1  0  0  0  0
 11  3  1  0  0  0  0
 12  9  1  0  0  0  0
 14 21  1  0  0  0  0
 14 15  1  0  0  0  0
 15  3  1  0  0  0  0
 16  5  1  0  0  0  0
 17  8  2  0  0  0  0
 19 20  2  0  0  0  0
 19 21  1  0  0  0  0
 20  6  1  0  0  0  0
 21 11  1  0  0  0  0
 22  7  1  0  0  0  0
 24 27  1  0  0  0  0
 25 26  2  0  0  0  0
 26 23  1  0  0  0  0
 26 24  1  0  0  0  0
 27 28  1  0  0  0  0
 28 29  1  0  0  0  0
 29 31  1  0  0  0  0
 30 31  1  0  0  0  0
 32 33  1  0  0  0  0
 33 29  1  0  0  0  0
 34 16  1  0  0  0  0
 34 35  1  0  0  0  0
 35 36  2  0  0  0  0
 36 37  1  0  0  0  0
 39 40  1  0  0  0  0
 40 37  1  0  0  0  0
 40 38  2  0  0  0  0
 43 41  2  0  0  0  0
 43 42  2  0  0  0  0
 43 39  1  0  0  0  0
 44 47  1  0  0  0  0
 45 47  1  0  0  0  0
 45 46  1  0  0  0  0
 46 51  1  0  0  0  0
 47 50  2  0  0  0  0
 48 43  1  0  0  0  0
 49 46  1  0  0  0  0
 50 48  1  0  0  0  0
 51 48  2  0  0  0  0
M  END
>  <MODEL>
2

>  <REMARK>
 VINA RESULT:      -4.0      1.336      2.065
  Name = 
  13 active torsions:
  status: ('A' for Active; 'I' for Inactive)
    1  A    between atoms: C_14  and  C_16
    2  A    between atoms: C_14  and  C_39
    3  A    between atoms: C_16  and  N_22
    4  A    between atoms: C_19  and  C_32
    5  A    between atoms: C_20  and  S_44
    6  A    between atoms: C_28  and  C_39
    7  A    between atoms: C_29  and  S_49
    8  A    between atoms: C_32  and  C_50
    9  A    between atoms: C_33  and  C_43
   10  A    between atoms: C_33  and  C_51
   11  A    between atoms: N_35  and  S_44
   12  A    between atoms: C_36  and  S_49
   13  A    between atoms: C_39  and  C_47
                            x       y       z     vdW  Elec       q    Type
                         _______ _______ _______ _____ _____    ______ ____

>  <TORSDO>
F 13

$$$$
=
 OpenBabel11072412323D

 51 56  0  0  1  0  0  0  0  0999 V2000
  161.9420  210.7220  153.0300 N   0  0  0  0  0  0  0  0  0  0  0  0
  161.9780  207.6520  152.3090 N   0  0  1  0  0  0  0  0  0  0  0  0
  161.3590  208.2800  153.4830 C   0  0  1  0  0  3  0  0  0  0  0  0
  160.3270  207.0680  149.2160 O   0  0  0  0  0  0  0  0  0  0  0  0
  161.6650  209.5850  150.7940 C   0  0  0  0  0  2  0  0  0  0  0  0
  159.8020  206.2920  156.3250 C   0  0  0  0  0  2  0  0  0  0  0  0
  161.4500  207.1090  150.0730 C   0  0  1  0  0  0  0  0  0  0  0  0
  162.2930  207.3600  147.9790 C   0  0  0  0  0  3  0  0  0  0  0  0
  161.6250  205.8420  150.9080 C   0  0  1  0  0  3  0  0  0  0  0  0
  160.8250  207.1630  147.9010 C   0  0  0  0  0  2  0  0  0  0  0  0
  161.3930  207.4350  154.7530 C   0  0  2  0  0  3  0  0  0  0  0  0
  161.7550  206.2580  152.3040 N   0  0  0  0  0  2  0  0  0  0  0  0
  160.1170  206.5890  154.8640 C   0  0  0  0  0  2  0  0  0  0  0  0
  161.8820  209.7870  155.3040 C   0  0  0  0  0  2  0  0  0  0  0  0
  162.1720  209.5170  153.8450 C   0  0  2  0  0  3  0  0  0  0  0  0
  161.0770  210.5330  151.8460 C   0  0  2  0  0  3  0  0  0  0  0  0
  162.6610  207.3260  149.2360 C   0  0  0  0  0  3  0  0  0  0  0  0
  163.2510  211.2270  152.6310 C   0  0  0  0  0  1  0  0  0  0  0  0
  160.4470  208.5240  156.8700 C   0  0  0  0  0  3  0  0  0  0  0  0
  159.6350  207.5360  157.0400 N   0  0  0  0  0  0  0  0  0  0  0  0
  161.6110  208.4270  155.9200 C   0  0  1  0  0  3  0  0  0  0  0  0
  161.2640  208.1540  151.1480 C   0  0  1  0  0  3  0  0  0  0  0  0
  160.4610  204.8600  150.7850 C   0  0  0  0  0  2  0  0  0  0  0  0
  161.4380  202.7810  149.6950 N   0  0  0  0  0  2  0  0  0  0  0  0
  160.8050  202.7890  151.9240 O   0  0  0  0  0  0  0  0  0  0  0  0
  160.9260  203.4390  150.8530 C   0  0  0  0  0  0  0  0  0  0  0  0
  161.5060  203.4250  148.3960 C   0  0  0  0  0  2  0  0  0  0  0  0
  160.8820  202.5400  147.3340 C   0  0  0  0  0  2  0  0  0  0  0  0
  161.2070  203.0360  145.9260 C   0  0  2  0  0  3  0  0  0  0  0  0
  162.2460  205.0980  145.1580 N   0  0  0  0  0  1  0  0  0  0  0  0
  161.0820  204.5510  145.8340 C   0  0  0  0  0  2  0  0  0  0  0  0
  159.9270  201.0840  145.3100 O   0  0  0  0  0  1  0  0  0  0  0  0
  160.2970  202.3670  144.8970 C   0  0  0  0  0  2  0  0  0  0  0  0
  160.6220  212.1350  151.1010 S   0  0  0  0  0  0  0  0  0  0  0  0
  161.3520  211.7100  149.5220 C   0  0  0  0  0  3  0  0  0  0  0  0
  161.6800  212.6700  148.6580 C   0  0  0  0  0  3  0  0  0  0  0  0
  162.2820  212.3430  147.3320 C   0  0  0  0  0  2  0  0  0  0  0  0
  160.0710  212.6150  146.5070 O   0  0  0  0  0  0  0  0  0  0  0  0
  161.7570  212.6450  144.8820 N   0  0  0  0  0  2  0  0  0  0  0  0
  161.2970  212.5380  146.2310 C   0  0  0  0  0  0  0  0  0  0  0  0
  160.0330  214.3310  143.7690 O   0  0  0  0  0  0  0  0  0  0  0  0
  159.7120  211.9350  143.3760 O   0  0  0  0  0  0  0  0  0  0  0  0
  160.7360  213.0220  143.5310 S   0  0  0  0  0  0  0  0  0  0  0  0
  163.2250  210.6680  139.7610 F   0  0  0  0  0  0  0  0  0  0  0  0
  162.4170  213.1920  139.0900 S   0  0  0  0  0  0  0  0  0  0  0  0
  162.8790  214.4470  140.3330 C   0  0  2  0  0  3  0  0  0  0  0  0
  162.6530  211.8060  140.2170 C   0  0  0  0  0  0  0  0  0  0  0  0
  161.7210  213.1180  142.0800 C   0  0  0  0  0  0  0  0  0  0  0  0
  164.2040  214.2870  140.6940 F   0  0  0  0  0  0  0  0  0  0  0  0
  162.2330  211.8690  141.4830 C   0  0  0  0  0  3  0  0  0  0  0  0
  161.9980  214.3110  141.5420 C   0  0  0  0  0  3  0  0  0  0  0  0
  1 15  1  0  0  0  0
  2 12  1  1  0  0  0
  2  3  1  0  0  0  0
  3 15  1  0  0  0  0
  3 11  1  0  0  0  0
  4  7  1  0  0  0  0
  5 22  1  0  0  0  0
  5 16  1  0  0  0  0
  6 20  1  0  0  0  0
  7  9  1  0  0  0  0
  7 22  1  0  0  0  0
  8 17  2  0  0  0  0
  9 12  1  0  0  0  0
 10  8  1  0  0  0  0
 10  4  1  0  0  0  0
 11 13  1  0  0  0  0
 11 21  1  0  0  0  0
 13  6  1  0  0  0  0
 14 21  1  0  0  0  0
 15 14  1  0  0  0  0
 16  1  1  0  0  0  0
 17  7  1  0  0  0  0
 18  1  1  0  0  0  0
 19 20  2  0  0  0  0
 21 19  1  0  0  0  0
 22  2  1  0  0  0  0
 23 26  1  0  0  0  0
 23  9  1  0  0  0  0
 24 26  1  0  0  0  0
 26 25  2  0  0  0  0
 27 24  1  0  0  0  0
 28 27  1  0  0  0  0
 29 28  1  0  0  0  0
 30 31  1  0  0  0  0
 31 29  1  0  0  0  0
 33 32  1  0  0  0  0
 33 29  1  0  0  0  0
 34 16  1  0  0  0  0
 35 34  1  0  0  0  0
 36 35  2  0  0  0  0
 37 36  1  0  0  0  0
 39 40  1  0  0  0  0
 40 38  2  0  0  0  0
 40 37  1  0  0  0  0
 42 43  2  0  0  0  0
 43 41  2  0  0  0  0
 43 39  1  0  0  0  0
 44 47  1  0  0  0  0
 45 47  1  0  0  0  0
 45 46  1  0  0  0  0
 46 49  1  0  0  0  0
 46 51  1  0  0  0  0
 47 50  2  0  0  0  0
 48 43  1  0  0  0  0
 50 48  1  0  0  0  0
 51 48  2  0  0  0  0
M  END
>  <MODEL>
3

>  <REMARK>
 VINA RESULT:      -3.7      4.976      9.924
  Name = 
  13 active torsions:
  status: ('A' for Active; 'I' for Inactive)
    1  A    between atoms: C_14  and  C_16
    2  A    between atoms: C_14  and  C_39
    3  A    between atoms: C_16  and  N_22
    4  A    between atoms: C_19  and  C_32
    5  A    between atoms: C_20  and  S_44
    6  A    between atoms: C_28  and  C_39
    7  A    between atoms: C_29  and  S_49
    8  A    between atoms: C_32  and  C_50
    9  A    between atoms: C_33  and  C_43
   10  A    between atoms: C_33  and  C_51
   11  A    between atoms: N_35  and  S_44
   12  A    between atoms: C_36  and  S_49
   13  A    between atoms: C_39  and  C_47
                            x       y       z     vdW  Elec       q    Type
                         _______ _______ _______ _____ _____    ______ ____

>  <TORSDO>
F 13

$$$$
=
 OpenBabel11072412323D

 51 56  0  0  1  0  0  0  0  0999 V2000
  161.8450  210.6700  151.7260 N   0  0  0  0  0  0  0  0  0  0  0  0
  161.9200  207.5270  151.4740 N   0  0  1  0  0  0  0  0  0  0  0  0
  161.3460  208.3150  152.5720 C   0  0  1  0  0  3  0  0  0  0  0  0
  160.1310  206.4550  148.5960 O   0  0  0  0  0  0  0  0  0  0  0  0
  161.4850  209.2040  149.7050 C   0  0  0  0  0  2  0  0  0  0  0  0
  159.9820  206.7540  155.7580 C   0  0  0  0  0  2  0  0  0  0  0  0
  161.2940  206.6440  149.3760 C   0  0  1  0  0  0  0  0  0  0  0  0
  162.0250  206.5890  147.2260 C   0  0  0  0  0  3  0  0  0  0  0  0
  161.5420  205.5200  150.3810 C   0  0  1  0  0  3  0  0  0  0  0  0
  160.5610  206.3580  147.2570 C   0  0  0  0  0  2  0  0  0  0  0  0
  161.4640  207.6730  153.9500 C   0  0  2  0  0  3  0  0  0  0  0  0
  161.7320  206.1450  151.6910 N   0  0  0  0  0  2  0  0  0  0  0  0
  160.2170  206.8320  154.2550 C   0  0  0  0  0  2  0  0  0  0  0  0
  161.9220  210.0880  154.1150 C   0  0  0  0  0  2  0  0  0  0  0  0
  162.1450  209.6060  152.7000 C   0  0  2  0  0  3  0  0  0  0  0  0
  160.9270  210.2890  150.6320 C   0  0  2  0  0  3  0  0  0  0  0  0
  162.4560  206.7510  148.4520 C   0  0  0  0  0  3  0  0  0  0  0  0
  163.1200  211.1300  151.1870 C   0  0  0  0  0  1  0  0  0  0  0  0
  160.5990  209.0530  155.9270 C   0  0  0  0  0  3  0  0  0  0  0  0
  159.8200  208.0890  156.2870 N   0  0  0  0  0  0  0  0  0  0  0  0
  161.7160  208.8330  154.9420 C   0  0  1  0  0  3  0  0  0  0  0  0
  161.1370  207.8360  150.2910 C   0  0  1  0  0  3  0  0  0  0  0  0
  160.3980  204.5120  150.4700 C   0  0  0  0  0  2  0  0  0  0  0  0
  160.9990  202.2100  149.5730 N   0  0  0  0  0  2  0  0  0  0  0  0
  161.1840  202.7110  151.8280 O   0  0  0  0  0  0  0  0  0  0  0  0
  160.9030  203.1170  150.6700 C   0  0  0  0  0  0  0  0  0  0  0  0
  160.5900  202.5650  148.2270 C   0  0  0  0  0  2  0  0  0  0  0  0
  161.1420  201.5660  147.2270 C   0  0  0  0  0  2  0  0  0  0  0  0
  160.2530  201.4580  145.9900 C   0  0  2  0  0  3  0  0  0  0  0  0
  161.2570  199.2440  146.1110 N   0  0  0  0  0  1  0  0  0  0  0  0
  160.4590  200.1280  145.2770 C   0  0  0  0  0  2  0  0  0  0  0  0
  161.4980  203.4770  145.5430 O   0  0  0  0  0  1  0  0  0  0  0  0
  160.5220  202.6170  145.0310 C   0  0  0  0  0  2  0  0  0  0  0  0
  160.3970  211.7530  149.6800 S   0  0  0  0  0  0  0  0  0  0  0  0
  161.6200  211.4760  148.4020 C   0  0  0  0  0  3  0  0  0  0  0  0
  162.1760  212.5130  147.7740 C   0  0  0  0  0  3  0  0  0  0  0  0
  163.1920  212.3110  146.7010 C   0  0  0  0  0  2  0  0  0  0  0  0
  162.9010  214.4380  145.6840 O   0  0  0  0  0  0  0  0  0  0  0  0
  162.6890  212.6040  144.2450 N   0  0  0  0  0  2  0  0  0  0  0  0
  162.9180  213.1890  145.5290 C   0  0  0  0  0  0  0  0  0  0  0  0
  163.7580  214.3110  142.5120 O   0  0  0  0  0  0  0  0  0  0  0  0
  161.3480  214.4510  142.9240 O   0  0  0  0  0  0  0  0  0  0  0  0
  162.5100  213.5120  142.7770 S   0  0  0  0  0  0  0  0  0  0  0  0
  163.9800  211.4850  138.3410 F   0  0  0  0  0  0  0  0  0  0  0  0
  162.3530  209.8260  139.7820 S   0  0  0  0  0  0  0  0  0  0  0  0
  160.8300  210.6460  140.3660 C   0  0  2  0  0  3  0  0  0  0  0  0
  163.2100  211.3760  139.4480 C   0  0  0  0  0  0  0  0  0  0  0  0
  162.2100  212.4000  141.4510 C   0  0  0  0  0  0  0  0  0  0  0  0
  160.2470  211.3520  139.3290 F   0  0  0  0  0  0  0  0  0  0  0  0
  163.1310  212.4040  140.2970 C   0  0  0  0  0  3  0  0  0  0  0  0
  161.1580  211.5760  141.4990 C   0  0  0  0  0  3  0  0  0  0  0  0
  1 15  1  0  0  0  0
  2 12  1  1  0  0  0
  2  3  1  0  0  0  0
  3 15  1  0  0  0  0
  3 11  1  0  0  0  0
  4  7  1  0  0  0  0
  5 22  1  0  0  0  0
  5 16  1  0  0  0  0
  6 20  1  0  0  0  0
  7 22  1  0  0  0  0
  7  9  1  0  0  0  0
  8 10  1  0  0  0  0
  8 17  2  0  0  0  0
  9 23  1  0  0  0  0
  9 12  1  0  0  0  0
 10  4  1  0  0  0  0
 11 13  1  0  0  0  0
 11 21  1  0  0  0  0
 13  6  1  0  0  0  0
 14 21  1  0  0  0  0
 15 14  1  0  0  0  0
 16  1  1  0  0  0  0
 17  7  1  0  0  0  0
 18  1  1  0  0  0  0
 19 20  2  0  0  0  0
 21 19  1  0  0  0  0
 22  2  1  0  0  0  0
 23 26  1  0  0  0  0
 24 26  1  0  0  0  0
 26 25  2  0  0  0  0
 27 24  1  0  0  0  0
 28 27  1  0  0  0  0
 29 28  1  0  0  0  0
 31 29  1  0  0  0  0
 31 30  1  0  0  0  0
 33 32  1  0  0  0  0
 33 29  1  0  0  0  0
 34 16  1  0  0  0  0
 35 34  1  0  0  0  0
 36 35  2  0  0  0  0
 37 36  1  0  0  0  0
 39 40  1  0  0  0  0
 40 38  2  0  0  0  0
 40 37  1  0  0  0  0
 41 43  2  0  0  0  0
 43 42  2  0  0  0  0
 43 39  1  0  0  0  0
 44 47  1  0  0  0  0
 45 46  1  0  0  0  0
 46 51  1  0  0  0  0
 47 45  1  0  0  0  0
 47 50  2  0  0  0  0
 48 51  2  0  0  0  0
 48 43  1  0  0  0  0
 49 46  1  0  0  0  0
 50 48  1  0  0  0  0
M  END
>  <MODEL>
4

>  <REMARK>
 VINA RESULT:      -3.3      5.207     10.212
  Name = 
  13 active torsions:
  status: ('A' for Active; 'I' for Inactive)
    1  A    between atoms: C_14  and  C_16
    2  A    between atoms: C_14  and  C_39
    3  A    between atoms: C_16  and  N_22
    4  A    between atoms: C_19  and  C_32
    5  A    between atoms: C_20  and  S_44
    6  A    between atoms: C_28  and  C_39
    7  A    between atoms: C_29  and  S_49
    8  A    between atoms: C_32  and  C_50
    9  A    between atoms: C_33  and  C_43
   10  A    between atoms: C_33  and  C_51
   11  A    between atoms: N_35  and  S_44
   12  A    between atoms: C_36  and  S_49
   13  A    between atoms: C_39  and  C_47
                            x       y       z     vdW  Elec       q    Type
                         _______ _______ _______ _____ _____    ______ ____

>  <TORSDO>
F 13

$$$$
=
 OpenBabel11072412323D

 51 56  0  0  1  0  0  0  0  0999 V2000
  161.9470  205.9950  151.7080 N   0  0  0  0  0  0  0  0  0  0  0  0
  162.1020  208.8490  153.0410 N   0  0  1  0  0  0  0  0  0  0  0  0
  161.7900  208.5400  151.6390 C   0  0  1  0  0  3  0  0  0  0  0  0
  159.6920  209.1570  155.6340 O   0  0  0  0  0  0  0  0  0  0  0  0
  161.1530  206.7620  153.9770 C   0  0  0  0  0  2  0  0  0  0  0  0
  161.3560  211.2110  148.9700 C   0  0  0  0  0  2  0  0  0  0  0  0
  161.0050  209.0800  155.1180 C   0  0  1  0  0  0  0  0  0  0  0  0
  161.1670  208.3420  157.2600 C   0  0  0  0  0  3  0  0  0  0  0  0
  161.5520  210.4260  154.6450 C   0  0  1  0  0  3  0  0  0  0  0  0
  159.7710  208.7590  156.9840 C   0  0  0  0  0  2  0  0  0  0  0  0
  162.2840  209.5730  150.6310 C   0  0  2  0  0  3  0  0  0  0  0  0
  162.0400  210.2390  153.2780 N   0  0  0  0  0  2  0  0  0  0  0  0
  161.1960  210.6220  150.3650 C   0  0  0  0  0  2  0  0  0  0  0  0
  162.6560  207.3020  149.7490 C   0  0  0  0  0  2  0  0  0  0  0  0
  162.5340  207.2680  151.2550 C   0  0  2  0  0  3  0  0  0  0  0  0
  160.8000  206.1170  152.6320 C   0  0  2  0  0  3  0  0  0  0  0  0
  161.8870  208.5290  156.1820 C   0  0  0  0  0  3  0  0  0  0  0  0
  163.0200  205.2230  152.3250 C   0  0  0  0  0  1  0  0  0  0  0  0
  161.8870  209.0310  148.1590 C   0  0  0  0  0  3  0  0  0  0  0  0
  161.2710  210.1520  147.9900 N   0  0  0  0  0  0  0  0  0  0  0  0
  162.7260  208.7730  149.3830 C   0  0  1  0  0  3  0  0  0  0  0  0
  161.0300  208.2790  153.8370 C   0  0  1  0  0  3  0  0  0  0  0  0
  160.5160  211.5490  154.6570 C   0  0  0  0  0  2  0  0  0  0  0  0
  159.5990  213.3560  156.1920 N   0  0  0  0  0  2  0  0  0  0  0  0
  161.3570  211.9960  156.8480 O   0  0  0  0  0  0  0  0  0  0  0  0
  160.5090  212.2810  155.9630 C   0  0  0  0  0  0  0  0  0  0  0  0
  158.6660  213.8200  155.1830 C   0  0  0  0  0  2  0  0  0  0  0  0
  157.3090  214.0920  155.8050 C   0  0  0  0  0  2  0  0  0  0  0  0
  156.2460  213.1290  155.2800 C   0  0  2  0  0  3  0  0  0  0  0  0
  155.9640  210.7110  155.2570 N   0  0  0  0  0  1  0  0  0  0  0  0
  156.8610  211.7920  154.8850 C   0  0  0  0  0  2  0  0  0  0  0  0
  156.3090  213.7520  152.9490 O   0  0  0  0  0  1  0  0  0  0  0  0
  155.5050  213.7400  154.0920 C   0  0  0  0  0  2  0  0  0  0  0  0
  159.9770  204.5070  152.8750 S   0  0  0  0  0  0  0  0  0  0  0  0
  160.8580  203.7510  151.5110 C   0  0  0  0  0  3  0  0  0  0  0  0
  160.8150  202.4290  151.3400 C   0  0  0  0  0  3  0  0  0  0  0  0
  161.5450  201.7720  150.2160 C   0  0  0  0  0  2  0  0  0  0  0  0
  160.2080  203.1240  148.7920 O   0  0  0  0  0  0  0  0  0  0  0  0
  161.1120  201.2090  147.7950 N   0  0  0  0  0  2  0  0  0  0  0  0
  160.9090  202.0850  148.9060 C   0  0  0  0  0  0  0  0  0  0  0  0
  159.0640  201.3600  146.1090 O   0  0  0  0  0  0  0  0  0  0  0  0
  161.2100  200.5630  145.2400 O   0  0  0  0  0  0  0  0  0  0  0  0
  160.5580  201.5330  146.1830 S   0  0  0  0  0  0  0  0  0  0  0  0
  163.4260  205.6620  146.9990 F   0  0  0  0  0  0  0  0  0  0  0  0
  162.5550  205.4650  144.4150 S   0  0  0  0  0  0  0  0  0  0  0  0
  160.7590  205.1660  144.2840 C   0  0  2  0  0  3  0  0  0  0  0  0
  162.6400  204.9670  146.1440 C   0  0  0  0  0  0  0  0  0  0  0  0
  161.0000  203.1750  145.7450 C   0  0  0  0  0  0  0  0  0  0  0  0
  160.0750  206.0380  145.1130 F   0  0  0  0  0  0  0  0  0  0  0  0
  161.9730  203.8980  146.5870 C   0  0  0  0  0  3  0  0  0  0  0  0
  160.4520  203.7470  144.6680 C   0  0  0  0  0  3  0  0  0  0  0  0
  1 18  1  0  0  0  0
  1 16  1  0  0  0  0
  2 12  1  6  0  0  0
  2 22  1  0  0  0  0
  3  2  1  0  0  0  0
  4 10  1  0  0  0  0
  6 13  1  0  0  0  0
  7  4  1  0  0  0  0
  7 17  1  0  0  0  0
  9 23  1  0  0  0  0
  9  7  1  0  0  0  0
 10  8  1  0  0  0  0
 11  3  1  0  0  0  0
 12  9  1  0  0  0  0
 13 11  1  0  0  0  0
 14 15  1  0  0  0  0
 15  3  1  0  0  0  0
 15  1  1  0  0  0  0
 16 34  1  0  0  0  0
 16  5  1  0  0  0  0
 17  8  2  0  0  0  0
 19 21  1  0  0  0  0
 20 19  2  0  0  0  0
 20  6  1  0  0  0  0
 21 14  1  0  0  0  0
 21 11  1  0  0  0  0
 22  5  1  0  0  0  0
 22  7  1  0  0  0  0
 23 26  1  0  0  0  0
 26 24  1  0  0  0  0
 26 25  2  0  0  0  0
 27 28  1  0  0  0  0
 27 24  1  0  0  0  0
 29 28  1  0  0  0  0
 31 30  1  0  0  0  0
 31 29  1  0  0  0  0
 32 33  1  0  0  0  0
 33 29  1  0  0  0  0
 35 34  1  0  0  0  0
 36 35  2  0  0  0  0
 37 36  1  0  0  0  0
 38 40  2  0  0  0  0
 39 40  1  0  0  0  0
 40 37  1  0  0  0  0
 41 43  2  0  0  0  0
 42 43  2  0  0  0  0
 43 39  1  0  0  0  0
 45 47  1  0  0  0  0
 46 45  1  0  0  0  0
 46 51  1  0  0  0  0
 46 49  1  0  0  0  0
 47 50  2  0  0  0  0
 47 44  1  0  0  0  0
 48 43  1  0  0  0  0
 48 50  1  0  0  0  0
 51 48  2  0  0  0  0
M  END
>  <MODEL>
5

>  <REMARK>
 VINA RESULT:      -2.2      2.574      3.996
  Name = 
  13 active torsions:
  status: ('A' for Active; 'I' for Inactive)
    1  A    between atoms: C_14  and  C_16
    2  A    between atoms: C_14  and  C_39
    3  A    between atoms: C_16  and  N_22
    4  A    between atoms: C_19  and  C_32
    5  A    between atoms: C_20  and  S_44
    6  A    between atoms: C_28  and  C_39
    7  A    between atoms: C_29  and  S_49
    8  A    between atoms: C_32  and  C_50
    9  A    between atoms: C_33  and  C_43
   10  A    between atoms: C_33  and  C_51
   11  A    between atoms: N_35  and  S_44
   12  A    between atoms: C_36  and  S_49
   13  A    between atoms: C_39  and  C_47
                            x       y       z     vdW  Elec       q    Type
                         _______ _______ _______ _____ _____    ______ ____

>  <TORSDO>
F 13

$$$$
