=
 OpenBabel11072411423D

 49 54  0  0  1  0  0  0  0  0999 V2000
  160.1660  211.5680  152.3710 C   0  0  1  0  0  3  0  0  0  0  0  0
  161.9780  208.8000  149.6740 C   0  0  2  0  0  3  0  0  0  0  0  0
  160.3070  208.2080  152.5790 C   0  0  0  0  0  2  0  0  0  0  0  0
  161.5230  207.2960  152.4950 C   0  0  0  0  0  0  0  0  0  0  0  0
  160.7460  210.9780  144.9490 F   0  0  0  0  0  0  0  0  0  0  0  0
  163.1240  205.7930  153.5630 C   0  0  0  0  0  3  0  0  0  0  0  0
  160.7650  212.1070  151.0360 C   0  0  1  0  0  3  0  0  0  0  0  0
  159.9860  213.2330  144.8210 C   0  0  0  0  0  0  0  0  0  0  0  0
  162.3070  209.2280  148.2060 C   0  0  2  0  0  3  0  0  0  0  0  0
  162.4960  211.4460  149.1140 C   0  0  2  0  0  3  0  0  0  0  0  0
  159.8510  213.3490  147.6340 C   0  0  0  0  0  0  0  0  0  0  0  0
  161.7520  211.0990  150.4340 C   0  0  2  0  0  3  0  0  0  0  0  0
  158.6450  211.7960  149.9810 O   0  0  0  0  0  0  0  0  0  0  0  0
  159.6730  212.4560  150.0430 C   0  0  0  0  0  0  0  0  0  0  0  0
  162.8240  212.9050  148.8410 C   0  0  0  0  0  1  0  0  0  0  0  0
  160.3560  206.8580  149.4250 C   0  0  0  0  0  0  0  0  0  0  0  0
  161.5550  207.4340  149.9820 N   0  0  0  0  0  0  0  0  0  0  0  0
  160.5980  210.8910  147.7270 C   0  0  0  0  0  2  0  0  0  0  0  0
  160.3860  209.3440  153.6240 C   0  0  0  0  0  2  0  0  0  0  0  0
  159.5480  207.5700  148.7700 O   0  0  0  0  0  0  0  0  0  0  0  0
  159.8670  213.6220  149.1250 C   0  0  0  0  0  2  0  0  0  0  0  0
  161.1010  210.6180  153.1540 C   0  0  0  0  0  2  0  0  0  0  0  0
  160.3520  212.1150  145.5790 C   0  0  0  0  0  0  0  0  0  0  0  0
  162.0420  210.6750  147.9340 N   0  0  2  0  0  0  0  0  0  0  0  0
  163.6770  205.4760  152.3250 C   0  0  0  0  0  3  0  0  0  0  0  0
  159.5600  214.3980  145.4570 C   0  0  0  0  0  3  0  0  0  0  0  0
  159.5030  214.4530  146.8480 C   0  0  0  0  0  3  0  0  0  0  0  0
  162.0660  206.9160  151.2250 C   0  0  0  0  0  0  0  0  0  0  0  0
  163.1450  206.0300  151.1660 C   0  0  0  0  0  3  0  0  0  0  0  0
  160.0390  213.1950  143.3340 C   0  0  0  0  0  1  0  0  0  0  0  0
  160.2920  212.1580  146.9850 C   0  0  0  0  0  0  0  0  0  0  0  0
  161.0490  209.7680  150.3100 C   0  0  0  0  0  2  0  0  0  0  0  0
  162.0460  206.6830  153.6620 C   0  0  0  0  0  0  0  0  0  0  0  0
  161.7990  208.2830  155.5550 C   0  0  0  0  0  3  0  0  0  0  0  0
  161.4370  206.9250  155.0140 C   0  0  1  0  0  3  0  0  0  0  0  0
  159.9190  206.6650  155.0210 C   0  0  0  0  0  2  0  0  0  0  0  0
  160.0830  207.9110  157.2610 C   0  0  0  0  0  2  0  0  0  0  0  0
  159.1590  207.3580  156.1710 C   0  0  0  0  0  2  0  0  0  0  0  0
  161.1560  208.7500  156.6300 C   0  0  0  0  0  3  0  0  0  0  0  0
  159.0370  213.6080  152.7850 O   0  0  0  0  0  0  0  0  0  0  0  0
  159.6980  212.6900  153.2450 C   0  0  0  0  0  3  0  0  0  0  0  0
  162.6060  207.1520  147.0550 O   0  0  0  0  0  1  0  0  0  0  0  0
  161.8150  208.3000  147.0980 C   0  0  0  0  0  2  0  0  0  0  0  0
  160.0240  205.4150  149.6470 C   0  0  0  0  0  2  0  0  0  0  0  0
  160.9400  204.5040  148.8350 C   0  0  0  0  0  2  0  0  0  0  0  0
  161.2060  203.1860  149.5500 C   0  0  0  0  0  2  0  0  0  0  0  0
  160.7910  201.9020  147.5850 O   0  0  0  0  0  0  0  0  0  0  0  0
  160.5790  202.0490  148.8170 C   0  0  0  0  0  0  0  0  0  0  0  0
  159.7850  201.1370  149.4980 O   0  0  0  0  0  1  0  0  0  0  0  0
  1 22  1  0  0  0  0
  1 41  1  1  0  0  0
  2 17  1  0  0  0  0
  2 32  1  6  0  0  0
  3 19  1  0  0  0  0
  4  3  1  0  0  0  0
  4 33  1  0  0  0  0
  5 23  1  0  0  0  0
  6 33  2  0  0  0  0
  7 14  1  6  0  0  0
  7  1  1  0  0  0  0
  8 26  2  0  0  0  0
  8 23  1  0  0  0  0
  9 43  1  6  0  0  0
  9  2  1  0  0  0  0
 10 15  1  6  0  0  0
 10 12  1  0  0  0  0
 11 21  1  0  0  0  0
 12 32  1  6  0  0  0
 12  7  1  0  0  0  0
 13 14  2  0  0  0  0
 16 44  1  0  0  0  0
 16 17  1  0  0  0  0
 17 28  1  0  0  0  0
 20 16  2  0  0  0  0
 21 14  1  0  0  0  0
 22 19  1  0  0  0  0
 23 31  2  0  0  0  0
 24 18  1  1  0  0  0
 24  9  1  0  0  0  0
 24 10  1  0  0  0  0
 25  6  1  0  0  0  0
 26 27  1  0  0  0  0
 27 11  2  0  0  0  0
 28  4  2  0  0  0  0
 29 28  1  0  0  0  0
 29 25  2  0  0  0  0
 30  8  1  0  0  0  0
 31 11  1  0  0  0  0
 31 18  1  0  0  0  0
 34 39  2  0  0  0  0
 35 33  1  6  0  0  0
 35 36  1  0  0  0  0
 35 34  1  0  0  0  0
 36 38  1  0  0  0  0
 38 37  1  0  0  0  0
 39 37  1  0  0  0  0
 40 41  2  0  0  0  0
 42 43  1  0  0  0  0
 45 46  1  0  0  0  0
 45 44  1  0  0  0  0
 47 48  2  0  0  0  0
 48 49  1  0  0  0  0
 48 46  1  0  0  0  0
M  END
>  <MODEL>
1

>  <REMARK>
 VINA RESULT:       8.4      0.000      0.000
  Name = 
  7 active torsions:
  status: ('A' for Active; 'I' for Inactive)
    1  A    between atoms: C_1  and  C_32
    2  A    between atoms: C_5  and  C_26
    3  A    between atoms: C_5  and  C_37
    4  A    between atoms: C_10  and  C_13
    5  A    between atoms: C_10  and  C_37
    6  A    between atoms: C_16  and  C_49
    7  A    between atoms: C_17  and  C_34
                            x       y       z     vdW  Elec       q    Type
                         _______ _______ _______ _____ _____    ______ ____

>  <TORSDO>
F 7

$$$$
=
 OpenBabel11072411423D

 49 54  0  0  1  0  0  0  0  0999 V2000
  161.3130  209.8900  150.2910 C   0  0  1  0  0  3  0  0  0  0  0  0
  161.9410  206.8260  153.1960 C   0  0  2  0  0  3  0  0  0  0  0  0
  160.2990  209.7910  153.5030 C   0  0  0  0  0  2  0  0  0  0  0  0
  161.1220  209.5300  154.7570 C   0  0  0  0  0  0  0  0  0  0  0  0
  161.3250  202.4220  150.2260 F   0  0  0  0  0  0  0  0  0  0  0  0
  162.1540  210.3320  156.8190 C   0  0  0  0  0  3  0  0  0  0  0  0
  162.0010  208.5640  149.8440 C   0  0  1  0  0  3  0  0  0  0  0  0
  161.3820  202.5540  147.8470 C   0  0  0  0  0  0  0  0  0  0  0  0
  162.3310  205.3800  152.7460 C   0  0  2  0  0  3  0  0  0  0  0  0
  163.3120  206.4610  150.8350 C   0  0  2  0  0  3  0  0  0  0  0  0
  161.4190  205.3670  148.0010 C   0  0  0  0  0  0  0  0  0  0  0  0
  162.5530  207.8000  151.0540 C   0  0  2  0  0  3  0  0  0  0  0  0
  159.8580  207.6570  149.3030 O   0  0  0  0  0  0  0  0  0  0  0  0
  161.0520  207.6960  149.0400 C   0  0  0  0  0  0  0  0  0  0  0  0
  164.1100  206.2920  149.5520 C   0  0  0  0  0  1  0  0  0  0  0  0
  159.7400  206.5360  154.4360 C   0  0  0  0  0  0  0  0  0  0  0  0
  161.0880  207.0450  154.3630 N   0  0  0  0  0  0  0  0  0  0  0  0
  161.2800  205.1850  150.5610 C   0  0  0  0  0  2  0  0  0  0  0  0
  160.8100  210.9220  152.5820 C   0  0  0  0  0  2  0  0  0  0  0  0
  159.1990  206.0120  153.4260 O   0  0  0  0  0  0  0  0  0  0  0  0
  161.5950  206.8710  147.9150 C   0  0  0  0  0  2  0  0  0  0  0  0
  161.8980  210.5110  151.5810 C   0  0  0  0  0  2  0  0  0  0  0  0
  161.3740  203.1790  149.0980 C   0  0  0  0  0  0  0  0  0  0  0  0
  162.5690  205.2580  151.2730 N   0  0  2  0  0  0  0  0  0  0  0  0
  162.5090  209.0320  157.1660 C   0  0  0  0  0  3  0  0  0  0  0  0
  161.4110  203.3200  146.6840 C   0  0  0  0  0  3  0  0  0  0  0  0
  161.4380  204.7120  146.7650 C   0  0  0  0  0  3  0  0  0  0  0  0
  161.4440  208.1930  155.1560 C   0  0  0  0  0  0  0  0  0  0  0  0
  162.1490  207.9710  156.3430 C   0  0  0  0  0  3  0  0  0  0  0  0
  161.3520  201.0690  147.7370 C   0  0  0  0  0  1  0  0  0  0  0  0
  161.3950  204.5830  149.1930 C   0  0  0  0  0  0  0  0  0  0  0  0
  161.4300  207.6150  152.0460 C   0  0  0  0  0  2  0  0  0  0  0  0
  161.4530  210.5940  155.6340 C   0  0  0  0  0  0  0  0  0  0  0  0
  159.7880  212.0560  154.4950 C   0  0  0  0  0  3  0  0  0  0  0  0
  161.0260  212.0070  155.3510 C   0  0  1  0  0  3  0  0  0  0  0  0
  160.8940  212.8420  156.6390 C   0  0  0  0  0  2  0  0  0  0  0  0
  159.6650  214.4370  155.0470 C   0  0  0  0  0  2  0  0  0  0  0  0
  159.9980  214.0890  156.5000 C   0  0  0  0  0  2  0  0  0  0  0  0
  159.1430  213.2170  154.3460 C   0  0  0  0  0  3  0  0  0  0  0  0
  162.3180  211.1580  148.5630 O   0  0  0  0  0  0  0  0  0  0  0  0
  161.2980  210.8940  149.1800 C   0  0  0  0  0  3  0  0  0  0  0  0
  161.5540  203.1340  152.4740 O   0  0  0  0  0  1  0  0  0  0  0  0
  161.5020  204.2370  153.3260 C   0  0  0  0  0  2  0  0  0  0  0  0
  158.9420  206.6560  155.6980 C   0  0  0  0  0  2  0  0  0  0  0  0
  158.0450  207.8900  155.6720 C   0  0  0  0  0  2  0  0  0  0  0  0
  158.7070  209.0850  156.3430 C   0  0  0  0  0  2  0  0  0  0  0  0
  157.8260  211.1010  157.2610 O   0  0  0  0  0  1  0  0  0  0  0  0
  157.8090  210.2750  156.3110 C   0  0  0  0  0  0  0  0  0  0  0  0
  156.9750  210.4870  155.2220 O   0  0  0  0  0  0  0  0  0  0  0  0
  1 41  1  6  0  0  0
  1 22  1  0  0  0  0
  2 32  1  6  0  0  0
  2 17  1  0  0  0  0
  3  4  1  0  0  0  0
  4 28  2  0  0  0  0
  4 33  1  0  0  0  0
  6 25  1  0  0  0  0
  7 14  1  1  0  0  0
  7  1  1  0  0  0  0
  7 12  1  0  0  0  0
  8 23  1  0  0  0  0
  9  2  1  0  0  0  0
  9 43  1  6  0  0  0
 10 15  1  6  0  0  0
 10 12  1  0  0  0  0
 10 24  1  0  0  0  0
 11 31  1  0  0  0  0
 12 32  1  1  0  0  0
 14 13  2  0  0  0  0
 16 44  1  0  0  0  0
 17 16  1  0  0  0  0
 17 28  1  0  0  0  0
 19  3  1  0  0  0  0
 20 16  2  0  0  0  0
 21 11  1  0  0  0  0
 21 14  1  0  0  0  0
 22 19  1  0  0  0  0
 23 31  2  0  0  0  0
 23  5  1  0  0  0  0
 24 18  1  6  0  0  0
 24  9  1  0  0  0  0
 26 27  1  0  0  0  0
 26  8  2  0  0  0  0
 27 11  2  0  0  0  0
 28 29  1  0  0  0  0
 29 25  2  0  0  0  0
 30  8  1  0  0  0  0
 31 18  1  0  0  0  0
 33  6  2  0  0  0  0
 34 35  1  0  0  0  0
 35 33  1  1  0  0  0
 35 36  1  0  0  0  0
 37 38  1  0  0  0  0
 38 36  1  0  0  0  0
 39 34  2  0  0  0  0
 39 37  1  0  0  0  0
 40 41  2  0  0  0  0
 42 43  1  0  0  0  0
 45 44  1  0  0  0  0
 45 46  1  0  0  0  0
 48 46  1  0  0  0  0
 48 47  1  0  0  0  0
 49 48  2  0  0  0  0
M  END
>  <MODEL>
2

>  <REMARK>
 VINA RESULT:       9.1      3.048      7.038
  Name = 
  7 active torsions:
  status: ('A' for Active; 'I' for Inactive)
    1  A    between atoms: C_1  and  C_32
    2  A    between atoms: C_5  and  C_26
    3  A    between atoms: C_5  and  C_37
    4  A    between atoms: C_10  and  C_13
    5  A    between atoms: C_10  and  C_37
    6  A    between atoms: C_16  and  C_49
    7  A    between atoms: C_17  and  C_34
                            x       y       z     vdW  Elec       q    Type
                         _______ _______ _______ _____ _____    ______ ____

>  <TORSDO>
F 7

$$$$
=
 OpenBabel11072411423D

 49 54  0  0  1  0  0  0  0  0999 V2000
  161.0560  207.6450  147.9000 C   0  0  1  0  0  3  0  0  0  0  0  0
  161.8080  210.9470  150.4990 C   0  0  2  0  0  3  0  0  0  0  0  0
  160.3220  210.9010  147.4380 C   0  0  0  0  0  2  0  0  0  0  0  0
  161.2400  212.1120  147.5420 C   0  0  0  0  0  0  0  0  0  0  0  0
  160.7560  208.7840  155.2750 F   0  0  0  0  0  0  0  0  0  0  0  0
  162.4800  213.9290  146.4830 C   0  0  0  0  0  3  0  0  0  0  0  0
  161.6480  207.3640  149.3150 C   0  0  1  0  0  3  0  0  0  0  0  0
  160.6110  206.4180  155.5220 C   0  0  0  0  0  0  0  0  0  0  0  0
  162.0980  210.7070  152.0170 C   0  0  2  0  0  3  0  0  0  0  0  0
  162.9530  208.5750  151.3050 C   0  0  2  0  0  3  0  0  0  0  0  0
  160.7770  206.1130  152.7260 C   0  0  0  0  0  0  0  0  0  0  0  0
  162.2720  208.6340  149.9080 C   0  0  2  0  0  3  0  0  0  0  0  0
  159.4310  207.1480  150.1780 O   0  0  0  0  0  0  0  0  0  0  0  0
  160.5980  206.7890  150.2460 C   0  0  0  0  0  0  0  0  0  0  0  0
  163.6280  207.2760  151.7170 C   0  0  0  0  0  1  0  0  0  0  0  0
  159.7140  212.3880  150.4690 C   0  0  0  0  0  0  0  0  0  0  0  0
  161.0700  212.1280  150.0530 N   0  0  0  0  0  0  0  0  0  0  0  0
  160.8530  208.6730  152.4960 C   0  0  0  0  0  2  0  0  0  0  0  0
  160.7980  209.7730  146.4950 C   0  0  0  0  0  2  0  0  0  0  0  0
  159.0660  211.5230  151.1160 O   0  0  0  0  0  0  0  0  0  0  0  0
  161.0060  205.7720  151.2660 C   0  0  0  0  0  2  0  0  0  0  0  0
  161.7760  208.7670  147.1170 C   0  0  0  0  0  2  0  0  0  0  0  0
  160.7380  207.5490  154.7080 C   0  0  0  0  0  0  0  0  0  0  0  0
  162.2020  209.2590  152.3820 N   0  0  2  0  0  0  0  0  0  0  0  0
  162.8100  214.4520  147.7310 C   0  0  0  0  0  3  0  0  0  0  0  0
  160.5700  205.1480  154.9510 C   0  0  0  0  0  3  0  0  0  0  0  0
  160.6610  205.0020  153.5670 C   0  0  0  0  0  3  0  0  0  0  0  0
  161.5410  212.6950  148.8160 C   0  0  0  0  0  0  0  0  0  0  0  0
  162.3370  213.8410  148.8860 C   0  0  0  0  0  3  0  0  0  0  0  0
  160.5110  206.5520  157.0020 C   0  0  0  0  0  1  0  0  0  0  0  0
  160.8250  207.4140  153.3100 C   0  0  0  0  0  0  0  0  0  0  0  0
  161.2330  209.7290  149.8740 C   0  0  0  0  0  2  0  0  0  0  0  0
  161.6900  212.7770  146.3730 C   0  0  0  0  0  0  0  0  0  0  0  0
  159.9250  212.7870  144.6140 C   0  0  0  0  0  3  0  0  0  0  0  0
  161.2980  212.3040  145.0020 C   0  0  1  0  0  3  0  0  0  0  0  0
  162.3690  212.6400  143.9460 C   0  0  0  0  0  2  0  0  0  0  0  0
  160.4530  212.0440  142.3430 C   0  0  0  0  0  2  0  0  0  0  0  0
  161.8470  212.6610  142.4950 C   0  0  0  0  0  2  0  0  0  0  0  0
  159.5220  212.6570  143.3470 C   0  0  0  0  0  3  0  0  0  0  0  0
  161.8100  206.1680  146.2110 O   0  0  0  0  0  0  0  0  0  0  0  0
  160.9870  206.3920  147.0840 C   0  0  0  0  0  3  0  0  0  0  0  0
  161.6290  211.1860  154.3130 O   0  0  0  0  0  1  0  0  0  0  0  0
  161.2760  211.5270  153.0080 C   0  0  0  0  0  2  0  0  0  0  0  0
  159.0350  213.6730  150.1100 C   0  0  0  0  0  2  0  0  0  0  0  0
  157.7300  213.4200  149.3610 C   0  0  0  0  0  2  0  0  0  0  0  0
  157.5920  214.3220  148.1420 C   0  0  0  0  0  2  0  0  0  0  0  0
  157.2220  212.2680  146.9900 O   0  0  0  0  0  1  0  0  0  0  0  0
  157.2510  213.5240  146.9290 C   0  0  0  0  0  0  0  0  0  0  0  0
  156.9380  214.1680  145.7400 O   0  0  0  0  0  0  0  0  0  0  0  0
  1 41  1  6  0  0  0
  1  7  1  0  0  0  0
  2 32  1  1  0  0  0
  2  9  1  0  0  0  0
  3  4  1  0  0  0  0
  4 28  1  0  0  0  0
  6 25  2  0  0  0  0
  7 12  1  0  0  0  0
  7 14  1  1  0  0  0
  8 30  1  0  0  0  0
  9 24  1  0  0  0  0
  9 43  1  1  0  0  0
 10 15  1  1  0  0  0
 10 24  1  0  0  0  0
 11 31  2  0  0  0  0
 11 27  1  0  0  0  0
 12 32  1  1  0  0  0
 12 10  1  0  0  0  0
 13 14  2  0  0  0  0
 14 21  1  0  0  0  0
 16 20  2  0  0  0  0
 17 16  1  0  0  0  0
 17  2  1  0  0  0  0
 18 31  1  0  0  0  0
 19 22  1  0  0  0  0
 19  3  1  0  0  0  0
 21 11  1  0  0  0  0
 22  1  1  0  0  0  0
 23  5  1  0  0  0  0
 23  8  2  0  0  0  0
 24 18  1  6  0  0  0
 25 29  1  0  0  0  0
 26  8  1  0  0  0  0
 27 26  2  0  0  0  0
 28 29  2  0  0  0  0
 28 17  1  0  0  0  0
 31 23  1  0  0  0  0
 33  6  1  0  0  0  0
 33  4  2  0  0  0  0
 34 35  1  0  0  0  0
 35 33  1  1  0  0  0
 36 35  1  0  0  0  0
 37 38  1  0  0  0  0
 37 39  1  0  0  0  0
 38 36  1  0  0  0  0
 39 34  2  0  0  0  0
 40 41  2  0  0  0  0
 43 42  1  0  0  0  0
 44 16  1  0  0  0  0
 45 44  1  0  0  0  0
 46 45  1  0  0  0  0
 48 47  1  0  0  0  0
 48 46  1  0  0  0  0
 49 48  2  0  0  0  0
M  END
>  <MODEL>
3

>  <REMARK>
 VINA RESULT:       9.9      2.495      9.255
  Name = 
  7 active torsions:
  status: ('A' for Active; 'I' for Inactive)
    1  A    between atoms: C_1  and  C_32
    2  A    between atoms: C_5  and  C_26
    3  A    between atoms: C_5  and  C_37
    4  A    between atoms: C_10  and  C_13
    5  A    between atoms: C_10  and  C_37
    6  A    between atoms: C_16  and  C_49
    7  A    between atoms: C_17  and  C_34
                            x       y       z     vdW  Elec       q    Type
                         _______ _______ _______ _____ _____    ______ ____

>  <TORSDO>
F 7

$$$$
=
 OpenBabel11072411423D

 49 54  0  0  1  0  0  0  0  0999 V2000
  161.1000  207.6200  147.9050 C   0  0  1  0  0  3  0  0  0  0  0  0
  161.7860  210.9330  150.5080 C   0  0  2  0  0  3  0  0  0  0  0  0
  160.3240  210.8650  147.4360 C   0  0  0  0  0  2  0  0  0  0  0  0
  161.2240  212.0890  147.5460 C   0  0  0  0  0  0  0  0  0  0  0  0
  160.7290  208.7580  155.2770 F   0  0  0  0  0  0  0  0  0  0  0  0
  162.4450  213.9230  146.4960 C   0  0  0  0  0  3  0  0  0  0  0  0
  161.6850  207.3490  149.3250 C   0  0  1  0  0  3  0  0  0  0  0  0
  160.6160  206.3900  155.5240 C   0  0  0  0  0  0  0  0  0  0  0  0
  162.0680  210.6980  152.0280 C   0  0  2  0  0  3  0  0  0  0  0  0
  162.9580  208.5780  151.3230 C   0  0  2  0  0  3  0  0  0  0  0  0
  160.8070  206.0870  152.7300 C   0  0  0  0  0  0  0  0  0  0  0  0
  162.2860  208.6270  149.9220 C   0  0  2  0  0  3  0  0  0  0  0  0
  159.4650  207.1020  150.1710 O   0  0  0  0  0  0  0  0  0  0  0  0
  160.6360  206.7580  150.2480 C   0  0  0  0  0  0  0  0  0  0  0  0
  163.6480  207.2890  151.7410 C   0  0  0  0  0  1  0  0  0  0  0  0
  159.6720  212.3450  150.4620 C   0  0  0  0  0  0  0  0  0  0  0  0
  161.0350  212.1040  150.0560 N   0  0  0  0  0  0  0  0  0  0  0  0
  160.8490  208.6470  152.4990 C   0  0  0  0  0  2  0  0  0  0  0  0
  160.8220  209.7430  146.4970 C   0  0  0  0  0  2  0  0  0  0  0  0
  159.0310  211.4710  151.1040 O   0  0  0  0  0  0  0  0  0  0  0  0
  161.0520  205.7480  151.2720 C   0  0  0  0  0  2  0  0  0  0  0  0
  161.8100  208.7520  147.1270 C   0  0  0  0  0  2  0  0  0  0  0  0
  160.7330  207.5230  154.7110 C   0  0  0  0  0  0  0  0  0  0  0  0
  162.1900  209.2520  152.3940 N   0  0  2  0  0  0  0  0  0  0  0  0
  162.7590  214.4510  147.7450 C   0  0  0  0  0  3  0  0  0  0  0  0
  160.5970  205.1200  154.9530 C   0  0  0  0  0  3  0  0  0  0  0  0
  160.7010  204.9740  153.5710 C   0  0  0  0  0  3  0  0  0  0  0  0
  161.5060  212.6770  148.8220 C   0  0  0  0  0  0  0  0  0  0  0  0
  162.2850  213.8350  148.8980 C   0  0  0  0  0  3  0  0  0  0  0  0
  160.5030  206.5240  157.0030 C   0  0  0  0  0  1  0  0  0  0  0  0
  160.8320  207.3880  153.3130 C   0  0  0  0  0  0  0  0  0  0  0  0
  161.2320  209.7080  149.8790 C   0  0  0  0  0  2  0  0  0  0  0  0
  161.6720  212.7600  146.3800 C   0  0  0  0  0  0  0  0  0  0  0  0
  159.9190  212.7410  144.6100 C   0  0  0  0  0  3  0  0  0  0  0  0
  161.2980  212.2810  145.0060 C   0  0  1  0  0  3  0  0  0  0  0  0
  162.3690  212.6360  143.9570 C   0  0  0  0  0  2  0  0  0  0  0  0
  160.4740  212.0080  142.3420 C   0  0  0  0  0  2  0  0  0  0  0  0
  161.8560  212.6490  142.5030 C   0  0  0  0  0  2  0  0  0  0  0  0
  159.5260  212.6040  143.3400 C   0  0  0  0  0  3  0  0  0  0  0  0
  160.2670  206.2510  146.1630 O   0  0  0  0  0  0  0  0  0  0  0  0
  161.0540  206.3660  147.0890 C   0  0  0  0  0  3  0  0  0  0  0  0
  161.5770  211.1730  154.3200 O   0  0  0  0  0  1  0  0  0  0  0  0
  161.2270  211.5070  153.0120 C   0  0  0  0  0  2  0  0  0  0  0  0
  158.9770  213.6200  150.0970 C   0  0  0  0  0  2  0  0  0  0  0  0
  157.8370  213.3690  149.1150 C   0  0  0  0  0  2  0  0  0  0  0  0
  156.7470  214.4260  149.2300 C   0  0  0  0  0  2  0  0  0  0  0  0
  154.6750  214.0920  150.3600 O   0  0  0  0  0  0  0  0  0  0  0  0
  155.9250  214.2080  150.4540 C   0  0  0  0  0  0  0  0  0  0  0  0
  156.5390  214.1030  151.6940 O   0  0  0  0  0  1  0  0  0  0  0  0
  1 41  1  6  0  0  0
  1  7  1  0  0  0  0
  2 32  1  1  0  0  0
  2  9  1  0  0  0  0
  3  4  1  0  0  0  0
  4 28  1  0  0  0  0
  6 25  2  0  0  0  0
  7 12  1  0  0  0  0
  7 14  1  1  0  0  0
  8 30  1  0  0  0  0
  9 24  1  0  0  0  0
  9 43  1  1  0  0  0
 10 15  1  1  0  0  0
 10 24  1  0  0  0  0
 11 31  2  0  0  0  0
 11 27  1  0  0  0  0
 12 32  1  1  0  0  0
 12 10  1  0  0  0  0
 13 14  2  0  0  0  0
 14 21  1  0  0  0  0
 16 20  2  0  0  0  0
 17 16  1  0  0  0  0
 17  2  1  0  0  0  0
 18 31  1  0  0  0  0
 19 22  1  0  0  0  0
 19  3  1  0  0  0  0
 21 11  1  0  0  0  0
 22  1  1  0  0  0  0
 23  5  1  0  0  0  0
 23  8  2  0  0  0  0
 24 18  1  6  0  0  0
 25 29  1  0  0  0  0
 26  8  1  0  0  0  0
 27 26  2  0  0  0  0
 28 29  2  0  0  0  0
 28 17  1  0  0  0  0
 31 23  1  0  0  0  0
 33  6  1  0  0  0  0
 33  4  2  0  0  0  0
 34 35  1  0  0  0  0
 35 33  1  1  0  0  0
 36 35  1  0  0  0  0
 37 38  1  0  0  0  0
 37 39  1  0  0  0  0
 38 36  1  0  0  0  0
 39 34  2  0  0  0  0
 40 41  2  0  0  0  0
 43 42  1  0  0  0  0
 44 16  1  0  0  0  0
 45 46  1  0  0  0  0
 45 44  1  0  0  0  0
 46 48  1  0  0  0  0
 47 48  2  0  0  0  0
 48 49  1  0  0  0  0
M  END
>  <MODEL>
4

>  <REMARK>
 VINA RESULT:      10.3      2.524      9.354
  Name = 
  7 active torsions:
  status: ('A' for Active; 'I' for Inactive)
    1  A    between atoms: C_1  and  C_32
    2  A    between atoms: C_5  and  C_26
    3  A    between atoms: C_5  and  C_37
    4  A    between atoms: C_10  and  C_13
    5  A    between atoms: C_10  and  C_37
    6  A    between atoms: C_16  and  C_49
    7  A    between atoms: C_17  and  C_34
                            x       y       z     vdW  Elec       q    Type
                         _______ _______ _______ _____ _____    ______ ____

>  <TORSDO>
F 7

$$$$
=
 OpenBabel11072411423D

 49 54  0  0  1  0  0  0  0  0999 V2000
  161.1940  206.0490  153.7900 C   0  0  1  0  0  3  0  0  0  0  0  0
  160.5830  207.8410  149.9640 C   0  0  2  0  0  3  0  0  0  0  0  0
  162.0990  209.1160  152.7300 C   0  0  0  0  0  2  0  0  0  0  0  0
  161.2440  210.1920  152.0750 C   0  0  0  0  0  0  0  0  0  0  0  0
  161.4680  203.6930  146.7080 F   0  0  0  0  0  0  0  0  0  0  0  0
  160.1110  212.3530  152.1760 C   0  0  0  0  0  3  0  0  0  0  0  0
  160.5730  205.1850  152.6490 C   0  0  1  0  0  3  0  0  0  0  0  0
  161.4890  201.4690  147.5650 C   0  0  0  0  0  0  0  0  0  0  0  0
  160.2630  206.9520  148.7180 C   0  0  2  0  0  3  0  0  0  0  0  0
  159.3090  205.4240  150.3100 C   0  0  2  0  0  3  0  0  0  0  0  0
  161.3390  202.4780  150.1920 C   0  0  0  0  0  0  0  0  0  0  0  0
  160.0080  206.0760  151.5350 C   0  0  2  0  0  3  0  0  0  0  0  0
  162.7660  204.4890  152.0080 O   0  0  0  0  0  0  0  0  0  0  0  0
  161.5810  204.1970  152.0950 C   0  0  0  0  0  0  0  0  0  0  0  0
  158.5640  204.1160  150.5240 C   0  0  0  0  0  1  0  0  0  0  0  0
  162.7480  209.0300  149.3620 C   0  0  0  0  0  0  0  0  0  0  0  0
  161.3850  209.0560  149.8340 N   0  0  0  0  0  0  0  0  0  0  0  0
  161.3970  204.8620  149.2320 C   0  0  0  0  0  2  0  0  0  0  0  0
  161.5780  208.5660  154.0770 C   0  0  0  0  0  2  0  0  0  0  0  0
  163.3440  207.9330  149.1890 O   0  0  0  0  0  0  0  0  0  0  0  0
  161.1100  202.8500  151.6440 C   0  0  0  0  0  2  0  0  0  0  0  0
  160.5420  207.4390  153.9670 C   0  0  0  0  0  2  0  0  0  0  0  0
  161.4300  202.8520  147.7740 C   0  0  0  0  0  0  0  0  0  0  0  0
  160.0820  205.5040  149.0490 N   0  0  2  0  0  0  0  0  0  0  0  0
  159.7940  212.2670  150.8230 C   0  0  0  0  0  3  0  0  0  0  0  0
  161.4710  200.5980  148.6520 C   0  0  0  0  0  3  0  0  0  0  0  0
  161.3880  201.1010  149.9490 C   0  0  0  0  0  3  0  0  0  0  0  0
  160.9590  210.1470  150.6720 C   0  0  0  0  0  0  0  0  0  0  0  0
  160.2220  211.1750  150.0770 C   0  0  0  0  0  3  0  0  0  0  0  0
  161.5790  200.9100  146.1880 C   0  0  0  0  0  1  0  0  0  0  0  0
  161.3520  203.3710  149.0800 C   0  0  0  0  0  0  0  0  0  0  0  0
  161.1020  207.0130  151.0820 C   0  0  0  0  0  2  0  0  0  0  0  0
  160.8420  211.3380  152.8080 C   0  0  0  0  0  0  0  0  0  0  0  0
  160.1060  211.1320  155.1790 C   0  0  0  0  0  3  0  0  0  0  0  0
  161.2250  211.5210  154.2490 C   0  0  1  0  0  3  0  0  0  0  0  0
  162.5540  210.8200  154.5890 C   0  0  0  0  0  2  0  0  0  0  0  0
  161.7500  211.2530  156.9890 C   0  0  0  0  0  2  0  0  0  0  0  0
  162.7520  210.5240  156.0890 C   0  0  0  0  0  2  0  0  0  0  0  0
  160.3570  211.0100  156.4870 C   0  0  0  0  0  3  0  0  0  0  0  0
  160.8540  205.8410  156.1230 O   0  0  0  0  0  0  0  0  0  0  0  0
  161.2090  205.3010  155.0870 C   0  0  0  0  0  3  0  0  0  0  0  0
  160.5270  206.5690  146.3710 O   0  0  0  0  0  1  0  0  0  0  0  0
  161.1150  207.1890  147.4730 C   0  0  0  0  0  2  0  0  0  0  0  0
  163.4970  210.3010  149.1070 C   0  0  0  0  0  2  0  0  0  0  0  0
  162.8770  211.0880  147.9570 C   0  0  0  0  0  2  0  0  0  0  0  0
  163.0710  212.5890  148.1270 C   0  0  0  0  0  2  0  0  0  0  0  0
  161.0640  213.8460  147.8540 O   0  0  0  0  0  1  0  0  0  0  0  0
  162.0830  213.3480  147.3080 C   0  0  0  0  0  0  0  0  0  0  0  0
  162.3000  213.5300  145.9500 O   0  0  0  0  0  0  0  0  0  0  0  0
  1 22  1  0  0  0  0
  1 41  1  1  0  0  0
  2 32  1  1  0  0  0
  3 19  1  0  0  0  0
  4  3  1  0  0  0  0
  4 33  1  0  0  0  0
  5 23  1  0  0  0  0
  6 33  2  0  0  0  0
  7 14  1  6  0  0  0
  7  1  1  0  0  0  0
  8 23  2  0  0  0  0
  8 26  1  0  0  0  0
  9 43  1  6  0  0  0
  9 24  1  0  0  0  0
  9  2  1  0  0  0  0
 10 15  1  1  0  0  0
 10 12  1  0  0  0  0
 11 21  1  0  0  0  0
 12 32  1  6  0  0  0
 12  7  1  0  0  0  0
 13 14  2  0  0  0  0
 16 17  1  0  0  0  0
 17  2  1  0  0  0  0
 17 28  1  0  0  0  0
 20 16  2  0  0  0  0
 21 14  1  0  0  0  0
 22 19  1  0  0  0  0
 23 31  1  0  0  0  0
 24 18  1  1  0  0  0
 24 10  1  0  0  0  0
 25  6  1  0  0  0  0
 26 27  2  0  0  0  0
 27 11  1  0  0  0  0
 28  4  2  0  0  0  0
 29 28  1  0  0  0  0
 29 25  2  0  0  0  0
 30  8  1  0  0  0  0
 31 18  1  0  0  0  0
 31 11  2  0  0  0  0
 34 39  2  0  0  0  0
 35 33  1  6  0  0  0
 35 36  1  0  0  0  0
 35 34  1  0  0  0  0
 36 38  1  0  0  0  0
 38 37  1  0  0  0  0
 39 37  1  0  0  0  0
 41 40  2  0  0  0  0
 42 43  1  0  0  0  0
 44 16  1  0  0  0  0
 45 46  1  0  0  0  0
 45 44  1  0  0  0  0
 48 47  1  0  0  0  0
 48 46  1  0  0  0  0
 49 48  2  0  0  0  0
M  END
>  <MODEL>
5

>  <REMARK>
 VINA RESULT:      11.2      2.554      7.560
  Name = 
  7 active torsions:
  status: ('A' for Active; 'I' for Inactive)
    1  A    between atoms: C_1  and  C_32
    2  A    between atoms: C_5  and  C_26
    3  A    between atoms: C_5  and  C_37
    4  A    between atoms: C_10  and  C_13
    5  A    between atoms: C_10  and  C_37
    6  A    between atoms: C_16  and  C_49
    7  A    between atoms: C_17  and  C_34
                            x       y       z     vdW  Elec       q    Type
                         _______ _______ _______ _____ _____    ______ ____

>  <TORSDO>
F 7

$$$$
