=
 OpenBabel11072412463D

 55 61  0  0  1  0  0  0  0  0999 V2000
  158.9880  210.7330  155.0590 C   0  0  2  0  0  3  0  0  0  0  0  0
  159.3150  210.7140  156.5610 C   0  0  0  0  0  2  0  0  0  0  0  0
  161.4570  209.5550  156.0740 C   0  0  0  0  0  0  0  0  0  0  0  0
  162.6510  209.2930  156.3740 O   0  0  0  0  0  0  0  0  0  0  0  0
  160.7480  208.8590  154.9430 C   0  0  1  0  0  3  0  0  0  0  0  0
  160.7430  210.5480  156.8040 N   0  0  0  0  0  2  0  0  0  0  0  0
  159.9680  209.9330  154.1770 C   0  0  0  0  0  2  0  0  0  0  0  0
  161.9390  206.6840  154.5360 C   0  0  0  0  0  2  0  0  0  0  0  0
  161.1130  207.9080  152.6320 C   0  0  0  0  0  2  0  0  0  0  0  0
  161.7060  208.0940  154.0140 C   0  0  1  0  0  3  0  0  0  0  0  0
  161.0400  205.7460  153.7500 C   0  0  0  0  0  2  0  0  0  0  0  0
  160.3870  206.5820  152.6640 C   0  0  2  0  0  3  0  0  0  0  0  0
  160.4430  205.9240  151.3620 N   0  0  0  0  0  2  0  0  0  0  0  0
  161.9990  204.2700  151.9270 O   0  0  0  0  0  0  0  0  0  0  0  0
  161.3230  204.8390  151.0260 C   0  0  0  0  0  0  0  0  0  0  0  0
  161.4430  204.3560  149.6080 C   0  0  2  0  0  3  0  0  0  0  0  0
  160.8030  205.3650  148.6660 C   0  0  0  0  0  2  0  0  0  0  0  0
  160.7900  204.8640  147.3650 O   0  0  0  0  0  0  0  0  0  0  0  0
  160.1280  206.4250  145.3750 O   0  0  0  0  0  0  0  0  0  0  0  0
  161.4630  207.5510  147.3180 O   0  0  0  0  0  1  0  0  0  0  0  0
  162.6580  205.8040  145.5440 O   0  0  0  0  0  1  0  0  0  0  0  0
  161.2300  206.1650  146.3770 P   0  0  0  0  0  0  0  0  0  0  0  0
  160.7930  202.9910  149.4050 C   0  0  0  0  0  2  0  0  0  0  0  0
  160.7030  201.1150  147.7880 C   0  0  2  0  0  3  0  0  0  0  0  0
  161.0270  202.3800  147.0270 C   0  0  0  0  0  2  0  0  0  0  0  0
  161.5930  202.1700  148.4160 C   0  0  1  0  0  3  0  0  0  0  0  0
  161.5640  199.9860  147.2680 C   0  0  0  0  0  2  0  0  0  0  0  0
  160.7100  200.4940  145.1140 O   0  0  0  0  0  1  0  0  0  0  0  0
  160.9710  199.4420  145.9880 C   0  0  0  0  0  2  0  0  0  0  0  0
  158.9150  212.1680  154.5700 C   0  0  0  0  0  2  0  0  0  0  0  0
  157.1190  213.5380  153.4790 C   0  0  2  0  0  3  0  0  0  0  0  0
  156.8990  214.0630  152.1910 O   0  0  0  0  0  0  0  0  0  0  0  0
  158.6260  212.4100  152.0420 C   0  0  1  0  0  0  0  0  0  0  0  0
  159.9300  212.9390  152.1240 O   0  0  0  0  0  0  0  0  0  0  0  0
  158.7110  214.3630  150.6960 C   0  0  1  0  0  3  0  0  0  0  0  0
  157.9580  212.2820  153.3870 C   0  0  1  0  0  3  0  0  0  0  0  0
  157.7490  213.3790  151.2940 C   0  0  2  0  0  3  0  0  0  0  0  0
  158.6420  211.1720  151.3990 O   0  0  0  0  0  1  0  0  0  0  0  0
  160.0670  213.7870  151.0130 C   0  0  0  0  0  2  0  0  0  0  0  0
  155.6030  211.9760  154.4080 F   0  0  0  0  0  0  0  0  0  0  0  0
  154.7280  213.8090  153.4250 O   0  0  0  0  0  1  0  0  0  0  0  0
  155.7810  213.3320  154.2090 C   0  0  2  0  0  0  0  0  0  0  0  0
  154.5660  213.7470  156.2590 O   0  0  0  0  0  1  0  0  0  0  0  0
  155.7560  214.0150  155.5790 C   0  0  0  0  0  2  0  0  0  0  0  0
  158.5380  214.4510  149.3020 O   0  0  0  0  0  0  0  0  0  0  0  0
  159.9190  212.6340  146.4400 C   0  0  2  0  0  0  0  0  0  0  0  0
  160.9190  213.6280  146.7560 N   0  0  0  0  0  0  0  0  0  0  0  0
  160.4270  214.0340  144.5860 C   0  0  0  0  0  3  0  0  0  0  0  0
  159.4510  213.6100  148.6070 C   0  0  1  0  0  3  0  0  0  0  0  0
  158.7990  212.8190  147.4660 C   0  0  1  0  0  3  0  0  0  0  0  0
  160.7430  214.2310  148.0570 C   0  0  0  0  0  2  0  0  0  0  0  0
  160.4700  211.3570  146.5580 O   0  0  0  0  0  1  0  0  0  0  0  0
  159.5360  212.9030  144.9830 C   0  0  0  0  0  2  0  0  0  0  0  0
  157.7200  213.5260  146.9260 O   0  0  0  0  0  1  0  0  0  0  0  0
  161.1650  214.4220  145.6090 C   0  0  0  0  0  3  0  0  0  0  0  0
  1 30  1  6  0  0  0
  1  2  1  0  0  0  0
  2  6  1  0  0  0  0
  3  4  2  0  0  0  0
  3  6  1  0  0  0  0
  5  7  1  6  0  0  0
  5  3  1  0  0  0  0
  7  1  1  0  0  0  0
  9 12  1  0  0  0  0
 10  9  1  6  0  0  0
 10  8  1  0  0  0  0
 10  5  1  0  0  0  0
 11  8  1  0  0  0  0
 12 13  1  6  0  0  0
 12 11  1  0  0  0  0
 15 13  1  0  0  0  0
 15 14  2  0  0  0  0
 16 17  1  6  0  0  0
 16 15  1  0  0  0  0
 18 17  1  0  0  0  0
 19 22  2  0  0  0  0
 21 22  1  0  0  0  0
 22 20  1  0  0  0  0
 22 18  1  0  0  0  0
 23 16  1  0  0  0  0
 24 27  1  6  0  0  0
 24 26  1  0  0  0  0
 25 24  1  0  0  0  0
 25 26  1  0  0  0  0
 26 23  1  1  0  0  0
 28 29  1  0  0  0  0
 29 27  1  0  0  0  0
 31 42  1  6  0  0  0
 32 31  1  0  0  0  0
 33 38  1  6  0  0  0
 33 34  1  0  0  0  0
 33 36  1  0  0  0  0
 35 45  1  6  0  0  0
 35 39  1  0  0  0  0
 35 37  1  0  0  0  0
 36 31  1  0  0  0  0
 36 30  1  1  0  0  0
 37 33  1  0  0  0  0
 37 32  1  1  0  0  0
 39 34  1  0  0  0  0
 42 41  1  6  0  0  0
 42 40  1  0  0  0  0
 42 44  1  0  0  0  0
 44 43  1  0  0  0  0
 46 52  1  1  0  0  0
 46 47  1  0  0  0  0
 46 50  1  0  0  0  0
 47 51  1  0  0  0  0
 48 53  1  0  0  0  0
 48 55  2  0  0  0  0
 49 45  1  6  0  0  0
 50 54  1  6  0  0  0
 50 49  1  0  0  0  0
 51 49  1  0  0  0  0
 53 46  1  0  0  0  0
 55 47  1  0  0  0  0
M  END
>  <MODEL>
1

>  <REMARK>
 VINA RESULT:      -5.2      0.000      0.000
  Name = 
  16 active torsions:
  status: ('A' for Active; 'I' for Inactive)
    1  A    between atoms: N_2  and  C_46
    2  A    between atoms: C_5  and  C_15
    3  A    between atoms: C_5  and  C_18
    4  A    between atoms: C_5  and  C_25
    5  A    between atoms: C_7  and  C_40
    6  A    between atoms: C_11  and  C_17
    7  A    between atoms: C_14  and  C_19
    8  A    between atoms: C_14  and  C_37
    9  A    between atoms: C_15  and  C_52
   10  A    between atoms: C_17  and  C_44
   11  A    between atoms: C_18  and  O_33
   12  A    between atoms: C_22  and  O_51
   13  A    between atoms: C_29  and  O_51
   14  A    between atoms: O_33  and  P_48
   15  A    between atoms: C_35  and  C_41
   16  A    between atoms: C_40  and  C_55
                            x       y       z     vdW  Elec       q    Type
                         _______ _______ _______ _____ _____    ______ ____

>  <TORSDO>
F 16

$$$$
=
 OpenBabel11072412463D

 55 61  0  0  1  0  0  0  0  0999 V2000
  158.1500  213.9740  149.7380 C   0  0  2  0  0  3  0  0  0  0  0  0
  157.0670  214.3840  148.7250 C   0  0  0  0  0  2  0  0  0  0  0  0
  158.3790  213.3210  146.9040 C   0  0  0  0  0  0  0  0  0  0  0  0
  158.4300  212.7500  145.7830 O   0  0  0  0  0  0  0  0  0  0  0  0
  159.6210  213.7440  147.6410 C   0  0  1  0  0  3  0  0  0  0  0  0
  157.1180  213.5700  147.5180 N   0  0  0  0  0  2  0  0  0  0  0  0
  159.4200  213.3650  149.1110 C   0  0  0  0  0  2  0  0  0  0  0  0
  162.1090  213.5020  147.9110 C   0  0  0  0  0  2  0  0  0  0  0  0
  160.8530  211.5960  147.1380 C   0  0  0  0  0  2  0  0  0  0  0  0
  160.9020  213.1090  147.0700 C   0  0  1  0  0  3  0  0  0  0  0  0
  162.4120  212.3480  148.8500 C   0  0  0  0  0  2  0  0  0  0  0  0
  161.4790  211.2160  148.4610 C   0  0  2  0  0  3  0  0  0  0  0  0
  162.1810  209.9400  148.3600 N   0  0  0  0  0  2  0  0  0  0  0  0
  160.4700  208.5870  149.2050 O   0  0  0  0  0  0  0  0  0  0  0  0
  161.6690  208.6810  148.8250 C   0  0  0  0  0  0  0  0  0  0  0  0
  162.5420  207.4580  148.8500 C   0  0  2  0  0  3  0  0  0  0  0  0
  161.9390  206.3790  147.9620 C   0  0  0  0  0  2  0  0  0  0  0  0
  162.0940  206.7230  146.6190 O   0  0  0  0  0  0  0  0  0  0  0  0
  161.2470  204.2550  146.4600 O   0  0  0  0  0  1  0  0  0  0  0  0
  161.6450  205.4770  144.1850 O   0  0  0  0  0  0  0  0  0  0  0  0
  163.7380  204.6510  145.7870 O   0  0  0  0  0  1  0  0  0  0  0  0
  162.1570  205.2540  145.7820 P   0  0  0  0  0  0  0  0  0  0  0  0
  162.7270  206.9080  150.2610 C   0  0  0  0  0  2  0  0  0  0  0  0
  161.9370  204.6300  150.8330 C   0  0  2  0  0  3  0  0  0  0  0  0
  161.7590  205.5110  152.0480 C   0  0  0  0  0  2  0  0  0  0  0  0
  161.5260  206.0790  150.6640 C   0  0  1  0  0  3  0  0  0  0  0  0
  160.7200  203.7470  150.6730 C   0  0  0  0  0  2  0  0  0  0  0  0
  160.4540  201.4140  150.3340 O   0  0  0  0  0  1  0  0  0  0  0  0
  161.0670  202.5520  149.8150 C   0  0  0  0  0  2  0  0  0  0  0  0
  157.5630  213.0060  150.7490 C   0  0  0  0  0  2  0  0  0  0  0  0
  156.7660  212.8730  153.1240 C   0  0  2  0  0  3  0  0  0  0  0  0
  157.3780  212.7170  154.3820 O   0  0  0  0  0  0  0  0  0  0  0  0
  159.0700  213.3060  152.7910 C   0  0  1  0  0  0  0  0  0  0  0  0
  159.7410  212.1970  152.2360 O   0  0  0  0  0  0  0  0  0  0  0  0
  159.5480  211.7820  154.5480 C   0  0  1  0  0  3  0  0  0  0  0  0
  157.7210  213.5500  152.1650 C   0  0  1  0  0  3  0  0  0  0  0  0
  158.7510  213.0140  154.2340 C   0  0  2  0  0  3  0  0  0  0  0  0
  159.8580  214.4530  152.6890 O   0  0  0  0  0  1  0  0  0  0  0  0
  160.3820  211.5620  153.3120 C   0  0  0  0  0  2  0  0  0  0  0  0
  155.5060  214.4490  154.3610 F   0  0  0  0  0  0  0  0  0  0  0  0
  154.3970  212.6810  153.5030 O   0  0  0  0  0  1  0  0  0  0  0  0
  155.4200  213.6030  153.2700 C   0  0  2  0  0  0  0  0  0  0  0  0
  154.5960  213.6640  150.9970 O   0  0  0  0  0  1  0  0  0  0  0  0
  155.0820  214.4520  152.0430 C   0  0  0  0  0  2  0  0  0  0  0  0
  160.3820  211.9920  155.6610 O   0  0  0  0  0  0  0  0  0  0  0  0
  160.9720  208.4260  156.2470 C   0  0  2  0  0  0  0  0  0  0  0  0
  161.7480  208.7340  155.0680 N   0  0  0  0  0  0  0  0  0  0  0  0
  160.3920  207.0540  154.3940 C   0  0  0  0  0  3  0  0  0  0  0  0
  161.1380  210.8280  155.9760 C   0  0  1  0  0  3  0  0  0  0  0  0
  160.3130  209.7400  156.6750 C   0  0  1  0  0  3  0  0  0  0  0  0
  161.9370  210.1500  154.8530 C   0  0  0  0  0  2  0  0  0  0  0  0
  161.8160  207.9630  157.2580 O   0  0  0  0  0  1  0  0  0  0  0  0
  160.0150  207.3130  155.8150 C   0  0  0  0  0  2  0  0  0  0  0  0
  158.9750  209.7970  156.2730 O   0  0  0  0  0  1  0  0  0  0  0  0
  161.3450  207.8830  154.0100 C   0  0  0  0  0  3  0  0  0  0  0  0
  1 30  1  1  0  0  0
  2  1  1  0  0  0  0
  3  6  1  0  0  0  0
  3  5  1  0  0  0  0
  4  3  2  0  0  0  0
  5  7  1  1  0  0  0
  6  2  1  0  0  0  0
  7  1  1  0  0  0  0
  8 11  1  0  0  0  0
  9 12  1  0  0  0  0
 10  9  1  1  0  0  0
 10  5  1  0  0  0  0
 10  8  1  0  0  0  0
 12 13  1  6  0  0  0
 12 11  1  0  0  0  0
 13 15  1  0  0  0  0
 15 16  1  0  0  0  0
 15 14  2  0  0  0  0
 16 17  1  6  0  0  0
 16 23  1  0  0  0  0
 18 17  1  0  0  0  0
 20 22  2  0  0  0  0
 22 21  1  0  0  0  0
 22 19  1  0  0  0  0
 22 18  1  0  0  0  0
 24 27  1  1  0  0  0
 24 25  1  0  0  0  0
 26 23  1  6  0  0  0
 26 24  1  0  0  0  0
 26 25  1  0  0  0  0
 29 28  1  0  0  0  0
 29 27  1  0  0  0  0
 31 42  1  1  0  0  0
 31 32  1  0  0  0  0
 33 38  1  6  0  0  0
 33 37  1  0  0  0  0
 34 33  1  0  0  0  0
 34 39  1  0  0  0  0
 35 45  1  1  0  0  0
 36 30  1  6  0  0  0
 36 33  1  0  0  0  0
 36 31  1  0  0  0  0
 37 32  1  6  0  0  0
 37 35  1  0  0  0  0
 39 35  1  0  0  0  0
 42 41  1  1  0  0  0
 42 40  1  0  0  0  0
 43 44  1  0  0  0  0
 44 42  1  0  0  0  0
 46 50  1  0  0  0  0
 46 52  1  1  0  0  0
 47 46  1  0  0  0  0
 48 53  1  0  0  0  0
 49 45  1  6  0  0  0
 49 50  1  0  0  0  0
 50 54  1  6  0  0  0
 51 47  1  0  0  0  0
 51 49  1  0  0  0  0
 53 46  1  0  0  0  0
 55 48  2  0  0  0  0
 55 47  1  0  0  0  0
M  END
>  <MODEL>
2

>  <REMARK>
 VINA RESULT:      -4.6      2.164      6.701
  Name = 
  16 active torsions:
  status: ('A' for Active; 'I' for Inactive)
    1  A    between atoms: N_2  and  C_46
    2  A    between atoms: C_5  and  C_15
    3  A    between atoms: C_5  and  C_18
    4  A    between atoms: C_5  and  C_25
    5  A    between atoms: C_7  and  C_40
    6  A    between atoms: C_11  and  C_17
    7  A    between atoms: C_14  and  C_19
    8  A    between atoms: C_14  and  C_37
    9  A    between atoms: C_15  and  C_52
   10  A    between atoms: C_17  and  C_44
   11  A    between atoms: C_18  and  O_33
   12  A    between atoms: C_22  and  O_51
   13  A    between atoms: C_29  and  O_51
   14  A    between atoms: O_33  and  P_48
   15  A    between atoms: C_35  and  C_41
   16  A    between atoms: C_40  and  C_55
                            x       y       z     vdW  Elec       q    Type
                         _______ _______ _______ _____ _____    ______ ____

>  <TORSDO>
F 16

$$$$
=
 OpenBabel11072412463D

 55 61  0  0  1  0  0  0  0  0999 V2000
  161.3200  206.5890  154.4550 C   0  0  2  0  0  3  0  0  0  0  0  0
  160.6630  206.0150  155.7220 C   0  0  0  0  0  2  0  0  0  0  0  0
  160.2660  208.3230  156.5520 C   0  0  0  0  0  0  0  0  0  0  0  0
  159.5970  209.1360  157.2420 O   0  0  0  0  0  0  0  0  0  0  0  0
  161.5560  208.7140  155.8840 C   0  0  1  0  0  3  0  0  0  0  0  0
  159.7960  206.9900  156.3720 N   0  0  0  0  0  2  0  0  0  0  0  0
  161.5300  208.1160  154.4750 C   0  0  0  0  0  2  0  0  0  0  0  0
  162.9030  210.5880  154.8860 C   0  0  0  0  0  2  0  0  0  0  0  0
  160.5560  210.9570  155.2890 C   0  0  0  0  0  2  0  0  0  0  0  0
  161.7710  210.2380  155.8410 C   0  0  1  0  0  3  0  0  0  0  0  0
  162.2800  211.0220  153.5710 C   0  0  0  0  0  2  0  0  0  0  0  0
  160.7800  211.0720  153.7980 C   0  0  2  0  0  3  0  0  0  0  0  0
  160.1890  212.3010  153.2740 N   0  0  0  0  0  2  0  0  0  0  0  0
  158.2700  211.3380  152.3440 O   0  0  0  0  0  0  0  0  0  0  0  0
  158.9900  212.3640  152.4860 C   0  0  0  0  0  0  0  0  0  0  0  0
  158.5660  213.6500  151.8330 C   0  0  2  0  0  3  0  0  0  0  0  0
  157.6920  214.4470  152.7890 C   0  0  0  0  0  2  0  0  0  0  0  0
  157.6330  213.8080  154.0290 O   0  0  0  0  0  0  0  0  0  0  0  0
  155.7370  212.0480  154.4060 O   0  0  0  0  0  1  0  0  0  0  0  0
  155.5290  214.2650  155.7730 O   0  0  0  0  0  1  0  0  0  0  0  0
  155.0640  214.1760  153.0510 O   0  0  0  0  0  0  0  0  0  0  0  0
  155.9880  213.5360  154.3170 P   0  0  0  0  0  0  0  0  0  0  0  0
  157.8090  213.4160  150.5300 C   0  0  0  0  0  2  0  0  0  0  0  0
  158.7310  213.4370  148.2300 C   0  0  2  0  0  3  0  0  0  0  0  0
  157.4480  214.2350  148.2320 C   0  0  0  0  0  2  0  0  0  0  0  0
  158.3720  214.2910  149.4300 C   0  0  1  0  0  3  0  0  0  0  0  0
  159.7680  214.1600  147.3990 C   0  0  0  0  0  2  0  0  0  0  0  0
  161.7010  213.7240  148.7030 O   0  0  0  0  0  1  0  0  0  0  0  0
  161.0900  213.4300  147.4870 C   0  0  0  0  0  2  0  0  0  0  0  0
  160.5020  206.2010  153.2360 C   0  0  0  0  0  2  0  0  0  0  0  0
  160.6670  204.6440  151.2760 C   0  0  2  0  0  3  0  0  0  0  0  0
  161.1030  204.7520  149.9410 O   0  0  0  0  0  0  0  0  0  0  0  0
  161.9040  206.6590  151.1500 C   0  0  1  0  0  0  0  0  0  0  0  0
  161.0660  207.7890  151.0520 O   0  0  0  0  0  0  0  0  0  0  0  0
  161.2160  206.8700  148.8870 C   0  0  1  0  0  3  0  0  0  0  0  0
  161.4060  205.6410  152.1420 C   0  0  1  0  0  3  0  0  0  0  0  0
  161.8880  205.9220  149.8360 C   0  0  2  0  0  3  0  0  0  0  0  0
  163.2060  207.0440  151.4740 O   0  0  0  0  0  1  0  0  0  0  0  0
  161.0480  208.1340  149.6920 C   0  0  0  0  0  2  0  0  0  0  0  0
  160.0080  203.0470  152.8930 F   0  0  0  0  0  0  0  0  0  0  0  0
  162.1180  202.9130  152.1070 O   0  0  0  0  0  1  0  0  0  0  0  0
  160.7930  203.1920  151.7640 C   0  0  2  0  0  0  0  0  0  0  0  0
  161.2760  201.2120  150.4600 O   0  0  0  0  0  1  0  0  0  0  0  0
  160.3060  202.1830  150.7210 C   0  0  0  0  0  2  0  0  0  0  0  0
  162.0260  207.1180  147.7640 O   0  0  0  0  0  0  0  0  0  0  0  0
  161.2830  204.4530  145.3660 C   0  0  2  0  0  0  0  0  0  0  0  0
  162.4010  205.1610  144.7880 N   0  0  0  0  0  0  0  0  0  0  0  0
  160.8160  205.2540  143.1760 C   0  0  0  0  0  3  0  0  0  0  0  0
  162.2630  205.9300  147.0170 C   0  0  1  0  0  3  0  0  0  0  0  0
  160.9820  205.1500  146.6960 C   0  0  1  0  0  3  0  0  0  0  0  0
  163.0770  206.0340  145.7190 C   0  0  0  0  0  2  0  0  0  0  0  0
  161.6350  203.1210  145.5930 O   0  0  0  0  0  1  0  0  0  0  0  0
  160.1750  204.5260  144.3130 C   0  0  0  0  0  2  0  0  0  0  0  0
  159.8890  206.0150  146.5860 O   0  0  0  0  0  1  0  0  0  0  0  0
  162.0480  205.6090  143.4910 C   0  0  0  0  0  3  0  0  0  0  0  0
  1 30  1  6  0  0  0
  1  7  1  0  0  0  0
  1  2  1  0  0  0  0
  2  6  1  0  0  0  0
  3  4  2  0  0  0  0
  5  7  1  6  0  0  0
  5  3  1  0  0  0  0
  6  3  1  0  0  0  0
  9 10  1  0  0  0  0
 10  8  1  6  0  0  0
 10  5  1  0  0  0  0
 11 12  1  0  0  0  0
 11  8  1  0  0  0  0
 12 13  1  1  0  0  0
 12  9  1  0  0  0  0
 14 15  2  0  0  0  0
 15 13  1  0  0  0  0
 16 23  1  6  0  0  0
 16 15  1  0  0  0  0
 16 17  1  0  0  0  0
 17 18  1  0  0  0  0
 18 22  1  0  0  0  0
 21 22  2  0  0  0  0
 22 19  1  0  0  0  0
 22 20  1  0  0  0  0
 24 27  1  6  0  0  0
 24 25  1  0  0  0  0
 24 26  1  0  0  0  0
 25 26  1  0  0  0  0
 26 23  1  1  0  0  0
 27 29  1  0  0  0  0
 29 28  1  0  0  0  0
 31 42  1  1  0  0  0
 31 36  1  0  0  0  0
 32 31  1  0  0  0  0
 33 38  1  1  0  0  0
 33 36  1  0  0  0  0
 34 33  1  0  0  0  0
 35 45  1  6  0  0  0
 35 39  1  0  0  0  0
 35 37  1  0  0  0  0
 36 30  1  1  0  0  0
 37 32  1  1  0  0  0
 37 33  1  0  0  0  0
 39 34  1  0  0  0  0
 42 41  1  1  0  0  0
 42 40  1  0  0  0  0
 43 44  1  0  0  0  0
 44 42  1  0  0  0  0
 46 52  1  1  0  0  0
 46 50  1  0  0  0  0
 47 46  1  0  0  0  0
 47 51  1  0  0  0  0
 48 55  2  0  0  0  0
 48 53  1  0  0  0  0
 49 45  1  6  0  0  0
 50 54  1  6  0  0  0
 50 49  1  0  0  0  0
 51 49  1  0  0  0  0
 53 46  1  0  0  0  0
 55 47  1  0  0  0  0
M  END
>  <MODEL>
3

>  <REMARK>
 VINA RESULT:      -3.9      3.212      9.239
  Name = 
  16 active torsions:
  status: ('A' for Active; 'I' for Inactive)
    1  A    between atoms: N_2  and  C_46
    2  A    between atoms: C_5  and  C_15
    3  A    between atoms: C_5  and  C_18
    4  A    between atoms: C_5  and  C_25
    5  A    between atoms: C_7  and  C_40
    6  A    between atoms: C_11  and  C_17
    7  A    between atoms: C_14  and  C_19
    8  A    between atoms: C_14  and  C_37
    9  A    between atoms: C_15  and  C_52
   10  A    between atoms: C_17  and  C_44
   11  A    between atoms: C_18  and  O_33
   12  A    between atoms: C_22  and  O_51
   13  A    between atoms: C_29  and  O_51
   14  A    between atoms: O_33  and  P_48
   15  A    between atoms: C_35  and  C_41
   16  A    between atoms: C_40  and  C_55
                            x       y       z     vdW  Elec       q    Type
                         _______ _______ _______ _____ _____    ______ ____

>  <TORSDO>
F 16

$$$$
=
 OpenBabel11072412463D

 55 61  0  0  1  0  0  0  0  0999 V2000
  159.7140  213.1410  151.5570 C   0  0  2  0  0  3  0  0  0  0  0  0
  158.6180  214.1920  151.3110 C   0  0  0  0  0  2  0  0  0  0  0  0
  159.2290  214.2570  148.9040 C   0  0  0  0  0  0  0  0  0  0  0  0
  158.9140  214.4530  147.7010 O   0  0  0  0  0  0  0  0  0  0  0  0
  160.6530  214.0160  149.3270 C   0  0  1  0  0  3  0  0  0  0  0  0
  158.2200  214.2440  149.9100 N   0  0  0  0  0  2  0  0  0  0  0  0
  160.6290  212.8720  150.3450 C   0  0  0  0  0  2  0  0  0  0  0  0
  161.4870  212.2170  147.7820 C   0  0  0  0  0  2  0  0  0  0  0  0
  161.1670  214.4320  146.8880 C   0  0  0  0  0  2  0  0  0  0  0  0
  161.5830  213.6920  148.1450 C   0  0  1  0  0  3  0  0  0  0  0  0
  160.5570  212.0940  146.5890 C   0  0  0  0  0  2  0  0  0  0  0  0
  160.2210  213.5090  146.1540 C   0  0  2  0  0  3  0  0  0  0  0  0
  160.3430  213.6790  144.7090 N   0  0  0  0  0  2  0  0  0  0  0  0
  158.0670  213.9750  144.2480 O   0  0  0  0  0  0  0  0  0  0  0  0
  159.2370  213.8180  143.8020 C   0  0  0  0  0  0  0  0  0  0  0  0
  159.4550  213.7960  142.3150 C   0  0  2  0  0  3  0  0  0  0  0  0
  158.1530  214.1290  141.6010 C   0  0  0  0  0  2  0  0  0  0  0  0
  157.8340  213.1190  140.6920 O   0  0  0  0  0  0  0  0  0  0  0  0
  156.6070  214.4450  138.8020 O   0  0  0  0  0  0  0  0  0  0  0  0
  155.4870  212.2020  139.5390 O   0  0  0  0  0  1  0  0  0  0  0  0
  155.4440  214.4530  141.1400 O   0  0  0  0  0  1  0  0  0  0  0  0
  156.3530  213.5760  140.0130 P   0  0  0  0  0  0  0  0  0  0  0  0
  159.9710  212.4470  141.8250 C   0  0  0  0  0  2  0  0  0  0  0  0
  161.5170  211.8510  139.9820 C   0  0  2  0  0  3  0  0  0  0  0  0
  161.3610  213.3540  140.0010 C   0  0  0  0  0  2  0  0  0  0  0  0
  161.3860  212.5830  141.3040 C   0  0  1  0  0  3  0  0  0  0  0  0
  162.9710  211.5040  139.7510 C   0  0  0  0  0  2  0  0  0  0  0  0
  162.2620  210.6070  137.6720 O   0  0  0  0  0  1  0  0  0  0  0  0
  163.2390  211.4020  138.2660 C   0  0  0  0  0  2  0  0  0  0  0  0
  159.0800  211.8410  152.0180 C   0  0  0  0  0  2  0  0  0  0  0  0
  158.8150  210.5450  154.1490 C   0  0  2  0  0  3  0  0  0  0  0  0
  159.4910  209.4730  154.7630 O   0  0  0  0  0  0  0  0  0  0  0  0
  160.8910  210.3460  153.0260 C   0  0  1  0  0  0  0  0  0  0  0  0
  160.7640  209.6670  151.7970 O   0  0  0  0  0  0  0  0  0  0  0  0
  160.8430  208.0160  153.4760 C   0  0  1  0  0  3  0  0  0  0  0  0
  159.7730  211.3250  153.2750 C   0  0  1  0  0  3  0  0  0  0  0  0
  160.7580  209.3530  154.1500 C   0  0  2  0  0  3  0  0  0  0  0  0
  162.1220  211.0000  153.0980 O   0  0  0  0  0  1  0  0  0  0  0  0
  161.1790  208.3490  152.0450 C   0  0  0  0  0  2  0  0  0  0  0  0
  156.7650  211.0600  155.2130 F   0  0  0  0  0  0  0  0  0  0  0  0
  158.2110  212.7590  154.8740 O   0  0  0  0  0  1  0  0  0  0  0  0
  158.1040  211.4060  155.2060 C   0  0  2  0  0  0  0  0  0  0  0  0
  159.9240  211.7430  156.7630 O   0  0  0  0  0  1  0  0  0  0  0  0
  158.6570  211.1730  156.6140 C   0  0  0  0  0  2  0  0  0  0  0  0
  161.8650  207.2310  154.0410 O   0  0  0  0  0  0  0  0  0  0  0  0
  161.4870  204.4780  151.6560 C   0  0  2  0  0  0  0  0  0  0  0  0
  162.0980  205.5410  150.8910 N   0  0  0  0  0  0  0  0  0  0  0  0
  160.2140  205.0600  149.7330 C   0  0  0  0  0  3  0  0  0  0  0  0
  162.2930  206.2080  153.1490 C   0  0  1  0  0  3  0  0  0  0  0  0
  161.3250  205.0200  153.0780 C   0  0  1  0  0  3  0  0  0  0  0  0
  162.6490  206.5980  151.7070 C   0  0  0  0  0  2  0  0  0  0  0  0
  162.3250  203.3620  151.6620 O   0  0  0  0  0  1  0  0  0  0  0  0
  160.1880  204.1510  150.9170 C   0  0  0  0  0  2  0  0  0  0  0  0
  160.0120  205.4350  153.3220 O   0  0  0  0  0  1  0  0  0  0  0  0
  161.2840  205.8330  149.7690 C   0  0  0  0  0  3  0  0  0  0  0  0
  1 30  1  6  0  0  0
  2  1  1  0  0  0  0
  3  5  1  0  0  0  0
  3  6  1  0  0  0  0
  4  3  2  0  0  0  0
  5  7  1  1  0  0  0
  6  2  1  0  0  0  0
  7  1  1  0  0  0  0
  8 10  1  0  0  0  0
 10  9  1  6  0  0  0
 10  5  1  0  0  0  0
 11  8  1  0  0  0  0
 12 13  1  6  0  0  0
 12 11  1  0  0  0  0
 12  9  1  0  0  0  0
 15 14  2  0  0  0  0
 15 13  1  0  0  0  0
 16 17  1  6  0  0  0
 16 15  1  0  0  0  0
 18 17  1  0  0  0  0
 19 22  2  0  0  0  0
 20 22  1  0  0  0  0
 22 18  1  0  0  0  0
 22 21  1  0  0  0  0
 23 16  1  0  0  0  0
 24 27  1  1  0  0  0
 24 25  1  0  0  0  0
 24 26  1  0  0  0  0
 25 26  1  0  0  0  0
 26 23  1  6  0  0  0
 28 29  1  0  0  0  0
 29 27  1  0  0  0  0
 31 32  1  0  0  0  0
 31 42  1  1  0  0  0
 33 38  1  1  0  0  0
 33 36  1  0  0  0  0
 33 37  1  0  0  0  0
 34 39  1  0  0  0  0
 34 33  1  0  0  0  0
 35 45  1  1  0  0  0
 35 37  1  0  0  0  0
 36 30  1  6  0  0  0
 36 31  1  0  0  0  0
 37 32  1  6  0  0  0
 39 35  1  0  0  0  0
 42 41  1  6  0  0  0
 42 40  1  0  0  0  0
 42 44  1  0  0  0  0
 44 43  1  0  0  0  0
 46 52  1  1  0  0  0
 46 50  1  0  0  0  0
 47 46  1  0  0  0  0
 47 51  1  0  0  0  0
 48 55  2  0  0  0  0
 48 53  1  0  0  0  0
 49 45  1  6  0  0  0
 50 49  1  0  0  0  0
 50 54  1  6  0  0  0
 51 49  1  0  0  0  0
 53 46  1  0  0  0  0
 55 47  1  0  0  0  0
M  END
>  <MODEL>
4

>  <REMARK>
 VINA RESULT:      -3.0      3.677      9.204
  Name = 
  16 active torsions:
  status: ('A' for Active; 'I' for Inactive)
    1  A    between atoms: N_2  and  C_46
    2  A    between atoms: C_5  and  C_15
    3  A    between atoms: C_5  and  C_18
    4  A    between atoms: C_5  and  C_25
    5  A    between atoms: C_7  and  C_40
    6  A    between atoms: C_11  and  C_17
    7  A    between atoms: C_14  and  C_19
    8  A    between atoms: C_14  and  C_37
    9  A    between atoms: C_15  and  C_52
   10  A    between atoms: C_17  and  C_44
   11  A    between atoms: C_18  and  O_33
   12  A    between atoms: C_22  and  O_51
   13  A    between atoms: C_29  and  O_51
   14  A    between atoms: O_33  and  P_48
   15  A    between atoms: C_35  and  C_41
   16  A    between atoms: C_40  and  C_55
                            x       y       z     vdW  Elec       q    Type
                         _______ _______ _______ _____ _____    ______ ____

>  <TORSDO>
F 16

$$$$
=
 OpenBabel11072412463D

 55 61  0  0  1  0  0  0  0  0999 V2000
  161.7250  207.3950  152.2130 C   0  0  2  0  0  3  0  0  0  0  0  0
  161.6510  205.8830  152.4830 C   0  0  0  0  0  2  0  0  0  0  0  0
  160.4220  206.3270  154.5960 C   0  0  0  0  0  0  0  0  0  0  0  0
  159.6030  205.9650  155.4800 O   0  0  0  0  0  0  0  0  0  0  0  0
  161.2450  207.5790  154.7340 C   0  0  1  0  0  3  0  0  0  0  0  0
  160.5790  205.5490  153.4120 N   0  0  0  0  0  2  0  0  0  0  0  0
  161.2250  208.2800  153.3720 C   0  0  0  0  0  2  0  0  0  0  0  0
  161.8950  208.9720  156.7230 C   0  0  0  0  0  2  0  0  0  0  0  0
  160.1400  209.7840  155.2860 C   0  0  0  0  0  2  0  0  0  0  0  0
  160.7380  208.5100  155.8500 C   0  0  1  0  0  3  0  0  0  0  0  0
  162.2910  210.3650  156.2660 C   0  0  0  0  0  2  0  0  0  0  0  0
  161.2720  210.7850  155.2230 C   0  0  2  0  0  3  0  0  0  0  0  0
  160.7820  212.1410  155.4530 N   0  0  0  0  0  2  0  0  0  0  0  0
  159.3770  211.6510  157.2590 O   0  0  0  0  0  0  0  0  0  0  0  0
  159.7790  212.5000  156.4160 C   0  0  0  0  0  0  0  0  0  0  0  0
  159.2040  213.8880  156.4470 C   0  0  2  0  0  3  0  0  0  0  0  0
  157.8890  213.8820  157.2140 C   0  0  0  0  0  2  0  0  0  0  0  0
  156.8450  214.2750  156.3750 O   0  0  0  0  0  0  0  0  0  0  0  0
  154.4780  213.4690  157.1370 O   0  0  0  0  0  1  0  0  0  0  0  0
  155.3260  212.5300  154.8510 O   0  0  0  0  0  0  0  0  0  0  0  0
  156.3820  211.6880  157.2610 O   0  0  0  0  0  1  0  0  0  0  0  0
  155.7270  213.0060  156.4240 P   0  0  0  0  0  0  0  0  0  0  0  0
  158.9730  214.4510  155.0490 C   0  0  0  0  0  2  0  0  0  0  0  0
  158.0170  213.6370  152.9120 C   0  0  2  0  0  3  0  0  0  0  0  0
  159.4900  213.8970  152.7020 C   0  0  0  0  0  2  0  0  0  0  0  0
  159.0050  213.3380  154.0230 C   0  0  1  0  0  3  0  0  0  0  0  0
  157.6350  212.3440  152.2270 C   0  0  0  0  0  2  0  0  0  0  0  0
  156.9540  213.8510  150.5260 O   0  0  0  0  0  1  0  0  0  0  0  0
  157.4840  212.5810  150.7410 C   0  0  0  0  0  2  0  0  0  0  0  0
  160.9560  207.7270  150.9470 C   0  0  0  0  0  2  0  0  0  0  0  0
  161.2780  208.2590  148.5170 C   0  0  2  0  0  3  0  0  0  0  0  0
  161.6230  209.4060  147.7780 O   0  0  0  0  0  0  0  0  0  0  0  0
  162.1560  209.8080  150.0780 C   0  0  1  0  0  0  0  0  0  0  0  0
  161.1390  210.4740  150.7910 O   0  0  0  0  0  0  0  0  0  0  0  0
  161.3300  211.5640  148.7100 C   0  0  1  0  0  3  0  0  0  0  0  0
  161.8840  208.3370  149.9020 C   0  0  1  0  0  3  0  0  0  0  0  0
  162.1960  210.3400  148.6700 C   0  0  2  0  0  3  0  0  0  0  0  0
  163.3900  209.9930  150.7030 O   0  0  0  0  0  1  0  0  0  0  0  0
  160.9960  211.7260  150.1710 C   0  0  0  0  0  2  0  0  0  0  0  0
  161.0810  205.9050  148.3750 F   0  0  0  0  0  0  0  0  0  0  0  0
  163.0540  206.8170  147.7680 O   0  0  0  0  0  1  0  0  0  0  0  0
  161.6670  206.9870  147.7450 C   0  0  2  0  0  0  0  0  0  0  0  0
  161.1740  205.7320  145.7370 O   0  0  0  0  0  1  0  0  0  0  0  0
  161.1740  207.0120  146.2970 C   0  0  0  0  0  2  0  0  0  0  0  0
  162.0310  212.6920  148.2480 O   0  0  0  0  0  0  0  0  0  0  0  0
  159.3290  213.4650  145.9000 C   0  0  2  0  0  0  0  0  0  0  0  0
  158.9570  214.1450  147.1200 N   0  0  0  0  0  0  0  0  0  0  0  0
  157.1800  212.8140  146.6830 C   0  0  0  0  0  3  0  0  0  0  0  0
  161.2140  213.5140  147.4220 C   0  0  1  0  0  3  0  0  0  0  0  0
  160.6700  212.7840  146.1880 C   0  0  1  0  0  3  0  0  0  0  0  0
  160.0390  214.2610  148.0700 C   0  0  0  0  0  2  0  0  0  0  0  0
  159.4760  214.3950  144.8690 O   0  0  0  0  0  1  0  0  0  0  0  0
  158.1600  212.5270  145.5930 C   0  0  0  0  0  2  0  0  0  0  0  0
  160.5070  211.4200  146.4490 O   0  0  0  0  0  1  0  0  0  0  0  0
  157.6730  213.7040  147.5240 C   0  0  0  0  0  3  0  0  0  0  0  0
  1 30  1  6  0  0  0
  1  2  1  0  0  0  0
  1  7  1  0  0  0  0
  2  6  1  0  0  0  0
  3  5  1  0  0  0  0
  3  4  2  0  0  0  0
  5  7  1  6  0  0  0
  5 10  1  0  0  0  0
  6  3  1  0  0  0  0
 10  9  1  6  0  0  0
 10  8  1  0  0  0  0
 11  8  1  0  0  0  0
 12  9  1  0  0  0  0
 12 13  1  1  0  0  0
 12 11  1  0  0  0  0
 13 15  1  0  0  0  0
 15 16  1  0  0  0  0
 15 14  2  0  0  0  0
 16 23  1  6  0  0  0
 16 17  1  0  0  0  0
 18 22  1  0  0  0  0
 18 17  1  0  0  0  0
 20 22  2  0  0  0  0
 22 19  1  0  0  0  0
 22 21  1  0  0  0  0
 24 27  1  6  0  0  0
 24 26  1  0  0  0  0
 25 24  1  0  0  0  0
 25 26  1  0  0  0  0
 26 23  1  1  0  0  0
 28 29  1  0  0  0  0
 29 27  1  0  0  0  0
 31 42  1  6  0  0  0
 31 36  1  0  0  0  0
 32 31  1  0  0  0  0
 33 38  1  1  0  0  0
 33 34  1  0  0  0  0
 35 45  1  1  0  0  0
 35 39  1  0  0  0  0
 36 33  1  0  0  0  0
 36 30  1  1  0  0  0
 37 32  1  6  0  0  0
 37 35  1  0  0  0  0
 37 33  1  0  0  0  0
 39 34  1  0  0  0  0
 42 41  1  1  0  0  0
 42 40  1  0  0  0  0
 43 44  1  0  0  0  0
 44 42  1  0  0  0  0
 46 52  1  6  0  0  0
 46 50  1  0  0  0  0
 46 47  1  0  0  0  0
 47 55  1  0  0  0  0
 47 51  1  0  0  0  0
 48 55  2  0  0  0  0
 49 51  1  0  0  0  0
 49 45  1  1  0  0  0
 50 54  1  1  0  0  0
 50 49  1  0  0  0  0
 53 46  1  0  0  0  0
 53 48  1  0  0  0  0
M  END
>  <MODEL>
5

>  <REMARK>
 VINA RESULT:      -2.3      3.535      8.699
  Name = 
  16 active torsions:
  status: ('A' for Active; 'I' for Inactive)
    1  A    between atoms: N_2  and  C_46
    2  A    between atoms: C_5  and  C_15
    3  A    between atoms: C_5  and  C_18
    4  A    between atoms: C_5  and  C_25
    5  A    between atoms: C_7  and  C_40
    6  A    between atoms: C_11  and  C_17
    7  A    between atoms: C_14  and  C_19
    8  A    between atoms: C_14  and  C_37
    9  A    between atoms: C_15  and  C_52
   10  A    between atoms: C_17  and  C_44
   11  A    between atoms: C_18  and  O_33
   12  A    between atoms: C_22  and  O_51
   13  A    between atoms: C_29  and  O_51
   14  A    between atoms: O_33  and  P_48
   15  A    between atoms: C_35  and  C_41
   16  A    between atoms: C_40  and  C_55
                            x       y       z     vdW  Elec       q    Type
                         _______ _______ _______ _____ _____    ______ ____

>  <TORSDO>
F 16

$$$$
