=
 OpenBabel11072412233D

 27 28  0  0  1  0  0  0  0  0999 V2000
  162.1830  208.9770  149.0830 N   0  0  0  0  0  2  0  0  0  0  0  0
  161.9910  210.3590  150.9740 N   0  0  0  0  0  2  0  0  0  0  0  0
  162.0770  209.1620  150.4960 C   0  0  0  0  0  0  0  0  0  0  0  0
  162.1250  208.0010  151.4340 C   0  0  0  0  0  2  0  0  0  0  0  0
  160.8350  207.9190  152.2330 C   0  0  0  0  0  2  0  0  0  0  0  0
  161.4140  205.8700  153.4410 C   0  0  0  0  0  2  0  0  0  0  0  0
  161.0530  207.1520  153.4940 C   0  0  0  0  0  0  0  0  0  0  0  0
  161.0930  207.8860  154.7970 C   0  0  0  0  0  2  0  0  0  0  0  0
  161.9820  210.1550  155.2910 C   0  0  0  0  0  3  0  0  0  0  0  0
  160.9030  209.3850  154.5910 C   0  0  2  0  0  3  0  0  0  0  0  0
  161.4390  210.9160  156.2300 C   0  0  0  0  0  3  0  0  0  0  0  0
  159.6880  209.8190  155.2650 N   0  0  0  0  0  0  0  0  0  0  0  0
  160.0120  210.6650  156.1810 C   0  0  0  0  0  0  0  0  0  0  0  0
  159.0060  211.3480  157.0380 C   0  0  0  0  0  2  0  0  0  0  0  0
  157.8680  211.6360  156.2880 O   0  0  0  0  0  1  0  0  0  0  0  0
  162.3540  207.6600  148.4910 C   0  0  0  0  0  2  0  0  0  0  0  0
  161.0490  207.1600  147.9780 C   0  0  0  0  0  3  0  0  0  0  0  0
  160.3180  206.2080  148.5690 C   0  0  0  0  0  3  0  0  0  0  0  0
  160.6680  205.4900  149.7250 O   0  0  0  0  0  0  0  0  0  0  0  0
  161.2350  203.5650  148.3770 C   0  0  0  0  0  2  0  0  0  0  0  0
  160.6320  201.9600  150.0840 C   0  0  0  0  0  2  0  0  0  0  0  0
  160.7100  203.3150  150.7490 C   0  0  0  0  0  2  0  0  0  0  0  0
  160.4950  202.2620  148.6090 C   0  0  2  0  0  3  0  0  0  0  0  0
  161.3540  204.2420  149.7350 C   0  0  2  0  0  3  0  0  0  0  0  0
  161.0540  201.1610  147.7700 C   0  0  0  0  0  0  0  0  0  0  0  0
  161.6300  200.1740  148.3030 O   0  0  0  0  0  1  0  0  0  0  0  0
  160.9400  201.2260  146.3880 O   0  0  0  0  0  0  0  0  0  0  0  0
  1  3  1  0  0  0  0
  3  2  2  0  0  0  0
  3  4  1  0  0  0  0
  4  5  1  0  0  0  0
  5  7  1  0  0  0  0
  6  7  2  0  0  0  0
  7  8  1  0  0  0  0
  9 11  2  0  0  0  0
 10  8  1  1  0  0  0
 10 12  1  0  0  0  0
 10  9  1  0  0  0  0
 12 13  2  0  0  0  0
 13 11  1  0  0  0  0
 13 14  1  0  0  0  0
 15 14  1  0  0  0  0
 16  1  1  0  0  0  0
 17 16  1  0  0  0  0
 17 18  2  0  0  0  0
 18 19  1  0  0  0  0
 20 23  1  0  0  0  0
 20 24  1  0  0  0  0
 21 22  1  0  0  0  0
 23 25  1  6  0  0  0
 23 21  1  0  0  0  0
 24 19  1  6  0  0  0
 24 22  1  0  0  0  0
 25 26  1  0  0  0  0
 27 25  2  0  0  0  0
M  END
>  <MODEL>
1

>  <REMARK>
 VINA RESULT:      -7.4      0.000      0.000
  Name = 
  11 active torsions:
  status: ('A' for Active; 'I' for Inactive)
    1  A    between atoms: C_3  and  C_18
    2  A    between atoms: C_3  and  C_22
    3  A    between atoms: C_6  and  C_27
    4  A    between atoms: C_7  and  C_19
    5  A    between atoms: C_8  and  CA_12
    6  A    between atoms: N_11  and  C_19
    7  A    between atoms: C_14  and  C_15
    8  A    between atoms: C_16  and  O_24
    9  A    between atoms: C_18  and  C_25
   10  A    between atoms: C_23  and  O_24
   11  A    between atoms: C_25  and  C_27
                            x       y       z     vdW  Elec       q    Type
                         _______ _______ _______ _____ _____    ______ ____

>  <TORSDO>
F 11

$$$$
=
 OpenBabel11072412233D

 27 28  0  0  1  0  0  0  0  0999 V2000
  161.5010  206.8850  153.6090 N   0  0  0  0  0  2  0  0  0  0  0  0
  160.6320  208.9900  154.1900 N   0  0  0  0  0  2  0  0  0  0  0  0
  161.0390  208.1920  153.2600 C   0  0  0  0  0  0  0  0  0  0  0  0
  160.9630  208.6310  151.8350 C   0  0  0  0  0  2  0  0  0  0  0  0
  162.1410  209.5300  151.4990 C   0  0  0  0  0  2  0  0  0  0  0  0
  162.0700  208.9420  149.1240 C   0  0  0  0  0  2  0  0  0  0  0  0
  162.1200  209.8960  150.0530 C   0  0  0  0  0  0  0  0  0  0  0  0
  161.9200  211.3280  149.6660 C   0  0  0  0  0  2  0  0  0  0  0  0
  163.1520  212.5910  147.9150 C   0  0  0  0  0  3  0  0  0  0  0  0
  162.1270  211.5270  148.1690 C   0  0  2  0  0  3  0  0  0  0  0  0
  162.5870  213.6000  147.2710 C   0  0  0  0  0  3  0  0  0  0  0  0
  160.9160  212.0790  147.5790 N   0  0  0  0  0  0  0  0  0  0  0  0
  161.1940  213.2390  147.0920 C   0  0  0  0  0  0  0  0  0  0  0  0
  160.1940  214.0710  146.3730 C   0  0  0  0  0  2  0  0  0  0  0  0
  158.9130  213.7670  146.8310 O   0  0  0  0  0  1  0  0  0  0  0  0
  161.9040  205.9180  152.6010 C   0  0  0  0  0  2  0  0  0  0  0  0
  161.0980  204.6750  152.7370 C   0  0  0  0  0  3  0  0  0  0  0  0
  160.9620  203.7510  151.7780 C   0  0  0  0  0  3  0  0  0  0  0  0
  161.5020  203.8150  150.4830 O   0  0  0  0  0  0  0  0  0  0  0  0
  161.4890  203.5150  148.0830 C   0  0  0  0  0  2  0  0  0  0  0  0
  160.8560  205.8020  147.6150 C   0  0  0  0  0  2  0  0  0  0  0  0
  160.6200  205.5640  149.0890 C   0  0  0  0  0  2  0  0  0  0  0  0
  161.8030  204.7010  147.1930 C   0  0  2  0  0  3  0  0  0  0  0  0
  160.7540  204.0670  149.2970 C   0  0  2  0  0  3  0  0  0  0  0  0
  161.6370  204.3580  145.7490 C   0  0  0  0  0  0  0  0  0  0  0  0
  161.2030  203.2260  145.4030 O   0  0  0  0  0  1  0  0  0  0  0  0
  161.9640  205.2950  144.7800 O   0  0  0  0  0  0  0  0  0  0  0  0
  3  1  1  0  0  0  0
  3  2  2  0  0  0  0
  4  3  1  0  0  0  0
  5  4  1  0  0  0  0
  6  7  2  0  0  0  0
  7  5  1  0  0  0  0
  8  7  1  0  0  0  0
  9 10  1  0  0  0  0
 10  8  1  1  0  0  0
 11  9  2  0  0  0  0
 12 10  1  0  0  0  0
 13 11  1  0  0  0  0
 13 12  2  0  0  0  0
 14 15  1  0  0  0  0
 14 13  1  0  0  0  0
 16 17  1  0  0  0  0
 16  1  1  0  0  0  0
 18 17  2  0  0  0  0
 19 18  1  0  0  0  0
 20 24  1  0  0  0  0
 21 22  1  0  0  0  0
 22 24  1  0  0  0  0
 23 25  1  6  0  0  0
 23 21  1  0  0  0  0
 23 20  1  0  0  0  0
 24 19  1  1  0  0  0
 26 25  1  0  0  0  0
 27 25  2  0  0  0  0
M  END
>  <MODEL>
2

>  <REMARK>
 VINA RESULT:      -7.0      3.353      5.700
  Name = 
  11 active torsions:
  status: ('A' for Active; 'I' for Inactive)
    1  A    between atoms: C_3  and  C_18
    2  A    between atoms: C_3  and  C_22
    3  A    between atoms: C_6  and  C_27
    4  A    between atoms: C_7  and  C_19
    5  A    between atoms: C_8  and  CA_12
    6  A    between atoms: N_11  and  C_19
    7  A    between atoms: C_14  and  C_15
    8  A    between atoms: C_16  and  O_24
    9  A    between atoms: C_18  and  C_25
   10  A    between atoms: C_23  and  O_24
   11  A    between atoms: C_25  and  C_27
                            x       y       z     vdW  Elec       q    Type
                         _______ _______ _______ _____ _____    ______ ____

>  <TORSDO>
F 11

$$$$
=
 OpenBabel11072412233D

 27 28  0  0  1  0  0  0  0  0999 V2000
  160.9110  204.3320  152.3680 N   0  0  0  0  0  2  0  0  0  0  0  0
  161.3130  206.1080  153.8540 N   0  0  0  0  0  2  0  0  0  0  0  0
  161.4930  205.6000  152.6810 C   0  0  0  0  0  0  0  0  0  0  0  0
  162.2550  206.3740  151.6570 C   0  0  0  0  0  2  0  0  0  0  0  0
  161.2990  207.1640  150.7780 C   0  0  0  0  0  2  0  0  0  0  0  0
  161.9970  208.8390  149.1340 C   0  0  0  0  0  2  0  0  0  0  0  0
  161.8970  208.4820  150.4150 C   0  0  0  0  0  0  0  0  0  0  0  0
  162.1650  209.4840  151.4930 C   0  0  0  0  0  2  0  0  0  0  0  0
  160.3950  211.0330  152.2990 C   0  0  0  0  0  3  0  0  0  0  0  0
  160.9540  209.6460  152.4060 C   0  0  2  0  0  3  0  0  0  0  0  0
  160.4950  211.6390  153.4730 C   0  0  0  0  0  3  0  0  0  0  0  0
  161.3780  209.5610  153.7960 N   0  0  0  0  0  0  0  0  0  0  0  0
  161.1210  210.6860  154.3690 C   0  0  0  0  0  0  0  0  0  0  0  0
  161.3850  210.9340  155.8110 C   0  0  0  0  0  2  0  0  0  0  0  0
  160.6850  212.0640  156.2290 O   0  0  0  0  0  1  0  0  0  0  0  0
  161.0190  203.7420  151.0430 C   0  0  0  0  0  2  0  0  0  0  0  0
  160.9980  202.2580  151.1440 C   0  0  0  0  0  3  0  0  0  0  0  0
  160.7160  201.4340  150.1280 C   0  0  0  0  0  3  0  0  0  0  0  0
  160.3470  201.8160  148.8270 O   0  0  0  0  0  0  0  0  0  0  0  0
  161.6940  203.4590  147.6740 C   0  0  0  0  0  2  0  0  0  0  0  0
  160.9680  202.7800  145.4700 C   0  0  0  0  0  2  0  0  0  0  0  0
  160.5470  201.6950  146.4350 C   0  0  0  0  0  2  0  0  0  0  0  0
  161.2170  203.9920  146.3370 C   0  0  2  0  0  3  0  0  0  0  0  0
  161.2500  202.0050  147.7430 C   0  0  2  0  0  3  0  0  0  0  0  0
  162.2270  204.9060  145.7240 C   0  0  0  0  0  0  0  0  0  0  0  0
  161.8880  205.7460  144.8470 O   0  0  0  0  0  0  0  0  0  0  0  0
  163.5540  204.8280  146.1230 O   0  0  0  0  0  1  0  0  0  0  0  0
  1  3  1  0  0  0  0
  3  2  2  0  0  0  0
  4  3  1  0  0  0  0
  5  4  1  0  0  0  0
  6  7  2  0  0  0  0
  7  5  1  0  0  0  0
  7  8  1  0  0  0  0
  9 10  1  0  0  0  0
  9 11  2  0  0  0  0
 10  8  1  6  0  0  0
 10 12  1  0  0  0  0
 11 13  1  0  0  0  0
 12 13  2  0  0  0  0
 13 14  1  0  0  0  0
 14 15  1  0  0  0  0
 16 17  1  0  0  0  0
 16  1  1  0  0  0  0
 18 17  2  0  0  0  0
 19 18  1  0  0  0  0
 20 24  1  0  0  0  0
 21 23  1  0  0  0  0
 21 22  1  0  0  0  0
 22 24  1  0  0  0  0
 23 25  1  6  0  0  0
 23 20  1  0  0  0  0
 24 19  1  1  0  0  0
 25 27  1  0  0  0  0
 26 25  2  0  0  0  0
M  END
>  <MODEL>
3

>  <REMARK>
 VINA RESULT:      -7.0      2.510      3.997
  Name = 
  11 active torsions:
  status: ('A' for Active; 'I' for Inactive)
    1  A    between atoms: C_3  and  C_18
    2  A    between atoms: C_3  and  C_22
    3  A    between atoms: C_6  and  C_27
    4  A    between atoms: C_7  and  C_19
    5  A    between atoms: C_8  and  CA_12
    6  A    between atoms: N_11  and  C_19
    7  A    between atoms: C_14  and  C_15
    8  A    between atoms: C_16  and  O_24
    9  A    between atoms: C_18  and  C_25
   10  A    between atoms: C_23  and  O_24
   11  A    between atoms: C_25  and  C_27
                            x       y       z     vdW  Elec       q    Type
                         _______ _______ _______ _____ _____    ______ ____

>  <TORSDO>
F 11

$$$$
=
 OpenBabel11072412233D

 27 28  0  0  1  0  0  0  0  0999 V2000
  160.8940  207.3550  152.3030 N   0  0  0  0  0  2  0  0  0  0  0  0
  161.2790  205.7040  153.9310 N   0  0  0  0  0  2  0  0  0  0  0  0
  161.3410  206.0530  152.6890 C   0  0  0  0  0  0  0  0  0  0  0  0
  161.9330  205.1110  151.6930 C   0  0  0  0  0  2  0  0  0  0  0  0
  161.0930  203.8480  151.6030 C   0  0  0  0  0  2  0  0  0  0  0  0
  160.7700  202.1530  149.8660 C   0  0  0  0  0  2  0  0  0  0  0  0
  160.9200  203.4400  150.1780 C   0  0  0  0  0  0  0  0  0  0  0  0
  160.6840  204.4930  149.1420 C   0  0  0  0  0  2  0  0  0  0  0  0
  162.1590  205.9300  147.7490 C   0  0  0  0  0  3  0  0  0  0  0  0
  161.8120  204.5190  148.1170 C   0  0  2  0  0  3  0  0  0  0  0  0
  161.9140  206.1210  146.4610 C   0  0  0  0  0  3  0  0  0  0  0  0
  161.3440  203.9500  146.8620 N   0  0  0  0  0  0  0  0  0  0  0  0
  161.4010  204.8630  145.9550 C   0  0  0  0  0  0  0  0  0  0  0  0
  161.0360  204.6120  144.5350 C   0  0  0  0  0  2  0  0  0  0  0  0
  161.3780  205.7190  143.7600 O   0  0  0  0  0  1  0  0  0  0  0  0
  161.0050  207.8300  150.9330 C   0  0  0  0  0  2  0  0  0  0  0  0
  162.1520  208.7700  150.8120 C   0  0  0  0  0  3  0  0  0  0  0  0
  162.1340  210.0440  151.2220 C   0  0  0  0  0  3  0  0  0  0  0  0
  161.0370  210.7200  151.7800 O   0  0  0  0  0  0  0  0  0  0  0  0
  162.0270  210.4580  153.9700 C   0  0  0  0  0  2  0  0  0  0  0  0
  159.9150  210.0640  155.0820 C   0  0  0  0  0  2  0  0  0  0  0  0
  159.6040  210.6110  153.7070 C   0  0  0  0  0  2  0  0  0  0  0  0
  161.3390  209.5660  154.9850 C   0  0  2  0  0  3  0  0  0  0  0  0
  160.9240  211.1070  153.1460 C   0  0  2  0  0  3  0  0  0  0  0  0
  162.0280  209.6150  156.3090 C   0  0  0  0  0  0  0  0  0  0  0  0
  162.1740  208.5700  156.9990 O   0  0  0  0  0  1  0  0  0  0  0  0
  162.5120  210.8260  156.7850 O   0  0  0  0  0  0  0  0  0  0  0  0
  1  3  1  0  0  0  0
  3  2  2  0  0  0  0
  4  3  1  0  0  0  0
  5  4  1  0  0  0  0
  6  7  2  0  0  0  0
  7  5  1  0  0  0  0
  8  7  1  0  0  0  0
  9 10  1  0  0  0  0
 10  8  1  1  0  0  0
 11  9  2  0  0  0  0
 12 10  1  0  0  0  0
 13 11  1  0  0  0  0
 13 12  2  0  0  0  0
 14 13  1  0  0  0  0
 15 14  1  0  0  0  0
 16  1  1  0  0  0  0
 17 16  1  0  0  0  0
 17 18  2  0  0  0  0
 18 19  1  0  0  0  0
 20 23  1  0  0  0  0
 22 21  1  0  0  0  0
 23 21  1  0  0  0  0
 23 25  1  1  0  0  0
 24 19  1  6  0  0  0
 24 22  1  0  0  0  0
 24 20  1  0  0  0  0
 25 27  2  0  0  0  0
 25 26  1  0  0  0  0
M  END
>  <MODEL>
4

>  <REMARK>
 VINA RESULT:      -6.9      2.916      8.730
  Name = 
  11 active torsions:
  status: ('A' for Active; 'I' for Inactive)
    1  A    between atoms: C_3  and  C_18
    2  A    between atoms: C_3  and  C_22
    3  A    between atoms: C_6  and  C_27
    4  A    between atoms: C_7  and  C_19
    5  A    between atoms: C_8  and  CA_12
    6  A    between atoms: N_11  and  C_19
    7  A    between atoms: C_14  and  C_15
    8  A    between atoms: C_16  and  O_24
    9  A    between atoms: C_18  and  C_25
   10  A    between atoms: C_23  and  O_24
   11  A    between atoms: C_25  and  C_27
                            x       y       z     vdW  Elec       q    Type
                         _______ _______ _______ _____ _____    ______ ____

>  <TORSDO>
F 11

$$$$
=
 OpenBabel11072412233D

 27 28  0  0  1  0  0  0  0  0999 V2000
  160.7280  208.7160  153.3070 N   0  0  0  0  0  2  0  0  0  0  0  0
  161.1980  206.7330  154.4790 N   0  0  0  0  0  2  0  0  0  0  0  0
  160.9910  207.3110  153.3430 C   0  0  0  0  0  0  0  0  0  0  0  0
  161.0900  206.5110  152.0860 C   0  0  0  0  0  2  0  0  0  0  0  0
  161.9850  205.3020  152.3030 C   0  0  0  0  0  2  0  0  0  0  0  0
  160.4710  203.3840  152.4440 C   0  0  0  0  0  2  0  0  0  0  0  0
  161.3550  204.0790  151.7280 C   0  0  0  0  0  0  0  0  0  0  0  0
  161.5420  203.7760  150.2750 C   0  0  0  0  0  2  0  0  0  0  0  0
  161.0340  201.3500  150.0820 C   0  0  0  0  0  3  0  0  0  0  0  0
  160.5370  202.7350  149.7950 C   0  0  2  0  0  3  0  0  0  0  0  0
  161.2080  200.7010  148.9410 C   0  0  0  0  0  3  0  0  0  0  0  0
  160.4560  202.7690  148.3420 N   0  0  0  0  0  0  0  0  0  0  0  0
  160.8430  201.6270  147.8870 C   0  0  0  0  0  0  0  0  0  0  0  0
  160.8450  201.2970  146.4370 C   0  0  0  0  0  2  0  0  0  0  0  0
  161.1280  202.4440  145.6950 O   0  0  0  0  0  1  0  0  0  0  0  0
  160.5580  209.4340  152.0550 C   0  0  0  0  0  2  0  0  0  0  0  0
  161.8750  209.9230  151.5660 C   0  0  0  0  0  3  0  0  0  0  0  0
  162.3370  209.7380  150.3230 C   0  0  0  0  0  3  0  0  0  0  0  0
  161.6970  209.0220  149.2980 O   0  0  0  0  0  0  0  0  0  0  0  0
  162.5070  207.4070  147.6900 C   0  0  0  0  0  2  0  0  0  0  0  0
  160.5460  206.0000  147.8380 C   0  0  0  0  0  2  0  0  0  0  0  0
  160.5000  206.9580  149.0070 C   0  0  0  0  0  2  0  0  0  0  0  0
  161.5030  206.6350  146.8560 C   0  0  2  0  0  3  0  0  0  0  0  0
  161.8600  207.6290  149.0500 C   0  0  2  0  0  3  0  0  0  0  0  0
  162.1770  205.6080  146.0070 C   0  0  0  0  0  0  0  0  0  0  0  0
  161.8350  205.4410  144.8050 O   0  0  0  0  0  0  0  0  0  0  0  0
  163.1900  204.8290  146.5470 O   0  0  0  0  0  1  0  0  0  0  0  0
  1  3  1  0  0  0  0
  3  2  2  0  0  0  0
  4  5  1  0  0  0  0
  4  3  1  0  0  0  0
  7  5  1  0  0  0  0
  7  6  2  0  0  0  0
  8  7  1  0  0  0  0
 10  9  1  0  0  0  0
 10  8  1  6  0  0  0
 11  9  2  0  0  0  0
 12 10  1  0  0  0  0
 13 12  2  0  0  0  0
 13 11  1  0  0  0  0
 14 13  1  0  0  0  0
 15 14  1  0  0  0  0
 16  1  1  0  0  0  0
 17 16  1  0  0  0  0
 18 17  2  0  0  0  0
 19 18  1  0  0  0  0
 20 24  1  0  0  0  0
 21 22  1  0  0  0  0
 22 24  1  0  0  0  0
 23 25  1  1  0  0  0
 23 20  1  0  0  0  0
 23 21  1  0  0  0  0
 24 19  1  6  0  0  0
 25 27  1  0  0  0  0
 26 25  2  0  0  0  0
M  END
>  <MODEL>
5

>  <REMARK>
 VINA RESULT:      -6.8      2.997      7.146
  Name = 
  11 active torsions:
  status: ('A' for Active; 'I' for Inactive)
    1  A    between atoms: C_3  and  C_18
    2  A    between atoms: C_3  and  C_22
    3  A    between atoms: C_6  and  C_27
    4  A    between atoms: C_7  and  C_19
    5  A    between atoms: C_8  and  CA_12
    6  A    between atoms: N_11  and  C_19
    7  A    between atoms: C_14  and  C_15
    8  A    between atoms: C_16  and  O_24
    9  A    between atoms: C_18  and  C_25
   10  A    between atoms: C_23  and  O_24
   11  A    between atoms: C_25  and  C_27
                            x       y       z     vdW  Elec       q    Type
                         _______ _______ _______ _____ _____    ______ ____

>  <TORSDO>
F 11

$$$$
=
 OpenBabel11072412233D

 27 28  0  0  1  0  0  0  0  0999 V2000
  161.2170  205.1710  153.1720 N   0  0  0  0  0  2  0  0  0  0  0  0
  161.0220  203.7410  151.3170 N   0  0  0  0  0  2  0  0  0  0  0  0
  161.3360  204.9080  151.7720 C   0  0  0  0  0  0  0  0  0  0  0  0
  161.8720  205.9400  150.8350 C   0  0  0  0  0  2  0  0  0  0  0  0
  160.7380  206.5710  150.0450 C   0  0  0  0  0  2  0  0  0  0  0  0
  162.1660  208.1800  148.8760 C   0  0  0  0  0  2  0  0  0  0  0  0
  161.2620  207.2030  148.7990 C   0  0  0  0  0  0  0  0  0  0  0  0
  160.9460  206.5800  147.4760 C   0  0  0  0  0  2  0  0  0  0  0  0
  162.1350  205.4540  145.6060 C   0  0  0  0  0  3  0  0  0  0  0  0
  161.9890  205.5360  147.0960 C   0  0  2  0  0  3  0  0  0  0  0  0
  161.7810  204.2460  145.1950 C   0  0  0  0  0  3  0  0  0  0  0  0
  161.5070  204.2110  147.4590 N   0  0  0  0  0  0  0  0  0  0  0  0
  161.3900  203.5120  146.3830 C   0  0  0  0  0  0  0  0  0  0  0  0
  160.9610  202.0880  146.3900 C   0  0  0  0  0  2  0  0  0  0  0  0
  160.4180  201.7550  145.1500 O   0  0  0  0  0  1  0  0  0  0  0  0
  161.6210  206.4400  153.7530 C   0  0  0  0  0  2  0  0  0  0  0  0
  160.5550  206.9480  154.6580 C   0  0  0  0  0  3  0  0  0  0  0  0
  160.5610  208.1580  155.2320 C   0  0  0  0  0  3  0  0  0  0  0  0
  161.5770  209.1210  155.1260 O   0  0  0  0  0  0  0  0  0  0  0  0
  160.0870  210.8580  154.3450 C   0  0  0  0  0  2  0  0  0  0  0  0
  160.8320  210.7220  152.0480 C   0  0  0  0  0  2  0  0  0  0  0  0
  161.8350  209.9680  152.8910 C   0  0  0  0  0  2  0  0  0  0  0  0
  159.5950  210.8140  152.9120 C   0  0  2  0  0  3  0  0  0  0  0  0
  161.5050  210.3020  154.3330 C   0  0  2  0  0  3  0  0  0  0  0  0
  158.7820  212.0210  152.5780 C   0  0  0  0  0  0  0  0  0  0  0  0
  157.9040  212.4480  153.3760 O   0  0  0  0  0  1  0  0  0  0  0  0
  158.9950  212.6790  151.3750 O   0  0  0  0  0  0  0  0  0  0  0  0
  1 16  1  0  0  0  0
  2  3  2  0  0  0  0
  3  1  1  0  0  0  0
  4  3  1  0  0  0  0
  5  4  1  0  0  0  0
  7  6  2  0  0  0  0
  7  5  1  0  0  0  0
  8  7  1  0  0  0  0
  9 10  1  0  0  0  0
 10 12  1  0  0  0  0
 10  8  1  6  0  0  0
 11  9  2  0  0  0  0
 11 13  1  0  0  0  0
 13 14  1  0  0  0  0
 13 12  2  0  0  0  0
 15 14  1  0  0  0  0
 16 17  1  0  0  0  0
 17 18  2  0  0  0  0
 19 18  1  0  0  0  0
 21 22  1  0  0  0  0
 21 23  1  0  0  0  0
 22 24  1  0  0  0  0
 23 25  1  6  0  0  0
 23 20  1  0  0  0  0
 24 20  1  0  0  0  0
 24 19  1  1  0  0  0
 25 26  1  0  0  0  0
 27 25  2  0  0  0  0
M  END
>  <MODEL>
6

>  <REMARK>
 VINA RESULT:      -6.8      2.918      9.183
  Name = 
  11 active torsions:
  status: ('A' for Active; 'I' for Inactive)
    1  A    between atoms: C_3  and  C_18
    2  A    between atoms: C_3  and  C_22
    3  A    between atoms: C_6  and  C_27
    4  A    between atoms: C_7  and  C_19
    5  A    between atoms: C_8  and  CA_12
    6  A    between atoms: N_11  and  C_19
    7  A    between atoms: C_14  and  C_15
    8  A    between atoms: C_16  and  O_24
    9  A    between atoms: C_18  and  C_25
   10  A    between atoms: C_23  and  O_24
   11  A    between atoms: C_25  and  C_27
                            x       y       z     vdW  Elec       q    Type
                         _______ _______ _______ _____ _____    ______ ____

>  <TORSDO>
F 11

$$$$
=
 OpenBabel11072412233D

 27 28  0  0  1  0  0  0  0  0999 V2000
  160.7320  201.8870  150.6090 N   0  0  0  0  0  2  0  0  0  0  0  0
  160.0790  201.6530  148.3640 N   0  0  0  0  0  2  0  0  0  0  0  0
  160.7750  202.2970  149.2400 C   0  0  0  0  0  0  0  0  0  0  0  0
  161.6570  203.4160  148.7950 C   0  0  0  0  0  2  0  0  0  0  0  0
  160.8290  204.6600  148.5220 C   0  0  0  0  0  2  0  0  0  0  0  0
  161.1300  206.7990  147.3700 C   0  0  0  0  0  2  0  0  0  0  0  0
  161.5150  205.5320  147.5250 C   0  0  0  0  0  0  0  0  0  0  0  0
  162.7730  205.0480  146.8760 C   0  0  0  0  0  2  0  0  0  0  0  0
  161.4790  205.3770  144.7790 C   0  0  0  0  0  3  0  0  0  0  0  0
  162.5020  204.5270  145.4700 C   0  0  2  0  0  3  0  0  0  0  0  0
  160.4080  204.6450  144.5120 C   0  0  0  0  0  3  0  0  0  0  0  0
  161.8590  203.2240  145.5490 N   0  0  0  0  0  0  0  0  0  0  0  0
  160.6890  203.3150  145.0170 C   0  0  0  0  0  0  0  0  0  0  0  0
  159.7690  202.1540  144.8880 C   0  0  0  0  0  2  0  0  0  0  0  0
  160.4650  200.9740  145.1470 O   0  0  0  0  0  1  0  0  0  0  0  0
  161.5470  202.5270  151.6290 C   0  0  0  0  0  2  0  0  0  0  0  0
  160.7470  203.5530  152.3510 C   0  0  0  0  0  3  0  0  0  0  0  0
  161.0000  204.8670  152.3250 C   0  0  0  0  0  3  0  0  0  0  0  0
  162.0730  205.4920  151.6680 O   0  0  0  0  0  0  0  0  0  0  0  0
  161.5050  207.5500  152.8030 C   0  0  0  0  0  2  0  0  0  0  0  0
  161.7350  208.9220  150.8260 C   0  0  0  0  0  2  0  0  0  0  0  0
  162.3660  207.5830  150.5180 C   0  0  0  0  0  2  0  0  0  0  0  0
  160.8420  208.6640  152.0170 C   0  0  2  0  0  3  0  0  0  0  0  0
  162.4590  206.8510  151.8440 C   0  0  2  0  0  3  0  0  0  0  0  0
  160.6710  209.8910  152.8510 C   0  0  0  0  0  0  0  0  0  0  0  0
  159.5320  210.4110  153.0060 O   0  0  0  0  0  0  0  0  0  0  0  0
  161.7770  210.4660  153.4590 O   0  0  0  0  0  1  0  0  0  0  0  0
  1 16  1  0  0  0  0
  2  3  2  0  0  0  0
  3  1  1  0  0  0  0
  4  3  1  0  0  0  0
  5  4  1  0  0  0  0
  6  7  2  0  0  0  0
  7  5  1  0  0  0  0
  8  7  1  0  0  0  0
  9 10  1  0  0  0  0
 10 12  1  0  0  0  0
 10  8  1  1  0  0  0
 11  9  2  0  0  0  0
 11 13  1  0  0  0  0
 13 12  2  0  0  0  0
 14 13  1  0  0  0  0
 14 15  1  0  0  0  0
 16 17  1  0  0  0  0
 18 17  2  0  0  0  0
 19 18  1  0  0  0  0
 21 23  1  0  0  0  0
 22 21  1  0  0  0  0
 22 24  1  0  0  0  0
 23 20  1  0  0  0  0
 23 25  1  1  0  0  0
 24 19  1  6  0  0  0
 24 20  1  0  0  0  0
 25 26  2  0  0  0  0
 25 27  1  0  0  0  0
M  END
>  <MODEL>
7

>  <REMARK>
 VINA RESULT:      -6.7      3.459      9.121
  Name = 
  11 active torsions:
  status: ('A' for Active; 'I' for Inactive)
    1  A    between atoms: C_3  and  C_18
    2  A    between atoms: C_3  and  C_22
    3  A    between atoms: C_6  and  C_27
    4  A    between atoms: C_7  and  C_19
    5  A    between atoms: C_8  and  CA_12
    6  A    between atoms: N_11  and  C_19
    7  A    between atoms: C_14  and  C_15
    8  A    between atoms: C_16  and  O_24
    9  A    between atoms: C_18  and  C_25
   10  A    between atoms: C_23  and  O_24
   11  A    between atoms: C_25  and  C_27
                            x       y       z     vdW  Elec       q    Type
                         _______ _______ _______ _____ _____    ______ ____

>  <TORSDO>
F 11

$$$$
=
 OpenBabel11072412233D

 27 28  0  0  1  0  0  0  0  0999 V2000
  161.3630  204.2830  152.2520 N   0  0  0  0  0  2  0  0  0  0  0  0
  161.6300  206.1140  153.7020 N   0  0  0  0  0  2  0  0  0  0  0  0
  161.3350  205.6870  152.5200 C   0  0  0  0  0  0  0  0  0  0  0  0
  160.9120  206.6650  151.4730 C   0  0  0  0  0  2  0  0  0  0  0  0
  162.0500  207.6230  151.1600 C   0  0  0  0  0  2  0  0  0  0  0  0
  162.3260  210.0520  151.0330 C   0  0  0  0  0  2  0  0  0  0  0  0
  161.6860  209.0110  151.5670 C   0  0  0  0  0  0  0  0  0  0  0  0
  160.4560  209.2320  152.3900 C   0  0  0  0  0  2  0  0  0  0  0  0
  160.8100  209.4840  154.8380 C   0  0  0  0  0  3  0  0  0  0  0  0
  160.7240  210.2090  153.5290 C   0  0  2  0  0  3  0  0  0  0  0  0
  159.8350  209.8970  155.6340 C   0  0  0  0  0  3  0  0  0  0  0  0
  159.5730  211.0820  153.7030 N   0  0  0  0  0  0  0  0  0  0  0  0
  159.0870  210.8850  154.8800 C   0  0  0  0  0  0  0  0  0  0  0  0
  157.9250  211.6470  155.4100 C   0  0  0  0  0  2  0  0  0  0  0  0
  156.7610  211.2400  154.7600 O   0  0  0  0  0  1  0  0  0  0  0  0
  160.9730  203.7380  150.9620 C   0  0  0  0  0  2  0  0  0  0  0  0
  161.0270  202.2520  151.0010 C   0  0  0  0  0  3  0  0  0  0  0  0
  160.7660  201.4570  149.9560 C   0  0  0  0  0  3  0  0  0  0  0  0
  160.3520  201.8740  148.6800 O   0  0  0  0  0  0  0  0  0  0  0  0
  161.5680  203.5290  147.4030 C   0  0  0  0  0  2  0  0  0  0  0  0
  160.8240  202.6910  145.2590 C   0  0  0  0  0  2  0  0  0  0  0  0
  160.4960  201.6370  146.2910 C   0  0  0  0  0  2  0  0  0  0  0  0
  161.0250  203.9610  146.0550 C   0  0  2  0  0  3  0  0  0  0  0  0
  161.2140  202.0570  147.5610 C   0  0  2  0  0  3  0  0  0  0  0  0
  161.9610  204.8980  145.3660 C   0  0  0  0  0  0  0  0  0  0  0  0
  163.0740  205.1920  145.8810 O   0  0  0  0  0  1  0  0  0  0  0  0
  161.6020  205.4510  144.1450 O   0  0  0  0  0  0  0  0  0  0  0  0
  1  3  1  0  0  0  0
  3  2  2  0  0  0  0
  4  3  1  0  0  0  0
  5  4  1  0  0  0  0
  5  7  1  0  0  0  0
  6  7  2  0  0  0  0
  7  8  1  0  0  0  0
  9 11  2  0  0  0  0
 10  8  1  6  0  0  0
 10 12  1  0  0  0  0
 10  9  1  0  0  0  0
 12 13  2  0  0  0  0
 13 14  1  0  0  0  0
 13 11  1  0  0  0  0
 15 14  1  0  0  0  0
 16 17  1  0  0  0  0
 16  1  1  0  0  0  0
 18 17  2  0  0  0  0
 19 18  1  0  0  0  0
 20 24  1  0  0  0  0
 21 23  1  0  0  0  0
 21 22  1  0  0  0  0
 22 24  1  0  0  0  0
 23 25  1  6  0  0  0
 23 20  1  0  0  0  0
 24 19  1  1  0  0  0
 25 26  1  0  0  0  0
 27 25  2  0  0  0  0
M  END
>  <MODEL>
8

>  <REMARK>
 VINA RESULT:      -6.6      2.418      3.763
  Name = 
  11 active torsions:
  status: ('A' for Active; 'I' for Inactive)
    1  A    between atoms: C_3  and  C_18
    2  A    between atoms: C_3  and  C_22
    3  A    between atoms: C_6  and  C_27
    4  A    between atoms: C_7  and  C_19
    5  A    between atoms: C_8  and  CA_12
    6  A    between atoms: N_11  and  C_19
    7  A    between atoms: C_14  and  C_15
    8  A    between atoms: C_16  and  O_24
    9  A    between atoms: C_18  and  C_25
   10  A    between atoms: C_23  and  O_24
   11  A    between atoms: C_25  and  C_27
                            x       y       z     vdW  Elec       q    Type
                         _______ _______ _______ _____ _____    ______ ____

>  <TORSDO>
F 11

$$$$
=
 OpenBabel11072412233D

 27 28  0  0  1  0  0  0  0  0999 V2000
  161.8140  206.1420  151.0180 N   0  0  0  0  0  2  0  0  0  0  0  0
  160.7900  204.4470  152.2840 N   0  0  0  0  0  2  0  0  0  0  0  0
  161.4770  205.5400  152.2700 C   0  0  0  0  0  0  0  0  0  0  0  0
  161.8540  206.1840  153.5630 C   0  0  0  0  0  2  0  0  0  0  0  0
  160.6320  206.8110  154.2120 C   0  0  0  0  0  2  0  0  0  0  0  0
  161.4820  208.4980  155.7700 C   0  0  0  0  0  2  0  0  0  0  0  0
  160.9150  208.2250  154.5940 C   0  0  0  0  0  0  0  0  0  0  0  0
  160.7740  209.3010  153.5640 C   0  0  0  0  0  2  0  0  0  0  0  0
  159.0230  210.7110  154.6260 C   0  0  0  0  0  3  0  0  0  0  0  0
  160.4620  210.6460  154.2120 C   0  0  2  0  0  3  0  0  0  0  0  0
  158.4150  211.6750  153.9520 C   0  0  0  0  0  3  0  0  0  0  0  0
  160.5740  211.7030  153.2170 N   0  0  0  0  0  0  0  0  0  0  0  0
  159.4180  212.2570  153.0820 C   0  0  0  0  0  0  0  0  0  0  0  0
  159.1790  213.4100  152.1730 C   0  0  0  0  0  2  0  0  0  0  0  0
  157.9290  213.2820  151.5710 O   0  0  0  0  0  1  0  0  0  0  0  0
  162.5230  207.4080  150.9390 C   0  0  0  0  0  2  0  0  0  0  0  0
  161.7900  208.3480  150.0480 C   0  0  0  0  0  3  0  0  0  0  0  0
  161.6570  208.1900  148.7260 C   0  0  0  0  0  3  0  0  0  0  0  0
  162.2180  207.1590  147.9530 O   0  0  0  0  0  0  0  0  0  0  0  0
  161.2090  204.9650  148.0690 C   0  0  0  0  0  2  0  0  0  0  0  0
  162.1090  204.2350  145.9460 C   0  0  0  0  0  2  0  0  0  0  0  0
  162.2880  205.7340  146.0180 C   0  0  0  0  0  2  0  0  0  0  0  0
  161.8960  203.8030  147.3790 C   0  0  2  0  0  3  0  0  0  0  0  0
  161.4750  206.1960  147.2130 C   0  0  2  0  0  3  0  0  0  0  0  0
  161.0740  202.5590  147.4600 C   0  0  0  0  0  0  0  0  0  0  0  0
  160.8520  201.8660  146.4310 O   0  0  0  0  0  0  0  0  0  0  0  0
  160.5480  202.1630  148.6820 O   0  0  0  0  0  1  0  0  0  0  0  0
  1  3  1  0  0  0  0
  3  2  2  0  0  0  0
  3  4  1  0  0  0  0
  4  5  1  0  0  0  0
  5  7  1  0  0  0  0
  7  6  2  0  0  0  0
  8  7  1  0  0  0  0
 10  8  1  6  0  0  0
 10  9  1  0  0  0  0
 11  9  2  0  0  0  0
 12 10  1  0  0  0  0
 13 12  2  0  0  0  0
 13 11  1  0  0  0  0
 14 13  1  0  0  0  0
 15 14  1  0  0  0  0
 16  1  1  0  0  0  0
 17 16  1  0  0  0  0
 18 17  2  0  0  0  0
 19 18  1  0  0  0  0
 21 22  1  0  0  0  0
 21 23  1  0  0  0  0
 22 24  1  0  0  0  0
 23 25  1  6  0  0  0
 23 20  1  0  0  0  0
 24 19  1  1  0  0  0
 24 20  1  0  0  0  0
 25 27  1  0  0  0  0
 26 25  2  0  0  0  0
M  END
>  <MODEL>
9

>  <REMARK>
 VINA RESULT:      -6.6      2.525      3.407
  Name = 
  11 active torsions:
  status: ('A' for Active; 'I' for Inactive)
    1  A    between atoms: C_3  and  C_18
    2  A    between atoms: C_3  and  C_22
    3  A    between atoms: C_6  and  C_27
    4  A    between atoms: C_7  and  C_19
    5  A    between atoms: C_8  and  CA_12
    6  A    between atoms: N_11  and  C_19
    7  A    between atoms: C_14  and  C_15
    8  A    between atoms: C_16  and  O_24
    9  A    between atoms: C_18  and  C_25
   10  A    between atoms: C_23  and  O_24
   11  A    between atoms: C_25  and  C_27
                            x       y       z     vdW  Elec       q    Type
                         _______ _______ _______ _____ _____    ______ ____

>  <TORSDO>
F 11

$$$$
