=
 OpenBabel11072412053D

 50 56  0  0  1  0  0  0  0  0999 V2000
  159.8740  212.5090  151.5730 N   0  0  0  0  0  0  0  0  0  0  0  0
  160.1540  213.0580  150.2770 C   0  0  0  0  0  3  0  0  0  0  0  0
  159.1850  213.5970  149.5350 C   0  0  0  0  0  0  0  0  0  0  0  0
  157.7570  213.4790  150.0090 C   0  0  0  0  0  2  0  0  0  0  0  0
  157.6660  213.5300  151.5320 C   0  0  0  0  0  2  0  0  0  0  0  0
  158.7280  212.6780  152.1730 C   0  0  0  0  0  0  0  0  0  0  0  0
  158.5350  212.2280  153.4810 O   0  0  0  0  0  0  0  0  0  0  0  0
  158.8230  213.0470  154.6100 C   0  0  0  0  0  2  0  0  0  0  0  0
  157.6740  212.9540  155.6110 C   0  0  0  0  0  2  0  0  0  0  0  0
  157.6870  211.6520  156.4100 C   0  0  0  0  0  2  0  0  0  0  0  0
  159.0270  210.9950  156.4430 C   0  0  0  0  0  0  0  0  0  0  0  0
  160.0240  211.6610  156.8380 O   0  0  0  0  0  0  0  0  0  0  0  0
  159.1720  209.6160  156.0750 N   0  0  0  0  0  2  0  0  0  0  0  0
  161.4430  208.3800  153.9210 C   0  0  0  0  0  0  0  0  0  0  0  0
  162.0370  208.3710  152.6610 C   0  0  0  0  0  3  0  0  0  0  0  0
  160.8400  207.2650  154.4320 C   0  0  0  0  0  0  0  0  0  0  0  0
  161.3750  206.0270  152.4480 C   0  0  0  0  0  0  0  0  0  0  0  0
  161.3290  209.5140  154.8690 C   0  0  0  0  0  2  0  0  0  0  0  0
  161.1300  209.0400  157.2230 O   0  0  0  0  0  1  0  0  0  0  0  0
  160.2510  207.5130  155.6910 N   0  0  0  0  0  2  0  0  0  0  0  0
  160.7800  206.0650  153.7200 C   0  0  0  0  0  3  0  0  0  0  0  0
  160.4610  208.9270  156.0060 C   0  0  1  0  0  0  0  0  0  0  0  0
  161.9960  207.1770  151.9180 C   0  0  0  0  0  3  0  0  0  0  0  0
  161.1950  204.5670  151.4380 S   0  0  0  0  0  0  0  0  0  0  0  0
  161.3150  205.4640  149.8660 C   0  0  0  0  0  2  0  0  0  0  0  0
  160.7160  204.5650  148.7930 C   0  0  0  0  0  2  0  0  0  0  0  0
  161.2810  203.1050  146.9350 O   0  0  0  0  0  0  0  0  0  0  0  0
  161.8040  203.7920  148.0510 C   0  0  1  0  0  3  0  0  0  0  0  0
  162.0220  204.2700  146.6440 C   0  0  2  0  0  3  0  0  0  0  0  0
  161.0530  205.3120  146.1020 C   0  0  0  0  0  2  0  0  0  0  0  0
  161.1400  205.3590  144.5880 C   0  0  0  0  0  1  0  0  0  0  0  0
  159.5920  214.4270  148.3450 C   0  0  0  0  0  2  0  0  0  0  0  0
  161.4700  213.7500  144.6790 C   0  0  0  0  0  2  0  0  0  0  0  0
  159.9680  213.6390  147.0690 C   0  0  2  0  0  0  0  0  0  0  0  0
  159.2820  214.2020  145.8850 C   0  0  2  0  0  3  0  0  0  0  0  0
  161.6210  212.6710  145.5570 O   0  0  0  0  0  0  0  0  0  0  0  0
  158.9300  212.8450  146.3580 N   0  0  2  0  0  0  0  0  0  0  0  0
  159.9860  214.0500  144.5210 C   0  0  0  0  0  2  0  0  0  0  0  0
  161.4520  213.2230  146.8350 C   0  0  2  0  0  3  0  0  0  0  0  0
  156.6840  211.9720  146.2660 C   0  0  0  0  0  2  0  0  0  0  0  0
  156.5700  213.4610  146.0300 C   0  0  0  0  0  2  0  0  0  0  0  0
  157.6140  212.9290  146.9950 C   0  0  0  0  0  3  0  0  0  0  0  0
  161.9830  212.2920  147.9330 C   0  0  2  0  0  3  0  0  0  0  0  0
  163.6190  214.0570  148.2210 O   0  0  0  0  0  1  0  0  0  0  0  0
  164.4590  211.8950  147.6210 C   0  0  0  0  0  1  0  0  0  0  0  0
  163.4020  212.6860  148.3640 C   0  0  2  0  0  3  0  0  0  0  0  0
  161.8240  210.7660  147.7120 C   0  0  0  0  0  2  0  0  0  0  0  0
  161.9430  210.3390  150.0780 O   0  0  0  0  0  1  0  0  0  0  0  0
  162.2010  208.5190  148.7170 O   0  0  0  0  0  0  0  0  0  0  0  0
  162.0200  209.8830  148.9080 C   0  0  0  0  0  0  0  0  0  0  0  0
  1  6  2  0  0  0  0
  2  1  1  0  0  0  0
  3  4  1  0  0  0  0
  3  2  2  0  0  0  0
  4  5  1  0  0  0  0
  5  6  1  0  0  0  0
  6  7  1  0  0  0  0
  7  8  1  0  0  0  0
  8  9  1  0  0  0  0
  9 10  1  0  0  0  0
 10 11  1  0  0  0  0
 11 12  2  0  0  0  0
 13 11  1  0  0  0  0
 14 16  1  0  0  0  0
 14 18  1  0  0  0  0
 15 14  2  0  0  0  0
 16 20  1  0  0  0  0
 17 21  1  0  0  0  0
 18 22  1  0  0  0  0
 20 22  1  0  0  0  0
 21 16  2  0  0  0  0
 22 13  1  0  0  0  0
 22 19  1  1  0  0  0
 23 17  2  0  0  0  0
 23 15  1  0  0  0  0
 24 17  1  0  0  0  0
 25 24  1  0  0  0  0
 26 25  1  0  0  0  0
 27 28  1  0  0  0  0
 28 26  1  1  0  0  0
 29 30  1  1  0  0  0
 29 27  1  0  0  0  0
 29 28  1  0  0  0  0
 31 30  1  0  0  0  0
 32  3  1  0  0  0  0
 33 36  1  0  0  0  0
 34 32  1  1  0  0  0
 35 38  1  6  0  0  0
 35 37  1  0  0  0  0
 35 34  1  0  0  0  0
 36 39  1  0  0  0  0
 37 42  1  1  0  0  0
 37 34  1  0  0  0  0
 38 33  1  0  0  0  0
 39 34  1  0  0  0  0
 39 43  1  1  0  0  0
 40 42  1  0  0  0  0
 41 40  1  0  0  0  0
 41 42  1  0  0  0  0
 43 47  1  6  0  0  0
 43 46  1  0  0  0  0
 44 46  1  0  0  0  0
 46 45  1  6  0  0  0
 47 50  1  0  0  0  0
 49 50  2  0  0  0  0
 50 48  1  0  0  0  0
M  END
>  <MODEL>
1

>  <REMARK>
 VINA RESULT:      -5.2      0.000      0.000
  Name = 
  18 active torsions:
  status: ('A' for Active; 'I' for Inactive)
    1  A    between atoms: C_2  and  C_26
    2  A    between atoms: C_2  and  C_32
    3  A    between atoms: C_2  and  C_47
    4  A    between atoms: C_5  and  C_49
    5  A    between atoms: C_6  and  C_17
    6  A    between atoms: C_6  and  C_35
    7  A    between atoms: C_7  and  C_17
    8  A    between atoms: C_7  and  O_50
    9  A    between atoms: C_10  and  S_31
   10  A    between atoms: C_15  and  C_27
   11  A    between atoms: C_19  and  C_20
   12  A    between atoms: C_24  and  C_49
   13  A    between atoms: C_27  and  C_34
   14  A    between atoms: S_31  and  C_34
   15  A    between atoms: C_32  and  C_36
   16  A    between atoms: N_41  and  C_44
   17  A    between atoms: N_42  and  C_45
   18  A    between atoms: C_43  and  O_50
                            x       y       z     vdW  Elec       q    Type
                         _______ _______ _______ _____ _____    ______ ____

>  <TORSDO>
F 18

$$$$
=
 OpenBabel11072412053D

 50 56  0  0  1  0  0  0  0  0999 V2000
  160.3230  212.6030  150.6260 N   0  0  0  0  0  0  0  0  0  0  0  0
  160.5980  211.8890  151.8390 C   0  0  0  0  0  3  0  0  0  0  0  0
  161.3980  210.8210  151.8430 C   0  0  0  0  0  0  0  0  0  0  0  0
  161.8860  210.2750  150.5240 C   0  0  0  0  0  2  0  0  0  0  0  0
  162.1100  211.3900  149.5050 C   0  0  0  0  0  2  0  0  0  0  0  0
  160.9780  212.3800  149.5190 C   0  0  0  0  0  0  0  0  0  0  0  0
  160.7610  213.1760  148.3910 O   0  0  0  0  0  0  0  0  0  0  0  0
  159.4820  213.2730  147.7720 C   0  0  0  0  0  2  0  0  0  0  0  0
  159.5770  212.7750  146.3320 C   0  0  0  0  0  2  0  0  0  0  0  0
  161.0030  212.8080  145.7850 C   0  0  0  0  0  2  0  0  0  0  0  0
  161.0780  213.2700  144.3670 C   0  0  0  0  0  0  0  0  0  0  0  0
  160.3630  214.2460  144.0040 O   0  0  0  0  0  0  0  0  0  0  0  0
  161.9800  212.6460  143.4430 N   0  0  0  0  0  2  0  0  0  0  0  0
  160.1790  212.7040  140.6010 C   0  0  0  0  0  0  0  0  0  0  0  0
  158.9500  212.7590  139.9470 C   0  0  0  0  0  3  0  0  0  0  0  0
  161.0350  211.6540  140.4220 C   0  0  0  0  0  0  0  0  0  0  0  0
  159.4910  210.6130  138.9090 C   0  0  0  0  0  0  0  0  0  0  0  0
  160.7460  213.6780  141.5640 C   0  0  0  0  0  2  0  0  0  0  0  0
  163.1400  213.8280  141.7880 O   0  0  0  0  0  1  0  0  0  0  0  0
  162.1910  211.7700  141.2240 N   0  0  0  0  0  2  0  0  0  0  0  0
  160.7230  210.5810  139.5840 C   0  0  0  0  0  3  0  0  0  0  0  0
  162.0520  212.9900  142.0230 C   0  0  1  0  0  0  0  0  0  0  0  0
  158.6050  211.6950  139.0950 C   0  0  0  0  0  3  0  0  0  0  0  0
  158.9800  209.1990  137.9470 S   0  0  0  0  0  0  0  0  0  0  0  0
  157.4570  209.9790  137.3440 C   0  0  0  0  0  2  0  0  0  0  0  0
  156.3060  209.0510  137.7100 C   0  0  0  0  0  2  0  0  0  0  0  0
  155.3620  210.5920  139.3330 O   0  0  0  0  0  0  0  0  0  0  0  0
  155.8500  209.2810  139.1490 C   0  0  1  0  0  3  0  0  0  0  0  0
  154.3830  209.5790  139.2690 C   0  0  2  0  0  3  0  0  0  0  0  0
  153.6010  209.7720  137.9770 C   0  0  0  0  0  2  0  0  0  0  0  0
  152.7340  211.0130  138.0800 C   0  0  0  0  0  1  0  0  0  0  0  0
  161.8920  210.3180  153.1760 C   0  0  0  0  0  2  0  0  0  0  0  0
  160.1960  208.6940  156.6270 C   0  0  0  0  0  2  0  0  0  0  0  0
  160.8760  209.4990  154.0060 C   0  0  2  0  0  0  0  0  0  0  0  0
  161.4880  208.2420  154.4890 C   0  0  2  0  0  3  0  0  0  0  0  0
  159.2420  209.3070  155.8090 O   0  0  0  0  0  0  0  0  0  0  0  0
  160.3910  208.1880  153.4970 N   0  0  2  0  0  0  0  0  0  0  0  0
  160.9490  207.6540  155.8090 C   0  0  0  0  0  2  0  0  0  0  0  0
  159.9670  210.2300  155.0410 C   0  0  2  0  0  3  0  0  0  0  0  0
  160.6810  206.3560  151.9570 C   0  0  0  0  0  2  0  0  0  0  0  0
  162.0700  206.7810  152.3760 C   0  0  0  0  0  2  0  0  0  0  0  0
  160.9820  207.8250  152.2070 C   0  0  0  0  0  3  0  0  0  0  0  0
  159.0520  211.2730  154.3890 C   0  0  2  0  0  3  0  0  0  0  0  0
  159.0750  213.6950  154.2870 O   0  0  0  0  0  1  0  0  0  0  0  0
  160.2580  212.6800  156.1070 C   0  0  0  0  0  1  0  0  0  0  0  0
  159.0810  212.6020  155.1550 C   0  0  2  0  0  3  0  0  0  0  0  0
  157.6160  210.8280  154.0140 C   0  0  0  0  0  2  0  0  0  0  0  0
  156.2580  211.0050  155.9940 O   0  0  0  0  0  1  0  0  0  0  0  0
  155.7580  212.4610  154.3020 O   0  0  0  0  0  0  0  0  0  0  0  0
  156.4930  211.4050  154.8240 C   0  0  0  0  0  0  0  0  0  0  0  0
  1  2  1  0  0  0  0
  2  3  2  0  0  0  0
  3 32  1  0  0  0  0
  4  3  1  0  0  0  0
  5  6  1  0  0  0  0
  5  4  1  0  0  0  0
  6  1  2  0  0  0  0
  7  6  1  0  0  0  0
  8  7  1  0  0  0  0
  9  8  1  0  0  0  0
 10  9  1  0  0  0  0
 11 10  1  0  0  0  0
 12 11  2  0  0  0  0
 13 11  1  0  0  0  0
 14 18  1  0  0  0  0
 15 14  2  0  0  0  0
 16 14  1  0  0  0  0
 16 20  1  0  0  0  0
 17 23  2  0  0  0  0
 17 21  1  0  0  0  0
 18 22  1  0  0  0  0
 20 22  1  0  0  0  0
 21 16  2  0  0  0  0
 22 19  1  6  0  0  0
 22 13  1  0  0  0  0
 23 15  1  0  0  0  0
 24 17  1  0  0  0  0
 25 26  1  0  0  0  0
 25 24  1  0  0  0  0
 28 26  1  6  0  0  0
 28 29  1  0  0  0  0
 28 27  1  0  0  0  0
 29 30  1  6  0  0  0
 29 27  1  0  0  0  0
 30 31  1  0  0  0  0
 34 32  1  6  0  0  0
 34 35  1  0  0  0  0
 34 39  1  0  0  0  0
 35 38  1  1  0  0  0
 36 33  1  0  0  0  0
 37 42  1  6  0  0  0
 37 34  1  0  0  0  0
 37 35  1  0  0  0  0
 38 33  1  0  0  0  0
 39 43  1  6  0  0  0
 39 36  1  0  0  0  0
 40 42  1  0  0  0  0
 40 41  1  0  0  0  0
 42 41  1  0  0  0  0
 43 47  1  1  0  0  0
 43 46  1  0  0  0  0
 44 46  1  0  0  0  0
 46 45  1  6  0  0  0
 47 50  1  0  0  0  0
 49 50  2  0  0  0  0
 50 48  1  0  0  0  0
M  END
>  <MODEL>
2

>  <REMARK>
 VINA RESULT:      -4.6      4.711     10.910
  Name = 
  18 active torsions:
  status: ('A' for Active; 'I' for Inactive)
    1  A    between atoms: C_2  and  C_26
    2  A    between atoms: C_2  and  C_32
    3  A    between atoms: C_2  and  C_47
    4  A    between atoms: C_5  and  C_49
    5  A    between atoms: C_6  and  C_17
    6  A    between atoms: C_6  and  C_35
    7  A    between atoms: C_7  and  C_17
    8  A    between atoms: C_7  and  O_50
    9  A    between atoms: C_10  and  S_31
   10  A    between atoms: C_15  and  C_27
   11  A    between atoms: C_19  and  C_20
   12  A    between atoms: C_24  and  C_49
   13  A    between atoms: C_27  and  C_34
   14  A    between atoms: S_31  and  C_34
   15  A    between atoms: C_32  and  C_36
   16  A    between atoms: N_41  and  C_44
   17  A    between atoms: N_42  and  C_45
   18  A    between atoms: C_43  and  O_50
                            x       y       z     vdW  Elec       q    Type
                         _______ _______ _______ _____ _____    ______ ____

>  <TORSDO>
F 18

$$$$
=
 OpenBabel11072412053D

 50 56  0  0  1  0  0  0  0  0999 V2000
  161.2970  207.1540  151.7070 N   0  0  0  0  0  0  0  0  0  0  0  0
  160.9980  206.8530  150.3370 C   0  0  0  0  0  3  0  0  0  0  0  0
  161.0130  205.5970  149.8890 C   0  0  0  0  0  0  0  0  0  0  0  0
  161.5050  204.5050  150.8060 C   0  0  0  0  0  2  0  0  0  0  0  0
  161.1410  204.7900  152.2620 C   0  0  0  0  0  2  0  0  0  0  0  0
  161.4020  206.2270  152.6200 C   0  0  0  0  0  0  0  0  0  0  0  0
  161.5790  206.5680  153.9640 O   0  0  0  0  0  0  0  0  0  0  0  0
  160.9170  207.6850  154.5510 C   0  0  0  0  0  2  0  0  0  0  0  0
  160.1380  207.2230  155.7800 C   0  0  0  0  0  2  0  0  0  0  0  0
  160.4950  208.0090  157.0400 C   0  0  0  0  0  2  0  0  0  0  0  0
  160.6050  209.4790  156.8050 C   0  0  0  0  0  0  0  0  0  0  0  0
  161.7300  210.0370  156.9390 O   0  0  0  0  0  0  0  0  0  0  0  0
  159.4610  210.2390  156.3880 N   0  0  0  0  0  2  0  0  0  0  0  0
  157.9060  212.7650  154.8000 C   0  0  0  0  0  0  0  0  0  0  0  0
  156.7750  213.2920  154.1790 C   0  0  0  0  0  3  0  0  0  0  0  0
  159.0930  212.6460  154.1340 C   0  0  0  0  0  0  0  0  0  0  0  0
  158.1120  213.5730  152.1510 C   0  0  0  0  0  0  0  0  0  0  0  0
  158.0290  212.2460  156.1830 C   0  0  0  0  0  2  0  0  0  0  0  0
  160.1890  212.2910  157.2480 O   0  0  0  0  0  1  0  0  0  0  0  0
  160.0860  212.0330  154.9300 N   0  0  0  0  0  2  0  0  0  0  0  0
  159.2360  213.0360  152.8010 C   0  0  0  0  0  3  0  0  0  0  0  0
  159.4730  211.6920  156.2150 C   0  0  1  0  0  0  0  0  0  0  0  0
  156.8850  213.6960  152.8350 C   0  0  0  0  0  3  0  0  0  0  0  0
  158.2010  213.9460  150.4080 S   0  0  0  0  0  0  0  0  0  0  0  0
  160.0100  213.8410  150.3310 C   0  0  0  0  0  2  0  0  0  0  0  0
  160.4370  214.4530  149.0040 C   0  0  0  0  0  2  0  0  0  0  0  0
  160.5740  213.8630  146.6510 O   0  0  0  0  0  0  0  0  0  0  0  0
  159.8100  213.7080  147.8280 C   0  0  1  0  0  3  0  0  0  0  0  0
  160.6780  212.6080  147.2870 C   0  0  2  0  0  3  0  0  0  0  0  0
  162.0870  212.4900  147.8510 C   0  0  0  0  0  2  0  0  0  0  0  0
  162.2360  211.1760  148.5960 C   0  0  0  0  0  1  0  0  0  0  0  0
  160.3890  205.3230  148.5440 C   0  0  0  0  0  2  0  0  0  0  0  0
  163.9450  203.7510  147.0260 C   0  0  0  0  0  2  0  0  0  0  0  0
  161.3250  204.7000  147.4820 C   0  0  2  0  0  0  0  0  0  0  0  0
  162.3120  205.6940  147.0070 C   0  0  2  0  0  3  0  0  0  0  0  0
  162.8420  202.9440  146.7280 O   0  0  0  0  0  0  0  0  0  0  0  0
  161.2770  205.1890  146.0770 N   0  0  2  0  0  0  0  0  0  0  0  0
  163.6740  205.1600  146.5190 C   0  0  0  0  0  2  0  0  0  0  0  0
  161.8900  203.2640  147.7060 C   0  0  2  0  0  3  0  0  0  0  0  0
  159.3970  205.8630  144.7260 C   0  0  0  0  0  2  0  0  0  0  0  0
  160.4650  206.9130  144.5200 C   0  0  0  0  0  2  0  0  0  0  0  0
  160.3010  206.2630  145.8820 C   0  0  0  0  0  3  0  0  0  0  0  0
  160.7850  202.2040  147.7950 C   0  0  2  0  0  3  0  0  0  0  0  0
  161.6010  200.8580  149.6400 O   0  0  0  0  0  1  0  0  0  0  0  0
  159.2240  201.0840  149.4380 C   0  0  0  0  0  1  0  0  0  0  0  0
  160.5830  201.7250  149.2390 C   0  0  2  0  0  3  0  0  0  0  0  0
  160.8320  201.0370  146.7770 C   0  0  0  0  0  2  0  0  0  0  0  0
  160.2620  202.4360  144.9030 O   0  0  0  0  0  1  0  0  0  0  0  0
  159.7300  200.2200  144.6990 O   0  0  0  0  0  0  0  0  0  0  0  0
  160.2370  201.2900  145.4240 C   0  0  0  0  0  0  0  0  0  0  0  0
  1  6  2  0  0  0  0
  2  1  1  0  0  0  0
  3  2  2  0  0  0  0
  3  4  1  0  0  0  0
  4  5  1  0  0  0  0
  5  6  1  0  0  0  0
  6  7  1  0  0  0  0
  7  8  1  0  0  0  0
  8  9  1  0  0  0  0
  9 10  1  0  0  0  0
 11 12  2  0  0  0  0
 11 10  1  0  0  0  0
 13 11  1  0  0  0  0
 14 18  1  0  0  0  0
 15 14  1  0  0  0  0
 16 14  2  0  0  0  0
 16 20  1  0  0  0  0
 17 21  2  0  0  0  0
 17 23  1  0  0  0  0
 18 22  1  0  0  0  0
 20 22  1  0  0  0  0
 21 16  1  0  0  0  0
 22 13  1  0  0  0  0
 22 19  1  1  0  0  0
 23 15  2  0  0  0  0
 24 17  1  0  0  0  0
 25 24  1  0  0  0  0
 26 25  1  0  0  0  0
 27 29  1  0  0  0  0
 27 28  1  0  0  0  0
 28 26  1  1  0  0  0
 29 28  1  0  0  0  0
 29 30  1  1  0  0  0
 30 31  1  0  0  0  0
 32  3  1  0  0  0  0
 34 39  1  0  0  0  0
 34 32  1  1  0  0  0
 35 38  1  6  0  0  0
 35 34  1  0  0  0  0
 36 33  1  0  0  0  0
 36 39  1  0  0  0  0
 37 42  1  1  0  0  0
 37 35  1  0  0  0  0
 37 34  1  0  0  0  0
 38 33  1  0  0  0  0
 39 43  1  6  0  0  0
 40 42  1  0  0  0  0
 41 40  1  0  0  0  0
 41 42  1  0  0  0  0
 43 47  1  6  0  0  0
 43 46  1  0  0  0  0
 46 45  1  6  0  0  0
 46 44  1  0  0  0  0
 48 50  1  0  0  0  0
 49 50  2  0  0  0  0
 50 47  1  0  0  0  0
M  END
>  <MODEL>
3

>  <REMARK>
 VINA RESULT:      -4.1      2.763      8.196
  Name = 
  18 active torsions:
  status: ('A' for Active; 'I' for Inactive)
    1  A    between atoms: C_2  and  C_26
    2  A    between atoms: C_2  and  C_32
    3  A    between atoms: C_2  and  C_47
    4  A    between atoms: C_5  and  C_49
    5  A    between atoms: C_6  and  C_17
    6  A    between atoms: C_6  and  C_35
    7  A    between atoms: C_7  and  C_17
    8  A    between atoms: C_7  and  O_50
    9  A    between atoms: C_10  and  S_31
   10  A    between atoms: C_15  and  C_27
   11  A    between atoms: C_19  and  C_20
   12  A    between atoms: C_24  and  C_49
   13  A    between atoms: C_27  and  C_34
   14  A    between atoms: S_31  and  C_34
   15  A    between atoms: C_32  and  C_36
   16  A    between atoms: N_41  and  C_44
   17  A    between atoms: N_42  and  C_45
   18  A    between atoms: C_43  and  O_50
                            x       y       z     vdW  Elec       q    Type
                         _______ _______ _______ _____ _____    ______ ____

>  <TORSDO>
F 18

$$$$
=
 OpenBabel11072412053D

 50 56  0  0  1  0  0  0  0  0999 V2000
  160.8650  207.4490  150.5590 N   0  0  0  0  0  0  0  0  0  0  0  0
  160.2290  206.6150  149.5810 C   0  0  0  0  0  3  0  0  0  0  0  0
  160.6440  206.6000  148.3140 C   0  0  0  0  0  0  0  0  0  0  0  0
  161.6940  207.5950  147.8830 C   0  0  0  0  0  2  0  0  0  0  0  0
  162.6880  207.8830  149.0060 C   0  0  0  0  0  2  0  0  0  0  0  0
  161.9840  208.0770  150.3220 C   0  0  0  0  0  0  0  0  0  0  0  0
  162.6320  208.7860  151.3370 O   0  0  0  0  0  0  0  0  0  0  0  0
  162.0830  209.9780  151.8920 C   0  0  0  0  0  2  0  0  0  0  0  0
  161.3630  210.7610  150.7970 C   0  0  0  0  0  2  0  0  0  0  0  0
  162.2960  211.2010  149.6700 C   0  0  0  0  0  2  0  0  0  0  0  0
  161.6800  212.2100  148.7580 C   0  0  0  0  0  0  0  0  0  0  0  0
  160.7850  212.9760  149.2100 O   0  0  0  0  0  0  0  0  0  0  0  0
  162.1310  212.3380  147.4010 N   0  0  0  0  0  2  0  0  0  0  0  0
  160.6460  212.4340  144.3830 C   0  0  0  0  0  0  0  0  0  0  0  0
  159.9240  211.8100  143.3680 C   0  0  0  0  0  3  0  0  0  0  0  0
  161.8830  212.9660  144.1530 C   0  0  0  0  0  0  0  0  0  0  0  0
  161.7850  212.2850  141.8550 C   0  0  0  0  0  0  0  0  0  0  0  0
  160.2610  212.6070  145.8040 C   0  0  0  0  0  2  0  0  0  0  0  0
  161.1930  214.4530  147.0410 O   0  0  0  0  0  1  0  0  0  0  0  0
  162.4600  213.4930  145.3300 N   0  0  0  0  0  2  0  0  0  0  0  0
  162.4920  212.9070  142.8980 C   0  0  0  0  0  3  0  0  0  0  0  0
  161.5240  213.2460  146.4280 C   0  0  1  0  0  0  0  0  0  0  0  0
  160.5080  211.7340  142.0900 C   0  0  0  0  0  3  0  0  0  0  0  0
  162.5780  212.0510  140.2730 S   0  0  0  0  0  0  0  0  0  0  0  0
  162.5810  210.2400  140.3820 C   0  0  0  0  0  2  0  0  0  0  0  0
  161.5110  209.7340  139.4250 C   0  0  0  0  0  2  0  0  0  0  0  0
  161.0170  210.1310  137.0790 O   0  0  0  0  0  0  0  0  0  0  0  0
  161.2260  210.7570  138.3270 C   0  0  1  0  0  3  0  0  0  0  0  0
  159.8590  210.6170  137.7210 C   0  0  2  0  0  3  0  0  0  0  0  0
  159.0260  209.4150  138.1460 C   0  0  0  0  0  2  0  0  0  0  0  0
  157.7220  209.3910  137.3710 C   0  0  0  0  0  1  0  0  0  0  0  0
  160.1520  205.4860  147.4250 C   0  0  0  0  0  2  0  0  0  0  0  0
  164.0230  204.4460  146.2600 C   0  0  0  0  0  2  0  0  0  0  0  0
  161.2480  204.6260  146.7530 C   0  0  2  0  0  0  0  0  0  0  0  0
  161.7420  205.2780  145.5210 C   0  0  2  0  0  3  0  0  0  0  0  0
  163.3390  203.3710  146.8360 O   0  0  0  0  0  0  0  0  0  0  0  0
  160.9900  204.0070  145.4250 N   0  0  2  0  0  0  0  0  0  0  0  0
  163.1980  204.9890  145.1020 C   0  0  0  0  0  2  0  0  0  0  0  0
  162.3490  203.9630  147.6340 C   0  0  2  0  0  3  0  0  0  0  0  0
  158.9680  203.0070  144.5720 C   0  0  0  0  0  2  0  0  0  0  0  0
  159.5170  203.8690  143.4580 C   0  0  0  0  0  2  0  0  0  0  0  0
  159.6590  204.3220  144.9000 C   0  0  0  0  0  3  0  0  0  0  0  0
  161.7710  202.9720  148.6540 C   0  0  2  0  0  3  0  0  0  0  0  0
  159.7810  201.8320  147.8690 O   0  0  0  0  0  1  0  0  0  0  0  0
  161.5800  200.4530  148.6440 C   0  0  0  0  0  1  0  0  0  0  0  0
  161.1710  201.7420  147.9610 C   0  0  2  0  0  3  0  0  0  0  0  0
  160.8530  203.5450  149.7630 C   0  0  0  0  0  2  0  0  0  0  0  0
  161.5010  204.4590  151.8930 O   0  0  0  0  0  1  0  0  0  0  0  0
  161.5450  202.1780  151.7260 O   0  0  0  0  0  0  0  0  0  0  0  0
  161.3450  203.4370  151.1760 C   0  0  0  0  0  0  0  0  0  0  0  0
  2  1  1  0  0  0  0
  3  2  2  0  0  0  0
  4  3  1  0  0  0  0
  4  5  1  0  0  0  0
  5  6  1  0  0  0  0
  6  1  2  0  0  0  0
  6  7  1  0  0  0  0
  7  8  1  0  0  0  0
  9  8  1  0  0  0  0
 10  9  1  0  0  0  0
 11 12  2  0  0  0  0
 11 10  1  0  0  0  0
 13 11  1  0  0  0  0
 14 18  1  0  0  0  0
 15 14  2  0  0  0  0
 16 14  1  0  0  0  0
 16 20  1  0  0  0  0
 17 23  2  0  0  0  0
 17 21  1  0  0  0  0
 18 22  1  0  0  0  0
 20 22  1  0  0  0  0
 21 16  2  0  0  0  0
 22 19  1  1  0  0  0
 22 13  1  0  0  0  0
 23 15  1  0  0  0  0
 24 25  1  0  0  0  0
 24 17  1  0  0  0  0
 26 25  1  0  0  0  0
 27 29  1  0  0  0  0
 27 28  1  0  0  0  0
 28 26  1  1  0  0  0
 29 30  1  1  0  0  0
 29 28  1  0  0  0  0
 31 30  1  0  0  0  0
 32  3  1  0  0  0  0
 33 36  1  0  0  0  0
 34 32  1  1  0  0  0
 34 39  1  0  0  0  0
 35 38  1  1  0  0  0
 35 34  1  0  0  0  0
 36 39  1  0  0  0  0
 37 42  1  6  0  0  0
 37 35  1  0  0  0  0
 37 34  1  0  0  0  0
 38 33  1  0  0  0  0
 39 43  1  6  0  0  0
 40 42  1  0  0  0  0
 41 40  1  0  0  0  0
 41 42  1  0  0  0  0
 43 47  1  6  0  0  0
 44 46  1  0  0  0  0
 46 45  1  1  0  0  0
 46 43  1  0  0  0  0
 47 50  1  0  0  0  0
 50 49  2  0  0  0  0
 50 48  1  0  0  0  0
M  END
>  <MODEL>
4

>  <REMARK>
 VINA RESULT:      -4.0      4.309      9.608
  Name = 
  18 active torsions:
  status: ('A' for Active; 'I' for Inactive)
    1  A    between atoms: C_2  and  C_26
    2  A    between atoms: C_2  and  C_32
    3  A    between atoms: C_2  and  C_47
    4  A    between atoms: C_5  and  C_49
    5  A    between atoms: C_6  and  C_17
    6  A    between atoms: C_6  and  C_35
    7  A    between atoms: C_7  and  C_17
    8  A    between atoms: C_7  and  O_50
    9  A    between atoms: C_10  and  S_31
   10  A    between atoms: C_15  and  C_27
   11  A    between atoms: C_19  and  C_20
   12  A    between atoms: C_24  and  C_49
   13  A    between atoms: C_27  and  C_34
   14  A    between atoms: S_31  and  C_34
   15  A    between atoms: C_32  and  C_36
   16  A    between atoms: N_41  and  C_44
   17  A    between atoms: N_42  and  C_45
   18  A    between atoms: C_43  and  O_50
                            x       y       z     vdW  Elec       q    Type
                         _______ _______ _______ _____ _____    ______ ____

>  <TORSDO>
F 18

$$$$
=
 OpenBabel11072412053D

 50 56  0  0  1  0  0  0  0  0999 V2000
  160.7630  206.6170  150.8220 N   0  0  0  0  0  0  0  0  0  0  0  0
  160.2280  206.0190  149.6330 C   0  0  0  0  0  3  0  0  0  0  0  0
  160.5540  206.4810  148.4240 C   0  0  0  0  0  0  0  0  0  0  0  0
  161.3700  207.7460  148.3260 C   0  0  0  0  0  2  0  0  0  0  0  0
  162.3660  207.8610  149.4780 C   0  0  0  0  0  2  0  0  0  0  0  0
  161.7280  207.4940  150.7910 C   0  0  0  0  0  0  0  0  0  0  0  0
  162.3000  207.9660  151.9750 O   0  0  0  0  0  0  0  0  0  0  0  0
  161.7250  209.0390  152.7150 C   0  0  0  0  0  2  0  0  0  0  0  0
  160.6180  208.4980  153.6160 C   0  0  0  0  0  2  0  0  0  0  0  0
  160.2500  209.4570  154.7470 C   0  0  0  0  0  2  0  0  0  0  0  0
  160.1690  210.8810  154.3070 C   0  0  0  0  0  0  0  0  0  0  0  0
  161.0110  211.7080  154.7560 O   0  0  0  0  0  0  0  0  0  0  0  0
  159.1790  211.2960  153.3540 N   0  0  0  0  0  2  0  0  0  0  0  0
  158.1000  213.2070  150.8040 C   0  0  0  0  0  0  0  0  0  0  0  0
  157.3190  213.3750  149.6620 C   0  0  0  0  0  3  0  0  0  0  0  0
  159.4580  213.3500  150.7640 C   0  0  0  0  0  0  0  0  0  0  0  0
  159.3710  213.8420  148.4170 C   0  0  0  0  0  0  0  0  0  0  0  0
  157.6550  212.8420  152.1690 C   0  0  0  0  0  2  0  0  0  0  0  0
  159.0000  213.5240  154.0480 O   0  0  0  0  0  1  0  0  0  0  0  0
  160.0560  213.0760  152.0140 N   0  0  0  0  0  2  0  0  0  0  0  0
  160.1350  213.6630  149.5830 C   0  0  0  0  0  3  0  0  0  0  0  0
  158.9880  212.6850  152.9370 C   0  0  1  0  0  0  0  0  0  0  0  0
  157.9700  213.6930  148.4560 C   0  0  0  0  0  3  0  0  0  0  0  0
  160.1980  214.0940  146.8560 S   0  0  0  0  0  0  0  0  0  0  0  0
  160.1590  212.3410  146.3890 C   0  0  0  0  0  2  0  0  0  0  0  0
  159.9570  212.2860  144.8810 C   0  0  0  0  0  2  0  0  0  0  0  0
  162.0240  212.5790  143.6380 O   0  0  0  0  0  0  0  0  0  0  0  0
  160.9000  213.2510  144.1640 C   0  0  1  0  0  3  0  0  0  0  0  0
  161.0460  212.9620  142.6970 C   0  0  2  0  0  3  0  0  0  0  0  0
  160.3930  211.6930  142.1670 C   0  0  0  0  0  2  0  0  0  0  0  0
  161.2470  211.0960  141.0630 C   0  0  0  0  0  1  0  0  0  0  0  0
  160.2180  205.6240  147.2310 C   0  0  0  0  0  2  0  0  0  0  0  0
  164.0810  204.0550  147.0500 C   0  0  0  0  0  2  0  0  0  0  0  0
  161.3560  204.7130  146.7130 C   0  0  2  0  0  0  0  0  0  0  0  0
  162.3260  205.4920  145.9120 C   0  0  2  0  0  3  0  0  0  0  0  0
  163.1060  203.0520  147.0780 O   0  0  0  0  0  0  0  0  0  0  0  0
  161.4940  204.4610  145.2530 N   0  0  2  0  0  0  0  0  0  0  0  0
  163.7850  204.9950  145.8900 C   0  0  0  0  0  2  0  0  0  0  0  0
  161.9880  203.6580  147.6700 C   0  0  2  0  0  3  0  0  0  0  0  0
  161.1000  205.4960  143.1110 C   0  0  0  0  0  2  0  0  0  0  0  0
  160.9070  206.5800  144.1470 C   0  0  0  0  0  2  0  0  0  0  0  0
  160.4800  205.1570  144.4570 C   0  0  0  0  0  3  0  0  0  0  0  0
  160.9690  202.6200  148.1590 C   0  0  2  0  0  3  0  0  0  0  0  0
  161.7380  203.3450  150.3400 O   0  0  0  0  0  1  0  0  0  0  0  0
  160.2020  201.5080  150.2940 C   0  0  0  0  0  1  0  0  0  0  0  0
  160.6540  202.8020  149.6490 C   0  0  2  0  0  3  0  0  0  0  0  0
  161.2180  201.1400  147.7740 C   0  0  0  0  0  2  0  0  0  0  0  0
  161.1550  199.5930  145.9310 O   0  0  0  0  0  1  0  0  0  0  0  0
  160.0850  201.5870  145.6030 O   0  0  0  0  0  0  0  0  0  0  0  0
  160.8520  200.7290  146.3790 C   0  0  0  0  0  0  0  0  0  0  0  0
  2  1  1  0  0  0  0
  3  2  2  0  0  0  0
  4  3  1  0  0  0  0
  4  5  1  0  0  0  0
  5  6  1  0  0  0  0
  6  1  2  0  0  0  0
  6  7  1  0  0  0  0
  7  8  1  0  0  0  0
  8  9  1  0  0  0  0
  9 10  1  0  0  0  0
 11 10  1  0  0  0  0
 11 12  2  0  0  0  0
 13 11  1  0  0  0  0
 14 18  1  0  0  0  0
 15 14  2  0  0  0  0
 16 14  1  0  0  0  0
 16 20  1  0  0  0  0
 17 23  2  0  0  0  0
 17 21  1  0  0  0  0
 18 22  1  0  0  0  0
 20 22  1  0  0  0  0
 21 16  2  0  0  0  0
 22 13  1  0  0  0  0
 22 19  1  1  0  0  0
 23 15  1  0  0  0  0
 24 17  1  0  0  0  0
 25 24  1  0  0  0  0
 26 25  1  0  0  0  0
 27 28  1  0  0  0  0
 28 26  1  1  0  0  0
 29 30  1  1  0  0  0
 29 27  1  0  0  0  0
 29 28  1  0  0  0  0
 31 30  1  0  0  0  0
 32  3  1  0  0  0  0
 33 36  1  0  0  0  0
 34 32  1  1  0  0  0
 34 39  1  0  0  0  0
 35 38  1  1  0  0  0
 35 34  1  0  0  0  0
 36 39  1  0  0  0  0
 37 42  1  6  0  0  0
 37 35  1  0  0  0  0
 37 34  1  0  0  0  0
 38 33  1  0  0  0  0
 39 43  1  6  0  0  0
 40 41  1  0  0  0  0
 40 42  1  0  0  0  0
 41 42  1  0  0  0  0
 43 47  1  1  0  0  0
 43 46  1  0  0  0  0
 46 45  1  1  0  0  0
 46 44  1  0  0  0  0
 48 50  1  0  0  0  0
 49 50  2  0  0  0  0
 50 47  1  0  0  0  0
M  END
>  <MODEL>
5

>  <REMARK>
 VINA RESULT:      -4.0      2.844      8.190
  Name = 
  18 active torsions:
  status: ('A' for Active; 'I' for Inactive)
    1  A    between atoms: C_2  and  C_26
    2  A    between atoms: C_2  and  C_32
    3  A    between atoms: C_2  and  C_47
    4  A    between atoms: C_5  and  C_49
    5  A    between atoms: C_6  and  C_17
    6  A    between atoms: C_6  and  C_35
    7  A    between atoms: C_7  and  C_17
    8  A    between atoms: C_7  and  O_50
    9  A    between atoms: C_10  and  S_31
   10  A    between atoms: C_15  and  C_27
   11  A    between atoms: C_19  and  C_20
   12  A    between atoms: C_24  and  C_49
   13  A    between atoms: C_27  and  C_34
   14  A    between atoms: S_31  and  C_34
   15  A    between atoms: C_32  and  C_36
   16  A    between atoms: N_41  and  C_44
   17  A    between atoms: N_42  and  C_45
   18  A    between atoms: C_43  and  O_50
                            x       y       z     vdW  Elec       q    Type
                         _______ _______ _______ _____ _____    ______ ____

>  <TORSDO>
F 18

$$$$
=
 OpenBabel11072412053D

 50 56  0  0  1  0  0  0  0  0999 V2000
  159.5930  211.7300  152.3540 N   0  0  0  0  0  0  0  0  0  0  0  0
  159.8900  212.4160  151.1300 C   0  0  0  0  0  3  0  0  0  0  0  0
  159.4500  213.6560  150.9130 C   0  0  0  0  0  0  0  0  0  0  0  0
  158.4980  214.2740  151.9070 C   0  0  0  0  0  2  0  0  0  0  0  0
  158.7980  213.8120  153.3320 C   0  0  0  0  0  2  0  0  0  0  0  0
  159.0600  212.3310  153.3830 C   0  0  0  0  0  0  0  0  0  0  0  0
  158.8930  211.6560  154.5950 O   0  0  0  0  0  0  0  0  0  0  0  0
  159.9850  211.4120  155.4770 C   0  0  0  0  0  2  0  0  0  0  0  0
  159.5260  210.4970  156.6100 C   0  0  0  0  0  2  0  0  0  0  0  0
  159.3610  209.0430  156.1700 C   0  0  0  0  0  2  0  0  0  0  0  0
  160.5530  208.5090  155.4480 C   0  0  0  0  0  0  0  0  0  0  0  0
  161.6370  209.1540  155.4960 O   0  0  0  0  0  0  0  0  0  0  0  0
  160.4820  207.2580  154.7470 N   0  0  0  0  0  2  0  0  0  0  0  0
  161.2480  206.0430  151.7050 C   0  0  0  0  0  0  0  0  0  0  0  0
  160.9970  205.9570  150.3370 C   0  0  0  0  0  3  0  0  0  0  0  0
  161.2310  204.9340  152.5020 C   0  0  0  0  0  0  0  0  0  0  0  0
  160.7040  203.5460  150.6170 C   0  0  0  0  0  0  0  0  0  0  0  0
  161.5300  207.2570  152.5070 C   0  0  0  0  0  2  0  0  0  0  0  0
  162.8020  207.0320  154.5400 O   0  0  0  0  0  1  0  0  0  0  0  0
  161.4490  205.2550  153.8600 N   0  0  0  0  0  2  0  0  0  0  0  0
  160.9570  203.6620  151.9950 C   0  0  0  0  0  3  0  0  0  0  0  0
  161.5810  206.7110  153.9530 C   0  0  1  0  0  0  0  0  0  0  0  0
  160.7190  204.6900  149.7930 C   0  0  0  0  0  3  0  0  0  0  0  0
  160.2020  201.9700  149.9460 S   0  0  0  0  0  0  0  0  0  0  0  0
  160.9220  202.2760  148.3090 C   0  0  0  0  0  2  0  0  0  0  0  0
  159.9060  201.8000  147.2800 C   0  0  0  0  0  2  0  0  0  0  0  0
  159.9030  202.0740  144.8660 O   0  0  0  0  0  0  0  0  0  0  0  0
  160.5820  201.4760  145.9490 C   0  0  1  0  0  3  0  0  0  0  0  0
  161.1160  202.6890  145.2410 C   0  0  2  0  0  3  0  0  0  0  0  0
  160.7800  204.0490  145.8360 C   0  0  0  0  0  2  0  0  0  0  0  0
  161.9110  205.0240  145.5650 C   0  0  0  0  0  1  0  0  0  0  0  0
  160.0550  214.4250  149.7660 C   0  0  0  0  0  2  0  0  0  0  0  0
  160.4110  214.1590  145.6150 C   0  0  0  0  0  2  0  0  0  0  0  0
  159.9070  213.7790  148.3680 C   0  0  2  0  0  0  0  0  0  0  0  0
  158.8440  214.4530  147.5900 C   0  0  2  0  0  3  0  0  0  0  0  0
  160.8500  212.9960  146.2580 O   0  0  0  0  0  0  0  0  0  0  0  0
  158.6580  213.0490  148.0200 N   0  0  2  0  0  0  0  0  0  0  0  0
  158.9840  214.4530  146.0540 C   0  0  0  0  0  2  0  0  0  0  0  0
  161.1850  213.4100  147.5560 C   0  0  2  0  0  3  0  0  0  0  0  0
  156.3470  212.5890  148.5320 C   0  0  0  0  0  2  0  0  0  0  0  0
  156.5680  214.0510  148.8470 C   0  0  0  0  0  2  0  0  0  0  0  0
  157.6770  213.0490  149.1080 C   0  0  0  0  0  3  0  0  0  0  0  0
  162.0620  212.3770  148.2750 C   0  0  2  0  0  3  0  0  0  0  0  0
  163.7270  214.0540  147.7370 O   0  0  0  0  0  1  0  0  0  0  0  0
  164.3230  211.7710  147.3240 C   0  0  0  0  0  1  0  0  0  0  0  0
  163.5490  212.7460  148.1870 C   0  0  2  0  0  3  0  0  0  0  0  0
  161.7960  210.8810  147.9720 C   0  0  0  0  0  2  0  0  0  0  0  0
  162.2650  208.6690  148.7980 O   0  0  0  0  0  0  0  0  0  0  0  0
  162.4330  210.3650  150.3240 O   0  0  0  0  0  1  0  0  0  0  0  0
  162.1470  209.8960  149.0490 C   0  0  0  0  0  0  0  0  0  0  0  0
  1  6  2  0  0  0  0
  2  1  1  0  0  0  0
  3  2  2  0  0  0  0
  3  4  1  0  0  0  0
  4  5  1  0  0  0  0
  5  6  1  0  0  0  0
  6  7  1  0  0  0  0
  7  8  1  0  0  0  0
  8  9  1  0  0  0  0
 10  9  1  0  0  0  0
 11 12  2  0  0  0  0
 11 10  1  0  0  0  0
 13 11  1  0  0  0  0
 14 16  1  0  0  0  0
 14 18  1  0  0  0  0
 15 14  2  0  0  0  0
 16 20  1  0  0  0  0
 17 21  1  0  0  0  0
 18 22  1  0  0  0  0
 20 22  1  0  0  0  0
 21 16  2  0  0  0  0
 22 19  1  1  0  0  0
 22 13  1  0  0  0  0
 23 15  1  0  0  0  0
 23 17  2  0  0  0  0
 24 17  1  0  0  0  0
 25 24  1  0  0  0  0
 26 25  1  0  0  0  0
 27 29  1  0  0  0  0
 27 28  1  0  0  0  0
 28 26  1  1  0  0  0
 29 30  1  1  0  0  0
 29 28  1  0  0  0  0
 31 30  1  0  0  0  0
 32  3  1  0  0  0  0
 33 38  1  0  0  0  0
 33 36  1  0  0  0  0
 34 32  1  1  0  0  0
 35 38  1  6  0  0  0
 35 37  1  0  0  0  0
 35 34  1  0  0  0  0
 36 39  1  0  0  0  0
 37 34  1  0  0  0  0
 37 42  1  1  0  0  0
 39 43  1  1  0  0  0
 39 34  1  0  0  0  0
 40 41  1  0  0  0  0
 40 42  1  0  0  0  0
 41 42  1  0  0  0  0
 43 47  1  6  0  0  0
 44 46  1  0  0  0  0
 46 45  1  6  0  0  0
 46 43  1  0  0  0  0
 47 50  1  0  0  0  0
 48 50  2  0  0  0  0
 50 49  1  0  0  0  0
M  END
>  <MODEL>
6

>  <REMARK>
 VINA RESULT:      -3.1      1.575      2.396
  Name = 
  18 active torsions:
  status: ('A' for Active; 'I' for Inactive)
    1  A    between atoms: C_2  and  C_26
    2  A    between atoms: C_2  and  C_32
    3  A    between atoms: C_2  and  C_47
    4  A    between atoms: C_5  and  C_49
    5  A    between atoms: C_6  and  C_17
    6  A    between atoms: C_6  and  C_35
    7  A    between atoms: C_7  and  C_17
    8  A    between atoms: C_7  and  O_50
    9  A    between atoms: C_10  and  S_31
   10  A    between atoms: C_15  and  C_27
   11  A    between atoms: C_19  and  C_20
   12  A    between atoms: C_24  and  C_49
   13  A    between atoms: C_27  and  C_34
   14  A    between atoms: S_31  and  C_34
   15  A    between atoms: C_32  and  C_36
   16  A    between atoms: N_41  and  C_44
   17  A    between atoms: N_42  and  C_45
   18  A    between atoms: C_43  and  O_50
                            x       y       z     vdW  Elec       q    Type
                         _______ _______ _______ _____ _____    ______ ____

>  <TORSDO>
F 18

$$$$
=
 OpenBabel11072412053D

 50 56  0  0  1  0  0  0  0  0999 V2000
  160.6100  204.7860  150.9690 N   0  0  0  0  0  0  0  0  0  0  0  0
  160.2500  204.0800  149.7730 C   0  0  0  0  0  3  0  0  0  0  0  0
  160.5980  202.8040  149.5970 C   0  0  0  0  0  0  0  0  0  0  0  0
  161.5150  202.1560  150.6050 C   0  0  0  0  0  2  0  0  0  0  0  0
  161.2640  202.6880  152.0140 C   0  0  0  0  0  2  0  0  0  0  0  0
  161.1090  204.1850  152.0140 C   0  0  0  0  0  0  0  0  0  0  0  0
  161.3370  204.8880  153.1990 O   0  0  0  0  0  0  0  0  0  0  0  0
  161.1380  206.2960  153.2900 C   0  0  0  0  0  2  0  0  0  0  0  0
  161.4670  206.7640  154.7050 C   0  0  0  0  0  2  0  0  0  0  0  0
  160.3330  207.5600  155.3470 C   0  0  0  0  0  2  0  0  0  0  0  0
  160.5140  209.0380  155.2330 C   0  0  0  0  0  0  0  0  0  0  0  0
  161.6600  209.4940  154.9640 O   0  0  0  0  0  0  0  0  0  0  0  0
  159.3950  209.9240  155.3800 N   0  0  0  0  0  2  0  0  0  0  0  0
  158.0950  212.6970  153.9860 C   0  0  0  0  0  0  0  0  0  0  0  0
  157.0380  213.3590  153.3660 C   0  0  0  0  0  3  0  0  0  0  0  0
  159.3090  212.5640  153.3740 C   0  0  0  0  0  0  0  0  0  0  0  0
  158.5050  213.7510  151.4500 C   0  0  0  0  0  0  0  0  0  0  0  0
  158.1060  212.0340  155.3120 C   0  0  0  0  0  2  0  0  0  0  0  0
  160.1990  211.8240  156.4860 O   0  0  0  0  0  1  0  0  0  0  0  0
  160.2140  211.8080  154.1510 N   0  0  0  0  0  2  0  0  0  0  0  0
  159.5530  213.0750  152.0970 C   0  0  0  0  0  3  0  0  0  0  0  0
  159.5070  211.3820  155.3610 C   0  0  1  0  0  0  0  0  0  0  0  0
  157.2510  213.8880  152.0800 C   0  0  0  0  0  3  0  0  0  0  0  0
  158.7180  214.2900  149.7620 S   0  0  0  0  0  0  0  0  0  0  0  0
  160.4360  213.7200  149.6450 C   0  0  0  0  0  2  0  0  0  0  0  0
  160.9720  214.1920  148.3000 C   0  0  0  0  0  2  0  0  0  0  0  0
  162.2260  212.2150  147.6510 O   0  0  0  0  0  0  0  0  0  0  0  0
  162.3380  213.5760  148.0060 C   0  0  1  0  0  3  0  0  0  0  0  0
  162.4870  213.1040  146.5880 C   0  0  2  0  0  3  0  0  0  0  0  0
  161.2470  213.1450  145.7050 C   0  0  0  0  0  2  0  0  0  0  0  0
  161.6240  213.6090  144.3100 C   0  0  0  0  0  1  0  0  0  0  0  0
  159.9280  202.0410  148.4830 C   0  0  0  0  0  2  0  0  0  0  0  0
  159.7140  203.3300  144.5190 C   0  0  0  0  0  2  0  0  0  0  0  0
  160.4500  202.3320  147.0560 C   0  0  2  0  0  0  0  0  0  0  0  0
  159.9120  201.3480  146.0920 C   0  0  2  0  0  3  0  0  0  0  0  0
  160.8320  203.8470  145.1820 O   0  0  0  0  0  0  0  0  0  0  0  0
  161.3620  201.3630  146.3910 N   0  0  2  0  0  0  0  0  0  0  0  0
  159.7350  201.8120  144.6320 C   0  0  0  0  0  2  0  0  0  0  0  0
  160.4940  203.8030  146.5420 C   0  0  2  0  0  3  0  0  0  0  0  0
  162.3000  199.1420  146.3330 C   0  0  0  0  0  2  0  0  0  0  0  0
  160.8580  198.9820  146.7610 C   0  0  0  0  0  2  0  0  0  0  0  0
  161.6510  200.1920  147.2220 C   0  0  0  0  0  3  0  0  0  0  0  0
  161.4110  204.6960  147.3870 C   0  0  2  0  0  3  0  0  0  0  0  0
  160.3840  206.5770  146.2550 O   0  0  0  0  0  1  0  0  0  0  0  0
  161.8970  207.0880  148.0410 C   0  0  0  0  0  1  0  0  0  0  0  0
  160.8660  206.1270  147.4850 C   0  0  2  0  0  3  0  0  0  0  0  0
  162.9290  204.6520  147.0800 C   0  0  0  0  0  2  0  0  0  0  0  0
  164.0230  203.8660  145.0850 O   0  0  0  0  0  1  0  0  0  0  0  0
  162.8670  205.8300  144.8880 O   0  0  0  0  0  0  0  0  0  0  0  0
  163.3350  204.7620  145.6410 C   0  0  0  0  0  0  0  0  0  0  0  0
  1  6  2  0  0  0  0
  2  1  1  0  0  0  0
  3  2  2  0  0  0  0
  3  4  1  0  0  0  0
  4  5  1  0  0  0  0
  5  6  1  0  0  0  0
  6  7  1  0  0  0  0
  7  8  1  0  0  0  0
  8  9  1  0  0  0  0
  9 10  1  0  0  0  0
 11 10  1  0  0  0  0
 11 13  1  0  0  0  0
 12 11  2  0  0  0  0
 14 18  1  0  0  0  0
 15 14  2  0  0  0  0
 16 14  1  0  0  0  0
 16 20  1  0  0  0  0
 17 23  2  0  0  0  0
 17 21  1  0  0  0  0
 18 22  1  0  0  0  0
 20 22  1  0  0  0  0
 21 16  2  0  0  0  0
 22 13  1  0  0  0  0
 22 19  1  1  0  0  0
 23 15  1  0  0  0  0
 24 17  1  0  0  0  0
 25 24  1  0  0  0  0
 26 25  1  0  0  0  0
 27 28  1  0  0  0  0
 28 26  1  6  0  0  0
 29 30  1  6  0  0  0
 29 27  1  0  0  0  0
 29 28  1  0  0  0  0
 31 30  1  0  0  0  0
 32  3  1  0  0  0  0
 33 38  1  0  0  0  0
 33 36  1  0  0  0  0
 34 32  1  1  0  0  0
 35 38  1  6  0  0  0
 35 37  1  0  0  0  0
 35 34  1  0  0  0  0
 36 39  1  0  0  0  0
 37 34  1  0  0  0  0
 37 42  1  1  0  0  0
 39 34  1  0  0  0  0
 39 43  1  1  0  0  0
 40 41  1  0  0  0  0
 40 42  1  0  0  0  0
 41 42  1  0  0  0  0
 43 47  1  6  0  0  0
 43 46  1  0  0  0  0
 44 46  1  0  0  0  0
 46 45  1  6  0  0  0
 48 50  1  0  0  0  0
 49 50  2  0  0  0  0
 50 47  1  0  0  0  0
M  END
>  <MODEL>
7

>  <REMARK>
 VINA RESULT:      -3.0      3.260      8.753
  Name = 
  18 active torsions:
  status: ('A' for Active; 'I' for Inactive)
    1  A    between atoms: C_2  and  C_26
    2  A    between atoms: C_2  and  C_32
    3  A    between atoms: C_2  and  C_47
    4  A    between atoms: C_5  and  C_49
    5  A    between atoms: C_6  and  C_17
    6  A    between atoms: C_6  and  C_35
    7  A    between atoms: C_7  and  C_17
    8  A    between atoms: C_7  and  O_50
    9  A    between atoms: C_10  and  S_31
   10  A    between atoms: C_15  and  C_27
   11  A    between atoms: C_19  and  C_20
   12  A    between atoms: C_24  and  C_49
   13  A    between atoms: C_27  and  C_34
   14  A    between atoms: S_31  and  C_34
   15  A    between atoms: C_32  and  C_36
   16  A    between atoms: N_41  and  C_44
   17  A    between atoms: N_42  and  C_45
   18  A    between atoms: C_43  and  O_50
                            x       y       z     vdW  Elec       q    Type
                         _______ _______ _______ _____ _____    ______ ____

>  <TORSDO>
F 18

$$$$
=
 OpenBabel11072412053D

 50 56  0  0  1  0  0  0  0  0999 V2000
  162.1650  205.6140  151.4380 N   0  0  0  0  0  0  0  0  0  0  0  0
  161.8940  205.1750  150.1000 C   0  0  0  0  0  3  0  0  0  0  0  0
  161.1680  204.0800  149.8680 C   0  0  0  0  0  0  0  0  0  0  0  0
  160.7670  203.2150  151.0370 C   0  0  0  0  0  2  0  0  0  0  0  0
  160.5060  204.0500  152.2890 C   0  0  0  0  0  2  0  0  0  0  0  0
  161.5680  205.0990  152.4780 C   0  0  0  0  0  0  0  0  0  0  0  0
  161.7730  205.6320  153.7530 O   0  0  0  0  0  0  0  0  0  0  0  0
  161.3420  206.9450  154.0990 C   0  0  0  0  0  2  0  0  0  0  0  0
  160.1540  206.8540  155.0520 C   0  0  0  0  0  2  0  0  0  0  0  0
  160.4320  207.4920  156.4120 C   0  0  0  0  0  2  0  0  0  0  0  0
  160.6430  208.9690  156.3360 C   0  0  0  0  0  0  0  0  0  0  0  0
  161.5510  209.4930  157.0390 O   0  0  0  0  0  0  0  0  0  0  0  0
  159.8580  209.7730  155.4450 N   0  0  0  0  0  2  0  0  0  0  0  0
  158.4160  212.4930  154.0860 C   0  0  0  0  0  0  0  0  0  0  0  0
  157.3030  213.1280  153.5390 C   0  0  0  0  0  3  0  0  0  0  0  0
  159.5750  212.3530  153.3770 C   0  0  0  0  0  0  0  0  0  0  0  0
  158.5990  213.4750  151.4950 C   0  0  0  0  0  0  0  0  0  0  0  0
  158.5450  211.8700  155.4250 C   0  0  0  0  0  2  0  0  0  0  0  0
  160.7320  211.7120  156.4230 O   0  0  0  0  0  1  0  0  0  0  0  0
  160.5510  211.6270  154.0970 N   0  0  0  0  0  2  0  0  0  0  0  0
  159.7050  212.8280  152.0710 C   0  0  0  0  0  3  0  0  0  0  0  0
  159.9530  211.2320  155.3740 C   0  0  1  0  0  0  0  0  0  0  0  0
  157.4010  213.6200  152.2240 C   0  0  0  0  0  3  0  0  0  0  0  0
  158.6640  213.9660  149.7800 S   0  0  0  0  0  0  0  0  0  0  0  0
  160.4370  213.6260  149.6000 C   0  0  0  0  0  2  0  0  0  0  0  0
  160.7730  213.7810  148.1240 C   0  0  0  0  0  2  0  0  0  0  0  0
  159.2520  213.3130  146.2880 O   0  0  0  0  0  0  0  0  0  0  0  0
  160.0600  212.7230  147.2840 C   0  0  1  0  0  3  0  0  0  0  0  0
  160.4600  212.7410  145.8360 C   0  0  2  0  0  3  0  0  0  0  0  0
  161.3650  213.8770  145.3760 C   0  0  0  0  0  2  0  0  0  0  0  0
  162.7170  213.3250  144.9650 C   0  0  0  0  0  1  0  0  0  0  0  0
  160.6600  203.8570  148.4670 C   0  0  0  0  0  2  0  0  0  0  0  0
  164.1850  204.1390  146.2510 C   0  0  0  0  0  2  0  0  0  0  0  0
  161.5830  204.3490  147.3280 C   0  0  2  0  0  0  0  0  0  0  0  0
  162.5900  205.3010  147.8460 C   0  0  2  0  0  3  0  0  0  0  0  0
  163.0670  203.9260  145.4380 O   0  0  0  0  0  0  0  0  0  0  0  0
  161.5460  205.7770  146.9120 N   0  0  2  0  0  0  0  0  0  0  0  0
  163.9420  205.3730  147.1070 C   0  0  0  0  0  2  0  0  0  0  0  0
  162.1200  203.3270  146.2810 C   0  0  2  0  0  3  0  0  0  0  0  0
  160.8290  208.0360  147.3570 C   0  0  0  0  0  2  0  0  0  0  0  0
  161.3030  207.4740  148.6780 C   0  0  0  0  0  2  0  0  0  0  0  0
  160.5900  206.5710  147.6870 C   0  0  0  0  0  3  0  0  0  0  0  0
  160.9950  202.6510  145.4870 C   0  0  2  0  0  3  0  0  0  0  0  0
  159.0440  203.0770  144.1130 O   0  0  0  0  0  1  0  0  0  0  0  0
  160.7880  204.7170  144.0470 C   0  0  0  0  0  1  0  0  0  0  0  0
  160.0450  203.6860  144.8710 C   0  0  2  0  0  3  0  0  0  0  0  0
  160.2460  201.4780  146.1670 C   0  0  0  0  0  2  0  0  0  0  0  0
  161.5790  199.4740  146.1640 O   0  0  0  0  0  0  0  0  0  0  0  0
  161.3980  200.5540  148.1720 O   0  0  0  0  0  1  0  0  0  0  0  0
  161.0870  200.4250  146.8250 C   0  0  0  0  0  0  0  0  0  0  0  0
  1  6  2  0  0  0  0
  2  1  1  0  0  0  0
  3  2  2  0  0  0  0
  3  4  1  0  0  0  0
  4  5  1  0  0  0  0
  5  6  1  0  0  0  0
  6  7  1  0  0  0  0
  7  8  1  0  0  0  0
  8  9  1  0  0  0  0
  9 10  1  0  0  0  0
 11 10  1  0  0  0  0
 11 12  2  0  0  0  0
 13 11  1  0  0  0  0
 14 18  1  0  0  0  0
 15 14  1  0  0  0  0
 16 14  2  0  0  0  0
 16 20  1  0  0  0  0
 17 21  2  0  0  0  0
 17 23  1  0  0  0  0
 20 22  1  0  0  0  0
 21 16  1  0  0  0  0
 22 18  1  0  0  0  0
 22 13  1  0  0  0  0
 22 19  1  1  0  0  0
 23 15  2  0  0  0  0
 24 17  1  0  0  0  0
 25 24  1  0  0  0  0
 26 25  1  0  0  0  0
 27 28  1  0  0  0  0
 28 26  1  1  0  0  0
 29 30  1  1  0  0  0
 29 27  1  0  0  0  0
 29 28  1  0  0  0  0
 31 30  1  0  0  0  0
 32  3  1  0  0  0  0
 33 38  1  0  0  0  0
 34 35  1  0  0  0  0
 34 32  1  1  0  0  0
 35 38  1  6  0  0  0
 36 33  1  0  0  0  0
 36 39  1  0  0  0  0
 37 34  1  0  0  0  0
 37 42  1  1  0  0  0
 37 35  1  0  0  0  0
 39 43  1  6  0  0  0
 39 34  1  0  0  0  0
 40 42  1  0  0  0  0
 40 41  1  0  0  0  0
 42 41  1  0  0  0  0
 43 47  1  1  0  0  0
 44 46  1  0  0  0  0
 46 45  1  6  0  0  0
 46 43  1  0  0  0  0
 47 50  1  0  0  0  0
 48 50  2  0  0  0  0
 50 49  1  0  0  0  0
M  END
>  <MODEL>
8

>  <REMARK>
 VINA RESULT:      -2.8      2.834      8.195
  Name = 
  18 active torsions:
  status: ('A' for Active; 'I' for Inactive)
    1  A    between atoms: C_2  and  C_26
    2  A    between atoms: C_2  and  C_32
    3  A    between atoms: C_2  and  C_47
    4  A    between atoms: C_5  and  C_49
    5  A    between atoms: C_6  and  C_17
    6  A    between atoms: C_6  and  C_35
    7  A    between atoms: C_7  and  C_17
    8  A    between atoms: C_7  and  O_50
    9  A    between atoms: C_10  and  S_31
   10  A    between atoms: C_15  and  C_27
   11  A    between atoms: C_19  and  C_20
   12  A    between atoms: C_24  and  C_49
   13  A    between atoms: C_27  and  C_34
   14  A    between atoms: S_31  and  C_34
   15  A    between atoms: C_32  and  C_36
   16  A    between atoms: N_41  and  C_44
   17  A    between atoms: N_42  and  C_45
   18  A    between atoms: C_43  and  O_50
                            x       y       z     vdW  Elec       q    Type
                         _______ _______ _______ _____ _____    ______ ____

>  <TORSDO>
F 18

$$$$
=
 OpenBabel11072412053D

 50 56  0  0  1  0  0  0  0  0999 V2000
  161.7980  208.5280  140.3810 N   0  0  0  0  0  0  0  0  0  0  0  0
  161.7510  209.6210  139.4540 C   0  0  0  0  0  3  0  0  0  0  0  0
  161.9710  209.4310  138.1530 C   0  0  0  0  0  0  0  0  0  0  0  0
  162.4300  208.0710  137.6860 C   0  0  0  0  0  2  0  0  0  0  0  0
  161.8140  206.9530  138.5250 C   0  0  0  0  0  2  0  0  0  0  0  0
  161.8590  207.2830  139.9930 C   0  0  0  0  0  0  0  0  0  0  0  0
  161.7860  206.2430  140.9220 O   0  0  0  0  0  0  0  0  0  0  0  0
  162.2690  206.3870  142.2540 C   0  0  0  0  0  2  0  0  0  0  0  0
  161.0860  206.4770  143.2150 C   0  0  0  0  0  2  0  0  0  0  0  0
  160.7460  205.1370  143.8660 C   0  0  0  0  0  2  0  0  0  0  0  0
  161.6560  204.7840  144.9950 C   0  0  0  0  0  0  0  0  0  0  0  0
  162.3680  203.7450  144.9050 O   0  0  0  0  0  0  0  0  0  0  0  0
  161.7550  205.6350  146.1460 N   0  0  0  0  0  2  0  0  0  0  0  0
  161.5560  205.0030  149.4450 C   0  0  0  0  0  0  0  0  0  0  0  0
  160.8310  204.5700  150.5540 C   0  0  0  0  0  3  0  0  0  0  0  0
  162.0840  206.2620  149.3870 C   0  0  0  0  0  0  0  0  0  0  0  0
  161.1970  206.7690  151.5590 C   0  0  0  0  0  0  0  0  0  0  0  0
  161.8500  204.2570  148.1990 C   0  0  0  0  0  2  0  0  0  0  0  0
  163.8130  204.8450  146.9330 O   0  0  0  0  0  1  0  0  0  0  0  0
  162.7240  206.5110  148.1530 N   0  0  0  0  0  2  0  0  0  0  0  0
  161.9210  207.1800  150.4270 C   0  0  0  0  0  3  0  0  0  0  0  0
  162.5620  205.3150  147.3240 C   0  0  1  0  0  0  0  0  0  0  0  0
  160.6500  205.4710  151.6190 C   0  0  0  0  0  3  0  0  0  0  0  0
  160.8340  207.9510  152.8460 S   0  0  0  0  0  0  0  0  0  0  0  0
  160.9440  209.3930  151.7510 C   0  0  0  0  0  2  0  0  0  0  0  0
  160.2630  210.5500  152.4680 C   0  0  0  0  0  2  0  0  0  0  0  0
  160.5190  211.8740  154.4890 O   0  0  0  0  0  0  0  0  0  0  0  0
  160.6350  210.5750  153.9490 C   0  0  1  0  0  3  0  0  0  0  0  0
  159.4950  210.9710  154.8440 C   0  0  2  0  0  3  0  0  0  0  0  0
  158.2120  211.4400  154.1740 C   0  0  0  0  0  2  0  0  0  0  0  0
  157.1740  211.7790  155.2280 C   0  0  0  0  0  1  0  0  0  0  0  0
  161.5980  210.5430  137.2060 C   0  0  0  0  0  2  0  0  0  0  0  0
  159.5340  214.1650  137.4210 C   0  0  0  0  0  2  0  0  0  0  0  0
  161.0820  211.8440  137.8640 C   0  0  2  0  0  0  0  0  0  0  0  0
  161.7980  213.0220  137.3270 C   0  0  2  0  0  3  0  0  0  0  0  0
  159.2700  213.3410  138.5200 O   0  0  0  0  0  0  0  0  0  0  0  0
  161.9840  212.6360  138.7430 N   0  0  2  0  0  0  0  0  0  0  0  0
  161.0380  214.3630  137.3070 C   0  0  0  0  0  2  0  0  0  0  0  0
  159.5500  212.0420  138.0700 C   0  0  2  0  0  3  0  0  0  0  0  0
  164.2270  213.0840  139.5090 C   0  0  0  0  0  2  0  0  0  0  0  0
  164.3330  212.8020  138.0280 C   0  0  0  0  0  2  0  0  0  0  0  0
  163.3190  212.0460  138.8670 C   0  0  0  0  0  3  0  0  0  0  0  0
  158.9360  210.9770  138.9870 C   0  0  2  0  0  3  0  0  0  0  0  0
  157.1130  209.3900  139.1780 O   0  0  0  0  0  1  0  0  0  0  0  0
  158.2420  209.4870  137.0680 C   0  0  0  0  0  1  0  0  0  0  0  0
  157.7790  210.2420  138.2970 C   0  0  2  0  0  3  0  0  0  0  0  0
  158.5990  211.3940  140.4410 C   0  0  0  0  0  2  0  0  0  0  0  0
  160.7790  211.2870  141.4580 O   0  0  0  0  0  0  0  0  0  0  0  0
  159.6280  213.2420  141.7540 O   0  0  0  0  0  1  0  0  0  0  0  0
  159.7230  211.9460  141.2670 C   0  0  0  0  0  0  0  0  0  0  0  0
  2  1  1  0  0  0  0
  3  2  2  0  0  0  0
  4  3  1  0  0  0  0
  4  5  1  0  0  0  0
  5  6  1  0  0  0  0
  6  1  2  0  0  0  0
  6  7  1  0  0  0  0
  7  8  1  0  0  0  0
  8  9  1  0  0  0  0
  9 10  1  0  0  0  0
 10 11  1  0  0  0  0
 11 13  1  0  0  0  0
 12 11  2  0  0  0  0
 13 22  1  0  0  0  0
 14 15  1  0  0  0  0
 15 23  2  0  0  0  0
 16 14  2  0  0  0  0
 16 21  1  0  0  0  0
 17 23  1  0  0  0  0
 17 24  1  0  0  0  0
 18 14  1  0  0  0  0
 20 16  1  0  0  0  0
 21 17  2  0  0  0  0
 22 19  1  6  0  0  0
 22 20  1  0  0  0  0
 22 18  1  0  0  0  0
 25 26  1  0  0  0  0
 25 24  1  0  0  0  0
 27 29  1  0  0  0  0
 28 26  1  6  0  0  0
 28 27  1  0  0  0  0
 28 29  1  0  0  0  0
 29 30  1  6  0  0  0
 30 31  1  0  0  0  0
 32  3  1  0  0  0  0
 33 36  1  0  0  0  0
 34 32  1  6  0  0  0
 34 39  1  0  0  0  0
 34 37  1  0  0  0  0
 35 38  1  1  0  0  0
 35 34  1  0  0  0  0
 35 37  1  0  0  0  0
 37 42  1  6  0  0  0
 38 33  1  0  0  0  0
 39 36  1  0  0  0  0
 39 43  1  1  0  0  0
 41 42  1  0  0  0  0
 41 40  1  0  0  0  0
 42 40  1  0  0  0  0
 43 47  1  1  0  0  0
 46 45  1  6  0  0  0
 46 43  1  0  0  0  0
 46 44  1  0  0  0  0
 47 50  1  0  0  0  0
 50 48  2  0  0  0  0
 50 49  1  0  0  0  0
M  END
>  <MODEL>
9

>  <REMARK>
 VINA RESULT:      -2.5      5.343     10.314
  Name = 
  18 active torsions:
  status: ('A' for Active; 'I' for Inactive)
    1  A    between atoms: C_2  and  C_26
    2  A    between atoms: C_2  and  C_32
    3  A    between atoms: C_2  and  C_47
    4  A    between atoms: C_5  and  C_49
    5  A    between atoms: C_6  and  C_17
    6  A    between atoms: C_6  and  C_35
    7  A    between atoms: C_7  and  C_17
    8  A    between atoms: C_7  and  O_50
    9  A    between atoms: C_10  and  S_31
   10  A    between atoms: C_15  and  C_27
   11  A    between atoms: C_19  and  C_20
   12  A    between atoms: C_24  and  C_49
   13  A    between atoms: C_27  and  C_34
   14  A    between atoms: S_31  and  C_34
   15  A    between atoms: C_32  and  C_36
   16  A    between atoms: N_41  and  C_44
   17  A    between atoms: N_42  and  C_45
   18  A    between atoms: C_43  and  O_50
                            x       y       z     vdW  Elec       q    Type
                         _______ _______ _______ _____ _____    ______ ____

>  <TORSDO>
F 18

$$$$
