=
 OpenBabel11072412333D

 51 56  0  0  1  0  0  0  0  0999 V2000
  160.3600  209.0570  152.0440 C   0  0  0  0  0  2  0  0  0  0  0  0
  161.6500  208.5060  152.6070 C   0  0  1  0  0  3  0  0  0  0  0  0
  161.0880  210.9600  155.8270 O   0  0  0  0  0  1  0  0  0  0  0  0
  159.2080  211.0820  154.3570 C   0  0  0  0  0  2  0  0  0  0  0  0
  159.0530  211.0120  152.8500 C   0  0  0  0  0  2  0  0  0  0  0  0
  161.4300  210.7840  153.4160 C   0  0  2  0  0  3  0  0  0  0  0  0
  160.6620  211.4220  154.5770 C   0  0  2  0  0  3  0  0  0  0  0  0
  160.4030  210.5540  152.3090 C   0  0  1  0  0  0  0  0  0  0  0  0
  162.0040  209.4130  153.7650 C   0  0  0  0  0  2  0  0  0  0  0  0
  161.7490  206.7310  154.6560 O   0  0  0  0  0  1  0  0  0  0  0  0
  161.4280  206.7960  153.1800 P   0  0  1  0  0  0  0  0  0  0  0  0
  159.8220  206.3150  152.9330 O   0  0  0  0  0  0  0  0  0  0  0  0
  162.5380  205.6910  152.2450 C   0  0  2  0  0  3  0  0  0  0  0  0
  163.4700  206.4640  151.5760 F   0  0  0  0  0  0  0  0  0  0  0  0
  161.7550  204.8200  151.2560 C   0  0  1  0  0  3  0  0  0  0  0  0
  161.3120  203.5210  151.8630 C   0  0  0  0  0  0  0  0  0  0  0  0
  160.1670  203.4060  152.3730 O   0  0  0  0  0  1  0  0  0  0  0  0
  162.1650  202.4290  151.8360 O   0  0  0  0  0  0  0  0  0  0  0  0
  160.5700  205.5620  150.6300 C   0  0  0  0  0  2  0  0  0  0  0  0
  160.9920  206.4300  149.4450 C   0  0  0  0  0  2  0  0  0  0  0  0
  160.8860  205.7960  145.6730 C   0  0  2  0  0  3  0  0  0  0  0  0
  161.0620  206.6730  146.8980 C   0  0  0  0  0  2  0  0  0  0  0  0
  160.7440  205.7470  148.1090 C   0  0  1  0  0  3  0  0  0  0  0  0
  162.1660  205.0590  145.9840 C   0  0  1  0  0  3  0  0  0  0  0  0
  161.6570  203.9380  146.6410 O   0  0  0  0  0  0  0  0  0  0  0  0
  161.7890  205.3180  144.6860 O   0  0  0  0  0  0  0  0  0  0  0  0
  161.5110  204.3820  147.9900 C   0  0  0  0  0  2  0  0  0  0  0  0
  161.9240  211.0910  150.5420 O   0  0  0  0  0  0  0  0  0  0  0  0
  160.7910  211.2960  151.0600 C   0  0  0  0  0  0  0  0  0  0  0  0
  159.9030  212.2230  150.4840 O   0  0  0  0  0  0  0  0  0  0  0  0
  160.7810  214.4530  150.2480 C   0  0  0  0  0  1  0  0  0  0  0  0
  159.0920  213.5470  148.7950 O   0  0  0  0  0  0  0  0  0  0  0  0
  161.3560  212.5700  148.5790 C   0  0  2  0  0  3  0  0  0  0  0  0
  160.7870  212.2670  147.1950 C   0  0  0  0  0  2  0  0  0  0  0  0
  159.4080  214.3440  147.6740 C   0  0  0  0  0  2  0  0  0  0  0  0
  160.1630  213.5320  146.6130 C   0  0  2  0  0  3  0  0  0  0  0  0
  160.2710  213.2050  149.5120 C   0  0  2  0  0  0  0  0  0  0  0  0
  159.3380  213.2630  145.3920 C   0  0  0  0  0  0  0  0  0  0  0  0
  160.9500  214.4530  143.8520 C   0  0  0  0  0  1  0  0  0  0  0  0
  159.7460  213.6600  144.0680 N   0  0  0  0  0  0  0  0  0  0  0  0
  158.2660  212.6250  145.5430 O   0  0  0  0  0  0  0  0  0  0  0  0
  157.9540  214.1160  142.4330 C   0  0  0  0  0  1  0  0  0  0  0  0
  159.0130  213.1330  142.9190 C   0  0  1  0  0  3  0  0  0  0  0  0
  161.6640  211.8370  139.8190 N   0  0  0  0  0  0  0  0  0  0  0  0
  160.2410  213.5050  140.7680 C   0  0  0  0  0  3  0  0  0  0  0  0
  161.3950  210.9830  140.8470 C   0  0  0  0  0  3  0  0  0  0  0  0
  161.1030  213.0780  139.7560 C   0  0  0  0  0  3  0  0  0  0  0  0
  160.5310  211.3740  141.8750 C   0  0  0  0  0  3  0  0  0  0  0  0
  159.9530  212.6520  141.8450 C   0  0  0  0  0  0  0  0  0  0  0  0
  162.4970  213.3700  148.4580 O   0  0  0  0  0  0  0  0  0  0  0  0
  163.3670  212.6330  147.6540 C   0  0  0  0  0  1  0  0  0  0  0  0
  1  8  1  0  0  0  0
  1  2  1  0  0  0  0
  2 11  1  1  0  0  0
  2  9  1  0  0  0  0
  4  7  1  0  0  0  0
  5  4  1  0  0  0  0
  6  9  1  1  0  0  0
  6  7  1  0  0  0  0
  7  3  1  1  0  0  0
  8 29  1  6  0  0  0
  8  5  1  0  0  0  0
  8  6  1  0  0  0  0
 11 12  2  6  0  0  0
 11 10  1  0  0  0  0
 13 14  1  6  0  0  0
 13 11  1  0  0  0  0
 15 19  1  1  0  0  0
 15 16  1  0  0  0  0
 15 13  1  0  0  0  0
 16 17  1  0  0  0  0
 18 16  2  0  0  0  0
 20 19  1  0  0  0  0
 21 24  1  0  0  0  0
 21 22  1  1  0  0  0
 22 23  1  0  0  0  0
 23 20  1  1  0  0  0
 24 26  1  6  0  0  0
 24 25  1  0  0  0  0
 25 27  1  0  0  0  0
 26 21  1  0  0  0  0
 27 23  1  0  0  0  0
 28 29  2  0  0  0  0
 30 29  1  0  0  0  0
 32 37  1  0  0  0  0
 33 50  1  6  0  0  0
 33 37  1  0  0  0  0
 34 33  1  0  0  0  0
 35 32  1  0  0  0  0
 36 38  1  6  0  0  0
 36 34  1  0  0  0  0
 36 35  1  0  0  0  0
 37 31  1  1  0  0  0
 37 30  1  0  0  0  0
 38 41  2  0  0  0  0
 39 40  1  0  0  0  0
 40 38  1  0  0  0  0
 43 42  1  6  0  0  0
 43 40  1  0  0  0  0
 44 46  1  0  0  0  0
 45 49  2  0  0  0  0
 46 48  2  0  0  0  0
 47 44  2  0  0  0  0
 47 45  1  0  0  0  0
 49 48  1  0  0  0  0
 49 43  1  0  0  0  0
 51 50  1  0  0  0  0
M  END
>  <MODEL>
1

>  <REMARK>
 VINA RESULT:      -5.7      0.000      0.000
  Name = 
  14 active torsions:
  status: ('A' for Active; 'I' for Inactive)
    1  A    between atoms: C_7  and  C_26
    2  A    between atoms: C_7  and  C_35
    3  A    between atoms: C_9  and  O_19
    4  A    between atoms: C_13  and  P_24
    5  A    between atoms: C_16  and  C_33
    6  A    between atoms: C_18  and  C_35
    7  A    between atoms: O_20  and  C_42
    8  A    between atoms: O_20  and  C_43
    9  A    between atoms: P_24  and  C_46
   10  A    between atoms: C_26  and  C_39
   11  A    between atoms: C_26  and  C_46
   12  A    between atoms: C_31  and  N_36
   13  A    between atoms: C_31  and  C_45
   14  A    between atoms: C_34  and  C_42
                            x       y       z     vdW  Elec       q    Type
                         _______ _______ _______ _____ _____    ______ ____

>  <TORSDO>
F 14

$$$$
=
 OpenBabel11072412333D

 51 56  0  0  1  0  0  0  0  0999 V2000
  161.2270  207.9250  154.4700 C   0  0  0  0  0  2  0  0  0  0  0  0
  160.4710  207.3780  153.2810 C   0  0  1  0  0  3  0  0  0  0  0  0
  161.7520  210.6450  151.1860 O   0  0  0  0  0  1  0  0  0  0  0  0
  162.7380  210.6200  153.3630 C   0  0  0  0  0  2  0  0  0  0  0  0
  162.2480  210.1760  154.7270 C   0  0  0  0  0  2  0  0  0  0  0  0
  160.4680  209.7960  153.0810 C   0  0  2  0  0  3  0  0  0  0  0  0
  161.4820  210.8130  152.5480 C   0  0  2  0  0  3  0  0  0  0  0  0
  160.9480  209.4190  154.4810 C   0  0  1  0  0  0  0  0  0  0  0  0
  160.4400  208.5030  152.2700 C   0  0  0  0  0  2  0  0  0  0  0  0
  162.7400  206.3000  152.2560 O   0  0  0  0  0  0  0  0  0  0  0  0
  161.3140  205.9240  152.5910 P   0  0  1  0  0  0  0  0  0  0  0  0
  161.3180  204.6710  153.7320 O   0  0  0  0  0  1  0  0  0  0  0  0
  160.4400  205.3670  151.0890 C   0  0  2  0  0  3  0  0  0  0  0  0
  159.2440  204.7830  151.4650 F   0  0  0  0  0  0  0  0  0  0  0  0
  161.2900  204.3790  150.2830 C   0  0  1  0  0  3  0  0  0  0  0  0
  161.0710  202.9560  150.7060 C   0  0  0  0  0  0  0  0  0  0  0  0
  161.4510  202.5550  151.8370 O   0  0  0  0  0  1  0  0  0  0  0  0
  160.4180  202.0820  149.8510 O   0  0  0  0  0  0  0  0  0  0  0  0
  161.0950  204.5340  148.7710 C   0  0  0  0  0  2  0  0  0  0  0  0
  162.3550  205.0510  148.0760 C   0  0  0  0  0  2  0  0  0  0  0  0
  162.1060  205.7340  144.3190 C   0  0  2  0  0  3  0  0  0  0  0  0
  162.6150  204.9760  145.5310 C   0  0  0  0  0  2  0  0  0  0  0  0
  162.0460  205.7460  146.7590 C   0  0  1  0  0  3  0  0  0  0  0  0
  160.7110  205.2010  144.5390 C   0  0  1  0  0  3  0  0  0  0  0  0
  160.1380  206.2710  145.2280 O   0  0  0  0  0  0  0  0  0  0  0  0
  161.2100  205.3940  143.2710 O   0  0  0  0  0  0  0  0  0  0  0  0
  160.5120  206.0300  146.5850 C   0  0  0  0  0  2  0  0  0  0  0  0
  160.2420  209.9060  156.7150 O   0  0  0  0  0  0  0  0  0  0  0  0
  159.9000  209.7490  155.5100 C   0  0  0  0  0  0  0  0  0  0  0  0
  158.5500  209.8660  155.1320 O   0  0  0  0  0  0  0  0  0  0  0  0
  157.0830  211.1320  156.5620 C   0  0  0  0  0  1  0  0  0  0  0  0
  156.8040  211.0050  154.1760 O   0  0  0  0  0  0  0  0  0  0  0  0
  158.7740  212.2710  154.9790 C   0  0  2  0  0  3  0  0  0  0  0  0
  158.5690  212.9120  153.6080 C   0  0  0  0  0  2  0  0  0  0  0  0
  156.1550  212.2500  154.0300 C   0  0  0  0  0  2  0  0  0  0  0  0
  157.1030  213.3030  153.4430 C   0  0  2  0  0  3  0  0  0  0  0  0
  157.7890  211.0740  155.1990 C   0  0  2  0  0  0  0  0  0  0  0  0
  156.7580  213.6760  152.0340 C   0  0  0  0  0  0  0  0  0  0  0  0
  158.8500  212.6280  151.0800 C   0  0  0  0  0  1  0  0  0  0  0  0
  157.5700  213.3050  150.9040 N   0  0  0  0  0  0  0  0  0  0  0  0
  155.6860  214.3060  151.8450 O   0  0  0  0  0  0  0  0  0  0  0  0
  155.8490  214.4520  149.5560 C   0  0  0  0  0  1  0  0  0  0  0  0
  157.0280  213.4860  149.5590 C   0  0  1  0  0  3  0  0  0  0  0  0
  160.0570  214.4520  146.6940 N   0  0  0  0  0  0  0  0  0  0  0  0
  157.7770  213.9670  147.2180 C   0  0  0  0  0  3  0  0  0  0  0  0
  160.4160  214.3160  148.0030 C   0  0  0  0  0  3  0  0  0  0  0  0
  158.7680  214.2790  146.2850 C   0  0  0  0  0  3  0  0  0  0  0  0
  159.4510  213.9990  148.9640 C   0  0  0  0  0  3  0  0  0  0  0  0
  158.1140  213.8300  148.5730 C   0  0  0  0  0  0  0  0  0  0  0  0
  158.6690  213.2450  155.9770 O   0  0  0  0  0  0  0  0  0  0  0  0
  159.9850  213.6270  156.2440 C   0  0  0  0  0  1  0  0  0  0  0  0
  1  8  1  0  0  0  0
  2 11  1  6  0  0  0
  2  1  1  0  0  0  0
  4  5  1  0  0  0  0
  6  9  1  6  0  0  0
  6  8  1  0  0  0  0
  7  3  1  6  0  0  0
  7  6  1  0  0  0  0
  7  4  1  0  0  0  0
  8  5  1  0  0  0  0
  8 29  1  1  0  0  0
  9  2  1  0  0  0  0
 11 10  2  6  0  0  0
 11 12  1  0  0  0  0
 13 14  1  1  0  0  0
 13 11  1  0  0  0  0
 15 19  1  6  0  0  0
 15 16  1  0  0  0  0
 15 13  1  0  0  0  0
 16 17  1  0  0  0  0
 18 16  2  0  0  0  0
 20 19  1  0  0  0  0
 21 24  1  0  0  0  0
 21 22  1  6  0  0  0
 22 23  1  0  0  0  0
 23 20  1  1  0  0  0
 24 26  1  6  0  0  0
 24 25  1  0  0  0  0
 25 27  1  0  0  0  0
 26 21  1  0  0  0  0
 27 23  1  0  0  0  0
 29 28  2  0  0  0  0
 30 37  1  0  0  0  0
 30 29  1  0  0  0  0
 32 37  1  0  0  0  0
 33 37  1  0  0  0  0
 33 50  1  1  0  0  0
 34 33  1  0  0  0  0
 35 32  1  0  0  0  0
 36 38  1  6  0  0  0
 36 34  1  0  0  0  0
 36 35  1  0  0  0  0
 37 31  1  1  0  0  0
 40 39  1  0  0  0  0
 40 38  1  0  0  0  0
 41 38  2  0  0  0  0
 43 42  1  1  0  0  0
 43 40  1  0  0  0  0
 44 46  1  0  0  0  0
 45 49  2  0  0  0  0
 46 48  2  0  0  0  0
 47 44  2  0  0  0  0
 47 45  1  0  0  0  0
 49 48  1  0  0  0  0
 49 43  1  0  0  0  0
 50 51  1  0  0  0  0
M  END
>  <MODEL>
2

>  <REMARK>
 VINA RESULT:      -4.1      3.091      5.288
  Name = 
  14 active torsions:
  status: ('A' for Active; 'I' for Inactive)
    1  A    between atoms: C_7  and  C_26
    2  A    between atoms: C_7  and  C_35
    3  A    between atoms: C_9  and  O_19
    4  A    between atoms: C_13  and  P_24
    5  A    between atoms: C_16  and  C_33
    6  A    between atoms: C_18  and  C_35
    7  A    between atoms: O_20  and  C_42
    8  A    between atoms: O_20  and  C_43
    9  A    between atoms: P_24  and  C_46
   10  A    between atoms: C_26  and  C_39
   11  A    between atoms: C_26  and  C_46
   12  A    between atoms: C_31  and  N_36
   13  A    between atoms: C_31  and  C_45
   14  A    between atoms: C_34  and  C_42
                            x       y       z     vdW  Elec       q    Type
                         _______ _______ _______ _____ _____    ______ ____

>  <TORSDO>
F 14

$$$$
=
 OpenBabel11072412333D

 51 56  0  0  1  0  0  0  0  0999 V2000
  162.6940  207.5210  150.5100 C   0  0  0  0  0  2  0  0  0  0  0  0
  161.5220  206.9070  151.2400 C   0  0  1  0  0  3  0  0  0  0  0  0
  160.2980  205.3960  147.6450 O   0  0  0  0  0  1  0  0  0  0  0  0
  162.4120  206.4880  147.4080 C   0  0  0  0  0  2  0  0  0  0  0  0
  163.0370  207.7080  148.0560 C   0  0  0  0  0  2  0  0  0  0  0  0
  160.7850  207.3830  148.9770 C   0  0  2  0  0  3  0  0  0  0  0  0
  160.9290  206.6460  147.6430 C   0  0  2  0  0  3  0  0  0  0  0  0
  162.1230  208.0820  149.2170 C   0  0  1  0  0  0  0  0  0  0  0  0
  160.5720  206.4400  150.1590 C   0  0  0  0  0  2  0  0  0  0  0  0
  161.5840  204.2220  151.6240 O   0  0  0  0  0  0  0  0  0  0  0  0
  162.0600  205.5060  152.2650 P   0  0  1  0  0  0  0  0  0  0  0  0
  163.7510  205.4890  152.3650 O   0  0  0  0  0  1  0  0  0  0  0  0
  161.3590  205.6720  153.9410 C   0  0  2  0  0  3  0  0  0  0  0  0
  160.4120  204.6810  154.1240 F   0  0  0  0  0  0  0  0  0  0  0  0
  160.7340  207.0560  154.1510 C   0  0  1  0  0  3  0  0  0  0  0  0
  160.0460  207.1790  155.4780 C   0  0  0  0  0  0  0  0  0  0  0  0
  158.8430  207.5410  155.5480 O   0  0  0  0  0  0  0  0  0  0  0  0
  160.7370  206.8630  156.6370 O   0  0  0  0  0  1  0  0  0  0  0  0
  161.7430  208.1910  153.9520 C   0  0  0  0  0  2  0  0  0  0  0  0
  161.0660  209.5030  153.5540 C   0  0  0  0  0  2  0  0  0  0  0  0
  160.3650  212.4150  155.9350 C   0  0  2  0  0  3  0  0  0  0  0  0
  160.0090  211.4720  154.8010 C   0  0  0  0  0  2  0  0  0  0  0  0
  161.2820  210.6020  154.5830 C   0  0  1  0  0  3  0  0  0  0  0  0
  160.2790  211.2870  156.9350 C   0  0  1  0  0  3  0  0  0  0  0  0
  161.6270  210.9390  157.0380 O   0  0  0  0  0  0  0  0  0  0  0  0
  159.8770  212.5620  157.2610 O   0  0  0  0  0  0  0  0  0  0  0  0
  161.8210  210.0400  155.9460 C   0  0  0  0  0  2  0  0  0  0  0  0
  161.9430  210.1130  150.4690 O   0  0  0  0  0  0  0  0  0  0  0  0
  161.9330  209.5700  149.3290 C   0  0  0  0  0  0  0  0  0  0  0  0
  161.7320  210.3460  148.1730 O   0  0  0  0  0  0  0  0  0  0  0  0
  162.9820  212.4040  148.1820 C   0  0  0  0  0  1  0  0  0  0  0  0
  160.9050  212.1250  149.3620 O   0  0  0  0  0  0  0  0  0  0  0  0
  160.7610  212.1540  146.8900 C   0  0  2  0  0  3  0  0  0  0  0  0
  159.3480  212.6000  147.2580 C   0  0  0  0  0  2  0  0  0  0  0  0
  160.5240  213.4840  149.3270 C   0  0  0  0  0  2  0  0  0  0  0  0
  159.4200  213.7230  148.2890 C   0  0  2  0  0  3  0  0  0  0  0  0
  161.5850  211.7680  148.1640 C   0  0  2  0  0  0  0  0  0  0  0  0
  158.0910  214.0240  148.9120 C   0  0  0  0  0  0  0  0  0  0  0  0
  158.8500  213.3540  151.2270 C   0  0  0  0  0  1  0  0  0  0  0  0
  157.8410  213.8960  150.3250 N   0  0  0  0  0  0  0  0  0  0  0  0
  157.1780  214.4460  148.1580 O   0  0  0  0  0  0  0  0  0  0  0  0
  155.3890  214.0190  150.0650 C   0  0  0  0  0  1  0  0  0  0  0  0
  156.6070  214.4530  150.8730 C   0  0  1  0  0  3  0  0  0  0  0  0
  156.2060  213.6940  155.0660 N   0  0  0  0  0  0  0  0  0  0  0  0
  155.2360  213.8840  152.8910 C   0  0  0  0  0  3  0  0  0  0  0  0
  157.4420  213.9960  154.5720 C   0  0  0  0  0  3  0  0  0  0  0  0
  155.1080  213.6410  154.2600 C   0  0  0  0  0  3  0  0  0  0  0  0
  157.6070  214.2510  153.2070 C   0  0  0  0  0  3  0  0  0  0  0  0
  156.4960  214.1870  152.3520 C   0  0  0  0  0  0  0  0  0  0  0  0
  161.3860  213.1460  146.1260 O   0  0  0  0  0  0  0  0  0  0  0  0
  161.4540  212.6140  144.8380 C   0  0  0  0  0  1  0  0  0  0  0  0
  1  2  1  0  0  0  0
  2 11  1  6  0  0  0
  4  7  1  0  0  0  0
  4  5  1  0  0  0  0
  5  8  1  0  0  0  0
  6  8  1  0  0  0  0
  6  9  1  1  0  0  0
  7  3  1  1  0  0  0
  7  6  1  0  0  0  0
  8 29  1  1  0  0  0
  8  1  1  0  0  0  0
  9  2  1  0  0  0  0
 11 10  2  6  0  0  0
 11 12  1  0  0  0  0
 11 13  1  0  0  0  0
 13 14  1  6  0  0  0
 13 15  1  0  0  0  0
 15 19  1  1  0  0  0
 15 16  1  0  0  0  0
 16 17  2  0  0  0  0
 16 18  1  0  0  0  0
 20 19  1  0  0  0  0
 21 22  1  6  0  0  0
 21 24  1  0  0  0  0
 21 26  1  0  0  0  0
 23 20  1  6  0  0  0
 23 22  1  0  0  0  0
 23 27  1  0  0  0  0
 24 25  1  1  0  0  0
 24 26  1  0  0  0  0
 27 25  1  0  0  0  0
 29 28  2  0  0  0  0
 30 29  1  0  0  0  0
 33 50  1  1  0  0  0
 33 34  1  0  0  0  0
 33 37  1  0  0  0  0
 34 36  1  0  0  0  0
 35 32  1  0  0  0  0
 36 38  1  1  0  0  0
 36 35  1  0  0  0  0
 37 30  1  0  0  0  0
 37 31  1  6  0  0  0
 37 32  1  0  0  0  0
 38 40  1  0  0  0  0
 40 43  1  0  0  0  0
 40 39  1  0  0  0  0
 41 38  2  0  0  0  0
 43 42  1  6  0  0  0
 43 49  1  0  0  0  0
 45 47  1  0  0  0  0
 46 44  1  0  0  0  0
 47 44  2  0  0  0  0
 48 46  2  0  0  0  0
 49 45  2  0  0  0  0
 49 48  1  0  0  0  0
 51 50  1  0  0  0  0
M  END
>  <MODEL>
3

>  <REMARK>
 VINA RESULT:      -4.0      3.047      7.730
  Name = 
  14 active torsions:
  status: ('A' for Active; 'I' for Inactive)
    1  A    between atoms: C_7  and  C_26
    2  A    between atoms: C_7  and  C_35
    3  A    between atoms: C_9  and  O_19
    4  A    between atoms: C_13  and  P_24
    5  A    between atoms: C_16  and  C_33
    6  A    between atoms: C_18  and  C_35
    7  A    between atoms: O_20  and  C_42
    8  A    between atoms: O_20  and  C_43
    9  A    between atoms: P_24  and  C_46
   10  A    between atoms: C_26  and  C_39
   11  A    between atoms: C_26  and  C_46
   12  A    between atoms: C_31  and  N_36
   13  A    between atoms: C_31  and  C_45
   14  A    between atoms: C_34  and  C_42
                            x       y       z     vdW  Elec       q    Type
                         _______ _______ _______ _____ _____    ______ ____

>  <TORSDO>
F 14

$$$$
=
 OpenBabel11072412333D

 51 56  0  0  1  0  0  0  0  0999 V2000
  161.0990  208.2450  149.3950 C   0  0  0  0  0  2  0  0  0  0  0  0
  162.0880  207.1400  149.0980 C   0  0  1  0  0  3  0  0  0  0  0  0
  162.2600  206.4520  153.1230 O   0  0  0  0  0  1  0  0  0  0  0  0
  160.6140  208.1160  152.6390 C   0  0  0  0  0  2  0  0  0  0  0  0
  160.5180  209.2210  151.6050 C   0  0  0  0  0  2  0  0  0  0  0  0
  162.6360  208.0220  151.2920 C   0  0  2  0  0  3  0  0  0  0  0  0
  162.0830  207.7730  152.6980 C   0  0  2  0  0  3  0  0  0  0  0  0
  161.6480  208.9690  150.6140 C   0  0  1  0  0  0  0  0  0  0  0  0
  162.6790  206.7580  150.4370 C   0  0  0  0  0  2  0  0  0  0  0  0
  160.2580  206.2200  147.3210 O   0  0  0  0  0  0  0  0  0  0  0  0
  161.2560  205.7160  148.3370 P   0  0  1  0  0  0  0  0  0  0  0  0
  162.3990  204.7340  147.5620 O   0  0  0  0  0  1  0  0  0  0  0  0
  160.4060  204.7450  149.6280 C   0  0  2  0  0  3  0  0  0  0  0  0
  160.4360  205.4610  150.8110 F   0  0  0  0  0  0  0  0  0  0  0  0
  161.0610  203.3720  149.8160 C   0  0  1  0  0  3  0  0  0  0  0  0
  161.2960  203.0420  151.2610 C   0  0  0  0  0  0  0  0  0  0  0  0
  162.2340  202.2750  151.6020 O   0  0  0  0  0  0  0  0  0  0  0  0
  160.4860  203.6120  152.2310 O   0  0  0  0  0  1  0  0  0  0  0  0
  160.2840  202.2510  149.1190 C   0  0  0  0  0  2  0  0  0  0  0  0
  161.2060  201.2890  148.3690 C   0  0  0  0  0  2  0  0  0  0  0  0
  159.6970  201.8330  144.8950 C   0  0  2  0  0  3  0  0  0  0  0  0
  159.6110  201.5720  146.3870 C   0  0  0  0  0  2  0  0  0  0  0  0
  161.0890  201.4330  146.8600 C   0  0  1  0  0  3  0  0  0  0  0  0
  160.1910  203.2380  145.1430 C   0  0  1  0  0  3  0  0  0  0  0  0
  161.5680  203.0470  145.0090 O   0  0  0  0  0  0  0  0  0  0  0  0
  159.3570  202.9500  144.0870 O   0  0  0  0  0  0  0  0  0  0  0  0
  161.9700  202.6080  146.3070 C   0  0  0  0  0  2  0  0  0  0  0  0
  162.9660  210.9160  151.0640 O   0  0  0  0  0  0  0  0  0  0  0  0
  162.3310  210.2460  150.2020 C   0  0  0  0  0  0  0  0  0  0  0  0
  162.2490  210.6930  148.8710 O   0  0  0  0  0  0  0  0  0  0  0  0
  163.2360  212.7990  148.2450 C   0  0  0  0  0  1  0  0  0  0  0  0
  161.2380  212.6290  149.5740 O   0  0  0  0  0  0  0  0  0  0  0  0
  161.0320  211.9540  147.2010 C   0  0  2  0  0  3  0  0  0  0  0  0
  159.5830  212.3230  147.5140 C   0  0  0  0  0  2  0  0  0  0  0  0
  160.6920  213.8740  149.1910 C   0  0  0  0  0  2  0  0  0  0  0  0
  159.5420  213.6890  148.1930 C   0  0  2  0  0  3  0  0  0  0  0  0
  161.9270  212.0310  148.4830 C   0  0  2  0  0  0  0  0  0  0  0  0
  158.2010  214.0020  148.7850 C   0  0  0  0  0  0  0  0  0  0  0  0
  158.8890  213.2850  151.1090 C   0  0  0  0  0  1  0  0  0  0  0  0
  157.9120  213.8560  150.1880 N   0  0  0  0  0  0  0  0  0  0  0  0
  157.3150  214.4480  148.0140 O   0  0  0  0  0  0  0  0  0  0  0  0
  155.4560  213.9160  149.9460 C   0  0  0  0  0  1  0  0  0  0  0  0
  156.6720  214.4240  150.7130 C   0  0  1  0  0  3  0  0  0  0  0  0
  156.3240  213.9460  154.9510 N   0  0  0  0  0  0  0  0  0  0  0  0
  155.3110  214.2330  152.8070 C   0  0  0  0  0  3  0  0  0  0  0  0
  157.5700  213.9680  154.3970 C   0  0  0  0  0  3  0  0  0  0  0  0
  155.2010  214.0810  154.1900 C   0  0  0  0  0  3  0  0  0  0  0  0
  157.7190  214.1250  153.0160 C   0  0  0  0  0  3  0  0  0  0  0  0
  156.5790  214.2500  152.2060 C   0  0  0  0  0  0  0  0  0  0  0  0
  161.5110  212.7570  146.1610 O   0  0  0  0  0  0  0  0  0  0  0  0
  160.4790  212.7790  145.2220 C   0  0  0  0  0  1  0  0  0  0  0  0
  1  8  1  0  0  0  0
  2 11  1  1  0  0  0
  2  1  1  0  0  0  0
  2  9  1  0  0  0  0
  4  7  1  0  0  0  0
  5  4  1  0  0  0  0
  6  9  1  6  0  0  0
  6  7  1  0  0  0  0
  7  3  1  6  0  0  0
  8 29  1  6  0  0  0
  8  6  1  0  0  0  0
  8  5  1  0  0  0  0
 11 10  2  6  0  0  0
 11 13  1  0  0  0  0
 12 11  1  0  0  0  0
 13 15  1  0  0  0  0
 13 14  1  1  0  0  0
 15 19  1  1  0  0  0
 15 16  1  0  0  0  0
 16 17  2  0  0  0  0
 16 18  1  0  0  0  0
 20 19  1  0  0  0  0
 21 24  1  0  0  0  0
 21 22  1  1  0  0  0
 22 23  1  0  0  0  0
 23 20  1  1  0  0  0
 24 26  1  6  0  0  0
 25 24  1  0  0  0  0
 25 27  1  0  0  0  0
 26 21  1  0  0  0  0
 27 23  1  0  0  0  0
 29 28  2  0  0  0  0
 30 29  1  0  0  0  0
 33 50  1  6  0  0  0
 33 34  1  0  0  0  0
 33 37  1  0  0  0  0
 34 36  1  0  0  0  0
 35 32  1  0  0  0  0
 36 38  1  1  0  0  0
 36 35  1  0  0  0  0
 37 31  1  6  0  0  0
 37 30  1  0  0  0  0
 37 32  1  0  0  0  0
 38 40  1  0  0  0  0
 40 43  1  0  0  0  0
 40 39  1  0  0  0  0
 41 38  2  0  0  0  0
 43 42  1  6  0  0  0
 43 49  1  0  0  0  0
 45 47  1  0  0  0  0
 46 44  1  0  0  0  0
 47 44  2  0  0  0  0
 48 46  2  0  0  0  0
 49 45  2  0  0  0  0
 49 48  1  0  0  0  0
 51 50  1  0  0  0  0
M  END
>  <MODEL>
4

>  <REMARK>
 VINA RESULT:      -3.6      3.109      6.094
  Name = 
  14 active torsions:
  status: ('A' for Active; 'I' for Inactive)
    1  A    between atoms: C_7  and  C_26
    2  A    between atoms: C_7  and  C_35
    3  A    between atoms: C_9  and  O_19
    4  A    between atoms: C_13  and  P_24
    5  A    between atoms: C_16  and  C_33
    6  A    between atoms: C_18  and  C_35
    7  A    between atoms: O_20  and  C_42
    8  A    between atoms: O_20  and  C_43
    9  A    between atoms: P_24  and  C_46
   10  A    between atoms: C_26  and  C_39
   11  A    between atoms: C_26  and  C_46
   12  A    between atoms: C_31  and  N_36
   13  A    between atoms: C_31  and  C_45
   14  A    between atoms: C_34  and  C_42
                            x       y       z     vdW  Elec       q    Type
                         _______ _______ _______ _____ _____    ______ ____

>  <TORSDO>
F 14

$$$$
=
 OpenBabel11072412333D

 51 56  0  0  1  0  0  0  0  0999 V2000
  161.0550  208.4190  148.8550 C   0  0  0  0  0  2  0  0  0  0  0  0
  161.9620  207.3700  148.2520 C   0  0  1  0  0  3  0  0  0  0  0  0
  162.6230  206.0110  152.0490 O   0  0  0  0  0  1  0  0  0  0  0  0
  160.9830  207.7490  152.0670 C   0  0  0  0  0  2  0  0  0  0  0  0
  160.7910  209.0140  151.2530 C   0  0  0  0  0  2  0  0  0  0  0  0
  162.8130  207.8630  150.4710 C   0  0  2  0  0  3  0  0  0  0  0  0
  162.4360  207.3870  151.8760 C   0  0  2  0  0  3  0  0  0  0  0  0
  161.7770  208.9220  150.0950 C   0  0  1  0  0  0  0  0  0  0  0  0
  162.7060  206.7610  149.4200 C   0  0  0  0  0  2  0  0  0  0  0  0
  159.6980  205.8820  148.1240 O   0  0  0  0  0  1  0  0  0  0  0  0
  160.9950  206.1030  147.3800 P   0  0  1  0  0  0  0  0  0  0  0  0
  160.6570  206.6250  145.8050 O   0  0  0  0  0  0  0  0  0  0  0  0
  161.9510  204.5500  147.3070 C   0  0  2  0  0  3  0  0  0  0  0  0
  163.0980  204.7720  146.5660 F   0  0  0  0  0  0  0  0  0  0  0  0
  161.1260  203.4150  146.6910 C   0  0  1  0  0  3  0  0  0  0  0  0
  161.0600  203.5010  145.1950 C   0  0  0  0  0  0  0  0  0  0  0  0
  160.1310  202.9400  144.5570 O   0  0  0  0  0  1  0  0  0  0  0  0
  162.0200  204.2300  144.5100 O   0  0  0  0  0  0  0  0  0  0  0  0
  161.6060  202.0310  147.1380 C   0  0  0  0  0  2  0  0  0  0  0  0
  160.9360  201.5770  148.4350 C   0  0  0  0  0  2  0  0  0  0  0  0
  160.5950  204.0410  151.3430 C   0  0  2  0  0  3  0  0  0  0  0  0
  160.0950  203.3290  150.1000 C   0  0  0  0  0  2  0  0  0  0  0  0
  161.2970  202.4660  149.6150 C   0  0  1  0  0  3  0  0  0  0  0  0
  160.5360  202.7560  152.1340 C   0  0  1  0  0  3  0  0  0  0  0  0
  161.8670  202.3460  152.0480 O   0  0  0  0  0  0  0  0  0  0  0  0
  160.2310  203.9660  152.7140 O   0  0  0  0  0  0  0  0  0  0  0  0
  161.9200  201.6500  150.8020 C   0  0  0  0  0  2  0  0  0  0  0  0
  163.0430  210.8450  150.7470 O   0  0  0  0  0  0  0  0  0  0  0  0
  162.4420  210.2420  149.8140 C   0  0  0  0  0  0  0  0  0  0  0  0
  162.3800  210.8060  148.5270 O   0  0  0  0  0  0  0  0  0  0  0  0
  163.2350  212.9470  147.8330 C   0  0  0  0  0  1  0  0  0  0  0  0
  161.4790  212.6990  149.4580 O   0  0  0  0  0  0  0  0  0  0  0  0
  160.8990  212.1090  147.1250 C   0  0  2  0  0  3  0  0  0  0  0  0
  159.5170  212.4450  147.6810 C   0  0  0  0  0  2  0  0  0  0  0  0
  160.8670  213.9480  149.2170 C   0  0  0  0  0  2  0  0  0  0  0  0
  159.5730  213.7840  148.4100 C   0  0  2  0  0  3  0  0  0  0  0  0
  161.9890  212.1520  148.2480 C   0  0  2  0  0  0  0  0  0  0  0  0
  158.3430  214.0540  149.2210 C   0  0  0  0  0  0  0  0  0  0  0  0
  159.4510  213.4100  151.3990 C   0  0  0  0  0  1  0  0  0  0  0  0
  158.3070  213.9240  150.6560 N   0  0  0  0  0  0  0  0  0  0  0  0
  157.3190  214.4510  148.6100 O   0  0  0  0  0  0  0  0  0  0  0  0
  155.8430  214.0800  150.6940 C   0  0  0  0  0  1  0  0  0  0  0  0
  157.1530  214.4520  151.3800 C   0  0  1  0  0  3  0  0  0  0  0  0
  157.2360  213.3980  155.5270 N   0  0  0  0  0  0  0  0  0  0  0  0
  156.1070  213.4470  153.4220 C   0  0  0  0  0  3  0  0  0  0  0  0
  158.3200  214.0310  154.9920 C   0  0  0  0  0  3  0  0  0  0  0  0
  156.1360  213.1080  154.7760 C   0  0  0  0  0  3  0  0  0  0  0  0
  158.3250  214.3910  153.6410 C   0  0  0  0  0  3  0  0  0  0  0  0
  157.2120  214.0890  152.8410 C   0  0  0  0  0  0  0  0  0  0  0  0
  161.1970  212.9570  146.0530 O   0  0  0  0  0  0  0  0  0  0  0  0
  160.2350  212.6630  145.0870 C   0  0  0  0  0  1  0  0  0  0  0  0
  1  8  1  0  0  0  0
  2 11  1  1  0  0  0
  2  1  1  0  0  0  0
  2  9  1  0  0  0  0
  5  4  1  0  0  0  0
  6  9  1  6  0  0  0
  6  7  1  0  0  0  0
  7  3  1  6  0  0  0
  7  4  1  0  0  0  0
  8 29  1  6  0  0  0
  8  6  1  0  0  0  0
  8  5  1  0  0  0  0
 11 12  2  6  0  0  0
 11 10  1  0  0  0  0
 13 14  1  6  0  0  0
 13 11  1  0  0  0  0
 15 19  1  6  0  0  0
 15 13  1  0  0  0  0
 16 15  1  0  0  0  0
 17 16  1  0  0  0  0
 18 16  2  0  0  0  0
 19 20  1  0  0  0  0
 21 22  1  6  0  0  0
 21 24  1  0  0  0  0
 21 26  1  0  0  0  0
 23 20  1  6  0  0  0
 23 22  1  0  0  0  0
 23 27  1  0  0  0  0
 24 25  1  1  0  0  0
 24 26  1  0  0  0  0
 27 25  1  0  0  0  0
 29 28  2  0  0  0  0
 30 29  1  0  0  0  0
 33 50  1  6  0  0  0
 33 34  1  0  0  0  0
 33 37  1  0  0  0  0
 34 36  1  0  0  0  0
 35 32  1  0  0  0  0
 36 35  1  0  0  0  0
 36 38  1  1  0  0  0
 37 31  1  6  0  0  0
 37 30  1  0  0  0  0
 37 32  1  0  0  0  0
 38 40  1  0  0  0  0
 40 43  1  0  0  0  0
 40 39  1  0  0  0  0
 41 38  2  0  0  0  0
 43 42  1  6  0  0  0
 43 49  1  0  0  0  0
 45 47  1  0  0  0  0
 46 44  1  0  0  0  0
 47 44  2  0  0  0  0
 48 46  2  0  0  0  0
 49 45  2  0  0  0  0
 49 48  1  0  0  0  0
 51 50  1  0  0  0  0
M  END
>  <MODEL>
5

>  <REMARK>
 VINA RESULT:      -3.6      3.200      6.868
  Name = 
  14 active torsions:
  status: ('A' for Active; 'I' for Inactive)
    1  A    between atoms: C_7  and  C_26
    2  A    between atoms: C_7  and  C_35
    3  A    between atoms: C_9  and  O_19
    4  A    between atoms: C_13  and  P_24
    5  A    between atoms: C_16  and  C_33
    6  A    between atoms: C_18  and  C_35
    7  A    between atoms: O_20  and  C_42
    8  A    between atoms: O_20  and  C_43
    9  A    between atoms: P_24  and  C_46
   10  A    between atoms: C_26  and  C_39
   11  A    between atoms: C_26  and  C_46
   12  A    between atoms: C_31  and  N_36
   13  A    between atoms: C_31  and  C_45
   14  A    between atoms: C_34  and  C_42
                            x       y       z     vdW  Elec       q    Type
                         _______ _______ _______ _____ _____    ______ ____

>  <TORSDO>
F 14

$$$$
=
 OpenBabel11072412333D

 51 56  0  0  1  0  0  0  0  0999 V2000
  160.8790  207.6230  151.9810 C   0  0  0  0  0  2  0  0  0  0  0  0
  162.1400  207.7570  151.1590 C   0  0  1  0  0  3  0  0  0  0  0  0
  162.5560  203.7020  151.4570 O   0  0  0  0  0  1  0  0  0  0  0  0
  160.4940  204.3970  152.4460 C   0  0  0  0  0  2  0  0  0  0  0  0
  160.0690  205.6280  153.2230 C   0  0  0  0  0  2  0  0  0  0  0  0
  162.4390  205.8440  152.6220 C   0  0  2  0  0  3  0  0  0  0  0  0
  162.0000  204.3800  152.5480 C   0  0  2  0  0  3  0  0  0  0  0  0
  161.2110  206.6280  153.0820 C   0  0  1  0  0  0  0  0  0  0  0  0
  162.8340  206.4170  151.2630 C   0  0  0  0  0  2  0  0  0  0  0  0
  160.2810  207.8480  149.1850 O   0  0  0  0  0  1  0  0  0  0  0  0
  161.7450  208.1380  149.4270 P   0  0  1  0  0  0  0  0  0  0  0  0
  162.0500  209.7760  149.1180 O   0  0  0  0  0  0  0  0  0  0  0  0
  162.7800  207.1150  148.3260 C   0  0  2  0  0  3  0  0  0  0  0  0
  163.2250  207.9020  147.2800 F   0  0  0  0  0  0  0  0  0  0  0  0
  162.0030  205.9060  147.7940 C   0  0  1  0  0  3  0  0  0  0  0  0
  162.5000  205.4490  146.4540 C   0  0  0  0  0  0  0  0  0  0  0  0
  163.6920  205.0760  146.3020 O   0  0  0  0  0  1  0  0  0  0  0  0
  161.6260  205.4130  145.3780 O   0  0  0  0  0  0  0  0  0  0  0  0
  161.9720  204.7420  148.7900 C   0  0  0  0  0  2  0  0  0  0  0  0
  160.5490  204.2720  149.0860 C   0  0  0  0  0  2  0  0  0  0  0  0
  160.9520  201.0090  147.1280 C   0  0  2  0  0  3  0  0  0  0  0  0
  161.2960  202.4520  147.4490 C   0  0  0  0  0  2  0  0  0  0  0  0
  160.2750  202.8770  148.5460 C   0  0  1  0  0  3  0  0  0  0  0  0
  161.5340  200.5500  148.4430 C   0  0  1  0  0  3  0  0  0  0  0  0
  160.3740  200.4680  149.2160 O   0  0  0  0  0  0  0  0  0  0  0  0
  161.6500  199.7850  147.3050 O   0  0  0  0  0  0  0  0  0  0  0  0
  160.1960  201.8040  149.6890 C   0  0  0  0  0  2  0  0  0  0  0  0
  161.7600  206.6810  155.4110 O   0  0  0  0  0  0  0  0  0  0  0  0
  161.4920  207.3490  154.3730 C   0  0  0  0  0  0  0  0  0  0  0  0
  161.4390  208.7530  154.4240 O   0  0  0  0  0  0  0  0  0  0  0  0
  159.2970  208.5780  155.5100 C   0  0  0  0  0  1  0  0  0  0  0  0
  159.6830  209.9680  153.5860 O   0  0  0  0  0  0  0  0  0  0  0  0
  160.7580  210.6980  155.6930 C   0  0  2  0  0  3  0  0  0  0  0  0
  160.6670  212.0290  154.9490 C   0  0  0  0  0  2  0  0  0  0  0  0
  158.6650  210.9060  153.8650 C   0  0  0  0  0  2  0  0  0  0  0  0
  159.2530  212.2150  154.4080 C   0  0  2  0  0  3  0  0  0  0  0  0
  160.2830  209.5100  154.7910 C   0  0  2  0  0  0  0  0  0  0  0  0
  159.1490  213.3470  153.4330 C   0  0  0  0  0  0  0  0  0  0  0  0
  160.0040  211.9640  151.4990 C   0  0  0  0  0  1  0  0  0  0  0  0
  159.4600  213.2070  152.0330 N   0  0  0  0  0  0  0  0  0  0  0  0
  158.7320  214.4510  153.8660 O   0  0  0  0  0  0  0  0  0  0  0  0
  160.0480  214.3740  149.9390 C   0  0  0  0  0  1  0  0  0  0  0  0
  159.0860  214.2830  151.1190 C   0  0  1  0  0  3  0  0  0  0  0  0
  154.9400  214.0050  150.0960 N   0  0  0  0  0  0  0  0  0  0  0  0
  156.6670  214.1030  151.7430 C   0  0  0  0  0  3  0  0  0  0  0  0
  155.8570  214.0800  149.0890 C   0  0  0  0  0  3  0  0  0  0  0  0
  155.3160  214.0080  151.4060 C   0  0  0  0  0  3  0  0  0  0  0  0
  157.2200  214.1690  149.3890 C   0  0  0  0  0  3  0  0  0  0  0  0
  157.6340  214.1910  150.7300 C   0  0  0  0  0  0  0  0  0  0  0  0
  160.0470  210.7790  156.8950 O   0  0  0  0  0  0  0  0  0  0  0  0
  160.1130  212.1240  157.2600 C   0  0  0  0  0  1  0  0  0  0  0  0
  1  8  1  0  0  0  0
  2 11  1  6  0  0  0
  2  9  1  0  0  0  0
  2  1  1  0  0  0  0
  4  7  1  0  0  0  0
  4  5  1  0  0  0  0
  6  9  1  6  0  0  0
  6  8  1  0  0  0  0
  7  3  1  6  0  0  0
  7  6  1  0  0  0  0
  8  5  1  0  0  0  0
  8 29  1  1  0  0  0
 10 11  1  0  0  0  0
 11 12  2  6  0  0  0
 13 14  1  6  0  0  0
 13 11  1  0  0  0  0
 15 13  1  0  0  0  0
 15 19  1  1  0  0  0
 16 15  1  0  0  0  0
 17 16  1  0  0  0  0
 18 16  2  0  0  0  0
 19 20  1  0  0  0  0
 21 26  1  0  0  0  0
 21 22  1  6  0  0  0
 21 24  1  0  0  0  0
 22 23  1  0  0  0  0
 23 20  1  1  0  0  0
 23 27  1  0  0  0  0
 24 26  1  6  0  0  0
 24 25  1  0  0  0  0
 25 27  1  0  0  0  0
 29 30  1  0  0  0  0
 29 28  2  0  0  0  0
 30 37  1  0  0  0  0
 32 35  1  0  0  0  0
 32 37  1  0  0  0  0
 33 50  1  1  0  0  0
 34 33  1  0  0  0  0
 35 36  1  0  0  0  0
 36 38  1  6  0  0  0
 36 34  1  0  0  0  0
 37 31  1  1  0  0  0
 37 33  1  0  0  0  0
 38 41  2  0  0  0  0
 39 40  1  0  0  0  0
 40 38  1  0  0  0  0
 43 42  1  6  0  0  0
 43 40  1  0  0  0  0
 44 47  1  0  0  0  0
 46 48  1  0  0  0  0
 46 44  2  0  0  0  0
 47 45  2  0  0  0  0
 48 49  2  0  0  0  0
 49 43  1  0  0  0  0
 49 45  1  0  0  0  0
 50 51  1  0  0  0  0
M  END
>  <MODEL>
6

>  <REMARK>
 VINA RESULT:      -3.1      4.419      6.980
  Name = 
  14 active torsions:
  status: ('A' for Active; 'I' for Inactive)
    1  A    between atoms: C_7  and  C_26
    2  A    between atoms: C_7  and  C_35
    3  A    between atoms: C_9  and  O_19
    4  A    between atoms: C_13  and  P_24
    5  A    between atoms: C_16  and  C_33
    6  A    between atoms: C_18  and  C_35
    7  A    between atoms: O_20  and  C_42
    8  A    between atoms: O_20  and  C_43
    9  A    between atoms: P_24  and  C_46
   10  A    between atoms: C_26  and  C_39
   11  A    between atoms: C_26  and  C_46
   12  A    between atoms: C_31  and  N_36
   13  A    between atoms: C_31  and  C_45
   14  A    between atoms: C_34  and  C_42
                            x       y       z     vdW  Elec       q    Type
                         _______ _______ _______ _____ _____    ______ ____

>  <TORSDO>
F 14

$$$$
=
 OpenBabel11072412333D

 51 56  0  0  1  0  0  0  0  0999 V2000
  160.6830  206.4840  151.2760 C   0  0  0  0  0  2  0  0  0  0  0  0
  161.9880  206.5220  150.5130 C   0  0  1  0  0  3  0  0  0  0  0  0
  162.2350  202.4820  151.0760 O   0  0  0  0  0  1  0  0  0  0  0  0
  160.1540  203.3080  151.9140 C   0  0  0  0  0  2  0  0  0  0  0  0
  159.7390  204.5990  152.5920 C   0  0  0  0  0  2  0  0  0  0  0  0
  162.1420  204.6950  152.1030 C   0  0  2  0  0  3  0  0  0  0  0  0
  161.6520  203.2450  152.0940 C   0  0  2  0  0  3  0  0  0  0  0  0
  160.9230  205.5480  152.4500 C   0  0  1  0  0  0  0  0  0  0  0  0
  162.6250  205.1680  150.7340 C   0  0  0  0  0  2  0  0  0  0  0  0
  160.2060  206.9500  148.5130 O   0  0  0  0  0  1  0  0  0  0  0  0
  161.6940  206.8080  148.7430 P   0  0  1  0  0  0  0  0  0  0  0  0
  162.4740  208.2310  148.2570 O   0  0  0  0  0  0  0  0  0  0  0  0
  162.3490  205.4030  147.7810 C   0  0  2  0  0  3  0  0  0  0  0  0
  163.4940  205.8140  147.1230 F   0  0  0  0  0  0  0  0  0  0  0  0
  161.3130  204.8810  146.7800 C   0  0  1  0  0  3  0  0  0  0  0  0
  161.1050  205.8200  145.6280 C   0  0  0  0  0  0  0  0  0  0  0  0
  162.0850  206.2650  144.9750 O   0  0  0  0  0  0  0  0  0  0  0  0
  159.8170  206.1780  145.2630 O   0  0  0  0  0  1  0  0  0  0  0  0
  161.6380  203.4690  146.2810 C   0  0  0  0  0  2  0  0  0  0  0  0
  160.4670  202.8390  145.5280 C   0  0  0  0  0  2  0  0  0  0  0  0
  160.1600  199.0320  145.2760 C   0  0  2  0  0  3  0  0  0  0  0  0
  160.2680  200.4280  144.6910 C   0  0  0  0  0  2  0  0  0  0  0  0
  160.2420  201.3860  145.9180 C   0  0  1  0  0  3  0  0  0  0  0  0
  161.5810  199.1060  145.7810 C   0  0  1  0  0  3  0  0  0  0  0  0
  161.3580  199.4870  147.1050 O   0  0  0  0  0  0  0  0  0  0  0  0
  161.0500  197.9260  145.3120 O   0  0  0  0  0  0  0  0  0  0  0  0
  161.2460  200.9080  147.0270 C   0  0  0  0  0  2  0  0  0  0  0  0
  161.4720  205.7300  154.7730 O   0  0  0  0  0  0  0  0  0  0  0  0
  161.1660  206.3370  153.7080 C   0  0  0  0  0  0  0  0  0  0  0  0
  161.0380  207.7380  153.7000 O   0  0  0  0  0  0  0  0  0  0  0  0
  159.9770  207.5540  155.8540 C   0  0  0  0  0  1  0  0  0  0  0  0
  159.4440  209.2850  154.2710 O   0  0  0  0  0  0  0  0  0  0  0  0
  161.6830  209.4160  155.3200 C   0  0  2  0  0  3  0  0  0  0  0  0
  161.4640  210.8800  154.9440 C   0  0  0  0  0  2  0  0  0  0  0  0
  159.0230  210.2400  155.2220 C   0  0  0  0  0  2  0  0  0  0  0  0
  160.0860  211.3280  155.4220 C   0  0  2  0  0  3  0  0  0  0  0  0
  160.5220  208.5120  154.7850 C   0  0  2  0  0  0  0  0  0  0  0  0
  159.6780  212.6520  154.8520 C   0  0  0  0  0  0  0  0  0  0  0  0
  159.4080  211.7370  152.5120 C   0  0  0  0  0  1  0  0  0  0  0  0
  159.3040  212.8290  153.4720 N   0  0  0  0  0  0  0  0  0  0  0  0
  159.6250  213.6320  155.6380 O   0  0  0  0  0  0  0  0  0  0  0  0
  159.0010  214.4350  151.6210 C   0  0  0  0  0  1  0  0  0  0  0  0
  158.6770  214.0870  153.0700 C   0  0  1  0  0  3  0  0  0  0  0  0
  154.5180  214.0890  154.0780 N   0  0  0  0  0  0  0  0  0  0  0  0
  156.8120  214.0170  154.7400 C   0  0  0  0  0  3  0  0  0  0  0  0
  154.8710  214.1540  152.7620 C   0  0  0  0  0  3  0  0  0  0  0  0
  155.4540  214.0140  155.0660 C   0  0  0  0  0  3  0  0  0  0  0  0
  156.2210  214.1540  152.3980 C   0  0  0  0  0  3  0  0  0  0  0  0
  157.2070  214.0940  153.3950 C   0  0  0  0  0  0  0  0  0  0  0  0
  161.8580  209.3050  156.7040 O   0  0  0  0  0  0  0  0  0  0  0  0
  163.0030  210.0510  156.9800 C   0  0  0  0  0  1  0  0  0  0  0  0
  1  8  1  0  0  0  0
  2 11  1  6  0  0  0
  2  9  1  0  0  0  0
  2  1  1  0  0  0  0
  4  7  1  0  0  0  0
  4  5  1  0  0  0  0
  6  9  1  6  0  0  0
  6  8  1  0  0  0  0
  7  3  1  6  0  0  0
  7  6  1  0  0  0  0
  8  5  1  0  0  0  0
  8 29  1  1  0  0  0
 10 11  1  0  0  0  0
 11 12  2  6  0  0  0
 13 14  1  6  0  0  0
 13 11  1  0  0  0  0
 15 19  1  6  0  0  0
 15 13  1  0  0  0  0
 16 15  1  0  0  0  0
 17 16  2  0  0  0  0
 18 16  1  0  0  0  0
 20 19  1  0  0  0  0
 21 22  1  6  0  0  0
 21 26  1  0  0  0  0
 21 24  1  0  0  0  0
 22 23  1  0  0  0  0
 23 20  1  6  0  0  0
 23 27  1  0  0  0  0
 24 26  1  1  0  0  0
 24 25  1  0  0  0  0
 27 25  1  0  0  0  0
 29 28  2  0  0  0  0
 30 29  1  0  0  0  0
 30 37  1  0  0  0  0
 32 37  1  0  0  0  0
 32 35  1  0  0  0  0
 33 50  1  1  0  0  0
 34 33  1  0  0  0  0
 34 36  1  0  0  0  0
 35 36  1  0  0  0  0
 36 38  1  6  0  0  0
 37 33  1  0  0  0  0
 37 31  1  1  0  0  0
 38 41  2  0  0  0  0
 39 40  1  0  0  0  0
 40 38  1  0  0  0  0
 43 42  1  6  0  0  0
 43 49  1  0  0  0  0
 43 40  1  0  0  0  0
 44 47  1  0  0  0  0
 45 47  2  0  0  0  0
 46 44  2  0  0  0  0
 48 46  1  0  0  0  0
 48 49  2  0  0  0  0
 49 45  1  0  0  0  0
 50 51  1  0  0  0  0
M  END
>  <MODEL>
7

>  <REMARK>
 VINA RESULT:      -2.9      4.971      8.301
  Name = 
  14 active torsions:
  status: ('A' for Active; 'I' for Inactive)
    1  A    between atoms: C_7  and  C_26
    2  A    between atoms: C_7  and  C_35
    3  A    between atoms: C_9  and  O_19
    4  A    between atoms: C_13  and  P_24
    5  A    between atoms: C_16  and  C_33
    6  A    between atoms: C_18  and  C_35
    7  A    between atoms: O_20  and  C_42
    8  A    between atoms: O_20  and  C_43
    9  A    between atoms: P_24  and  C_46
   10  A    between atoms: C_26  and  C_39
   11  A    between atoms: C_26  and  C_46
   12  A    between atoms: C_31  and  N_36
   13  A    between atoms: C_31  and  C_45
   14  A    between atoms: C_34  and  C_42
                            x       y       z     vdW  Elec       q    Type
                         _______ _______ _______ _____ _____    ______ ____

>  <TORSDO>
F 14

$$$$
=
 OpenBabel11072412333D

 51 56  0  0  1  0  0  0  0  0999 V2000
  162.5050  208.2570  150.3180 C   0  0  0  0  0  2  0  0  0  0  0  0
  161.2510  207.6880  150.9400 C   0  0  1  0  0  3  0  0  0  0  0  0
  160.5650  205.7840  147.3890 O   0  0  0  0  0  1  0  0  0  0  0  0
  162.6760  206.9050  147.3330 C   0  0  0  0  0  2  0  0  0  0  0  0
  163.1870  208.2020  147.9290 C   0  0  0  0  0  2  0  0  0  0  0  0
  160.8330  207.9100  148.5600 C   0  0  2  0  0  3  0  0  0  0  0  0
  161.1730  207.0440  147.3430 C   0  0  2  0  0  3  0  0  0  0  0  0
  162.1140  208.6660  148.9070 C   0  0  1  0  0  0  0  0  0  0  0  0
  160.4690  207.0870  149.7930 C   0  0  0  0  0  2  0  0  0  0  0  0
  163.1500  206.1640  152.1360 O   0  0  0  0  0  0  0  0  0  0  0  0
  161.6590  206.4150  152.1700 P   0  0  1  0  0  0  0  0  0  0  0  0
  161.2160  206.9500  153.7150 O   0  0  0  0  0  1  0  0  0  0  0  0
  160.7530  204.8790  151.7820 C   0  0  2  0  0  3  0  0  0  0  0  0
  160.3200  204.3100  152.9670 F   0  0  0  0  0  0  0  0  0  0  0  0
  161.6320  203.8940  151.0040 C   0  0  1  0  0  3  0  0  0  0  0  0
  161.4490  202.4770  151.4630 C   0  0  0  0  0  0  0  0  0  0  0  0
  162.4150  201.8230  151.9360 O   0  0  0  0  0  1  0  0  0  0  0  0
  160.1940  201.8920  151.3880 O   0  0  0  0  0  0  0  0  0  0  0  0
  161.4400  204.0060  149.4890 C   0  0  0  0  0  2  0  0  0  0  0  0
  160.5320  202.9070  148.9380 C   0  0  0  0  0  2  0  0  0  0  0  0
  161.7760  199.9370  146.8700 C   0  0  2  0  0  3  0  0  0  0  0  0
  161.2010  200.5760  148.1210 C   0  0  0  0  0  2  0  0  0  0  0  0
  161.1970  202.1060  147.8300 C   0  0  1  0  0  3  0  0  0  0  0  0
  160.5020  200.2170  146.1100 C   0  0  1  0  0  3  0  0  0  0  0  0
  160.8530  201.3980  145.4550 O   0  0  0  0  0  0  0  0  0  0  0  0
  161.2290  199.0700  145.8870 O   0  0  0  0  0  0  0  0  0  0  0  0
  160.5730  202.4100  146.4220 C   0  0  0  0  0  2  0  0  0  0  0  0
  162.5830  210.9200  149.5600 O   0  0  0  0  0  0  0  0  0  0  0  0
  161.8910  210.1530  148.8350 C   0  0  0  0  0  0  0  0  0  0  0  0
  160.9080  210.6790  147.9770 O   0  0  0  0  0  0  0  0  0  0  0  0
  159.9580  212.8580  148.3620 C   0  0  0  0  0  1  0  0  0  0  0  0
  160.3660  211.9730  146.1630 O   0  0  0  0  0  0  0  0  0  0  0  0
  162.3700  212.5480  147.4970 C   0  0  2  0  0  3  0  0  0  0  0  0
  162.9350  212.6550  146.0830 C   0  0  0  0  0  2  0  0  0  0  0  0
  160.5250  213.2210  145.5210 C   0  0  0  0  0  2  0  0  0  0  0  0
  162.0030  213.5060  145.2250 C   0  0  2  0  0  3  0  0  0  0  0  0
  160.8960  212.0200  147.4820 C   0  0  2  0  0  0  0  0  0  0  0  0
  162.3290  213.4300  143.7650 C   0  0  0  0  0  0  0  0  0  0  0  0
  160.0800  212.4520  143.1550 C   0  0  0  0  0  1  0  0  0  0  0  0
  161.3870  212.9750  142.7750 N   0  0  0  0  0  0  0  0  0  0  0  0
  163.4660  213.8250  143.4020 O   0  0  0  0  0  0  0  0  0  0  0  0
  163.0740  213.8140  141.1780 C   0  0  0  0  0  1  0  0  0  0  0  0
  161.7000  213.1780  141.3620 C   0  0  1  0  0  3  0  0  0  0  0  0
  161.1890  209.5630  139.1290 N   0  0  0  0  0  0  0  0  0  0  0  0
  162.4780  210.9170  140.6170 C   0  0  0  0  0  3  0  0  0  0  0  0
  160.2190  210.5180  139.0550 C   0  0  0  0  0  3  0  0  0  0  0  0
  162.3100  209.7400  139.8840 C   0  0  0  0  0  3  0  0  0  0  0  0
  160.3550  211.7120  139.7700 C   0  0  0  0  0  3  0  0  0  0  0  0
  161.4920  211.9140  140.5690 C   0  0  0  0  0  0  0  0  0  0  0  0
  162.4940  213.7780  148.1510 O   0  0  0  0  0  0  0  0  0  0  0  0
  163.6510  214.3500  147.6210 C   0  0  0  0  0  1  0  0  0  0  0  0
  1  2  1  0  0  0  0
  2 11  1  1  0  0  0
  4  7  1  0  0  0  0
  4  5  1  0  0  0  0
  5  8  1  0  0  0  0
  6  8  1  0  0  0  0
  6  9  1  1  0  0  0
  7  3  1  1  0  0  0
  7  6  1  0  0  0  0
  8 29  1  6  0  0  0
  8  1  1  0  0  0  0
  9  2  1  0  0  0  0
 11 10  2  6  0  0  0
 11 12  1  0  0  0  0
 13 11  1  0  0  0  0
 13 14  1  1  0  0  0
 15 19  1  6  0  0  0
 15 16  1  0  0  0  0
 15 13  1  0  0  0  0
 16 17  1  0  0  0  0
 18 16  2  0  0  0  0
 20 19  1  0  0  0  0
 21 22  1  1  0  0  0
 23 22  1  0  0  0  0
 23 20  1  1  0  0  0
 24 25  1  6  0  0  0
 24 21  1  0  0  0  0
 25 27  1  0  0  0  0
 26 24  1  0  0  0  0
 26 21  1  0  0  0  0
 27 23  1  0  0  0  0
 29 28  2  0  0  0  0
 30 29  1  0  0  0  0
 32 37  1  0  0  0  0
 33 50  1  6  0  0  0
 34 33  1  0  0  0  0
 35 32  1  0  0  0  0
 36 38  1  6  0  0  0
 36 35  1  0  0  0  0
 36 34  1  0  0  0  0
 37 33  1  0  0  0  0
 37 30  1  0  0  0  0
 37 31  1  1  0  0  0
 40 39  1  0  0  0  0
 40 38  1  0  0  0  0
 41 38  2  0  0  0  0
 43 42  1  1  0  0  0
 43 40  1  0  0  0  0
 44 47  1  0  0  0  0
 46 44  2  0  0  0  0
 46 48  1  0  0  0  0
 47 45  2  0  0  0  0
 48 49  2  0  0  0  0
 49 45  1  0  0  0  0
 49 43  1  0  0  0  0
 51 50  1  0  0  0  0
M  END
>  <MODEL>
8

>  <REMARK>
 VINA RESULT:      -2.8      2.383      4.017
  Name = 
  14 active torsions:
  status: ('A' for Active; 'I' for Inactive)
    1  A    between atoms: C_7  and  C_26
    2  A    between atoms: C_7  and  C_35
    3  A    between atoms: C_9  and  O_19
    4  A    between atoms: C_13  and  P_24
    5  A    between atoms: C_16  and  C_33
    6  A    between atoms: C_18  and  C_35
    7  A    between atoms: O_20  and  C_42
    8  A    between atoms: O_20  and  C_43
    9  A    between atoms: P_24  and  C_46
   10  A    between atoms: C_26  and  C_39
   11  A    between atoms: C_26  and  C_46
   12  A    between atoms: C_31  and  N_36
   13  A    between atoms: C_31  and  C_45
   14  A    between atoms: C_34  and  C_42
                            x       y       z     vdW  Elec       q    Type
                         _______ _______ _______ _____ _____    ______ ____

>  <TORSDO>
F 14

$$$$
