=
 OpenBabel11072413463D

 29 30  0  0  1  0  0  0  0  0999 V2000
  162.7750  206.7850  151.0020 C   0  0  0  0  0  2  0  0  0  0  0  0
  161.1090  206.1220  149.1930 C   0  0  2  0  0  3  0  0  0  0  0  0
  160.1450  205.2740  149.9770 C   0  0  0  0  0  3  0  0  0  0  0  0
  160.4740  204.5690  151.0650 C   0  0  0  0  0  3  0  0  0  0  0  0
  161.6770  207.2730  150.0540 C   0  0  2  0  0  3  0  0  0  0  0  0
  162.2350  205.9370  152.1440 C   0  0  0  0  0  2  0  0  0  0  0  0
  161.8520  204.5530  151.6470 C   0  0  0  0  0  2  0  0  0  0  0  0
  162.9260  208.1540  148.2300 O   0  0  0  0  0  0  0  0  0  0  0  0
  162.2210  208.4180  149.2400 C   0  0  0  0  0  0  0  0  0  0  0  0
  161.8470  210.1690  150.7930 O   0  0  0  0  0  0  0  0  0  0  0  0
  161.9480  209.8280  149.5830 C   0  0  0  0  0  0  0  0  0  0  0  0
  161.7820  210.8010  148.5500 N   0  0  0  0  0  2  0  0  0  0  0  0
  161.5960  212.2140  148.8370 C   0  0  0  0  0  2  0  0  0  0  0  0
  162.4740  214.2490  147.9630 O   0  0  0  0  0  1  0  0  0  0  0  0
  162.6200  213.0080  148.1060 C   0  0  0  0  0  0  0  0  0  0  0  0
  163.7590  212.3820  147.6180 O   0  0  0  0  0  0  0  0  0  0  0  0
  160.3750  206.6350  147.9630 C   0  0  0  0  0  2  0  0  0  0  0  0
  160.8400  205.8820  146.7270 C   0  0  0  0  0  2  0  0  0  0  0  0
  161.9790  204.9360  147.0850 C   0  0  1  0  0  3  0  0  0  0  0  0
  160.6710  200.8590  146.7320 C   0  0  0  0  0  3  0  0  0  0  0  0
  161.5460  203.5080  146.9430 C   0  0  0  0  0  0  0  0  0  0  0  0
  161.5530  202.6740  148.0660 C   0  0  0  0  0  3  0  0  0  0  0  0
  161.0920  203.0120  145.7140 C   0  0  0  0  0  3  0  0  0  0  0  0
  161.1170  201.3500  147.9700 C   0  0  0  0  0  0  0  0  0  0  0  0
  160.6590  201.6890  145.6080 C   0  0  0  0  0  3  0  0  0  0  0  0
  161.1350  200.5470  149.1130 O   0  0  0  0  0  0  0  0  0  0  0  0
  160.7530  201.0270  150.3930 C   0  0  0  0  0  1  0  0  0  0  0  0
  163.0810  205.1880  146.2650 O   0  0  0  0  0  0  0  0  0  0  0  0
  162.5560  205.8360  145.1460 C   0  0  0  0  0  1  0  0  0  0  0  0
  1  6  1  0  0  0  0
  2 17  1  6  0  0  0
  2  3  1  0  0  0  0
  2  5  1  0  0  0  0
  3  4  2  0  0  0  0
  4  7  1  0  0  0  0
  5  9  1  6  0  0  0
  5  1  1  0  0  0  0
  7  6  1  0  0  0  0
  8  9  2  0  0  0  0
  9 11  1  0  0  0  0
 11 10  2  0  0  0  0
 12 13  1  0  0  0  0
 12 11  1  0  0  0  0
 14 15  1  0  0  0  0
 15 13  1  0  0  0  0
 16 15  2  0  0  0  0
 18 17  1  0  0  0  0
 19 18  1  6  0  0  0
 20 24  1  0  0  0  0
 21 19  1  0  0  0  0
 21 22  1  0  0  0  0
 23 21  2  0  0  0  0
 24 22  2  0  0  0  0
 24 26  1  0  0  0  0
 25 23  1  0  0  0  0
 25 20  2  0  0  0  0
 26 27  1  0  0  0  0
 28 19  1  0  0  0  0
 29 28  1  0  0  0  0
M  END
>  <MODEL>
1

>  <REMARK>
 VINA RESULT:      -7.5      0.000      0.000
  Name = 
  10 active torsions:
  status: ('A' for Active; 'I' for Inactive)
    1  A    between atoms: C_3  and  C_24
    2  A    between atoms: C_4  and  C_16
    3  A    between atoms: C_4  and  N_27
    4  A    between atoms: C_5  and  C_20
    5  A    between atoms: O_6  and  C_19
    6  A    between atoms: C_13  and  C_17
    7  A    between atoms: C_14  and  C_17
    8  A    between atoms: C_20  and  C_22
    9  A    between atoms: C_20  and  O_25
   10  A    between atoms: C_22  and  C_24
                            x       y       z     vdW  Elec       q    Type
                         _______ _______ _______ _____ _____    ______ ____

>  <TORSDO>
F 10

$$$$
=
 OpenBabel11072413463D

 29 30  0  0  1  0  0  0  0  0999 V2000
  162.0500  206.5880  152.2930 C   0  0  0  0  0  2  0  0  0  0  0  0
  161.3390  206.1910  149.8800 C   0  0  2  0  0  3  0  0  0  0  0  0
  160.3380  205.0800  150.0470 C   0  0  0  0  0  3  0  0  0  0  0  0
  160.3710  204.1780  151.0340 C   0  0  0  0  0  3  0  0  0  0  0  0
  161.3100  207.1610  151.0830 C   0  0  2  0  0  3  0  0  0  0  0  0
  161.3020  205.4380  152.9520 C   0  0  0  0  0  2  0  0  0  0  0  0
  161.4090  204.1780  152.1110 C   0  0  0  0  0  2  0  0  0  0  0  0
  162.4390  208.6920  149.6540 O   0  0  0  0  0  0  0  0  0  0  0  0
  161.8820  208.5190  150.7700 C   0  0  0  0  0  0  0  0  0  0  0  0
  162.8330  210.3280  151.9700 O   0  0  0  0  0  0  0  0  0  0  0  0
  161.8030  209.6450  151.7230 C   0  0  0  0  0  0  0  0  0  0  0  0
  160.5680  209.9500  152.3740 N   0  0  0  0  0  2  0  0  0  0  0  0
  160.4180  211.0980  153.2540 C   0  0  0  0  0  2  0  0  0  0  0  0
  159.6060  210.0130  155.2140 O   0  0  0  0  0  0  0  0  0  0  0  0
  160.5400  210.6580  154.6700 C   0  0  0  0  0  0  0  0  0  0  0  0
  161.7040  210.9230  155.3780 O   0  0  0  0  0  1  0  0  0  0  0  0
  161.0290  206.8950  148.5680 C   0  0  0  0  0  2  0  0  0  0  0  0
  160.4520  205.9070  147.5680 C   0  0  0  0  0  2  0  0  0  0  0  0
  161.5720  205.2380  146.7820 C   0  0  1  0  0  3  0  0  0  0  0  0
  160.7510  201.0390  146.3960 C   0  0  0  0  0  3  0  0  0  0  0  0
  161.3080  203.7710  146.6270 C   0  0  0  0  0  0  0  0  0  0  0  0
  161.4980  202.9210  147.7210 C   0  0  0  0  0  3  0  0  0  0  0  0
  160.8320  203.2490  145.4180 C   0  0  0  0  0  3  0  0  0  0  0  0
  161.2220  201.5550  147.6150 C   0  0  0  0  0  0  0  0  0  0  0  0
  160.5570  201.8850  145.3010 C   0  0  0  0  0  3  0  0  0  0  0  0
  161.4200  200.7370  148.7300 O   0  0  0  0  0  0  0  0  0  0  0  0
  160.8600  201.0240  150.0020 C   0  0  0  0  0  1  0  0  0  0  0  0
  161.6970  205.8400  145.5270 O   0  0  0  0  0  0  0  0  0  0  0  0
  160.4020  206.2370  145.1890 C   0  0  0  0  0  1  0  0  0  0  0  0
  1  6  1  0  0  0  0
  2 17  1  6  0  0  0
  2  3  1  0  0  0  0
  2  5  1  0  0  0  0
  3  4  2  0  0  0  0
  4  7  1  0  0  0  0
  5  9  1  6  0  0  0
  5  1  1  0  0  0  0
  7  6  1  0  0  0  0
  8  9  2  0  0  0  0
  9 11  1  0  0  0  0
 11 10  2  0  0  0  0
 11 12  1  0  0  0  0
 12 13  1  0  0  0  0
 13 15  1  0  0  0  0
 15 14  2  0  0  0  0
 15 16  1  0  0  0  0
 18 17  1  0  0  0  0
 19 18  1  6  0  0  0
 20 24  1  0  0  0  0
 21 19  1  0  0  0  0
 21 22  1  0  0  0  0
 23 21  2  0  0  0  0
 24 22  2  0  0  0  0
 24 26  1  0  0  0  0
 25 23  1  0  0  0  0
 25 20  2  0  0  0  0
 26 27  1  0  0  0  0
 28 19  1  0  0  0  0
 29 28  1  0  0  0  0
M  END
>  <MODEL>
2

>  <REMARK>
 VINA RESULT:      -7.4      2.153      3.035
  Name = 
  10 active torsions:
  status: ('A' for Active; 'I' for Inactive)
    1  A    between atoms: C_3  and  C_24
    2  A    between atoms: C_4  and  C_16
    3  A    between atoms: C_4  and  N_27
    4  A    between atoms: C_5  and  C_20
    5  A    between atoms: O_6  and  C_19
    6  A    between atoms: C_13  and  C_17
    7  A    between atoms: C_14  and  C_17
    8  A    between atoms: C_20  and  C_22
    9  A    between atoms: C_20  and  O_25
   10  A    between atoms: C_22  and  C_24
                            x       y       z     vdW  Elec       q    Type
                         _______ _______ _______ _____ _____    ______ ____

>  <TORSDO>
F 10

$$$$
=
 OpenBabel11072413463D

 29 30  0  0  1  0  0  0  0  0999 V2000
  161.1960  210.1640  155.1420 C   0  0  0  0  0  2  0  0  0  0  0  0
  161.0860  208.0930  153.6640 C   0  0  2  0  0  3  0  0  0  0  0  0
  160.4760  207.0910  154.6060 C   0  0  0  0  0  3  0  0  0  0  0  0
  160.6170  207.1230  155.9360 C   0  0  0  0  0  3  0  0  0  0  0  0
  160.5390  209.5150  153.9220 C   0  0  2  0  0  3  0  0  0  0  0  0
  160.7450  209.5410  156.4560 C   0  0  0  0  0  2  0  0  0  0  0  0
  161.3930  208.1820  156.6530 C   0  0  0  0  0  2  0  0  0  0  0  0
  161.7310  210.3330  152.0320 O   0  0  0  0  0  0  0  0  0  0  0  0
  160.6970  210.4400  152.7440 C   0  0  0  0  0  0  0  0  0  0  0  0
  158.4900  211.3050  152.7820 O   0  0  0  0  0  0  0  0  0  0  0  0
  159.6820  211.4550  152.3980 C   0  0  0  0  0  0  0  0  0  0  0  0
  160.0430  212.5960  151.6160 N   0  0  0  0  0  2  0  0  0  0  0  0
  159.1020  213.6640  151.3210 C   0  0  0  0  0  2  0  0  0  0  0  0
  159.3690  213.5160  148.9590 O   0  0  0  0  0  0  0  0  0  0  0  0
  158.5800  213.4980  149.9380 C   0  0  0  0  0  0  0  0  0  0  0  0
  157.2240  213.2810  149.7330 O   0  0  0  0  0  1  0  0  0  0  0  0
  160.8070  207.6200  152.2450 C   0  0  0  0  0  2  0  0  0  0  0  0
  161.9370  206.7250  151.7630 C   0  0  0  0  0  2  0  0  0  0  0  0
  161.8300  206.5070  150.2580 C   0  0  1  0  0  3  0  0  0  0  0  0
  160.7200  202.4550  149.3610 C   0  0  0  0  0  3  0  0  0  0  0  0
  161.4150  205.1000  149.9560 C   0  0  0  0  0  0  0  0  0  0  0  0
  161.4280  204.6510  148.6310 C   0  0  0  0  0  3  0  0  0  0  0  0
  161.0580  204.2170  150.9830 C   0  0  0  0  0  3  0  0  0  0  0  0
  161.0830  203.3310  148.3250 C   0  0  0  0  0  0  0  0  0  0  0  0
  160.7080  202.8980  150.6860 C   0  0  0  0  0  3  0  0  0  0  0  0
  161.1120  202.9170  146.9910 O   0  0  0  0  0  0  0  0  0  0  0  0
  161.5790  203.7480  145.9390 C   0  0  0  0  0  1  0  0  0  0  0  0
  160.9120  207.4080  149.7120 O   0  0  0  0  0  0  0  0  0  0  0  0
  161.6720  208.2450  148.8940 C   0  0  0  0  0  1  0  0  0  0  0  0
  1  6  1  0  0  0  0
  2 17  1  6  0  0  0
  2  5  1  0  0  0  0
  2  3  1  0  0  0  0
  3  4  2  0  0  0  0
  4  7  1  0  0  0  0
  5  9  1  6  0  0  0
  5  1  1  0  0  0  0
  6  7  1  0  0  0  0
  8  9  2  0  0  0  0
 11  9  1  0  0  0  0
 11 10  2  0  0  0  0
 12 11  1  0  0  0  0
 13 12  1  0  0  0  0
 14 15  2  0  0  0  0
 15 13  1  0  0  0  0
 16 15  1  0  0  0  0
 18 17  1  0  0  0  0
 19 18  1  1  0  0  0
 20 25  1  0  0  0  0
 21 19  1  0  0  0  0
 21 23  1  0  0  0  0
 22 21  2  0  0  0  0
 24 22  1  0  0  0  0
 24 20  2  0  0  0  0
 25 23  2  0  0  0  0
 26 24  1  0  0  0  0
 27 26  1  0  0  0  0
 28 19  1  0  0  0  0
 29 28  1  0  0  0  0
M  END
>  <MODEL>
3

>  <REMARK>
 VINA RESULT:      -7.2      3.266      4.585
  Name = 
  10 active torsions:
  status: ('A' for Active; 'I' for Inactive)
    1  A    between atoms: C_3  and  C_24
    2  A    between atoms: C_4  and  C_16
    3  A    between atoms: C_4  and  N_27
    4  A    between atoms: C_5  and  C_20
    5  A    between atoms: O_6  and  C_19
    6  A    between atoms: C_13  and  C_17
    7  A    between atoms: C_14  and  C_17
    8  A    between atoms: C_20  and  C_22
    9  A    between atoms: C_20  and  O_25
   10  A    between atoms: C_22  and  C_24
                            x       y       z     vdW  Elec       q    Type
                         _______ _______ _______ _____ _____    ______ ____

>  <TORSDO>
F 10

$$$$
=
 OpenBabel11072413463D

 29 30  0  0  1  0  0  0  0  0999 V2000
  161.4630  210.0560  155.3620 C   0  0  0  0  0  2  0  0  0  0  0  0
  161.1190  208.0500  153.8300 C   0  0  2  0  0  3  0  0  0  0  0  0
  160.3560  207.1180  154.7320 C   0  0  0  0  0  3  0  0  0  0  0  0
  160.4630  207.1020  156.0650 C   0  0  0  0  0  3  0  0  0  0  0  0
  160.7580  209.5270  154.1100 C   0  0  2  0  0  3  0  0  0  0  0  0
  160.8980  209.4700  156.6480 C   0  0  0  0  0  2  0  0  0  0  0  0
  161.3540  208.0320  156.8260 C   0  0  0  0  0  2  0  0  0  0  0  0
  162.1490  210.2790  152.3320 O   0  0  0  0  0  0  0  0  0  0  0  0
  161.0700  210.4480  152.9600 C   0  0  0  0  0  0  0  0  0  0  0  0
  160.3280  212.1080  151.4390 O   0  0  0  0  0  0  0  0  0  0  0  0
  160.1530  211.5290  152.5450 C   0  0  0  0  0  0  0  0  0  0  0  0
  159.0800  211.9280  153.4000 N   0  0  0  0  0  2  0  0  0  0  0  0
  158.1010  212.9260  153.0020 C   0  0  0  0  0  2  0  0  0  0  0  0
  156.0410  213.7500  153.8690 O   0  0  0  0  0  0  0  0  0  0  0  0
  156.9210  212.8520  153.9040 C   0  0  0  0  0  0  0  0  0  0  0  0
  156.7710  211.7670  154.7570 O   0  0  0  0  0  1  0  0  0  0  0  0
  160.8180  207.6500  152.3930 C   0  0  0  0  0  2  0  0  0  0  0  0
  161.6290  206.4220  152.0140 C   0  0  0  0  0  2  0  0  0  0  0  0
  161.6880  206.2780  150.4980 C   0  0  1  0  0  3  0  0  0  0  0  0
  160.7360  202.2690  149.2840 C   0  0  0  0  0  3  0  0  0  0  0  0
  161.3280  204.8840  150.0840 C   0  0  0  0  0  0  0  0  0  0  0  0
  161.3910  204.5320  148.7330 C   0  0  0  0  0  3  0  0  0  0  0  0
  160.9720  203.9200  151.0360 C   0  0  0  0  0  3  0  0  0  0  0  0
  161.0980  203.2270  148.3240 C   0  0  0  0  0  0  0  0  0  0  0  0
  160.6730  202.6150  150.6360 C   0  0  0  0  0  3  0  0  0  0  0  0
  161.1770  202.9100  146.9660 O   0  0  0  0  0  0  0  0  0  0  0  0
  161.5920  203.8460  145.9820 C   0  0  0  0  0  1  0  0  0  0  0  0
  160.8220  207.1970  149.9000 O   0  0  0  0  0  0  0  0  0  0  0  0
  161.6330  207.9630  149.0620 C   0  0  0  0  0  1  0  0  0  0  0  0
  1  6  1  0  0  0  0
  2 17  1  6  0  0  0
  2  5  1  0  0  0  0
  2  3  1  0  0  0  0
  3  4  2  0  0  0  0
  4  7  1  0  0  0  0
  5  9  1  6  0  0  0
  5  1  1  0  0  0  0
  6  7  1  0  0  0  0
  8  9  2  0  0  0  0
 10 11  2  0  0  0  0
 11  9  1  0  0  0  0
 11 12  1  0  0  0  0
 13 12  1  0  0  0  0
 13 15  1  0  0  0  0
 14 15  2  0  0  0  0
 15 16  1  0  0  0  0
 18 17  1  0  0  0  0
 19 18  1  1  0  0  0
 20 25  1  0  0  0  0
 21 19  1  0  0  0  0
 21 23  1  0  0  0  0
 22 21  2  0  0  0  0
 24 22  1  0  0  0  0
 24 20  2  0  0  0  0
 25 23  2  0  0  0  0
 26 24  1  0  0  0  0
 27 26  1  0  0  0  0
 28 19  1  0  0  0  0
 29 28  1  0  0  0  0
M  END
>  <MODEL>
4

>  <REMARK>
 VINA RESULT:      -7.1      3.857      5.271
  Name = 
  10 active torsions:
  status: ('A' for Active; 'I' for Inactive)
    1  A    between atoms: C_3  and  C_24
    2  A    between atoms: C_4  and  C_16
    3  A    between atoms: C_4  and  N_27
    4  A    between atoms: C_5  and  C_20
    5  A    between atoms: O_6  and  C_19
    6  A    between atoms: C_13  and  C_17
    7  A    between atoms: C_14  and  C_17
    8  A    between atoms: C_20  and  C_22
    9  A    between atoms: C_20  and  O_25
   10  A    between atoms: C_22  and  C_24
                            x       y       z     vdW  Elec       q    Type
                         _______ _______ _______ _____ _____    ______ ____

>  <TORSDO>
F 10

$$$$
=
 OpenBabel11072413463D

 29 30  0  0  1  0  0  0  0  0999 V2000
  161.5290  209.9810  155.4440 C   0  0  0  0  0  2  0  0  0  0  0  0
  161.0910  207.9640  153.9520 C   0  0  2  0  0  3  0  0  0  0  0  0
  160.2980  207.0800  154.8760 C   0  0  0  0  0  3  0  0  0  0  0  0
  160.4160  207.0840  156.2080 C   0  0  0  0  0  3  0  0  0  0  0  0
  160.7940  209.4590  154.2080 C   0  0  2  0  0  3  0  0  0  0  0  0
  160.9520  209.4420  156.7450 C   0  0  0  0  0  2  0  0  0  0  0  0
  161.3500  207.9890  156.9460 C   0  0  0  0  0  2  0  0  0  0  0  0
  162.2250  210.1560  152.4390 O   0  0  0  0  0  0  0  0  0  0  0  0
  161.1340  210.3450  153.0380 C   0  0  0  0  0  0  0  0  0  0  0  0
  160.4400  211.9750  151.4630 O   0  0  0  0  0  0  0  0  0  0  0  0
  160.2290  211.4160  152.5730 C   0  0  0  0  0  0  0  0  0  0  0  0
  159.1290  211.8300  153.3850 N   0  0  0  0  0  2  0  0  0  0  0  0
  158.1620  212.8190  152.9360 C   0  0  0  0  0  2  0  0  0  0  0  0
  157.1680  212.4190  155.0640 O   0  0  0  0  0  1  0  0  0  0  0  0
  157.0340  212.8860  153.9040 C   0  0  0  0  0  0  0  0  0  0  0  0
  155.8460  213.5030  153.5370 O   0  0  0  0  0  0  0  0  0  0  0  0
  160.7620  207.5500  152.5250 C   0  0  0  0  0  2  0  0  0  0  0  0
  161.8110  206.5800  152.0080 C   0  0  0  0  0  2  0  0  0  0  0  0
  161.1430  205.4210  151.2790 C   0  0  1  0  0  3  0  0  0  0  0  0
  161.2430  205.9600  147.0180 C   0  0  0  0  0  3  0  0  0  0  0  0
  161.2040  205.6250  149.7950 C   0  0  0  0  0  0  0  0  0  0  0  0
  161.3200  204.5130  148.9550 C   0  0  0  0  0  3  0  0  0  0  0  0
  161.1010  206.9060  149.2390 C   0  0  0  0  0  3  0  0  0  0  0  0
  161.3400  204.6710  147.5660 C   0  0  0  0  0  0  0  0  0  0  0  0
  161.1250  207.0740  147.8530 C   0  0  0  0  0  3  0  0  0  0  0  0
  161.4520  203.5370  146.7580 O   0  0  0  0  0  0  0  0  0  0  0  0
  161.3440  203.5900  145.3430 C   0  0  0  0  0  1  0  0  0  0  0  0
  161.7650  204.2190  151.6260 O   0  0  0  0  0  0  0  0  0  0  0  0
  160.8380  203.5540  152.4300 C   0  0  0  0  0  1  0  0  0  0  0  0
  1  6  1  0  0  0  0
  2 17  1  6  0  0  0
  2  5  1  0  0  0  0
  2  3  1  0  0  0  0
  3  4  2  0  0  0  0
  4  7  1  0  0  0  0
  5  9  1  6  0  0  0
  5  1  1  0  0  0  0
  6  7  1  0  0  0  0
  8  9  2  0  0  0  0
 10 11  2  0  0  0  0
 11  9  1  0  0  0  0
 11 12  1  0  0  0  0
 13 12  1  0  0  0  0
 13 15  1  0  0  0  0
 15 14  1  0  0  0  0
 16 15  2  0  0  0  0
 18 17  1  0  0  0  0
 19 28  1  0  0  0  0
 19 18  1  1  0  0  0
 20 24  2  0  0  0  0
 20 25  1  0  0  0  0
 21 19  1  0  0  0  0
 22 21  2  0  0  0  0
 23 21  1  0  0  0  0
 24 22  1  0  0  0  0
 25 23  2  0  0  0  0
 26 24  1  0  0  0  0
 27 26  1  0  0  0  0
 28 29  1  0  0  0  0
M  END
>  <MODEL>
5

>  <REMARK>
 VINA RESULT:      -6.9      3.879      5.599
  Name = 
  10 active torsions:
  status: ('A' for Active; 'I' for Inactive)
    1  A    between atoms: C_3  and  C_24
    2  A    between atoms: C_4  and  C_16
    3  A    between atoms: C_4  and  N_27
    4  A    between atoms: C_5  and  C_20
    5  A    between atoms: O_6  and  C_19
    6  A    between atoms: C_13  and  C_17
    7  A    between atoms: C_14  and  C_17
    8  A    between atoms: C_20  and  C_22
    9  A    between atoms: C_20  and  O_25
   10  A    between atoms: C_22  and  C_24
                            x       y       z     vdW  Elec       q    Type
                         _______ _______ _______ _____ _____    ______ ____

>  <TORSDO>
F 10

$$$$
=
 OpenBabel11072413463D

 29 30  0  0  1  0  0  0  0  0999 V2000
  161.0150  203.8780  149.1860 C   0  0  0  0  0  2  0  0  0  0  0  0
  160.9000  206.0560  150.5020 C   0  0  2  0  0  3  0  0  0  0  0  0
  161.3030  205.5920  151.8750 C   0  0  0  0  0  3  0  0  0  0  0  0
  161.0950  204.3570  152.3450 C   0  0  0  0  0  3  0  0  0  0  0  0
  161.6360  205.2600  149.4000 C   0  0  2  0  0  3  0  0  0  0  0  0
  161.2950  202.9220  150.3360 C   0  0  0  0  0  2  0  0  0  0  0  0
  160.4440  203.2740  151.5440 C   0  0  0  0  0  2  0  0  0  0  0  0
  162.1460  207.1460  148.0400 O   0  0  0  0  0  0  0  0  0  0  0  0
  161.6810  205.9760  148.0750 C   0  0  0  0  0  0  0  0  0  0  0  0
  160.4640  205.9990  146.0410 O   0  0  0  0  0  0  0  0  0  0  0  0
  161.2060  205.3480  146.8250 C   0  0  0  0  0  0  0  0  0  0  0  0
  161.5710  204.0020  146.5120 N   0  0  0  0  0  2  0  0  0  0  0  0
  161.2000  203.3690  145.2570 C   0  0  0  0  0  2  0  0  0  0  0  0
  159.6910  201.6060  144.7190 O   0  0  0  0  0  0  0  0  0  0  0  0
  160.5270  202.0720  145.5360 C   0  0  0  0  0  0  0  0  0  0  0  0
  160.8540  201.3560  146.6790 O   0  0  0  0  0  1  0  0  0  0  0  0
  161.1850  207.5480  150.4190 C   0  0  0  0  0  2  0  0  0  0  0  0
  161.7320  208.0490  151.7450 C   0  0  0  0  0  2  0  0  0  0  0  0
  160.7940  209.0920  152.3410 C   0  0  1  0  0  3  0  0  0  0  0  0
  160.0890  208.3670  156.5170 C   0  0  0  0  0  3  0  0  0  0  0  0
  160.5780  208.8340  153.8020 C   0  0  0  0  0  0  0  0  0  0  0  0
  160.0870  209.8610  154.6140 C   0  0  0  0  0  3  0  0  0  0  0  0
  160.8180  207.5690  154.3530 C   0  0  0  0  0  3  0  0  0  0  0  0
  159.8390  209.6370  155.9710 C   0  0  0  0  0  0  0  0  0  0  0  0
  160.5780  207.3370  155.7100 C   0  0  0  0  0  3  0  0  0  0  0  0
  159.3440  210.6850  156.7500 O   0  0  0  0  0  0  0  0  0  0  0  0
  158.6490  211.7920  156.1960 C   0  0  0  0  0  1  0  0  0  0  0  0
  161.3230  210.3710  152.1510 O   0  0  0  0  0  0  0  0  0  0  0  0
  162.6970  210.1740  152.0050 C   0  0  0  0  0  1  0  0  0  0  0  0
  1  5  1  0  0  0  0
  1  6  1  0  0  0  0
  2 17  1  1  0  0  0
  2  3  1  0  0  0  0
  3  4  2  0  0  0  0
  5  9  1  6  0  0  0
  5  2  1  0  0  0  0
  6  7  1  0  0  0  0
  7  4  1  0  0  0  0
  8  9  2  0  0  0  0
 10 11  2  0  0  0  0
 11  9  1  0  0  0  0
 12 11  1  0  0  0  0
 13 15  1  0  0  0  0
 13 12  1  0  0  0  0
 14 15  2  0  0  0  0
 15 16  1  0  0  0  0
 17 18  1  0  0  0  0
 19 18  1  1  0  0  0
 19 21  1  0  0  0  0
 21 23  2  0  0  0  0
 21 22  1  0  0  0  0
 22 24  2  0  0  0  0
 23 25  1  0  0  0  0
 24 20  1  0  0  0  0
 24 26  1  0  0  0  0
 25 20  2  0  0  0  0
 27 26  1  0  0  0  0
 28 19  1  0  0  0  0
 29 28  1  0  0  0  0
M  END
>  <MODEL>
6

>  <REMARK>
 VINA RESULT:      -6.9      3.512      8.154
  Name = 
  10 active torsions:
  status: ('A' for Active; 'I' for Inactive)
    1  A    between atoms: C_3  and  C_24
    2  A    between atoms: C_4  and  C_16
    3  A    between atoms: C_4  and  N_27
    4  A    between atoms: C_5  and  C_20
    5  A    between atoms: O_6  and  C_19
    6  A    between atoms: C_13  and  C_17
    7  A    between atoms: C_14  and  C_17
    8  A    between atoms: C_20  and  C_22
    9  A    between atoms: C_20  and  O_25
   10  A    between atoms: C_22  and  C_24
                            x       y       z     vdW  Elec       q    Type
                         _______ _______ _______ _____ _____    ______ ____

>  <TORSDO>
F 10

$$$$
=
 OpenBabel11072413463D

 29 30  0  0  1  0  0  0  0  0999 V2000
  160.3110  206.3930  145.8850 C   0  0  0  0  0  2  0  0  0  0  0  0
  161.3030  204.6450  147.4490 C   0  0  2  0  0  3  0  0  0  0  0  0
  162.0080  203.7430  146.4730 C   0  0  0  0  0  3  0  0  0  0  0  0
  161.6270  203.5620  145.2030 C   0  0  0  0  0  3  0  0  0  0  0  0
  161.3410  206.1190  146.9830 C   0  0  2  0  0  3  0  0  0  0  0  0
  160.6850  205.7590  144.5530 C   0  0  0  0  0  2  0  0  0  0  0  0
  160.4530  204.2580  144.5930 C   0  0  0  0  0  2  0  0  0  0  0  0
  160.1150  206.9620  148.8400 O   0  0  0  0  0  0  0  0  0  0  0  0
  161.1250  207.1050  148.1010 C   0  0  0  0  0  0  0  0  0  0  0  0
  163.2860  207.9870  148.5120 O   0  0  0  0  0  0  0  0  0  0  0  0
  162.0570  208.2220  148.3560 C   0  0  0  0  0  0  0  0  0  0  0  0
  161.5680  209.5610  148.4440 N   0  0  0  0  0  2  0  0  0  0  0  0
  162.4540  210.7020  148.6090 C   0  0  0  0  0  2  0  0  0  0  0  0
  162.0470  213.0490  148.6750 O   0  0  0  0  0  1  0  0  0  0  0  0
  161.7610  211.9380  148.1570 C   0  0  0  0  0  0  0  0  0  0  0  0
  160.8270  211.8710  147.1320 O   0  0  0  0  0  0  0  0  0  0  0  0
  161.9620  204.4570  148.8080 C   0  0  0  0  0  2  0  0  0  0  0  0
  160.9210  204.0610  149.8410 C   0  0  0  0  0  2  0  0  0  0  0  0
  161.5800  203.8520  151.1990 C   0  0  1  0  0  3  0  0  0  0  0  0
  161.2170  207.4360  153.5400 C   0  0  0  0  0  3  0  0  0  0  0  0
  161.4730  205.0910  152.0350 C   0  0  0  0  0  0  0  0  0  0  0  0
  161.8910  206.3150  151.5040 C   0  0  0  0  0  3  0  0  0  0  0  0
  160.9200  205.0460  153.3220 C   0  0  0  0  0  3  0  0  0  0  0  0
  161.7660  207.4920  152.2480 C   0  0  0  0  0  0  0  0  0  0  0  0
  160.7960  206.2160  154.0740 C   0  0  0  0  0  3  0  0  0  0  0  0
  162.1900  208.6970  151.6840 O   0  0  0  0  0  0  0  0  0  0  0  0
  161.7660  209.9620  152.1670 C   0  0  0  0  0  1  0  0  0  0  0  0
  160.9820  202.7740  151.8560 O   0  0  0  0  0  0  0  0  0  0  0  0
  160.8380  201.7900  150.8770 C   0  0  0  0  0  1  0  0  0  0  0  0
  1  5  1  0  0  0  0
  2 17  1  1  0  0  0
  3  2  1  0  0  0  0
  4  3  2  0  0  0  0
  5  2  1  0  0  0  0
  5  9  1  1  0  0  0
  6  7  1  0  0  0  0
  6  1  1  0  0  0  0
  7  4  1  0  0  0  0
  9 11  1  0  0  0  0
  9  8  2  0  0  0  0
 11 12  1  0  0  0  0
 11 10  2  0  0  0  0
 12 13  1  0  0  0  0
 15 13  1  0  0  0  0
 15 14  1  0  0  0  0
 16 15  2  0  0  0  0
 17 18  1  0  0  0  0
 19 18  1  6  0  0  0
 19 28  1  0  0  0  0
 19 21  1  0  0  0  0
 20 25  1  0  0  0  0
 21 23  1  0  0  0  0
 22 21  2  0  0  0  0
 22 24  1  0  0  0  0
 23 25  2  0  0  0  0
 24 20  2  0  0  0  0
 26 27  1  0  0  0  0
 26 24  1  0  0  0  0
 29 28  1  0  0  0  0
M  END
>  <MODEL>
7

>  <REMARK>
 VINA RESULT:      -6.8      1.753      5.597
  Name = 
  10 active torsions:
  status: ('A' for Active; 'I' for Inactive)
    1  A    between atoms: C_3  and  C_24
    2  A    between atoms: C_4  and  C_16
    3  A    between atoms: C_4  and  N_27
    4  A    between atoms: C_5  and  C_20
    5  A    between atoms: O_6  and  C_19
    6  A    between atoms: C_13  and  C_17
    7  A    between atoms: C_14  and  C_17
    8  A    between atoms: C_20  and  C_22
    9  A    between atoms: C_20  and  O_25
   10  A    between atoms: C_22  and  C_24
                            x       y       z     vdW  Elec       q    Type
                         _______ _______ _______ _____ _____    ______ ____

>  <TORSDO>
F 10

$$$$
=
 OpenBabel11072413463D

 29 30  0  0  1  0  0  0  0  0999 V2000
  160.8220  203.5690  149.7290 C   0  0  0  0  0  2  0  0  0  0  0  0
  160.8400  205.9110  150.7300 C   0  0  2  0  0  3  0  0  0  0  0  0
  161.3730  205.6370  152.1100 C   0  0  0  0  0  3  0  0  0  0  0  0
  161.2090  204.4840  152.7670 C   0  0  0  0  0  3  0  0  0  0  0  0
  161.4640  204.9570  149.6850 C   0  0  2  0  0  3  0  0  0  0  0  0
  161.2110  202.7780  150.9700 C   0  0  0  0  0  2  0  0  0  0  0  0
  160.4820  203.3100  152.1930 C   0  0  0  0  0  2  0  0  0  0  0  0
  160.9550  206.6510  148.0920 O   0  0  0  0  0  0  0  0  0  0  0  0
  161.3810  205.4790  148.2740 C   0  0  0  0  0  0  0  0  0  0  0  0
  162.9870  204.6850  146.7220 O   0  0  0  0  0  0  0  0  0  0  0  0
  161.7870  204.6670  147.1090 C   0  0  0  0  0  0  0  0  0  0  0  0
  160.8220  203.8760  146.4130 N   0  0  0  0  0  2  0  0  0  0  0  0
  161.1870  202.9960  145.3150 C   0  0  0  0  0  2  0  0  0  0  0  0
  160.0760  200.9480  144.8170 O   0  0  0  0  0  0  0  0  0  0  0  0
  160.7710  201.6040  145.6350 C   0  0  0  0  0  0  0  0  0  0  0  0
  161.1850  201.0150  146.8220 O   0  0  0  0  0  1  0  0  0  0  0  0
  161.1180  207.3720  150.4100 C   0  0  0  0  0  2  0  0  0  0  0  0
  161.6400  208.0860  151.6460 C   0  0  0  0  0  2  0  0  0  0  0  0
  161.1460  209.5270  151.6700 C   0  0  1  0  0  3  0  0  0  0  0  0
  159.4990  210.4840  155.5210 C   0  0  0  0  0  3  0  0  0  0  0  0
  160.5430  209.8580  153.0010 C   0  0  0  0  0  0  0  0  0  0  0  0
  160.7620  209.0020  154.0850 C   0  0  0  0  0  3  0  0  0  0  0  0
  159.8040  211.0340  153.1850 C   0  0  0  0  0  3  0  0  0  0  0  0
  160.2440  209.3060  155.3470 C   0  0  0  0  0  0  0  0  0  0  0  0
  159.2790  211.3440  154.4420 C   0  0  0  0  0  3  0  0  0  0  0  0
  160.4870  208.4300  156.4070 O   0  0  0  0  0  0  0  0  0  0  0  0
  160.0850  207.0680  156.3850 C   0  0  0  0  0  1  0  0  0  0  0  0
  162.2030  210.3960  151.3900 O   0  0  0  0  0  0  0  0  0  0  0  0
  162.0150  210.7760  150.0600 C   0  0  0  0  0  1  0  0  0  0  0  0
  1  6  1  0  0  0  0
  2 17  1  6  0  0  0
  2  3  1  0  0  0  0
  3  4  2  0  0  0  0
  5  9  1  6  0  0  0
  5  1  1  0  0  0  0
  5  2  1  0  0  0  0
  6  7  1  0  0  0  0
  7  4  1  0  0  0  0
  8  9  2  0  0  0  0
 10 11  2  0  0  0  0
 11  9  1  0  0  0  0
 12 11  1  0  0  0  0
 13 15  1  0  0  0  0
 13 12  1  0  0  0  0
 14 15  2  0  0  0  0
 15 16  1  0  0  0  0
 17 18  1  0  0  0  0
 19 18  1  1  0  0  0
 19 21  1  0  0  0  0
 21 23  2  0  0  0  0
 21 22  1  0  0  0  0
 22 24  2  0  0  0  0
 23 25  1  0  0  0  0
 24 20  1  0  0  0  0
 24 26  1  0  0  0  0
 25 20  2  0  0  0  0
 27 26  1  0  0  0  0
 28 19  1  0  0  0  0
 29 28  1  0  0  0  0
M  END
>  <MODEL>
8

>  <REMARK>
 VINA RESULT:      -6.7      3.316      8.046
  Name = 
  10 active torsions:
  status: ('A' for Active; 'I' for Inactive)
    1  A    between atoms: C_3  and  C_24
    2  A    between atoms: C_4  and  C_16
    3  A    between atoms: C_4  and  N_27
    4  A    between atoms: C_5  and  C_20
    5  A    between atoms: O_6  and  C_19
    6  A    between atoms: C_13  and  C_17
    7  A    between atoms: C_14  and  C_17
    8  A    between atoms: C_20  and  C_22
    9  A    between atoms: C_20  and  O_25
   10  A    between atoms: C_22  and  C_24
                            x       y       z     vdW  Elec       q    Type
                         _______ _______ _______ _____ _____    ______ ____

>  <TORSDO>
F 10

$$$$
=
 OpenBabel11072413463D

 29 30  0  0  1  0  0  0  0  0999 V2000
  160.8310  203.1990  148.5810 C   0  0  0  0  0  2  0  0  0  0  0  0
  160.5170  204.1710  150.9140 C   0  0  2  0  0  3  0  0  0  0  0  0
  161.2020  203.1330  151.7600 C   0  0  0  0  0  3  0  0  0  0  0  0
  161.2990  201.8400  151.4350 C   0  0  0  0  0  3  0  0  0  0  0  0
  161.2110  204.3280  149.5420 C   0  0  2  0  0  3  0  0  0  0  0  0
  161.4540  201.8650  148.9630 C   0  0  0  0  0  2  0  0  0  0  0  0
  160.7460  201.2690  150.1680 C   0  0  0  0  0  2  0  0  0  0  0  0
  160.0480  206.3980  149.3800 O   0  0  0  0  0  0  0  0  0  0  0  0
  160.9210  205.6460  148.8720 C   0  0  0  0  0  0  0  0  0  0  0  0
  162.4900  206.9990  147.7200 O   0  0  0  0  0  0  0  0  0  0  0  0
  161.6290  206.0800  147.6500 C   0  0  0  0  0  0  0  0  0  0  0  0
  161.3290  205.4740  146.3920 N   0  0  0  0  0  2  0  0  0  0  0  0
  162.0570  205.8070  145.1770 C   0  0  0  0  0  2  0  0  0  0  0  0
  160.3320  204.5360  144.1350 O   0  0  0  0  0  1  0  0  0  0  0  0
  161.2820  205.3480  143.9930 C   0  0  0  0  0  0  0  0  0  0  0  0
  161.5820  205.8510  142.7350 O   0  0  0  0  0  0  0  0  0  0  0  0
  160.5050  205.4730  151.7020 C   0  0  0  0  0  2  0  0  0  0  0  0
  161.4940  205.3940  152.8530 C   0  0  0  0  0  2  0  0  0  0  0  0
  161.5280  206.7170  153.6090 C   0  0  1  0  0  3  0  0  0  0  0  0
  161.6560  210.0740  150.9310 C   0  0  0  0  0  3  0  0  0  0  0  0
  161.5580  207.8710  152.6540 C   0  0  0  0  0  0  0  0  0  0  0  0
  160.8800  209.0500  152.9820 C   0  0  0  0  0  3  0  0  0  0  0  0
  162.2910  207.8010  151.4630 C   0  0  0  0  0  3  0  0  0  0  0  0
  160.9250  210.1560  152.1270 C   0  0  0  0  0  0  0  0  0  0  0  0
  162.3370  208.8990  150.6000 C   0  0  0  0  0  3  0  0  0  0  0  0
  160.2390  211.3180  152.4890 O   0  0  0  0  0  0  0  0  0  0  0  0
  160.0700  211.7200  153.8400 C   0  0  0  0  0  1  0  0  0  0  0  0
  160.4140  206.8140  154.4460 O   0  0  0  0  0  0  0  0  0  0  0  0
  160.9180  207.2740  155.6640 C   0  0  0  0  0  1  0  0  0  0  0  0
  1  6  1  0  0  0  0
  1  5  1  0  0  0  0
  2 17  1  1  0  0  0
  2  3  1  0  0  0  0
  4  3  2  0  0  0  0
  5  9  1  6  0  0  0
  5  2  1  0  0  0  0
  6  7  1  0  0  0  0
  7  4  1  0  0  0  0
  9  8  2  0  0  0  0
 11 10  2  0  0  0  0
 11  9  1  0  0  0  0
 12 11  1  0  0  0  0
 13 12  1  0  0  0  0
 15 14  1  0  0  0  0
 15 13  1  0  0  0  0
 16 15  2  0  0  0  0
 17 18  1  0  0  0  0
 19 18  1  6  0  0  0
 19 28  1  0  0  0  0
 20 24  1  0  0  0  0
 21 22  1  0  0  0  0
 21 19  1  0  0  0  0
 23 21  2  0  0  0  0
 24 26  1  0  0  0  0
 24 22  2  0  0  0  0
 25 20  2  0  0  0  0
 25 23  1  0  0  0  0
 26 27  1  0  0  0  0
 28 29  1  0  0  0  0
M  END
>  <MODEL>
9

>  <REMARK>
 VINA RESULT:      -6.7      2.791      7.207
  Name = 
  10 active torsions:
  status: ('A' for Active; 'I' for Inactive)
    1  A    between atoms: C_3  and  C_24
    2  A    between atoms: C_4  and  C_16
    3  A    between atoms: C_4  and  N_27
    4  A    between atoms: C_5  and  C_20
    5  A    between atoms: O_6  and  C_19
    6  A    between atoms: C_13  and  C_17
    7  A    between atoms: C_14  and  C_17
    8  A    between atoms: C_20  and  C_22
    9  A    between atoms: C_20  and  O_25
   10  A    between atoms: C_22  and  C_24
                            x       y       z     vdW  Elec       q    Type
                         _______ _______ _______ _____ _____    ______ ____

>  <TORSDO>
F 10

$$$$
