=
 OpenBabel11072414463D

 45 50  0  0  1  0  0  0  0  0999 V2000
  161.1330  206.4690  153.2920 C   0  0  0  0  0  3  0  0  0  0  0  0
  160.4910  207.4410  155.3700 N   0  0  0  0  0  0  0  0  0  0  0  0
  161.3530  208.8610  153.6400 C   0  0  0  0  0  0  0  0  0  0  0  0
  160.6040  209.8020  155.7910 N   0  0  0  0  0  1  0  0  0  0  0  0
  160.6430  206.3400  154.5890 C   0  0  0  0  0  3  0  0  0  0  0  0
  161.4730  207.7360  152.7950 C   0  0  0  0  0  0  0  0  0  0  0  0
  160.8260  208.6850  154.9350 C   0  0  0  0  0  0  0  0  0  0  0  0
  161.7360  210.2390  153.1520 C   0  0  0  0  0  2  0  0  0  0  0  0
  159.2910  210.2720  152.5420 C   0  0  0  0  0  1  0  0  0  0  0  0
  160.3320  212.1780  153.7080 C   0  0  0  0  0  1  0  0  0  0  0  0
  160.5640  211.1020  152.6610 C   0  0  0  0  0  0  0  0  0  0  0  0
  160.9180  211.7500  151.3130 C   0  0  0  0  0  2  0  0  0  0  0  0
  161.3520  210.7520  150.2410 C   0  0  0  0  0  2  0  0  0  0  0  0
  162.3920  211.3880  149.3340 C   0  0  0  0  0  2  0  0  0  0  0  0
  162.2270  213.5320  146.2570 C   0  0  0  0  0  2  0  0  0  0  0  0
  162.7920  213.1470  147.6200 C   0  0  0  0  0  2  0  0  0  0  0  0
  160.1750  212.5520  146.6920 C   0  0  1  0  0  3  0  0  0  0  0  0
  160.9590  211.6240  147.4310 O   0  0  0  0  0  0  0  0  0  0  0  0
  160.8430  213.7660  146.3610 O   0  0  0  0  0  0  0  0  0  0  0  0
  161.7310  212.3420  148.3590 C   0  0  1  0  0  3  0  0  0  0  0  0
  159.7000  211.9450  145.5270 O   0  0  0  0  0  0  0  0  0  0  0  0
  158.9940  212.9500  144.8590 C   0  0  0  0  0  2  0  0  0  0  0  0
  159.3250  212.9130  143.3750 C   0  0  0  0  0  2  0  0  0  0  0  0
  160.2600  211.7550  143.0670 C   0  0  0  0  0  3  0  0  0  0  0  0
  161.5970  212.3130  142.6360 C   0  0  0  0  0  2  0  0  0  0  0  0
  160.6350  211.7780  141.5980 C   0  0  0  0  0  2  0  0  0  0  0  0
  161.9960  207.8990  151.3880 C   0  0  0  0  0  2  0  0  0  0  0  0
  162.5320  206.6210  150.7580 C   0  0  0  0  0  2  0  0  0  0  0  0
  162.1250  206.5570  149.2930 C   0  0  0  0  0  2  0  0  0  0  0  0
  161.1340  205.4110  148.9840 C   0  0  2  0  0  0  0  0  0  0  0  0
  161.7580  203.6030  151.6210 O   0  0  0  0  0  0  0  0  0  0  0  0
  160.7500  201.3240  149.1180 C   0  0  0  0  0  2  0  0  0  0  0  0
  161.3770  203.2870  150.5040 C   0  0  0  0  0  0  0  0  0  0  0  0
  161.8460  204.3060  146.9320 C   0  0  1  0  0  3  0  0  0  0  0  0
  160.7980  206.5500  146.6190 C   0  0  0  0  0  2  0  0  0  0  0  0
  160.7830  202.2250  147.8920 C   0  0  0  0  0  2  0  0  0  0  0  0
  161.9350  203.2360  148.0020 C   0  0  2  0  0  3  0  0  0  0  0  0
  161.3660  205.0920  144.6260 C   0  0  0  0  0  2  0  0  0  0  0  0
  161.4360  203.8590  145.5290 C   0  0  0  0  0  2  0  0  0  0  0  0
  160.4100  202.1530  150.3530 C   0  0  0  0  0  2  0  0  0  0  0  0
  160.4070  206.1490  145.1940 C   0  0  0  0  0  2  0  0  0  0  0  0
  161.8490  204.0670  149.2980 C   0  0  1  0  0  3  0  0  0  0  0  0
  160.8440  205.2910  147.4800 C   0  0  2  0  0  3  0  0  0  0  0  0
  159.8930  205.5420  149.6530 O   0  0  0  0  0  0  0  0  0  0  0  0
  159.5950  206.8300  149.7210 O   0  0  0  0  0  1  0  0  0  0  0  0
  1  5  1  0  0  0  0
  3  7  2  0  0  0  0
  5  2  2  0  0  0  0
  6  1  2  0  0  0  0
  6  3  1  0  0  0  0
  7  2  1  0  0  0  0
  7  4  1  0  0  0  0
  8  3  1  0  0  0  0
  9 11  1  0  0  0  0
 11  8  1  0  0  0  0
 11 10  1  0  0  0  0
 12 11  1  0  0  0  0
 13 12  1  0  0  0  0
 14 13  1  0  0  0  0
 15 19  1  0  0  0  0
 15 16  1  0  0  0  0
 16 20  1  0  0  0  0
 17 21  1  6  0  0  0
 17 18  1  0  0  0  0
 18 20  1  0  0  0  0
 19 17  1  0  0  0  0
 20 14  1  1  0  0  0
 22 21  1  0  0  0  0
 23 22  1  0  0  0  0
 24 23  1  0  0  0  0
 25 24  1  0  0  0  0
 26 25  1  0  0  0  0
 26 24  1  0  0  0  0
 27  6  1  0  0  0  0
 28 27  1  0  0  0  0
 29 28  1  0  0  0  0
 30 29  1  1  0  0  0
 30 42  1  0  0  0  0
 30 44  1  0  0  0  0
 32 40  1  0  0  0  0
 33 31  2  0  0  0  0
 34 39  1  6  0  0  0
 34 43  1  0  0  0  0
 34 37  1  0  0  0  0
 36 32  1  0  0  0  0
 37 36  1  6  0  0  0
 37 42  1  0  0  0  0
 38 41  1  0  0  0  0
 38 39  1  0  0  0  0
 40 33  1  0  0  0  0
 41 35  1  0  0  0  0
 42 33  1  1  0  0  0
 43 35  1  6  0  0  0
 43 30  1  0  0  0  0
 44 45  1  0  0  0  0
M  END
>  <MODEL>
1

>  <REMARK>
 VINA RESULT:      -6.4      0.000      0.000
  Name = 
  15 active torsions:
  status: ('A' for Active; 'I' for Inactive)
    1  A    between atoms: C_3  and  C_5
    2  A    between atoms: C_5  and  C_20
    3  A    between atoms: C_6  and  O_27
    4  A    between atoms: C_6  and  C_30
    5  A    between atoms: C_10  and  C_20
    6  A    between atoms: C_10  and  C_41
    7  A    between atoms: C_16  and  C_39
    8  A    between atoms: C_23  and  C_30
    9  A    between atoms: C_23  and  C_31
   10  A    between atoms: C_24  and  O_35
   11  A    between atoms: C_28  and  C_41
   12  A    between atoms: C_28  and  C_42
   13  A    between atoms: C_31  and  C_34
   14  A    between atoms: O_35  and  C_38
   15  A    between atoms: C_38  and  C_39
                            x       y       z     vdW  Elec       q    Type
                         _______ _______ _______ _____ _____    ______ ____

>  <TORSDO>
F 15

$$$$
=
 OpenBabel11072414463D

 45 50  0  0  1  0  0  0  0  0999 V2000
  160.2970  208.2020  153.8860 C   0  0  0  0  0  3  0  0  0  0  0  0
  161.4410  206.1160  153.7520 N   0  0  0  0  0  0  0  0  0  0  0  0
  161.8650  207.7830  152.0810 C   0  0  0  0  0  0  0  0  0  0  0  0
  163.0600  205.6280  152.0480 N   0  0  0  0  0  1  0  0  0  0  0  0
  160.5440  206.9230  154.3770 C   0  0  0  0  0  3  0  0  0  0  0  0
  160.9730  208.6550  152.7430 C   0  0  0  0  0  0  0  0  0  0  0  0
  162.1040  206.5090  152.6310 C   0  0  0  0  0  0  0  0  0  0  0  0
  162.5910  208.2230  150.8300 C   0  0  0  0  0  2  0  0  0  0  0  0
  161.5780  209.1620  148.7210 C   0  0  0  0  0  1  0  0  0  0  0  0
  162.8130  207.0290  148.6930 C   0  0  0  0  0  1  0  0  0  0  0  0
  161.8700  207.8930  149.5130 C   0  0  0  0  0  0  0  0  0  0  0  0
  160.5730  207.1220  149.8050 C   0  0  0  0  0  2  0  0  0  0  0  0
  160.5270  205.7300  149.1780 C   0  0  0  0  0  2  0  0  0  0  0  0
  160.7370  204.6740  150.2510 C   0  0  0  0  0  2  0  0  0  0  0  0
  160.5840  200.9760  149.6240 C   0  0  0  0  0  2  0  0  0  0  0  0
  160.7740  202.2000  150.5130 C   0  0  0  0  0  2  0  0  0  0  0  0
  161.2240  202.1120  147.7110 C   0  0  1  0  0  3  0  0  0  0  0  0
  160.6020  203.2160  148.3560 O   0  0  0  0  0  0  0  0  0  0  0  0
  161.5100  201.0070  148.5630 O   0  0  0  0  0  0  0  0  0  0  0  0
  161.1850  203.3670  149.6250 C   0  0  1  0  0  3  0  0  0  0  0  0
  160.4350  201.6870  146.6390 O   0  0  0  0  0  0  0  0  0  0  0  0
  160.8160  202.4990  145.5660 C   0  0  0  0  0  2  0  0  0  0  0  0
  161.6880  203.6390  146.0660 C   0  0  0  0  0  2  0  0  0  0  0  0
  161.1360  204.9760  145.6010 C   0  0  0  0  0  3  0  0  0  0  0  0
  161.5520  205.2010  144.1650 C   0  0  0  0  0  2  0  0  0  0  0  0
  162.2790  205.9190  145.2800 C   0  0  0  0  0  2  0  0  0  0  0  0
  160.7290  210.0430  152.2000 C   0  0  0  0  0  2  0  0  0  0  0  0
  159.4770  210.7230  152.7380 C   0  0  0  0  0  2  0  0  0  0  0  0
  159.7650  211.3300  154.1030 C   0  0  0  0  0  2  0  0  0  0  0  0
  159.0030  212.6520  154.3570 C   0  0  2  0  0  0  0  0  0  0  0  0
  157.3270  211.6680  156.9700 O   0  0  0  0  0  0  0  0  0  0  0  0
  155.3220  214.1270  155.4190 C   0  0  0  0  0  2  0  0  0  0  0  0
  157.0650  212.5020  156.1160 C   0  0  0  0  0  0  0  0  0  0  0  0
  157.5490  213.0830  152.4500 C   0  0  1  0  0  3  0  0  0  0  0  0
  159.9800  213.4750  152.0390 C   0  0  0  0  0  2  0  0  0  0  0  0
  156.0470  214.2810  154.0900 C   0  0  0  0  0  2  0  0  0  0  0  0
  156.6100  212.9270  153.6290 C   0  0  2  0  0  3  0  0  0  0  0  0
  158.2500  214.1150  150.3020 C   0  0  0  0  0  2  0  0  0  0  0  0
  157.1500  214.0830  151.3650 C   0  0  0  0  0  2  0  0  0  0  0  0
  156.3200  213.7420  156.5060 C   0  0  0  0  0  2  0  0  0  0  0  0
  159.6150  214.4530  150.9180 C   0  0  0  0  0  2  0  0  0  0  0  0
  157.5290  212.2930  154.6930 C   0  0  1  0  0  3  0  0  0  0  0  0
  158.8600  213.4870  153.0750 C   0  0  2  0  0  3  0  0  0  0  0  0
  159.6080  213.4720  155.3410 O   0  0  0  0  0  0  0  0  0  0  0  0
  160.5040  212.7450  155.9890 O   0  0  0  0  0  1  0  0  0  0  0  0
  1  5  1  0  0  0  0
  2  5  2  0  0  0  0
  3  7  2  0  0  0  0
  3  6  1  0  0  0  0
  4  7  1  0  0  0  0
  6  1  2  0  0  0  0
  7  2  1  0  0  0  0
  8  3  1  0  0  0  0
  9 11  1  0  0  0  0
 10 11  1  0  0  0  0
 11 12  1  0  0  0  0
 11  8  1  0  0  0  0
 13 12  1  0  0  0  0
 13 14  1  0  0  0  0
 15 16  1  0  0  0  0
 17 21  1  6  0  0  0
 17 18  1  0  0  0  0
 17 19  1  0  0  0  0
 18 20  1  0  0  0  0
 19 15  1  0  0  0  0
 20 14  1  1  0  0  0
 20 16  1  0  0  0  0
 22 23  1  0  0  0  0
 22 21  1  0  0  0  0
 24 23  1  0  0  0  0
 25 26  1  0  0  0  0
 25 24  1  0  0  0  0
 26 24  1  0  0  0  0
 27 28  1  0  0  0  0
 27  6  1  0  0  0  0
 28 29  1  0  0  0  0
 30 29  1  6  0  0  0
 30 42  1  0  0  0  0
 30 44  1  0  0  0  0
 32 40  1  0  0  0  0
 33 40  1  0  0  0  0
 33 31  2  0  0  0  0
 34 39  1  6  0  0  0
 34 43  1  0  0  0  0
 34 37  1  0  0  0  0
 36 32  1  0  0  0  0
 37 36  1  1  0  0  0
 37 42  1  0  0  0  0
 38 41  1  0  0  0  0
 38 39  1  0  0  0  0
 41 35  1  0  0  0  0
 42 33  1  1  0  0  0
 43 35  1  6  0  0  0
 43 30  1  0  0  0  0
 44 45  1  0  0  0  0
M  END
>  <MODEL>
2

>  <REMARK>
 VINA RESULT:      -6.3      3.736      9.027
  Name = 
  15 active torsions:
  status: ('A' for Active; 'I' for Inactive)
    1  A    between atoms: C_3  and  C_5
    2  A    between atoms: C_5  and  C_20
    3  A    between atoms: C_6  and  O_27
    4  A    between atoms: C_6  and  C_30
    5  A    between atoms: C_10  and  C_20
    6  A    between atoms: C_10  and  C_41
    7  A    between atoms: C_16  and  C_39
    8  A    between atoms: C_23  and  C_30
    9  A    between atoms: C_23  and  C_31
   10  A    between atoms: C_24  and  O_35
   11  A    between atoms: C_28  and  C_41
   12  A    between atoms: C_28  and  C_42
   13  A    between atoms: C_31  and  C_34
   14  A    between atoms: O_35  and  C_38
   15  A    between atoms: C_38  and  C_39
                            x       y       z     vdW  Elec       q    Type
                         _______ _______ _______ _____ _____    ______ ____

>  <TORSDO>
F 15

$$$$
=
 OpenBabel11072414463D

 45 50  0  0  1  0  0  0  0  0999 V2000
  162.1220  210.2040  150.2140 C   0  0  0  0  0  3  0  0  0  0  0  0
  161.8040  208.4070  148.6810 N   0  0  0  0  0  0  0  0  0  0  0  0
  161.1050  208.1300  150.9590 C   0  0  0  0  0  0  0  0  0  0  0  0
  160.7480  206.3420  149.3010 N   0  0  0  0  0  1  0  0  0  0  0  0
  162.2560  209.6620  148.9380 C   0  0  0  0  0  3  0  0  0  0  0  0
  161.5240  209.4490  151.2340 C   0  0  0  0  0  0  0  0  0  0  0  0
  161.2360  207.6350  149.6470 C   0  0  0  0  0  0  0  0  0  0  0  0
  160.4830  207.2750  152.0390 C   0  0  0  0  0  2  0  0  0  0  0  0
  162.8310  206.3620  152.0980 C   0  0  0  0  0  1  0  0  0  0  0  0
  161.5960  206.8150  154.1820 C   0  0  0  0  0  1  0  0  0  0  0  0
  161.4560  206.3220  152.7520 C   0  0  0  0  0  0  0  0  0  0  0  0
  160.8900  204.8930  152.7440 C   0  0  0  0  0  2  0  0  0  0  0  0
  161.5390  203.9760  151.7090 C   0  0  0  0  0  2  0  0  0  0  0  0
  160.4920  203.4890  150.7210 C   0  0  0  0  0  2  0  0  0  0  0  0
  161.1230  200.2000  149.0260 C   0  0  0  0  0  2  0  0  0  0  0  0
  161.1670  201.1470  150.2210 C   0  0  0  0  0  2  0  0  0  0  0  0
  161.1260  201.9340  147.4920 C   0  0  1  0  0  3  0  0  0  0  0  0
  160.3810  202.6070  148.4980 O   0  0  0  0  0  0  0  0  0  0  0  0
  161.8130  200.7680  147.9380 O   0  0  0  0  0  0  0  0  0  0  0  0
  161.1230  202.5740  149.6900 C   0  0  1  0  0  3  0  0  0  0  0  0
  160.2870  201.6040  146.4250 O   0  0  0  0  0  0  0  0  0  0  0  0
  160.8040  202.3000  145.3290 C   0  0  0  0  0  2  0  0  0  0  0  0
  160.8140  203.7920  145.6240 C   0  0  0  0  0  2  0  0  0  0  0  0
  162.2150  204.3580  145.4630 C   0  0  0  0  0  3  0  0  0  0  0  0
  162.2670  205.7190  146.1170 C   0  0  0  0  0  2  0  0  0  0  0  0
  162.1660  205.6110  144.6120 C   0  0  0  0  0  2  0  0  0  0  0  0
  161.3590  210.0220  152.6220 C   0  0  0  0  0  2  0  0  0  0  0  0
  160.5830  211.3310  152.6800 C   0  0  0  0  0  2  0  0  0  0  0  0
  159.2420  211.1060  153.3640 C   0  0  0  0  0  2  0  0  0  0  0  0
  158.6820  212.3780  154.0430 C   0  0  2  0  0  0  0  0  0  0  0  0
  158.3700  211.1440  157.0410 O   0  0  0  0  0  0  0  0  0  0  0  0
  155.8870  213.6410  156.7730 C   0  0  0  0  0  2  0  0  0  0  0  0
  157.7520  212.0300  156.4700 C   0  0  0  0  0  0  0  0  0  0  0  0
  156.5220  212.8990  153.0430 C   0  0  1  0  0  3  0  0  0  0  0  0
  158.5030  213.4060  151.6110 C   0  0  0  0  0  2  0  0  0  0  0  0
  155.9310  213.9190  155.2780 C   0  0  0  0  0  2  0  0  0  0  0  0
  156.2190  212.6230  154.5020 C   0  0  2  0  0  3  0  0  0  0  0  0
  156.1750  214.1130  150.9040 C   0  0  0  0  0  2  0  0  0  0  0  0
  155.6770  213.9640  152.3430 C   0  0  0  0  0  2  0  0  0  0  0  0
  157.2690  213.2110  157.2550 C   0  0  0  0  0  2  0  0  0  0  0  0
  157.6720  214.4510  150.8610 C   0  0  0  0  0  2  0  0  0  0  0  0
  157.5200  211.9440  154.9790 C   0  0  1  0  0  3  0  0  0  0  0  0
  157.9760  213.3020  153.0390 C   0  0  2  0  0  3  0  0  0  0  0  0
  159.6690  213.1430  154.7110 O   0  0  0  0  0  0  0  0  0  0  0  0
  159.3450  214.4210  154.6020 O   0  0  0  0  0  1  0  0  0  0  0  0
  1  6  1  0  0  0  0
  2  5  1  0  0  0  0
  2  7  2  0  0  0  0
  3  6  2  0  0  0  0
  3  8  1  0  0  0  0
  4  7  1  0  0  0  0
  5  1  2  0  0  0  0
  6 27  1  0  0  0  0
  7  3  1  0  0  0  0
  8 11  1  0  0  0  0
  9 11  1  0  0  0  0
 11 10  1  0  0  0  0
 12 11  1  0  0  0  0
 13 12  1  0  0  0  0
 14 13  1  0  0  0  0
 15 16  1  0  0  0  0
 17 21  1  6  0  0  0
 17 19  1  0  0  0  0
 17 18  1  0  0  0  0
 18 20  1  0  0  0  0
 19 15  1  0  0  0  0
 20 16  1  0  0  0  0
 20 14  1  1  0  0  0
 22 23  1  0  0  0  0
 22 21  1  0  0  0  0
 24 23  1  0  0  0  0
 24 25  1  0  0  0  0
 26 24  1  0  0  0  0
 26 25  1  0  0  0  0
 27 28  1  0  0  0  0
 28 29  1  0  0  0  0
 30 29  1  6  0  0  0
 30 44  1  0  0  0  0
 30 42  1  0  0  0  0
 32 40  1  0  0  0  0
 33 31  2  0  0  0  0
 33 40  1  0  0  0  0
 34 39  1  1  0  0  0
 34 37  1  0  0  0  0
 36 32  1  0  0  0  0
 37 42  1  0  0  0  0
 37 36  1  1  0  0  0
 38 39  1  0  0  0  0
 41 38  1  0  0  0  0
 41 35  1  0  0  0  0
 42 33  1  1  0  0  0
 43 35  1  6  0  0  0
 43 34  1  0  0  0  0
 43 30  1  0  0  0  0
 45 44  1  0  0  0  0
M  END
>  <MODEL>
3

>  <REMARK>
 VINA RESULT:      -6.3      3.920      9.401
  Name = 
  15 active torsions:
  status: ('A' for Active; 'I' for Inactive)
    1  A    between atoms: C_3  and  C_5
    2  A    between atoms: C_5  and  C_20
    3  A    between atoms: C_6  and  O_27
    4  A    between atoms: C_6  and  C_30
    5  A    between atoms: C_10  and  C_20
    6  A    between atoms: C_10  and  C_41
    7  A    between atoms: C_16  and  C_39
    8  A    between atoms: C_23  and  C_30
    9  A    between atoms: C_23  and  C_31
   10  A    between atoms: C_24  and  O_35
   11  A    between atoms: C_28  and  C_41
   12  A    between atoms: C_28  and  C_42
   13  A    between atoms: C_31  and  C_34
   14  A    between atoms: O_35  and  C_38
   15  A    between atoms: C_38  and  C_39
                            x       y       z     vdW  Elec       q    Type
                         _______ _______ _______ _____ _____    ______ ____

>  <TORSDO>
F 15

$$$$
=
 OpenBabel11072414463D

 45 50  0  0  1  0  0  0  0  0999 V2000
  161.5160  208.3330  155.5900 C   0  0  0  0  0  3  0  0  0  0  0  0
  160.0220  209.1720  157.2460 N   0  0  0  0  0  0  0  0  0  0  0  0
  159.7720  209.9050  154.9760 C   0  0  0  0  0  0  0  0  0  0  0  0
  158.2230  210.6760  156.7310 N   0  0  0  0  0  1  0  0  0  0  0  0
  161.0880  208.3980  156.9140 C   0  0  0  0  0  3  0  0  0  0  0  0
  160.8470  209.0700  154.6020 C   0  0  0  0  0  0  0  0  0  0  0  0
  159.3570  209.9170  156.3220 C   0  0  0  0  0  0  0  0  0  0  0  0
  159.0440  210.7370  153.9450 C   0  0  0  0  0  2  0  0  0  0  0  0
  160.4160  212.5690  155.0030 C   0  0  0  0  0  1  0  0  0  0  0  0
  160.3880  212.2580  152.5580 C   0  0  0  0  0  1  0  0  0  0  0  0
  159.5400  212.1870  153.8160 C   0  0  0  0  0  0  0  0  0  0  0  0
  158.3420  213.1410  153.6950 C   0  0  0  0  0  2  0  0  0  0  0  0
  157.5050  212.9270  152.4350 C   0  0  0  0  0  2  0  0  0  0  0  0
  157.8000  214.0240  151.4260 C   0  0  0  0  0  2  0  0  0  0  0  0
  156.9360  213.6030  147.7970 C   0  0  0  0  0  2  0  0  0  0  0  0
  156.6290  213.5200  149.2890 C   0  0  0  0  0  2  0  0  0  0  0  0
  159.2200  213.4190  148.1290 C   0  0  1  0  0  3  0  0  0  0  0  0
  158.9390  214.1390  149.3230 O   0  0  0  0  0  0  0  0  0  0  0  0
  158.0810  212.8390  147.5000 O   0  0  0  0  0  0  0  0  0  0  0  0
  157.9540  213.4360  150.0370 C   0  0  1  0  0  3  0  0  0  0  0  0
  159.8840  214.2500  147.2240 O   0  0  0  0  0  0  0  0  0  0  0  0
  161.0510  213.5590  146.8880 C   0  0  0  0  0  2  0  0  0  0  0  0
  160.9960  213.1330  145.4290 C   0  0  0  0  0  2  0  0  0  0  0  0
  159.9400  213.9290  144.6810 C   0  0  0  0  0  3  0  0  0  0  0  0
  159.2050  213.0000  143.7430 C   0  0  0  0  0  2  0  0  0  0  0  0
  160.2590  213.9370  143.1990 C   0  0  0  0  0  2  0  0  0  0  0  0
  161.2880  209.0040  153.1590 C   0  0  0  0  0  2  0  0  0  0  0  0
  160.3930  208.1620  152.2600 C   0  0  0  0  0  2  0  0  0  0  0  0
  160.8100  206.7000  152.3410 C   0  0  0  0  0  2  0  0  0  0  0  0
  161.6820  206.2470  151.1470 C   0  0  2  0  0  0  0  0  0  0  0  0
  161.7120  209.0880  149.5550 O   0  0  0  0  0  0  0  0  0  0  0  0
  162.0470  206.5980  147.0720 C   0  0  0  0  0  2  0  0  0  0  0  0
  161.8020  207.9390  149.1480 C   0  0  0  0  0  0  0  0  0  0  0  0
  160.4730  204.5250  149.9180 C   0  0  1  0  0  3  0  0  0  0  0  0
  161.4340  203.7910  152.1010 C   0  0  0  0  0  2  0  0  0  0  0  0
  161.7210  205.3520  147.8820 C   0  0  0  0  0  2  0  0  0  0  0  0
  160.6410  205.6640  148.9310 C   0  0  2  0  0  3  0  0  0  0  0  0
  160.3750  202.1180  150.5200 C   0  0  0  0  0  2  0  0  0  0  0  0
  160.5190  203.1030  149.3590 C   0  0  0  0  0  2  0  0  0  0  0  0
  162.6900  207.6430  147.9790 C   0  0  0  0  0  2  0  0  0  0  0  0
  161.4550  202.3490  151.5870 C   0  0  0  0  0  2  0  0  0  0  0  0
  161.0530  206.8300  149.8510 C   0  0  1  0  0  3  0  0  0  0  0  0
  161.5890  204.7310  150.9100 C   0  0  2  0  0  3  0  0  0  0  0  0
  163.0520  206.5780  151.2910 O   0  0  0  0  0  0  0  0  0  0  0  0
  163.5500  205.8490  152.2770 O   0  0  0  0  0  1  0  0  0  0  0  0
  1  5  1  0  0  0  0
  3  7  2  0  0  0  0
  5  2  2  0  0  0  0
  6  3  1  0  0  0  0
  6  1  2  0  0  0  0
  7  4  1  0  0  0  0
  7  2  1  0  0  0  0
  8  3  1  0  0  0  0
 10 11  1  0  0  0  0
 11  8  1  0  0  0  0
 11  9  1  0  0  0  0
 12 11  1  0  0  0  0
 13 12  1  0  0  0  0
 14 13  1  0  0  0  0
 15 16  1  0  0  0  0
 16 20  1  0  0  0  0
 17 21  1  6  0  0  0
 17 18  1  0  0  0  0
 18 20  1  0  0  0  0
 19 15  1  0  0  0  0
 19 17  1  0  0  0  0
 20 14  1  1  0  0  0
 22 21  1  0  0  0  0
 23 22  1  0  0  0  0
 24 23  1  0  0  0  0
 25 24  1  0  0  0  0
 26 25  1  0  0  0  0
 26 24  1  0  0  0  0
 27  6  1  0  0  0  0
 28 29  1  0  0  0  0
 28 27  1  0  0  0  0
 30 44  1  0  0  0  0
 30 29  1  1  0  0  0
 32 36  1  0  0  0  0
 32 40  1  0  0  0  0
 33 31  2  0  0  0  0
 34 39  1  6  0  0  0
 34 43  1  0  0  0  0
 37 36  1  6  0  0  0
 37 42  1  0  0  0  0
 37 34  1  0  0  0  0
 38 41  1  0  0  0  0
 39 38  1  0  0  0  0
 40 33  1  0  0  0  0
 41 35  1  0  0  0  0
 42 33  1  6  0  0  0
 42 30  1  0  0  0  0
 43 30  1  0  0  0  0
 43 35  1  1  0  0  0
 44 45  1  0  0  0  0
M  END
>  <MODEL>
4

>  <REMARK>
 VINA RESULT:      -6.1      2.074      3.988
  Name = 
  15 active torsions:
  status: ('A' for Active; 'I' for Inactive)
    1  A    between atoms: C_3  and  C_5
    2  A    between atoms: C_5  and  C_20
    3  A    between atoms: C_6  and  O_27
    4  A    between atoms: C_6  and  C_30
    5  A    between atoms: C_10  and  C_20
    6  A    between atoms: C_10  and  C_41
    7  A    between atoms: C_16  and  C_39
    8  A    between atoms: C_23  and  C_30
    9  A    between atoms: C_23  and  C_31
   10  A    between atoms: C_24  and  O_35
   11  A    between atoms: C_28  and  C_41
   12  A    between atoms: C_28  and  C_42
   13  A    between atoms: C_31  and  C_34
   14  A    between atoms: O_35  and  C_38
   15  A    between atoms: C_38  and  C_39
                            x       y       z     vdW  Elec       q    Type
                         _______ _______ _______ _____ _____    ______ ____

>  <TORSDO>
F 15

$$$$
=
 OpenBabel11072414463D

 45 50  0  0  1  0  0  0  0  0999 V2000
  161.5270  206.7430  152.7380 C   0  0  0  0  0  3  0  0  0  0  0  0
  160.9900  207.3490  154.9800 N   0  0  0  0  0  0  0  0  0  0  0  0
  161.4220  209.0820  153.3790 C   0  0  0  0  0  0  0  0  0  0  0  0
  160.7950  209.6320  155.6980 N   0  0  0  0  0  1  0  0  0  0  0  0
  161.2150  206.3860  154.0470 C   0  0  0  0  0  3  0  0  0  0  0  0
  161.6120  208.0980  152.3840 C   0  0  0  0  0  0  0  0  0  0  0  0
  161.0820  208.6730  154.6830 C   0  0  0  0  0  0  0  0  0  0  0  0
  161.5350  210.5520  153.0440 C   0  0  0  0  0  2  0  0  0  0  0  0
  159.0310  210.2930  152.9200 C   0  0  0  0  0  1  0  0  0  0  0  0
  160.0490  212.2810  153.9620 C   0  0  0  0  0  1  0  0  0  0  0  0
  160.1940  211.2730  152.8340 C   0  0  0  0  0  0  0  0  0  0  0  0
  160.1960  211.9990  151.4800 C   0  0  0  0  0  2  0  0  0  0  0  0
  159.9910  213.5090  151.5860 C   0  0  0  0  0  2  0  0  0  0  0  0
  158.5870  213.8730  151.1330 C   0  0  0  0  0  2  0  0  0  0  0  0
  156.7360  213.5770  147.8800 C   0  0  0  0  0  2  0  0  0  0  0  0
  156.8420  213.4960  149.4000 C   0  0  0  0  0  2  0  0  0  0  0  0
  159.0020  213.2070  147.5780 C   0  0  1  0  0  3  0  0  0  0  0  0
  159.1160  213.9280  148.7980 O   0  0  0  0  0  0  0  0  0  0  0  0
  157.6920  212.7290  147.2880 O   0  0  0  0  0  0  0  0  0  0  0  0
  158.3090  213.2960  149.7580 C   0  0  1  0  0  3  0  0  0  0  0  0
  159.4590  213.9960  146.5200 O   0  0  0  0  0  0  0  0  0  0  0  0
  160.0830  213.1020  145.6460 C   0  0  0  0  0  2  0  0  0  0  0  0
  161.5850  213.3390  145.6510 C   0  0  0  0  0  2  0  0  0  0  0  0
  162.0440  213.8790  144.3070 C   0  0  0  0  0  3  0  0  0  0  0  0
  162.3290  212.7130  143.3880 C   0  0  0  0  0  2  0  0  0  0  0  0
  163.4750  213.4500  144.0450 C   0  0  0  0  0  2  0  0  0  0  0  0
  161.9380  208.5070  150.9670 C   0  0  0  0  0  2  0  0  0  0  0  0
  161.1350  207.7800  149.8970 C   0  0  0  0  0  2  0  0  0  0  0  0
  161.9180  206.5750  149.3950 C   0  0  0  0  0  2  0  0  0  0  0  0
  161.0150  205.3870  148.9860 C   0  0  2  0  0  0  0  0  0  0  0  0
  161.6510  203.4830  151.5500 O   0  0  0  0  0  0  0  0  0  0  0  0
  160.8880  201.2840  148.8940 C   0  0  0  0  0  2  0  0  0  0  0  0
  161.3340  203.2050  150.4040 C   0  0  0  0  0  0  0  0  0  0  0  0
  161.8750  204.4410  146.9120 C   0  0  1  0  0  3  0  0  0  0  0  0
  160.6990  206.6290  146.6710 C   0  0  0  0  0  2  0  0  0  0  0  0
  160.9100  202.2490  147.7180 C   0  0  0  0  0  2  0  0  0  0  0  0
  161.9910  203.3220  147.9280 C   0  0  2  0  0  3  0  0  0  0  0  0
  161.4350  205.3190  144.6310 C   0  0  0  0  0  2  0  0  0  0  0  0
  161.5490  204.0460  145.4720 C   0  0  0  0  0  2  0  0  0  0  0  0
  160.4480  202.0230  150.1540 C   0  0  0  0  0  2  0  0  0  0  0  0
  160.3900  206.2820  145.2110 C   0  0  0  0  0  2  0  0  0  0  0  0
  161.8020  204.0760  149.2610 C   0  0  1  0  0  3  0  0  0  0  0  0
  160.7920  205.3310  147.4670 C   0  0  2  0  0  3  0  0  0  0  0  0
  159.7430  205.4050  149.6080 O   0  0  0  0  0  0  0  0  0  0  0  0
  159.9220  205.2930  150.9150 O   0  0  0  0  0  1  0  0  0  0  0  0
  1  5  1  0  0  0  0
  3  7  2  0  0  0  0
  5  2  2  0  0  0  0
  6  1  2  0  0  0  0
  6  3  1  0  0  0  0
  7  2  1  0  0  0  0
  7  4  1  0  0  0  0
  8  3  1  0  0  0  0
 11  9  1  0  0  0  0
 11  8  1  0  0  0  0
 11 10  1  0  0  0  0
 12 13  1  0  0  0  0
 12 11  1  0  0  0  0
 14 13  1  0  0  0  0
 15 16  1  0  0  0  0
 16 20  1  0  0  0  0
 17 21  1  6  0  0  0
 17 18  1  0  0  0  0
 18 20  1  0  0  0  0
 19 17  1  0  0  0  0
 19 15  1  0  0  0  0
 20 14  1  1  0  0  0
 22 23  1  0  0  0  0
 22 21  1  0  0  0  0
 24 23  1  0  0  0  0
 25 26  1  0  0  0  0
 25 24  1  0  0  0  0
 26 24  1  0  0  0  0
 27  6  1  0  0  0  0
 28 27  1  0  0  0  0
 29 28  1  0  0  0  0
 30 42  1  0  0  0  0
 30 29  1  1  0  0  0
 30 44  1  0  0  0  0
 32 40  1  0  0  0  0
 33 31  2  0  0  0  0
 34 39  1  6  0  0  0
 34 43  1  0  0  0  0
 34 37  1  0  0  0  0
 36 32  1  0  0  0  0
 37 36  1  6  0  0  0
 37 42  1  0  0  0  0
 38 41  1  0  0  0  0
 38 39  1  0  0  0  0
 40 33  1  0  0  0  0
 41 35  1  0  0  0  0
 42 33  1  1  0  0  0
 43 35  1  6  0  0  0
 43 30  1  0  0  0  0
 44 45  1  0  0  0  0
M  END
>  <MODEL>
5

>  <REMARK>
 VINA RESULT:      -6.0      1.516      2.127
  Name = 
  15 active torsions:
  status: ('A' for Active; 'I' for Inactive)
    1  A    between atoms: C_3  and  C_5
    2  A    between atoms: C_5  and  C_20
    3  A    between atoms: C_6  and  O_27
    4  A    between atoms: C_6  and  C_30
    5  A    between atoms: C_10  and  C_20
    6  A    between atoms: C_10  and  C_41
    7  A    between atoms: C_16  and  C_39
    8  A    between atoms: C_23  and  C_30
    9  A    between atoms: C_23  and  C_31
   10  A    between atoms: C_24  and  O_35
   11  A    between atoms: C_28  and  C_41
   12  A    between atoms: C_28  and  C_42
   13  A    between atoms: C_31  and  C_34
   14  A    between atoms: O_35  and  C_38
   15  A    between atoms: C_38  and  C_39
                            x       y       z     vdW  Elec       q    Type
                         _______ _______ _______ _____ _____    ______ ____

>  <TORSDO>
F 15

$$$$
=
 OpenBabel11072414463D

 45 50  0  0  1  0  0  0  0  0999 V2000
  160.6880  207.6020  153.7360 C   0  0  0  0  0  3  0  0  0  0  0  0
  160.9190  208.4600  155.9470 N   0  0  0  0  0  0  0  0  0  0  0  0
  160.8980  209.9920  154.1020 C   0  0  0  0  0  0  0  0  0  0  0  0
  161.0650  210.8100  156.4200 N   0  0  0  0  0  1  0  0  0  0  0  0
  160.7920  207.3980  155.1100 C   0  0  0  0  0  3  0  0  0  0  0  0
  160.7180  208.9050  153.2190 C   0  0  0  0  0  0  0  0  0  0  0  0
  160.9710  209.7390  155.4850 C   0  0  0  0  0  0  0  0  0  0  0  0
  160.9650  211.4090  153.5800 C   0  0  0  0  0  2  0  0  0  0  0  0
  158.4620  211.1810  153.3820 C   0  0  0  0  0  1  0  0  0  0  0  0
  159.4670  212.8370  154.9050 C   0  0  0  0  0  1  0  0  0  0  0  0
  159.6210  212.1550  153.5570 C   0  0  0  0  0  0  0  0  0  0  0  0
  159.6240  213.2050  152.4350 C   0  0  0  0  0  2  0  0  0  0  0  0
  159.5250  212.6110  151.0310 C   0  0  0  0  0  2  0  0  0  0  0  0
  160.8160  212.8630  150.2710 C   0  0  0  0  0  2  0  0  0  0  0  0
  161.6980  214.0150  146.8090 C   0  0  0  0  0  2  0  0  0  0  0  0
  161.7420  214.1150  148.3300 C   0  0  0  0  0  2  0  0  0  0  0  0
  159.6720  212.8950  146.8160 C   0  0  1  0  0  3  0  0  0  0  0  0
  160.1690  212.3390  148.0270 O   0  0  0  0  0  0  0  0  0  0  0  0
  160.3630  214.0560  146.3640 O   0  0  0  0  0  0  0  0  0  0  0  0
  160.5180  213.3960  148.8830 C   0  0  1  0  0  3  0  0  0  0  0  0
  159.6800  211.9230  145.8130 O   0  0  0  0  0  0  0  0  0  0  0  0
  159.4310  212.6240  144.6290 C   0  0  0  0  0  2  0  0  0  0  0  0
  160.4000  212.1700  143.5480 C   0  0  0  0  0  2  0  0  0  0  0  0
  161.0170  213.3700  142.8480 C   0  0  0  0  0  3  0  0  0  0  0  0
  161.5840  212.9200  141.5210 C   0  0  0  0  0  2  0  0  0  0  0  0
  162.5100  213.1600  142.6930 C   0  0  0  0  0  2  0  0  0  0  0  0
  160.5950  209.1490  151.7330 C   0  0  0  0  0  2  0  0  0  0  0  0
  161.5910  208.3770  150.8790 C   0  0  0  0  0  2  0  0  0  0  0  0
  160.8570  207.6450  149.7650 C   0  0  0  0  0  2  0  0  0  0  0  0
  161.6710  206.4760  149.1630 C   0  0  2  0  0  0  0  0  0  0  0  0
  161.0160  207.0850  146.0310 O   0  0  0  0  0  0  0  0  0  0  0  0
  161.5480  203.6000  146.2350 C   0  0  0  0  0  2  0  0  0  0  0  0
  161.2730  206.0390  146.6080 C   0  0  0  0  0  0  0  0  0  0  0  0
  160.6810  204.3790  149.9100 C   0  0  1  0  0  3  0  0  0  0  0  0
  161.9770  205.6170  151.6470 C   0  0  0  0  0  2  0  0  0  0  0  0
  161.5410  203.4040  147.7430 C   0  0  0  0  0  2  0  0  0  0  0  0
  160.5350  204.3630  148.4020 C   0  0  2  0  0  3  0  0  0  0  0  0
  161.0900  203.2880  152.1040 C   0  0  0  0  0  2  0  0  0  0  0  0
  160.9300  203.0390  150.6030 C   0  0  0  0  0  2  0  0  0  0  0  0
  162.0770  204.9910  145.9010 C   0  0  0  0  0  2  0  0  0  0  0  0
  162.2110  204.2970  152.3880 C   0  0  0  0  0  2  0  0  0  0  0  0
  160.8170  205.8340  148.0340 C   0  0  1  0  0  3  0  0  0  0  0  0
  161.8350  205.3170  150.1580 C   0  0  2  0  0  3  0  0  0  0  0  0
  162.9640  206.8550  148.7260 O   0  0  0  0  0  0  0  0  0  0  0  0
  162.9060  208.1090  148.3070 O   0  0  0  0  0  1  0  0  0  0  0  0
  1  5  1  0  0  0  0
  3  7  2  0  0  0  0
  5  2  2  0  0  0  0
  6  1  2  0  0  0  0
  6  3  1  0  0  0  0
  7  2  1  0  0  0  0
  7  4  1  0  0  0  0
  8  3  1  0  0  0  0
  9 11  1  0  0  0  0
 11  8  1  0  0  0  0
 11 10  1  0  0  0  0
 12 11  1  0  0  0  0
 13 12  1  0  0  0  0
 14 13  1  0  0  0  0
 15 16  1  0  0  0  0
 16 20  1  0  0  0  0
 17 21  1  6  0  0  0
 17 18  1  0  0  0  0
 18 20  1  0  0  0  0
 19 15  1  0  0  0  0
 19 17  1  0  0  0  0
 20 14  1  1  0  0  0
 22 21  1  0  0  0  0
 23 22  1  0  0  0  0
 24 23  1  0  0  0  0
 25 26  1  0  0  0  0
 25 24  1  0  0  0  0
 26 24  1  0  0  0  0
 27  6  1  0  0  0  0
 28 27  1  0  0  0  0
 29 28  1  0  0  0  0
 30 29  1  1  0  0  0
 30 43  1  0  0  0  0
 31 33  2  0  0  0  0
 32 36  1  0  0  0  0
 34 43  1  0  0  0  0
 34 39  1  6  0  0  0
 35 41  1  0  0  0  0
 37 36  1  6  0  0  0
 37 34  1  0  0  0  0
 38 41  1  0  0  0  0
 39 38  1  0  0  0  0
 40 32  1  0  0  0  0
 40 33  1  0  0  0  0
 42 33  1  6  0  0  0
 42 37  1  0  0  0  0
 42 30  1  0  0  0  0
 43 35  1  1  0  0  0
 44 30  1  0  0  0  0
 45 44  1  0  0  0  0
M  END
>  <MODEL>
6

>  <REMARK>
 VINA RESULT:      -5.9      1.562      3.029
  Name = 
  15 active torsions:
  status: ('A' for Active; 'I' for Inactive)
    1  A    between atoms: C_3  and  C_5
    2  A    between atoms: C_5  and  C_20
    3  A    between atoms: C_6  and  O_27
    4  A    between atoms: C_6  and  C_30
    5  A    between atoms: C_10  and  C_20
    6  A    between atoms: C_10  and  C_41
    7  A    between atoms: C_16  and  C_39
    8  A    between atoms: C_23  and  C_30
    9  A    between atoms: C_23  and  C_31
   10  A    between atoms: C_24  and  O_35
   11  A    between atoms: C_28  and  C_41
   12  A    between atoms: C_28  and  C_42
   13  A    between atoms: C_31  and  C_34
   14  A    between atoms: O_35  and  C_38
   15  A    between atoms: C_38  and  C_39
                            x       y       z     vdW  Elec       q    Type
                         _______ _______ _______ _____ _____    ______ ____

>  <TORSDO>
F 15

$$$$
=
 OpenBabel11072414463D

 45 50  0  0  1  0  0  0  0  0999 V2000
  160.5910  207.4160  154.7160 C   0  0  0  0  0  3  0  0  0  0  0  0
  161.2210  205.4340  153.5530 N   0  0  0  0  0  0  0  0  0  0  0  0
  161.9390  207.5590  152.7030 C   0  0  0  0  0  0  0  0  0  0  0  0
  162.6080  205.4630  151.5930 N   0  0  0  0  0  1  0  0  0  0  0  0
  160.5620  206.0300  154.5800 C   0  0  0  0  0  3  0  0  0  0  0  0
  161.3000  208.1950  153.7900 C   0  0  0  0  0  0  0  0  0  0  0  0
  161.9050  206.1530  152.6220 C   0  0  0  0  0  0  0  0  0  0  0  0
  162.6880  208.3660  151.6670 C   0  0  0  0  0  2  0  0  0  0  0  0
  160.4110  208.3230  150.5880 C   0  0  0  0  0  1  0  0  0  0  0  0
  161.8830  210.2870  150.3620 C   0  0  0  0  0  1  0  0  0  0  0  0
  161.8600  208.7690  150.4370 C   0  0  0  0  0  0  0  0  0  0  0  0
  162.4840  208.1720  149.1660 C   0  0  0  0  0  2  0  0  0  0  0  0
  161.6490  207.0640  148.5280 C   0  0  0  0  0  2  0  0  0  0  0  0
  162.4760  206.3280  147.4870 C   0  0  0  0  0  2  0  0  0  0  0  0
  161.4600  204.5040  144.3680 C   0  0  0  0  0  2  0  0  0  0  0  0
  161.7480  205.7650  145.1760 C   0  0  0  0  0  2  0  0  0  0  0  0
  160.9510  203.2620  146.2540 C   0  0  1  0  0  3  0  0  0  0  0  0
  161.9440  204.0800  146.8610 O   0  0  0  0  0  0  0  0  0  0  0  0
  160.4610  203.7440  145.0070 O   0  0  0  0  0  0  0  0  0  0  0  0
  161.5920  205.4240  146.6520 C   0  0  1  0  0  3  0  0  0  0  0  0
  161.4430  201.9640  146.0960 O   0  0  0  0  0  0  0  0  0  0  0  0
  160.5740  201.1560  146.8350 C   0  0  0  0  0  2  0  0  0  0  0  0
  161.2820  200.6440  148.0800 C   0  0  0  0  0  2  0  0  0  0  0  0
  160.4930  201.0050  149.3280 C   0  0  0  0  0  3  0  0  0  0  0  0
  160.9770  202.3430  149.8390 C   0  0  0  0  0  2  0  0  0  0  0  0
  161.4240  201.0700  150.5220 C   0  0  0  0  0  2  0  0  0  0  0  0
  161.3540  209.6980  153.9260 C   0  0  0  0  0  2  0  0  0  0  0  0
  160.1770  210.3100  154.6720 C   0  0  0  0  0  2  0  0  0  0  0  0
  159.2810  211.0600  153.6970 C   0  0  0  0  0  2  0  0  0  0  0  0
  158.7240  212.3830  154.2720 C   0  0  2  0  0  0  0  0  0  0  0  0
  157.9590  211.2570  157.2310 O   0  0  0  0  0  0  0  0  0  0  0  0
  155.6970  213.8950  156.5980 C   0  0  0  0  0  2  0  0  0  0  0  0
  157.4760  212.1630  156.5680 C   0  0  0  0  0  0  0  0  0  0  0  0
  156.7460  213.0090  152.9950 C   0  0  1  0  0  3  0  0  0  0  0  0
  158.9190  213.3500  151.8160 C   0  0  0  0  0  2  0  0  0  0  0  0
  155.9470  214.1260  155.1160 C   0  0  0  0  0  2  0  0  0  0  0  0
  156.2450  212.7940  154.4090 C   0  0  2  0  0  3  0  0  0  0  0  0
  156.7500  214.1800  150.8050 C   0  0  0  0  0  2  0  0  0  0  0  0
  156.0660  214.1030  152.1710 C   0  0  0  0  0  2  0  0  0  0  0  0
  156.9770  213.3930  157.2610 C   0  0  0  0  0  2  0  0  0  0  0  0
  158.2590  214.4230  150.9460 C   0  0  0  0  0  2  0  0  0  0  0  0
  157.4280  212.0490  155.0610 C   0  0  1  0  0  3  0  0  0  0  0  0
  158.2110  213.3190  153.1670 C   0  0  2  0  0  3  0  0  0  0  0  0
  159.6680  213.1030  155.0440 O   0  0  0  0  0  0  0  0  0  0  0  0
  159.3700  214.3900  154.9640 O   0  0  0  0  0  1  0  0  0  0  0  0
  2  5  2  0  0  0  0
  3  6  1  0  0  0  0
  4  7  1  0  0  0  0
  5  1  1  0  0  0  0
  6 27  1  0  0  0  0
  6  1  2  0  0  0  0
  7  3  2  0  0  0  0
  7  2  1  0  0  0  0
  8  3  1  0  0  0  0
 10 11  1  0  0  0  0
 11  9  1  0  0  0  0
 11  8  1  0  0  0  0
 12 11  1  0  0  0  0
 13 12  1  0  0  0  0
 14 13  1  0  0  0  0
 15 19  1  0  0  0  0
 15 16  1  0  0  0  0
 16 20  1  0  0  0  0
 17 21  1  6  0  0  0
 17 18  1  0  0  0  0
 19 17  1  0  0  0  0
 20 18  1  0  0  0  0
 20 14  1  1  0  0  0
 21 22  1  0  0  0  0
 22 23  1  0  0  0  0
 23 24  1  0  0  0  0
 24 25  1  0  0  0  0
 24 26  1  0  0  0  0
 25 26  1  0  0  0  0
 27 28  1  0  0  0  0
 29 28  1  0  0  0  0
 30 29  1  6  0  0  0
 30 44  1  0  0  0  0
 30 42  1  0  0  0  0
 32 40  1  0  0  0  0
 33 31  2  0  0  0  0
 33 40  1  0  0  0  0
 34 39  1  1  0  0  0
 34 43  1  0  0  0  0
 34 37  1  0  0  0  0
 36 32  1  0  0  0  0
 37 42  1  0  0  0  0
 37 36  1  1  0  0  0
 38 41  1  0  0  0  0
 38 39  1  0  0  0  0
 41 35  1  0  0  0  0
 42 33  1  1  0  0  0
 43 35  1  6  0  0  0
 43 30  1  0  0  0  0
 45 44  1  0  0  0  0
M  END
>  <MODEL>
7

>  <REMARK>
 VINA RESULT:      -4.9      3.823      9.191
  Name = 
  15 active torsions:
  status: ('A' for Active; 'I' for Inactive)
    1  A    between atoms: C_3  and  C_5
    2  A    between atoms: C_5  and  C_20
    3  A    between atoms: C_6  and  O_27
    4  A    between atoms: C_6  and  C_30
    5  A    between atoms: C_10  and  C_20
    6  A    between atoms: C_10  and  C_41
    7  A    between atoms: C_16  and  C_39
    8  A    between atoms: C_23  and  C_30
    9  A    between atoms: C_23  and  C_31
   10  A    between atoms: C_24  and  O_35
   11  A    between atoms: C_28  and  C_41
   12  A    between atoms: C_28  and  C_42
   13  A    between atoms: C_31  and  C_34
   14  A    between atoms: O_35  and  C_38
   15  A    between atoms: C_38  and  C_39
                            x       y       z     vdW  Elec       q    Type
                         _______ _______ _______ _____ _____    ______ ____

>  <TORSDO>
F 15

$$$$
=
 OpenBabel11072414463D

 45 50  0  0  1  0  0  0  0  0999 V2000
  161.9100  207.3990  147.6170 C   0  0  0  0  0  3  0  0  0  0  0  0
  161.7050  205.0620  148.0390 N   0  0  0  0  0  0  0  0  0  0  0  0
  161.1020  206.6120  149.7670 C   0  0  0  0  0  0  0  0  0  0  0  0
  160.8530  204.1840  150.1050 N   0  0  0  0  0  1  0  0  0  0  0  0
  162.0520  206.0760  147.2040 C   0  0  0  0  0  3  0  0  0  0  0  0
  161.4110  207.6810  148.8980 C   0  0  0  0  0  0  0  0  0  0  0  0
  161.2360  205.2920  149.2950 C   0  0  0  0  0  0  0  0  0  0  0  0
  160.5900  206.8760  151.1640 C   0  0  0  0  0  2  0  0  0  0  0  0
  162.9720  206.3350  151.7880 C   0  0  0  0  0  1  0  0  0  0  0  0
  161.9560  208.4890  152.4190 C   0  0  0  0  0  1  0  0  0  0  0  0
  161.6810  207.0060  152.2400 C   0  0  0  0  0  0  0  0  0  0  0  0
  161.1860  206.4010  153.5630 C   0  0  0  0  0  2  0  0  0  0  0  0
  160.2090  207.2930  154.3250 C   0  0  0  0  0  2  0  0  0  0  0  0
  160.4780  207.1980  155.8170 C   0  0  0  0  0  2  0  0  0  0  0  0
  162.5020  210.2810  156.5150 C   0  0  0  0  0  2  0  0  0  0  0  0
  162.2180  208.7860  156.6170 C   0  0  0  0  0  2  0  0  0  0  0  0
  160.2690  210.8110  156.2060 C   0  0  1  0  0  3  0  0  0  0  0  0
  160.2360  209.5620  155.5270 O   0  0  0  0  0  0  0  0  0  0  0  0
  161.4140  211.0120  157.0300 O   0  0  0  0  0  0  0  0  0  0  0  0
  160.7250  208.5760  156.3990 C   0  0  1  0  0  3  0  0  0  0  0  0
  160.1680  211.8530  155.2800 O   0  0  0  0  0  0  0  0  0  0  0  0
  159.2840  211.3850  154.3040 C   0  0  0  0  0  2  0  0  0  0  0  0
  158.4030  212.5250  153.8170 C   0  0  0  0  0  2  0  0  0  0  0  0
  157.3650  212.8810  154.8670 C   0  0  0  0  0  3  0  0  0  0  0  0
  156.1990  211.9270  154.7410 C   0  0  0  0  0  2  0  0  0  0  0  0
  156.0850  213.3320  154.1900 C   0  0  0  0  0  2  0  0  0  0  0  0
  161.2380  209.1080  149.3610 C   0  0  0  0  0  2  0  0  0  0  0  0
  162.3180  210.0670  148.8790 C   0  0  0  0  0  2  0  0  0  0  0  0
  161.7930  210.8920  147.7130 C   0  0  0  0  0  2  0  0  0  0  0  0
  161.3980  212.3330  148.1140 C   0  0  2  0  0  0  0  0  0  0  0  0
  160.8520  211.7490  151.2710 O   0  0  0  0  0  0  0  0  0  0  0  0
  158.7430  214.4520  150.4210 C   0  0  0  0  0  2  0  0  0  0  0  0
  160.3740  212.5820  150.5150 C   0  0  0  0  0  0  0  0  0  0  0  0
  159.3540  212.9310  146.9300 C   0  0  1  0  0  3  0  0  0  0  0  0
  161.4170  212.8900  145.5260 C   0  0  0  0  0  2  0  0  0  0  0  0
  158.8590  214.4290  148.9040 C   0  0  0  0  0  2  0  0  0  0  0  0
  158.9830  212.9820  148.3990 C   0  0  2  0  0  3  0  0  0  0  0  0
  159.2250  213.7470  144.5880 C   0  0  0  0  0  2  0  0  0  0  0  0
  158.6790  213.9430  146.0040 C   0  0  0  0  0  2  0  0  0  0  0  0
  160.0420  213.9440  151.0410 C   0  0  0  0  0  2  0  0  0  0  0  0
  160.7550  213.8720  144.5550 C   0  0  0  0  0  2  0  0  0  0  0  0
  160.1660  212.2430  149.0570 C   0  0  1  0  0  3  0  0  0  0  0  0
  160.8480  213.1310  146.9210 C   0  0  2  0  0  3  0  0  0  0  0  0
  162.4660  213.0760  148.6740 O   0  0  0  0  0  0  0  0  0  0  0  0
  162.5510  214.2270  148.0270 O   0  0  0  0  0  1  0  0  0  0  0  0
  1  6  1  0  0  0  0
  2  7  2  0  0  0  0
  3  8  1  0  0  0  0
  5  1  2  0  0  0  0
  5  2  1  0  0  0  0
  6 27  1  0  0  0  0
  6  3  2  0  0  0  0
  7  3  1  0  0  0  0
  7  4  1  0  0  0  0
  8 11  1  0  0  0  0
  9 11  1  0  0  0  0
 11 10  1  0  0  0  0
 11 12  1  0  0  0  0
 12 13  1  0  0  0  0
 13 14  1  0  0  0  0
 15 16  1  0  0  0  0
 15 19  1  0  0  0  0
 17 21  1  6  0  0  0
 17 19  1  0  0  0  0
 18 17  1  0  0  0  0
 18 20  1  0  0  0  0
 20 14  1  6  0  0  0
 20 16  1  0  0  0  0
 22 21  1  0  0  0  0
 23 22  1  0  0  0  0
 23 24  1  0  0  0  0
 25 24  1  0  0  0  0
 26 25  1  0  0  0  0
 26 24  1  0  0  0  0
 28 27  1  0  0  0  0
 29 28  1  0  0  0  0
 30 29  1  6  0  0  0
 30 44  1  0  0  0  0
 30 42  1  0  0  0  0
 32 40  1  0  0  0  0
 33 40  1  0  0  0  0
 33 31  2  0  0  0  0
 34 39  1  6  0  0  0
 34 37  1  0  0  0  0
 36 32  1  0  0  0  0
 37 36  1  1  0  0  0
 37 42  1  0  0  0  0
 38 39  1  0  0  0  0
 41 38  1  0  0  0  0
 41 35  1  0  0  0  0
 42 33  1  1  0  0  0
 43 35  1  6  0  0  0
 43 34  1  0  0  0  0
 43 30  1  0  0  0  0
 45 44  1  0  0  0  0
M  END
>  <MODEL>
8

>  <REMARK>
 VINA RESULT:      -4.9      3.153      8.620
  Name = 
  15 active torsions:
  status: ('A' for Active; 'I' for Inactive)
    1  A    between atoms: C_3  and  C_5
    2  A    between atoms: C_5  and  C_20
    3  A    between atoms: C_6  and  O_27
    4  A    between atoms: C_6  and  C_30
    5  A    between atoms: C_10  and  C_20
    6  A    between atoms: C_10  and  C_41
    7  A    between atoms: C_16  and  C_39
    8  A    between atoms: C_23  and  C_30
    9  A    between atoms: C_23  and  C_31
   10  A    between atoms: C_24  and  O_35
   11  A    between atoms: C_28  and  C_41
   12  A    between atoms: C_28  and  C_42
   13  A    between atoms: C_31  and  C_34
   14  A    between atoms: O_35  and  C_38
   15  A    between atoms: C_38  and  C_39
                            x       y       z     vdW  Elec       q    Type
                         _______ _______ _______ _____ _____    ______ ____

>  <TORSDO>
F 15

$$$$
=
 OpenBabel11072414463D

 45 50  0  0  1  0  0  0  0  0999 V2000
  161.5940  208.2760  151.0180 C   0  0  0  0  0  3  0  0  0  0  0  0
  162.0760  210.4520  151.8640 N   0  0  0  0  0  0  0  0  0  0  0  0
  161.5850  208.6860  153.4110 C   0  0  0  0  0  0  0  0  0  0  0  0
  162.1580  210.9450  154.2120 N   0  0  0  0  0  1  0  0  0  0  0  0
  161.9070  209.6170  150.8060 C   0  0  0  0  0  3  0  0  0  0  0  0
  161.4520  207.7910  152.3270 C   0  0  0  0  0  0  0  0  0  0  0  0
  161.9280  210.0260  153.1470 C   0  0  0  0  0  0  0  0  0  0  0  0
  161.4090  208.2080  154.8340 C   0  0  0  0  0  2  0  0  0  0  0  0
  159.1300  209.2200  154.4680 C   0  0  0  0  0  1  0  0  0  0  0  0
  159.4410  207.3220  156.0080 C   0  0  0  0  0  1  0  0  0  0  0  0
  160.0760  208.6000  155.4900 C   0  0  0  0  0  0  0  0  0  0  0  0
  160.3300  209.5690  156.6550 C   0  0  0  0  0  2  0  0  0  0  0  0
  159.8810  211.0020  156.3780 C   0  0  0  0  0  2  0  0  0  0  0  0
  158.5840  211.2890  157.1160 C   0  0  0  0  0  2  0  0  0  0  0  0
  155.7800  213.4840  155.9270 C   0  0  0  0  0  2  0  0  0  0  0  0
  156.4170  212.4910  156.8940 C   0  0  0  0  0  2  0  0  0  0  0  0
  157.0950  212.7890  154.1530 C   0  0  1  0  0  3  0  0  0  0  0  0
  158.0690  212.5810  155.1680 O   0  0  0  0  0  0  0  0  0  0  0  0
  155.7610  212.9410  154.6280 O   0  0  0  0  0  0  0  0  0  0  0  0
  157.5110  211.7410  156.1450 C   0  0  1  0  0  3  0  0  0  0  0  0
  157.4490  213.8990  153.3810 O   0  0  0  0  0  0  0  0  0  0  0  0
  157.8130  213.3730  152.1380 C   0  0  0  0  0  2  0  0  0  0  0  0
  157.0430  214.0810  151.0340 C   0  0  0  0  0  2  0  0  0  0  0  0
  157.0670  213.2580  149.7570 C   0  0  0  0  0  3  0  0  0  0  0  0
  158.2180  213.7270  148.8970 C   0  0  0  0  0  2  0  0  0  0  0  0
  156.8070  214.1560  148.5640 C   0  0  0  0  0  2  0  0  0  0  0  0
  161.1250  206.3380  152.5800 C   0  0  0  0  0  2  0  0  0  0  0  0
  162.0350  205.3490  151.8650 C   0  0  0  0  0  2  0  0  0  0  0  0
  162.0410  205.6410  150.3710 C   0  0  0  0  0  2  0  0  0  0  0  0
  161.0560  204.7560  149.5720 C   0  0  2  0  0  0  0  0  0  0  0  0
  160.9990  202.2360  151.6330 O   0  0  0  0  0  0  0  0  0  0  0  0
  160.3650  200.8710  148.4380 C   0  0  0  0  0  2  0  0  0  0  0  0
  160.8320  202.2870  150.4240 C   0  0  0  0  0  0  0  0  0  0  0  0
  162.0930  204.1720  147.4460 C   0  0  1  0  0  3  0  0  0  0  0  0
  161.2920  206.5290  147.6210 C   0  0  0  0  0  2  0  0  0  0  0  0
  160.7110  202.0590  147.5540 C   0  0  0  0  0  2  0  0  0  0  0  0
  161.8860  202.8480  148.1550 C   0  0  2  0  0  3  0  0  0  0  0  0
  162.1510  205.6100  145.4220 C   0  0  0  0  0  2  0  0  0  0  0  0
  161.9480  204.1800  145.9240 C   0  0  0  0  0  2  0  0  0  0  0  0
  159.8390  201.3680  149.7820 C   0  0  0  0  0  2  0  0  0  0  0  0
  161.1740  206.5850  146.0960 C   0  0  0  0  0  2  0  0  0  0  0  0
  161.5950  203.3000  149.6010 C   0  0  1  0  0  3  0  0  0  0  0  0
  161.0720  205.0890  148.0720 C   0  0  2  0  0  3  0  0  0  0  0  0
  159.7170  204.8560  150.0210 O   0  0  0  0  0  0  0  0  0  0  0  0
  159.2710  206.0660  149.7240 O   0  0  0  0  0  1  0  0  0  0  0  0
  1  6  1  0  0  0  0
  2  7  2  0  0  0  0
  3  8  1  0  0  0  0
  5  1  2  0  0  0  0
  5  2  1  0  0  0  0
  6 27  1  0  0  0  0
  6  3  2  0  0  0  0
  7  3  1  0  0  0  0
  7  4  1  0  0  0  0
  8 11  1  0  0  0  0
  9 11  1  0  0  0  0
 11 10  1  0  0  0  0
 11 12  1  0  0  0  0
 13 12  1  0  0  0  0
 13 14  1  0  0  0  0
 15 16  1  0  0  0  0
 17 21  1  1  0  0  0
 17 19  1  0  0  0  0
 17 18  1  0  0  0  0
 18 20  1  0  0  0  0
 19 15  1  0  0  0  0
 20 16  1  0  0  0  0
 20 14  1  1  0  0  0
 22 21  1  0  0  0  0
 23 22  1  0  0  0  0
 24 23  1  0  0  0  0
 25 24  1  0  0  0  0
 26 25  1  0  0  0  0
 26 24  1  0  0  0  0
 28 27  1  0  0  0  0
 29 28  1  0  0  0  0
 30 42  1  0  0  0  0
 30 44  1  0  0  0  0
 30 29  1  1  0  0  0
 32 40  1  0  0  0  0
 33 31  2  0  0  0  0
 34 39  1  6  0  0  0
 34 43  1  0  0  0  0
 34 37  1  0  0  0  0
 36 32  1  0  0  0  0
 37 36  1  6  0  0  0
 37 42  1  0  0  0  0
 38 39  1  0  0  0  0
 38 41  1  0  0  0  0
 40 33  1  0  0  0  0
 41 35  1  0  0  0  0
 42 33  1  6  0  0  0
 43 35  1  1  0  0  0
 43 30  1  0  0  0  0
 45 44  1  0  0  0  0
M  END
>  <MODEL>
9

>  <REMARK>
 VINA RESULT:      -4.8      3.246      5.250
  Name = 
  15 active torsions:
  status: ('A' for Active; 'I' for Inactive)
    1  A    between atoms: C_3  and  C_5
    2  A    between atoms: C_5  and  C_20
    3  A    between atoms: C_6  and  O_27
    4  A    between atoms: C_6  and  C_30
    5  A    between atoms: C_10  and  C_20
    6  A    between atoms: C_10  and  C_41
    7  A    between atoms: C_16  and  C_39
    8  A    between atoms: C_23  and  C_30
    9  A    between atoms: C_23  and  C_31
   10  A    between atoms: C_24  and  O_35
   11  A    between atoms: C_28  and  C_41
   12  A    between atoms: C_28  and  C_42
   13  A    between atoms: C_31  and  C_34
   14  A    between atoms: O_35  and  C_38
   15  A    between atoms: C_38  and  C_39
                            x       y       z     vdW  Elec       q    Type
                         _______ _______ _______ _____ _____    ______ ____

>  <TORSDO>
F 15

$$$$
