=
 OpenBabel11072413023D

 37 40  0  0  1  0  0  0  0  0999 V2000
  160.8320  209.1960  153.9460 C   0  0  1  0  0  3  0  0  0  0  0  0
  160.7970  208.1470  151.6390 C   0  0  0  0  0  3  0  0  0  0  0  0
  160.7360  207.2290  149.4170 O   0  0  0  0  0  0  0  0  0  0  0  0
  161.2430  205.0710  148.3180 C   0  0  1  0  0  3  0  0  0  0  0  0
  162.0800  204.8600  149.4310 O   0  0  0  0  0  0  0  0  0  0  0  0
  160.8650  207.0300  150.8010 C   0  0  0  0  0  0  0  0  0  0  0  0
  161.0780  205.7530  151.3690 C   0  0  0  0  0  0  0  0  0  0  0  0
  161.1830  205.6170  152.7550 C   0  0  0  0  0  3  0  0  0  0  0  0
  160.9070  208.0080  153.0300 C   0  0  0  0  0  0  0  0  0  0  0  0
  160.2480  206.2320  148.5200 C   0  0  0  0  0  2  0  0  0  0  0  0
  161.0930  206.7390  153.5830 C   0  0  0  0  0  3  0  0  0  0  0  0
  161.2500  204.5400  150.5140 C   0  0  0  0  0  2  0  0  0  0  0  0
  163.0780  204.3250  146.9920 F   0  0  0  0  0  0  0  0  0  0  0  0
  162.0920  205.2930  147.0700 C   0  0  0  0  0  0  0  0  0  0  0  0
  162.6940  206.5360  147.1350 F   0  0  0  0  0  0  0  0  0  0  0  0
  161.3020  205.2310  145.9350 F   0  0  0  0  0  0  0  0  0  0  0  0
  160.3940  208.6810  156.4080 C   0  0  0  0  0  1  0  0  0  0  0  0
  162.3170  210.1280  155.7590 C   0  0  0  0  0  1  0  0  0  0  0  0
  161.4370  208.9660  155.3390 C   0  0  0  0  0  3  0  0  0  0  0  0
  161.4870  210.7050  153.1540 S   0  0  0  0  0  0  0  0  0  0  0  0
  159.1910  213.7250  152.4880 C   0  0  0  0  0  2  0  0  0  0  0  0
  157.2200  212.8460  153.8260 N   0  0  0  0  0  0  0  0  0  0  0  0
  157.7320  211.7630  154.3460 C   0  0  0  0  0  0  0  0  0  0  0  0
  159.4760  212.3520  151.9440 C   0  0  2  0  0  3  0  0  0  0  0  0
  159.0690  211.2800  154.1010 N   0  0  0  0  0  0  0  0  0  0  0  0
  156.9350  211.0350  155.2720 N   0  0  0  0  0  1  0  0  0  0  0  0
  157.8170  213.7690  152.9470 N   0  0  0  0  0  2  0  0  0  0  0  0
  159.8730  211.4970  153.1040 C   0  0  0  0  0  0  0  0  0  0  0  0
  161.1720  213.3950  147.2660 C   0  0  0  0  0  2  0  0  0  0  0  0
  158.8310  213.7790  147.8950 C   0  0  0  0  0  2  0  0  0  0  0  0
  160.0470  214.4160  147.2420 C   0  0  0  0  0  2  0  0  0  0  0  0
  161.5400  213.0460  148.7100 C   0  0  1  0  0  3  0  0  0  0  0  0
  160.5370  212.4280  150.9480 N   0  0  0  0  0  2  0  0  0  0  0  0
  159.1490  213.2880  149.2350 N   0  0  0  0  0  0  0  0  0  0  0  0
  160.3340  212.8870  149.6080 C   0  0  0  0  0  0  0  0  0  0  0  0
  162.3960  211.7880  148.7330 C   0  0  0  0  0  2  0  0  0  0  0  0
  161.6620  210.7020  148.2570 O   0  0  0  0  0  1  0  0  0  0  0  0
  1 20  1  6  0  0  0
  1 19  1  0  0  0  0
  2  9  1  0  0  0  0
  3  6  1  0  0  0  0
  4 14  1  6  0  0  0
  4 10  1  0  0  0  0
  4  5  1  0  0  0  0
  5 12  1  0  0  0  0
  6  7  1  0  0  0  0
  6  2  2  0  0  0  0
  7  8  2  0  0  0  0
  8 11  1  0  0  0  0
  9 11  2  0  0  0  0
  9  1  1  0  0  0  0
 10  3  1  0  0  0  0
 12  7  1  0  0  0  0
 13 14  1  0  0  0  0
 14 15  1  0  0  0  0
 16 14  1  0  0  0  0
 19 18  1  0  0  0  0
 19 17  1  0  0  0  0
 21 27  1  0  0  0  0
 22 23  2  0  0  0  0
 23 26  1  0  0  0  0
 24 33  1  6  0  0  0
 24 21  1  0  0  0  0
 24 28  1  0  0  0  0
 25 23  1  0  0  0  0
 27 22  1  0  0  0  0
 28 20  1  0  0  0  0
 28 25  2  0  0  0  0
 29 32  1  0  0  0  0
 30 34  1  0  0  0  0
 31 29  1  0  0  0  0
 31 30  1  0  0  0  0
 32 36  1  6  0  0  0
 32 35  1  0  0  0  0
 34 35  2  0  0  0  0
 35 33  1  0  0  0  0
 37 36  1  0  0  0  0
M  END
>  <MODEL>
1

>  <REMARK>
 VINA RESULT:      -7.9      0.000      0.000
  Name = 
  7 active torsions:
  status: ('A' for Active; 'I' for Inactive)
    1  A    between atoms: C_7  and  C_16
    2  A    between atoms: C_13  and  C_29
    3  A    between atoms: C_15  and  S_21
    4  A    between atoms: C_15  and  C_22
    5  A    between atoms: C_15  and  C_23
    6  A    between atoms: N_17  and  C_25
    7  A    between atoms: S_21  and  C_32
                            x       y       z     vdW  Elec       q    Type
                         _______ _______ _______ _____ _____    ______ ____

>  <TORSDO>
F 7

$$$$
=
 OpenBabel11072413023D

 37 40  0  0  1  0  0  0  0  0999 V2000
  160.5240  209.2430  153.9810 C   0  0  1  0  0  3  0  0  0  0  0  0
  160.8460  206.9500  152.9500 C   0  0  0  0  0  3  0  0  0  0  0  0
  161.1490  204.7390  152.0530 O   0  0  0  0  0  0  0  0  0  0  0  0
  161.4200  203.6920  149.8270 C   0  0  1  0  0  3  0  0  0  0  0  0
  160.7630  204.8470  149.3590 O   0  0  0  0  0  0  0  0  0  0  0  0
  161.1570  206.1300  151.8610 C   0  0  0  0  0  0  0  0  0  0  0  0
  161.4470  206.7230  150.6100 C   0  0  0  0  0  0  0  0  0  0  0  0
  161.4550  208.1150  150.4860 C   0  0  0  0  0  3  0  0  0  0  0  0
  160.8510  208.3460  152.8200 C   0  0  0  0  0  0  0  0  0  0  0  0
  161.9310  203.8320  151.2760 C   0  0  0  0  0  2  0  0  0  0  0  0
  161.1620  208.9230  151.5870 C   0  0  0  0  0  3  0  0  0  0  0  0
  161.6950  205.8920  149.3940 C   0  0  0  0  0  2  0  0  0  0  0  0
  159.2780  202.7500  150.2810 F   0  0  0  0  0  0  0  0  0  0  0  0
  160.4990  202.4830  149.6890 C   0  0  0  0  0  0  0  0  0  0  0  0
  161.0700  201.3930  150.3210 F   0  0  0  0  0  0  0  0  0  0  0  0
  160.3030  202.1800  148.3530 F   0  0  0  0  0  0  0  0  0  0  0  0
  159.7710  208.3680  156.2580 C   0  0  0  0  0  1  0  0  0  0  0  0
  161.9100  209.6300  156.0520 C   0  0  0  0  0  1  0  0  0  0  0  0
  160.9470  208.6910  155.3510 C   0  0  0  0  0  3  0  0  0  0  0  0
  161.1250  210.9460  153.7110 S   0  0  0  0  0  0  0  0  0  0  0  0
  158.6320  213.7590  152.8700 C   0  0  0  0  0  2  0  0  0  0  0  0
  156.7150  212.8190  154.2430 N   0  0  0  0  0  0  0  0  0  0  0  0
  157.2950  211.8040  154.8250 C   0  0  0  0  0  0  0  0  0  0  0  0
  159.0150  212.3810  152.4030 C   0  0  2  0  0  3  0  0  0  0  0  0
  158.6640  211.4020  154.6130 N   0  0  0  0  0  0  0  0  0  0  0  0
  156.5420  211.0740  155.7850 N   0  0  0  0  0  1  0  0  0  0  0  0
  157.2550  213.7320  153.3180 N   0  0  0  0  0  2  0  0  0  0  0  0
  159.4610  211.6200  153.6110 C   0  0  0  0  0  0  0  0  0  0  0  0
  160.7050  213.4540  147.7300 C   0  0  0  0  0  2  0  0  0  0  0  0
  158.3550  213.7940  148.3510 C   0  0  0  0  0  2  0  0  0  0  0  0
  159.5610  214.4530  147.7020 C   0  0  0  0  0  2  0  0  0  0  0  0
  161.0750  213.1110  149.1740 C   0  0  1  0  0  3  0  0  0  0  0  0
  160.0780  212.4760  151.4100 N   0  0  0  0  0  2  0  0  0  0  0  0
  158.6790  213.3100  149.6930 N   0  0  0  0  0  0  0  0  0  0  0  0
  159.8700  212.9310  150.0690 C   0  0  0  0  0  0  0  0  0  0  0  0
  161.9540  211.8700  149.2000 C   0  0  0  0  0  2  0  0  0  0  0  0
  161.6600  211.0530  148.1090 O   0  0  0  0  0  1  0  0  0  0  0  0
  1 20  1  6  0  0  0
  1 19  1  0  0  0  0
  4 14  1  1  0  0  0
  4 10  1  0  0  0  0
  5 12  1  0  0  0  0
  5  4  1  0  0  0  0
  6  3  1  0  0  0  0
  6  2  2  0  0  0  0
  7  6  1  0  0  0  0
  8  7  2  0  0  0  0
  8 11  1  0  0  0  0
  9  2  1  0  0  0  0
  9  1  1  0  0  0  0
 10  3  1  0  0  0  0
 11  9  2  0  0  0  0
 12  7  1  0  0  0  0
 14 13  1  0  0  0  0
 14 15  1  0  0  0  0
 16 14  1  0  0  0  0
 19 18  1  0  0  0  0
 19 17  1  0  0  0  0
 21 27  1  0  0  0  0
 22 23  2  0  0  0  0
 23 26  1  0  0  0  0
 24 33  1  6  0  0  0
 24 21  1  0  0  0  0
 24 28  1  0  0  0  0
 25 23  1  0  0  0  0
 27 22  1  0  0  0  0
 28 20  1  0  0  0  0
 28 25  2  0  0  0  0
 29 32  1  0  0  0  0
 30 34  1  0  0  0  0
 31 29  1  0  0  0  0
 31 30  1  0  0  0  0
 32 36  1  6  0  0  0
 32 35  1  0  0  0  0
 34 35  2  0  0  0  0
 35 33  1  0  0  0  0
 37 36  1  0  0  0  0
M  END
>  <MODEL>
2

>  <REMARK>
 VINA RESULT:      -7.4      1.630      2.177
  Name = 
  7 active torsions:
  status: ('A' for Active; 'I' for Inactive)
    1  A    between atoms: C_7  and  C_16
    2  A    between atoms: C_13  and  C_29
    3  A    between atoms: C_15  and  S_21
    4  A    between atoms: C_15  and  C_22
    5  A    between atoms: C_15  and  C_23
    6  A    between atoms: N_17  and  C_25
    7  A    between atoms: S_21  and  C_32
                            x       y       z     vdW  Elec       q    Type
                         _______ _______ _______ _____ _____    ______ ____

>  <TORSDO>
F 7

$$$$
=
 OpenBabel11072413023D

 37 40  0  0  1  0  0  0  0  0999 V2000
  161.4230  208.8860  152.2620 C   0  0  1  0  0  3  0  0  0  0  0  0
  161.3630  207.8280  149.9600 C   0  0  0  0  0  3  0  0  0  0  0  0
  161.3020  206.9060  147.7390 O   0  0  0  0  0  0  0  0  0  0  0  0
  161.3510  204.6660  146.6910 C   0  0  1  0  0  3  0  0  0  0  0  0
  161.9820  204.2720  147.8860 O   0  0  0  0  0  0  0  0  0  0  0  0
  161.2300  206.7130  149.1290 C   0  0  0  0  0  0  0  0  0  0  0  0
  161.0460  205.4360  149.7090 C   0  0  0  0  0  0  0  0  0  0  0  0
  160.9650  205.3100  151.0980 C   0  0  0  0  0  3  0  0  0  0  0  0
  161.2860  207.6970  151.3530 C   0  0  0  0  0  0  0  0  0  0  0  0
  160.6720  206.0470  146.7900 C   0  0  0  0  0  2  0  0  0  0  0  0
  161.0800  206.4350  151.9170 C   0  0  0  0  0  3  0  0  0  0  0  0
  160.9890  204.2010  148.8710 C   0  0  0  0  0  2  0  0  0  0  0  0
  163.6410  204.7470  146.0370 F   0  0  0  0  0  0  0  0  0  0  0  0
  162.3540  204.6340  145.5420 C   0  0  0  0  0  0  0  0  0  0  0  0
  162.1130  205.6940  144.6880 F   0  0  0  0  0  0  0  0  0  0  0  0
  162.2390  203.4490  144.8370 F   0  0  0  0  0  0  0  0  0  0  0  0
  163.3300  210.4810  152.8460 C   0  0  0  0  0  1  0  0  0  0  0  0
  161.6640  211.1120  151.1030 C   0  0  0  0  0  1  0  0  0  0  0  0
  162.3990  209.9610  151.7610 C   0  0  0  0  0  3  0  0  0  0  0  0
  159.7980  209.5890  152.7090 S   0  0  0  0  0  0  0  0  0  0  0  0
  161.6290  211.0210  155.7790 C   0  0  0  0  0  2  0  0  0  0  0  0
  161.2690  208.9900  157.2600 N   0  0  0  0  0  0  0  0  0  0  0  0
  160.7090  208.1620  156.4200 C   0  0  0  0  0  0  0  0  0  0  0  0
  160.2380  210.9000  155.2200 C   0  0  2  0  0  3  0  0  0  0  0  0
  160.3880  208.4680  155.0480 N   0  0  0  0  0  0  0  0  0  0  0  0
  160.4490  206.8390  156.8720 N   0  0  0  0  0  1  0  0  0  0  0  0
  161.6850  210.3170  157.0450 N   0  0  0  0  0  2  0  0  0  0  0  0
  160.1820  209.6100  154.4650 C   0  0  0  0  0  0  0  0  0  0  0  0
  157.0580  214.3000  153.1780 C   0  0  0  0  0  2  0  0  0  0  0  0
  156.2830  212.6440  154.8150 C   0  0  0  0  0  2  0  0  0  0  0  0
  156.2720  214.1230  154.4660 C   0  0  0  0  0  2  0  0  0  0  0  0
  158.5140  213.8750  153.3820 C   0  0  1  0  0  3  0  0  0  0  0  0
  159.9550  212.0380  154.3540 N   0  0  0  0  0  2  0  0  0  0  0  0
  157.6510  212.1310  154.8870 N   0  0  0  0  0  0  0  0  0  0  0  0
  158.6540  212.6140  154.2060 C   0  0  0  0  0  0  0  0  0  0  0  0
  159.1980  213.7140  152.0330 C   0  0  0  0  0  2  0  0  0  0  0  0
  158.3560  213.0390  151.1480 O   0  0  0  0  0  1  0  0  0  0  0  0
  1 19  1  6  0  0  0
  1 20  1  0  0  0  0
  2  9  1  0  0  0  0
  3  6  1  0  0  0  0
  4 14  1  6  0  0  0
  4 10  1  0  0  0  0
  4  5  1  0  0  0  0
  5 12  1  0  0  0  0
  6  7  1  0  0  0  0
  6  2  2  0  0  0  0
  7  8  2  0  0  0  0
  8 11  1  0  0  0  0
  9 11  2  0  0  0  0
  9  1  1  0  0  0  0
 10  3  1  0  0  0  0
 12  7  1  0  0  0  0
 14 13  1  0  0  0  0
 15 14  1  0  0  0  0
 16 14  1  0  0  0  0
 18 19  1  0  0  0  0
 19 17  1  0  0  0  0
 20 28  1  0  0  0  0
 21 27  1  0  0  0  0
 23 26  1  0  0  0  0
 23 22  2  0  0  0  0
 24 33  1  6  0  0  0
 24 21  1  0  0  0  0
 25 23  1  0  0  0  0
 27 22  1  0  0  0  0
 28 25  2  0  0  0  0
 28 24  1  0  0  0  0
 29 32  1  0  0  0  0
 29 31  1  0  0  0  0
 30 34  1  0  0  0  0
 31 30  1  0  0  0  0
 32 36  1  6  0  0  0
 32 35  1  0  0  0  0
 35 33  1  0  0  0  0
 35 34  2  0  0  0  0
 37 36  1  0  0  0  0
M  END
>  <MODEL>
3

>  <REMARK>
 VINA RESULT:      -6.8      2.302      4.178
  Name = 
  7 active torsions:
  status: ('A' for Active; 'I' for Inactive)
    1  A    between atoms: C_7  and  C_16
    2  A    between atoms: C_13  and  C_29
    3  A    between atoms: C_15  and  S_21
    4  A    between atoms: C_15  and  C_22
    5  A    between atoms: C_15  and  C_23
    6  A    between atoms: N_17  and  C_25
    7  A    between atoms: S_21  and  C_32
                            x       y       z     vdW  Elec       q    Type
                         _______ _______ _______ _____ _____    ______ ____

>  <TORSDO>
F 7

$$$$
=
 OpenBabel11072413023D

 37 40  0  0  1  0  0  0  0  0999 V2000
  161.2270  207.1160  151.1420 C   0  0  1  0  0  3  0  0  0  0  0  0
  161.0490  205.1760  149.5210 C   0  0  0  0  0  3  0  0  0  0  0  0
  160.8570  203.2830  148.0500 O   0  0  0  0  0  0  0  0  0  0  0  0
  161.1170  202.8130  145.6350 C   0  0  1  0  0  3  0  0  0  0  0  0
  160.8610  204.1890  145.4810 O   0  0  0  0  0  0  0  0  0  0  0  0
  161.2630  204.6110  148.2610 C   0  0  0  0  0  0  0  0  0  0  0  0
  161.8590  205.3930  147.2440 C   0  0  0  0  0  0  0  0  0  0  0  0
  162.2570  206.7040  147.5200 C   0  0  0  0  0  3  0  0  0  0  0  0
  161.4460  206.4930  149.7920 C   0  0  0  0  0  0  0  0  0  0  0  0
  161.4580  202.4180  147.0870 C   0  0  0  0  0  2  0  0  0  0  0  0
  162.0550  207.2500  148.7890 C   0  0  0  0  0  3  0  0  0  0  0  0
  162.0280  204.8690  145.8560 C   0  0  0  0  0  2  0  0  0  0  0  0
  159.0670  201.7160  146.1560 F   0  0  0  0  0  0  0  0  0  0  0  0
  159.9310  202.0060  145.1160 C   0  0  0  0  0  0  0  0  0  0  0  0
  160.3840  200.8180  144.5710 F   0  0  0  0  0  0  0  0  0  0  0  0
  159.2530  202.7200  144.1440 F   0  0  0  0  0  0  0  0  0  0  0  0
  163.1230  205.8250  152.2640 C   0  0  0  0  0  1  0  0  0  0  0  0
  160.7740  205.0170  152.4640 C   0  0  0  0  0  1  0  0  0  0  0  0
  161.6610  206.2390  152.3260 C   0  0  0  0  0  3  0  0  0  0  0  0
  161.9360  208.7960  151.2360 S   0  0  0  0  0  0  0  0  0  0  0  0
  161.2710  211.0420  154.2940 C   0  0  0  0  0  2  0  0  0  0  0  0
  160.2680  209.2120  155.7400 N   0  0  0  0  0  0  0  0  0  0  0  0
  160.4480  208.1640  154.9810 C   0  0  0  0  0  0  0  0  0  0  0  0
  160.5630  210.5130  153.0770 C   0  0  2  0  0  3  0  0  0  0  0  0
  161.0330  208.1890  153.6640 N   0  0  0  0  0  0  0  0  0  0  0  0
  160.0980  206.8940  155.5170 N   0  0  0  0  0  1  0  0  0  0  0  0
  160.5890  210.5560  155.4770 N   0  0  0  0  0  2  0  0  0  0  0  0
  161.1250  209.1550  152.8010 C   0  0  0  0  0  0  0  0  0  0  0  0
  158.9460  214.0450  149.7970 C   0  0  0  0  0  2  0  0  0  0  0  0
  157.4860  213.1790  151.5690 C   0  0  0  0  0  2  0  0  0  0  0  0
  158.0070  214.4510  150.9200 C   0  0  0  0  0  2  0  0  0  0  0  0
  160.1440  213.2770  150.3590 C   0  0  1  0  0  3  0  0  0  0  0  0
  160.7730  211.4160  151.9530 N   0  0  0  0  0  2  0  0  0  0  0  0
  158.5870  212.3220  152.0070 N   0  0  0  0  0  0  0  0  0  0  0  0
  159.7630  212.2930  151.4420 C   0  0  0  0  0  0  0  0  0  0  0  0
  160.8820  212.5750  149.2300 C   0  0  0  0  0  2  0  0  0  0  0  0
  161.7300  213.4740  148.5820 O   0  0  0  0  0  1  0  0  0  0  0  0
  1 20  1  6  0  0  0
  1 19  1  0  0  0  0
  2  9  1  0  0  0  0
  3  6  1  0  0  0  0
  4 14  1  1  0  0  0
  4 10  1  0  0  0  0
  5  4  1  0  0  0  0
  5 12  1  0  0  0  0
  6  2  2  0  0  0  0
  7  8  2  0  0  0  0
  7  6  1  0  0  0  0
  8 11  1  0  0  0  0
  9  1  1  0  0  0  0
 10  3  1  0  0  0  0
 11  9  2  0  0  0  0
 12  7  1  0  0  0  0
 14 13  1  0  0  0  0
 15 14  1  0  0  0  0
 16 14  1  0  0  0  0
 17 19  1  0  0  0  0
 19 18  1  0  0  0  0
 20 28  1  0  0  0  0
 21 27  1  0  0  0  0
 23 26  1  0  0  0  0
 23 22  2  0  0  0  0
 24 33  1  6  0  0  0
 24 21  1  0  0  0  0
 25 23  1  0  0  0  0
 27 22  1  0  0  0  0
 28 24  1  0  0  0  0
 28 25  2  0  0  0  0
 29 32  1  0  0  0  0
 29 31  1  0  0  0  0
 30 34  1  0  0  0  0
 31 30  1  0  0  0  0
 32 36  1  6  0  0  0
 32 35  1  0  0  0  0
 35 33  1  0  0  0  0
 35 34  2  0  0  0  0
 37 36  1  0  0  0  0
M  END
>  <MODEL>
4

>  <REMARK>
 VINA RESULT:      -6.5      2.453      4.106
  Name = 
  7 active torsions:
  status: ('A' for Active; 'I' for Inactive)
    1  A    between atoms: C_7  and  C_16
    2  A    between atoms: C_13  and  C_29
    3  A    between atoms: C_15  and  S_21
    4  A    between atoms: C_15  and  C_22
    5  A    between atoms: C_15  and  C_23
    6  A    between atoms: N_17  and  C_25
    7  A    between atoms: S_21  and  C_32
                            x       y       z     vdW  Elec       q    Type
                         _______ _______ _______ _____ _____    ______ ____

>  <TORSDO>
F 7

$$$$
=
 OpenBabel11072413023D

 37 40  0  0  1  0  0  0  0  0999 V2000
  160.7250  208.7300  152.0880 C   0  0  1  0  0  3  0  0  0  0  0  0
  160.9530  206.7390  150.5370 C   0  0  0  0  0  3  0  0  0  0  0  0
  161.1390  204.7980  149.1290 O   0  0  0  0  0  0  0  0  0  0  0  0
  161.8460  204.2810  146.8150 C   0  0  1  0  0  3  0  0  0  0  0  0
  161.5360  205.6320  146.5660 O   0  0  0  0  0  0  0  0  0  0  0  0
  161.4190  206.1550  149.3550 C   0  0  0  0  0  0  0  0  0  0  0  0
  162.1340  206.9480  148.4270 C   0  0  0  0  0  0  0  0  0  0  0  0
  162.3950  208.2900  148.7160 C   0  0  0  0  0  3  0  0  0  0  0  0
  161.2140  208.0870  150.8210 C   0  0  0  0  0  0  0  0  0  0  0  0
  161.9520  203.9500  148.3180 C   0  0  0  0  0  2  0  0  0  0  0  0
  161.9410  208.8560  149.9100 C   0  0  0  0  0  3  0  0  0  0  0  0
  162.5740  206.3990  147.1100 C   0  0  0  0  0  2  0  0  0  0  0  0
  159.8960  204.1540  145.4500 F   0  0  0  0  0  0  0  0  0  0  0  0
  160.8210  203.3820  146.1300 C   0  0  0  0  0  0  0  0  0  0  0  0
  160.1570  202.6300  147.0820 F   0  0  0  0  0  0  0  0  0  0  0  0
  161.4490  202.5300  145.2390 F   0  0  0  0  0  0  0  0  0  0  0  0
  161.0240  208.5110  154.6150 C   0  0  0  0  0  1  0  0  0  0  0  0
  161.6370  206.6150  153.1170 C   0  0  0  0  0  1  0  0  0  0  0  0
  160.7070  207.7980  153.3100 C   0  0  0  0  0  3  0  0  0  0  0  0
  161.5960  210.2970  152.4330 S   0  0  0  0  0  0  0  0  0  0  0  0
  159.5680  213.5700  152.3410 C   0  0  0  0  0  2  0  0  0  0  0  0
  157.5900  212.6810  153.6610 N   0  0  0  0  0  0  0  0  0  0  0  0
  158.0220  211.4930  153.9920 C   0  0  0  0  0  0  0  0  0  0  0  0
  159.6940  212.2710  151.5930 C   0  0  2  0  0  3  0  0  0  0  0  0
  159.2920  210.9370  153.5990 N   0  0  0  0  0  0  0  0  0  0  0  0
  157.2050  210.7110  154.8550 N   0  0  0  0  0  1  0  0  0  0  0  0
  158.2290  213.6660  152.8850 N   0  0  0  0  0  2  0  0  0  0  0  0
  160.0640  211.2250  152.5950 C   0  0  0  0  0  0  0  0  0  0  0  0
  161.1530  213.4630  146.8710 C   0  0  0  0  0  2  0  0  0  0  0  0
  158.8330  213.7690  147.6100 C   0  0  0  0  0  2  0  0  0  0  0  0
  160.0020  214.4530  146.9200 C   0  0  0  0  0  2  0  0  0  0  0  0
  161.5940  213.0920  148.2890 C   0  0  1  0  0  3  0  0  0  0  0  0
  160.7080  212.3970  150.5540 N   0  0  0  0  0  2  0  0  0  0  0  0
  159.2230  213.2580  148.9240 N   0  0  0  0  0  0  0  0  0  0  0  0
  160.4330  212.8810  149.2350 C   0  0  0  0  0  0  0  0  0  0  0  0
  162.4830  211.8590  148.2450 C   0  0  0  0  0  2  0  0  0  0  0  0
  163.7460  212.1970  147.7580 O   0  0  0  0  0  1  0  0  0  0  0  0
  1 20  1  1  0  0  0
  1 19  1  0  0  0  0
  2  9  1  0  0  0  0
  3  6  1  0  0  0  0
  4 14  1  1  0  0  0
  4 10  1  0  0  0  0
  5  4  1  0  0  0  0
  5 12  1  0  0  0  0
  6  2  2  0  0  0  0
  7  8  2  0  0  0  0
  7  6  1  0  0  0  0
  8 11  1  0  0  0  0
  9  1  1  0  0  0  0
 10  3  1  0  0  0  0
 11  9  2  0  0  0  0
 12  7  1  0  0  0  0
 13 14  1  0  0  0  0
 14 15  1  0  0  0  0
 16 14  1  0  0  0  0
 18 19  1  0  0  0  0
 19 17  1  0  0  0  0
 20 28  1  0  0  0  0
 21 27  1  0  0  0  0
 22 23  2  0  0  0  0
 23 26  1  0  0  0  0
 24 33  1  6  0  0  0
 24 21  1  0  0  0  0
 24 28  1  0  0  0  0
 25 23  1  0  0  0  0
 27 22  1  0  0  0  0
 28 25  2  0  0  0  0
 29 31  1  0  0  0  0
 29 32  1  0  0  0  0
 30 34  1  0  0  0  0
 31 30  1  0  0  0  0
 32 36  1  6  0  0  0
 32 35  1  0  0  0  0
 34 35  2  0  0  0  0
 35 33  1  0  0  0  0
 37 36  1  0  0  0  0
M  END
>  <MODEL>
5

>  <REMARK>
 VINA RESULT:      -5.7      1.418      2.336
  Name = 
  7 active torsions:
  status: ('A' for Active; 'I' for Inactive)
    1  A    between atoms: C_7  and  C_16
    2  A    between atoms: C_13  and  C_29
    3  A    between atoms: C_15  and  S_21
    4  A    between atoms: C_15  and  C_22
    5  A    between atoms: C_15  and  C_23
    6  A    between atoms: N_17  and  C_25
    7  A    between atoms: S_21  and  C_32
                            x       y       z     vdW  Elec       q    Type
                         _______ _______ _______ _____ _____    ______ ____

>  <TORSDO>
F 7

$$$$
=
 OpenBabel11072413023D

 37 40  0  0  1  0  0  0  0  0999 V2000
  161.2100  207.4050  151.0740 C   0  0  1  0  0  3  0  0  0  0  0  0
  161.0450  205.3970  149.5370 C   0  0  0  0  0  3  0  0  0  0  0  0
  160.8630  203.4420  148.1470 O   0  0  0  0  0  0  0  0  0  0  0  0
  161.1800  202.8600  145.7640 C   0  0  1  0  0  3  0  0  0  0  0  0
  160.9500  204.2310  145.5420 O   0  0  0  0  0  0  0  0  0  0  0  0
  161.2840  204.7720  148.3090 C   0  0  0  0  0  0  0  0  0  0  0  0
  161.9190  205.4990  147.2750 C   0  0  0  0  0  0  0  0  0  0  0  0
  162.3300  206.8150  147.5030 C   0  0  0  0  0  3  0  0  0  0  0  0
  161.4550  206.7190  149.7590 C   0  0  0  0  0  0  0  0  0  0  0  0
  161.4760  202.5260  147.2400 C   0  0  0  0  0  2  0  0  0  0  0  0
  162.1030  207.4210  148.7400 C   0  0  0  0  0  3  0  0  0  0  0  0
  162.1160  204.9100  145.9170 C   0  0  0  0  0  2  0  0  0  0  0  0
  159.1740  201.6930  146.3040 F   0  0  0  0  0  0  0  0  0  0  0  0
  159.9950  202.0480  145.2490 C   0  0  0  0  0  0  0  0  0  0  0  0
  160.4560  200.8950  144.6380 F   0  0  0  0  0  0  0  0  0  0  0  0
  159.2690  202.7860  144.3320 F   0  0  0  0  0  0  0  0  0  0  0  0
  160.6180  207.1250  153.5420 C   0  0  0  0  0  1  0  0  0  0  0  0
  161.2080  205.1320  152.1650 C   0  0  0  0  0  1  0  0  0  0  0  0
  160.5780  206.5110  152.1510 C   0  0  0  0  0  3  0  0  0  0  0  0
  162.7060  208.2590  151.6810 S   0  0  0  0  0  0  0  0  0  0  0  0
  160.0100  211.0030  151.8570 C   0  0  0  0  0  2  0  0  0  0  0  0
  160.8410  212.3060  149.8420 N   0  0  0  0  0  0  0  0  0  0  0  0
  161.7930  211.5220  149.4110 C   0  0  0  0  0  0  0  0  0  0  0  0
  161.4200  210.7430  152.3110 C   0  0  2  0  0  3  0  0  0  0  0  0
  162.1960  210.2890  150.0400 N   0  0  0  0  0  0  0  0  0  0  0  0
  162.4400  211.8770  148.1950 N   0  0  0  0  0  1  0  0  0  0  0  0
  160.0110  212.1470  150.9670 N   0  0  0  0  0  2  0  0  0  0  0  0
  162.0630  209.8860  151.2670 C   0  0  0  0  0  0  0  0  0  0  0  0
  160.2690  210.6040  157.2610 C   0  0  0  0  0  2  0  0  0  0  0  0
  159.6510  212.5180  155.8560 C   0  0  0  0  0  2  0  0  0  0  0  0
  159.1210  211.5200  156.8720 C   0  0  0  0  0  2  0  0  0  0  0  0
  160.7590  209.8200  156.0410 C   0  0  1  0  0  3  0  0  0  0  0  0
  161.4050  210.0810  153.6090 N   0  0  0  0  0  2  0  0  0  0  0  0
  160.2670  211.8350  154.7190 N   0  0  0  0  0  0  0  0  0  0  0  0
  160.8320  210.6610  154.7860 C   0  0  0  0  0  0  0  0  0  0  0  0
  162.1090  209.1880  156.3440 C   0  0  0  0  0  2  0  0  0  0  0  0
  163.0350  210.1750  156.6830 O   0  0  0  0  0  1  0  0  0  0  0  0
  1 20  1  1  0  0  0
  1 19  1  0  0  0  0
  2  9  1  0  0  0  0
  3  6  1  0  0  0  0
  4 14  1  1  0  0  0
  4 10  1  0  0  0  0
  5  4  1  0  0  0  0
  5 12  1  0  0  0  0
  6  2  2  0  0  0  0
  7  8  2  0  0  0  0
  7  6  1  0  0  0  0
  8 11  1  0  0  0  0
  9  1  1  0  0  0  0
 10  3  1  0  0  0  0
 11  9  2  0  0  0  0
 12  7  1  0  0  0  0
 14 13  1  0  0  0  0
 15 14  1  0  0  0  0
 16 14  1  0  0  0  0
 19 18  1  0  0  0  0
 19 17  1  0  0  0  0
 21 24  1  0  0  0  0
 22 27  1  0  0  0  0
 23 22  2  0  0  0  0
 23 25  1  0  0  0  0
 24 33  1  1  0  0  0
 25 28  2  0  0  0  0
 26 23  1  0  0  0  0
 27 21  1  0  0  0  0
 28 20  1  0  0  0  0
 28 24  1  0  0  0  0
 30 31  1  0  0  0  0
 31 29  1  0  0  0  0
 32 36  1  1  0  0  0
 32 29  1  0  0  0  0
 33 35  1  0  0  0  0
 34 35  2  0  0  0  0
 34 30  1  0  0  0  0
 35 32  1  0  0  0  0
 36 37  1  0  0  0  0
M  END
>  <MODEL>
6

>  <REMARK>
 VINA RESULT:      -5.5      2.722      5.575
  Name = 
  7 active torsions:
  status: ('A' for Active; 'I' for Inactive)
    1  A    between atoms: C_7  and  C_16
    2  A    between atoms: C_13  and  C_29
    3  A    between atoms: C_15  and  S_21
    4  A    between atoms: C_15  and  C_22
    5  A    between atoms: C_15  and  C_23
    6  A    between atoms: N_17  and  C_25
    7  A    between atoms: S_21  and  C_32
                            x       y       z     vdW  Elec       q    Type
                         _______ _______ _______ _____ _____    ______ ____

>  <TORSDO>
F 7

$$$$
