=
 OpenBabel11072409583D

 54 56  0  0  1  0  0  0  0  0999 V2000
  160.3750  210.1390  152.8900 C   0  0  0  0  0  2  0  0  0  0  0  0
  160.3170  211.6340  153.1030 C   0  0  0  0  0  2  0  0  0  0  0  0
  160.2340  212.3920  151.7800 C   0  0  1  0  0  3  0  0  0  0  0  0
  161.2820  212.1430  149.5280 C   0  0  0  0  0  1  0  0  0  0  0  0
  160.5800  211.4180  150.6610 C   0  0  0  0  0  2  0  0  0  0  0  0
  158.8270  212.9960  151.5800 C   0  0  1  0  0  3  0  0  0  0  0  0
  159.2230  214.4360  153.4010 O   0  0  0  0  0  0  0  0  0  0  0  0
  158.3880  213.8190  152.7570 C   0  0  0  0  0  0  0  0  0  0  0  0
  156.9300  213.9460  153.0990 C   0  0  0  0  0  2  0  0  0  0  0  0
  157.2180  212.1830  154.6780 O   0  0  0  0  0  0  0  0  0  0  0  0
  155.5510  213.7520  155.1970 N   0  0  0  0  0  2  0  0  0  0  0  0
  154.1300  213.7600  157.0710 N   0  0  0  0  0  2  0  0  0  0  0  0
  156.6020  213.2380  154.3690 C   0  0  0  0  0  0  0  0  0  0  0  0
  155.1800  213.2710  156.4950 C   0  0  0  0  0  0  0  0  0  0  0  0
  156.0390  212.3200  157.2570 C   0  0  0  0  0  1  0  0  0  0  0  0
  159.6590  214.4530  149.8680 O   0  0  0  0  0  0  0  0  0  0  0  0
  158.6850  213.7940  150.3180 C   0  0  0  0  0  0  0  0  0  0  0  0
  157.4490  213.8370  149.6800 O   0  0  0  0  0  0  0  0  0  0  0  0
  157.1640  213.0570  148.5280 C   0  0  0  0  0  2  0  0  0  0  0  0
  158.0100  213.5280  147.3620 C   0  0  0  0  0  2  0  0  0  0  0  0
  157.8630  212.5730  146.2200 C   0  0  0  0  0  0  0  0  0  0  0  0
  160.4400  213.9670  145.9890 O   0  0  0  0  0  0  0  0  0  0  0  0
  156.8500  211.8270  146.1840 O   0  0  0  0  0  0  0  0  0  0  0  0
  158.8020  212.5180  145.1410 N   0  0  0  0  0  2  0  0  0  0  0  0
  160.0360  213.2430  145.0410 C   0  0  0  0  0  0  0  0  0  0  0  0
  160.8930  213.0930  143.8220 C   0  0  0  0  0  3  0  0  0  0  0  0
  160.3580  212.1210  142.9770 O   0  0  0  0  0  1  0  0  0  0  0  0
  162.1890  212.7370  144.1770 O   0  0  0  0  0  1  0  0  0  0  0  0
  160.5470  209.4060  154.2150 C   0  0  2  0  0  3  0  0  0  0  0  0
  162.9120  210.6770  156.9600 C   0  0  0  0  0  2  0  0  0  0  0  0
  162.4690  209.8680  155.7550 C   0  0  1  0  0  3  0  0  0  0  0  0
  160.5340  210.0290  156.6550 C   0  0  0  0  0  2  0  0  0  0  0  0
  161.8920  209.5610  157.1260 C   0  0  2  0  0  3  0  0  0  0  0  0
  161.1050  210.3430  155.2880 C   0  0  2  0  0  3  0  0  0  0  0  0
  161.5100  208.2360  154.0220 C   0  0  0  0  0  2  0  0  0  0  0  0
  160.7870  206.9940  153.7510 N   0  0  0  0  0  0  0  0  0  0  0  0
  160.3620  206.4180  155.0250 C   0  0  0  0  0  1  0  0  0  0  0  0
  161.6610  206.0680  153.0040 C   0  0  2  0  0  3  0  0  0  0  0  0
  162.2270  206.6980  151.7310 C   0  0  0  0  0  2  0  0  0  0  0  0
  161.2440  207.4680  151.1040 O   0  0  0  0  0  1  0  0  0  0  0  0
  161.0950  204.6540  152.7770 C   0  0  0  0  0  2  0  0  0  0  0  0
  160.8050  203.1660  148.0910 C   0  0  0  0  0  3  0  0  0  0  0  0
  161.5940  202.4820  151.6580 C   0  0  0  0  0  3  0  0  0  0  0  0
  161.5880  203.9780  151.5040 C   0  0  1  0  0  3  0  0  0  0  0  0
  160.6900  201.8460  148.3160 C   0  0  0  0  0  3  0  0  0  0  0  0
  161.4970  204.1770  148.9720 C   0  0  2  0  0  3  0  0  0  0  0  0
  159.4590  204.0440  150.3250 F   0  0  0  0  0  0  0  0  0  0  0  0
  161.3920  201.7230  150.6210 C   0  0  0  0  0  0  0  0  0  0  0  0
  160.7780  204.4830  150.2960 C   0  0  1  0  0  3  0  0  0  0  0  0
  161.1410  201.1030  149.5080 C   0  0  0  0  0  3  0  0  0  0  0  0
  161.6720  205.4680  148.1910 C   0  0  0  0  0  2  0  0  0  0  0  0
  160.9250  205.4280  147.0190 O   0  0  0  0  0  0  0  0  0  0  0  0
  161.8370  205.7340  146.0070 C   0  0  0  0  0  2  0  0  0  0  0  0
  161.1770  205.7820  144.7770 O   0  0  0  0  0  1  0  0  0  0  0  0
  1  2  1  0  0  0  0
  3  5  1  6  0  0  0
  3  2  1  0  0  0  0
  4  5  1  0  0  0  0
  6 17  1  6  0  0  0
  6  3  1  0  0  0  0
  6  8  1  0  0  0  0
  8  9  1  0  0  0  0
  8  7  2  0  0  0  0
  9 13  1  0  0  0  0
 11 14  1  0  0  0  0
 13 10  2  0  0  0  0
 13 11  1  0  0  0  0
 14 12  2  0  0  0  0
 14 15  1  0  0  0  0
 16 17  2  0  0  0  0
 18 17  1  0  0  0  0
 19 18  1  0  0  0  0
 20 19  1  0  0  0  0
 21 20  1  0  0  0  0
 23 21  2  0  0  0  0
 24 21  1  0  0  0  0
 25 24  1  0  0  0  0
 25 22  2  0  0  0  0
 26 28  1  0  0  0  0
 26 25  1  0  0  0  0
 27 26  1  0  0  0  0
 29  1  1  6  0  0  0
 30 33  1  0  0  0  0
 31 30  1  1  0  0  0
 31 33  1  0  0  0  0
 33 32  1  6  0  0  0
 34 29  1  6  0  0  0
 34 31  1  0  0  0  0
 34 32  1  0  0  0  0
 35 29  1  0  0  0  0
 36 35  1  0  0  0  0
 36 37  1  0  0  0  0
 38 39  1  6  0  0  0
 38 36  1  0  0  0  0
 40 39  1  0  0  0  0
 41 38  1  0  0  0  0
 42 45  2  0  0  0  0
 42 46  1  0  0  0  0
 44 43  1  0  0  0  0
 44 41  1  1  0  0  0
 45 50  1  0  0  0  0
 46 51  1  6  0  0  0
 46 49  1  0  0  0  0
 48 43  2  0  0  0  0
 49 47  1  6  0  0  0
 49 44  1  0  0  0  0
 50 48  2  0  0  0  0
 52 51  1  0  0  0  0
 53 52  1  0  0  0  0
 54 53  1  0  0  0  0
M  END
>  <MODEL>
1

>  <REMARK>
 VINA RESULT:      -5.8      0.000      0.000
  Name = 
  24 active torsions:
  status: ('A' for Active; 'I' for Inactive)
    1  A    between atoms: C_3  and  C_34
    2  A    between atoms: C_4  and  C_48
    3  A    between atoms: C_8  and  C_16
    4  A    between atoms: C_8  and  C_48
    5  A    between atoms: C_9  and  C_26
    6  A    between atoms: C_9  and  C_29
    7  A    between atoms: C_9  and  C_53
    8  A    between atoms: C_10  and  O_17
    9  A    between atoms: O_17  and  C_20
   10  A    between atoms: C_18  and  C_27
   11  A    between atoms: C_20  and  C_37
   12  A    between atoms: N_23  and  C_35
   13  A    between atoms: N_23  and  C_48
   14  A    between atoms: C_25  and  C_33
   15  A    between atoms: C_25  and  C_43
   16  A    between atoms: C_26  and  C_38
   17  A    between atoms: C_27  and  C_39
   18  A    between atoms: C_29  and  C_43
   19  A    between atoms: C_29  and  C_46
   20  A    between atoms: C_31  and  C_38
   21  A    between atoms: C_33  and  C_35
   22  A    between atoms: C_33  and  C_47
   23  A    between atoms: C_39  and  O_45
   24  A    between atoms: O_45  and  C_53
                            x       y       z     vdW  Elec       q    Type
                         _______ _______ _______ _____ _____    ______ ____

>  <TORSDO>
F 24

$$$$
=
 OpenBabel11072409583D

 54 56  0  0  1  0  0  0  0  0999 V2000
  161.9580  210.1090  149.7950 C   0  0  0  0  0  2  0  0  0  0  0  0
  161.7940  210.6660  148.4000 C   0  0  0  0  0  2  0  0  0  0  0  0
  161.7600  212.1930  148.3990 C   0  0  1  0  0  3  0  0  0  0  0  0
  163.2480  214.0540  147.6560 C   0  0  0  0  0  1  0  0  0  0  0  0
  162.7070  212.6800  147.3090 C   0  0  0  0  0  2  0  0  0  0  0  0
  160.3240  212.7110  148.1630 C   0  0  1  0  0  3  0  0  0  0  0  0
  160.6910  214.3970  149.7670 O   0  0  0  0  0  0  0  0  0  0  0  0
  159.8750  213.6520  149.2440 C   0  0  0  0  0  0  0  0  0  0  0  0
  158.4240  213.7350  149.6300 C   0  0  0  0  0  2  0  0  0  0  0  0
  157.1780  213.8150  151.6600 O   0  0  0  0  0  0  0  0  0  0  0  0
  159.2590  212.7360  151.7860 N   0  0  0  0  0  2  0  0  0  0  0  0
  160.2500  211.7600  153.6820 N   0  0  0  0  0  2  0  0  0  0  0  0
  158.2250  213.4290  151.0750 C   0  0  0  0  0  0  0  0  0  0  0  0
  159.1900  212.2620  153.1370 C   0  0  0  0  0  0  0  0  0  0  0  0
  157.9040  212.2130  153.8890 C   0  0  0  0  0  1  0  0  0  0  0  0
  159.5330  214.4530  146.7190 O   0  0  0  0  0  0  0  0  0  0  0  0
  160.1230  213.3450  146.8190 C   0  0  0  0  0  0  0  0  0  0  0  0
  160.5520  212.6680  145.6810 O   0  0  0  0  0  0  0  0  0  0  0  0
  160.7550  213.3270  144.4400 C   0  0  0  0  0  2  0  0  0  0  0  0
  161.6210  212.4730  143.5350 C   0  0  0  0  0  2  0  0  0  0  0  0
  162.3530  213.3500  142.5710 C   0  0  0  0  0  0  0  0  0  0  0  0
  160.0650  212.1100  141.2050 O   0  0  0  0  0  0  0  0  0  0  0  0
  163.3280  214.0280  142.9900 O   0  0  0  0  0  0  0  0  0  0  0  0
  162.0230  213.4020  141.1780 N   0  0  0  0  0  2  0  0  0  0  0  0
  160.9180  212.7520  140.5350 C   0  0  0  0  0  0  0  0  0  0  0  0
  160.7320  212.8860  139.0550 C   0  0  0  0  0  3  0  0  0  0  0  0
  159.3760  212.8320  138.7350 O   0  0  0  0  0  1  0  0  0  0  0  0
  161.4080  211.8720  138.3850 O   0  0  0  0  0  1  0  0  0  0  0  0
  161.4640  208.6700  149.8690 C   0  0  2  0  0  3  0  0  0  0  0  0
  161.2300  207.0490  153.3440 C   0  0  0  0  0  2  0  0  0  0  0  0
  160.7560  207.5190  151.9810 C   0  0  1  0  0  3  0  0  0  0  0  0
  162.2670  209.0130  152.2320 C   0  0  0  0  0  2  0  0  0  0  0  0
  161.0930  208.5370  153.0560 C   0  0  2  0  0  3  0  0  0  0  0  0
  161.9390  207.9960  151.1590 C   0  0  2  0  0  3  0  0  0  0  0  0
  162.0010  207.8900  148.6710 C   0  0  0  0  0  2  0  0  0  0  0  0
  160.9170  207.2520  147.9260 N   0  0  0  0  0  0  0  0  0  0  0  0
  160.2450  206.3000  148.8070 C   0  0  0  0  0  1  0  0  0  0  0  0
  161.4680  206.5850  146.7290 C   0  0  2  0  0  3  0  0  0  0  0  0
  160.4500  206.4870  145.5930 C   0  0  0  0  0  2  0  0  0  0  0  0
  161.1100  206.2660  144.3820 O   0  0  0  0  0  1  0  0  0  0  0  0
  162.2130  205.2620  146.9880 C   0  0  0  0  0  2  0  0  0  0  0  0
  161.0760  200.5870  148.0400 C   0  0  0  0  0  3  0  0  0  0  0  0
  161.0640  203.4670  145.6910 C   0  0  0  0  0  3  0  0  0  0  0  0
  161.3090  204.0380  147.0610 C   0  0  1  0  0  3  0  0  0  0  0  0
  160.9970  200.1210  146.7810 C   0  0  0  0  0  3  0  0  0  0  0  0
  160.8180  202.0010  148.5000 C   0  0  2  0  0  3  0  0  0  0  0  0
  163.0630  202.4460  147.6250 F   0  0  0  0  0  0  0  0  0  0  0  0
  160.8650  202.1900  145.5480 C   0  0  0  0  0  0  0  0  0  0  0  0
  161.8810  203.0260  148.0720 C   0  0  1  0  0  3  0  0  0  0  0  0
  160.7190  200.9000  145.5600 C   0  0  0  0  0  3  0  0  0  0  0  0
  160.7000  202.0090  150.0140 C   0  0  0  0  0  2  0  0  0  0  0  0
  160.1400  203.2050  150.4490 O   0  0  0  0  0  0  0  0  0  0  0  0
  160.9120  203.5780  151.5510 C   0  0  0  0  0  2  0  0  0  0  0  0
  161.9000  204.4800  151.1490 O   0  0  0  0  0  1  0  0  0  0  0  0
  1 29  1  0  0  0  0
  2  1  1  0  0  0  0
  3  5  1  6  0  0  0
  3  2  1  0  0  0  0
  5  4  1  0  0  0  0
  6 17  1  6  0  0  0
  6  3  1  0  0  0  0
  6  8  1  0  0  0  0
  8  9  1  0  0  0  0
  8  7  2  0  0  0  0
  9 13  1  0  0  0  0
 11 14  1  0  0  0  0
 13 10  2  0  0  0  0
 13 11  1  0  0  0  0
 14 12  2  0  0  0  0
 14 15  1  0  0  0  0
 16 17  2  0  0  0  0
 18 17  1  0  0  0  0
 19 18  1  0  0  0  0
 20 19  1  0  0  0  0
 21 23  2  0  0  0  0
 21 20  1  0  0  0  0
 24 21  1  0  0  0  0
 25 24  1  0  0  0  0
 25 22  2  0  0  0  0
 26 25  1  0  0  0  0
 27 26  1  0  0  0  0
 28 26  1  0  0  0  0
 29 35  1  6  0  0  0
 31 33  1  0  0  0  0
 31 30  1  1  0  0  0
 33 32  1  6  0  0  0
 33 30  1  0  0  0  0
 34 29  1  6  0  0  0
 34 31  1  0  0  0  0
 34 32  1  0  0  0  0
 36 35  1  0  0  0  0
 36 37  1  0  0  0  0
 38 39  1  6  0  0  0
 38 41  1  0  0  0  0
 38 36  1  0  0  0  0
 40 39  1  0  0  0  0
 42 46  1  0  0  0  0
 43 44  1  0  0  0  0
 44 41  1  6  0  0  0
 44 49  1  0  0  0  0
 45 42  2  0  0  0  0
 46 51  1  1  0  0  0
 48 50  2  0  0  0  0
 48 43  2  0  0  0  0
 49 47  1  6  0  0  0
 49 46  1  0  0  0  0
 50 45  1  0  0  0  0
 51 52  1  0  0  0  0
 52 53  1  0  0  0  0
 54 53  1  0  0  0  0
M  END
>  <MODEL>
2

>  <REMARK>
 VINA RESULT:      -5.7      2.694      4.906
  Name = 
  24 active torsions:
  status: ('A' for Active; 'I' for Inactive)
    1  A    between atoms: C_3  and  C_34
    2  A    between atoms: C_4  and  C_48
    3  A    between atoms: C_8  and  C_16
    4  A    between atoms: C_8  and  C_48
    5  A    between atoms: C_9  and  C_26
    6  A    between atoms: C_9  and  C_29
    7  A    between atoms: C_9  and  C_53
    8  A    between atoms: C_10  and  O_17
    9  A    between atoms: O_17  and  C_20
   10  A    between atoms: C_18  and  C_27
   11  A    between atoms: C_20  and  C_37
   12  A    between atoms: N_23  and  C_35
   13  A    between atoms: N_23  and  C_48
   14  A    between atoms: C_25  and  C_33
   15  A    between atoms: C_25  and  C_43
   16  A    between atoms: C_26  and  C_38
   17  A    between atoms: C_27  and  C_39
   18  A    between atoms: C_29  and  C_43
   19  A    between atoms: C_29  and  C_46
   20  A    between atoms: C_31  and  C_38
   21  A    between atoms: C_33  and  C_35
   22  A    between atoms: C_33  and  C_47
   23  A    between atoms: C_39  and  O_45
   24  A    between atoms: O_45  and  C_53
                            x       y       z     vdW  Elec       q    Type
                         _______ _______ _______ _____ _____    ______ ____

>  <TORSDO>
F 24

$$$$
=
 OpenBabel11072409583D

 54 56  0  0  1  0  0  0  0  0999 V2000
  161.3560  208.3350  152.8510 C   0  0  0  0  0  2  0  0  0  0  0  0
  160.1440  209.2380  152.8750 C   0  0  0  0  0  2  0  0  0  0  0  0
  160.4640  210.5990  153.4900 C   0  0  1  0  0  3  0  0  0  0  0  0
  161.4970  210.5740  151.2180 C   0  0  0  0  0  1  0  0  0  0  0  0
  161.3420  211.3610  152.5060 C   0  0  0  0  0  2  0  0  0  0  0  0
  159.1680  211.3790  153.8010 C   0  0  1  0  0  3  0  0  0  0  0  0
  159.1350  210.8460  156.0950 O   0  0  0  0  0  0  0  0  0  0  0  0
  158.4970  210.8920  155.0540 C   0  0  0  0  0  0  0  0  0  0  0  0
  157.0370  210.5360  155.0490 C   0  0  0  0  0  2  0  0  0  0  0  0
  155.8570  211.8610  156.6400 O   0  0  0  0  0  0  0  0  0  0  0  0
  155.7270  212.5890  154.4130 N   0  0  0  0  0  2  0  0  0  0  0  0
  154.5490  214.4490  153.5840 N   0  0  0  0  0  2  0  0  0  0  0  0
  156.1880  211.6990  155.4360 C   0  0  0  0  0  0  0  0  0  0  0  0
  155.0040  213.8110  154.6130 C   0  0  0  0  0  0  0  0  0  0  0  0
  154.8730  214.4360  155.9610 C   0  0  0  0  0  1  0  0  0  0  0  0
  159.7980  213.4040  154.9190 O   0  0  0  0  0  0  0  0  0  0  0  0
  159.3580  212.8650  153.8690 C   0  0  0  0  0  0  0  0  0  0  0  0
  158.9940  213.6450  152.7750 O   0  0  0  0  0  0  0  0  0  0  0  0
  157.9360  213.2770  151.9020 C   0  0  0  0  0  2  0  0  0  0  0  0
  158.3530  213.4980  150.4610 C   0  0  0  0  0  2  0  0  0  0  0  0
  157.1640  213.9180  149.6560 C   0  0  0  0  0  0  0  0  0  0  0  0
  159.4290  213.4210  147.8500 O   0  0  0  0  0  0  0  0  0  0  0  0
  156.0700  214.1080  150.2490 O   0  0  0  0  0  0  0  0  0  0  0  0
  157.2410  214.1670  148.2480 N   0  0  0  0  0  2  0  0  0  0  0  0
  158.3770  213.9490  147.4000 C   0  0  0  0  0  0  0  0  0  0  0  0
  158.2990  214.2940  145.9450 C   0  0  0  0  0  3  0  0  0  0  0  0
  156.9680  214.4480  145.5600 O   0  0  0  0  0  1  0  0  0  0  0  0
  158.8930  213.3000  145.1750 O   0  0  0  0  0  1  0  0  0  0  0  0
  160.9950  206.9260  153.3030 C   0  0  2  0  0  3  0  0  0  0  0  0
  159.9390  206.8430  156.9940 C   0  0  0  0  0  2  0  0  0  0  0  0
  159.7760  206.7690  155.4870 C   0  0  1  0  0  3  0  0  0  0  0  0
  161.4380  208.1160  155.4780 C   0  0  0  0  0  2  0  0  0  0  0  0
  160.0840  208.1000  156.1490 C   0  0  2  0  0  3  0  0  0  0  0  0
  161.1400  206.7850  154.8200 C   0  0  2  0  0  3  0  0  0  0  0  0
  161.9230  205.9240  152.6180 C   0  0  0  0  0  2  0  0  0  0  0  0
  161.2970  205.3520  151.4270 N   0  0  0  0  0  0  0  0  0  0  0  0
  161.6910  203.9480  151.3240 C   0  0  0  0  0  1  0  0  0  0  0  0
  161.7130  206.1180  150.2350 C   0  0  2  0  0  3  0  0  0  0  0  0
  162.6930  207.2410  150.5740 C   0  0  0  0  0  2  0  0  0  0  0  0
  163.0470  207.9290  149.4110 O   0  0  0  0  0  1  0  0  0  0  0  0
  160.5730  206.5730  149.3040 C   0  0  0  0  0  2  0  0  0  0  0  0
  161.8660  203.4490  145.7230 C   0  0  0  0  0  3  0  0  0  0  0  0
  160.0060  206.4520  146.8780 C   0  0  0  0  0  3  0  0  0  0  0  0
  160.3340  205.6550  148.1110 C   0  0  1  0  0  3  0  0  0  0  0  0
  161.6660  204.2660  144.6750 C   0  0  0  0  0  3  0  0  0  0  0  0
  161.1590  203.4960  147.0560 C   0  0  2  0  0  3  0  0  0  0  0  0
  162.6800  205.3570  147.5320 F   0  0  0  0  0  0  0  0  0  0  0  0
  160.3420  205.9980  145.7060 C   0  0  0  0  0  0  0  0  0  0  0  0
  161.5270  204.6970  147.9430 C   0  0  1  0  0  3  0  0  0  0  0  0
  160.7710  205.4360  144.6170 C   0  0  0  0  0  3  0  0  0  0  0  0
  161.4530  202.2110  147.8110 C   0  0  0  0  0  2  0  0  0  0  0  0
  160.3030  201.4350  147.9100 O   0  0  0  0  0  0  0  0  0  0  0  0
  160.2040  201.1200  149.2660 C   0  0  0  0  0  2  0  0  0  0  0  0
  158.8600  201.0880  149.6440 O   0  0  0  0  0  1  0  0  0  0  0  0
  1  2  1  0  0  0  0
  1 29  1  0  0  0  0
  2  3  1  0  0  0  0
  3  5  1  6  0  0  0
  3  6  1  0  0  0  0
  4  5  1  0  0  0  0
  6 17  1  1  0  0  0
  6  8  1  0  0  0  0
  8  7  2  0  0  0  0
  9  8  1  0  0  0  0
  9 13  1  0  0  0  0
 11 14  1  0  0  0  0
 11 13  1  0  0  0  0
 12 14  2  0  0  0  0
 13 10  2  0  0  0  0
 14 15  1  0  0  0  0
 17 16  2  0  0  0  0
 18 17  1  0  0  0  0
 19 18  1  0  0  0  0
 20 19  1  0  0  0  0
 21 23  2  0  0  0  0
 21 20  1  0  0  0  0
 24 21  1  0  0  0  0
 25 22  2  0  0  0  0
 25 24  1  0  0  0  0
 26 25  1  0  0  0  0
 27 26  1  0  0  0  0
 28 26  1  0  0  0  0
 29 35  1  6  0  0  0
 31 33  1  0  0  0  0
 31 30  1  1  0  0  0
 33 32  1  6  0  0  0
 33 30  1  0  0  0  0
 34 29  1  6  0  0  0
 34 32  1  0  0  0  0
 34 31  1  0  0  0  0
 36 35  1  0  0  0  0
 37 36  1  0  0  0  0
 38 41  1  1  0  0  0
 38 39  1  0  0  0  0
 38 36  1  0  0  0  0
 40 39  1  0  0  0  0
 42 46  1  0  0  0  0
 43 44  1  0  0  0  0
 44 41  1  1  0  0  0
 45 42  2  0  0  0  0
 46 51  1  1  0  0  0
 46 49  1  0  0  0  0
 48 43  2  0  0  0  0
 49 47  1  6  0  0  0
 49 44  1  0  0  0  0
 50 45  1  0  0  0  0
 50 48  2  0  0  0  0
 51 52  1  0  0  0  0
 52 53  1  0  0  0  0
 53 54  1  0  0  0  0
M  END
>  <MODEL>
3

>  <REMARK>
 VINA RESULT:      -5.2      2.171      3.757
  Name = 
  24 active torsions:
  status: ('A' for Active; 'I' for Inactive)
    1  A    between atoms: C_3  and  C_34
    2  A    between atoms: C_4  and  C_48
    3  A    between atoms: C_8  and  C_16
    4  A    between atoms: C_8  and  C_48
    5  A    between atoms: C_9  and  C_26
    6  A    between atoms: C_9  and  C_29
    7  A    between atoms: C_9  and  C_53
    8  A    between atoms: C_10  and  O_17
    9  A    between atoms: O_17  and  C_20
   10  A    between atoms: C_18  and  C_27
   11  A    between atoms: C_20  and  C_37
   12  A    between atoms: N_23  and  C_35
   13  A    between atoms: N_23  and  C_48
   14  A    between atoms: C_25  and  C_33
   15  A    between atoms: C_25  and  C_43
   16  A    between atoms: C_26  and  C_38
   17  A    between atoms: C_27  and  C_39
   18  A    between atoms: C_29  and  C_43
   19  A    between atoms: C_29  and  C_46
   20  A    between atoms: C_31  and  C_38
   21  A    between atoms: C_33  and  C_35
   22  A    between atoms: C_33  and  C_47
   23  A    between atoms: C_39  and  O_45
   24  A    between atoms: O_45  and  C_53
                            x       y       z     vdW  Elec       q    Type
                         _______ _______ _______ _____ _____    ______ ____

>  <TORSDO>
F 24

$$$$
=
 OpenBabel11072409583D

 54 56  0  0  1  0  0  0  0  0999 V2000
  160.4450  206.3580  149.5150 C   0  0  0  0  0  2  0  0  0  0  0  0
  160.8660  205.6990  148.2220 C   0  0  0  0  0  2  0  0  0  0  0  0
  161.4690  206.7030  147.2430 C   0  0  1  0  0  3  0  0  0  0  0  0
  162.2040  208.8330  148.3180 C   0  0  0  0  0  1  0  0  0  0  0  0
  162.6120  207.4180  147.9530 C   0  0  0  0  0  2  0  0  0  0  0  0
  161.9630  205.9950  145.9620 C   0  0  1  0  0  3  0  0  0  0  0  0
  163.6020  204.3130  145.7800 O   0  0  0  0  0  0  0  0  0  0  0  0
  162.5170  204.6280  146.2460 C   0  0  0  0  0  0  0  0  0  0  0  0
  161.7840  203.6800  147.1530 C   0  0  0  0  0  2  0  0  0  0  0  0
  160.1260  202.9390  145.6100 O   0  0  0  0  0  0  0  0  0  0  0  0
  161.4510  201.2550  146.5660 N   0  0  0  0  0  2  0  0  0  0  0  0
  161.3040  198.9370  146.1930 N   0  0  0  0  0  2  0  0  0  0  0  0
  161.0710  202.6240  146.3800 C   0  0  0  0  0  0  0  0  0  0  0  0
  160.9570  200.1290  145.8300 C   0  0  0  0  0  0  0  0  0  0  0  0
  160.1610  200.2940  144.5790 C   0  0  0  0  0  1  0  0  0  0  0  0
  159.7350  206.2420  145.1120 O   0  0  0  0  0  0  0  0  0  0  0  0
  160.9280  205.9120  144.8800 C   0  0  0  0  0  0  0  0  0  0  0  0
  161.2930  205.4170  143.6310 O   0  0  0  0  0  0  0  0  0  0  0  0
  162.1910  206.1090  142.7760 C   0  0  0  0  0  2  0  0  0  0  0  0
  161.4530  206.6200  141.5540 C   0  0  0  0  0  2  0  0  0  0  0  0
  162.4150  206.7830  140.4210 C   0  0  0  0  0  0  0  0  0  0  0  0
  161.0150  209.3270  140.8740 O   0  0  0  0  0  0  0  0  0  0  0  0
  163.1640  205.8160  140.1210 O   0  0  0  0  0  0  0  0  0  0  0  0
  162.4730  207.9750  139.6300 N   0  0  0  0  0  2  0  0  0  0  0  0
  161.7460  209.1900  139.8570 C   0  0  0  0  0  0  0  0  0  0  0  0
  161.9000  210.3400  138.9100 C   0  0  0  0  0  3  0  0  0  0  0  0
  161.7780  209.8970  137.5940 O   0  0  0  0  0  1  0  0  0  0  0  0
  163.1380  210.9500  139.0810 O   0  0  0  0  0  1  0  0  0  0  0  0
  161.3520  205.9350  150.6630 C   0  0  2  0  0  3  0  0  0  0  0  0
  160.7750  202.1380  150.6990 C   0  0  0  0  0  2  0  0  0  0  0  0
  160.4220  203.6090  150.5760 C   0  0  1  0  0  3  0  0  0  0  0  0
  162.0650  203.8730  151.9220 C   0  0  0  0  0  2  0  0  0  0  0  0
  160.8070  203.0340  151.9280 C   0  0  2  0  0  3  0  0  0  0  0  0
  161.6890  204.4450  150.5710 C   0  0  2  0  0  3  0  0  0  0  0  0
  160.6460  206.2070  151.9900 C   0  0  0  0  0  2  0  0  0  0  0  0
  161.4900  206.9960  152.8860 N   0  0  0  0  0  0  0  0  0  0  0  0
  161.2200  206.5820  154.2620 C   0  0  0  0  0  1  0  0  0  0  0  0
  161.2100  208.4320  152.6890 C   0  0  2  0  0  3  0  0  0  0  0  0
  162.0720  209.0510  151.5890 C   0  0  0  0  0  2  0  0  0  0  0  0
  162.6490  210.2370  152.0480 O   0  0  0  0  0  1  0  0  0  0  0  0
  161.1650  209.2850  153.9710 C   0  0  0  0  0  2  0  0  0  0  0  0
  158.3750  213.2920  154.6110 C   0  0  0  0  0  3  0  0  0  0  0  0
  159.3090  209.8200  155.5490 C   0  0  0  0  0  3  0  0  0  0  0  0
  159.8630  210.0500  154.1700 C   0  0  1  0  0  3  0  0  0  0  0  0
  158.0220  213.0780  155.8900 C   0  0  0  0  0  3  0  0  0  0  0  0
  158.7260  212.2460  153.5810 C   0  0  2  0  0  3  0  0  0  0  0  0
  160.8910  212.1850  154.7270 F   0  0  0  0  0  0  0  0  0  0  0  0
  158.6150  210.7530  156.1320 C   0  0  0  0  0  0  0  0  0  0  0  0
  160.0690  211.5340  153.8140 C   0  0  1  0  0  3  0  0  0  0  0  0
  157.9770  211.7840  156.5960 C   0  0  0  0  0  3  0  0  0  0  0  0
  158.7390  212.8950  152.2080 C   0  0  0  0  0  2  0  0  0  0  0  0
  159.9190  212.5910  151.5400 O   0  0  0  0  0  0  0  0  0  0  0  0
  159.9520  213.4720  150.4580 C   0  0  0  0  0  2  0  0  0  0  0  0
  160.8650  213.0140  149.5050 O   0  0  0  0  0  1  0  0  0  0  0  0
  2  1  1  0  0  0  0
  3  5  1  1  0  0  0
  3  2  1  0  0  0  0
  5  4  1  0  0  0  0
  6 17  1  6  0  0  0
  6  8  1  0  0  0  0
  6  3  1  0  0  0  0
  7  8  2  0  0  0  0
  8  9  1  0  0  0  0
 10 13  2  0  0  0  0
 13 11  1  0  0  0  0
 13  9  1  0  0  0  0
 14 12  2  0  0  0  0
 14 11  1  0  0  0  0
 15 14  1  0  0  0  0
 17 16  2  0  0  0  0
 18 17  1  0  0  0  0
 19 18  1  0  0  0  0
 20 19  1  0  0  0  0
 21 20  1  0  0  0  0
 23 21  2  0  0  0  0
 24 25  1  0  0  0  0
 24 21  1  0  0  0  0
 25 22  2  0  0  0  0
 26 28  1  0  0  0  0
 26 25  1  0  0  0  0
 27 26  1  0  0  0  0
 29  1  1  6  0  0  0
 29 35  1  0  0  0  0
 31 30  1  6  0  0  0
 31 33  1  0  0  0  0
 32 33  1  0  0  0  0
 33 30  1  6  0  0  0
 34 31  1  0  0  0  0
 34 29  1  1  0  0  0
 34 32  1  0  0  0  0
 35 36  1  0  0  0  0
 36 37  1  0  0  0  0
 38 39  1  6  0  0  0
 38 36  1  0  0  0  0
 38 41  1  0  0  0  0
 39 40  1  0  0  0  0
 42 45  2  0  0  0  0
 43 48  2  0  0  0  0
 44 41  1  1  0  0  0
 44 43  1  0  0  0  0
 45 50  1  0  0  0  0
 46 51  1  6  0  0  0
 46 49  1  0  0  0  0
 46 42  1  0  0  0  0
 48 50  2  0  0  0  0
 49 44  1  0  0  0  0
 49 47  1  1  0  0  0
 52 51  1  0  0  0  0
 53 52  1  0  0  0  0
 54 53  1  0  0  0  0
M  END
>  <MODEL>
4

>  <REMARK>
 VINA RESULT:      -5.0      3.683      9.782
  Name = 
  24 active torsions:
  status: ('A' for Active; 'I' for Inactive)
    1  A    between atoms: C_3  and  C_34
    2  A    between atoms: C_4  and  C_48
    3  A    between atoms: C_8  and  C_16
    4  A    between atoms: C_8  and  C_48
    5  A    between atoms: C_9  and  C_26
    6  A    between atoms: C_9  and  C_29
    7  A    between atoms: C_9  and  C_53
    8  A    between atoms: C_10  and  O_17
    9  A    between atoms: O_17  and  C_20
   10  A    between atoms: C_18  and  C_27
   11  A    between atoms: C_20  and  C_37
   12  A    between atoms: N_23  and  C_35
   13  A    between atoms: N_23  and  C_48
   14  A    between atoms: C_25  and  C_33
   15  A    between atoms: C_25  and  C_43
   16  A    between atoms: C_26  and  C_38
   17  A    between atoms: C_27  and  C_39
   18  A    between atoms: C_29  and  C_43
   19  A    between atoms: C_29  and  C_46
   20  A    between atoms: C_31  and  C_38
   21  A    between atoms: C_33  and  C_35
   22  A    between atoms: C_33  and  C_47
   23  A    between atoms: C_39  and  O_45
   24  A    between atoms: O_45  and  C_53
                            x       y       z     vdW  Elec       q    Type
                         _______ _______ _______ _____ _____    ______ ____

>  <TORSDO>
F 24

$$$$
=
 OpenBabel11072409583D

 54 56  0  0  1  0  0  0  0  0999 V2000
  161.0740  205.0140  148.4470 C   0  0  0  0  0  2  0  0  0  0  0  0
  160.8720  205.7610  147.1500 C   0  0  0  0  0  2  0  0  0  0  0  0
  162.0920  205.6520  146.2370 C   0  0  1  0  0  3  0  0  0  0  0  0
  163.9110  203.9590  145.9970 C   0  0  0  0  0  1  0  0  0  0  0  0
  163.1530  204.8420  146.9710 C   0  0  0  0  0  2  0  0  0  0  0  0
  161.7150  204.9920  144.8930 C   0  0  1  0  0  3  0  0  0  0  0  0
  159.4500  205.5810  145.1580 O   0  0  0  0  0  0  0  0  0  0  0  0
  160.2410  204.7280  144.7810 C   0  0  0  0  0  0  0  0  0  0  0  0
  159.7380  203.4630  144.1450 C   0  0  0  0  0  2  0  0  0  0  0  0
  159.9250  201.1110  144.4830 O   0  0  0  0  0  0  0  0  0  0  0  0
  160.5450  202.4540  146.3050 N   0  0  0  0  0  2  0  0  0  0  0  0
  161.2960  201.7390  148.4160 N   0  0  0  0  0  2  0  0  0  0  0  0
  160.0810  202.2650  144.9630 C   0  0  0  0  0  0  0  0  0  0  0  0
  161.0250  201.4330  147.1900 C   0  0  0  0  0  0  0  0  0  0  0  0
  161.3440  200.0590  146.7050 C   0  0  0  0  0  1  0  0  0  0  0  0
  163.2900  206.3660  143.7180 O   0  0  0  0  0  0  0  0  0  0  0  0
  162.1900  205.7540  143.6910 C   0  0  0  0  0  0  0  0  0  0  0  0
  161.3740  205.8180  142.5650 O   0  0  0  0  0  0  0  0  0  0  0  0
  161.8990  206.0100  141.2600 C   0  0  0  0  0  2  0  0  0  0  0  0
  161.7430  207.4610  140.8480 C   0  0  0  0  0  2  0  0  0  0  0  0
  161.8440  207.5710  139.3600 C   0  0  0  0  0  0  0  0  0  0  0  0
  161.4330  210.2480  140.5010 O   0  0  0  0  0  0  0  0  0  0  0  0
  162.0940  206.5330  138.6930 O   0  0  0  0  0  0  0  0  0  0  0  0
  161.6090  208.8000  138.6640 N   0  0  0  0  0  2  0  0  0  0  0  0
  161.3730  210.0860  139.2540 C   0  0  0  0  0  0  0  0  0  0  0  0
  161.1140  211.2730  138.3760 C   0  0  0  0  0  3  0  0  0  0  0  0
  161.5170  212.4420  139.0200 O   0  0  0  0  0  1  0  0  0  0  0  0
  159.7630  211.3590  138.0590 O   0  0  0  0  0  1  0  0  0  0  0  0
  161.3740  205.9760  149.5900 C   0  0  2  0  0  3  0  0  0  0  0  0
  161.0970  204.4590  153.1070 C   0  0  0  0  0  2  0  0  0  0  0  0
  161.7620  205.1190  151.9130 C   0  0  1  0  0  3  0  0  0  0  0  0
  160.2750  204.0590  150.7980 C   0  0  0  0  0  2  0  0  0  0  0  0
  161.3140  203.6700  151.8250 C   0  0  2  0  0  3  0  0  0  0  0  0
  160.7120  205.5060  150.8870 C   0  0  2  0  0  3  0  0  0  0  0  0
  160.8450  207.3630  149.2330 C   0  0  0  0  0  2  0  0  0  0  0  0
  161.9340  208.3310  149.1160 N   0  0  0  0  0  0  0  0  0  0  0  0
  163.1960  207.6460  149.3880 C   0  0  0  0  0  1  0  0  0  0  0  0
  161.7080  209.4430  150.0620 C   0  0  2  0  0  3  0  0  0  0  0  0
  162.2090  210.7820  149.5200 C   0  0  0  0  0  2  0  0  0  0  0  0
  161.7880  210.9460  148.1980 O   0  0  0  0  0  1  0  0  0  0  0  0
  162.1430  209.1800  151.5160 C   0  0  0  0  0  2  0  0  0  0  0  0
  159.7860  210.7910  155.5290 C   0  0  0  0  0  3  0  0  0  0  0  0
  161.0020  208.0020  153.3950 C   0  0  0  0  0  3  0  0  0  0  0  0
  161.0060  209.2320  152.5290 C   0  0  1  0  0  3  0  0  0  0  0  0
  159.9310  209.6930  156.2900 C   0  0  0  0  0  3  0  0  0  0  0  0
  159.7330  210.8470  154.0210 C   0  0  2  0  0  3  0  0  0  0  0  0
  162.1680  210.6150  154.1610 F   0  0  0  0  0  0  0  0  0  0  0  0
  160.5720  208.0750  154.6200 C   0  0  0  0  0  0  0  0  0  0  0  0
  161.0670  210.5550  153.3140 C   0  0  1  0  0  3  0  0  0  0  0  0
  160.1510  208.3110  155.8260 C   0  0  0  0  0  3  0  0  0  0  0  0
  159.2370  212.2200  153.6000 C   0  0  0  0  0  2  0  0  0  0  0  0
  159.7680  212.5670  152.3630 O   0  0  0  0  0  0  0  0  0  0  0  0
  158.7100  213.1690  151.6790 C   0  0  0  0  0  2  0  0  0  0  0  0
  157.7110  213.5330  152.5850 O   0  0  0  0  0  1  0  0  0  0  0  0
  2  1  1  0  0  0  0
  3  5  1  1  0  0  0
  3  2  1  0  0  0  0
  4  5  1  0  0  0  0
  6 17  1  6  0  0  0
  6  3  1  0  0  0  0
  8  6  1  0  0  0  0
  8  7  2  0  0  0  0
  9  8  1  0  0  0  0
  9 13  1  0  0  0  0
 10 13  2  0  0  0  0
 11 14  1  0  0  0  0
 13 11  1  0  0  0  0
 14 12  2  0  0  0  0
 15 14  1  0  0  0  0
 17 16  2  0  0  0  0
 18 17  1  0  0  0  0
 19 18  1  0  0  0  0
 20 19  1  0  0  0  0
 21 20  1  0  0  0  0
 23 21  2  0  0  0  0
 24 25  1  0  0  0  0
 24 21  1  0  0  0  0
 25 22  2  0  0  0  0
 26 27  1  0  0  0  0
 26 25  1  0  0  0  0
 28 26  1  0  0  0  0
 29  1  1  6  0  0  0
 31 30  1  1  0  0  0
 32 34  1  0  0  0  0
 33 32  1  6  0  0  0
 33 31  1  0  0  0  0
 33 30  1  0  0  0  0
 34 29  1  6  0  0  0
 34 31  1  0  0  0  0
 35 29  1  0  0  0  0
 36 35  1  0  0  0  0
 36 37  1  0  0  0  0
 36 38  1  0  0  0  0
 38 39  1  6  0  0  0
 38 41  1  0  0  0  0
 40 39  1  0  0  0  0
 42 45  2  0  0  0  0
 43 48  2  0  0  0  0
 44 41  1  6  0  0  0
 44 49  1  0  0  0  0
 44 43  1  0  0  0  0
 46 51  1  1  0  0  0
 46 42  1  0  0  0  0
 48 50  2  0  0  0  0
 49 46  1  0  0  0  0
 49 47  1  1  0  0  0
 50 45  1  0  0  0  0
 52 51  1  0  0  0  0
 53 52  1  0  0  0  0
 53 54  1  0  0  0  0
M  END
>  <MODEL>
5

>  <REMARK>
 VINA RESULT:      -4.9      3.806      9.631
  Name = 
  24 active torsions:
  status: ('A' for Active; 'I' for Inactive)
    1  A    between atoms: C_3  and  C_34
    2  A    between atoms: C_4  and  C_48
    3  A    between atoms: C_8  and  C_16
    4  A    between atoms: C_8  and  C_48
    5  A    between atoms: C_9  and  C_26
    6  A    between atoms: C_9  and  C_29
    7  A    between atoms: C_9  and  C_53
    8  A    between atoms: C_10  and  O_17
    9  A    between atoms: O_17  and  C_20
   10  A    between atoms: C_18  and  C_27
   11  A    between atoms: C_20  and  C_37
   12  A    between atoms: N_23  and  C_35
   13  A    between atoms: N_23  and  C_48
   14  A    between atoms: C_25  and  C_33
   15  A    between atoms: C_25  and  C_43
   16  A    between atoms: C_26  and  C_38
   17  A    between atoms: C_27  and  C_39
   18  A    between atoms: C_29  and  C_43
   19  A    between atoms: C_29  and  C_46
   20  A    between atoms: C_31  and  C_38
   21  A    between atoms: C_33  and  C_35
   22  A    between atoms: C_33  and  C_47
   23  A    between atoms: C_39  and  O_45
   24  A    between atoms: O_45  and  C_53
                            x       y       z     vdW  Elec       q    Type
                         _______ _______ _______ _____ _____    ______ ____

>  <TORSDO>
F 24

$$$$
=
 OpenBabel11072409583D

 54 56  0  0  1  0  0  0  0  0999 V2000
  162.2460  209.0220  150.9150 C   0  0  0  0  0  2  0  0  0  0  0  0
  161.6250  210.3790  150.6730 C   0  0  0  0  0  2  0  0  0  0  0  0
  160.4570  210.6450  151.6190 C   0  0  1  0  0  3  0  0  0  0  0  0
  162.1950  210.5650  153.4090 C   0  0  0  0  0  1  0  0  0  0  0  0
  160.8230  210.0760  152.9850 C   0  0  0  0  0  2  0  0  0  0  0  0
  160.1530  212.1560  151.7070 C   0  0  1  0  0  3  0  0  0  0  0  0
  161.3560  213.1920  149.9670 O   0  0  0  0  0  0  0  0  0  0  0  0
  160.2590  212.8360  150.3720 C   0  0  0  0  0  0  0  0  0  0  0  0
  159.0440  213.0130  149.5060 C   0  0  0  0  0  2  0  0  0  0  0  0
  158.4770  212.6270  147.2220 O   0  0  0  0  0  0  0  0  0  0  0  0
  160.7470  213.0450  147.6520 N   0  0  0  0  0  2  0  0  0  0  0  0
  162.5090  213.0960  146.0950 N   0  0  0  0  0  2  0  0  0  0  0  0
  159.3810  212.8950  148.0580 C   0  0  0  0  0  0  0  0  0  0  0  0
  161.2330  213.0760  146.3040 C   0  0  0  0  0  0  0  0  0  0  0  0
  160.3130  213.2160  145.1380 C   0  0  0  0  0  1  0  0  0  0  0  0
  158.1290  213.4260  151.9040 O   0  0  0  0  0  0  0  0  0  0  0  0
  158.8290  212.4720  152.3360 C   0  0  0  0  0  0  0  0  0  0  0  0
  158.4070  211.7290  153.4340 O   0  0  0  0  0  0  0  0  0  0  0  0
  157.6230  212.2930  154.4740 C   0  0  0  0  0  2  0  0  0  0  0  0
  158.1740  211.8790  155.8240 C   0  0  0  0  0  2  0  0  0  0  0  0
  159.5770  212.3770  155.9650 C   0  0  0  0  0  0  0  0  0  0  0  0
  159.5400  209.4650  156.3690 O   0  0  0  0  0  0  0  0  0  0  0  0
  159.8090  213.5960  155.7540 O   0  0  0  0  0  0  0  0  0  0  0  0
  160.6530  211.5300  156.3870 N   0  0  0  0  0  2  0  0  0  0  0  0
  160.5910  210.1150  156.6120 C   0  0  0  0  0  0  0  0  0  0  0  0
  161.8090  209.3820  157.0840 C   0  0  0  0  0  3  0  0  0  0  0  0
  162.9330  210.2010  156.9790 O   0  0  0  0  0  1  0  0  0  0  0  0
  162.0050  208.2270  156.3340 O   0  0  0  0  0  1  0  0  0  0  0  0
  161.4170  207.9200  150.2680 C   0  0  2  0  0  3  0  0  0  0  0  0
  160.9850  205.8900  153.5000 C   0  0  0  0  0  2  0  0  0  0  0  0
  160.8510  207.0730  152.5580 C   0  0  1  0  0  3  0  0  0  0  0  0
  162.6970  206.3440  151.7590 C   0  0  0  0  0  2  0  0  0  0  0  0
  162.2090  206.7200  153.1390 C   0  0  2  0  0  3  0  0  0  0  0  0
  161.3430  206.6890  151.1750 C   0  0  2  0  0  3  0  0  0  0  0  0
  162.0550  207.5240  148.9380 C   0  0  0  0  0  2  0  0  0  0  0  0
  161.0830  206.8820  148.0550 N   0  0  0  0  0  0  0  0  0  0  0  0
  159.9370  206.4580  148.8560 C   0  0  0  0  0  1  0  0  0  0  0  0
  161.7180  205.7380  147.3710 C   0  0  2  0  0  3  0  0  0  0  0  0
  163.1420  206.0500  146.9100 C   0  0  0  0  0  2  0  0  0  0  0  0
  163.4740  205.2460  145.8160 O   0  0  0  0  0  1  0  0  0  0  0  0
  160.8680  205.0560  146.2830 C   0  0  0  0  0  2  0  0  0  0  0  0
  161.3130  200.6010  148.3330 C   0  0  0  0  0  3  0  0  0  0  0  0
  160.4850  202.7490  145.4160 C   0  0  0  0  0  3  0  0  0  0  0  0
  160.4290  203.6390  146.6270 C   0  0  1  0  0  3  0  0  0  0  0  0
  161.4810  199.8870  147.2070 C   0  0  0  0  0  3  0  0  0  0  0  0
  160.5600  201.9010  148.4770 C   0  0  2  0  0  3  0  0  0  0  0  0
  162.5750  202.9030  147.5090 F   0  0  0  0  0  0  0  0  0  0  0  0
  160.7400  201.4810  145.5550 C   0  0  0  0  0  0  0  0  0  0  0  0
  161.2400  203.1190  147.8290 C   0  0  1  0  0  3  0  0  0  0  0  0
  161.0390  200.2520  145.8480 C   0  0  0  0  0  3  0  0  0  0  0  0
  160.3450  202.1800  149.9550 C   0  0  0  0  0  2  0  0  0  0  0  0
  160.9170  203.3970  150.3050 O   0  0  0  0  0  0  0  0  0  0  0  0
  161.5540  203.1520  151.5240 C   0  0  0  0  0  2  0  0  0  0  0  0
  161.6850  201.7750  151.7170 O   0  0  0  0  0  1  0  0  0  0  0  0
  2  1  1  0  0  0  0
  3  2  1  6  0  0  0
  3  6  1  0  0  0  0
  3  5  1  0  0  0  0
  5  4  1  0  0  0  0
  6  8  1  6  0  0  0
  6 17  1  0  0  0  0
  7  8  2  0  0  0  0
  9  8  1  0  0  0  0
 10 13  2  0  0  0  0
 11 13  1  0  0  0  0
 12 14  2  0  0  0  0
 13  9  1  0  0  0  0
 14 11  1  0  0  0  0
 15 14  1  0  0  0  0
 16 17  2  0  0  0  0
 17 18  1  0  0  0  0
 18 19  1  0  0  0  0
 19 20  1  0  0  0  0
 20 21  1  0  0  0  0
 21 24  1  0  0  0  0
 22 25  2  0  0  0  0
 23 21  2  0  0  0  0
 24 25  1  0  0  0  0
 25 26  1  0  0  0  0
 27 26  1  0  0  0  0
 28 26  1  0  0  0  0
 29 35  1  6  0  0  0
 29  1  1  0  0  0  0
 31 33  1  0  0  0  0
 31 30  1  1  0  0  0
 33 32  1  6  0  0  0
 33 30  1  0  0  0  0
 34 29  1  6  0  0  0
 34 32  1  0  0  0  0
 34 31  1  0  0  0  0
 36 37  1  0  0  0  0
 36 35  1  0  0  0  0
 38 41  1  6  0  0  0
 38 36  1  0  0  0  0
 39 38  1  0  0  0  0
 40 39  1  0  0  0  0
 42 46  1  0  0  0  0
 43 48  2  0  0  0  0
 43 44  1  0  0  0  0
 44 41  1  6  0  0  0
 44 49  1  0  0  0  0
 45 42  2  0  0  0  0
 46 51  1  1  0  0  0
 48 50  2  0  0  0  0
 49 47  1  6  0  0  0
 49 46  1  0  0  0  0
 50 45  1  0  0  0  0
 51 52  1  0  0  0  0
 52 53  1  0  0  0  0
 53 54  1  0  0  0  0
M  END
>  <MODEL>
6

>  <REMARK>
 VINA RESULT:      -4.2      2.607      7.186
  Name = 
  24 active torsions:
  status: ('A' for Active; 'I' for Inactive)
    1  A    between atoms: C_3  and  C_34
    2  A    between atoms: C_4  and  C_48
    3  A    between atoms: C_8  and  C_16
    4  A    between atoms: C_8  and  C_48
    5  A    between atoms: C_9  and  C_26
    6  A    between atoms: C_9  and  C_29
    7  A    between atoms: C_9  and  C_53
    8  A    between atoms: C_10  and  O_17
    9  A    between atoms: O_17  and  C_20
   10  A    between atoms: C_18  and  C_27
   11  A    between atoms: C_20  and  C_37
   12  A    between atoms: N_23  and  C_35
   13  A    between atoms: N_23  and  C_48
   14  A    between atoms: C_25  and  C_33
   15  A    between atoms: C_25  and  C_43
   16  A    between atoms: C_26  and  C_38
   17  A    between atoms: C_27  and  C_39
   18  A    between atoms: C_29  and  C_43
   19  A    between atoms: C_29  and  C_46
   20  A    between atoms: C_31  and  C_38
   21  A    between atoms: C_33  and  C_35
   22  A    between atoms: C_33  and  C_47
   23  A    between atoms: C_39  and  O_45
   24  A    between atoms: O_45  and  C_53
                            x       y       z     vdW  Elec       q    Type
                         _______ _______ _______ _____ _____    ______ ____

>  <TORSDO>
F 24

$$$$
=
 OpenBabel11072409583D

 54 56  0  0  1  0  0  0  0  0999 V2000
  161.7200  207.3440  152.7050 C   0  0  0  0  0  2  0  0  0  0  0  0
  160.8370  206.1830  152.3110 C   0  0  0  0  0  2  0  0  0  0  0  0
  161.5860  205.1680  151.4500 C   0  0  1  0  0  3  0  0  0  0  0  0
  160.4840  203.0910  152.2870 C   0  0  0  0  0  1  0  0  0  0  0  0
  161.7670  203.8990  152.2750 C   0  0  0  0  0  2  0  0  0  0  0  0
  160.8150  204.8800  150.1430 C   0  0  1  0  0  3  0  0  0  0  0  0
  159.9500  206.2690  148.4500 O   0  0  0  0  0  0  0  0  0  0  0  0
  160.9070  206.0160  149.1660 C   0  0  0  0  0  0  0  0  0  0  0  0
  162.1340  206.8840  149.1170 C   0  0  0  0  0  2  0  0  0  0  0  0
  161.0300  208.5970  150.3530 O   0  0  0  0  0  0  0  0  0  0  0  0
  162.3530  209.3290  148.5580 N   0  0  0  0  0  2  0  0  0  0  0  0
  162.6840  211.5430  147.8360 N   0  0  0  0  0  2  0  0  0  0  0  0
  161.8070  208.3100  149.4040 C   0  0  0  0  0  0  0  0  0  0  0  0
  162.2400  210.7450  148.7520 C   0  0  0  0  0  0  0  0  0  0  0  0
  161.7430  211.3270  150.0330 C   0  0  0  0  0  1  0  0  0  0  0  0
  162.2830  203.0150  149.8030 O   0  0  0  0  0  0  0  0  0  0  0  0
  161.2160  203.5980  149.4750 C   0  0  0  0  0  0  0  0  0  0  0  0
  160.4190  203.0910  148.4530 O   0  0  0  0  0  0  0  0  0  0  0  0
  160.4840  201.7320  148.0470 C   0  0  0  0  0  2  0  0  0  0  0  0
  161.2960  201.6100  146.7730 C   0  0  0  0  0  2  0  0  0  0  0  0
  160.4600  202.0230  145.6050 C   0  0  0  0  0  0  0  0  0  0  0  0
  162.3120  204.2010  146.2870 O   0  0  0  0  0  0  0  0  0  0  0  0
  159.6500  201.1920  145.1180 O   0  0  0  0  0  0  0  0  0  0  0  0
  160.5040  203.3470  145.0600 N   0  0  0  0  0  2  0  0  0  0  0  0
  161.3980  204.4010  145.4430 C   0  0  0  0  0  0  0  0  0  0  0  0
  161.2910  205.7450  144.7890 C   0  0  0  0  0  3  0  0  0  0  0  0
  159.9860  206.2250  144.8930 O   0  0  0  0  0  1  0  0  0  0  0  0
  161.6520  205.6650  143.4490 O   0  0  0  0  0  1  0  0  0  0  0  0
  161.4430  207.7770  154.1400 C   0  0  2  0  0  3  0  0  0  0  0  0
  158.6110  206.5860  156.4440 C   0  0  0  0  0  2  0  0  0  0  0  0
  159.4180  207.5550  155.5990 C   0  0  1  0  0  3  0  0  0  0  0  0
  161.0570  206.2880  156.1340 C   0  0  0  0  0  2  0  0  0  0  0  0
  159.9900  207.0320  156.9050 C   0  0  2  0  0  3  0  0  0  0  0  0
  160.4870  206.8010  154.8290 C   0  0  2  0  0  3  0  0  0  0  0  0
  160.8180  209.1700  154.1350 C   0  0  0  0  0  2  0  0  0  0  0  0
  161.7080  210.1520  154.7510 N   0  0  0  0  0  0  0  0  0  0  0  0
  162.0740  209.6760  156.0830 C   0  0  0  0  0  1  0  0  0  0  0  0
  161.0300  211.4620  154.8120 C   0  0  2  0  0  3  0  0  0  0  0  0
  160.2290  211.6460  156.1020 C   0  0  0  0  0  2  0  0  0  0  0  0
  160.8130  212.6470  156.8840 O   0  0  0  0  0  1  0  0  0  0  0  0
  160.2440  211.8660  153.5510 C   0  0  0  0  0  2  0  0  0  0  0  0
  155.9530  213.9940  154.6990 C   0  0  0  0  0  3  0  0  0  0  0  0
  158.3170  211.1380  154.9580 C   0  0  0  0  0  3  0  0  0  0  0  0
  158.7340  211.9250  153.7460 C   0  0  1  0  0  3  0  0  0  0  0  0
  155.7110  213.3320  155.8430 C   0  0  0  0  0  3  0  0  0  0  0  0
  156.7500  213.4980  153.5170 C   0  0  2  0  0  3  0  0  0  0  0  0
  158.6970  214.0750  154.8880 F   0  0  0  0  0  0  0  0  0  0  0  0
  157.2710  211.5030  155.6390 C   0  0  0  0  0  0  0  0  0  0  0  0
  158.2660  213.3920  153.7560 C   0  0  1  0  0  3  0  0  0  0  0  0
  156.2340  212.0100  156.2340 C   0  0  0  0  0  3  0  0  0  0  0  0
  156.4960  214.4170  152.3350 C   0  0  0  0  0  2  0  0  0  0  0  0
  156.9380  213.8240  151.1580 O   0  0  0  0  0  0  0  0  0  0  0  0
  156.2060  214.4510  150.1480 C   0  0  0  0  0  2  0  0  0  0  0  0
  155.9670  213.5480  149.1100 O   0  0  0  0  0  1  0  0  0  0  0  0
  2  1  1  0  0  0  0
  3  5  1  1  0  0  0
  3  2  1  0  0  0  0
  5  4  1  0  0  0  0
  6  8  1  6  0  0  0
  6  3  1  0  0  0  0
  7  8  2  0  0  0  0
  9  8  1  0  0  0  0
  9 13  1  0  0  0  0
 11 14  1  0  0  0  0
 11 13  1  0  0  0  0
 12 14  2  0  0  0  0
 13 10  2  0  0  0  0
 14 15  1  0  0  0  0
 17 16  2  0  0  0  0
 17  6  1  0  0  0  0
 18 17  1  0  0  0  0
 19 18  1  0  0  0  0
 20 19  1  0  0  0  0
 21 20  1  0  0  0  0
 23 21  2  0  0  0  0
 24 25  1  0  0  0  0
 24 21  1  0  0  0  0
 25 22  2  0  0  0  0
 26 27  1  0  0  0  0
 26 25  1  0  0  0  0
 28 26  1  0  0  0  0
 29  1  1  6  0  0  0
 30 33  1  0  0  0  0
 31 30  1  6  0  0  0
 31 33  1  0  0  0  0
 33 32  1  6  0  0  0
 34 29  1  1  0  0  0
 34 31  1  0  0  0  0
 34 32  1  0  0  0  0
 35 29  1  0  0  0  0
 35 36  1  0  0  0  0
 36 38  1  0  0  0  0
 36 37  1  0  0  0  0
 38 41  1  6  0  0  0
 38 39  1  0  0  0  0
 39 40  1  0  0  0  0
 42 45  2  0  0  0  0
 43 48  2  0  0  0  0
 44 41  1  1  0  0  0
 44 49  1  0  0  0  0
 44 43  1  0  0  0  0
 45 50  1  0  0  0  0
 46 51  1  6  0  0  0
 46 49  1  0  0  0  0
 46 42  1  0  0  0  0
 48 50  2  0  0  0  0
 49 47  1  1  0  0  0
 52 51  1  0  0  0  0
 53 52  1  0  0  0  0
 54 53  1  0  0  0  0
M  END
>  <MODEL>
7

>  <REMARK>
 VINA RESULT:      -3.9      3.357      9.145
  Name = 
  24 active torsions:
  status: ('A' for Active; 'I' for Inactive)
    1  A    between atoms: C_3  and  C_34
    2  A    between atoms: C_4  and  C_48
    3  A    between atoms: C_8  and  C_16
    4  A    between atoms: C_8  and  C_48
    5  A    between atoms: C_9  and  C_26
    6  A    between atoms: C_9  and  C_29
    7  A    between atoms: C_9  and  C_53
    8  A    between atoms: C_10  and  O_17
    9  A    between atoms: O_17  and  C_20
   10  A    between atoms: C_18  and  C_27
   11  A    between atoms: C_20  and  C_37
   12  A    between atoms: N_23  and  C_35
   13  A    between atoms: N_23  and  C_48
   14  A    between atoms: C_25  and  C_33
   15  A    between atoms: C_25  and  C_43
   16  A    between atoms: C_26  and  C_38
   17  A    between atoms: C_27  and  C_39
   18  A    between atoms: C_29  and  C_43
   19  A    between atoms: C_29  and  C_46
   20  A    between atoms: C_31  and  C_38
   21  A    between atoms: C_33  and  C_35
   22  A    between atoms: C_33  and  C_47
   23  A    between atoms: C_39  and  O_45
   24  A    between atoms: O_45  and  C_53
                            x       y       z     vdW  Elec       q    Type
                         _______ _______ _______ _____ _____    ______ ____

>  <TORSDO>
F 24

$$$$
=
 OpenBabel11072409583D

 54 56  0  0  1  0  0  0  0  0999 V2000
  160.6000  207.1070  150.4440 C   0  0  0  0  0  2  0  0  0  0  0  0
  161.4720  207.6050  151.5730 C   0  0  0  0  0  2  0  0  0  0  0  0
  160.7280  208.5880  152.4730 C   0  0  1  0  0  3  0  0  0  0  0  0
  161.4120  206.6710  153.9190 C   0  0  0  0  0  1  0  0  0  0  0  0
  160.6090  207.9570  153.8550 C   0  0  0  0  0  2  0  0  0  0  0  0
  161.4680  209.9420  152.5400 C   0  0  1  0  0  3  0  0  0  0  0  0
  160.6400  211.6510  151.1460 O   0  0  0  0  0  0  0  0  0  0  0  0
  161.3950  210.6950  151.2420 C   0  0  0  0  0  0  0  0  0  0  0  0
  162.2930  210.3270  150.0940 C   0  0  0  0  0  2  0  0  0  0  0  0
  163.2450  212.0520  148.7520 O   0  0  0  0  0  0  0  0  0  0  0  0
  161.0030  211.5270  148.2960 N   0  0  0  0  0  2  0  0  0  0  0  0
  159.5990  212.5260  146.6940 N   0  0  0  0  0  2  0  0  0  0  0  0
  162.2340  211.3440  149.0060 C   0  0  0  0  0  0  0  0  0  0  0  0
  160.7980  212.3700  147.1550 C   0  0  0  0  0  0  0  0  0  0  0  0
  161.9390  212.9700  146.4040 C   0  0  0  0  0  1  0  0  0  0  0  0
  159.8890  211.3790  153.6290 O   0  0  0  0  0  0  0  0  0  0  0  0
  161.0180  210.8230  153.6670 C   0  0  0  0  0  0  0  0  0  0  0  0
  161.8850  211.0580  154.7290 O   0  0  0  0  0  0  0  0  0  0  0  0
  162.3390  210.0170  155.5810 C   0  0  0  0  0  2  0  0  0  0  0  0
  161.8450  210.2520  156.9950 C   0  0  0  0  0  2  0  0  0  0  0  0
  160.4500  209.7300  157.1300 C   0  0  0  0  0  0  0  0  0  0  0  0
  160.3570  212.6320  156.6730 O   0  0  0  0  0  0  0  0  0  0  0  0
  160.2790  208.4900  157.2600 O   0  0  0  0  0  0  0  0  0  0  0  0
  159.3090  210.5950  157.1760 N   0  0  0  0  0  2  0  0  0  0  0  0
  159.3040  212.0160  156.9860 C   0  0  0  0  0  0  0  0  0  0  0  0
  158.0190  212.7790  157.0970 C   0  0  0  0  0  3  0  0  0  0  0  0
  156.9440  211.9590  156.7550 O   0  0  0  0  0  1  0  0  0  0  0  0
  158.0380  213.8920  156.2640 O   0  0  0  0  0  1  0  0  0  0  0  0
  160.9920  205.6930  150.0340 C   0  0  2  0  0  3  0  0  0  0  0  0
  162.8690  206.4540  146.7700 C   0  0  0  0  0  2  0  0  0  0  0  0
  162.6500  206.3370  148.2680 C   0  0  1  0  0  3  0  0  0  0  0  0
  160.6040  206.7030  147.7590 C   0  0  0  0  0  2  0  0  0  0  0  0
  161.9140  207.4040  147.4770 C   0  0  2  0  0  3  0  0  0  0  0  0
  161.3340  205.6330  148.5430 C   0  0  2  0  0  3  0  0  0  0  0  0
  159.8290  204.7450  150.3180 C   0  0  0  0  0  2  0  0  0  0  0  0
  160.3050  203.4700  150.8530 N   0  0  0  0  0  0  0  0  0  0  0  0
  161.5620  203.7040  151.5610 C   0  0  0  0  0  1  0  0  0  0  0  0
  160.4770  202.5050  149.7490 C   0  0  2  0  0  3  0  0  0  0  0  0
  160.0520  201.0900  150.1380 C   0  0  0  0  0  2  0  0  0  0  0  0
  161.1170  200.4280  150.7560 O   0  0  0  0  0  1  0  0  0  0  0  0
  161.8380  202.5510  149.0300 C   0  0  0  0  0  2  0  0  0  0  0  0
  159.7390  201.2430  144.7710 C   0  0  0  0  0  3  0  0  0  0  0  0
  162.0620  200.5320  147.5830 C   0  0  0  0  0  3  0  0  0  0  0  0
  161.8120  202.0150  147.6040 C   0  0  1  0  0  3  0  0  0  0  0  0
  159.8900  199.9120  144.8840 C   0  0  0  0  0  3  0  0  0  0  0  0
  160.6170  202.3080  145.3810 C   0  0  2  0  0  3  0  0  0  0  0  0
  159.3920  201.8070  147.4420 F   0  0  0  0  0  0  0  0  0  0  0  0
  161.5260  199.7980  146.6530 C   0  0  0  0  0  0  0  0  0  0  0  0
  160.5070  202.4430  146.9090 C   0  0  1  0  0  3  0  0  0  0  0  0
  160.8960  199.1960  145.6900 C   0  0  0  0  0  3  0  0  0  0  0  0
  160.2830  203.6440  144.7380 C   0  0  0  0  0  2  0  0  0  0  0  0
  161.3090  204.5560  144.9580 O   0  0  0  0  0  0  0  0  0  0  0  0
  160.9070  205.7100  144.2820 C   0  0  0  0  0  2  0  0  0  0  0  0
  161.5800  205.7990  143.0620 O   0  0  0  0  0  1  0  0  0  0  0  0
  1  2  1  0  0  0  0
  3  2  1  6  0  0  0
  3  6  1  0  0  0  0
  3  5  1  0  0  0  0
  5  4  1  0  0  0  0
  6  8  1  6  0  0  0
  6 17  1  0  0  0  0
  7  8  2  0  0  0  0
  9  8  1  0  0  0  0
 10 13  2  0  0  0  0
 11 13  1  0  0  0  0
 12 14  2  0  0  0  0
 13  9  1  0  0  0  0
 14 11  1  0  0  0  0
 15 14  1  0  0  0  0
 16 17  2  0  0  0  0
 17 18  1  0  0  0  0
 18 19  1  0  0  0  0
 19 20  1  0  0  0  0
 20 21  1  0  0  0  0
 21 24  1  0  0  0  0
 21 23  2  0  0  0  0
 22 25  2  0  0  0  0
 25 26  1  0  0  0  0
 25 24  1  0  0  0  0
 27 26  1  0  0  0  0
 28 26  1  0  0  0  0
 29 35  1  6  0  0  0
 29  1  1  0  0  0  0
 31 30  1  6  0  0  0
 31 34  1  0  0  0  0
 32 34  1  0  0  0  0
 33 30  1  6  0  0  0
 33 32  1  0  0  0  0
 33 31  1  0  0  0  0
 34 29  1  1  0  0  0
 35 36  1  0  0  0  0
 36 37  1  0  0  0  0
 38 41  1  1  0  0  0
 38 39  1  0  0  0  0
 38 36  1  0  0  0  0
 39 40  1  0  0  0  0
 42 45  2  0  0  0  0
 42 46  1  0  0  0  0
 43 44  1  0  0  0  0
 44 41  1  1  0  0  0
 45 50  1  0  0  0  0
 46 51  1  6  0  0  0
 46 49  1  0  0  0  0
 48 43  2  0  0  0  0
 49 47  1  1  0  0  0
 49 44  1  0  0  0  0
 50 48  2  0  0  0  0
 51 52  1  0  0  0  0
 53 52  1  0  0  0  0
 54 53  1  0  0  0  0
M  END
>  <MODEL>
8

>  <REMARK>
 VINA RESULT:      -3.9      2.935      7.777
  Name = 
  24 active torsions:
  status: ('A' for Active; 'I' for Inactive)
    1  A    between atoms: C_3  and  C_34
    2  A    between atoms: C_4  and  C_48
    3  A    between atoms: C_8  and  C_16
    4  A    between atoms: C_8  and  C_48
    5  A    between atoms: C_9  and  C_26
    6  A    between atoms: C_9  and  C_29
    7  A    between atoms: C_9  and  C_53
    8  A    between atoms: C_10  and  O_17
    9  A    between atoms: O_17  and  C_20
   10  A    between atoms: C_18  and  C_27
   11  A    between atoms: C_20  and  C_37
   12  A    between atoms: N_23  and  C_35
   13  A    between atoms: N_23  and  C_48
   14  A    between atoms: C_25  and  C_33
   15  A    between atoms: C_25  and  C_43
   16  A    between atoms: C_26  and  C_38
   17  A    between atoms: C_27  and  C_39
   18  A    between atoms: C_29  and  C_43
   19  A    between atoms: C_29  and  C_46
   20  A    between atoms: C_31  and  C_38
   21  A    between atoms: C_33  and  C_35
   22  A    between atoms: C_33  and  C_47
   23  A    between atoms: C_39  and  O_45
   24  A    between atoms: O_45  and  C_53
                            x       y       z     vdW  Elec       q    Type
                         _______ _______ _______ _____ _____    ______ ____

>  <TORSDO>
F 24

$$$$
=
 OpenBabel11072409583D

 54 56  0  0  1  0  0  0  0  0999 V2000
  161.9240  208.1190  151.5850 C   0  0  0  0  0  2  0  0  0  0  0  0
  160.8570  209.1680  151.3730 C   0  0  0  0  0  2  0  0  0  0  0  0
  161.4470  210.5760  151.3380 C   0  0  1  0  0  3  0  0  0  0  0  0
  162.1340  209.4710  149.2090 C   0  0  0  0  0  1  0  0  0  0  0  0
  162.3260  210.6840  150.0990 C   0  0  0  0  0  2  0  0  0  0  0  0
  160.3270  211.6410  151.3240 C   0  0  1  0  0  3  0  0  0  0  0  0
  160.5920  211.6970  153.6640 O   0  0  0  0  0  0  0  0  0  0  0  0
  159.9220  212.0600  152.7080 C   0  0  0  0  0  0  0  0  0  0  0  0
  158.7500  212.9770  152.9150 C   0  0  0  0  0  2  0  0  0  0  0  0
  158.3100  213.3050  155.2350 O   0  0  0  0  0  0  0  0  0  0  0  0
  157.0620  211.6130  154.1920 N   0  0  0  0  0  2  0  0  0  0  0  0
  155.4610  210.2020  155.1810 N   0  0  0  0  0  2  0  0  0  0  0  0
  158.0310  212.6680  154.1850 C   0  0  0  0  0  0  0  0  0  0  0  0
  156.2020  211.2570  155.2820 C   0  0  0  0  0  0  0  0  0  0  0  0
  156.0390  212.1380  156.4750 C   0  0  0  0  0  1  0  0  0  0  0  0
  160.7280  213.9870  151.0370 O   0  0  0  0  0  0  0  0  0  0  0  0
  160.6540  212.8500  150.5000 C   0  0  0  0  0  0  0  0  0  0  0  0
  160.8230  212.7070  149.1250 O   0  0  0  0  0  0  0  0  0  0  0  0
  159.7230  212.6630  148.2280 C   0  0  0  0  0  2  0  0  0  0  0  0
  159.8470  213.7710  147.2020 C   0  0  0  0  0  2  0  0  0  0  0  0
  159.3370  213.2890  145.8810 C   0  0  0  0  0  0  0  0  0  0  0  0
  162.2750  213.2190  145.8670 O   0  0  0  0  0  0  0  0  0  0  0  0
  158.0940  213.1780  145.7180 O   0  0  0  0  0  0  0  0  0  0  0  0
  160.2080  213.0060  144.7800 N   0  0  0  0  0  2  0  0  0  0  0  0
  161.6420  213.0170  144.7970 C   0  0  0  0  0  0  0  0  0  0  0  0
  162.4050  212.7250  143.5410 C   0  0  0  0  0  3  0  0  0  0  0  0
  162.9620  213.8990  143.0340 O   0  0  0  0  0  1  0  0  0  0  0  0
  161.5710  212.1550  142.5860 O   0  0  0  0  0  1  0  0  0  0  0  0
  161.3460  206.8840  152.2660 C   0  0  2  0  0  3  0  0  0  0  0  0
  160.3590  206.9960  155.9760 C   0  0  0  0  0  2  0  0  0  0  0  0
  160.2100  206.7070  154.4930 C   0  0  1  0  0  3  0  0  0  0  0  0
  161.5080  208.3940  154.2750 C   0  0  0  0  0  2  0  0  0  0  0  0
  160.1990  208.1420  154.9880 C   0  0  2  0  0  3  0  0  0  0  0  0
  161.5270  206.9620  153.7830 C   0  0  2  0  0  3  0  0  0  0  0  0
  162.0590  205.6390  151.7410 C   0  0  0  0  0  2  0  0  0  0  0  0
  161.4480  205.1630  150.5010 N   0  0  0  0  0  0  0  0  0  0  0  0
  160.5420  206.1960  150.0030 C   0  0  0  0  0  1  0  0  0  0  0  0
  160.7340  203.8960  150.7580 C   0  0  2  0  0  3  0  0  0  0  0  0
  159.9650  203.9160  152.0790 C   0  0  0  0  0  2  0  0  0  0  0  0
  160.2300  202.7500  152.8010 O   0  0  0  0  0  1  0  0  0  0  0  0
  161.5630  202.6130  150.5620 C   0  0  0  0  0  2  0  0  0  0  0  0
  160.4460  202.0530  145.7980 C   0  0  0  0  0  3  0  0  0  0  0  0
  161.9840  200.7740  148.9300 C   0  0  0  0  0  3  0  0  0  0  0  0
  161.8380  202.2610  149.1050 C   0  0  1  0  0  3  0  0  0  0  0  0
  160.4750  200.7110  145.7510 C   0  0  0  0  0  3  0  0  0  0  0  0
  161.2250  202.9430  146.7350 C   0  0  2  0  0  3  0  0  0  0  0  0
  159.5160  202.3160  148.3750 F   0  0  0  0  0  0  0  0  0  0  0  0
  161.6340  200.2170  147.8080 C   0  0  0  0  0  0  0  0  0  0  0  0
  160.7660  202.8990  148.2020 C   0  0  1  0  0  3  0  0  0  0  0  0
  161.2100  199.8040  146.6520 C   0  0  0  0  0  3  0  0  0  0  0  0
  161.1440  204.3740  146.2320 C   0  0  0  0  0  2  0  0  0  0  0  0
  160.8620  205.2410  147.2810 O   0  0  0  0  0  0  0  0  0  0  0  0
  161.3770  206.4730  146.8720 C   0  0  0  0  0  2  0  0  0  0  0  0
  162.3260  206.2750  145.8660 O   0  0  0  0  0  1  0  0  0  0  0  0
  2  1  1  0  0  0  0
  3  5  1  6  0  0  0
  3  2  1  0  0  0  0
  4  5  1  0  0  0  0
  6 17  1  6  0  0  0
  6  3  1  0  0  0  0
  6  8  1  0  0  0  0
  8  9  1  0  0  0  0
  8  7  2  0  0  0  0
  9 13  1  0  0  0  0
 11 14  1  0  0  0  0
 12 14  2  0  0  0  0
 13 11  1  0  0  0  0
 13 10  2  0  0  0  0
 14 15  1  0  0  0  0
 17 16  2  0  0  0  0
 18 17  1  0  0  0  0
 19 18  1  0  0  0  0
 20 19  1  0  0  0  0
 21 20  1  0  0  0  0
 23 21  2  0  0  0  0
 24 25  1  0  0  0  0
 24 21  1  0  0  0  0
 25 22  2  0  0  0  0
 26 25  1  0  0  0  0
 27 26  1  0  0  0  0
 28 26  1  0  0  0  0
 29  1  1  6  0  0  0
 31 33  1  0  0  0  0
 31 30  1  1  0  0  0
 33 32  1  6  0  0  0
 33 30  1  0  0  0  0
 34 29  1  6  0  0  0
 34 32  1  0  0  0  0
 34 31  1  0  0  0  0
 35 29  1  0  0  0  0
 36 38  1  0  0  0  0
 36 35  1  0  0  0  0
 37 36  1  0  0  0  0
 38 41  1  1  0  0  0
 38 39  1  0  0  0  0
 39 40  1  0  0  0  0
 42 46  1  0  0  0  0
 43 44  1  0  0  0  0
 44 41  1  1  0  0  0
 45 42  2  0  0  0  0
 45 50  1  0  0  0  0
 46 51  1  6  0  0  0
 46 49  1  0  0  0  0
 48 43  2  0  0  0  0
 49 47  1  6  0  0  0
 49 44  1  0  0  0  0
 50 48  2  0  0  0  0
 51 52  1  0  0  0  0
 53 52  1  0  0  0  0
 54 53  1  0  0  0  0
M  END
>  <MODEL>
9

>  <REMARK>
 VINA RESULT:      -3.8      1.964      2.834
  Name = 
  24 active torsions:
  status: ('A' for Active; 'I' for Inactive)
    1  A    between atoms: C_3  and  C_34
    2  A    between atoms: C_4  and  C_48
    3  A    between atoms: C_8  and  C_16
    4  A    between atoms: C_8  and  C_48
    5  A    between atoms: C_9  and  C_26
    6  A    between atoms: C_9  and  C_29
    7  A    between atoms: C_9  and  C_53
    8  A    between atoms: C_10  and  O_17
    9  A    between atoms: O_17  and  C_20
   10  A    between atoms: C_18  and  C_27
   11  A    between atoms: C_20  and  C_37
   12  A    between atoms: N_23  and  C_35
   13  A    between atoms: N_23  and  C_48
   14  A    between atoms: C_25  and  C_33
   15  A    between atoms: C_25  and  C_43
   16  A    between atoms: C_26  and  C_38
   17  A    between atoms: C_27  and  C_39
   18  A    between atoms: C_29  and  C_43
   19  A    between atoms: C_29  and  C_46
   20  A    between atoms: C_31  and  C_38
   21  A    between atoms: C_33  and  C_35
   22  A    between atoms: C_33  and  C_47
   23  A    between atoms: C_39  and  O_45
   24  A    between atoms: O_45  and  C_53
                            x       y       z     vdW  Elec       q    Type
                         _______ _______ _______ _____ _____    ______ ____

>  <TORSDO>
F 24

$$$$
