=
 OpenBabel11072413323D

 36 41  0  0  1  0  0  0  0  0999 V2000
  161.2310  205.7010  153.4650 C   0  0  0  0  0  3  0  0  0  0  0  0
  161.2110  206.8940  152.5970 C   0  0  0  0  0  0  0  0  0  0  0  0
  160.8280  208.0730  153.1470 C   0  0  1  0  0  3  0  0  0  0  0  0
  161.5280  210.6490  150.4480 C   0  0  0  0  0  3  0  0  0  0  0  0
  161.3110  204.4410  150.5850 C   0  0  0  0  0  0  0  0  0  0  0  0
  162.2860  208.2110  150.6800 C   0  0  2  0  0  3  0  0  0  0  0  0
  161.1990  204.4230  153.1140 C   0  0  0  0  0  2  0  0  0  0  0  0
  161.1010  203.8580  151.7680 C   0  0  0  0  0  3  0  0  0  0  0  0
  161.5060  209.3920  151.1970 C   0  0  0  0  0  0  0  0  0  0  0  0
  160.8840  209.3290  152.3720 C   0  0  0  0  0  3  0  0  0  0  0  0
  161.7680  205.8290  150.3920 C   0  0  0  0  0  3  0  0  0  0  0  0
  161.9440  210.6420  149.1780 C   0  0  0  0  0  3  0  0  0  0  0  0
  162.4630  208.2920  149.1780 C   0  0  0  0  0  3  0  0  0  0  0  0
  161.7350  206.8950  151.2020 C   0  0  0  0  0  0  0  0  0  0  0  0
  162.3380  209.4170  148.5370 N   0  0  0  0  0  0  0  0  0  0  0  0
  161.4470  204.1380  148.1130 C   0  0  0  0  0  3  0  0  0  0  0  0
  160.5380  201.5070  148.2920 C   0  0  0  0  0  3  0  0  0  0  0  0
  160.8610  202.0450  147.0370 C   0  0  0  0  0  0  0  0  0  0  0  0
  161.3140  203.3670  146.9550 C   0  0  0  0  0  0  0  0  0  0  0  0
  160.6800  202.2720  149.4530 C   0  0  0  0  0  0  0  0  0  0  0  0
  161.1420  203.6010  149.3740 C   0  0  0  0  0  0  0  0  0  0  0  0
  160.3370  201.7180  150.6450 F   0  0  0  0  0  0  0  0  0  0  0  0
  161.6210  203.9110  145.7520 F   0  0  0  0  0  0  0  0  0  0  0  0
  159.7250  201.5600  144.8940 C   0  0  0  0  0  1  0  0  0  0  0  0
  160.7280  201.2950  145.8640 O   0  0  0  0  0  0  0  0  0  0  0  0
  160.3030  208.1570  154.5520 C   0  0  0  0  0  2  0  0  0  0  0  0
  160.4620  209.5070  155.0740 N   0  0  0  0  0  0  0  0  0  0  0  0
  159.4190  210.4300  155.1570 N   0  0  0  0  0  0  0  0  0  0  0  0
  159.9230  211.4520  155.7470 C   0  0  0  0  0  0  0  0  0  0  0  0
  161.6610  209.9750  155.6360 N   0  0  0  0  0  0  0  0  0  0  0  0
  161.2970  211.2660  156.0590 N   0  0  0  0  0  0  0  0  0  0  0  0
  157.6230  214.1800  154.9350 C   0  0  0  0  0  2  0  0  0  0  0  0
  158.9770  213.5230  154.7650 C   0  0  0  0  0  2  0  0  0  0  0  0
  157.7400  212.3860  156.4390 C   0  0  0  0  0  2  0  0  0  0  0  0
  156.8950  213.4890  155.9990 N   0  0  0  0  0  2  0  0  0  0  0  0
  159.1500  212.7020  156.0110 C   0  0  1  0  0  3  0  0  0  0  0  0
  2  3  1  0  0  0  0
  2  1  2  0  0  0  0
  3 26  1  6  0  0  0
  4  9  1  0  0  0  0
  5  8  2  0  0  0  0
  6 13  1  6  0  0  0
  6  9  1  0  0  0  0
  6 14  1  0  0  0  0
  7  1  1  0  0  0  0
  8  7  1  0  0  0  0
  9 10  2  0  0  0  0
 10  3  1  0  0  0  0
 11  5  1  0  0  0  0
 11 14  2  0  0  0  0
 12  4  2  0  0  0  0
 14  2  1  0  0  0  0
 15 12  1  0  0  0  0
 15 13  2  0  0  0  0
 16 21  1  0  0  0  0
 17 20  1  0  0  0  0
 18 17  2  0  0  0  0
 19 18  1  0  0  0  0
 19 16  2  0  0  0  0
 20 22  1  0  0  0  0
 21 20  2  0  0  0  0
 21  5  1  0  0  0  0
 23 19  1  0  0  0  0
 24 25  1  0  0  0  0
 25 18  1  0  0  0  0
 26 27  1  0  0  0  0
 27 28  1  0  0  0  0
 27 30  1  0  0  0  0
 28 29  2  0  0  0  0
 29 31  1  0  0  0  0
 30 31  2  0  0  0  0
 32 35  1  0  0  0  0
 33 32  1  0  0  0  0
 33 36  1  0  0  0  0
 35 34  1  0  0  0  0
 36 29  1  6  0  0  0
 36 34  1  0  0  0  0
M  END
>  <MODEL>
1

>  <REMARK>
 VINA RESULT:     -10.5      0.000      0.000
  Name = 
  5 active torsions:
  status: ('A' for Active; 'I' for Inactive)
    1  A    between atoms: C_5  and  C_16
    2  A    between atoms: C_7  and  C_26
    3  A    between atoms: N_12  and  C_16
    4  A    between atoms: C_13  and  O_30
    5  A    between atoms: C_20  and  C_23
                            x       y       z     vdW  Elec       q    Type
                         _______ _______ _______ _____ _____    ______ ____

>  <TORSDO>
F 5

$$$$
=
 OpenBabel11072413323D

 36 41  0  0  1  0  0  0  0  0999 V2000
  161.2620  206.5750  153.7610 C   0  0  0  0  0  3  0  0  0  0  0  0
  161.1970  207.7120  152.8230 C   0  0  0  0  0  0  0  0  0  0  0  0
  160.7850  208.9110  153.3060 C   0  0  1  0  0  3  0  0  0  0  0  0
  161.3770  211.3370  150.4460 C   0  0  0  0  0  3  0  0  0  0  0  0
  161.3480  205.1440  150.9620 C   0  0  0  0  0  0  0  0  0  0  0  0
  162.2110  208.9400  150.8160 C   0  0  2  0  0  3  0  0  0  0  0  0
  161.2640  205.2770  153.4890 C   0  0  0  0  0  2  0  0  0  0  0  0
  161.1690  204.6290  152.1810 C   0  0  0  0  0  3  0  0  0  0  0  0
  161.4010  210.1270  151.2710 C   0  0  0  0  0  0  0  0  0  0  0  0
  160.7950  210.1170  152.4560 C   0  0  0  0  0  3  0  0  0  0  0  0
  161.7620  206.5310  150.6800 C   0  0  0  0  0  3  0  0  0  0  0  0
  161.7790  211.2640  149.1750 C   0  0  0  0  0  3  0  0  0  0  0  0
  162.3690  208.9340  149.3110 C   0  0  0  0  0  3  0  0  0  0  0  0
  161.7060  207.6430  151.4240 C   0  0  0  0  0  0  0  0  0  0  0  0
  162.2040  210.0140  148.6040 N   0  0  0  0  0  0  0  0  0  0  0  0
  160.8310  202.8890  150.0300 C   0  0  0  0  0  3  0  0  0  0  0  0
  161.2330  203.7750  147.4170 C   0  0  0  0  0  3  0  0  0  0  0  0
  160.8560  202.4430  147.6470 C   0  0  0  0  0  0  0  0  0  0  0  0
  160.6580  202.0060  148.9610 C   0  0  0  0  0  0  0  0  0  0  0  0
  161.3960  204.6650  148.4820 C   0  0  0  0  0  0  0  0  0  0  0  0
  161.1910  204.2270  149.8070 C   0  0  0  0  0  0  0  0  0  0  0  0
  161.7810  205.9390  148.2150 F   0  0  0  0  0  0  0  0  0  0  0  0
  160.3050  200.7200  149.2080 F   0  0  0  0  0  0  0  0  0  0  0  0
  160.3700  201.9510  145.2720 C   0  0  0  0  0  1  0  0  0  0  0  0
  160.6860  201.5390  146.5940 O   0  0  0  0  0  0  0  0  0  0  0  0
  160.2730  209.0640  154.7090 C   0  0  0  0  0  2  0  0  0  0  0  0
  160.0080  210.4660  155.0020 N   0  0  0  0  0  0  0  0  0  0  0  0
  158.7500  211.0570  154.8710 N   0  0  0  0  0  0  0  0  0  0  0  0
  158.8970  212.2550  155.3060 C   0  0  0  0  0  0  0  0  0  0  0  0
  160.9720  211.3330  155.5410 N   0  0  0  0  0  0  0  0  0  0  0  0
  160.2320  212.5150  155.7180 N   0  0  0  0  0  0  0  0  0  0  0  0
  155.6790  213.6720  154.2910 C   0  0  0  0  0  2  0  0  0  0  0  0
  157.1250  213.3610  153.9680 C   0  0  0  0  0  2  0  0  0  0  0  0
  156.6810  212.8360  156.2380 C   0  0  0  0  0  2  0  0  0  0  0  0
  155.4380  213.3790  155.7040 N   0  0  0  0  0  2  0  0  0  0  0  0
  157.7910  213.2590  155.3110 C   0  0  1  0  0  3  0  0  0  0  0  0
  2  3  1  0  0  0  0
  2  1  2  0  0  0  0
  3 26  1  6  0  0  0
  4  9  1  0  0  0  0
  5  8  2  0  0  0  0
  6 13  1  6  0  0  0
  6  9  1  0  0  0  0
  6 14  1  0  0  0  0
  7  1  1  0  0  0  0
  8  7  1  0  0  0  0
  9 10  2  0  0  0  0
 10  3  1  0  0  0  0
 11  5  1  0  0  0  0
 11 14  2  0  0  0  0
 12  4  2  0  0  0  0
 14  2  1  0  0  0  0
 15 12  1  0  0  0  0
 15 13  2  0  0  0  0
 17 18  2  0  0  0  0
 17 20  1  0  0  0  0
 18 19  1  0  0  0  0
 19 23  1  0  0  0  0
 19 16  2  0  0  0  0
 20 21  2  0  0  0  0
 21 16  1  0  0  0  0
 21  5  1  0  0  0  0
 22 20  1  0  0  0  0
 24 25  1  0  0  0  0
 25 18  1  0  0  0  0
 26 27  1  0  0  0  0
 27 30  1  0  0  0  0
 28 27  1  0  0  0  0
 28 29  2  0  0  0  0
 29 31  1  0  0  0  0
 30 31  2  0  0  0  0
 32 35  1  0  0  0  0
 33 32  1  0  0  0  0
 33 36  1  0  0  0  0
 35 34  1  0  0  0  0
 36 29  1  6  0  0  0
 36 34  1  0  0  0  0
M  END
>  <MODEL>
2

>  <REMARK>
 VINA RESULT:     -10.3      1.088      1.760
  Name = 
  5 active torsions:
  status: ('A' for Active; 'I' for Inactive)
    1  A    between atoms: C_5  and  C_16
    2  A    between atoms: C_7  and  C_26
    3  A    between atoms: N_12  and  C_16
    4  A    between atoms: C_13  and  O_30
    5  A    between atoms: C_20  and  C_23
                            x       y       z     vdW  Elec       q    Type
                         _______ _______ _______ _____ _____    ______ ____

>  <TORSDO>
F 5

$$$$
=
 OpenBabel11072413323D

 36 41  0  0  1  0  0  0  0  0999 V2000
  160.9270  207.9250  154.2780 C   0  0  0  0  0  3  0  0  0  0  0  0
  160.8870  208.8880  153.1610 C   0  0  0  0  0  0  0  0  0  0  0  0
  160.4270  210.1380  153.4160 C   0  0  1  0  0  3  0  0  0  0  0  0
  161.1170  212.0710  150.2220 C   0  0  0  0  0  3  0  0  0  0  0  0
  161.1850  206.0510  151.7650 C   0  0  0  0  0  0  0  0  0  0  0  0
  161.9780  209.7930  151.0260 C   0  0  2  0  0  3  0  0  0  0  0  0
  160.9690  206.6010  154.2270 C   0  0  0  0  0  2  0  0  0  0  0  0
  160.9540  205.7420  153.0430 C   0  0  0  0  0  3  0  0  0  0  0  0
  161.1230  211.0160  151.2370 C   0  0  0  0  0  0  0  0  0  0  0  0
  160.4570  211.1870  152.3770 C   0  0  0  0  0  3  0  0  0  0  0  0
  161.5840  207.3840  151.2740 C   0  0  0  0  0  3  0  0  0  0  0  0
  161.5850  211.7990  149.0000 C   0  0  0  0  0  3  0  0  0  0  0  0
  162.2130  209.5420  149.5520 C   0  0  0  0  0  3  0  0  0  0  0  0
  161.4680  208.6020  151.8180 C   0  0  0  0  0  0  0  0  0  0  0  0
  162.0630  210.4840  148.6670 N   0  0  0  0  0  0  0  0  0  0  0  0
  161.2350  205.2430  149.4060 C   0  0  0  0  0  3  0  0  0  0  0  0
  160.8360  202.6010  150.2050 C   0  0  0  0  0  3  0  0  0  0  0  0
  160.9840  202.8990  148.8420 C   0  0  0  0  0  0  0  0  0  0  0  0
  161.1820  204.2270  148.4490 C   0  0  0  0  0  0  0  0  0  0  0  0
  160.9000  203.6140  151.1670 C   0  0  0  0  0  0  0  0  0  0  0  0
  161.1050  204.9510  150.7730 C   0  0  0  0  0  0  0  0  0  0  0  0
  160.7320  203.2840  152.4730 F   0  0  0  0  0  0  0  0  0  0  0  0
  161.3150  204.5390  147.1360 F   0  0  0  0  0  0  0  0  0  0  0  0
  161.3230  200.5590  148.1140 C   0  0  0  0  0  1  0  0  0  0  0  0
  160.9250  201.9000  147.8650 O   0  0  0  0  0  0  0  0  0  0  0  0
  159.8410  210.5080  154.7480 C   0  0  0  0  0  2  0  0  0  0  0  0
  159.3300  211.8710  154.7160 N   0  0  0  0  0  0  0  0  0  0  0  0
  158.1370  212.2330  154.0880 N   0  0  0  0  0  0  0  0  0  0  0  0
  157.9830  213.4780  154.3550 C   0  0  0  0  0  0  0  0  0  0  0  0
  159.9380  212.9350  155.4010 N   0  0  0  0  0  0  0  0  0  0  0  0
  159.0500  213.9930  155.1380 N   0  0  0  0  0  0  0  0  0  0  0  0
  155.2200  214.2720  152.0900 C   0  0  0  0  0  2  0  0  0  0  0  0
  156.7100  214.1820  152.3460 C   0  0  0  0  0  2  0  0  0  0  0  0
  155.5250  213.7490  154.3550 C   0  0  0  0  0  2  0  0  0  0  0  0
  154.5110  214.0420  153.3480 N   0  0  0  0  0  2  0  0  0  0  0  0
  156.8350  214.2840  153.8400 C   0  0  1  0  0  3  0  0  0  0  0  0
  2  3  1  0  0  0  0
  2  1  2  0  0  0  0
  3 26  1  6  0  0  0
  4  9  1  0  0  0  0
  5  8  2  0  0  0  0
  6 13  1  6  0  0  0
  6  9  1  0  0  0  0
  6 14  1  0  0  0  0
  7  1  1  0  0  0  0
  8  7  1  0  0  0  0
  9 10  2  0  0  0  0
 10  3  1  0  0  0  0
 11  5  1  0  0  0  0
 11 14  2  0  0  0  0
 12  4  2  0  0  0  0
 14  2  1  0  0  0  0
 15 12  1  0  0  0  0
 15 13  2  0  0  0  0
 16 21  1  0  0  0  0
 17 20  1  0  0  0  0
 18 17  2  0  0  0  0
 19 18  1  0  0  0  0
 19 16  2  0  0  0  0
 20 22  1  0  0  0  0
 21 20  2  0  0  0  0
 21  5  1  0  0  0  0
 23 19  1  0  0  0  0
 25 24  1  0  0  0  0
 25 18  1  0  0  0  0
 27 26  1  0  0  0  0
 27 30  1  0  0  0  0
 28 29  2  0  0  0  0
 28 27  1  0  0  0  0
 29 31  1  0  0  0  0
 31 30  2  0  0  0  0
 32 33  1  0  0  0  0
 32 35  1  0  0  0  0
 33 36  1  0  0  0  0
 35 34  1  0  0  0  0
 36 29  1  1  0  0  0
 36 34  1  0  0  0  0
M  END
>  <MODEL>
3

>  <REMARK>
 VINA RESULT:      -9.9      1.669      2.462
  Name = 
  5 active torsions:
  status: ('A' for Active; 'I' for Inactive)
    1  A    between atoms: C_5  and  C_16
    2  A    between atoms: C_7  and  C_26
    3  A    between atoms: N_12  and  C_16
    4  A    between atoms: C_13  and  O_30
    5  A    between atoms: C_20  and  C_23
                            x       y       z     vdW  Elec       q    Type
                         _______ _______ _______ _____ _____    ______ ____

>  <TORSDO>
F 5

$$$$
=
 OpenBabel11072413323D

 36 41  0  0  1  0  0  0  0  0999 V2000
  162.0870  209.1280  149.4420 C   0  0  0  0  0  3  0  0  0  0  0  0
  161.6470  207.7600  149.7760 C   0  0  0  0  0  0  0  0  0  0  0  0
  161.5010  206.8740  148.7600 C   0  0  1  0  0  3  0  0  0  0  0  0
  160.8590  203.5540  150.4860 C   0  0  0  0  0  3  0  0  0  0  0  0
  160.9470  209.4810  152.3510 C   0  0  0  0  0  0  0  0  0  0  0  0
  161.7300  205.7840  151.4050 C   0  0  2  0  0  3  0  0  0  0  0  0
  161.9510  210.2380  150.1540 C   0  0  0  0  0  2  0  0  0  0  0  0
  161.2960  210.4030  151.4520 C   0  0  0  0  0  3  0  0  0  0  0  0
  161.2120  204.9560  150.2560 C   0  0  0  0  0  0  0  0  0  0  0  0
  161.1680  205.4600  149.0250 C   0  0  0  0  0  3  0  0  0  0  0  0
  161.2240  208.0360  152.2360 C   0  0  0  0  0  3  0  0  0  0  0  0
  160.6780  203.1250  151.7380 C   0  0  0  0  0  3  0  0  0  0  0  0
  161.2300  205.2480  152.7300 C   0  0  0  0  0  3  0  0  0  0  0  0
  161.5100  207.2690  151.1770 C   0  0  0  0  0  0  0  0  0  0  0  0
  160.7970  204.0270  152.8520 N   0  0  0  0  0  0  0  0  0  0  0  0
  160.7520  209.4830  154.8380 C   0  0  0  0  0  3  0  0  0  0  0  0
  158.6420  211.3050  154.7630 C   0  0  0  0  0  3  0  0  0  0  0  0
  159.1130  210.8410  156.0000 C   0  0  0  0  0  0  0  0  0  0  0  0
  160.1710  209.9250  156.0290 C   0  0  0  0  0  0  0  0  0  0  0  0
  159.2280  210.8740  153.5690 C   0  0  0  0  0  0  0  0  0  0  0  0
  160.2970  209.9560  153.5970 C   0  0  0  0  0  0  0  0  0  0  0  0
  158.7260  211.3330  152.3940 F   0  0  0  0  0  0  0  0  0  0  0  0
  160.6350  209.4550  157.2130 F   0  0  0  0  0  0  0  0  0  0  0  0
  157.3730  212.0680  157.2590 C   0  0  0  0  0  1  0  0  0  0  0  0
  158.5420  211.2630  157.2040 O   0  0  0  0  0  0  0  0  0  0  0  0
  161.6390  207.2880  147.3230 C   0  0  0  0  0  2  0  0  0  0  0  0
  161.2720  206.1900  146.4410 N   0  0  0  0  0  0  0  0  0  0  0  0
  161.6890  204.8710  146.6350 N   0  0  0  0  0  0  0  0  0  0  0  0
  161.0930  204.1950  145.7230 C   0  0  0  0  0  0  0  0  0  0  0  0
  160.3820  206.3350  145.3650 N   0  0  0  0  0  0  0  0  0  0  0  0
  160.2880  205.0150  144.8880 N   0  0  0  0  0  0  0  0  0  0  0  0
  160.7660  200.6590  146.6080 C   0  0  0  0  0  2  0  0  0  0  0  0
  161.3950  202.0130  146.8620 C   0  0  0  0  0  2  0  0  0  0  0  0
  160.0860  202.0970  144.8860 C   0  0  0  0  0  2  0  0  0  0  0  0
  159.9980  200.7220  145.3650 N   0  0  0  0  0  2  0  0  0  0  0  0
  161.2870  202.7250  145.5430 C   0  0  1  0  0  3  0  0  0  0  0  0
  1  2  2  0  0  0  0
  1  7  1  0  0  0  0
  2 14  1  0  0  0  0
  3 26  1  6  0  0  0
  3 10  1  0  0  0  0
  3  2  1  0  0  0  0
  4 12  2  0  0  0  0
  5 21  1  0  0  0  0
  6 13  1  1  0  0  0
  7  8  1  0  0  0  0
  8  5  2  0  0  0  0
  9  4  1  0  0  0  0
  9  6  1  0  0  0  0
 10  9  2  0  0  0  0
 11  5  1  0  0  0  0
 12 15  1  0  0  0  0
 13 15  2  0  0  0  0
 14  6  1  0  0  0  0
 14 11  2  0  0  0  0
 16 19  1  0  0  0  0
 17 18  1  0  0  0  0
 18 19  2  0  0  0  0
 18 25  1  0  0  0  0
 19 23  1  0  0  0  0
 20 21  1  0  0  0  0
 20 17  2  0  0  0  0
 21 16  2  0  0  0  0
 22 20  1  0  0  0  0
 25 24  1  0  0  0  0
 27 28  1  0  0  0  0
 27 26  1  0  0  0  0
 29 28  2  0  0  0  0
 30 27  1  0  0  0  0
 31 30  2  0  0  0  0
 31 29  1  0  0  0  0
 32 33  1  0  0  0  0
 34 35  1  0  0  0  0
 34 36  1  0  0  0  0
 35 32  1  0  0  0  0
 36 29  1  1  0  0  0
 36 33  1  0  0  0  0
M  END
>  <MODEL>
4

>  <REMARK>
 VINA RESULT:      -9.6      4.728     10.191
  Name = 
  5 active torsions:
  status: ('A' for Active; 'I' for Inactive)
    1  A    between atoms: C_5  and  C_16
    2  A    between atoms: C_7  and  C_26
    3  A    between atoms: N_12  and  C_16
    4  A    between atoms: C_13  and  O_30
    5  A    between atoms: C_20  and  C_23
                            x       y       z     vdW  Elec       q    Type
                         _______ _______ _______ _____ _____    ______ ____

>  <TORSDO>
F 5

$$$$
=
 OpenBabel11072413323D

 36 41  0  0  1  0  0  0  0  0999 V2000
  162.2360  209.3790  149.8170 C   0  0  0  0  0  3  0  0  0  0  0  0
  161.8250  208.0050  150.1600 C   0  0  0  0  0  0  0  0  0  0  0  0
  161.8180  207.0780  149.1710 C   0  0  1  0  0  3  0  0  0  0  0  0
  161.1520  203.7930  150.9540 C   0  0  0  0  0  3  0  0  0  0  0  0
  160.8010  209.7790  152.5870 C   0  0  0  0  0  0  0  0  0  0  0  0
  161.8320  206.0920  151.8650 C   0  0  2  0  0  3  0  0  0  0  0  0
  161.9830  210.5060  150.4690 C   0  0  0  0  0  2  0  0  0  0  0  0
  161.1970  210.6850  151.6900 C   0  0  0  0  0  3  0  0  0  0  0  0
  161.4650  205.2020  150.7050 C   0  0  0  0  0  0  0  0  0  0  0  0
  161.5220  205.6600  149.4570 C   0  0  0  0  0  3  0  0  0  0  0  0
  161.1500  208.3460  152.5560 C   0  0  0  0  0  3  0  0  0  0  0  0
  160.8680  203.4010  152.1990 C   0  0  0  0  0  3  0  0  0  0  0  0
  161.2270  205.5800  153.1550 C   0  0  0  0  0  3  0  0  0  0  0  0
  161.5710  207.5570  151.5590 C   0  0  0  0  0  0  0  0  0  0  0  0
  160.8380  204.3450  153.2830 N   0  0  0  0  0  0  0  0  0  0  0  0
  158.8740  211.0580  153.5190 C   0  0  0  0  0  3  0  0  0  0  0  0
  159.6010  210.4270  156.1360 C   0  0  0  0  0  3  0  0  0  0  0  0
  158.4570  211.2040  155.9030 C   0  0  0  0  0  0  0  0  0  0  0  0
  158.0990  211.5180  154.5870 C   0  0  0  0  0  0  0  0  0  0  0  0
  160.3720  209.9550  155.0700 C   0  0  0  0  0  0  0  0  0  0  0  0
  160.0110  210.2660  153.7440 C   0  0  0  0  0  0  0  0  0  0  0  0
  161.4830  209.2240  155.3420 F   0  0  0  0  0  0  0  0  0  0  0  0
  157.0040  212.2770  154.3390 F   0  0  0  0  0  0  0  0  0  0  0  0
  157.5550  213.0650  157.2600 C   0  0  0  0  0  1  0  0  0  0  0  0
  157.6710  211.6820  156.9570 O   0  0  0  0  0  0  0  0  0  0  0  0
  162.0790  207.4490  147.7390 C   0  0  0  0  0  2  0  0  0  0  0  0
  161.5430  206.4310  146.8460 N   0  0  0  0  0  0  0  0  0  0  0  0
  162.0020  205.1130  146.8130 N   0  0  0  0  0  0  0  0  0  0  0  0
  161.2320  204.5120  145.9810 C   0  0  0  0  0  0  0  0  0  0  0  0
  160.4440  206.6550  146.0010 N   0  0  0  0  0  0  0  0  0  0  0  0
  160.2620  205.3860  145.4220 N   0  0  0  0  0  0  0  0  0  0  0  0
  160.8330  200.9000  146.4110 C   0  0  0  0  0  2  0  0  0  0  0  0
  161.4890  202.1970  146.8340 C   0  0  0  0  0  2  0  0  0  0  0  0
  160.1840  202.5580  144.8860 C   0  0  0  0  0  2  0  0  0  0  0  0
  160.0670  201.1360  145.1870 N   0  0  0  0  0  2  0  0  0  0  0  0
  161.3970  203.0730  145.6160 C   0  0  1  0  0  3  0  0  0  0  0  0
  1  2  2  0  0  0  0
  1  7  1  0  0  0  0
  2 14  1  0  0  0  0
  3 26  1  6  0  0  0
  3 10  1  0  0  0  0
  3  2  1  0  0  0  0
  4 12  2  0  0  0  0
  5 21  1  0  0  0  0
  6 13  1  1  0  0  0
  7  8  1  0  0  0  0
  8  5  2  0  0  0  0
  9  4  1  0  0  0  0
  9  6  1  0  0  0  0
 10  9  2  0  0  0  0
 11  5  1  0  0  0  0
 12 15  1  0  0  0  0
 13 15  2  0  0  0  0
 14  6  1  0  0  0  0
 14 11  2  0  0  0  0
 16 21  2  0  0  0  0
 16 19  1  0  0  0  0
 18 17  1  0  0  0  0
 18 25  1  0  0  0  0
 19 18  2  0  0  0  0
 20 22  1  0  0  0  0
 20 17  2  0  0  0  0
 21 20  1  0  0  0  0
 23 19  1  0  0  0  0
 25 24  1  0  0  0  0
 27 26  1  0  0  0  0
 28 27  1  0  0  0  0
 29 28  2  0  0  0  0
 30 27  1  0  0  0  0
 31 29  1  0  0  0  0
 31 30  2  0  0  0  0
 32 33  1  0  0  0  0
 34 35  1  0  0  0  0
 34 36  1  0  0  0  0
 35 32  1  0  0  0  0
 36 29  1  1  0  0  0
 36 33  1  0  0  0  0
M  END
>  <MODEL>
5

>  <REMARK>
 VINA RESULT:      -9.3      4.642     10.125
  Name = 
  5 active torsions:
  status: ('A' for Active; 'I' for Inactive)
    1  A    between atoms: C_5  and  C_16
    2  A    between atoms: C_7  and  C_26
    3  A    between atoms: N_12  and  C_16
    4  A    between atoms: C_13  and  O_30
    5  A    between atoms: C_20  and  C_23
                            x       y       z     vdW  Elec       q    Type
                         _______ _______ _______ _____ _____    ______ ____

>  <TORSDO>
F 5

$$$$
=
 OpenBabel11072413323D

 36 41  0  0  1  0  0  0  0  0999 V2000
  161.9570  210.6550  149.7550 C   0  0  0  0  0  3  0  0  0  0  0  0
  161.7010  209.3760  150.4440 C   0  0  0  0  0  0  0  0  0  0  0  0
  161.9600  208.2280  149.7690 C   0  0  0  0  0  0  0  0  0  0  0  0
  161.5300  205.4870  152.3600 C   0  0  0  0  0  3  0  0  0  0  0  0
  160.1170  211.5350  152.1490 C   0  0  0  0  0  0  0  0  0  0  0  0
  161.7470  208.0290  152.6230 C   0  0  2  0  0  3  0  0  0  0  0  0
  161.4600  211.8540  150.0270 C   0  0  0  0  0  3  0  0  0  0  0  0
  160.4980  212.2180  151.0680 C   0  0  0  0  0  3  0  0  0  0  0  0
  161.6710  206.8070  151.7430 C   0  0  0  0  0  0  0  0  0  0  0  0
  161.8310  206.9130  150.4260 C   0  0  0  0  0  3  0  0  0  0  0  0
  160.6660  210.2310  152.5660 C   0  0  0  0  0  3  0  0  0  0  0  0
  161.1380  205.4040  153.6340 C   0  0  0  0  0  3  0  0  0  0  0  0
  161.0520  207.7890  153.9470 C   0  0  0  0  0  3  0  0  0  0  0  0
  161.3260  209.2870  151.8840 C   0  0  0  0  0  0  0  0  0  0  0  0
  160.8270  206.5870  154.3910 N   0  0  0  0  0  0  0  0  0  0  0  0
  159.1790  211.9470  154.4230 C   0  0  0  0  0  3  0  0  0  0  0  0
  157.1740  213.5930  153.3990 C   0  0  0  0  0  3  0  0  0  0  0  0
  157.2530  213.3760  154.7830 C   0  0  0  0  0  0  0  0  0  0  0  0
  158.2610  212.5470  155.2890 C   0  0  0  0  0  0  0  0  0  0  0  0
  158.0970  213.0030  152.5310 C   0  0  0  0  0  0  0  0  0  0  0  0
  159.1160  212.1730  153.0390 C   0  0  0  0  0  0  0  0  0  0  0  0
  157.9700  213.2240  151.1970 F   0  0  0  0  0  0  0  0  0  0  0  0
  158.3500  212.3140  156.6220 F   0  0  0  0  0  0  0  0  0  0  0  0
  154.9830  214.1950  155.3250 C   0  0  0  0  0  1  0  0  0  0  0  0
  156.3410  213.9590  155.6680 O   0  0  0  0  0  0  0  0  0  0  0  0
  162.3580  208.2360  148.3210 C   0  0  0  0  0  2  0  0  0  0  0  0
  161.8200  207.0660  147.6400 N   0  0  0  0  0  0  0  0  0  0  0  0
  162.3870  205.7930  147.7280 N   0  0  0  0  0  0  0  0  0  0  0  0
  161.5870  205.0260  147.0810 C   0  0  0  0  0  0  0  0  0  0  0  0
  160.6200  207.0880  146.9110 N   0  0  0  0  0  0  0  0  0  0  0  0
  160.4880  205.7400  146.5320 N   0  0  0  0  0  0  0  0  0  0  0  0
  160.8050  201.4580  147.2960 C   0  0  0  0  0  2  0  0  0  0  0  0
  161.2030  202.7480  147.9820 C   0  0  0  0  0  2  0  0  0  0  0  0
  161.1840  203.0640  145.6310 C   0  0  0  0  0  2  0  0  0  0  0  0
  160.8390  201.6640  145.8490 N   0  0  0  0  0  2  0  0  0  0  0  0
  161.8370  203.5660  146.8920 C   0  0  1  0  0  3  0  0  0  0  0  0
  1  7  2  0  0  0  0
  1  2  1  0  0  0  0
  2 14  1  0  0  0  0
  3 10  1  0  0  0  0
  3  2  2  0  0  0  0
  4 12  2  0  0  0  0
  5 11  1  0  0  0  0
  5 21  1  0  0  0  0
  6 13  1  1  0  0  0
  7  8  1  0  0  0  0
  8  5  2  0  0  0  0
  9  4  1  0  0  0  0
  9  6  1  0  0  0  0
 10  9  2  0  0  0  0
 12 15  1  0  0  0  0
 13 15  2  0  0  0  0
 14 11  2  0  0  0  0
 14  6  1  0  0  0  0
 16 19  1  0  0  0  0
 17 18  1  0  0  0  0
 18 19  2  0  0  0  0
 18 25  1  0  0  0  0
 19 23  1  0  0  0  0
 20 21  1  0  0  0  0
 20 17  2  0  0  0  0
 21 16  2  0  0  0  0
 22 20  1  0  0  0  0
 24 25  1  0  0  0  0
 26  3  1  0  0  0  0
 27 28  1  0  0  0  0
 27 26  1  0  0  0  0
 29 28  2  0  0  0  0
 30 27  1  0  0  0  0
 31 30  2  0  0  0  0
 31 29  1  0  0  0  0
 32 33  1  0  0  0  0
 34 35  1  0  0  0  0
 34 36  1  0  0  0  0
 35 32  1  0  0  0  0
 36 29  1  1  0  0  0
 36 33  1  0  0  0  0
M  END
>  <MODEL>
6

>  <REMARK>
 VINA RESULT:      -8.1      4.530     10.271
  Name = 
  5 active torsions:
  status: ('A' for Active; 'I' for Inactive)
    1  A    between atoms: C_5  and  C_16
    2  A    between atoms: C_7  and  C_26
    3  A    between atoms: N_12  and  C_16
    4  A    between atoms: C_13  and  O_30
    5  A    between atoms: C_20  and  C_23
                            x       y       z     vdW  Elec       q    Type
                         _______ _______ _______ _____ _____    ______ ____

>  <TORSDO>
F 5

$$$$
=
 OpenBabel11072413323D

 36 41  0  0  1  0  0  0  0  0999 V2000
  161.3170  207.8120  153.4140 C   0  0  0  0  0  3  0  0  0  0  0  0
  161.0460  209.0140  152.6030 C   0  0  0  0  0  0  0  0  0  0  0  0
  160.4320  210.0630  153.2060 C   0  0  1  0  0  3  0  0  0  0  0  0
  160.5690  212.8490  150.6310 C   0  0  0  0  0  3  0  0  0  0  0  0
  161.6350  206.7290  150.4790 C   0  0  0  0  0  0  0  0  0  0  0  0
  161.8150  210.6100  150.7520 C   0  0  2  0  0  3  0  0  0  0  0  0
  161.5460  206.5720  153.0040 C   0  0  0  0  0  2  0  0  0  0  0  0
  161.5580  206.0620  151.6330 C   0  0  0  0  0  3  0  0  0  0  0  0
  160.8110  211.5810  151.3210 C   0  0  0  0  0  0  0  0  0  0  0  0
  160.2240  211.3370  152.4900 C   0  0  0  0  0  3  0  0  0  0  0  0
  161.7960  208.1890  150.3520 C   0  0  0  0  0  3  0  0  0  0  0  0
  160.9690  212.9860  149.3640 C   0  0  0  0  0  3  0  0  0  0  0  0
  161.9610  210.7950  149.2560 C   0  0  0  0  0  3  0  0  0  0  0  0
  161.5500  209.1870  151.2100 C   0  0  0  0  0  0  0  0  0  0  0  0
  161.6030  211.8990  148.6670 N   0  0  0  0  0  0  0  0  0  0  0  0
  161.2080  204.5920  149.2660 C   0  0  0  0  0  3  0  0  0  0  0  0
  162.0330  205.6950  146.8410 C   0  0  0  0  0  3  0  0  0  0  0  0
  161.5900  204.3650  146.8820 C   0  0  0  0  0  0  0  0  0  0  0  0
  161.1800  203.8180  148.1030 C   0  0  0  0  0  0  0  0  0  0  0  0
  162.0530  206.4760  148.0000 C   0  0  0  0  0  0  0  0  0  0  0  0
  161.6340  205.9290  149.2290 C   0  0  0  0  0  0  0  0  0  0  0  0
  162.5080  207.7530  147.9190 F   0  0  0  0  0  0  0  0  0  0  0  0
  160.7590  202.5300  148.1680 F   0  0  0  0  0  0  0  0  0  0  0  0
  160.4250  203.4870  144.8840 C   0  0  0  0  0  1  0  0  0  0  0  0
  161.5610  203.5680  145.7330 O   0  0  0  0  0  0  0  0  0  0  0  0
  159.9110  209.9710  154.6110 C   0  0  0  0  0  2  0  0  0  0  0  0
  158.8850  210.9800  154.8380 N   0  0  0  0  0  0  0  0  0  0  0  0
  158.5650  211.9760  153.9150 N   0  0  0  0  0  0  0  0  0  0  0  0
  157.5680  212.5990  154.4270 C   0  0  0  0  0  0  0  0  0  0  0  0
  158.0510  210.9850  155.9680 N   0  0  0  0  0  0  0  0  0  0  0  0
  157.2000  212.0700  155.6930 N   0  0  0  0  0  0  0  0  0  0  0  0
  155.7380  214.3630  151.7940 C   0  0  0  0  0  2  0  0  0  0  0  0
  157.0130  213.7030  152.2770 C   0  0  0  0  0  2  0  0  0  0  0  0
  155.4430  213.8080  154.0520 C   0  0  0  0  0  2  0  0  0  0  0  0
  154.8010  214.4530  152.9130 N   0  0  0  0  0  2  0  0  0  0  0  0
  156.9230  213.7780  153.7750 C   0  0  1  0  0  3  0  0  0  0  0  0
  2  3  1  0  0  0  0
  2  1  2  0  0  0  0
  3 26  1  6  0  0  0
  4  9  1  0  0  0  0
  5  8  2  0  0  0  0
  6 13  1  6  0  0  0
  6 14  1  0  0  0  0
  6  9  1  0  0  0  0
  7  1  1  0  0  0  0
  8  7  1  0  0  0  0
  9 10  2  0  0  0  0
 10  3  1  0  0  0  0
 11  5  1  0  0  0  0
 11 14  2  0  0  0  0
 12  4  2  0  0  0  0
 14  2  1  0  0  0  0
 15 13  2  0  0  0  0
 15 12  1  0  0  0  0
 17 18  2  0  0  0  0
 17 20  1  0  0  0  0
 18 19  1  0  0  0  0
 19 23  1  0  0  0  0
 19 16  2  0  0  0  0
 20 21  2  0  0  0  0
 21 16  1  0  0  0  0
 21  5  1  0  0  0  0
 22 20  1  0  0  0  0
 24 25  1  0  0  0  0
 25 18  1  0  0  0  0
 26 27  1  0  0  0  0
 27 30  1  0  0  0  0
 28 29  2  0  0  0  0
 28 27  1  0  0  0  0
 29 31  1  0  0  0  0
 31 30  2  0  0  0  0
 32 33  1  0  0  0  0
 32 35  1  0  0  0  0
 33 36  1  0  0  0  0
 35 34  1  0  0  0  0
 36 34  1  0  0  0  0
 36 29  1  1  0  0  0
M  END
>  <MODEL>
7

>  <REMARK>
 VINA RESULT:      -8.0      1.975      2.988
  Name = 
  5 active torsions:
  status: ('A' for Active; 'I' for Inactive)
    1  A    between atoms: C_5  and  C_16
    2  A    between atoms: C_7  and  C_26
    3  A    between atoms: N_12  and  C_16
    4  A    between atoms: C_13  and  O_30
    5  A    between atoms: C_20  and  C_23
                            x       y       z     vdW  Elec       q    Type
                         _______ _______ _______ _____ _____    ______ ____

>  <TORSDO>
F 5

$$$$
=
 OpenBabel11072413323D

 36 41  0  0  1  0  0  0  0  0999 V2000
  161.2070  207.6600  147.4940 C   0  0  0  0  0  3  0  0  0  0  0  0
  161.4810  207.3550  148.9100 C   0  0  0  0  0  0  0  0  0  0  0  0
  162.0420  208.3260  149.6730 C   0  0  0  0  0  0  0  0  0  0  0  0
  161.9440  206.9340  153.2030 C   0  0  0  0  0  3  0  0  0  0  0  0
  161.0420  204.5200  147.5490 C   0  0  0  0  0  0  0  0  0  0  0  0
  160.7520  206.1730  151.0640 C   0  0  2  0  0  3  0  0  0  0  0  0
  161.0270  206.8180  146.4850 C   0  0  0  0  0  3  0  0  0  0  0  0
  161.0870  205.3560  146.5090 C   0  0  0  0  0  3  0  0  0  0  0  0
  161.7050  207.1040  151.7690 C   0  0  0  0  0  0  0  0  0  0  0  0
  162.2480  208.1330  151.1220 C   0  0  0  0  0  3  0  0  0  0  0  0
  160.8500  204.9240  148.9540 C   0  0  0  0  0  3  0  0  0  0  0  0
  161.5960  205.7840  153.7880 C   0  0  0  0  0  3  0  0  0  0  0  0
  160.6660  204.8410  151.7780 C   0  0  0  0  0  3  0  0  0  0  0  0
  161.0330  206.0970  149.5740 C   0  0  0  0  0  0  0  0  0  0  0  0
  161.0200  204.7110  153.0230 N   0  0  0  0  0  0  0  0  0  0  0  0
  161.3250  202.1620  148.3100 C   0  0  0  0  0  3  0  0  0  0  0  0
  161.0550  201.1920  145.7090 C   0  0  0  0  0  3  0  0  0  0  0  0
  161.2460  200.2920  146.7680 C   0  0  0  0  0  0  0  0  0  0  0  0
  161.3820  200.7870  148.0700 C   0  0  0  0  0  0  0  0  0  0  0  0
  160.9850  202.5680  145.9460 C   0  0  0  0  0  0  0  0  0  0  0  0
  161.1170  203.0680  147.2570 C   0  0  0  0  0  0  0  0  0  0  0  0
  160.8190  203.4040  144.8900 F   0  0  0  0  0  0  0  0  0  0  0  0
  161.5800  199.9360  149.1080 F   0  0  0  0  0  0  0  0  0  0  0  0
  161.2060  198.3320  145.2600 C   0  0  0  0  0  1  0  0  0  0  0  0
  161.3160  198.9120  146.5520 O   0  0  0  0  0  0  0  0  0  0  0  0
  162.5050  209.6270  149.0820 C   0  0  0  0  0  2  0  0  0  0  0  0
  161.7580  210.7380  149.6530 N   0  0  0  0  0  0  0  0  0  0  0  0
  161.2610  210.7450  150.9570 N   0  0  0  0  0  0  0  0  0  0  0  0
  160.7550  211.9130  151.1160 C   0  0  0  0  0  0  0  0  0  0  0  0
  161.5520  211.9520  148.9770 N   0  0  0  0  0  0  0  0  0  0  0  0
  160.8730  212.7110  149.9460 N   0  0  0  0  0  0  0  0  0  0  0  0
  158.1520  211.8320  153.6870 C   0  0  0  0  0  2  0  0  0  0  0  0
  158.5820  212.1880  152.2790 C   0  0  0  0  0  2  0  0  0  0  0  0
  160.4590  211.4490  153.5270 C   0  0  0  0  0  2  0  0  0  0  0  0
  159.3300  211.4190  154.4490 N   0  0  0  0  0  2  0  0  0  0  0  0
  160.0740  212.3390  152.3750 C   0  0  1  0  0  3  0  0  0  0  0  0
  1  2  1  0  0  0  0
  2 14  1  0  0  0  0
  2  3  2  0  0  0  0
  3 10  1  0  0  0  0
  4 12  2  0  0  0  0
  5 11  1  0  0  0  0
  6  9  1  0  0  0  0
  6 13  1  1  0  0  0
  7  8  1  0  0  0  0
  7  1  2  0  0  0  0
  8  5  2  0  0  0  0
  9  4  1  0  0  0  0
 10  9  2  0  0  0  0
 11 14  2  0  0  0  0
 13 15  2  0  0  0  0
 14  6  1  0  0  0  0
 15 12  1  0  0  0  0
 17 20  2  0  0  0  0
 17 18  1  0  0  0  0
 18 19  2  0  0  0  0
 19 16  1  0  0  0  0
 19 23  1  0  0  0  0
 20 21  1  0  0  0  0
 21  5  1  0  0  0  0
 21 16  2  0  0  0  0
 22 20  1  0  0  0  0
 24 25  1  0  0  0  0
 25 18  1  0  0  0  0
 26 27  1  0  0  0  0
 26  3  1  0  0  0  0
 27 28  1  0  0  0  0
 28 29  2  0  0  0  0
 30 27  1  0  0  0  0
 30 31  2  0  0  0  0
 31 29  1  0  0  0  0
 32 35  1  0  0  0  0
 33 36  1  0  0  0  0
 33 32  1  0  0  0  0
 34 35  1  0  0  0  0
 36 29  1  6  0  0  0
 36 34  1  0  0  0  0
M  END
>  <MODEL>
8

>  <REMARK>
 VINA RESULT:      -7.5      2.114      4.393
  Name = 
  5 active torsions:
  status: ('A' for Active; 'I' for Inactive)
    1  A    between atoms: C_5  and  C_16
    2  A    between atoms: C_7  and  C_26
    3  A    between atoms: N_12  and  C_16
    4  A    between atoms: C_13  and  O_30
    5  A    between atoms: C_20  and  C_23
                            x       y       z     vdW  Elec       q    Type
                         _______ _______ _______ _____ _____    ______ ____

>  <TORSDO>
F 5

$$$$
