=
 OpenBabel11072410133D

 37 40  0  0  1  0  0  0  0  0999 V2000
  161.5630  207.5430  148.8950 C   0  0  0  0  0  0  0  0  0  0  0  0
  161.5970  208.2940  147.8810 O   0  0  0  0  0  0  0  0  0  0  0  0
  163.4430  206.8520  150.9760 O   0  0  0  0  0  0  0  0  0  0  0  0
  161.6410  208.1220  150.2100 N   0  0  0  0  0  0  0  0  0  0  0  0
  162.3830  207.4720  151.2570 C   0  0  0  0  0  0  0  0  0  0  0  0
  161.1310  205.2690  149.8260 O   0  0  0  0  0  0  0  0  0  0  0  0
  161.0140  201.7800  150.7410 C   0  0  0  0  0  3  0  0  0  0  0  0
  161.0860  201.8730  148.3240 N   0  0  0  0  0  0  0  0  0  0  0  0
  161.3990  206.0860  148.7180 C   0  0  0  0  0  0  0  0  0  0  0  0
  160.8410  203.1000  150.8690 C   0  0  0  0  0  3  0  0  0  0  0  0
  161.5140  205.5280  147.5040 C   0  0  0  0  0  3  0  0  0  0  0  0
  161.0520  201.1500  149.4050 C   0  0  0  0  0  3  0  0  0  0  0  0
  161.0600  203.3050  148.3960 C   0  0  0  0  0  0  0  0  0  0  0  0
  161.4000  204.0650  147.3470 C   0  0  0  0  0  0  0  0  0  0  0  0
  160.5790  203.9630  149.6680 C   0  0  2  0  0  3  0  0  0  0  0  0
  161.7530  203.4690  146.1020 N   0  0  0  0  0  1  0  0  0  0  0  0
  161.2100  209.5020  150.4120 C   0  0  0  0  0  2  0  0  0  0  0  0
  162.3870  210.4500  150.2470 C   0  0  0  0  0  2  0  0  0  0  0  0
  161.1490  212.4880  149.5300 O   0  0  0  0  0  1  0  0  0  0  0  0
  162.0610  211.4850  149.2320 C   0  0  0  0  0  0  0  0  0  0  0  0
  162.5860  211.4330  148.0880 O   0  0  0  0  0  0  0  0  0  0  0  0
  161.9580  207.5050  152.5880 O   0  0  0  0  0  0  0  0  0  0  0  0
  160.2370  207.3600  154.3520 C   0  0  2  0  0  3  0  0  0  0  0  0
  161.1530  206.1470  154.3910 C   0  0  0  0  0  2  0  0  0  0  0  0
  160.8250  206.7810  153.0580 C   0  0  2  0  0  3  0  0  0  0  0  0
  159.4830  212.4550  153.8780 C   0  0  2  0  0  3  0  0  0  0  0  0
  161.8910  208.4530  155.6830 O   0  0  0  0  0  0  0  0  0  0  0  0
  161.2960  211.0750  154.9120 C   0  0  0  0  0  2  0  0  0  0  0  0
  158.7540  211.1910  153.4170 C   0  0  0  0  0  2  0  0  0  0  0  0
  160.6000  209.9010  154.3820 N   0  0  0  0  0  0  0  0  0  0  0  0
  160.9440  208.5900  154.8610 C   0  0  0  0  0  0  0  0  0  0  0  0
  160.3110  212.2180  155.1540 C   0  0  2  0  0  3  0  0  0  0  0  0
  159.7640  210.0690  153.1940 C   0  0  0  0  0  2  0  0  0  0  0  0
  157.2470  213.3370  153.6440 O   0  0  0  0  0  1  0  0  0  0  0  0
  158.5690  213.6770  153.9390 C   0  0  0  0  0  2  0  0  0  0  0  0
  159.4580  211.9050  156.3790 C   0  0  0  0  0  2  0  0  0  0  0  0
  160.1660  211.0820  157.2540 O   0  0  0  0  0  1  0  0  0  0  0  0
  1  4  1  0  0  0  0
  2  1  2  0  0  0  0
  3  5  2  0  0  0  0
  4 17  1  0  0  0  0
  4  5  1  0  0  0  0
  5 22  1  0  0  0  0
  7 10  2  0  0  0  0
  8 13  1  0  0  0  0
  8 12  2  0  0  0  0
  9  1  1  0  0  0  0
  9  6  1  0  0  0  0
 11  9  2  0  0  0  0
 12  7  1  0  0  0  0
 13 15  1  0  0  0  0
 14 11  1  0  0  0  0
 14 13  2  0  0  0  0
 15  6  1  0  0  0  0
 15 10  1  1  0  0  0
 16 14  1  0  0  0  0
 18 17  1  0  0  0  0
 20 19  1  0  0  0  0
 20 18  1  0  0  0  0
 21 20  2  0  0  0  0
 23 24  1  0  0  0  0
 23 31  1  1  0  0  0
 25 22  1  1  0  0  0
 25 23  1  0  0  0  0
 25 24  1  0  0  0  0
 26 35  1  1  0  0  0
 26 32  1  0  0  0  0
 28 32  1  0  0  0  0
 29 26  1  0  0  0  0
 30 31  1  0  0  0  0
 30 28  1  0  0  0  0
 31 27  2  0  0  0  0
 32 36  1  1  0  0  0
 33 29  1  0  0  0  0
 33 30  1  0  0  0  0
 34 35  1  0  0  0  0
 36 37  1  0  0  0  0
M  END
>  <MODEL>
1

>  <REMARK>
 VINA RESULT:      -6.7      0.000      0.000
  Name = 
  9 active torsions:
  status: ('A' for Active; 'I' for Inactive)
    1  A    between atoms: C_2  and  C_12
    2  A    between atoms: C_4  and  C_20
    3  A    between atoms: C_5  and  C_6
    4  A    between atoms: C_5  and  N_26
    5  A    between atoms: C_6  and  C_23
    6  A    between atoms: C_10  and  C_29
    7  A    between atoms: O_18  and  C_22
    8  A    between atoms: O_18  and  C_37
    9  A    between atoms: C_27  and  C_34
                            x       y       z     vdW  Elec       q    Type
                         _______ _______ _______ _____ _____    ______ ____

>  <TORSDO>
F 9

$$$$
=
 OpenBabel11072410133D

 37 40  0  0  1  0  0  0  0  0999 V2000
  157.8840  213.4600  151.4780 C   0  0  0  0  0  0  0  0  0  0  0  0
  157.1390  214.4240  151.8090 O   0  0  0  0  0  0  0  0  0  0  0  0
  160.5430  212.6010  152.2110 O   0  0  0  0  0  0  0  0  0  0  0  0
  158.2250  212.4590  152.4530 N   0  0  0  0  0  0  0  0  0  0  0  0
  159.5440  211.8850  152.4870 C   0  0  0  0  0  0  0  0  0  0  0  0
  159.6900  213.6550  149.7670 O   0  0  0  0  0  0  0  0  0  0  0  0
  161.8040  214.2220  146.8990 C   0  0  0  0  0  3  0  0  0  0  0  0
  159.7540  213.2330  146.0780 N   0  0  0  0  0  0  0  0  0  0  0  0
  158.3580  213.3510  150.0830 C   0  0  0  0  0  0  0  0  0  0  0  0
  161.4870  214.0180  148.1810 C   0  0  0  0  0  3  0  0  0  0  0  0
  157.5220  212.9730  149.1060 C   0  0  0  0  0  3  0  0  0  0  0  0
  160.9280  213.7270  145.8160 C   0  0  0  0  0  3  0  0  0  0  0  0
  159.2860  213.1270  147.4290 C   0  0  0  0  0  0  0  0  0  0  0  0
  157.9920  212.9180  147.7080 C   0  0  0  0  0  0  0  0  0  0  0  0
  160.2890  213.1950  148.5570 C   0  0  2  0  0  3  0  0  0  0  0  0
  157.0430  212.7430  146.6600 N   0  0  0  0  0  1  0  0  0  0  0  0
  157.3330  212.2280  153.5850 C   0  0  0  0  0  2  0  0  0  0  0  0
  157.9090  212.8520  154.8460 C   0  0  0  0  0  2  0  0  0  0  0  0
  157.9700  211.7440  157.0760 O   0  0  0  0  0  1  0  0  0  0  0  0
  157.2250  212.2940  156.0410 C   0  0  0  0  0  0  0  0  0  0  0  0
  155.9670  212.2900  156.1020 O   0  0  0  0  0  0  0  0  0  0  0  0
  159.7520  210.5420  152.8160 O   0  0  0  0  0  0  0  0  0  0  0  0
  161.3250  209.1130  154.0720 C   0  0  2  0  0  3  0  0  0  0  0  0
  159.8940  208.6350  154.2600 C   0  0  0  0  0  2  0  0  0  0  0  0
  160.1630  210.1160  154.1110 C   0  0  2  0  0  3  0  0  0  0  0  0
  161.6190  204.8230  151.1980 C   0  0  2  0  0  3  0  0  0  0  0  0
  162.1840  209.7430  151.9350 O   0  0  0  0  0  0  0  0  0  0  0  0
  162.4320  207.1670  150.8750 C   0  0  0  0  0  2  0  0  0  0  0  0
  161.0700  205.1810  152.5800 C   0  0  0  0  0  2  0  0  0  0  0  0
  161.9590  207.4370  152.2330 N   0  0  0  0  0  0  0  0  0  0  0  0
  161.8260  208.7950  152.6860 C   0  0  0  0  0  0  0  0  0  0  0  0
  161.6290  206.0310  150.2430 C   0  0  2  0  0  3  0  0  0  0  0  0
  161.8870  206.3220  153.1770 C   0  0  0  0  0  2  0  0  0  0  0  0
  161.3320  203.3920  149.2740 O   0  0  0  0  0  1  0  0  0  0  0  0
  160.9790  203.5650  150.6140 C   0  0  0  0  0  2  0  0  0  0  0  0
  160.2330  206.5310  149.8870 C   0  0  0  0  0  2  0  0  0  0  0  0
  160.0550  206.5020  148.5040 O   0  0  0  0  0  1  0  0  0  0  0  0
  1  2  2  0  0  0  0
  1  4  1  0  0  0  0
  3  5  2  0  0  0  0
  4  5  1  0  0  0  0
  4 17  1  0  0  0  0
  5 22  1  0  0  0  0
  6  9  1  0  0  0  0
  7 10  2  0  0  0  0
  8 13  1  0  0  0  0
  9  1  1  0  0  0  0
 11  9  2  0  0  0  0
 12  8  2  0  0  0  0
 12  7  1  0  0  0  0
 13 14  2  0  0  0  0
 13 15  1  0  0  0  0
 14 11  1  0  0  0  0
 15 10  1  6  0  0  0
 15  6  1  0  0  0  0
 16 14  1  0  0  0  0
 17 18  1  0  0  0  0
 18 20  1  0  0  0  0
 20 21  2  0  0  0  0
 20 19  1  0  0  0  0
 23 31  1  6  0  0  0
 23 25  1  0  0  0  0
 23 24  1  0  0  0  0
 25 22  1  6  0  0  0
 25 24  1  0  0  0  0
 26 35  1  6  0  0  0
 26 29  1  0  0  0  0
 27 31  2  0  0  0  0
 28 30  1  0  0  0  0
 29 33  1  0  0  0  0
 30 31  1  0  0  0  0
 30 33  1  0  0  0  0
 32 36  1  1  0  0  0
 32 28  1  0  0  0  0
 32 26  1  0  0  0  0
 34 35  1  0  0  0  0
 37 36  1  0  0  0  0
M  END
>  <MODEL>
2

>  <REMARK>
 VINA RESULT:      -5.5      3.023      8.196
  Name = 
  9 active torsions:
  status: ('A' for Active; 'I' for Inactive)
    1  A    between atoms: C_2  and  C_12
    2  A    between atoms: C_4  and  C_20
    3  A    between atoms: C_5  and  C_6
    4  A    between atoms: C_5  and  N_26
    5  A    between atoms: C_6  and  C_23
    6  A    between atoms: C_10  and  C_29
    7  A    between atoms: O_18  and  C_22
    8  A    between atoms: O_18  and  C_37
    9  A    between atoms: C_27  and  C_34
                            x       y       z     vdW  Elec       q    Type
                         _______ _______ _______ _____ _____    ______ ____

>  <TORSDO>
F 9

$$$$
=
 OpenBabel11072410133D

 37 40  0  0  1  0  0  0  0  0999 V2000
  162.3750  208.3260  148.9630 C   0  0  0  0  0  0  0  0  0  0  0  0
  163.1290  208.7870  148.0610 O   0  0  0  0  0  0  0  0  0  0  0  0
  162.6640  207.8200  151.7910 O   0  0  0  0  0  0  0  0  0  0  0  0
  161.9470  209.1830  150.0370 N   0  0  0  0  0  0  0  0  0  0  0  0
  161.8390  208.6790  151.3800 C   0  0  0  0  0  0  0  0  0  0  0  0
  161.5500  206.2340  150.0420 O   0  0  0  0  0  0  0  0  0  0  0  0
  160.7860  202.8880  151.1570 C   0  0  0  0  0  3  0  0  0  0  0  0
  160.7190  202.8570  148.7380 N   0  0  0  0  0  0  0  0  0  0  0  0
  161.9070  206.9280  148.8770 C   0  0  0  0  0  0  0  0  0  0  0  0
  160.8930  204.2190  151.2190 C   0  0  0  0  0  3  0  0  0  0  0  0
  161.8280  206.3050  147.6920 C   0  0  0  0  0  3  0  0  0  0  0  0
  160.6090  202.2050  149.8580 C   0  0  0  0  0  3  0  0  0  0  0  0
  160.9890  204.2650  148.7310 C   0  0  0  0  0  0  0  0  0  0  0  0
  161.4090  204.8920  147.6240 C   0  0  0  0  0  0  0  0  0  0  0  0
  160.7350  205.0640  149.9880 C   0  0  2  0  0  3  0  0  0  0  0  0
  161.5520  204.1820  146.3970 N   0  0  0  0  0  1  0  0  0  0  0  0
  161.8960  210.6260  149.8250 C   0  0  0  0  0  2  0  0  0  0  0  0
  161.5170  210.9340  148.3860 C   0  0  0  0  0  2  0  0  0  0  0  0
  161.3380  213.3260  147.7140 O   0  0  0  0  0  0  0  0  0  0  0  0
  162.1370  212.2180  147.9660 C   0  0  0  0  0  0  0  0  0  0  0  0
  163.3830  212.2940  147.8070 O   0  0  0  0  0  1  0  0  0  0  0  0
  160.8340  209.1150  152.2490 O   0  0  0  0  0  0  0  0  0  0  0  0
  160.0510  209.2790  154.5840 C   0  0  2  0  0  3  0  0  0  0  0  0
  161.4200  208.6210  154.5190 C   0  0  0  0  0  2  0  0  0  0  0  0
  160.4320  208.3800  153.4000 C   0  0  2  0  0  3  0  0  0  0  0  0
  156.7920  213.2770  154.9660 C   0  0  2  0  0  3  0  0  0  0  0  0
  161.2630  211.2470  153.9870 O   0  0  0  0  0  0  0  0  0  0  0  0
  159.1080  213.0300  154.0540 C   0  0  0  0  0  2  0  0  0  0  0  0
  156.7390  211.7840  155.2960 C   0  0  0  0  0  2  0  0  0  0  0  0
  158.9770  211.5960  154.3170 N   0  0  0  0  0  0  0  0  0  0  0  0
  160.1440  210.7560  154.2990 C   0  0  0  0  0  0  0  0  0  0  0  0
  158.2270  213.8340  155.0090 C   0  0  2  0  0  3  0  0  0  0  0  0
  157.6350  211.0130  154.3320 C   0  0  0  0  0  2  0  0  0  0  0  0
  154.9240  213.2700  156.4970 O   0  0  0  0  0  1  0  0  0  0  0  0
  155.7760  214.0950  155.7600 C   0  0  0  0  0  2  0  0  0  0  0  0
  158.8400  213.8170  156.4050 C   0  0  0  0  0  2  0  0  0  0  0  0
  160.2290  213.7290  156.3130 O   0  0  0  0  0  1  0  0  0  0  0  0
  1  4  1  0  0  0  0
  2  1  2  0  0  0  0
  4  5  1  0  0  0  0
  5  3  2  0  0  0  0
  5 22  1  0  0  0  0
  7 10  2  0  0  0  0
  8 12  2  0  0  0  0
  9  1  1  0  0  0  0
  9  6  1  0  0  0  0
 11  9  2  0  0  0  0
 12  7  1  0  0  0  0
 13  8  1  0  0  0  0
 13 15  1  0  0  0  0
 14 11  1  0  0  0  0
 14 13  2  0  0  0  0
 15  6  1  0  0  0  0
 15 10  1  1  0  0  0
 16 14  1  0  0  0  0
 17  4  1  0  0  0  0
 18 17  1  0  0  0  0
 19 20  2  0  0  0  0
 20 18  1  0  0  0  0
 21 20  1  0  0  0  0
 23 31  1  6  0  0  0
 24 23  1  0  0  0  0
 25 22  1  6  0  0  0
 25 24  1  0  0  0  0
 25 23  1  0  0  0  0
 26 32  1  0  0  0  0
 26 29  1  0  0  0  0
 26 35  1  1  0  0  0
 27 31  2  0  0  0  0
 28 30  1  0  0  0  0
 28 32  1  0  0  0  0
 30 33  1  0  0  0  0
 31 30  1  0  0  0  0
 32 36  1  1  0  0  0
 33 29  1  0  0  0  0
 35 34  1  0  0  0  0
 37 36  1  0  0  0  0
M  END
>  <MODEL>
3

>  <REMARK>
 VINA RESULT:      -5.4      1.695      2.023
  Name = 
  9 active torsions:
  status: ('A' for Active; 'I' for Inactive)
    1  A    between atoms: C_2  and  C_12
    2  A    between atoms: C_4  and  C_20
    3  A    between atoms: C_5  and  C_6
    4  A    between atoms: C_5  and  N_26
    5  A    between atoms: C_6  and  C_23
    6  A    between atoms: C_10  and  C_29
    7  A    between atoms: O_18  and  C_22
    8  A    between atoms: O_18  and  C_37
    9  A    between atoms: C_27  and  C_34
                            x       y       z     vdW  Elec       q    Type
                         _______ _______ _______ _____ _____    ______ ____

>  <TORSDO>
F 9

$$$$
=
 OpenBabel11072410133D

 37 40  0  0  1  0  0  0  0  0999 V2000
  157.8190  213.3070  151.9980 C   0  0  0  0  0  0  0  0  0  0  0  0
  157.0100  214.1920  152.3930 O   0  0  0  0  0  0  0  0  0  0  0  0
  160.4890  212.5110  152.7570 O   0  0  0  0  0  0  0  0  0  0  0  0
  158.1760  212.2280  152.8810 N   0  0  0  0  0  0  0  0  0  0  0  0
  159.5210  211.7200  152.9140 C   0  0  0  0  0  0  0  0  0  0  0  0
  157.5240  213.0490  149.5340 O   0  0  0  0  0  0  0  0  0  0  0  0
  157.7260  212.3790  145.9950 C   0  0  0  0  0  3  0  0  0  0  0  0
  159.8460  213.3450  146.6510 N   0  0  0  0  0  0  0  0  0  0  0  0
  158.3510  213.3670  150.6220 C   0  0  0  0  0  0  0  0  0  0  0  0
  157.1530  212.6280  147.1760 C   0  0  0  0  0  3  0  0  0  0  0  0
  159.6260  213.7130  150.3970 C   0  0  0  0  0  3  0  0  0  0  0  0
  159.1020  212.8390  145.7120 C   0  0  0  0  0  3  0  0  0  0  0  0
  159.3420  213.4980  147.9850 C   0  0  0  0  0  0  0  0  0  0  0  0
  160.1620  213.7200  149.0220 C   0  0  0  0  0  0  0  0  0  0  0  0
  157.8480  213.4670  148.2090 C   0  0  2  0  0  3  0  0  0  0  0  0
  161.5640  213.8610  148.8210 N   0  0  0  0  0  1  0  0  0  0  0  0
  157.2540  211.8360  153.9420 C   0  0  0  0  0  2  0  0  0  0  0  0
  157.7320  212.3770  155.2800 C   0  0  0  0  0  2  0  0  0  0  0  0
  156.5250  213.7340  156.9840 O   0  0  0  0  0  1  0  0  0  0  0  0
  156.5670  212.6070  156.1740 C   0  0  0  0  0  0  0  0  0  0  0  0
  155.6330  211.7640  156.2220 O   0  0  0  0  0  0  0  0  0  0  0  0
  159.7890  210.3620  153.1140 O   0  0  0  0  0  0  0  0  0  0  0  0
  161.3090  208.7920  154.2610 C   0  0  2  0  0  3  0  0  0  0  0  0
  159.8630  208.3480  154.4090 C   0  0  0  0  0  2  0  0  0  0  0  0
  160.1810  209.8270  154.3730 C   0  0  2  0  0  3  0  0  0  0  0  0
  161.6180  204.6890  151.1270 C   0  0  2  0  0  3  0  0  0  0  0  0
  162.1540  209.5580  152.1630 O   0  0  0  0  0  0  0  0  0  0  0  0
  162.4150  207.0530  150.9460 C   0  0  0  0  0  2  0  0  0  0  0  0
  161.0730  204.9580  152.5310 C   0  0  0  0  0  2  0  0  0  0  0  0
  161.9470  207.2370  152.3200 N   0  0  0  0  0  0  0  0  0  0  0  0
  161.8060  208.5640  152.8570 C   0  0  0  0  0  0  0  0  0  0  0  0
  161.6160  205.9530  150.2480 C   0  0  2  0  0  3  0  0  0  0  0  0
  161.8860  206.0650  153.1940 C   0  0  0  0  0  2  0  0  0  0  0  0
  161.2640  203.4220  149.1020 O   0  0  0  0  0  1  0  0  0  0  0  0
  160.9840  203.4650  150.4700 C   0  0  0  0  0  2  0  0  0  0  0  0
  160.2160  206.4650  149.9300 C   0  0  0  0  0  2  0  0  0  0  0  0
  160.0090  206.4580  148.5500 O   0  0  0  0  0  1  0  0  0  0  0  0
  1  2  2  0  0  0  0
  1  4  1  0  0  0  0
  3  5  2  0  0  0  0
  4  5  1  0  0  0  0
  4 17  1  0  0  0  0
  5 22  1  0  0  0  0
  6  9  1  0  0  0  0
  7 10  2  0  0  0  0
  8 13  1  0  0  0  0
  9  1  1  0  0  0  0
 11  9  2  0  0  0  0
 12  7  1  0  0  0  0
 12  8  2  0  0  0  0
 13 15  1  0  0  0  0
 13 14  2  0  0  0  0
 14 11  1  0  0  0  0
 15 10  1  6  0  0  0
 15  6  1  0  0  0  0
 16 14  1  0  0  0  0
 17 18  1  0  0  0  0
 18 20  1  0  0  0  0
 20 21  2  0  0  0  0
 20 19  1  0  0  0  0
 23 31  1  6  0  0  0
 23 25  1  0  0  0  0
 23 24  1  0  0  0  0
 25 22  1  6  0  0  0
 25 24  1  0  0  0  0
 26 35  1  6  0  0  0
 26 29  1  0  0  0  0
 27 31  2  0  0  0  0
 28 30  1  0  0  0  0
 29 33  1  0  0  0  0
 30 31  1  0  0  0  0
 30 33  1  0  0  0  0
 32 36  1  1  0  0  0
 32 28  1  0  0  0  0
 32 26  1  0  0  0  0
 34 35  1  0  0  0  0
 37 36  1  0  0  0  0
M  END
>  <MODEL>
4

>  <REMARK>
 VINA RESULT:      -5.4      3.149      8.252
  Name = 
  9 active torsions:
  status: ('A' for Active; 'I' for Inactive)
    1  A    between atoms: C_2  and  C_12
    2  A    between atoms: C_4  and  C_20
    3  A    between atoms: C_5  and  C_6
    4  A    between atoms: C_5  and  N_26
    5  A    between atoms: C_6  and  C_23
    6  A    between atoms: C_10  and  C_29
    7  A    between atoms: O_18  and  C_22
    8  A    between atoms: O_18  and  C_37
    9  A    between atoms: C_27  and  C_34
                            x       y       z     vdW  Elec       q    Type
                         _______ _______ _______ _____ _____    ______ ____

>  <TORSDO>
F 9

$$$$
=
 OpenBabel11072410133D

 37 40  0  0  1  0  0  0  0  0999 V2000
  161.2730  208.0150  153.8180 C   0  0  0  0  0  0  0  0  0  0  0  0
  161.2150  207.6720  155.0320 O   0  0  0  0  0  0  0  0  0  0  0  0
  159.5580  209.5170  152.0460 O   0  0  0  0  0  0  0  0  0  0  0  0
  161.3970  209.4080  153.4790 N   0  0  0  0  0  0  0  0  0  0  0  0
  160.7020  209.9520  152.3430 C   0  0  0  0  0  0  0  0  0  0  0  0
  161.2910  207.3480  151.4140 O   0  0  0  0  0  0  0  0  0  0  0  0
  160.8370  205.9170  148.1330 C   0  0  0  0  0  3  0  0  0  0  0  0
  161.0470  204.0700  149.6840 N   0  0  0  0  0  0  0  0  0  0  0  0
  161.2600  206.9770  152.7670 C   0  0  0  0  0  0  0  0  0  0  0  0
  161.1700  206.8320  149.0490 C   0  0  0  0  0  3  0  0  0  0  0  0
  161.2060  205.6780  153.0910 C   0  0  0  0  0  3  0  0  0  0  0  0
  160.8630  204.4760  148.4620 C   0  0  0  0  0  3  0  0  0  0  0  0
  161.2560  205.0110  150.7460 C   0  0  0  0  0  0  0  0  0  0  0  0
  161.1390  204.6520  152.0320 C   0  0  0  0  0  0  0  0  0  0  0  0
  161.6770  206.4200  150.4010 C   0  0  2  0  0  3  0  0  0  0  0  0
  160.8500  203.3030  152.3860 N   0  0  0  0  0  1  0  0  0  0  0  0
  161.9930  210.3290  154.4410 C   0  0  0  0  0  2  0  0  0  0  0  0
  160.9570  211.3330  154.9200 C   0  0  0  0  0  2  0  0  0  0  0  0
  160.6600  210.2550  157.1460 O   0  0  0  0  0  1  0  0  0  0  0  0
  160.0980  210.7100  155.9610 C   0  0  0  0  0  0  0  0  0  0  0  0
  158.8640  210.5640  155.7560 O   0  0  0  0  0  0  0  0  0  0  0  0
  161.2660  210.9550  151.5490 O   0  0  0  0  0  0  0  0  0  0  0  0
  162.2730  211.6040  149.3910 C   0  0  2  0  0  3  0  0  0  0  0  0
  161.7790  210.1670  149.3450 C   0  0  0  0  0  2  0  0  0  0  0  0
  162.3350  210.7150  150.6400 C   0  0  2  0  0  3  0  0  0  0  0  0
  159.4770  213.8840  145.6840 C   0  0  2  0  0  3  0  0  0  0  0  0
  160.5720  212.8890  150.4670 O   0  0  0  0  0  0  0  0  0  0  0  0
  159.5450  214.1170  148.1740 C   0  0  0  0  0  2  0  0  0  0  0  0
  160.6120  212.8600  145.7270 C   0  0  0  0  0  2  0  0  0  0  0  0
  160.6790  213.1920  148.1540 N   0  0  0  0  0  0  0  0  0  0  0  0
  161.1200  212.5760  149.3750 C   0  0  0  0  0  0  0  0  0  0  0  0
  158.6330  213.8750  146.9710 C   0  0  2  0  0  3  0  0  0  0  0  0
  161.4960  213.1240  146.9430 C   0  0  0  0  0  2  0  0  0  0  0  0
  159.0390  212.7120  143.6190 O   0  0  0  0  0  1  0  0  0  0  0  0
  158.6600  213.8090  144.3960 C   0  0  0  0  0  2  0  0  0  0  0  0
  157.8560  212.5790  147.1750 C   0  0  0  0  0  2  0  0  0  0  0  0
  157.1130  212.6490  148.3530 O   0  0  0  0  0  1  0  0  0  0  0  0
  1  2  2  0  0  0  0
  3  5  2  0  0  0  0
  4  1  1  0  0  0  0
  4 17  1  0  0  0  0
  5  4  1  0  0  0  0
  6  9  1  0  0  0  0
  7 12  1  0  0  0  0
  7 10  2  0  0  0  0
  8 13  1  0  0  0  0
  9 11  2  0  0  0  0
  9  1  1  0  0  0  0
 12  8  2  0  0  0  0
 13 14  2  0  0  0  0
 14 16  1  0  0  0  0
 14 11  1  0  0  0  0
 15 10  1  6  0  0  0
 15 13  1  0  0  0  0
 15  6  1  0  0  0  0
 17 18  1  0  0  0  0
 18 20  1  0  0  0  0
 20 19  1  0  0  0  0
 21 20  2  0  0  0  0
 22  5  1  0  0  0  0
 23 31  1  1  0  0  0
 23 25  1  0  0  0  0
 24 23  1  0  0  0  0
 24 25  1  0  0  0  0
 25 22  1  1  0  0  0
 26 35  1  6  0  0  0
 26 29  1  0  0  0  0
 26 32  1  0  0  0  0
 29 33  1  0  0  0  0
 30 28  1  0  0  0  0
 30 31  1  0  0  0  0
 31 27  2  0  0  0  0
 32 36  1  1  0  0  0
 32 28  1  0  0  0  0
 33 30  1  0  0  0  0
 34 35  1  0  0  0  0
 36 37  1  0  0  0  0
M  END
>  <MODEL>
5

>  <REMARK>
 VINA RESULT:      -5.2      2.893      6.378
  Name = 
  9 active torsions:
  status: ('A' for Active; 'I' for Inactive)
    1  A    between atoms: C_2  and  C_12
    2  A    between atoms: C_4  and  C_20
    3  A    between atoms: C_5  and  C_6
    4  A    between atoms: C_5  and  N_26
    5  A    between atoms: C_6  and  C_23
    6  A    between atoms: C_10  and  C_29
    7  A    between atoms: O_18  and  C_22
    8  A    between atoms: O_18  and  C_37
    9  A    between atoms: C_27  and  C_34
                            x       y       z     vdW  Elec       q    Type
                         _______ _______ _______ _____ _____    ______ ____

>  <TORSDO>
F 9

$$$$
=
 OpenBabel11072410133D

 37 40  0  0  1  0  0  0  0  0999 V2000
  157.9580  213.2700  150.8030 C   0  0  0  0  0  0  0  0  0  0  0  0
  157.0730  214.0110  151.3130 O   0  0  0  0  0  0  0  0  0  0  0  0
  160.8250  213.0460  151.0740 O   0  0  0  0  0  0  0  0  0  0  0  0
  158.6730  212.3390  151.6350 N   0  0  0  0  0  0  0  0  0  0  0  0
  160.0760  212.0990  151.4330 C   0  0  0  0  0  0  0  0  0  0  0  0
  159.5300  213.4540  148.8740 O   0  0  0  0  0  0  0  0  0  0  0  0
  161.3280  214.1570  145.8250 C   0  0  0  0  0  3  0  0  0  0  0  0
  159.0310  213.7150  145.2030 N   0  0  0  0  0  0  0  0  0  0  0  0
  158.2160  213.3380  149.3500 C   0  0  0  0  0  0  0  0  0  0  0  0
  161.1430  213.7790  147.0940 C   0  0  0  0  0  3  0  0  0  0  0  0
  157.2020  213.3010  148.4740 C   0  0  0  0  0  3  0  0  0  0  0  0
  160.2370  214.0330  144.8350 C   0  0  0  0  0  3  0  0  0  0  0  0
  158.7290  213.4470  146.5790 C   0  0  0  0  0  0  0  0  0  0  0  0
  157.4670  213.4230  147.0270 C   0  0  0  0  0  0  0  0  0  0  0  0
  159.8620  213.1260  147.5250 C   0  0  2  0  0  3  0  0  0  0  0  0
  156.3750  213.6150  146.1330 N   0  0  0  0  0  1  0  0  0  0  0  0
  158.0500  211.8520  152.8620 C   0  0  0  0  0  2  0  0  0  0  0  0
  158.6060  212.5950  154.0660 C   0  0  0  0  0  2  0  0  0  0  0  0
  160.4620  212.2100  155.6820 O   0  0  0  0  0  1  0  0  0  0  0  0
  159.4720  211.6860  154.8630 C   0  0  0  0  0  0  0  0  0  0  0  0
  159.3290  210.4390  154.7690 O   0  0  0  0  0  0  0  0  0  0  0  0
  160.6390  210.8320  151.6210 O   0  0  0  0  0  0  0  0  0  0  0  0
  162.4530  209.1590  151.6400 C   0  0  2  0  0  3  0  0  0  0  0  0
  162.2480  209.7480  153.0270 C   0  0  0  0  0  2  0  0  0  0  0  0
  162.0350  210.6250  151.8130 C   0  0  2  0  0  3  0  0  0  0  0  0
  161.3300  206.2460  147.5160 C   0  0  2  0  0  3  0  0  0  0  0  0
  160.4560  207.9510  152.1420 O   0  0  0  0  0  0  0  0  0  0  0  0
  160.0950  206.7920  149.6220 C   0  0  0  0  0  2  0  0  0  0  0  0
  162.4880  207.1540  147.9340 C   0  0  0  0  0  2  0  0  0  0  0  0
  161.1920  207.7070  149.9390 N   0  0  0  0  0  0  0  0  0  0  0  0
  161.3260  208.2290  151.2720 C   0  0  0  0  0  0  0  0  0  0  0  0
  160.5860  205.6550  148.7270 C   0  0  2  0  0  3  0  0  0  0  0  0
  161.9660  208.2710  148.8330 C   0  0  0  0  0  2  0  0  0  0  0  0
  162.3480  205.8270  145.3670 O   0  0  0  0  0  1  0  0  0  0  0  0
  161.7350  205.2170  146.4630 C   0  0  0  0  0  2  0  0  0  0  0  0
  161.4360  204.6910  149.5470 C   0  0  0  0  0  2  0  0  0  0  0  0
  160.8620  203.4200  149.5350 O   0  0  0  0  0  1  0  0  0  0  0  0
  1  2  2  0  0  0  0
  1  4  1  0  0  0  0
  3  5  2  0  0  0  0
  4 17  1  0  0  0  0
  5 22  1  0  0  0  0
  5  4  1  0  0  0  0
  6  9  1  0  0  0  0
  7 10  2  0  0  0  0
  8 13  1  0  0  0  0
  9  1  1  0  0  0  0
 11  9  2  0  0  0  0
 12  8  2  0  0  0  0
 12  7  1  0  0  0  0
 13 14  2  0  0  0  0
 13 15  1  0  0  0  0
 14 11  1  0  0  0  0
 15 10  1  6  0  0  0
 15  6  1  0  0  0  0
 16 14  1  0  0  0  0
 17 18  1  0  0  0  0
 18 20  1  0  0  0  0
 20 19  1  0  0  0  0
 21 20  2  0  0  0  0
 23 31  1  6  0  0  0
 23 25  1  0  0  0  0
 23 24  1  0  0  0  0
 25 22  1  6  0  0  0
 25 24  1  0  0  0  0
 26 35  1  6  0  0  0
 26 29  1  0  0  0  0
 26 32  1  0  0  0  0
 28 30  1  0  0  0  0
 29 33  1  0  0  0  0
 30 31  1  0  0  0  0
 31 27  2  0  0  0  0
 32 36  1  1  0  0  0
 32 28  1  0  0  0  0
 33 30  1  0  0  0  0
 34 35  1  0  0  0  0
 37 36  1  0  0  0  0
M  END
>  <MODEL>
6

>  <REMARK>
 VINA RESULT:      -5.0      3.352      8.427
  Name = 
  9 active torsions:
  status: ('A' for Active; 'I' for Inactive)
    1  A    between atoms: C_2  and  C_12
    2  A    between atoms: C_4  and  C_20
    3  A    between atoms: C_5  and  C_6
    4  A    between atoms: C_5  and  N_26
    5  A    between atoms: C_6  and  C_23
    6  A    between atoms: C_10  and  C_29
    7  A    between atoms: O_18  and  C_22
    8  A    between atoms: O_18  and  C_37
    9  A    between atoms: C_27  and  C_34
                            x       y       z     vdW  Elec       q    Type
                         _______ _______ _______ _____ _____    ______ ____

>  <TORSDO>
F 9

$$$$
=
 OpenBabel11072410133D

 37 40  0  0  1  0  0  0  0  0999 V2000
  156.9550  213.3370  153.7260 C   0  0  0  0  0  0  0  0  0  0  0  0
  155.8530  213.8740  154.0250 O   0  0  0  0  0  0  0  0  0  0  0  0
  159.6870  213.6820  154.5970 O   0  0  0  0  0  0  0  0  0  0  0  0
  157.6500  212.5480  154.7080 N   0  0  0  0  0  0  0  0  0  0  0  0
  159.0840  212.5970  154.8100 C   0  0  0  0  0  0  0  0  0  0  0  0
  156.6510  213.9060  151.3160 O   0  0  0  0  0  0  0  0  0  0  0  0
  156.6120  214.1720  147.7180 C   0  0  0  0  0  3  0  0  0  0  0  0
  158.9100  213.7820  148.3700 N   0  0  0  0  0  0  0  0  0  0  0  0
  157.4920  213.4880  152.3590 C   0  0  0  0  0  0  0  0  0  0  0  0
  156.1980  214.3490  148.9770 C   0  0  0  0  0  3  0  0  0  0  0  0
  158.7780  213.2190  152.0960 C   0  0  0  0  0  3  0  0  0  0  0  0
  158.0440  213.9640  147.4170 C   0  0  0  0  0  3  0  0  0  0  0  0
  158.5040  213.8050  149.7450 C   0  0  0  0  0  0  0  0  0  0  0  0
  159.2920  213.3240  150.7160 C   0  0  0  0  0  0  0  0  0  0  0  0
  157.1830  214.4440  150.1060 C   0  0  2  0  0  3  0  0  0  0  0  0
  160.5880  212.8150  150.4150 N   0  0  0  0  0  1  0  0  0  0  0  0
  156.8940  211.9180  155.7860 C   0  0  0  0  0  2  0  0  0  0  0  0
  156.1180  210.7230  155.2570 C   0  0  0  0  0  2  0  0  0  0  0  0
  154.0700  209.4260  155.8310 O   0  0  0  0  0  0  0  0  0  0  0  0
  154.9800  210.4200  156.1640 C   0  0  0  0  0  0  0  0  0  0  0  0
  154.8230  211.0870  157.2210 O   0  0  0  0  0  1  0  0  0  0  0  0
  159.8370  211.4640  155.1360 O   0  0  0  0  0  0  0  0  0  0  0  0
  161.9520  210.2300  155.4400 C   0  0  2  0  0  3  0  0  0  0  0  0
  161.3270  210.5680  156.7840 C   0  0  0  0  0  2  0  0  0  0  0  0
  161.1690  211.5360  155.6320 C   0  0  2  0  0  3  0  0  0  0  0  0
  161.6540  208.5240  150.5660 C   0  0  2  0  0  3  0  0  0  0  0  0
  160.4990  208.3350  155.4340 O   0  0  0  0  0  0  0  0  0  0  0  0
  160.4160  207.9540  152.6650 C   0  0  0  0  0  2  0  0  0  0  0  0
  162.4630  209.5890  151.3070 C   0  0  0  0  0  2  0  0  0  0  0  0
  161.1610  209.0380  153.3080 N   0  0  0  0  0  0  0  0  0  0  0  0
  161.1810  209.1390  154.7420 C   0  0  0  0  0  0  0  0  0  0  0  0
  161.2110  207.3770  151.4940 C   0  0  2  0  0  3  0  0  0  0  0  0
  161.6450  210.1370  152.4730 C   0  0  0  0  0  2  0  0  0  0  0  0
  161.3800  207.7960  148.2800 O   0  0  0  0  0  1  0  0  0  0  0  0
  162.3240  208.0630  149.2740 C   0  0  0  0  0  2  0  0  0  0  0  0
  162.3740  206.5480  152.0270 C   0  0  0  0  0  2  0  0  0  0  0  0
  161.9370  205.7280  153.0670 O   0  0  0  0  0  1  0  0  0  0  0  0
  1  2  2  0  0  0  0
  1  4  1  0  0  0  0
  3  5  2  0  0  0  0
  4  5  1  0  0  0  0
  4 17  1  0  0  0  0
  5 22  1  0  0  0  0
  6  9  1  0  0  0  0
  7 10  2  0  0  0  0
  8 13  1  0  0  0  0
  9  1  1  0  0  0  0
 11  9  2  0  0  0  0
 12  7  1  0  0  0  0
 12  8  2  0  0  0  0
 13 15  1  0  0  0  0
 13 14  2  0  0  0  0
 14 11  1  0  0  0  0
 15 10  1  6  0  0  0
 15  6  1  0  0  0  0
 16 14  1  0  0  0  0
 18 17  1  0  0  0  0
 18 20  1  0  0  0  0
 19 20  2  0  0  0  0
 20 21  1  0  0  0  0
 23 31  1  6  0  0  0
 23 25  1  0  0  0  0
 23 24  1  0  0  0  0
 25 22  1  6  0  0  0
 25 24  1  0  0  0  0
 26 35  1  6  0  0  0
 26 29  1  0  0  0  0
 26 32  1  0  0  0  0
 28 30  1  0  0  0  0
 29 33  1  0  0  0  0
 30 31  1  0  0  0  0
 31 27  2  0  0  0  0
 32 36  1  1  0  0  0
 32 28  1  0  0  0  0
 33 30  1  0  0  0  0
 34 35  1  0  0  0  0
 36 37  1  0  0  0  0
M  END
>  <MODEL>
7

>  <REMARK>
 VINA RESULT:      -4.7      3.442      8.464
  Name = 
  9 active torsions:
  status: ('A' for Active; 'I' for Inactive)
    1  A    between atoms: C_2  and  C_12
    2  A    between atoms: C_4  and  C_20
    3  A    between atoms: C_5  and  C_6
    4  A    between atoms: C_5  and  N_26
    5  A    between atoms: C_6  and  C_23
    6  A    between atoms: C_10  and  C_29
    7  A    between atoms: O_18  and  C_22
    8  A    between atoms: O_18  and  C_37
    9  A    between atoms: C_27  and  C_34
                            x       y       z     vdW  Elec       q    Type
                         _______ _______ _______ _____ _____    ______ ____

>  <TORSDO>
F 9

$$$$
=
 OpenBabel11072410133D

 37 40  0  0  1  0  0  0  0  0999 V2000
  160.7390  210.7810  154.1300 C   0  0  0  0  0  0  0  0  0  0  0  0
  161.1790  210.9670  155.2990 O   0  0  0  0  0  0  0  0  0  0  0  0
  161.9080  210.8100  151.4890 O   0  0  0  0  0  0  0  0  0  0  0  0
  161.1860  209.6400  153.3760 N   0  0  0  0  0  0  0  0  0  0  0  0
  161.4320  209.7440  151.9620 C   0  0  0  0  0  0  0  0  0  0  0  0
  158.5270  211.9290  154.2480 O   0  0  0  0  0  0  0  0  0  0  0  0
  155.2960  213.4510  153.7370 C   0  0  0  0  0  3  0  0  0  0  0  0
  156.7330  214.2330  151.9530 N   0  0  0  0  0  0  0  0  0  0  0  0
  159.7370  211.7120  153.5720 C   0  0  0  0  0  0  0  0  0  0  0  0
  156.2990  212.8720  154.4030 C   0  0  0  0  0  3  0  0  0  0  0  0
  159.9650  212.3480  152.4150 C   0  0  0  0  0  3  0  0  0  0  0  0
  155.5560  214.2300  152.5080 C   0  0  0  0  0  3  0  0  0  0  0  0
  157.8210  213.5020  152.5350 C   0  0  0  0  0  0  0  0  0  0  0  0
  158.9350  213.2350  151.8400 C   0  0  0  0  0  0  0  0  0  0  0  0
  157.7250  213.0790  153.9820 C   0  0  2  0  0  3  0  0  0  0  0  0
  159.0940  213.7160  150.5090 N   0  0  0  0  0  1  0  0  0  0  0  0
  161.6650  208.4570  154.0830 C   0  0  0  0  0  2  0  0  0  0  0  0
  160.4960  207.6950  154.6860 C   0  0  0  0  0  2  0  0  0  0  0  0
  159.7020  206.9640  156.9320 O   0  0  0  0  0  1  0  0  0  0  0  0
  160.6840  207.5640  156.1550 C   0  0  0  0  0  0  0  0  0  0  0  0
  161.7200  208.0270  156.7010 O   0  0  0  0  0  0  0  0  0  0  0  0
  161.1510  208.6890  151.0890 O   0  0  0  0  0  0  0  0  0  0  0  0
  161.6330  207.1580  149.2130 C   0  0  2  0  0  3  0  0  0  0  0  0
  162.9210  207.6260  149.8720 C   0  0  0  0  0  2  0  0  0  0  0  0
  161.7430  208.5730  149.7990 C   0  0  2  0  0  3  0  0  0  0  0  0
  160.7180  202.0700  149.0190 C   0  0  2  0  0  3  0  0  0  0  0  0
  160.4580  206.5670  151.2060 O   0  0  0  0  0  0  0  0  0  0  0  0
  159.9470  203.8980  150.5440 C   0  0  0  0  0  2  0  0  0  0  0  0
  161.4990  203.0770  148.1720 C   0  0  0  0  0  2  0  0  0  0  0  0
  160.6460  204.8300  149.6570 N   0  0  0  0  0  0  0  0  0  0  0  0
  160.9000  206.1760  150.0920 C   0  0  0  0  0  0  0  0  0  0  0  0
  160.5950  202.5150  150.4880 C   0  0  2  0  0  3  0  0  0  0  0  0
  160.8320  204.4470  148.2570 C   0  0  0  0  0  2  0  0  0  0  0  0
  161.5880  200.3950  147.5140 O   0  0  0  0  0  1  0  0  0  0  0  0
  161.2080  200.6360  148.8360 C   0  0  0  0  0  2  0  0  0  0  0  0
  161.9300  202.5490  151.2230 C   0  0  0  0  0  2  0  0  0  0  0  0
  162.0120  203.6970  152.0100 O   0  0  0  0  0  1  0  0  0  0  0  0
  1  2  2  0  0  0  0
  3  5  2  0  0  0  0
  4 17  1  0  0  0  0
  4  1  1  0  0  0  0
  5  4  1  0  0  0  0
  7 10  2  0  0  0  0
  8 12  2  0  0  0  0
  8 13  1  0  0  0  0
  9  1  1  0  0  0  0
  9  6  1  0  0  0  0
 11  9  2  0  0  0  0
 12  7  1  0  0  0  0
 13 15  1  0  0  0  0
 14 11  1  0  0  0  0
 14 13  2  0  0  0  0
 15  6  1  0  0  0  0
 15 10  1  6  0  0  0
 16 14  1  0  0  0  0
 17 18  1  0  0  0  0
 18 20  1  0  0  0  0
 20 21  2  0  0  0  0
 20 19  1  0  0  0  0
 22  5  1  0  0  0  0
 23 25  1  0  0  0  0
 23 24  1  0  0  0  0
 23 31  1  1  0  0  0
 25 24  1  0  0  0  0
 25 22  1  1  0  0  0
 26 35  1  1  0  0  0
 26 32  1  0  0  0  0
 29 33  1  0  0  0  0
 29 26  1  0  0  0  0
 30 31  1  0  0  0  0
 30 28  1  0  0  0  0
 31 27  2  0  0  0  0
 32 28  1  0  0  0  0
 32 36  1  6  0  0  0
 33 30  1  0  0  0  0
 34 35  1  0  0  0  0
 36 37  1  0  0  0  0
M  END
>  <MODEL>
8

>  <REMARK>
 VINA RESULT:      -4.7      2.413      9.150
  Name = 
  9 active torsions:
  status: ('A' for Active; 'I' for Inactive)
    1  A    between atoms: C_2  and  C_12
    2  A    between atoms: C_4  and  C_20
    3  A    between atoms: C_5  and  C_6
    4  A    between atoms: C_5  and  N_26
    5  A    between atoms: C_6  and  C_23
    6  A    between atoms: C_10  and  C_29
    7  A    between atoms: O_18  and  C_22
    8  A    between atoms: O_18  and  C_37
    9  A    between atoms: C_27  and  C_34
                            x       y       z     vdW  Elec       q    Type
                         _______ _______ _______ _____ _____    ______ ____

>  <TORSDO>
F 9

$$$$
=
 OpenBabel11072410133D

 37 40  0  0  1  0  0  0  0  0999 V2000
  160.8290  208.4260  154.6220 C   0  0  0  0  0  0  0  0  0  0  0  0
  161.0460  207.8030  155.6980 O   0  0  0  0  0  0  0  0  0  0  0  0
  162.4820  209.3580  152.4450 O   0  0  0  0  0  0  0  0  0  0  0  0
  161.0440  207.7650  153.3630 N   0  0  0  0  0  0  0  0  0  0  0  0
  161.6060  208.4760  152.2450 C   0  0  0  0  0  0  0  0  0  0  0  0
  159.6310  210.3460  153.5710 O   0  0  0  0  0  0  0  0  0  0  0  0
  158.4060  213.5060  152.3330 C   0  0  0  0  0  3  0  0  0  0  0  0
  158.9590  213.8310  154.6670 N   0  0  0  0  0  0  0  0  0  0  0  0
  160.3150  209.8100  154.6730 C   0  0  0  0  0  0  0  0  0  0  0  0
  158.5740  212.1810  152.3920 C   0  0  0  0  0  3  0  0  0  0  0  0
  160.5040  210.5700  155.7600 C   0  0  0  0  0  3  0  0  0  0  0  0
  158.5260  214.3370  153.5490 C   0  0  0  0  0  3  0  0  0  0  0  0
  159.3060  212.4420  154.7580 C   0  0  0  0  0  0  0  0  0  0  0  0
  160.0320  211.9680  155.7800 C   0  0  0  0  0  0  0  0  0  0  0  0
  158.7880  211.4890  153.7070 C   0  0  2  0  0  3  0  0  0  0  0  0
  160.4410  212.8270  156.8400 N   0  0  0  0  0  1  0  0  0  0  0  0
  160.9630  206.3090  153.2950 C   0  0  0  0  0  2  0  0  0  0  0  0
  161.8970  205.7790  152.2200 C   0  0  0  0  0  2  0  0  0  0  0  0
  161.7250  203.3060  151.9790 O   0  0  0  0  0  1  0  0  0  0  0  0
  161.3040  204.5710  151.5900 C   0  0  0  0  0  0  0  0  0  0  0  0
  160.4440  204.6930  150.6780 O   0  0  0  0  0  0  0  0  0  0  0  0
  161.2000  208.2190  150.9320 O   0  0  0  0  0  0  0  0  0  0  0  0
  161.8200  208.6410  148.5810 C   0  0  2  0  0  3  0  0  0  0  0  0
  162.7030  209.4430  149.5240 C   0  0  0  0  0  2  0  0  0  0  0  0
  161.2580  209.1950  149.8970 C   0  0  2  0  0  3  0  0  0  0  0  0
  160.5340  204.5030  145.7550 C   0  0  2  0  0  3  0  0  0  0  0  0
  163.0540  206.7830  149.4330 O   0  0  0  0  0  0  0  0  0  0  0  0
  161.8610  204.8060  147.8550 C   0  0  0  0  0  2  0  0  0  0  0  0
  160.2340  206.0030  145.7040 C   0  0  0  0  0  2  0  0  0  0  0  0
  161.4800  206.2180  147.8020 N   0  0  0  0  0  0  0  0  0  0  0  0
  162.1720  207.1760  148.6220 C   0  0  0  0  0  0  0  0  0  0  0  0
  161.8730  204.2000  146.4520 C   0  0  2  0  0  3  0  0  0  0  0  0
  160.2380  206.5760  147.1180 C   0  0  0  0  0  2  0  0  0  0  0  0
  159.7090  202.5890  144.5370 O   0  0  0  0  0  1  0  0  0  0  0  0
  160.3590  203.8180  144.4030 C   0  0  0  0  0  2  0  0  0  0  0  0
  163.0840  204.7190  145.6840 C   0  0  0  0  0  2  0  0  0  0  0  0
  164.2550  204.4040  146.3730 O   0  0  0  0  0  1  0  0  0  0  0  0
  1  9  1  0  0  0  0
  1  2  2  0  0  0  0
  4  1  1  0  0  0  0
  5  3  2  0  0  0  0
  5  4  1  0  0  0  0
  6 15  1  0  0  0  0
  6  9  1  0  0  0  0
  7 10  2  0  0  0  0
  7 12  1  0  0  0  0
  8 13  1  0  0  0  0
  9 11  2  0  0  0  0
 11 14  1  0  0  0  0
 12  8  2  0  0  0  0
 13 14  2  0  0  0  0
 14 16  1  0  0  0  0
 15 10  1  6  0  0  0
 15 13  1  0  0  0  0
 17  4  1  0  0  0  0
 18 17  1  0  0  0  0
 20 19  1  0  0  0  0
 20 18  1  0  0  0  0
 21 20  2  0  0  0  0
 22  5  1  0  0  0  0
 23 31  1  1  0  0  0
 23 24  1  0  0  0  0
 23 25  1  0  0  0  0
 24 25  1  0  0  0  0
 25 22  1  1  0  0  0
 26 35  1  6  0  0  0
 26 32  1  0  0  0  0
 29 26  1  0  0  0  0
 29 33  1  0  0  0  0
 30 28  1  0  0  0  0
 30 31  1  0  0  0  0
 31 27  2  0  0  0  0
 32 36  1  6  0  0  0
 32 28  1  0  0  0  0
 33 30  1  0  0  0  0
 35 34  1  0  0  0  0
 36 37  1  0  0  0  0
M  END
>  <MODEL>
9

>  <REMARK>
 VINA RESULT:      -4.6      2.293      9.313
  Name = 
  9 active torsions:
  status: ('A' for Active; 'I' for Inactive)
    1  A    between atoms: C_2  and  C_12
    2  A    between atoms: C_4  and  C_20
    3  A    between atoms: C_5  and  C_6
    4  A    between atoms: C_5  and  N_26
    5  A    between atoms: C_6  and  C_23
    6  A    between atoms: C_10  and  C_29
    7  A    between atoms: O_18  and  C_22
    8  A    between atoms: O_18  and  C_37
    9  A    between atoms: C_27  and  C_34
                            x       y       z     vdW  Elec       q    Type
                         _______ _______ _______ _____ _____    ______ ____

>  <TORSDO>
F 9

$$$$
