=
 OpenBabel11072412103D

 50 54  0  0  1  0  0  0  0  0999 V2000
  160.4250  212.2420  147.3140 N   0  0  0  0  0  2  0  0  0  0  0  0
  158.0220  214.3730  149.3720 C   0  0  0  0  0  2  0  0  0  0  0  0
  157.9220  212.8610  151.1370 C   0  0  1  0  0  3  0  0  0  0  0  0
  159.0580  210.4050  155.6190 O   0  0  0  0  0  0  0  0  0  0  0  0
  158.3460  213.3320  148.2920 C   0  0  2  0  0  3  0  0  0  0  0  0
  162.3040  209.0790  149.2880 C   0  0  1  0  0  3  0  0  0  0  0  0
  162.3440  211.5290  148.6030 C   0  0  0  0  0  0  0  0  0  0  0  0
  158.9200  212.0450  151.9410 C   0  0  0  0  0  2  0  0  0  0  0  0
  162.6790  209.3170  151.6170 C   0  0  0  0  0  3  0  0  0  0  0  0
  158.6050  213.9800  150.5920 O   0  0  0  0  0  0  0  0  0  0  0  0
  157.9950  211.9210  148.7910 C   0  0  0  0  0  2  0  0  0  0  0  0
  161.3850  208.2080  154.7590 F   0  0  0  0  0  0  0  0  0  0  0  0
  159.7210  209.1240  153.3110 C   0  0  0  0  0  2  0  0  0  0  0  0
  162.1650  212.1630  149.6310 O   0  0  0  0  0  0  0  0  0  0  0  0
  162.2190  209.6140  153.0100 C   0  0  1  0  0  3  0  0  0  0  0  0
  161.7730  211.0820  153.1230 C   0  0  0  0  0  2  0  0  0  0  0  0
  161.1500  211.3440  154.3530 O   0  0  0  0  0  0  0  0  0  0  0  0
  160.4660  214.4460  148.0680 O   0  0  0  0  0  0  0  0  0  0  0  0
  161.8710  212.0720  147.2900 C   0  0  0  0  0  2  0  0  0  0  0  0
  161.1480  208.5960  153.4520 C   0  0  1  0  0  3  0  0  0  0  0  0
  163.0900  210.2280  148.6420 C   0  0  0  0  0  2  0  0  0  0  0  0
  157.2270  211.9400  150.1110 C   0  0  0  0  0  2  0  0  0  0  0  0
  159.8010  213.3860  147.9030 C   0  0  0  0  0  0  0  0  0  0  0  0
  161.8660  209.3900  150.6270 N   0  0  0  0  0  0  0  0  0  0  0  0
  158.4550  211.8360  153.3770 C   0  0  1  0  0  3  0  0  0  0  0  0
  159.5830  210.6900  154.2300 P   0  0  2  0  0  0  0  0  0  0  0  0
  158.9740  214.1440  153.6500 O   0  0  0  0  0  0  0  0  0  0  0  0
  157.6550  213.2210  155.3510 N   0  0  0  0  0  2  0  0  0  0  0  0
  158.3820  213.1350  154.1170 C   0  0  0  0  0  0  0  0  0  0  0  0
  157.6090  214.4050  156.2070 C   0  0  2  0  0  3  0  0  0  0  0  0
  158.8200  214.4520  157.1220 C   0  0  0  0  0  1  0  0  0  0  0  0
  156.3240  214.4430  157.0260 C   0  0  0  0  0  2  0  0  0  0  0  0
  155.2170  213.6540  156.3370 C   0  0  1  0  0  3  0  0  0  0  0  0
  154.3490  212.0920  157.2390 C   0  0  0  0  0  2  0  0  0  0  0  0
  155.4790  212.2770  156.4270 O   0  0  0  0  0  0  0  0  0  0  0  0
  154.0010  213.5540  157.2170 C   0  0  0  0  0  2  0  0  0  0  0  0
  161.1410  208.5940  148.4160 C   0  0  2  0  0  3  0  0  0  0  0  0
  160.0210  208.3090  149.1980 O   0  0  0  0  0  1  0  0  0  0  0  0
  161.5350  207.3450  147.6390 C   0  0  0  0  0  2  0  0  0  0  0  0
  160.7410  206.1250  148.1000 C   0  0  1  0  0  3  0  0  0  0  0  0
  160.4880  202.4290  145.8620 C   0  0  2  0  0  3  0  0  0  0  0  0
  160.9860  204.9440  147.2110 C   0  0  0  0  0  0  0  0  0  0  0  0
  160.6750  201.1070  145.2940 N   0  0  0  0  0  1  0  0  0  0  0  0
  161.2610  203.6740  144.7830 S   0  0  0  0  0  0  0  0  0  0  0  0
  161.3070  203.6500  147.8470 C   0  0  0  0  0  3  0  0  0  0  0  0
  160.8400  205.0380  145.8810 C   0  0  0  0  0  3  0  0  0  0  0  0
  161.1110  202.4850  147.2240 C   0  0  0  0  0  3  0  0  0  0  0  0
  159.9370  205.5220  150.4000 O   0  0  0  0  0  1  0  0  0  0  0  0
  162.1730  205.8000  149.9790 O   0  0  0  0  0  0  0  0  0  0  0  0
  160.9940  205.8010  149.5400 C   0  0  0  0  0  0  0  0  0  0  0  0
  1 23  1  0  0  0  0
  2 10  1  0  0  0  0
  3 22  1  6  0  0  0
  3  8  1  0  0  0  0
  5 11  1  1  0  0  0
  5  2  1  0  0  0  0
  6 37  1  6  0  0  0
  6 24  1  0  0  0  0
  7 21  1  0  0  0  0
  7 14  2  0  0  0  0
  8 25  1  0  0  0  0
 10  3  1  0  0  0  0
 11 22  1  0  0  0  0
 13 20  1  0  0  0  0
 13 26  1  0  0  0  0
 15  9  1  6  0  0  0
 15 16  1  0  0  0  0
 15 20  1  0  0  0  0
 16 17  1  0  0  0  0
 19  1  1  0  0  0  0
 19  7  1  0  0  0  0
 20 12  1  1  0  0  0
 21  6  1  0  0  0  0
 23 18  2  0  0  0  0
 23  5  1  0  0  0  0
 24  9  2  0  0  0  0
 25 29  1  1  0  0  0
 25 26  1  0  0  0  0
 26 17  1  0  0  0  0
 26  4  2  1  0  0  0
 27 29  2  0  0  0  0
 28 30  1  0  0  0  0
 29 28  1  0  0  0  0
 30 32  1  0  0  0  0
 30 31  1  1  0  0  0
 33 35  1  0  0  0  0
 33 32  1  1  0  0  0
 33 36  1  0  0  0  0
 35 34  1  0  0  0  0
 36 34  1  0  0  0  0
 37 38  1  1  0  0  0
 39 37  1  0  0  0  0
 40 39  1  6  0  0  0
 40 50  1  0  0  0  0
 41 43  1  6  0  0  0
 41 47  1  0  0  0  0
 42 45  1  0  0  0  0
 42 40  1  0  0  0  0
 44 41  1  0  0  0  0
 44 46  1  0  0  0  0
 46 42  2  0  0  0  0
 47 45  2  0  0  0  0
 50 49  2  0  0  0  0
 50 48  1  0  0  0  0
M  END
>  <MODEL>
1

>  <REMARK>
 VINA RESULT:       4.1      0.000      0.000
  Name = 
  9 active torsions:
  status: ('A' for Active; 'I' for Inactive)
    1  A    between atoms: C_2  and  C_12
    2  A    between atoms: C_4  and  C_12
    3  A    between atoms: C_4  and  N_36
    4  A    between atoms: C_7  and  C_16
    5  A    between atoms: C_7  and  C_33
    6  A    between atoms: C_7  and  C_42
    7  A    between atoms: C_14  and  C_18
    8  A    between atoms: C_18  and  C_33
    9  A    between atoms: C_40  and  C_48
                            x       y       z     vdW  Elec       q    Type
                         _______ _______ _______ _____ _____    ______ ____

>  <TORSDO>
F 9

$$$$
=
 OpenBabel11072412103D

 50 54  0  0  1  0  0  0  0  0999 V2000
  160.2180  213.0330  151.3620 N   0  0  0  0  0  2  0  0  0  0  0  0
  161.1390  211.9570  147.8210 C   0  0  0  0  0  2  0  0  0  0  0  0
  162.1450  209.9730  148.5010 C   0  0  1  0  0  3  0  0  0  0  0  0
  162.7750  204.9490  149.8350 O   0  0  0  0  0  0  0  0  0  0  0  0
  161.3930  212.7190  149.1290 C   0  0  2  0  0  3  0  0  0  0  0  0
  160.4990  210.1290  154.3490 C   0  0  1  0  0  3  0  0  0  0  0  0
  159.0780  211.2810  152.5800 C   0  0  0  0  0  0  0  0  0  0  0  0
  161.8040  208.8420  149.4570 C   0  0  0  0  0  2  0  0  0  0  0  0
  160.1690  207.8700  153.7070 C   0  0  0  0  0  3  0  0  0  0  0  0
  160.9310  210.5940  148.1030 O   0  0  0  0  0  0  0  0  0  0  0  0
  162.4890  212.0180  149.9480 C   0  0  0  0  0  2  0  0  0  0  0  0
  162.0110  204.8770  153.0590 F   0  0  0  0  0  0  0  0  0  0  0  0
  162.8190  206.7750  151.8540 C   0  0  0  0  0  2  0  0  0  0  0  0
  158.9260  210.4590  151.6900 O   0  0  0  0  0  0  0  0  0  0  0  0
  160.4550  206.6830  152.8420 C   0  0  1  0  0  3  0  0  0  0  0  0
  160.0200  206.9620  151.3920 C   0  0  0  0  0  2  0  0  0  0  0  0
  160.4540  205.9550  150.5160 O   0  0  0  0  0  0  0  0  0  0  0  0
  159.0030  212.7540  149.3940 O   0  0  0  0  0  0  0  0  0  0  0  0
  159.1080  212.7430  152.2580 C   0  0  0  0  0  2  0  0  0  0  0  0
  161.9300  206.2560  152.9840 C   0  0  1  0  0  3  0  0  0  0  0  0
  159.1780  210.8330  154.0080 C   0  0  0  0  0  2  0  0  0  0  0  0
  163.1810  210.9020  149.1680 C   0  0  0  0  0  2  0  0  0  0  0  0
  160.1330  212.8230  149.9510 C   0  0  0  0  0  0  0  0  0  0  0  0
  160.7560  208.9920  153.4980 N   0  0  0  0  0  0  0  0  0  0  0  0
  162.3770  207.5110  148.9860 C   0  0  1  0  0  3  0  0  0  0  0  0
  162.1130  206.2400  150.2630 P   0  0  2  0  0  0  0  0  0  0  0  0
  160.5640  207.4040  147.4460 O   0  0  0  0  0  0  0  0  0  0  0  0
  162.5100  206.2990  146.7570 N   0  0  0  0  0  2  0  0  0  0  0  0
  161.7550  207.0810  147.6940 C   0  0  0  0  0  0  0  0  0  0  0  0
  161.9710  205.7360  145.5210 C   0  0  2  0  0  3  0  0  0  0  0  0
  160.5120  206.1200  145.3480 C   0  0  0  0  0  1  0  0  0  0  0  0
  162.1270  204.2200  145.4930 C   0  0  0  0  0  2  0  0  0  0  0  0
  160.9370  203.5380  146.1570 C   0  0  1  0  0  3  0  0  0  0  0  0
  161.0570  201.6450  146.7970 C   0  0  0  0  0  2  0  0  0  0  0  0
  160.7270  202.2730  145.5850 O   0  0  0  0  0  0  0  0  0  0  0  0
  161.3260  202.9530  147.4870 C   0  0  0  0  0  2  0  0  0  0  0  0
  161.6920  211.0900  154.3770 C   0  0  2  0  0  3  0  0  0  0  0  0
  162.8180  210.4660  154.9130 O   0  0  0  0  0  1  0  0  0  0  0  0
  161.3680  212.3270  155.2040 C   0  0  0  0  0  2  0  0  0  0  0  0
  160.7850  211.9530  156.5650 C   0  0  1  0  0  3  0  0  0  0  0  0
  156.6440  212.9420  155.7890 C   0  0  2  0  0  3  0  0  0  0  0  0
  159.3360  212.3250  156.6610 C   0  0  0  0  0  0  0  0  0  0  0  0
  155.3370  213.5650  155.6770 N   0  0  0  0  0  1  0  0  0  0  0  0
  156.6870  211.8690  157.2590 S   0  0  0  0  0  0  0  0  0  0  0  0
  158.9440  213.6960  156.2790 C   0  0  0  0  0  3  0  0  0  0  0  0
  158.4110  211.4170  157.0040 C   0  0  0  0  0  3  0  0  0  0  0  0
  157.6980  214.0010  155.9050 C   0  0  0  0  0  3  0  0  0  0  0  0
  159.9700  209.5950  156.8330 O   0  0  0  0  0  0  0  0  0  0  0  0
  162.1580  210.1310  157.2610 O   0  0  0  0  0  1  0  0  0  0  0  0
  161.0140  210.5110  156.8990 C   0  0  0  0  0  0  0  0  0  0  0  0
  1 19  1  0  0  0  0
  2 10  1  0  0  0  0
  3 22  1  1  0  0  0
  3  8  1  0  0  0  0
  5  2  1  6  0  0  0
  5 11  1  0  0  0  0
  5 23  1  0  0  0  0
  6 37  1  6  0  0  0
  7 21  1  0  0  0  0
 10  3  1  0  0  0  0
 13 20  1  0  0  0  0
 14  7  2  0  0  0  0
 15 16  1  6  0  0  0
 15 20  1  0  0  0  0
 15  9  1  0  0  0  0
 17 16  1  0  0  0  0
 18 23  2  0  0  0  0
 19  7  1  0  0  0  0
 20 12  1  6  0  0  0
 21  6  1  0  0  0  0
 22 11  1  0  0  0  0
 23  1  1  0  0  0  0
 24  9  2  0  0  0  0
 24  6  1  0  0  0  0
 25 29  1  6  0  0  0
 25  8  1  0  0  0  0
 25 26  1  0  0  0  0
 26  4  2  6  0  0  0
 26 17  1  0  0  0  0
 26 13  1  0  0  0  0
 27 29  2  0  0  0  0
 28 29  1  0  0  0  0
 30 31  1  1  0  0  0
 30 28  1  0  0  0  0
 32 30  1  0  0  0  0
 33 32  1  6  0  0  0
 33 36  1  0  0  0  0
 34 36  1  0  0  0  0
 35 33  1  0  0  0  0
 35 34  1  0  0  0  0
 37 38  1  1  0  0  0
 37 39  1  0  0  0  0
 40 39  1  6  0  0  0
 40 42  1  0  0  0  0
 40 50  1  0  0  0  0
 41 43  1  1  0  0  0
 41 47  1  0  0  0  0
 41 44  1  0  0  0  0
 42 46  2  0  0  0  0
 45 42  1  0  0  0  0
 46 44  1  0  0  0  0
 47 45  2  0  0  0  0
 48 50  2  0  0  0  0
 50 49  1  0  0  0  0
M  END
>  <MODEL>
2

>  <REMARK>
 VINA RESULT:       5.3      3.292      9.626
  Name = 
  9 active torsions:
  status: ('A' for Active; 'I' for Inactive)
    1  A    between atoms: C_2  and  C_12
    2  A    between atoms: C_4  and  C_12
    3  A    between atoms: C_4  and  N_36
    4  A    between atoms: C_7  and  C_16
    5  A    between atoms: C_7  and  C_33
    6  A    between atoms: C_7  and  C_42
    7  A    between atoms: C_14  and  C_18
    8  A    between atoms: C_18  and  C_33
    9  A    between atoms: C_40  and  C_48
                            x       y       z     vdW  Elec       q    Type
                         _______ _______ _______ _____ _____    ______ ____

>  <TORSDO>
F 9

$$$$
=
 OpenBabel11072412103D

 50 54  0  0  1  0  0  0  0  0999 V2000
  160.9470  211.2710  149.3420 N   0  0  0  0  0  2  0  0  0  0  0  0
  159.3300  213.1740  152.2260 C   0  0  0  0  0  2  0  0  0  0  0  0
  158.9310  211.2610  153.4890 C   0  0  1  0  0  3  0  0  0  0  0  0
  159.6260  207.3480  156.8970 O   0  0  0  0  0  0  0  0  0  0  0  0
  159.2980  212.4710  150.8620 C   0  0  2  0  0  3  0  0  0  0  0  0
  162.0200  207.3020  150.0670 C   0  0  1  0  0  3  0  0  0  0  0  0
  162.6760  209.7600  150.1020 C   0  0  0  0  0  0  0  0  0  0  0  0
  159.7180  210.0240  153.8850 C   0  0  0  0  0  2  0  0  0  0  0  0
  162.5810  206.7150  152.2950 C   0  0  0  0  0  3  0  0  0  0  0  0
  159.8560  212.2970  153.1940 O   0  0  0  0  0  0  0  0  0  0  0  0
  158.6110  211.1010  150.9860 C   0  0  0  0  0  2  0  0  0  0  0  0
  161.2220  205.0350  155.1420 F   0  0  0  0  0  0  0  0  0  0  0  0
  159.7840  206.7220  154.2530 C   0  0  0  0  0  2  0  0  0  0  0  0
  162.7350  210.0700  151.2820 O   0  0  0  0  0  0  0  0  0  0  0  0
  162.3000  206.6690  153.7640 C   0  0  1  0  0  3  0  0  0  0  0  0
  162.2720  208.0930  154.3470 C   0  0  0  0  0  2  0  0  0  0  0  0
  161.8150  208.1040  155.6730 O   0  0  0  0  0  0  0  0  0  0  0  0
  161.6230  213.0600  150.6740 O   0  0  0  0  0  0  0  0  0  0  0  0
  162.2900  210.7780  149.0740 C   0  0  0  0  0  2  0  0  0  0  0  0
  161.0230  205.8510  154.0430 C   0  0  1  0  0  3  0  0  0  0  0  0
  163.0460  208.3720  149.6710 C   0  0  0  0  0  2  0  0  0  0  0  0
  157.9560  210.8950  152.3500 C   0  0  0  0  0  2  0  0  0  0  0  0
  160.6890  212.2930  150.3090 C   0  0  0  0  0  0  0  0  0  0  0  0
  161.7610  207.2820  151.4860 N   0  0  0  0  0  0  0  0  0  0  0  0
  159.2990  209.5010  155.2540 C   0  0  1  0  0  3  0  0  0  0  0  0
  160.1260  207.9130  155.5860 P   0  0  2  0  0  0  0  0  0  0  0  0
  158.7920  210.6770  157.2610 O   0  0  0  0  0  0  0  0  0  0  0  0
  160.8590  211.2120  156.3000 N   0  0  0  0  0  2  0  0  0  0  0  0
  159.6220  210.4870  156.3330 C   0  0  0  0  0  0  0  0  0  0  0  0
  161.2260  212.2710  157.2370 C   0  0  2  0  0  3  0  0  0  0  0  0
  160.4780  213.5530  156.9190 C   0  0  0  0  0  1  0  0  0  0  0  0
  162.7300  212.5190  157.2270 C   0  0  0  0  0  2  0  0  0  0  0  0
  163.4900  211.2410  156.8920 C   0  0  1  0  0  3  0  0  0  0  0  0
  164.9640  211.2410  155.5370 C   0  0  0  0  0  2  0  0  0  0  0  0
  163.5690  211.0790  155.4990 O   0  0  0  0  0  0  0  0  0  0  0  0
  164.9730  211.4470  157.0270 C   0  0  0  0  0  2  0  0  0  0  0  0
  160.7200  207.4020  149.2610 C   0  0  2  0  0  3  0  0  0  0  0  0
  159.6370  206.9390  150.0090 O   0  0  0  0  0  1  0  0  0  0  0  0
  160.8200  206.5910  147.9760 C   0  0  0  0  0  2  0  0  0  0  0  0
  162.0010  205.6240  148.0150 C   0  0  1  0  0  3  0  0  0  0  0  0
  159.8980  202.2170  149.6600 C   0  0  2  0  0  3  0  0  0  0  0  0
  161.5830  204.2690  148.5020 C   0  0  0  0  0  0  0  0  0  0  0  0
  159.4480  201.0730  150.4320 N   0  0  0  0  0  1  0  0  0  0  0  0
  160.8090  201.6450  148.1910 S   0  0  0  0  0  0  0  0  0  0  0  0
  161.5400  204.0390  149.9600 C   0  0  0  0  0  3  0  0  0  0  0  0
  161.1830  203.3190  147.6440 C   0  0  0  0  0  3  0  0  0  0  0  0
  160.7910  203.0750  150.5040 C   0  0  0  0  0  3  0  0  0  0  0  0
  162.0610  205.9100  145.5230 O   0  0  0  0  0  0  0  0  0  0  0  0
  163.8970  205.1340  146.6540 O   0  0  0  0  0  1  0  0  0  0  0  0
  162.7100  205.5480  146.6980 C   0  0  0  0  0  0  0  0  0  0  0  0
  1 23  1  0  0  0  0
  2 10  1  0  0  0  0
  3 22  1  6  0  0  0
  3  8  1  0  0  0  0
  5 11  1  1  0  0  0
  5  2  1  0  0  0  0
  6 37  1  6  0  0  0
  6 24  1  0  0  0  0
  7 14  2  0  0  0  0
  8 25  1  0  0  0  0
 10  3  1  0  0  0  0
 11 22  1  0  0  0  0
 13 26  1  0  0  0  0
 15  9  1  6  0  0  0
 15 20  1  0  0  0  0
 15 16  1  0  0  0  0
 16 17  1  0  0  0  0
 19  1  1  0  0  0  0
 19  7  1  0  0  0  0
 20 13  1  0  0  0  0
 20 12  1  1  0  0  0
 21  6  1  0  0  0  0
 21  7  1  0  0  0  0
 23 18  2  0  0  0  0
 23  5  1  0  0  0  0
 24  9  2  0  0  0  0
 25 26  1  0  0  0  0
 25 29  1  1  0  0  0
 26 17  1  0  0  0  0
 26  4  2  1  0  0  0
 28 29  1  0  0  0  0
 28 30  1  0  0  0  0
 29 27  2  0  0  0  0
 30 31  1  6  0  0  0
 32 30  1  0  0  0  0
 33 36  1  0  0  0  0
 33 32  1  6  0  0  0
 34 36  1  0  0  0  0
 35 34  1  0  0  0  0
 35 33  1  0  0  0  0
 37 38  1  1  0  0  0
 39 37  1  0  0  0  0
 40 39  1  6  0  0  0
 40 42  1  0  0  0  0
 41 43  1  1  0  0  0
 41 47  1  0  0  0  0
 42 45  1  0  0  0  0
 44 41  1  0  0  0  0
 45 47  2  0  0  0  0
 46 44  1  0  0  0  0
 46 42  2  0  0  0  0
 48 50  2  0  0  0  0
 49 50  1  0  0  0  0
 50 40  1  0  0  0  0
M  END
>  <MODEL>
3

>  <REMARK>
 VINA RESULT:       6.8      2.703      4.148
  Name = 
  9 active torsions:
  status: ('A' for Active; 'I' for Inactive)
    1  A    between atoms: C_2  and  C_12
    2  A    between atoms: C_4  and  C_12
    3  A    between atoms: C_4  and  N_36
    4  A    between atoms: C_7  and  C_16
    5  A    between atoms: C_7  and  C_33
    6  A    between atoms: C_7  and  C_42
    7  A    between atoms: C_14  and  C_18
    8  A    between atoms: C_18  and  C_33
    9  A    between atoms: C_40  and  C_48
                            x       y       z     vdW  Elec       q    Type
                         _______ _______ _______ _____ _____    ______ ____

>  <TORSDO>
F 9

$$$$
