=
 OpenBabel11072415213D

 63 66  0  0  1  0  0  0  0  0999 V2000
  163.7380  209.5040  148.0290 F   0  0  0  0  0  0  0  0  0  0  0  0
  161.1350  208.2640  150.3850 C   0  0  1  0  0  3  0  0  0  0  0  0
  161.2930  209.4130  152.6720 C   0  0  2  0  0  3  0  0  0  0  0  0
  161.2380  211.9060  152.3520 C   0  0  1  0  0  3  0  0  0  0  0  0
  161.3320  213.2120  150.5600 C   0  0  0  0  0  2  0  0  0  0  0  0
  160.6150  211.0540  148.4490 C   0  0  0  0  0  2  0  0  0  0  0  0
  159.0040  208.6230  152.7660 O   0  0  0  0  0  0  0  0  0  0  0  0
  160.1460  207.2980  150.1530 O   0  0  0  0  0  1  0  0  0  0  0  0
  161.6870  208.2050  151.8150 C   0  0  1  0  0  3  0  0  0  0  0  0
  162.5480  209.5350  148.7270 C   0  0  1  0  0  3  0  0  0  0  0  0
  160.2540  211.8840  153.5370 C   0  0  1  0  0  0  0  0  0  0  0  0
  159.8040  209.5850  152.8990 C   0  0  0  0  0  0  0  0  0  0  0  0
  161.4140  209.9420  147.7950 C   0  0  0  0  0  2  0  0  0  0  0  0
  161.9790  210.6350  152.1930 N   0  0  0  0  0  0  0  0  0  0  0  0
  160.8480  213.4920  149.1370 C   0  0  1  0  0  3  0  0  0  0  0  0
  162.2950  208.1840  149.3850 C   0  0  2  0  0  3  0  0  0  0  0  0
  159.3320  210.8200  153.3360 O   0  0  0  0  0  0  0  0  0  0  0  0
  160.5610  212.2080  151.1640 O   0  0  0  0  0  0  0  0  0  0  0  0
  163.1990  210.7660  152.9650 C   0  0  0  0  0  1  0  0  0  0  0  0
  162.2100  207.0330  148.3840 C   0  0  0  0  0  1  0  0  0  0  0  0
  160.9660  211.6680  154.7250 O   0  0  0  0  0  1  0  0  0  0  0  0
  161.2840  212.3860  148.1700 C   0  0  0  0  0  2  0  0  0  0  0  0
  158.8420  214.2280  147.6630 C   0  0  2  0  0  3  0  0  0  0  0  0
  158.4200  212.8330  149.4990 C   0  0  0  0  0  0  0  0  0  0  0  0
  156.6220  213.6890  146.8220 N   0  0  0  0  0  1  0  0  0  0  0  0
  158.2840  212.4170  150.6790 O   0  0  0  0  0  0  0  0  0  0  0  0
  159.3560  213.9160  149.0970 C   0  0  1  0  0  3  0  0  0  0  0  0
  157.8650  213.1010  147.2770 C   0  0  2  0  0  3  0  0  0  0  0  0
  157.6300  212.3800  148.4660 O   0  0  0  0  0  0  0  0  0  0  0  0
  159.9320  214.4400  146.6000 C   0  0  0  0  0  2  0  0  0  0  0  0
  160.0040  213.3360  145.7000 O   0  0  0  0  0  0  0  0  0  0  0  0
  159.9690  212.5270  143.3850 N   0  0  0  0  0  2  0  0  0  0  0  0
  161.1960  214.3980  144.0580 O   0  0  0  0  0  0  0  0  0  0  0  0
  160.4070  213.4660  144.3730 C   0  0  0  0  0  0  0  0  0  0  0  0
  160.4720  212.6390  141.7290 S   0  0  0  0  0  0  0  0  0  0  0  0
  159.7510  213.7820  141.0680 O   0  0  0  0  0  0  0  0  0  0  0  0
  161.9520  212.8930  141.6870 O   0  0  0  0  0  0  0  0  0  0  0  0
  160.1360  211.1100  140.8710 C   0  0  0  0  0  2  0  0  0  0  0  0
  159.3090  211.3820  139.7060 N   0  0  0  0  0  2  0  0  0  0  0  0
  159.1220  210.4150  138.6740 C   0  0  0  0  0  0  0  0  0  0  0  0
  159.8010  209.3580  138.6570 O   0  0  0  0  0  0  0  0  0  0  0  0
  158.1090  210.6570  137.6090 C   0  0  0  0  0  2  0  0  0  0  0  0
  154.8220  209.9440  139.3610 C   0  0  0  0  0  3  0  0  0  0  0  0
  155.1760  208.2560  137.6570 C   0  0  0  0  0  3  0  0  0  0  0  0
  156.8120  210.0210  137.9740 C   0  0  0  0  0  0  0  0  0  0  0  0
  156.3860  208.8660  137.3040 C   0  0  0  0  0  3  0  0  0  0  0  0
  156.0310  210.5550  139.0080 C   0  0  0  0  0  3  0  0  0  0  0  0
  154.3950  208.7960  138.6850 C   0  0  0  0  0  3  0  0  0  0  0  0
  159.5080  213.2140  153.6410 C   0  0  0  0  0  2  0  0  0  0  0  0
  158.7020  213.2810  154.9310 C   0  0  0  0  0  2  0  0  0  0  0  0
  157.2450  213.1690  154.6450 C   0  0  0  0  0  0  0  0  0  0  0  0
  156.5600  214.2140  154.4840 O   0  0  0  0  0  0  0  0  0  0  0  0
  156.6490  211.9200  154.5190 O   0  0  0  0  0  1  0  0  0  0  0  0
  161.4670  206.8740  152.5340 C   0  0  0  0  0  2  0  0  0  0  0  0
  162.8030  205.7080  152.1420 S   0  0  0  0  0  0  0  0  0  0  0  0
  161.5950  204.0630  150.2510 N   0  0  0  0  0  2  0  0  0  0  0  0
  160.9240  203.8820  152.4870 O   0  0  0  0  0  0  0  0  0  0  0  0
  160.3670  202.0900  150.5210 O   0  0  0  0  0  0  0  0  0  0  0  0
  160.8400  202.9630  149.7390 C   0  0  0  0  0  0  0  0  0  0  0  0
  161.6650  204.4320  151.6300 C   0  0  0  0  0  0  0  0  0  0  0  0
  160.6460  202.8420  148.2610 C   0  0  0  0  0  3  0  0  0  0  0  0
  161.7460  203.5700  147.5060 C   0  0  0  0  0  1  0  0  0  0  0  0
  160.5840  201.3870  147.8160 C   0  0  0  0  0  1  0  0  0  0  0  0
  2  8  1  6  0  0  0
  2  9  1  0  0  0  0
  3 12  1  6  0  0  0
  4 18  1  6  0  0  0
  4 11  1  0  0  0  0
  5 18  1  0  0  0  0
  7 12  2  0  0  0  0
  9 54  1  1  0  0  0
  9  3  1  0  0  0  0
 10  1  1  6  0  0  0
 10 16  1  0  0  0  0
 11 49  1  0  0  0  0
 11 21  1  1  0  0  0
 12 17  1  0  0  0  0
 13  6  1  0  0  0  0
 13 10  1  0  0  0  0
 14  4  1  0  0  0  0
 14  3  1  0  0  0  0
 14 19  1  0  0  0  0
 15 22  1  6  0  0  0
 15  5  1  0  0  0  0
 16 20  1  6  0  0  0
 16  2  1  0  0  0  0
 17 11  1  0  0  0  0
 22  6  1  0  0  0  0
 23 30  1  6  0  0  0
 23 27  1  0  0  0  0
 24 26  2  0  0  0  0
 27 15  1  0  0  0  0
 27 24  1  6  0  0  0
 28 25  1  1  0  0  0
 28 23  1  0  0  0  0
 28 29  1  0  0  0  0
 29 24  1  0  0  0  0
 31 30  1  0  0  0  0
 32 34  1  0  0  0  0
 33 34  2  0  0  0  0
 34 31  1  0  0  0  0
 35 32  1  0  0  0  0
 36 35  2  0  0  0  0
 37 35  2  0  0  0  0
 38 35  1  0  0  0  0
 39 38  1  0  0  0  0
 40 39  1  0  0  0  0
 41 40  2  0  0  0  0
 42 45  1  0  0  0  0
 42 40  1  0  0  0  0
 44 48  1  0  0  0  0
 45 47  2  0  0  0  0
 46 44  2  0  0  0  0
 46 45  1  0  0  0  0
 47 43  1  0  0  0  0
 48 43  2  0  0  0  0
 49 50  1  0  0  0  0
 51 50  1  0  0  0  0
 52 51  2  0  0  0  0
 53 51  1  0  0  0  0
 55 54  1  0  0  0  0
 56 60  1  0  0  0  0
 59 56  1  0  0  0  0
 59 58  2  0  0  0  0
 60 55  1  0  0  0  0
 60 57  2  0  0  0  0
 61 59  1  0  0  0  0
 62 61  1  0  0  0  0
 63 61  1  0  0  0  0
M  END
>  <MODEL>
1

>  <REMARK>
 VINA RESULT:       1.2      0.000      0.000
  Name = 
  16 active torsions:
  status: ('A' for Active; 'I' for Inactive)
    1  A    between atoms: N_8  and  C_30
    2  A    between atoms: C_9  and  C_15
    3  A    between atoms: C_10  and  C_28
    4  A    between atoms: C_14  and  C_17
    5  A    between atoms: C_14  and  S_48
    6  A    between atoms: C_15  and  O_40
    7  A    between atoms: C_22  and  C_23
    8  A    between atoms: C_22  and  C_28
    9  A    between atoms: C_24  and  C_25
   10  A    between atoms: C_24  and  C_31
   11  A    between atoms: C_30  and  S_35
   12  A    between atoms: C_34  and  C_44
   13  A    between atoms: S_35  and  N_38
   14  A    between atoms: C_36  and  C_39
   15  A    between atoms: O_40  and  C_60
   16  A    between atoms: C_43  and  S_48
                            x       y       z     vdW  Elec       q    Type
                         _______ _______ _______ _____ _____    ______ ____

>  <TORSDO>
F 16

$$$$
=
 OpenBabel11072415213D

 63 66  0  0  1  0  0  0  0  0999 V2000
  163.5870  209.3320  148.1570 F   0  0  0  0  0  0  0  0  0  0  0  0
  161.0770  208.1130  150.6230 C   0  0  1  0  0  3  0  0  0  0  0  0
  161.3650  209.2340  152.9100 C   0  0  2  0  0  3  0  0  0  0  0  0
  161.3380  211.7310  152.6170 C   0  0  1  0  0  3  0  0  0  0  0  0
  161.3710  213.0540  150.8350 C   0  0  0  0  0  2  0  0  0  0  0  0
  160.5160  210.9310  148.7400 C   0  0  0  0  0  2  0  0  0  0  0  0
  159.0690  208.4830  153.1050 O   0  0  0  0  0  0  0  0  0  0  0  0
  160.0610  207.1670  150.4280 O   0  0  0  0  0  1  0  0  0  0  0  0
  161.6960  208.0280  152.0240 C   0  0  1  0  0  3  0  0  0  0  0  0
  162.4330  209.3760  148.9110 C   0  0  1  0  0  3  0  0  0  0  0  0
  160.4120  211.7140  153.8480 C   0  0  1  0  0  0  0  0  0  0  0  0
  159.8910  209.4290  153.2100 C   0  0  0  0  0  0  0  0  0  0  0  0
  161.2640  209.8120  148.0380 C   0  0  0  0  0  2  0  0  0  0  0  0
  162.0480  210.4490  152.4110 N   0  0  0  0  0  0  0  0  0  0  0  0
  160.8240  213.3570  149.4400 C   0  0  1  0  0  3  0  0  0  0  0  0
  162.1870  208.0230  149.5680 C   0  0  2  0  0  3  0  0  0  0  0  0
  159.4620  210.6680  153.6810 O   0  0  0  0  0  0  0  0  0  0  0  0
  160.6110  212.0570  151.4660 O   0  0  0  0  0  0  0  0  0  0  0  0
  163.3060  210.5510  153.1250 C   0  0  0  0  0  1  0  0  0  0  0  0
  162.0340  206.8840  148.5600 C   0  0  0  0  0  1  0  0  0  0  0  0
  161.1750  211.4720  154.9990 O   0  0  0  0  0  1  0  0  0  0  0  0
  161.1950  212.2550  148.4420 C   0  0  0  0  0  2  0  0  0  0  0  0
  158.7830  214.2020  148.0790 C   0  0  2  0  0  3  0  0  0  0  0  0
  158.4000  212.7210  149.8540 C   0  0  0  0  0  0  0  0  0  0  0  0
  156.5250  213.7450  147.2910 N   0  0  0  0  0  1  0  0  0  0  0  0
  158.2960  212.2470  151.0160 O   0  0  0  0  0  0  0  0  0  0  0  0
  159.3400  213.8080  149.4750 C   0  0  1  0  0  3  0  0  0  0  0  0
  157.7720  213.1130  147.6700 C   0  0  2  0  0  3  0  0  0  0  0  0
  157.5650  212.3360  148.8280 O   0  0  0  0  0  0  0  0  0  0  0  0
  159.8390  214.4510  146.9900 C   0  0  0  0  0  2  0  0  0  0  0  0
  159.8020  213.4380  145.9870 O   0  0  0  0  0  0  0  0  0  0  0  0
  159.1430  213.1280  143.6450 N   0  0  0  0  0  2  0  0  0  0  0  0
  160.9770  214.4260  144.2870 O   0  0  0  0  0  0  0  0  0  0  0  0
  160.0020  213.7030  144.6340 C   0  0  0  0  0  0  0  0  0  0  0  0
  159.3800  213.4110  141.9500 S   0  0  0  0  0  0  0  0  0  0  0  0
  159.1470  212.1300  141.1970 O   0  0  0  0  0  0  0  0  0  0  0  0
  158.3950  214.4470  141.4880 O   0  0  0  0  0  0  0  0  0  0  0  0
  161.0290  214.0230  141.6440 C   0  0  0  0  0  2  0  0  0  0  0  0
  161.5580  213.4030  140.4400 N   0  0  0  0  0  2  0  0  0  0  0  0
  162.0990  212.0820  140.4490 C   0  0  0  0  0  0  0  0  0  0  0  0
  162.2880  211.4760  141.5340 O   0  0  0  0  0  0  0  0  0  0  0  0
  162.4380  211.4140  139.1620 C   0  0  0  0  0  2  0  0  0  0  0  0
  159.0200  211.6990  137.5420 C   0  0  0  0  0  3  0  0  0  0  0  0
  159.8370  209.4360  137.2390 C   0  0  0  0  0  3  0  0  0  0  0  0
  161.1940  211.0690  138.4150 C   0  0  0  0  0  0  0  0  0  0  0  0
  161.0110  209.7680  137.9260 C   0  0  0  0  0  3  0  0  0  0  0  0
  160.1950  212.0310  138.2290 C   0  0  0  0  0  3  0  0  0  0  0  0
  158.8420  210.4020  137.0470 C   0  0  0  0  0  3  0  0  0  0  0  0
  159.6950  213.0550  154.0000 C   0  0  0  0  0  2  0  0  0  0  0  0
  158.5660  212.9510  155.0150 C   0  0  0  0  0  2  0  0  0  0  0  0
  157.2430  213.0420  154.3390 C   0  0  0  0  0  0  0  0  0  0  0  0
  156.3740  212.1540  154.5470 O   0  0  0  0  0  1  0  0  0  0  0  0
  156.9510  214.1190  153.5100 O   0  0  0  0  0  0  0  0  0  0  0  0
  161.4860  206.6940  152.7400 C   0  0  0  0  0  2  0  0  0  0  0  0
  162.7210  205.4790  152.1970 S   0  0  0  0  0  0  0  0  0  0  0  0
  161.5480  203.6490  150.4610 N   0  0  0  0  0  2  0  0  0  0  0  0
  160.5450  204.0200  152.5430 O   0  0  0  0  0  0  0  0  0  0  0  0
  159.9930  201.9480  150.8740 O   0  0  0  0  0  0  0  0  0  0  0  0
  160.7060  202.5730  150.0370 C   0  0  0  0  0  0  0  0  0  0  0  0
  161.4780  204.2810  151.7400 C   0  0  0  0  0  0  0  0  0  0  0  0
  160.7090  202.1760  148.5950 C   0  0  0  0  0  3  0  0  0  0  0  0
  161.3250  203.2630  147.7320 C   0  0  0  0  0  1  0  0  0  0  0  0
  161.4380  200.8580  148.3730 C   0  0  0  0  0  1  0  0  0  0  0  0
  2  8  1  6  0  0  0
  2  9  1  0  0  0  0
  3 12  1  6  0  0  0
  4 18  1  6  0  0  0
  4 11  1  0  0  0  0
  5 18  1  0  0  0  0
  7 12  2  0  0  0  0
  9 54  1  1  0  0  0
  9  3  1  0  0  0  0
 10  1  1  6  0  0  0
 10 16  1  0  0  0  0
 11 49  1  0  0  0  0
 11 21  1  1  0  0  0
 12 17  1  0  0  0  0
 13  6  1  0  0  0  0
 13 10  1  0  0  0  0
 14  4  1  0  0  0  0
 14  3  1  0  0  0  0
 14 19  1  0  0  0  0
 15 22  1  6  0  0  0
 15 27  1  0  0  0  0
 15  5  1  0  0  0  0
 16 20  1  6  0  0  0
 16  2  1  0  0  0  0
 17 11  1  0  0  0  0
 22  6  1  0  0  0  0
 23 30  1  6  0  0  0
 23 27  1  0  0  0  0
 24 26  2  0  0  0  0
 27 24  1  6  0  0  0
 28 25  1  1  0  0  0
 28 23  1  0  0  0  0
 28 29  1  0  0  0  0
 29 24  1  0  0  0  0
 31 30  1  0  0  0  0
 32 34  1  0  0  0  0
 33 34  2  0  0  0  0
 34 31  1  0  0  0  0
 35 32  1  0  0  0  0
 36 35  2  0  0  0  0
 37 35  2  0  0  0  0
 38 35  1  0  0  0  0
 39 40  1  0  0  0  0
 39 38  1  0  0  0  0
 40 41  2  0  0  0  0
 42 40  1  0  0  0  0
 43 47  1  0  0  0  0
 44 46  2  0  0  0  0
 45 42  1  0  0  0  0
 46 45  1  0  0  0  0
 47 45  2  0  0  0  0
 48 44  1  0  0  0  0
 48 43  2  0  0  0  0
 49 50  1  0  0  0  0
 51 52  1  0  0  0  0
 51 50  1  0  0  0  0
 53 51  2  0  0  0  0
 55 54  1  0  0  0  0
 56 60  1  0  0  0  0
 59 56  1  0  0  0  0
 59 58  2  0  0  0  0
 60 55  1  0  0  0  0
 60 57  2  0  0  0  0
 61 59  1  0  0  0  0
 62 61  1  0  0  0  0
 63 61  1  0  0  0  0
M  END
>  <MODEL>
2

>  <REMARK>
 VINA RESULT:       2.2      1.491      1.992
  Name = 
  16 active torsions:
  status: ('A' for Active; 'I' for Inactive)
    1  A    between atoms: N_8  and  C_30
    2  A    between atoms: C_9  and  C_15
    3  A    between atoms: C_10  and  C_28
    4  A    between atoms: C_14  and  C_17
    5  A    between atoms: C_14  and  S_48
    6  A    between atoms: C_15  and  O_40
    7  A    between atoms: C_22  and  C_23
    8  A    between atoms: C_22  and  C_28
    9  A    between atoms: C_24  and  C_25
   10  A    between atoms: C_24  and  C_31
   11  A    between atoms: C_30  and  S_35
   12  A    between atoms: C_34  and  C_44
   13  A    between atoms: S_35  and  N_38
   14  A    between atoms: C_36  and  C_39
   15  A    between atoms: O_40  and  C_60
   16  A    between atoms: C_43  and  S_48
                            x       y       z     vdW  Elec       q    Type
                         _______ _______ _______ _____ _____    ______ ____

>  <TORSDO>
F 16

$$$$
=
 OpenBabel11072415213D

 63 66  0  0  1  0  0  0  0  0999 V2000
  163.5130  210.9270  149.8590 F   0  0  0  0  0  0  0  0  0  0  0  0
  160.7950  209.1900  151.7180 C   0  0  1  0  0  3  0  0  0  0  0  0
  160.1830  210.4200  153.8830 C   0  0  2  0  0  3  0  0  0  0  0  0
  159.6470  212.8180  153.3500 C   0  0  1  0  0  3  0  0  0  0  0  0
  159.8440  214.0480  151.5130 C   0  0  0  0  0  2  0  0  0  0  0  0
  160.1110  211.7130  149.4880 C   0  0  0  0  0  2  0  0  0  0  0  0
  158.1640  209.1170  153.5650 O   0  0  0  0  0  0  0  0  0  0  0  0
  160.1220  208.0120  151.3670 O   0  0  0  0  0  1  0  0  0  0  0  0
  161.0150  209.3100  153.2310 C   0  0  1  0  0  3  0  0  0  0  0  0
  162.2220  210.7010  150.2880 C   0  0  1  0  0  3  0  0  0  0  0  0
  158.4550  212.6050  154.3020 C   0  0  1  0  0  0  0  0  0  0  0  0
  158.6810  210.2440  153.7800 C   0  0  0  0  0  0  0  0  0  0  0  0
  161.2620  210.7990  149.1110 C   0  0  0  0  0  2  0  0  0  0  0  0
  160.6690  211.7520  153.4560 N   0  0  0  0  0  0  0  0  0  0  0  0
  159.6380  214.1590  150.0020 C   0  0  1  0  0  3  0  0  0  0  0  0
  162.1360  209.3510  150.9910 C   0  0  2  0  0  3  0  0  0  0  0  0
  157.8610  211.3480  154.0040 O   0  0  0  0  0  0  0  0  0  0  0  0
  159.2010  212.9120  152.0260 O   0  0  0  0  0  0  0  0  0  0  0  0
  161.6270  212.1920  154.4510 C   0  0  0  0  0  1  0  0  0  0  0  0
  162.5330  208.1800  150.0940 C   0  0  0  0  0  1  0  0  0  0  0  0
  158.9160  212.6020  155.6260 O   0  0  0  0  0  1  0  0  0  0  0  0
  160.5120  213.1550  149.2440 C   0  0  0  0  0  2  0  0  0  0  0  0
  157.8900  214.1550  148.0850 C   0  0  2  0  0  3  0  0  0  0  0  0
  157.3590  213.0370  150.0750 C   0  0  0  0  0  0  0  0  0  0  0  0
  156.0430  212.9890  147.0090 N   0  0  0  0  0  1  0  0  0  0  0  0
  157.0560  212.8100  151.2750 O   0  0  0  0  0  0  0  0  0  0  0  0
  158.1360  214.2190  149.6180 C   0  0  1  0  0  3  0  0  0  0  0  0
  157.2490  212.7860  147.7850 C   0  0  2  0  0  3  0  0  0  0  0  0
  156.9070  212.2460  149.0420 O   0  0  0  0  0  0  0  0  0  0  0  0
  159.1210  214.4240  147.2040 C   0  0  0  0  0  2  0  0  0  0  0  0
  158.8020  214.3200  145.8170 O   0  0  0  0  0  0  0  0  0  0  0  0
  159.9800  213.8820  143.7110 N   0  0  0  0  0  2  0  0  0  0  0  0
  159.5090  212.2100  145.2740 O   0  0  0  0  0  0  0  0  0  0  0  0
  159.4430  213.4300  144.9580 C   0  0  0  0  0  0  0  0  0  0  0  0
  160.7580  212.7990  142.6020 S   0  0  0  0  0  0  0  0  0  0  0  0
  161.8930  212.1040  143.3020 O   0  0  0  0  0  0  0  0  0  0  0  0
  159.7590  211.7770  142.1390 O   0  0  0  0  0  0  0  0  0  0  0  0
  161.3570  213.6910  141.1760 C   0  0  0  0  0  2  0  0  0  0  0  0
  162.0650  212.7740  140.2960 N   0  0  0  0  0  2  0  0  0  0  0  0
  161.4840  212.2940  139.0850 C   0  0  0  0  0  0  0  0  0  0  0  0
  160.2750  212.5180  138.8230 O   0  0  0  0  0  0  0  0  0  0  0  0
  162.3170  211.5260  138.1190 C   0  0  0  0  0  2  0  0  0  0  0  0
  161.7890  207.8510  137.3450 C   0  0  0  0  0  3  0  0  0  0  0  0
  161.7120  208.1570  139.7490 C   0  0  0  0  0  3  0  0  0  0  0  0
  162.0960  210.0620  138.2950 C   0  0  0  0  0  0  0  0  0  0  0  0
  161.9380  209.5290  139.5810 C   0  0  0  0  0  3  0  0  0  0  0  0
  162.0150  209.2220  137.1770 C   0  0  0  0  0  3  0  0  0  0  0  0
  161.6380  207.3190  138.6300 C   0  0  0  0  0  3  0  0  0  0  0  0
  157.4290  213.7250  154.1370 C   0  0  0  0  0  2  0  0  0  0  0  0
  156.0140  213.1650  154.1460 C   0  0  0  0  0  2  0  0  0  0  0  0
  155.5480  212.9380  155.5420 C   0  0  0  0  0  0  0  0  0  0  0  0
  155.1800  213.9190  156.2420 O   0  0  0  0  0  1  0  0  0  0  0  0
  155.4830  211.6510  156.0600 O   0  0  0  0  0  0  0  0  0  0  0  0
  160.9420  207.9900  153.9970 C   0  0  0  0  0  2  0  0  0  0  0  0
  162.3660  206.9370  153.5920 S   0  0  0  0  0  0  0  0  0  0  0  0
  161.3030  205.2070  151.6900 N   0  0  0  0  0  2  0  0  0  0  0  0
  160.6240  204.9760  153.9180 O   0  0  0  0  0  0  0  0  0  0  0  0
  160.2220  203.1480  151.9490 O   0  0  0  0  0  0  0  0  0  0  0  0
  160.6360  204.0540  151.1700 C   0  0  0  0  0  0  0  0  0  0  0  0
  161.3310  205.5790  153.0690 C   0  0  0  0  0  0  0  0  0  0  0  0
  160.4670  203.9190  149.6900 C   0  0  0  0  0  3  0  0  0  0  0  0
  160.8610  205.2020  148.9780 C   0  0  0  0  0  1  0  0  0  0  0  0
  161.2660  202.7480  149.1350 C   0  0  0  0  0  1  0  0  0  0  0  0
  2  8  1  1  0  0  0
  2  9  1  0  0  0  0
  3 12  1  6  0  0  0
  4 18  1  6  0  0  0
  4 14  1  0  0  0  0
  4 11  1  0  0  0  0
  5 18  1  0  0  0  0
  7 12  2  0  0  0  0
  9  3  1  0  0  0  0
  9 54  1  1  0  0  0
 10  1  1  6  0  0  0
 10 16  1  0  0  0  0
 11 21  1  1  0  0  0
 12 17  1  0  0  0  0
 13  6  1  0  0  0  0
 13 10  1  0  0  0  0
 14  3  1  0  0  0  0
 14 19  1  0  0  0  0
 15 22  1  6  0  0  0
 15  5  1  0  0  0  0
 16 20  1  6  0  0  0
 16  2  1  0  0  0  0
 17 11  1  0  0  0  0
 22  6  1  0  0  0  0
 23 30  1  6  0  0  0
 23 27  1  0  0  0  0
 24 26  2  0  0  0  0
 27 15  1  0  0  0  0
 27 24  1  1  0  0  0
 28 25  1  6  0  0  0
 28 23  1  0  0  0  0
 28 29  1  0  0  0  0
 29 24  1  0  0  0  0
 31 30  1  0  0  0  0
 32 34  1  0  0  0  0
 34 33  2  0  0  0  0
 34 31  1  0  0  0  0
 35 36  2  0  0  0  0
 35 32  1  0  0  0  0
 37 35  2  0  0  0  0
 38 35  1  0  0  0  0
 39 38  1  0  0  0  0
 40 39  1  0  0  0  0
 41 40  2  0  0  0  0
 42 45  1  0  0  0  0
 42 40  1  0  0  0  0
 43 48  1  0  0  0  0
 45 46  2  0  0  0  0
 46 44  1  0  0  0  0
 47 43  2  0  0  0  0
 47 45  1  0  0  0  0
 48 44  2  0  0  0  0
 49 50  1  0  0  0  0
 49 11  1  0  0  0  0
 50 51  1  0  0  0  0
 51 53  2  0  0  0  0
 51 52  1  0  0  0  0
 55 54  1  0  0  0  0
 56 60  1  0  0  0  0
 59 56  1  0  0  0  0
 59 58  2  0  0  0  0
 60 55  1  0  0  0  0
 60 57  2  0  0  0  0
 61 59  1  0  0  0  0
 62 61  1  0  0  0  0
 63 61  1  0  0  0  0
M  END
>  <MODEL>
3

>  <REMARK>
 VINA RESULT:       2.8      2.563      2.834
  Name = 
  16 active torsions:
  status: ('A' for Active; 'I' for Inactive)
    1  A    between atoms: N_8  and  C_30
    2  A    between atoms: C_9  and  C_15
    3  A    between atoms: C_10  and  C_28
    4  A    between atoms: C_14  and  C_17
    5  A    between atoms: C_14  and  S_48
    6  A    between atoms: C_15  and  O_40
    7  A    between atoms: C_22  and  C_23
    8  A    between atoms: C_22  and  C_28
    9  A    between atoms: C_24  and  C_25
   10  A    between atoms: C_24  and  C_31
   11  A    between atoms: C_30  and  S_35
   12  A    between atoms: C_34  and  C_44
   13  A    between atoms: S_35  and  N_38
   14  A    between atoms: C_36  and  C_39
   15  A    between atoms: O_40  and  C_60
   16  A    between atoms: C_43  and  S_48
                            x       y       z     vdW  Elec       q    Type
                         _______ _______ _______ _____ _____    ______ ____

>  <TORSDO>
F 16

$$$$
=
 OpenBabel11072415213D

 63 66  0  0  1  0  0  0  0  0999 V2000
  163.5290  208.7790  147.9640 F   0  0  0  0  0  0  0  0  0  0  0  0
  160.8240  206.6010  149.3050 C   0  0  1  0  0  3  0  0  0  0  0  0
  161.4330  205.6240  151.5960 C   0  0  2  0  0  3  0  0  0  0  0  0
  162.0650  207.4950  153.1520 C   0  0  1  0  0  3  0  0  0  0  0  0
  162.4200  209.6660  152.8550 C   0  0  0  0  0  2  0  0  0  0  0  0
  161.0010  209.9360  150.1100 C   0  0  0  0  0  2  0  0  0  0  0  0
  159.0230  205.3760  151.6700 O   0  0  0  0  0  0  0  0  0  0  0  0
  159.5900  206.2900  148.7160 O   0  0  0  0  0  1  0  0  0  0  0  0
  161.4190  205.4170  150.0780 C   0  0  1  0  0  3  0  0  0  0  0  0
  162.4390  208.4550  148.7460 C   0  0  1  0  0  3  0  0  0  0  0  0
  161.1860  206.7430  154.1700 C   0  0  1  0  0  0  0  0  0  0  0  0
  160.0690  205.7860  152.2380 C   0  0  0  0  0  0  0  0  0  0  0  0
  161.4150  209.5800  148.6930 C   0  0  0  0  0  2  0  0  0  0  0  0
  162.4060  206.6760  151.9680 N   0  0  0  0  0  0  0  0  0  0  0  0
  161.9530  210.9780  152.2260 C   0  0  1  0  0  3  0  0  0  0  0  0
  161.8540  207.1220  148.2950 C   0  0  2  0  0  3  0  0  0  0  0  0
  159.9910  206.3350  153.5150 O   0  0  0  0  0  0  0  0  0  0  0  0
  161.4330  208.6750  152.7420 O   0  0  0  0  0  0  0  0  0  0  0  0
  163.6570  206.0080  152.2710 C   0  0  0  0  0  1  0  0  0  0  0  0
  161.3890  207.1300  146.8390 C   0  0  0  0  0  1  0  0  0  0  0  0
  161.8750  205.6130  154.6310 O   0  0  0  0  0  1  0  0  0  0  0  0
  162.0020  210.9140  150.6960 C   0  0  0  0  0  2  0  0  0  0  0  0
  160.0330  212.7210  152.1180 C   0  0  2  0  0  3  0  0  0  0  0  0
  159.5150  210.5380  152.7920 C   0  0  0  0  0  0  0  0  0  0  0  0
  157.6540  213.1190  151.7900 N   0  0  0  0  0  1  0  0  0  0  0  0
  159.4400  209.4810  153.4720 O   0  0  0  0  0  0  0  0  0  0  0  0
  160.6420  211.5040  152.8680 C   0  0  1  0  0  3  0  0  0  0  0  0
  158.7430  212.2330  151.4330 C   0  0  2  0  0  3  0  0  0  0  0  0
  158.4930  210.9520  151.9660 O   0  0  0  0  0  0  0  0  0  0  0  0
  160.9770  213.4340  151.1360 C   0  0  0  0  0  2  0  0  0  0  0  0
  160.2490  214.1360  150.1300 O   0  0  0  0  0  0  0  0  0  0  0  0
  159.0110  213.7800  148.0430 N   0  0  0  0  0  2  0  0  0  0  0  0
  161.2870  213.3030  148.2660 O   0  0  0  0  0  0  0  0  0  0  0  0
  160.2280  213.7390  148.7950 C   0  0  0  0  0  0  0  0  0  0  0  0
  158.9380  213.2660  146.3890 S   0  0  0  0  0  0  0  0  0  0  0  0
  159.4460  211.8540  146.2860 O   0  0  0  0  0  0  0  0  0  0  0  0
  157.5100  213.3170  145.9250 O   0  0  0  0  0  0  0  0  0  0  0  0
  159.9080  214.3530  145.3550 C   0  0  0  0  0  2  0  0  0  0  0  0
  161.0210  213.6110  144.7850 N   0  0  0  0  0  2  0  0  0  0  0  0
  160.9370  212.9990  143.4990 C   0  0  0  0  0  0  0  0  0  0  0  0
  159.8410  212.9410  142.8880 O   0  0  0  0  0  0  0  0  0  0  0  0
  162.1620  212.4290  142.8710 C   0  0  0  0  0  2  0  0  0  0  0  0
  161.3770  210.8680  139.5040 C   0  0  0  0  0  3  0  0  0  0  0  0
  162.0430  213.1730  139.1550 C   0  0  0  0  0  3  0  0  0  0  0  0
  161.9600  212.2610  141.4030 C   0  0  0  0  0  0  0  0  0  0  0  0
  162.2140  213.3330  140.5360 C   0  0  0  0  0  3  0  0  0  0  0  0
  161.5490  211.0270  140.8850 C   0  0  0  0  0  3  0  0  0  0  0  0
  161.6240  211.9410  138.6400 C   0  0  0  0  0  3  0  0  0  0  0  0
  160.8530  207.6420  155.3600 C   0  0  0  0  0  2  0  0  0  0  0  0
  162.1160  208.0120  156.1250 C   0  0  0  0  0  2  0  0  0  0  0  0
  162.0340  209.4130  156.6250 C   0  0  0  0  0  0  0  0  0  0  0  0
  163.0040  209.9050  157.2610 O   0  0  0  0  0  1  0  0  0  0  0  0
  160.9110  210.1870  156.3610 O   0  0  0  0  0  0  0  0  0  0  0  0
  160.8730  204.0470  149.6740 C   0  0  0  0  0  2  0  0  0  0  0  0
  161.6010  202.7420  150.7070 S   0  0  0  0  0  0  0  0  0  0  0  0
  160.9660  201.8680  148.1430 N   0  0  0  0  0  2  0  0  0  0  0  0
  161.4410  200.2700  149.7870 O   0  0  0  0  0  0  0  0  0  0  0  0
  161.3310  199.7980  147.1130 O   0  0  0  0  0  0  0  0  0  0  0  0
  160.8660  200.9710  147.0340 C   0  0  0  0  0  0  0  0  0  0  0  0
  161.3280  201.4830  149.4710 C   0  0  0  0  0  0  0  0  0  0  0  0
  160.2330  201.4530  145.7670 C   0  0  0  0  0  3  0  0  0  0  0  0
  160.9500  202.6800  145.2330 C   0  0  0  0  0  1  0  0  0  0  0  0
  160.1980  200.3640  144.7030 C   0  0  0  0  0  1  0  0  0  0  0  0
  2  8  1  6  0  0  0
  2  9  1  0  0  0  0
  3 14  1  0  0  0  0
  3 12  1  6  0  0  0
  4 18  1  6  0  0  0
  4 11  1  0  0  0  0
  6 22  1  0  0  0  0
  7 12  2  0  0  0  0
  9 54  1  1  0  0  0
  9  3  1  0  0  0  0
 10  1  1  6  0  0  0
 11 21  1  1  0  0  0
 11 49  1  0  0  0  0
 12 17  1  0  0  0  0
 13 10  1  0  0  0  0
 13  6  1  0  0  0  0
 14 19  1  0  0  0  0
 14  4  1  0  0  0  0
 15 22  1  6  0  0  0
 15  5  1  0  0  0  0
 15 27  1  0  0  0  0
 16 20  1  6  0  0  0
 16 10  1  0  0  0  0
 16  2  1  0  0  0  0
 17 11  1  0  0  0  0
 18  5  1  0  0  0  0
 23 30  1  6  0  0  0
 23 27  1  0  0  0  0
 24 26  2  0  0  0  0
 27 24  1  6  0  0  0
 28 25  1  1  0  0  0
 28 29  1  0  0  0  0
 28 23  1  0  0  0  0
 29 24  1  0  0  0  0
 31 30  1  0  0  0  0
 32 34  1  0  0  0  0
 33 34  2  0  0  0  0
 34 31  1  0  0  0  0
 35 32  1  0  0  0  0
 36 35  2  0  0  0  0
 37 35  2  0  0  0  0
 38 35  1  0  0  0  0
 39 38  1  0  0  0  0
 40 39  1  0  0  0  0
 41 40  2  0  0  0  0
 42 40  1  0  0  0  0
 43 47  1  0  0  0  0
 44 46  2  0  0  0  0
 45 42  1  0  0  0  0
 46 45  1  0  0  0  0
 47 45  2  0  0  0  0
 48 44  1  0  0  0  0
 48 43  2  0  0  0  0
 49 50  1  0  0  0  0
 50 51  1  0  0  0  0
 51 52  1  0  0  0  0
 53 51  2  0  0  0  0
 54 55  1  0  0  0  0
 56 60  1  0  0  0  0
 59 58  2  0  0  0  0
 59 56  1  0  0  0  0
 60 57  2  0  0  0  0
 60 55  1  0  0  0  0
 61 59  1  0  0  0  0
 62 61  1  0  0  0  0
 63 61  1  0  0  0  0
M  END
>  <MODEL>
4

>  <REMARK>
 VINA RESULT:       2.9      2.991      4.803
  Name = 
  16 active torsions:
  status: ('A' for Active; 'I' for Inactive)
    1  A    between atoms: N_8  and  C_30
    2  A    between atoms: C_9  and  C_15
    3  A    between atoms: C_10  and  C_28
    4  A    between atoms: C_14  and  C_17
    5  A    between atoms: C_14  and  S_48
    6  A    between atoms: C_15  and  O_40
    7  A    between atoms: C_22  and  C_23
    8  A    between atoms: C_22  and  C_28
    9  A    between atoms: C_24  and  C_25
   10  A    between atoms: C_24  and  C_31
   11  A    between atoms: C_30  and  S_35
   12  A    between atoms: C_34  and  C_44
   13  A    between atoms: S_35  and  N_38
   14  A    between atoms: C_36  and  C_39
   15  A    between atoms: O_40  and  C_60
   16  A    between atoms: C_43  and  S_48
                            x       y       z     vdW  Elec       q    Type
                         _______ _______ _______ _____ _____    ______ ____

>  <TORSDO>
F 16

$$$$
