=
 OpenBabel11072414453D

 45 50  0  0  1  0  0  0  0  0999 V2000
  158.8550  214.0700  148.1980 C   0  0  0  0  0  0  0  0  0  0  0  0
  158.5700  211.9640  152.7650 C   0  0  0  0  0  3  0  0  0  0  0  0
  159.6520  211.1860  152.0500 C   0  0  1  0  0  3  0  0  0  0  0  0
  162.1390  213.8490  148.6650 O   0  0  0  0  0  1  0  0  0  0  0  0
  158.2680  213.4470  150.8380 C   0  0  0  0  0  0  0  0  0  0  0  0
  160.8520  212.3740  151.3290 S   0  0  0  0  0  0  0  0  0  0  0  0
  159.8390  213.3810  148.9780 C   0  0  0  0  0  0  0  0  0  0  0  0
  157.9150  212.9750  152.1840 C   0  0  0  0  0  3  0  0  0  0  0  0
  157.3570  214.1030  150.0940 C   0  0  0  0  0  3  0  0  0  0  0  0
  161.0500  213.1410  148.1540 C   0  0  1  0  0  0  0  0  0  0  0  0
  157.6350  214.4530  148.7590 O   0  0  0  0  0  0  0  0  0  0  0  0
  160.6420  213.7270  146.7740 C   0  0  2  0  0  3  0  0  0  0  0  0
  159.2560  214.2870  146.9640 C   0  0  0  0  0  3  0  0  0  0  0  0
  159.6010  213.1030  150.2640 C   0  0  0  0  0  0  0  0  0  0  0  0
  161.3430  211.7880  148.1020 F   0  0  0  0  0  0  0  0  0  0  0  0
  160.6120  212.7020  145.7370 N   0  0  0  0  0  2  0  0  0  0  0  0
  162.5830  213.8860  144.4350 S   0  0  0  0  0  0  0  0  0  0  0  0
  161.3320  212.8300  144.5100 C   0  0  0  0  0  0  0  0  0  0  0  0
  160.9680  212.0300  143.3780 N   0  0  0  0  0  2  0  0  0  0  0  0
  161.3070  211.8760  139.1330 C   0  0  0  0  0  2  0  0  0  0  0  0
  162.4010  211.9210  141.3990 C   0  0  0  0  0  2  0  0  0  0  0  0
  161.0970  212.4700  141.9970 C   0  0  1  0  0  3  0  0  0  0  0  0
  159.8540  212.0670  141.2000 C   0  0  0  0  0  2  0  0  0  0  0  0
  162.1980  211.1140  140.1150 C   0  0  0  0  0  2  0  0  0  0  0  0
  160.0680  212.3270  139.7780 N   0  0  0  0  0  0  0  0  0  0  0  0
  157.9670  213.3290  139.5590 O   0  0  0  0  0  0  0  0  0  0  0  0
  159.2220  213.2300  137.5500 C   0  0  0  0  0  1  0  0  0  0  0  0
  159.0420  212.9700  139.0090 C   0  0  0  0  0  0  0  0  0  0  0  0
  160.2910  210.2190  152.9580 N   0  0  0  0  0  0  0  0  0  0  0  0
  162.3510  211.4950  156.9120 C   0  0  0  0  0  2  0  0  0  0  0  0
  160.4130  210.8740  155.3340 C   0  0  2  0  0  0  0  0  0  0  0  0
  161.6570  210.0590  155.0480 C   0  0  1  0  0  3  0  0  0  0  0  0
  161.0730  210.9610  153.9570 C   0  0  1  0  0  3  0  0  0  0  0  0
  160.7680  212.2510  156.4750 S   0  0  0  0  0  0  0  0  0  0  0  0
  162.8440  210.7500  155.6920 C   0  0  0  0  0  2  0  0  0  0  0  0
  159.1950  209.9710  155.5710 C   0  0  1  0  0  3  0  0  0  0  0  0
  159.5160  208.8310  156.5250 C   0  0  0  0  0  1  0  0  0  0  0  0
  156.9180  210.6470  155.4110 O   0  0  0  0  0  0  0  0  0  0  0  0
  158.0000  210.7330  156.0470 C   0  0  0  0  0  0  0  0  0  0  0  0
  158.0650  211.5390  157.2200 N   0  0  0  0  0  1  0  0  0  0  0  0
  161.2290  209.4330  152.1520 C   0  0  0  0  0  2  0  0  0  0  0  0
  160.8140  207.9690  152.1350 C   0  0  0  0  0  2  0  0  0  0  0  0
  161.6330  207.1950  151.1160 C   0  0  0  0  0  2  0  0  0  0  0  0
  161.1120  207.4480  149.7130 C   0  0  0  0  0  2  0  0  0  0  0  0
  160.8640  206.1350  148.9950 C   0  0  0  0  0  1  0  0  0  0  0  0
  1 11  1  0  0  0  0
  1  7  1  0  0  0  0
  3  2  1  0  0  0  0
  3 29  1  1  0  0  0
  5  8  1  0  0  0  0
  6  3  1  0  0  0  0
  7 14  2  0  0  0  0
  8  2  2  0  0  0  0
  9  5  2  0  0  0  0
 10 15  1  6  0  0  0
 10  4  1  0  0  0  0
 10  7  1  0  0  0  0
 11  9  1  0  0  0  0
 12 16  1  6  0  0  0
 12 13  1  0  0  0  0
 12 10  1  0  0  0  0
 13  1  2  0  0  0  0
 14  5  1  0  0  0  0
 14  6  1  0  0  0  0
 17 18  2  0  0  0  0
 18 16  1  0  0  0  0
 19 18  1  0  0  0  0
 20 25  1  0  0  0  0
 20 24  1  0  0  0  0
 21 22  1  0  0  0  0
 22 19  1  1  0  0  0
 23 22  1  0  0  0  0
 24 21  1  0  0  0  0
 25 23  1  0  0  0  0
 27 28  1  0  0  0  0
 28 26  2  0  0  0  0
 28 25  1  0  0  0  0
 31 36  1  1  0  0  0
 31 34  1  0  0  0  0
 32 31  1  0  0  0  0
 32 35  1  1  0  0  0
 33 29  1  6  0  0  0
 33 32  1  0  0  0  0
 33 31  1  0  0  0  0
 34 30  1  0  0  0  0
 35 30  1  0  0  0  0
 36 39  1  0  0  0  0
 36 37  1  1  0  0  0
 38 39  2  0  0  0  0
 39 40  1  0  0  0  0
 41 29  1  0  0  0  0
 42 41  1  0  0  0  0
 43 42  1  0  0  0  0
 44 43  1  0  0  0  0
 45 44  1  0  0  0  0
M  END
>  <MODEL>
1

>  <REMARK>
 VINA RESULT:      -5.3      0.000      0.000
  Name = 
  12 active torsions:
  status: ('A' for Active; 'I' for Inactive)
    1  A    between atoms: C_1  and  C_35
    2  A    between atoms: C_1  and  N_45
    3  A    between atoms: C_5  and  N_45
    4  A    between atoms: C_10  and  C_24
    5  A    between atoms: N_12  and  C_23
    6  A    between atoms: N_12  and  C_32
    7  A    between atoms: C_13  and  N_14
    8  A    between atoms: N_14  and  C_23
    9  A    between atoms: C_18  and  C_33
   10  A    between atoms: C_24  and  C_35
   11  A    between atoms: C_30  and  N_45
   12  A    between atoms: C_33  and  C_38
                            x       y       z     vdW  Elec       q    Type
                         _______ _______ _______ _____ _____    ______ ____

>  <TORSDO>
F 12

$$$$
=
 OpenBabel11072414453D

 45 50  0  0  1  0  0  0  0  0999 V2000
  160.1380  208.8920  155.1440 C   0  0  0  0  0  0  0  0  0  0  0  0
  161.1020  205.1470  151.9170 C   0  0  0  0  0  3  0  0  0  0  0  0
  160.7360  206.3240  151.0410 C   0  0  1  0  0  3  0  0  0  0  0  0
  161.9030  210.7370  153.0150 O   0  0  0  0  0  1  0  0  0  0  0  0
  160.8790  206.5010  153.9460 C   0  0  0  0  0  0  0  0  0  0  0  0
  161.7360  207.7740  151.5570 S   0  0  0  0  0  0  0  0  0  0  0  0
  160.6040  208.9150  153.7900 C   0  0  0  0  0  0  0  0  0  0  0  0
  161.1270  205.2300  153.2510 C   0  0  0  0  0  3  0  0  0  0  0  0
  160.4480  206.4970  155.2230 C   0  0  0  0  0  3  0  0  0  0  0  0
  160.6020  210.3120  153.2860 C   0  0  1  0  0  0  0  0  0  0  0  0
  160.0870  207.6970  155.8650 O   0  0  0  0  0  0  0  0  0  0  0  0
  160.0270  211.1060  154.4920 C   0  0  2  0  0  3  0  0  0  0  0  0
  159.8070  210.0890  155.5810 C   0  0  0  0  0  3  0  0  0  0  0  0
  161.0060  207.7850  153.1990 C   0  0  0  0  0  0  0  0  0  0  0  0
  159.8190  210.4160  152.1470 F   0  0  0  0  0  0  0  0  0  0  0  0
  158.7600  211.7480  154.1640 N   0  0  0  0  0  2  0  0  0  0  0  0
  159.2600  213.8550  155.6780 S   0  0  0  0  0  0  0  0  0  0  0  0
  158.5150  213.1330  154.4080 C   0  0  0  0  0  0  0  0  0  0  0  0
  157.6460  213.8720  153.5400 N   0  0  0  0  0  2  0  0  0  0  0  0
  159.0940  213.7050  149.5360 C   0  0  0  0  0  2  0  0  0  0  0  0
  159.5190  214.1050  151.9840 C   0  0  0  0  0  2  0  0  0  0  0  0
  158.0080  214.2940  152.1960 C   0  0  1  0  0  3  0  0  0  0  0  0
  157.1590  213.5480  151.1650 C   0  0  0  0  0  2  0  0  0  0  0  0
  159.8670  213.2390  150.7710 C   0  0  0  0  0  2  0  0  0  0  0  0
  157.6590  213.8180  149.8180 N   0  0  0  0  0  0  0  0  0  0  0  0
  155.5000  214.2050  149.0060 O   0  0  0  0  0  0  0  0  0  0  0  0
  157.2120  214.3990  147.3770 C   0  0  0  0  0  1  0  0  0  0  0  0
  156.7350  214.1380  148.7670 C   0  0  0  0  0  0  0  0  0  0  0  0
  160.9130  205.9950  149.6160 N   0  0  0  0  0  0  0  0  0  0  0  0
  161.1550  201.5580  148.2870 C   0  0  0  0  0  2  0  0  0  0  0  0
  161.0100  204.1150  148.0200 C   0  0  2  0  0  0  0  0  0  0  0  0
  161.8670  203.7190  149.2030 C   0  0  1  0  0  3  0  0  0  0  0  0
  160.6120  204.5680  149.4260 C   0  0  1  0  0  3  0  0  0  0  0  0
  160.0920  202.6870  147.3560 S   0  0  0  0  0  0  0  0  0  0  0  0
  161.5680  202.2750  149.5540 C   0  0  0  0  0  2  0  0  0  0  0  0
  161.7660  205.0550  147.0700 C   0  0  1  0  0  3  0  0  0  0  0  0
  163.0980  204.4640  146.6350 C   0  0  0  0  0  1  0  0  0  0  0  0
  160.1900  206.4450  145.9510 O   0  0  0  0  0  0  0  0  0  0  0  0
  160.9510  205.4450  145.8800 C   0  0  0  0  0  0  0  0  0  0  0  0
  161.0380  204.7120  144.6610 N   0  0  0  0  0  1  0  0  0  0  0  0
  162.3300  206.1980  149.3030 C   0  0  0  0  0  2  0  0  0  0  0  0
  162.6790  207.6770  149.3670 C   0  0  0  0  0  2  0  0  0  0  0  0
  162.2920  208.3710  148.0720 C   0  0  0  0  0  2  0  0  0  0  0  0
  161.6220  209.7020  148.3630 C   0  0  0  0  0  2  0  0  0  0  0  0
  162.4000  210.4680  149.4160 C   0  0  0  0  0  1  0  0  0  0  0  0
  1 13  2  0  0  0  0
  1 11  1  0  0  0  0
  2  8  2  0  0  0  0
  3 29  1  6  0  0  0
  3  6  1  0  0  0  0
  3  2  1  0  0  0  0
  4 10  1  0  0  0  0
  5  9  2  0  0  0  0
  6 14  1  0  0  0  0
  7  1  1  0  0  0  0
  8  5  1  0  0  0  0
  9 11  1  0  0  0  0
 10 15  1  6  0  0  0
 10  7  1  0  0  0  0
 10 12  1  0  0  0  0
 12 16  1  6  0  0  0
 12 13  1  0  0  0  0
 14  7  2  0  0  0  0
 14  5  1  0  0  0  0
 16 18  1  0  0  0  0
 18 17  2  0  0  0  0
 19 18  1  0  0  0  0
 20 25  1  0  0  0  0
 20 24  1  0  0  0  0
 21 22  1  0  0  0  0
 22 19  1  1  0  0  0
 23 22  1  0  0  0  0
 24 21  1  0  0  0  0
 25 23  1  0  0  0  0
 27 28  1  0  0  0  0
 28 26  2  0  0  0  0
 28 25  1  0  0  0  0
 30 35  1  0  0  0  0
 31 36  1  6  0  0  0
 31 32  1  0  0  0  0
 31 33  1  0  0  0  0
 32 33  1  0  0  0  0
 32 35  1  1  0  0  0
 33 29  1  6  0  0  0
 34 31  1  0  0  0  0
 34 30  1  0  0  0  0
 36 37  1  6  0  0  0
 39 38  2  0  0  0  0
 39 36  1  0  0  0  0
 40 39  1  0  0  0  0
 41 42  1  0  0  0  0
 41 29  1  0  0  0  0
 43 44  1  0  0  0  0
 43 42  1  0  0  0  0
 44 45  1  0  0  0  0
M  END
>  <MODEL>
2

>  <REMARK>
 VINA RESULT:      -3.8      4.828      9.155
  Name = 
  12 active torsions:
  status: ('A' for Active; 'I' for Inactive)
    1  A    between atoms: C_1  and  C_35
    2  A    between atoms: C_1  and  N_45
    3  A    between atoms: C_5  and  N_45
    4  A    between atoms: C_10  and  C_24
    5  A    between atoms: N_12  and  C_23
    6  A    between atoms: N_12  and  C_32
    7  A    between atoms: C_13  and  N_14
    8  A    between atoms: N_14  and  C_23
    9  A    between atoms: C_18  and  C_33
   10  A    between atoms: C_24  and  C_35
   11  A    between atoms: C_30  and  N_45
   12  A    between atoms: C_33  and  C_38
                            x       y       z     vdW  Elec       q    Type
                         _______ _______ _______ _____ _____    ______ ____

>  <TORSDO>
F 12

$$$$
=
 OpenBabel11072414453D

 45 50  0  0  1  0  0  0  0  0999 V2000
  159.3550  209.6750  154.9730 C   0  0  0  0  0  0  0  0  0  0  0  0
  161.2770  205.2430  153.5510 C   0  0  0  0  0  3  0  0  0  0  0  0
  161.3000  206.0900  152.2990 C   0  0  1  0  0  3  0  0  0  0  0  0
  161.8400  210.9550  153.1750 O   0  0  0  0  0  1  0  0  0  0  0  0
  160.3870  207.1010  154.8750 C   0  0  0  0  0  0  0  0  0  0  0  0
  162.0990  207.6960  152.6890 S   0  0  0  0  0  0  0  0  0  0  0  0
  160.2800  209.3440  153.9320 C   0  0  0  0  0  0  0  0  0  0  0  0
  160.8200  205.7060  154.7180 C   0  0  0  0  0  3  0  0  0  0  0  0
  159.5230  207.4310  155.8550 C   0  0  0  0  0  3  0  0  0  0  0  0
  160.5140  210.5330  153.0750 C   0  0  1  0  0  0  0  0  0  0  0  0
  159.0000  208.7360  155.9440 O   0  0  0  0  0  0  0  0  0  0  0  0
  159.5730  211.5960  153.7070 C   0  0  2  0  0  3  0  0  0  0  0  0
  158.9340  210.9200  154.8920 C   0  0  0  0  0  3  0  0  0  0  0  0
  160.8250  208.1230  153.8820 C   0  0  0  0  0  0  0  0  0  0  0  0
  160.2010  210.2510  151.7550 F   0  0  0  0  0  0  0  0  0  0  0  0
  158.5360  212.0240  152.7760 N   0  0  0  0  0  2  0  0  0  0  0  0
  158.4430  214.4450  153.8320 S   0  0  0  0  0  0  0  0  0  0  0  0
  158.1820  213.3960  152.5990 C   0  0  0  0  0  0  0  0  0  0  0  0
  157.6260  213.8390  151.3540 N   0  0  0  0  0  2  0  0  0  0  0  0
  160.3000  213.3120  148.0790 C   0  0  0  0  0  2  0  0  0  0  0  0
  159.9110  213.9380  150.4840 C   0  0  0  0  0  2  0  0  0  0  0  0
  158.4200  214.1380  150.1710 C   0  0  1  0  0  3  0  0  0  0  0  0
  157.9360  213.2950  148.9890 C   0  0  0  0  0  2  0  0  0  0  0  0
  160.6140  212.9660  149.5340 C   0  0  0  0  0  2  0  0  0  0  0  0
  158.8550  213.4440  147.8620 N   0  0  0  0  0  0  0  0  0  0  0  0
  157.0920  213.7430  146.3560 O   0  0  0  0  0  0  0  0  0  0  0  0
  159.2470  213.7950  145.3690 C   0  0  0  0  0  1  0  0  0  0  0  0
  158.3350  213.6610  146.5430 C   0  0  0  0  0  0  0  0  0  0  0  0
  161.9670  205.3810  151.1940 N   0  0  0  0  0  0  0  0  0  0  0  0
  160.2320  205.6650  146.9030 C   0  0  0  0  0  2  0  0  0  0  0  0
  161.3480  206.4830  149.0750 C   0  0  2  0  0  0  0  0  0  0  0  0
  161.7710  205.0730  148.7190 C   0  0  1  0  0  3  0  0  0  0  0  0
  161.0510  205.3380  150.0450 C   0  0  1  0  0  3  0  0  0  0  0  0
  159.9480  207.0370  148.0470 S   0  0  0  0  0  0  0  0  0  0  0  0
  160.7840  204.5130  147.7130 C   0  0  0  0  0  2  0  0  0  0  0  0
  162.5640  207.3970  149.2780 C   0  0  1  0  0  3  0  0  0  0  0  0
  163.6370  207.1490  148.2290 C   0  0  0  0  0  1  0  0  0  0  0  0
  162.2450  209.4660  150.4110 O   0  0  0  0  0  0  0  0  0  0  0  0
  162.1940  208.8440  149.3180 C   0  0  0  0  0  0  0  0  0  0  0  0
  161.8020  209.5330  148.1340 N   0  0  0  0  0  1  0  0  0  0  0  0
  162.1850  204.0030  151.6420 C   0  0  0  0  0  2  0  0  0  0  0  0
  160.9290  203.1730  151.4280 C   0  0  0  0  0  2  0  0  0  0  0  0
  161.2850  201.7970  150.8910 C   0  0  0  0  0  2  0  0  0  0  0  0
  160.4170  201.4520  149.6940 C   0  0  0  0  0  2  0  0  0  0  0  0
  161.2690  200.9170  148.5580 C   0  0  0  0  0  1  0  0  0  0  0  0
  1 11  1  0  0  0  0
  2  8  2  0  0  0  0
  3 29  1  6  0  0  0
  3  6  1  0  0  0  0
  3  2  1  0  0  0  0
  5  9  2  0  0  0  0
  6 14  1  0  0  0  0
  7  1  1  0  0  0  0
  8  5  1  0  0  0  0
  9 11  1  0  0  0  0
 10 15  1  6  0  0  0
 10  4  1  0  0  0  0
 10 12  1  0  0  0  0
 10  7  1  0  0  0  0
 12 16  1  6  0  0  0
 12 13  1  0  0  0  0
 13  1  2  0  0  0  0
 14  7  2  0  0  0  0
 14  5  1  0  0  0  0
 18 16  1  0  0  0  0
 18 17  2  0  0  0  0
 19 18  1  0  0  0  0
 20 24  1  0  0  0  0
 22 21  1  0  0  0  0
 22 19  1  1  0  0  0
 23 22  1  0  0  0  0
 24 21  1  0  0  0  0
 25 20  1  0  0  0  0
 25 23  1  0  0  0  0
 26 28  2  0  0  0  0
 27 28  1  0  0  0  0
 28 25  1  0  0  0  0
 29 41  1  0  0  0  0
 30 35  1  0  0  0  0
 30 34  1  0  0  0  0
 31 36  1  1  0  0  0
 31 33  1  0  0  0  0
 32 35  1  6  0  0  0
 32 31  1  0  0  0  0
 32 33  1  0  0  0  0
 33 29  1  1  0  0  0
 34 31  1  0  0  0  0
 36 37  1  6  0  0  0
 36 39  1  0  0  0  0
 39 38  2  0  0  0  0
 40 39  1  0  0  0  0
 42 41  1  0  0  0  0
 43 42  1  0  0  0  0
 44 43  1  0  0  0  0
 45 44  1  0  0  0  0
M  END
>  <MODEL>
3

>  <REMARK>
 VINA RESULT:      -3.3      3.834      7.856
  Name = 
  12 active torsions:
  status: ('A' for Active; 'I' for Inactive)
    1  A    between atoms: C_1  and  C_35
    2  A    between atoms: C_1  and  N_45
    3  A    between atoms: C_5  and  N_45
    4  A    between atoms: C_10  and  C_24
    5  A    between atoms: N_12  and  C_23
    6  A    between atoms: N_12  and  C_32
    7  A    between atoms: C_13  and  N_14
    8  A    between atoms: N_14  and  C_23
    9  A    between atoms: C_18  and  C_33
   10  A    between atoms: C_24  and  C_35
   11  A    between atoms: C_30  and  N_45
   12  A    between atoms: C_33  and  C_38
                            x       y       z     vdW  Elec       q    Type
                         _______ _______ _______ _____ _____    ______ ____

>  <TORSDO>
F 12

$$$$
=
 OpenBabel11072414453D

 45 50  0  0  1  0  0  0  0  0999 V2000
  158.5630  214.1430  147.2120 C   0  0  0  0  0  0  0  0  0  0  0  0
  156.9190  212.8630  151.7980 C   0  0  0  0  0  3  0  0  0  0  0  0
  158.2290  212.1240  151.6390 C   0  0  1  0  0  3  0  0  0  0  0  0
  161.5100  214.4530  148.7180 O   0  0  0  0  0  1  0  0  0  0  0  0
  157.1750  213.9260  149.6060 C   0  0  0  0  0  0  0  0  0  0  0  0
  159.5150  213.3150  151.0950 S   0  0  0  0  0  0  0  0  0  0  0  0
  159.2760  213.7430  148.3880 C   0  0  0  0  0  0  0  0  0  0  0  0
  156.4270  213.6570  150.8420 C   0  0  0  0  0  3  0  0  0  0  0  0
  156.5210  214.3110  148.4930 C   0  0  0  0  0  3  0  0  0  0  0  0
  160.7060  213.5260  148.0540 C   0  0  1  0  0  0  0  0  0  0  0  0
  157.2020  214.4520  147.2690 O   0  0  0  0  0  0  0  0  0  0  0  0
  160.7420  213.7970  146.5240 C   0  0  2  0  0  3  0  0  0  0  0  0
  159.3370  214.1900  146.1490 C   0  0  0  0  0  3  0  0  0  0  0  0
  158.6430  213.6680  149.5640 C   0  0  0  0  0  0  0  0  0  0  0  0
  161.0930  212.2370  148.3840 F   0  0  0  0  0  0  0  0  0  0  0  0
  161.1300  212.6100  145.7720 N   0  0  0  0  0  2  0  0  0  0  0  0
  163.4290  213.2330  144.6280 S   0  0  0  0  0  0  0  0  0  0  0  0
  161.8870  212.6810  144.5630 C   0  0  0  0  0  0  0  0  0  0  0  0
  161.3020  212.2560  143.3250 N   0  0  0  0  0  2  0  0  0  0  0  0
  162.1840  213.2200  139.2690 C   0  0  0  0  0  2  0  0  0  0  0  0
  162.8650  213.1900  141.6910 C   0  0  0  0  0  2  0  0  0  0  0  0
  161.3900  213.0110  142.0840 C   0  0  1  0  0  3  0  0  0  0  0  0
  160.5570  212.3310  140.9960 C   0  0  0  0  0  2  0  0  0  0  0  0
  163.1930  212.6840  140.2850 C   0  0  0  0  0  2  0  0  0  0  0  0
  160.8050  212.9700  139.7050 N   0  0  0  0  0  0  0  0  0  0  0  0
  158.5200  213.0540  139.2140 O   0  0  0  0  0  0  0  0  0  0  0  0
  159.9240  213.9320  137.5160 C   0  0  0  0  0  1  0  0  0  0  0  0
  159.7010  213.2970  138.8490 C   0  0  0  0  0  0  0  0  0  0  0  0
  158.5940  211.4280  152.8840 N   0  0  0  0  0  0  0  0  0  0  0  0
  159.8880  213.7600  156.6780 C   0  0  0  0  0  2  0  0  0  0  0  0
  158.2810  212.8110  154.9040 C   0  0  2  0  0  0  0  0  0  0  0  0
  159.4140  211.8530  155.2100 C   0  0  1  0  0  3  0  0  0  0  0  0
  159.2390  212.3930  153.7870 C   0  0  1  0  0  3  0  0  0  0  0  0
  158.5820  214.4530  155.6370 S   0  0  0  0  0  0  0  0  0  0  0  0
  160.5190  212.6220  155.9080 C   0  0  0  0  0  2  0  0  0  0  0  0
  156.9150  212.1320  155.0700 C   0  0  1  0  0  3  0  0  0  0  0  0
  157.0200  210.8400  155.8660 C   0  0  0  0  0  1  0  0  0  0  0  0
  155.7200  213.0330  156.9210 O   0  0  0  0  0  0  0  0  0  0  0  0
  155.8930  213.0390  155.6750 C   0  0  0  0  0  0  0  0  0  0  0  0
  155.1260  213.9230  154.8620 N   0  0  0  0  0  1  0  0  0  0  0  0
  159.5920  210.4140  152.5300 C   0  0  0  0  0  2  0  0  0  0  0  0
  160.6760  210.3450  153.5950 C   0  0  0  0  0  2  0  0  0  0  0  0
  160.9230  208.9040  154.0100 C   0  0  0  0  0  2  0  0  0  0  0  0
  161.4240  208.0900  152.8300 C   0  0  0  0  0  2  0  0  0  0  0  0
  160.9840  206.6440  152.9600 C   0  0  0  0  0  1  0  0  0  0  0  0
  1 11  1  0  0  0  0
  1  7  1  0  0  0  0
  3  2  1  0  0  0  0
  3 29  1  1  0  0  0
  5  8  1  0  0  0  0
  6  3  1  0  0  0  0
  7 14  2  0  0  0  0
  8  2  2  0  0  0  0
  9  5  2  0  0  0  0
 10 15  1  1  0  0  0
 10  7  1  0  0  0  0
 10  4  1  0  0  0  0
 11  9  1  0  0  0  0
 12 16  1  6  0  0  0
 12 10  1  0  0  0  0
 13 12  1  0  0  0  0
 13  1  2  0  0  0  0
 14  5  1  0  0  0  0
 14  6  1  0  0  0  0
 18 17  2  0  0  0  0
 18 16  1  0  0  0  0
 19 18  1  0  0  0  0
 20 25  1  0  0  0  0
 20 24  1  0  0  0  0
 21 22  1  0  0  0  0
 22 19  1  1  0  0  0
 23 22  1  0  0  0  0
 24 21  1  0  0  0  0
 25 23  1  0  0  0  0
 27 28  1  0  0  0  0
 28 26  2  0  0  0  0
 28 25  1  0  0  0  0
 31 36  1  6  0  0  0
 31 32  1  0  0  0  0
 31 34  1  0  0  0  0
 32 35  1  1  0  0  0
 33 29  1  6  0  0  0
 33 31  1  0  0  0  0
 33 32  1  0  0  0  0
 34 30  1  0  0  0  0
 35 30  1  0  0  0  0
 36 39  1  0  0  0  0
 36 37  1  1  0  0  0
 39 38  2  0  0  0  0
 40 39  1  0  0  0  0
 41 29  1  0  0  0  0
 41 42  1  0  0  0  0
 42 43  1  0  0  0  0
 44 45  1  0  0  0  0
 44 43  1  0  0  0  0
M  END
>  <MODEL>
4

>  <REMARK>
 VINA RESULT:      -3.0      1.758      2.159
  Name = 
  12 active torsions:
  status: ('A' for Active; 'I' for Inactive)
    1  A    between atoms: C_1  and  C_35
    2  A    between atoms: C_1  and  N_45
    3  A    between atoms: C_5  and  N_45
    4  A    between atoms: C_10  and  C_24
    5  A    between atoms: N_12  and  C_23
    6  A    between atoms: N_12  and  C_32
    7  A    between atoms: C_13  and  N_14
    8  A    between atoms: N_14  and  C_23
    9  A    between atoms: C_18  and  C_33
   10  A    between atoms: C_24  and  C_35
   11  A    between atoms: C_30  and  N_45
   12  A    between atoms: C_33  and  C_38
                            x       y       z     vdW  Elec       q    Type
                         _______ _______ _______ _____ _____    ______ ____

>  <TORSDO>
F 12

$$$$
=
 OpenBabel11072414453D

 45 50  0  0  1  0  0  0  0  0999 V2000
  160.5010  208.1100  154.6750 C   0  0  0  0  0  0  0  0  0  0  0  0
  161.6440  205.4580  150.5480 C   0  0  0  0  0  3  0  0  0  0  0  0
  161.3010  206.8390  150.0350 C   0  0  1  0  0  3  0  0  0  0  0  0
  162.3300  210.4910  153.2490 O   0  0  0  0  0  1  0  0  0  0  0  0
  161.3200  206.1670  152.8710 C   0  0  0  0  0  0  0  0  0  0  0  0
  162.2600  208.0770  150.9910 S   0  0  0  0  0  0  0  0  0  0  0  0
  161.0220  208.5240  153.4070 C   0  0  0  0  0  0  0  0  0  0  0  0
  161.6120  205.1520  151.8490 C   0  0  0  0  0  3  0  0  0  0  0  0
  160.8370  205.7940  154.0720 C   0  0  0  0  0  3  0  0  0  0  0  0
  161.0240  210.0070  153.3280 C   0  0  1  0  0  0  0  0  0  0  0  0
  160.4340  206.7580  155.0170 O   0  0  0  0  0  0  0  0  0  0  0  0
  160.3900  210.4180  154.6860 C   0  0  2  0  0  3  0  0  0  0  0  0
  160.1370  209.1290  155.4240 C   0  0  0  0  0  3  0  0  0  0  0  0
  161.4620  207.6130  152.5330 C   0  0  0  0  0  0  0  0  0  0  0  0
  160.2870  210.4360  152.2360 F   0  0  0  0  0  0  0  0  0  0  0  0
  159.1290  211.1280  154.5030 N   0  0  0  0  0  2  0  0  0  0  0  0
  159.9030  212.9270  156.2770 S   0  0  0  0  0  0  0  0  0  0  0  0
  158.8290  212.3480  155.1820 C   0  0  0  0  0  0  0  0  0  0  0  0
  157.6160  213.0530  154.8870 N   0  0  0  0  0  2  0  0  0  0  0  0
  155.3640  214.2440  151.4720 C   0  0  0  0  0  2  0  0  0  0  0  0
  155.4370  213.3070  153.8060 C   0  0  0  0  0  2  0  0  0  0  0  0
  156.9250  212.9810  153.6090 C   0  0  1  0  0  3  0  0  0  0  0  0
  157.6110  213.8950  152.5910 C   0  0  0  0  0  2  0  0  0  0  0  0
  154.9350  214.4530  152.9250 C   0  0  0  0  0  2  0  0  0  0  0  0
  156.8040  213.9800  151.3750 N   0  0  0  0  0  0  0  0  0  0  0  0
  158.6770  213.6620  150.0110 O   0  0  0  0  0  0  0  0  0  0  0  0
  156.6420  213.9620  148.8310 C   0  0  0  0  0  1  0  0  0  0  0  0
  157.4360  213.8590  150.0920 C   0  0  0  0  0  0  0  0  0  0  0  0
  161.5410  206.9350  148.5850 N   0  0  0  0  0  0  0  0  0  0  0  0
  163.2800  203.5140  145.9820 C   0  0  0  0  0  2  0  0  0  0  0  0
  161.4710  204.9810  147.0790 C   0  0  2  0  0  0  0  0  0  0  0  0
  162.6860  205.7900  146.6790 C   0  0  1  0  0  3  0  0  0  0  0  0
  162.2650  205.7320  148.1500 C   0  0  1  0  0  3  0  0  0  0  0  0
  161.7930  203.1910  146.9600 S   0  0  0  0  0  0  0  0  0  0  0  0
  163.8440  204.8370  146.4490 C   0  0  0  0  0  2  0  0  0  0  0  0
  160.1850  205.5740  146.4870 C   0  0  1  0  0  3  0  0  0  0  0  0
  160.0740  207.0660  146.7610 C   0  0  0  0  0  1  0  0  0  0  0  0
  159.4350  204.2640  144.6460 O   0  0  0  0  0  0  0  0  0  0  0  0
  160.0450  205.2970  145.0250 C   0  0  0  0  0  0  0  0  0  0  0  0
  160.5780  206.1960  144.0560 N   0  0  0  0  0  1  0  0  0  0  0  0
  162.4220  208.0870  148.3740 C   0  0  0  0  0  2  0  0  0  0  0  0
  161.6970  209.3780  148.7190 C   0  0  0  0  0  2  0  0  0  0  0  0
  162.5750  210.5800  148.4140 C   0  0  0  0  0  2  0  0  0  0  0  0
  161.8210  211.8700  148.6790 C   0  0  0  0  0  2  0  0  0  0  0  0
  161.5710  212.6140  147.3800 C   0  0  0  0  0  1  0  0  0  0  0  0
  1 11  1  0  0  0  0
  1 13  2  0  0  0  0
  2  8  2  0  0  0  0
  3 29  1  6  0  0  0
  3  2  1  0  0  0  0
  3  6  1  0  0  0  0
  4 10  1  0  0  0  0
  5  9  2  0  0  0  0
  6 14  1  0  0  0  0
  7  1  1  0  0  0  0
  8  5  1  0  0  0  0
  9 11  1  0  0  0  0
 10 15  1  6  0  0  0
 10  7  1  0  0  0  0
 10 12  1  0  0  0  0
 12 16  1  6  0  0  0
 12 13  1  0  0  0  0
 14  5  1  0  0  0  0
 14  7  2  0  0  0  0
 16 18  1  0  0  0  0
 18 17  2  0  0  0  0
 19 18  1  0  0  0  0
 20 24  1  0  0  0  0
 22 21  1  0  0  0  0
 22 19  1  1  0  0  0
 23 22  1  0  0  0  0
 24 21  1  0  0  0  0
 25 20  1  0  0  0  0
 25 23  1  0  0  0  0
 26 28  2  0  0  0  0
 27 28  1  0  0  0  0
 28 25  1  0  0  0  0
 30 35  1  0  0  0  0
 30 34  1  0  0  0  0
 31 36  1  6  0  0  0
 31 33  1  0  0  0  0
 32 35  1  1  0  0  0
 32 31  1  0  0  0  0
 32 33  1  0  0  0  0
 33 29  1  6  0  0  0
 34 31  1  0  0  0  0
 36 37  1  6  0  0  0
 38 39  2  0  0  0  0
 39 36  1  0  0  0  0
 40 39  1  0  0  0  0
 41 29  1  0  0  0  0
 41 42  1  0  0  0  0
 43 44  1  0  0  0  0
 43 42  1  0  0  0  0
 45 44  1  0  0  0  0
M  END
>  <MODEL>
5

>  <REMARK>
 VINA RESULT:      -2.8      4.504      9.904
  Name = 
  12 active torsions:
  status: ('A' for Active; 'I' for Inactive)
    1  A    between atoms: C_1  and  C_35
    2  A    between atoms: C_1  and  N_45
    3  A    between atoms: C_5  and  N_45
    4  A    between atoms: C_10  and  C_24
    5  A    between atoms: N_12  and  C_23
    6  A    between atoms: N_12  and  C_32
    7  A    between atoms: C_13  and  N_14
    8  A    between atoms: N_14  and  C_23
    9  A    between atoms: C_18  and  C_33
   10  A    between atoms: C_24  and  C_35
   11  A    between atoms: C_30  and  N_45
   12  A    between atoms: C_33  and  C_38
                            x       y       z     vdW  Elec       q    Type
                         _______ _______ _______ _____ _____    ______ ____

>  <TORSDO>
F 12

$$$$
=
 OpenBabel11072414453D

 45 50  0  0  1  0  0  0  0  0999 V2000
  161.3290  207.7720  152.0130 C   0  0  0  0  0  0  0  0  0  0  0  0
  161.3680  210.0040  147.4980 C   0  0  0  0  0  3  0  0  0  0  0  0
  161.1420  211.1300  148.4820 C   0  0  1  0  0  3  0  0  0  0  0  0
  163.2090  210.3530  152.9370 O   0  0  0  0  0  1  0  0  0  0  0  0
  161.5470  208.3660  149.3110 C   0  0  0  0  0  0  0  0  0  0  0  0
  162.4150  211.0250  149.7990 S   0  0  0  0  0  0  0  0  0  0  0  0
  161.6810  209.1050  151.6280 C   0  0  0  0  0  0  0  0  0  0  0  0
  161.5140  208.7340  147.8890 C   0  0  0  0  0  3  0  0  0  0  0  0
  161.2260  207.1140  149.6900 C   0  0  0  0  0  3  0  0  0  0  0  0
  161.8800  209.9390  152.8400 C   0  0  1  0  0  0  0  0  0  0  0  0
  161.1300  206.7760  151.0540 O   0  0  0  0  0  0  0  0  0  0  0  0
  161.5500  208.9470  153.9900 C   0  0  2  0  0  3  0  0  0  0  0  0
  161.2460  207.6330  153.3200 C   0  0  0  0  0  3  0  0  0  0  0  0
  161.8330  209.4120  150.3350 C   0  0  0  0  0  0  0  0  0  0  0  0
  161.0370  211.0390  152.8170 F   0  0  0  0  0  0  0  0  0  0  0  0
  160.3900  209.3780  154.7620 N   0  0  0  0  0  2  0  0  0  0  0  0
  160.6150  207.5210  156.6280 S   0  0  0  0  0  0  0  0  0  0  0  0
  160.2100  209.0310  156.1360 C   0  0  0  0  0  0  0  0  0  0  0  0
  159.7000  210.0010  157.0590 N   0  0  0  0  0  2  0  0  0  0  0  0
  158.4810  213.3500  154.7250 C   0  0  0  0  0  2  0  0  0  0  0  0
  159.9940  212.3580  156.4730 C   0  0  0  0  0  2  0  0  0  0  0  0
  158.9920  211.2080  156.6610 C   0  0  1  0  0  3  0  0  0  0  0  0
  158.1510  210.9340  155.4120 C   0  0  0  0  0  2  0  0  0  0  0  0
  159.9260  213.0150  155.0920 C   0  0  0  0  0  2  0  0  0  0  0  0
  157.6040  212.1870  154.8950 N   0  0  0  0  0  0  0  0  0  0  0  0
  155.4810  211.2430  154.6230 O   0  0  0  0  0  0  0  0  0  0  0  0
  155.6400  213.5110  153.9540 C   0  0  0  0  0  1  0  0  0  0  0  0
  156.2240  212.2530  154.5040 C   0  0  0  0  0  0  0  0  0  0  0  0
  161.1430  212.4340  147.7980 N   0  0  0  0  0  0  0  0  0  0  0  0
  162.7900  213.2250  143.5350 C   0  0  0  0  0  2  0  0  0  0  0  0
  161.0210  212.8740  145.3720 C   0  0  2  0  0  0  0  0  0  0  0  0
  162.2240  213.6340  145.8860 C   0  0  1  0  0  3  0  0  0  0  0  0
  161.8510  212.2890  146.5170 C   0  0  1  0  0  3  0  0  0  0  0  0
  161.3350  212.1680  143.7210 S   0  0  0  0  0  0  0  0  0  0  0  0
  163.3720  213.4340  144.9150 C   0  0  0  0  0  2  0  0  0  0  0  0
  159.7170  213.6360  145.6490 C   0  0  1  0  0  3  0  0  0  0  0  0
  159.2680  214.4400  144.4390 C   0  0  0  0  0  1  0  0  0  0  0  0
  158.1670  211.8540  145.3510 O   0  0  0  0  0  0  0  0  0  0  0  0
  158.6190  212.7400  146.1220 C   0  0  0  0  0  0  0  0  0  0  0  0
  158.0890  212.8650  147.4380 N   0  0  0  0  0  1  0  0  0  0  0  0
  161.9200  213.3540  148.6330 C   0  0  0  0  0  2  0  0  0  0  0  0
  161.0210  214.4470  149.1910 C   0  0  0  0  0  2  0  0  0  0  0  0
  159.6930  213.8650  149.6440 C   0  0  0  0  0  2  0  0  0  0  0  0
  159.5310  214.0150  151.1470 C   0  0  0  0  0  2  0  0  0  0  0  0
  158.0620  214.0060  151.5250 C   0  0  0  0  0  1  0  0  0  0  0  0
  1 13  2  0  0  0  0
  2  8  2  0  0  0  0
  2  3  1  0  0  0  0
  3 29  1  6  0  0  0
  3  6  1  0  0  0  0
  5  9  2  0  0  0  0
  5 14  1  0  0  0  0
  6 14  1  0  0  0  0
  7  1  1  0  0  0  0
  7 10  1  0  0  0  0
  8  5  1  0  0  0  0
  9 11  1  0  0  0  0
 10 15  1  1  0  0  0
 10  4  1  0  0  0  0
 10 12  1  0  0  0  0
 11  1  1  0  0  0  0
 12 16  1  6  0  0  0
 13 12  1  0  0  0  0
 14  7  2  0  0  0  0
 16 18  1  0  0  0  0
 18 17  2  0  0  0  0
 18 19  1  0  0  0  0
 20 25  1  0  0  0  0
 20 24  1  0  0  0  0
 21 22  1  0  0  0  0
 22 19  1  6  0  0  0
 23 22  1  0  0  0  0
 24 21  1  0  0  0  0
 25 23  1  0  0  0  0
 27 28  1  0  0  0  0
 28 26  2  0  0  0  0
 28 25  1  0  0  0  0
 29 41  1  0  0  0  0
 30 34  1  0  0  0  0
 30 35  1  0  0  0  0
 31 36  1  1  0  0  0
 31 32  1  0  0  0  0
 31 33  1  0  0  0  0
 32 35  1  6  0  0  0
 32 33  1  0  0  0  0
 33 29  1  1  0  0  0
 34 31  1  0  0  0  0
 36 37  1  6  0  0  0
 36 39  1  0  0  0  0
 38 39  2  0  0  0  0
 39 40  1  0  0  0  0
 41 42  1  0  0  0  0
 42 43  1  0  0  0  0
 43 44  1  0  0  0  0
 44 45  1  0  0  0  0
M  END
>  <MODEL>
6

>  <REMARK>
 VINA RESULT:      -2.6      3.156     10.578
  Name = 
  12 active torsions:
  status: ('A' for Active; 'I' for Inactive)
    1  A    between atoms: C_1  and  C_35
    2  A    between atoms: C_1  and  N_45
    3  A    between atoms: C_5  and  N_45
    4  A    between atoms: C_10  and  C_24
    5  A    between atoms: N_12  and  C_23
    6  A    between atoms: N_12  and  C_32
    7  A    between atoms: C_13  and  N_14
    8  A    between atoms: N_14  and  C_23
    9  A    between atoms: C_18  and  C_33
   10  A    between atoms: C_24  and  C_35
   11  A    between atoms: C_30  and  N_45
   12  A    between atoms: C_33  and  C_38
                            x       y       z     vdW  Elec       q    Type
                         _______ _______ _______ _____ _____    ______ ____

>  <TORSDO>
F 12

$$$$
=
 OpenBabel11072414453D

 45 50  0  0  1  0  0  0  0  0999 V2000
  160.7400  209.5400  153.9060 C   0  0  0  0  0  0  0  0  0  0  0  0
  161.2840  204.9050  152.0120 C   0  0  0  0  0  3  0  0  0  0  0  0
  161.0530  205.7870  150.8070 C   0  0  1  0  0  3  0  0  0  0  0  0
  162.7010  210.4440  151.3780 O   0  0  0  0  0  1  0  0  0  0  0  0
  161.2120  206.8330  153.5230 C   0  0  0  0  0  0  0  0  0  0  0  0
  162.2070  207.2120  150.8900 S   0  0  0  0  0  0  0  0  0  0  0  0
  161.2070  209.0970  152.6270 C   0  0  0  0  0  0  0  0  0  0  0  0
  161.3170  205.3910  153.2570 C   0  0  0  0  0  3  0  0  0  0  0  0
  160.7810  207.2670  154.7230 C   0  0  0  0  0  3  0  0  0  0  0  0
  161.3610  210.2630  151.7200 C   0  0  1  0  0  0  0  0  0  0  0  0
  160.5560  208.6370  154.9550 O   0  0  0  0  0  0  0  0  0  0  0  0
  160.8770  211.4450  152.6050 C   0  0  2  0  0  3  0  0  0  0  0  0
  160.5440  210.8410  153.9440 C   0  0  0  0  0  3  0  0  0  0  0  0
  161.4810  207.8040  152.4240 C   0  0  0  0  0  0  0  0  0  0  0  0
  160.5950  210.0940  150.5770 F   0  0  0  0  0  0  0  0  0  0  0  0
  159.6890  212.0850  152.0520 N   0  0  0  0  0  2  0  0  0  0  0  0
  158.5510  214.3680  152.7410 S   0  0  0  0  0  0  0  0  0  0  0  0
  159.6050  213.4950  151.8390 C   0  0  0  0  0  0  0  0  0  0  0  0
  160.4470  214.1240  150.8640 N   0  0  0  0  0  2  0  0  0  0  0  0
  159.6570  212.8330  146.8810 C   0  0  0  0  0  2  0  0  0  0  0  0
  161.3010  213.5590  148.6420 C   0  0  0  0  0  2  0  0  0  0  0  0
  160.1420  214.1760  149.4420 C   0  0  1  0  0  3  0  0  0  0  0  0
  158.7970  213.5000  149.1690 C   0  0  0  0  0  2  0  0  0  0  0  0
  160.8710  212.4210  147.7140 C   0  0  0  0  0  2  0  0  0  0  0  0
  158.5870  213.3720  147.7280 N   0  0  0  0  0  0  0  0  0  0  0  0
  156.3900  214.1550  147.8940 O   0  0  0  0  0  0  0  0  0  0  0  0
  157.0650  213.5810  145.6950 C   0  0  0  0  0  1  0  0  0  0  0  0
  157.3160  213.7210  147.1600 C   0  0  0  0  0  0  0  0  0  0  0  0
  161.1930  205.0190  149.5580 N   0  0  0  0  0  0  0  0  0  0  0  0
  160.1990  206.5820  145.3070 C   0  0  0  0  0  2  0  0  0  0  0  0
  161.5790  205.4430  147.1570 C   0  0  2  0  0  0  0  0  0  0  0  0
  160.0970  205.1770  147.3140 C   0  0  1  0  0  3  0  0  0  0  0  0
  160.8600  205.9000  148.4280 C   0  0  1  0  0  3  0  0  0  0  0  0
  161.8950  206.7380  145.9140 S   0  0  0  0  0  0  0  0  0  0  0  0
  159.3350  206.1920  146.4850 C   0  0  0  0  0  2  0  0  0  0  0  0
  162.3830  204.1360  147.1290 C   0  0  1  0  0  3  0  0  0  0  0  0
  161.5880  203.0000  146.5040 C   0  0  0  0  0  1  0  0  0  0  0  0
  164.6940  204.7030  147.1060 O   0  0  0  0  0  0  0  0  0  0  0  0
  163.7040  204.2890  146.4490 C   0  0  0  0  0  0  0  0  0  0  0  0
  163.8620  203.9550  145.0730 N   0  0  0  0  0  1  0  0  0  0  0  0
  160.1920  203.9500  149.5990 C   0  0  0  0  0  2  0  0  0  0  0  0
  160.8470  202.6270  149.9670 C   0  0  0  0  0  2  0  0  0  0  0  0
  160.2790  201.4990  149.1220 C   0  0  0  0  0  2  0  0  0  0  0  0
  161.2800  200.3630  149.0110 C   0  0  0  0  0  2  0  0  0  0  0  0
  161.5790  200.0620  147.5550 C   0  0  0  0  0  1  0  0  0  0  0  0
  1 13  2  0  0  0  0
  1 11  1  0  0  0  0
  2  8  2  0  0  0  0
  3 29  1  6  0  0  0
  3  6  1  0  0  0  0
  3  2  1  0  0  0  0
  4 10  1  0  0  0  0
  5  9  2  0  0  0  0
  6 14  1  0  0  0  0
  7  1  1  0  0  0  0
  8  5  1  0  0  0  0
  9 11  1  0  0  0  0
 10 15  1  6  0  0  0
 10 12  1  0  0  0  0
 10  7  1  0  0  0  0
 12 16  1  6  0  0  0
 12 13  1  0  0  0  0
 14  7  2  0  0  0  0
 14  5  1  0  0  0  0
 18 16  1  0  0  0  0
 18 17  2  0  0  0  0
 19 18  1  0  0  0  0
 20 24  1  0  0  0  0
 20 25  1  0  0  0  0
 21 22  1  0  0  0  0
 22 19  1  1  0  0  0
 23 22  1  0  0  0  0
 24 21  1  0  0  0  0
 25 23  1  0  0  0  0
 27 28  1  0  0  0  0
 28 25  1  0  0  0  0
 28 26  2  0  0  0  0
 29 41  1  0  0  0  0
 30 34  1  0  0  0  0
 30 35  1  0  0  0  0
 31 36  1  1  0  0  0
 31 32  1  0  0  0  0
 31 33  1  0  0  0  0
 32 35  1  6  0  0  0
 32 33  1  0  0  0  0
 33 29  1  1  0  0  0
 34 31  1  0  0  0  0
 36 37  1  6  0  0  0
 39 38  2  0  0  0  0
 39 36  1  0  0  0  0
 40 39  1  0  0  0  0
 41 42  1  0  0  0  0
 43 42  1  0  0  0  0
 44 43  1  0  0  0  0
 45 44  1  0  0  0  0
M  END
>  <MODEL>
7

>  <REMARK>
 VINA RESULT:      -2.6      4.121      8.494
  Name = 
  12 active torsions:
  status: ('A' for Active; 'I' for Inactive)
    1  A    between atoms: C_1  and  C_35
    2  A    between atoms: C_1  and  N_45
    3  A    between atoms: C_5  and  N_45
    4  A    between atoms: C_10  and  C_24
    5  A    between atoms: N_12  and  C_23
    6  A    between atoms: N_12  and  C_32
    7  A    between atoms: C_13  and  N_14
    8  A    between atoms: N_14  and  C_23
    9  A    between atoms: C_18  and  C_33
   10  A    between atoms: C_24  and  C_35
   11  A    between atoms: C_30  and  N_45
   12  A    between atoms: C_33  and  C_38
                            x       y       z     vdW  Elec       q    Type
                         _______ _______ _______ _____ _____    ______ ____

>  <TORSDO>
F 12

$$$$
