=
 OpenBabel11072413343D

 36 41  0  0  1  0  0  0  0  0999 V2000
  161.4270  206.9020  151.0460 C   0  0  1  0  0  3  0  0  0  0  0  0
  161.8320  209.3110  151.2760 C   0  0  0  0  0  2  0  0  0  0  0  0
  161.7580  208.1780  150.2720 C   0  0  0  0  0  2  0  0  0  0  0  0
  161.1820  208.7780  152.4980 C   0  0  0  0  0  0  0  0  0  0  0  0
  161.4890  206.5570  153.4800 C   0  0  0  0  0  3  0  0  0  0  0  0
  160.8470  207.3380  152.3850 C   0  0  2  0  0  3  0  0  0  0  0  0
  160.8260  209.5520  153.5340 C   0  0  0  0  0  0  0  0  0  0  0  0
  160.3640  207.8120  155.2530 N   0  0  0  0  0  0  0  0  0  0  0  0
  161.2250  206.7690  154.7670 C   0  0  0  0  0  3  0  0  0  0  0  0
  160.1770  209.0000  154.7520 C   0  0  0  0  0  3  0  0  0  0  0  0
  160.6350  206.1970  148.7670 C   0  0  0  0  0  2  0  0  0  0  0  0
  160.6920  204.5510  150.5310 C   0  0  0  0  0  2  0  0  0  0  0  0
  161.5550  204.0250  149.3960 C   0  0  0  0  0  2  0  0  0  0  0  0
  160.4380  206.0280  150.2640 C   0  0  1  0  0  3  0  0  0  0  0  0
  161.6440  205.1370  148.3680 C   0  0  1  0  0  3  0  0  0  0  0  0
  161.4000  204.6420  147.0140 N   0  0  0  0  0  0  0  0  0  0  0  0
  161.3380  205.6330  145.9390 C   0  0  0  0  0  2  0  0  0  0  0  0
  161.1190  203.2580  146.7250 C   0  0  0  0  0  0  0  0  0  0  0  0
  160.3960  203.9340  144.5310 O   0  0  0  0  0  0  0  0  0  0  0  0
  160.8990  202.8550  145.2860 C   0  0  2  0  0  3  0  0  0  0  0  0
  161.1420  202.3870  147.6390 O   0  0  0  0  0  0  0  0  0  0  0  0
  161.3670  204.9500  144.5700 C   0  0  0  0  0  2  0  0  0  0  0  0
  159.9750  201.6430  145.1500 C   0  0  0  0  0  2  0  0  0  0  0  0
  160.6950  200.3420  145.4680 C   0  0  0  0  0  1  0  0  0  0  0  0
  161.0930  210.9610  153.4650 N   0  0  0  0  0  2  0  0  0  0  0  0
  157.9940  213.9950  155.3950 O   0  0  0  0  0  0  0  0  0  0  0  0
  160.1130  211.9970  153.3270 C   0  0  0  0  0  0  0  0  0  0  0  0
  158.1410  214.0840  153.0340 C   0  0  0  0  0  3  0  0  0  0  0  0
  160.4550  212.2950  150.9830 O   0  0  0  0  0  0  0  0  0  0  0  0
  159.5300  212.4740  154.4310 C   0  0  0  0  0  3  0  0  0  0  0  0
  158.7180  213.6280  151.9150 C   0  0  0  0  0  0  0  0  0  0  0  0
  158.5250  213.5450  154.3480 C   0  0  0  0  0  0  0  0  0  0  0  0
  159.7910  212.6060  152.0080 C   0  0  0  0  0  0  0  0  0  0  0  0
  157.4140  213.3240  149.8590 C   0  0  0  0  0  2  0  0  0  0  0  0
  158.3370  214.2220  150.5910 C   0  0  1  0  0  3  0  0  0  0  0  0
  156.9470  214.4530  150.5510 O   0  0  0  0  0  0  0  0  0  0  0  0
  1  3  1  6  0  0  0
  1  6  1  0  0  0  0
  2  4  1  0  0  0  0
  3  2  1  0  0  0  0
  4  7  2  0  0  0  0
  5  9  2  0  0  0  0
  6  4  1  0  0  0  0
  6  5  1  1  0  0  0
  7 10  1  0  0  0  0
  9  8  1  0  0  0  0
 10  8  2  0  0  0  0
 13 12  1  0  0  0  0
 14 11  1  6  0  0  0
 14 12  1  0  0  0  0
 14  1  1  0  0  0  0
 15 16  1  6  0  0  0
 15 11  1  0  0  0  0
 15 13  1  0  0  0  0
 17 16  1  0  0  0  0
 18 16  1  0  0  0  0
 18 21  2  0  0  0  0
 19 22  1  0  0  0  0
 19 20  1  0  0  0  0
 20 23  1  1  0  0  0
 20 18  1  0  0  0  0
 22 17  1  0  0  0  0
 23 24  1  0  0  0  0
 25  7  1  0  0  0  0
 27 25  1  0  0  0  0
 27 30  2  0  0  0  0
 28 32  1  0  0  0  0
 29 33  2  0  0  0  0
 31 33  1  0  0  0  0
 31 28  2  0  0  0  0
 32 30  1  0  0  0  0
 32 26  2  0  0  0  0
 33 27  1  0  0  0  0
 34 36  1  0  0  0  0
 34 35  1  0  0  0  0
 35 31  1  1  0  0  0
 36 35  1  0  0  0  0
M  END
>  <MODEL>
1

>  <REMARK>
 VINA RESULT:      -9.4      0.000      0.000
  Name = 
  6 active torsions:
  status: ('A' for Active; 'I' for Inactive)
    1  A    between atoms: N_1  and  C_16
    2  A    between atoms: N_1  and  C_22
    3  A    between atoms: C_5  and  C_27
    4  A    between atoms: C_7  and  C_23
    5  A    between atoms: N_12  and  C_30
    6  A    between atoms: C_20  and  C_28
                            x       y       z     vdW  Elec       q    Type
                         _______ _______ _______ _____ _____    ______ ____

>  <TORSDO>
F 6

$$$$
=
 OpenBabel11072413343D

 36 41  0  0  1  0  0  0  0  0999 V2000
  161.3520  207.1940  152.6380 C   0  0  1  0  0  3  0  0  0  0  0  0
  161.3950  209.5880  152.1010 C   0  0  0  0  0  2  0  0  0  0  0  0
  161.4950  208.2010  151.4970 C   0  0  0  0  0  2  0  0  0  0  0  0
  160.8230  209.3720  153.4530 C   0  0  0  0  0  0  0  0  0  0  0  0
  161.4500  207.6330  155.0560 C   0  0  0  0  0  3  0  0  0  0  0  0
  160.7060  207.9360  153.8010 C   0  0  2  0  0  3  0  0  0  0  0  0
  160.3500  210.3700  154.2140 C   0  0  0  0  0  0  0  0  0  0  0  0
  160.1420  209.2020  156.4020 N   0  0  0  0  0  0  0  0  0  0  0  0
  161.1500  208.1930  156.2250 C   0  0  0  0  0  3  0  0  0  0  0  0
  159.7840  210.1360  155.5680 C   0  0  0  0  0  3  0  0  0  0  0  0
  160.4760  205.8700  150.6900 C   0  0  0  0  0  2  0  0  0  0  0  0
  161.1320  204.6870  152.6880 C   0  0  0  0  0  2  0  0  0  0  0  0
  161.9500  204.1200  151.5400 C   0  0  0  0  0  2  0  0  0  0  0  0
  160.5080  205.9890  152.2040 C   0  0  1  0  0  3  0  0  0  0  0  0
  161.6480  204.9800  150.3260 C   0  0  1  0  0  3  0  0  0  0  0  0
  161.3650  204.1670  149.1450 N   0  0  0  0  0  0  0  0  0  0  0  0
  160.9960  202.7690  149.3660 C   0  0  0  0  0  2  0  0  0  0  0  0
  161.5370  204.6550  147.7990 C   0  0  0  0  0  0  0  0  0  0  0  0
  161.3560  202.3830  147.0250 O   0  0  0  0  0  0  0  0  0  0  0  0
  161.1970  203.7330  146.6520 C   0  0  2  0  0  3  0  0  0  0  0  0
  161.8780  205.8510  147.5820 O   0  0  0  0  0  0  0  0  0  0  0  0
  160.4580  202.1400  148.0790 C   0  0  0  0  0  2  0  0  0  0  0  0
  162.0180  204.0310  145.3970 C   0  0  0  0  0  2  0  0  0  0  0  0
  161.2500  204.8900  144.4050 C   0  0  0  0  0  1  0  0  0  0  0  0
  160.4060  211.7110  153.7050 N   0  0  0  0  0  2  0  0  0  0  0  0
  156.3460  214.0140  154.5690 O   0  0  0  0  0  0  0  0  0  0  0  0
  159.2900  212.4840  153.2460 C   0  0  0  0  0  0  0  0  0  0  0  0
  157.0470  214.0390  152.3070 C   0  0  0  0  0  3  0  0  0  0  0  0
  160.1260  212.7580  151.0270 O   0  0  0  0  0  0  0  0  0  0  0  0
  158.3650  212.8560  154.1350 C   0  0  0  0  0  3  0  0  0  0  0  0
  157.9660  213.6860  151.4010 C   0  0  0  0  0  0  0  0  0  0  0  0
  157.2040  213.6590  153.7200 C   0  0  0  0  0  0  0  0  0  0  0  0
  159.1790  212.9470  151.8360 C   0  0  0  0  0  0  0  0  0  0  0  0
  157.0600  213.1020  149.1970 C   0  0  0  0  0  2  0  0  0  0  0  0
  157.8050  214.1200  149.9740 C   0  0  1  0  0  3  0  0  0  0  0  0
  156.4360  214.2680  149.6710 O   0  0  0  0  0  0  0  0  0  0  0  0
  1  3  1  6  0  0  0
  1  6  1  0  0  0  0
  2  4  1  0  0  0  0
  3  2  1  0  0  0  0
  4  6  1  0  0  0  0
  4  7  2  0  0  0  0
  5  9  2  0  0  0  0
  6  5  1  1  0  0  0
  7 10  1  0  0  0  0
  9  8  1  0  0  0  0
 10  8  2  0  0  0  0
 13 12  1  0  0  0  0
 14 11  1  6  0  0  0
 14  1  1  0  0  0  0
 14 12  1  0  0  0  0
 15 16  1  6  0  0  0
 15 11  1  0  0  0  0
 15 13  1  0  0  0  0
 16 17  1  0  0  0  0
 18 16  1  0  0  0  0
 19 22  1  0  0  0  0
 20 23  1  6  0  0  0
 20 19  1  0  0  0  0
 20 18  1  0  0  0  0
 21 18  2  0  0  0  0
 22 17  1  0  0  0  0
 24 23  1  0  0  0  0
 25  7  1  0  0  0  0
 27 25  1  0  0  0  0
 27 30  2  0  0  0  0
 28 32  1  0  0  0  0
 29 33  2  0  0  0  0
 31 33  1  0  0  0  0
 31 28  2  0  0  0  0
 32 30  1  0  0  0  0
 32 26  2  0  0  0  0
 33 27  1  0  0  0  0
 34 36  1  0  0  0  0
 34 35  1  0  0  0  0
 35 31  1  1  0  0  0
 36 35  1  0  0  0  0
M  END
>  <MODEL>
2

>  <REMARK>
 VINA RESULT:      -9.4      1.417      2.144
  Name = 
  6 active torsions:
  status: ('A' for Active; 'I' for Inactive)
    1  A    between atoms: N_1  and  C_16
    2  A    between atoms: N_1  and  C_22
    3  A    between atoms: C_5  and  C_27
    4  A    between atoms: C_7  and  C_23
    5  A    between atoms: N_12  and  C_30
    6  A    between atoms: C_20  and  C_28
                            x       y       z     vdW  Elec       q    Type
                         _______ _______ _______ _____ _____    ______ ____

>  <TORSDO>
F 6

$$$$
=
 OpenBabel11072413343D

 36 41  0  0  1  0  0  0  0  0999 V2000
  161.4470  208.7050  152.6160 C   0  0  1  0  0  3  0  0  0  0  0  0
  161.5080  210.7440  151.2520 C   0  0  0  0  0  2  0  0  0  0  0  0
  161.8230  209.2620  151.2430 C   0  0  0  0  0  2  0  0  0  0  0  0
  160.6260  210.9370  152.4300 C   0  0  0  0  0  0  0  0  0  0  0  0
  160.9150  209.9670  154.6590 C   0  0  0  0  0  3  0  0  0  0  0  0
  160.4960  209.7100  153.2520 C   0  0  2  0  0  3  0  0  0  0  0  0
  159.9300  212.0620  152.6470 C   0  0  0  0  0  0  0  0  0  0  0  0
  159.2370  211.7120  155.0110 N   0  0  0  0  0  0  0  0  0  0  0  0
  160.3050  210.8530  155.4430 C   0  0  0  0  0  3  0  0  0  0  0  0
  159.0540  212.2390  153.8340 C   0  0  0  0  0  3  0  0  0  0  0  0
  160.5880  206.9570  151.0290 C   0  0  0  0  0  2  0  0  0  0  0  0
  161.7200  206.2390  153.0350 C   0  0  0  0  0  2  0  0  0  0  0  0
  162.4690  205.6400  151.8560 C   0  0  0  0  0  2  0  0  0  0  0  0
  160.7990  207.3210  152.4880 C   0  0  1  0  0  3  0  0  0  0  0  0
  161.8490  206.2310  150.6030 C   0  0  1  0  0  3  0  0  0  0  0  0
  161.5700  205.2030  149.6020 N   0  0  0  0  0  0  0  0  0  0  0  0
  161.2560  203.8600  150.0900 C   0  0  0  0  0  2  0  0  0  0  0  0
  161.6960  205.4350  148.1850 C   0  0  0  0  0  0  0  0  0  0  0  0
  161.5810  203.0540  147.8540 O   0  0  0  0  0  0  0  0  0  0  0  0
  161.3660  204.3040  147.2390 C   0  0  2  0  0  3  0  0  0  0  0  0
  161.9900  206.5790  147.7390 O   0  0  0  0  0  0  0  0  0  0  0  0
  160.7140  202.9840  148.9580 C   0  0  0  0  0  2  0  0  0  0  0  0
  162.1500  204.3870  145.9290 C   0  0  0  0  0  2  0  0  0  0  0  0
  161.2670  204.8060  144.7640 C   0  0  0  0  0  1  0  0  0  0  0  0
  160.0470  213.1370  151.7010 N   0  0  0  0  0  2  0  0  0  0  0  0
  155.8090  213.6740  149.6310 O   0  0  0  0  0  0  0  0  0  0  0  0
  159.2490  213.3130  150.5240 C   0  0  0  0  0  0  0  0  0  0  0  0
  157.6530  213.6650  148.1450 C   0  0  0  0  0  3  0  0  0  0  0  0
  161.1070  213.5900  149.0520 O   0  0  0  0  0  0  0  0  0  0  0  0
  157.9220  213.3940  150.6610 C   0  0  0  0  0  3  0  0  0  0  0  0
  158.9790  213.5950  147.9850 C   0  0  0  0  0  0  0  0  0  0  0  0
  157.0550  213.5850  149.4880 C   0  0  0  0  0  0  0  0  0  0  0  0
  159.8570  213.4860  149.1780 C   0  0  0  0  0  0  0  0  0  0  0  0
  159.8610  212.3840  146.0420 C   0  0  0  0  0  2  0  0  0  0  0  0
  159.5670  213.7200  146.6100 C   0  0  1  0  0  3  0  0  0  0  0  0
  158.7160  213.1060  145.6680 O   0  0  0  0  0  0  0  0  0  0  0  0
  1  3  1  6  0  0  0
  1  6  1  0  0  0  0
  2  4  1  0  0  0  0
  3  2  1  0  0  0  0
  4  7  2  0  0  0  0
  4  6  1  0  0  0  0
  5  9  2  0  0  0  0
  6  5  1  1  0  0  0
  7 10  1  0  0  0  0
  8  9  1  0  0  0  0
 10  8  2  0  0  0  0
 13 12  1  0  0  0  0
 14 11  1  6  0  0  0
 14  1  1  0  0  0  0
 14 12  1  0  0  0  0
 15 16  1  6  0  0  0
 15 11  1  0  0  0  0
 15 13  1  0  0  0  0
 16 17  1  0  0  0  0
 18 16  1  0  0  0  0
 19 22  1  0  0  0  0
 20 23  1  6  0  0  0
 20 19  1  0  0  0  0
 20 18  1  0  0  0  0
 21 18  2  0  0  0  0
 22 17  1  0  0  0  0
 24 23  1  0  0  0  0
 25  7  1  0  0  0  0
 27 30  2  0  0  0  0
 27 25  1  0  0  0  0
 28 32  1  0  0  0  0
 29 33  2  0  0  0  0
 31 28  2  0  0  0  0
 31 33  1  0  0  0  0
 32 26  2  0  0  0  0
 32 30  1  0  0  0  0
 33 27  1  0  0  0  0
 34 35  1  0  0  0  0
 35 31  1  1  0  0  0
 36 34  1  0  0  0  0
 36 35  1  0  0  0  0
M  END
>  <MODEL>
3

>  <REMARK>
 VINA RESULT:      -9.2      2.076      3.654
  Name = 
  6 active torsions:
  status: ('A' for Active; 'I' for Inactive)
    1  A    between atoms: N_1  and  C_16
    2  A    between atoms: N_1  and  C_22
    3  A    between atoms: C_5  and  C_27
    4  A    between atoms: C_7  and  C_23
    5  A    between atoms: N_12  and  C_30
    6  A    between atoms: C_20  and  C_28
                            x       y       z     vdW  Elec       q    Type
                         _______ _______ _______ _____ _____    ______ ____

>  <TORSDO>
F 6

$$$$
=
 OpenBabel11072413343D

 36 41  0  0  1  0  0  0  0  0999 V2000
  161.4090  206.9030  151.0380 C   0  0  1  0  0  3  0  0  0  0  0  0
  161.8320  209.2990  151.3600 C   0  0  0  0  0  2  0  0  0  0  0  0
  161.7310  208.2080  150.3110 C   0  0  0  0  0  2  0  0  0  0  0  0
  161.2040  208.7180  152.5720 C   0  0  0  0  0  0  0  0  0  0  0  0
  161.5200  206.4570  153.4540 C   0  0  0  0  0  3  0  0  0  0  0  0
  160.8600  207.2850  152.4060 C   0  0  2  0  0  3  0  0  0  0  0  0
  160.8730  209.4500  153.6460 C   0  0  0  0  0  0  0  0  0  0  0  0
  160.4380  207.6420  155.3010 N   0  0  0  0  0  0  0  0  0  0  0  0
  161.2830  206.6170  154.7540 C   0  0  0  0  0  3  0  0  0  0  0  0
  160.2470  208.8510  154.8530 C   0  0  0  0  0  3  0  0  0  0  0  0
  160.6320  206.2190  148.7490 C   0  0  0  0  0  2  0  0  0  0  0  0
  160.5880  204.5810  150.5210 C   0  0  0  0  0  2  0  0  0  0  0  0
  161.4500  204.0140  149.4050 C   0  0  0  0  0  2  0  0  0  0  0  0
  160.4000  206.0660  150.2420 C   0  0  1  0  0  3  0  0  0  0  0  0
  161.6040  205.1170  148.3730 C   0  0  1  0  0  3  0  0  0  0  0  0
  161.3650  204.6250  147.0170 N   0  0  0  0  0  0  0  0  0  0  0  0
  161.2940  205.6190  145.9460 C   0  0  0  0  0  2  0  0  0  0  0  0
  161.0980  203.2390  146.7220 C   0  0  0  0  0  0  0  0  0  0  0  0
  160.3700  203.9170  144.5310 O   0  0  0  0  0  0  0  0  0  0  0  0
  160.8830  202.8400  145.2810 C   0  0  2  0  0  3  0  0  0  0  0  0
  161.1300  202.3650  147.6320 O   0  0  0  0  0  0  0  0  0  0  0  0
  161.3300  204.9420  144.5740 C   0  0  0  0  0  2  0  0  0  0  0  0
  159.9710  201.6200  145.1400 C   0  0  0  0  0  2  0  0  0  0  0  0
  160.6830  200.3310  145.5220 C   0  0  0  0  0  1  0  0  0  0  0  0
  161.1460  210.8590  153.6300 N   0  0  0  0  0  2  0  0  0  0  0  0
  158.5640  213.5670  150.7090 O   0  0  0  0  0  0  0  0  0  0  0  0
  160.1840  211.9000  153.4210 C   0  0  0  0  0  0  0  0  0  0  0  0
  158.2430  213.9980  153.0140 C   0  0  0  0  0  3  0  0  0  0  0  0
  159.6420  212.1500  155.7330 O   0  0  0  0  0  0  0  0  0  0  0  0
  159.8600  212.2250  152.1660 C   0  0  0  0  0  3  0  0  0  0  0  0
  158.5460  213.6840  154.2800 C   0  0  0  0  0  0  0  0  0  0  0  0
  158.8700  213.2790  151.8940 C   0  0  0  0  0  0  0  0  0  0  0  0
  159.4820  212.5640  154.5530 C   0  0  0  0  0  0  0  0  0  0  0  0
  156.3980  214.4440  155.1910 C   0  0  0  0  0  2  0  0  0  0  0  0
  157.8640  214.4040  155.4050 C   0  0  1  0  0  3  0  0  0  0  0  0
  156.9880  213.5250  156.0750 O   0  0  0  0  0  0  0  0  0  0  0  0
  1  3  1  6  0  0  0
  1  6  1  0  0  0  0
  2  4  1  0  0  0  0
  3  2  1  0  0  0  0
  4  7  2  0  0  0  0
  5  9  2  0  0  0  0
  6  4  1  0  0  0  0
  6  5  1  1  0  0  0
  7 10  1  0  0  0  0
  9  8  1  0  0  0  0
 10  8  2  0  0  0  0
 13 12  1  0  0  0  0
 14 11  1  6  0  0  0
 14 12  1  0  0  0  0
 14  1  1  0  0  0  0
 15 16  1  6  0  0  0
 15 11  1  0  0  0  0
 15 13  1  0  0  0  0
 17 16  1  0  0  0  0
 18 16  1  0  0  0  0
 18 21  2  0  0  0  0
 19 22  1  0  0  0  0
 19 20  1  0  0  0  0
 20 23  1  1  0  0  0
 20 18  1  0  0  0  0
 22 17  1  0  0  0  0
 23 24  1  0  0  0  0
 25  7  1  0  0  0  0
 26 32  2  0  0  0  0
 27 25  1  0  0  0  0
 27 33  1  0  0  0  0
 28 31  2  0  0  0  0
 30 27  2  0  0  0  0
 31 33  1  0  0  0  0
 32 30  1  0  0  0  0
 32 28  1  0  0  0  0
 33 29  2  0  0  0  0
 34 35  1  0  0  0  0
 34 36  1  0  0  0  0
 35 31  1  6  0  0  0
 35 36  1  0  0  0  0
M  END
>  <MODEL>
4

>  <REMARK>
 VINA RESULT:      -9.2      0.752      2.077
  Name = 
  6 active torsions:
  status: ('A' for Active; 'I' for Inactive)
    1  A    between atoms: N_1  and  C_16
    2  A    between atoms: N_1  and  C_22
    3  A    between atoms: C_5  and  C_27
    4  A    between atoms: C_7  and  C_23
    5  A    between atoms: N_12  and  C_30
    6  A    between atoms: C_20  and  C_28
                            x       y       z     vdW  Elec       q    Type
                         _______ _______ _______ _____ _____    ______ ____

>  <TORSDO>
F 6

$$$$
=
 OpenBabel11072413343D

 36 41  0  0  1  0  0  0  0  0999 V2000
  161.3720  207.1500  151.2060 C   0  0  1  0  0  3  0  0  0  0  0  0
  161.6170  209.5790  151.4530 C   0  0  0  0  0  2  0  0  0  0  0  0
  161.6010  208.4520  150.4390 C   0  0  0  0  0  2  0  0  0  0  0  0
  161.0280  208.9920  152.6810 C   0  0  0  0  0  0  0  0  0  0  0  0
  161.5050  206.7890  153.6350 C   0  0  0  0  0  3  0  0  0  0  0  0
  160.7910  207.5340  152.5600 C   0  0  2  0  0  3  0  0  0  0  0  0
  160.6410  209.7310  153.7320 C   0  0  0  0  0  0  0  0  0  0  0  0
  160.3330  207.9490  155.4420 N   0  0  0  0  0  0  0  0  0  0  0  0
  161.2530  206.9720  154.9290 C   0  0  0  0  0  3  0  0  0  0  0  0
  160.0560  209.1260  154.9560 C   0  0  0  0  0  3  0  0  0  0  0  0
  160.6930  206.3000  148.9410 C   0  0  0  0  0  2  0  0  0  0  0  0
  160.6890  204.7620  150.8010 C   0  0  0  0  0  2  0  0  0  0  0  0
  161.6080  204.1830  149.7380 C   0  0  0  0  0  2  0  0  0  0  0  0
  160.4300  206.2170  150.4340 C   0  0  1  0  0  3  0  0  0  0  0  0
  161.7300  205.2330  148.6500 C   0  0  1  0  0  3  0  0  0  0  0  0
  161.5540  204.6550  147.3190 N   0  0  0  0  0  0  0  0  0  0  0  0
  161.4230  205.5850  146.1970 C   0  0  0  0  0  2  0  0  0  0  0  0
  161.4000  203.2400  147.0940 C   0  0  0  0  0  0  0  0  0  0  0  0
  160.6580  203.7450  144.8600 O   0  0  0  0  0  0  0  0  0  0  0  0
  161.2410  202.7520  145.6730 C   0  0  2  0  0  3  0  0  0  0  0  0
  161.4850  202.4190  148.0480 O   0  0  0  0  0  0  0  0  0  0  0  0
  161.5350  204.8440  144.8630 C   0  0  0  0  0  2  0  0  0  0  0  0
  160.4300  201.4580  145.5840 C   0  0  0  0  0  2  0  0  0  0  0  0
  159.2530  201.5900  144.6310 C   0  0  0  0  0  1  0  0  0  0  0  0
  160.8110  211.1560  153.6720 N   0  0  0  0  0  2  0  0  0  0  0  0
  159.6210  214.0270  157.2600 O   0  0  0  0  0  0  0  0  0  0  0  0
  159.9340  212.1320  154.2480 C   0  0  0  0  0  0  0  0  0  0  0  0
  158.1600  214.0970  155.3980 C   0  0  0  0  0  3  0  0  0  0  0  0
  158.6200  212.4220  152.2770 O   0  0  0  0  0  0  0  0  0  0  0  0
  160.2070  212.5870  155.4750 C   0  0  0  0  0  3  0  0  0  0  0  0
  157.8730  213.6630  154.1650 C   0  0  0  0  0  0  0  0  0  0  0  0
  159.3470  213.5970  156.1110 C   0  0  0  0  0  0  0  0  0  0  0  0
  158.7880  212.7060  153.4930 C   0  0  0  0  0  0  0  0  0  0  0  0
  155.5260  213.2970  153.5510 C   0  0  0  0  0  2  0  0  0  0  0  0
  156.6800  214.2180  153.4440 C   0  0  1  0  0  3  0  0  0  0  0  0
  155.6290  214.4430  154.3570 O   0  0  0  0  0  0  0  0  0  0  0  0
  1  3  1  6  0  0  0
  1  6  1  0  0  0  0
  2  4  1  0  0  0  0
  3  2  1  0  0  0  0
  4  7  2  0  0  0  0
  5  9  2  0  0  0  0
  6  4  1  0  0  0  0
  6  5  1  1  0  0  0
  7 10  1  0  0  0  0
  9  8  1  0  0  0  0
 10  8  2  0  0  0  0
 13 12  1  0  0  0  0
 14 11  1  6  0  0  0
 14 12  1  0  0  0  0
 14  1  1  0  0  0  0
 15 16  1  6  0  0  0
 15 11  1  0  0  0  0
 15 13  1  0  0  0  0
 17 16  1  0  0  0  0
 18 16  1  0  0  0  0
 18 21  2  0  0  0  0
 19 22  1  0  0  0  0
 19 20  1  0  0  0  0
 20 23  1  1  0  0  0
 20 18  1  0  0  0  0
 22 17  1  0  0  0  0
 24 23  1  0  0  0  0
 25  7  1  0  0  0  0
 25 27  1  0  0  0  0
 27 30  2  0  0  0  0
 28 32  1  0  0  0  0
 29 33  2  0  0  0  0
 30 32  1  0  0  0  0
 31 28  2  0  0  0  0
 32 26  2  0  0  0  0
 33 31  1  0  0  0  0
 33 27  1  0  0  0  0
 34 36  1  0  0  0  0
 35 34  1  0  0  0  0
 35 31  1  1  0  0  0
 35 36  1  0  0  0  0
M  END
>  <MODEL>
5

>  <REMARK>
 VINA RESULT:      -8.7      1.297      1.527
  Name = 
  6 active torsions:
  status: ('A' for Active; 'I' for Inactive)
    1  A    between atoms: N_1  and  C_16
    2  A    between atoms: N_1  and  C_22
    3  A    between atoms: C_5  and  C_27
    4  A    between atoms: C_7  and  C_23
    5  A    between atoms: N_12  and  C_30
    6  A    between atoms: C_20  and  C_28
                            x       y       z     vdW  Elec       q    Type
                         _______ _______ _______ _____ _____    ______ ____

>  <TORSDO>
F 6

$$$$
=
 OpenBabel11072413343D

 36 41  0  0  1  0  0  0  0  0999 V2000
  161.2310  209.8230  155.2480 C   0  0  1  0  0  3  0  0  0  0  0  0
  160.9230  207.4420  154.7380 C   0  0  0  0  0  2  0  0  0  0  0  0
  160.7770  208.4840  155.8290 C   0  0  0  0  0  2  0  0  0  0  0  0
  161.0720  208.2240  153.4860 C   0  0  0  0  0  0  0  0  0  0  0  0
  162.4520  210.2170  153.1500 C   0  0  0  0  0  3  0  0  0  0  0  0
  161.1890  209.6810  153.7320 C   0  0  2  0  0  3  0  0  0  0  0  0
  160.9810  207.6740  152.2660 C   0  0  0  0  0  0  0  0  0  0  0  0
  161.8830  209.5280  150.8720 N   0  0  0  0  0  0  0  0  0  0  0  0
  162.7230  210.1660  151.8470 C   0  0  0  0  0  3  0  0  0  0  0  0
  161.1360  208.4710  151.0220 C   0  0  0  0  0  3  0  0  0  0  0  0
  160.0480  211.9430  154.6030 C   0  0  0  0  0  2  0  0  0  0  0  0
  158.9620  210.4380  156.1440 C   0  0  0  0  0  2  0  0  0  0  0  0
  158.0240  210.6270  154.9640 C   0  0  0  0  0  2  0  0  0  0  0  0
  160.3290  210.9650  155.7300 C   0  0  1  0  0  3  0  0  0  0  0  0
  158.7850  211.4400  153.9320 C   0  0  1  0  0  3  0  0  0  0  0  0
  157.9760  212.5390  153.4070 N   0  0  0  0  0  0  0  0  0  0  0  0
  156.8670  213.0110  154.2360 C   0  0  0  0  0  2  0  0  0  0  0  0
  158.1620  213.0860  152.0860 C   0  0  0  0  0  0  0  0  0  0  0  0
  156.0390  214.1950  152.3210 O   0  0  0  0  0  0  0  0  0  0  0  0
  157.2790  214.2330  151.6530 C   0  0  2  0  0  3  0  0  0  0  0  0
  159.0970  212.6790  151.3420 O   0  0  0  0  0  0  0  0  0  0  0  0
  156.3070  214.3280  153.6950 C   0  0  0  0  0  2  0  0  0  0  0  0
  157.0610  214.2660  150.1400 C   0  0  0  0  0  2  0  0  0  0  0  0
  155.5990  214.0680  149.7720 C   0  0  0  0  0  1  0  0  0  0  0  0
  160.7370  206.2630  152.1620 N   0  0  0  0  0  2  0  0  0  0  0  0
  161.4890  205.9240  147.4880 O   0  0  0  0  0  0  0  0  0  0  0  0
  160.8810  205.4690  150.9780 C   0  0  0  0  0  0  0  0  0  0  0  0
  161.1680  203.8580  148.6000 C   0  0  0  0  0  3  0  0  0  0  0  0
  160.8430  203.3750  152.1250 O   0  0  0  0  0  0  0  0  0  0  0  0
  161.1020  206.0920  149.8170 C   0  0  0  0  0  3  0  0  0  0  0  0
  160.9570  203.2120  149.7530 C   0  0  0  0  0  0  0  0  0  0  0  0
  161.2680  205.3260  148.5720 C   0  0  0  0  0  0  0  0  0  0  0  0
  160.8720  203.9810  151.0200 C   0  0  0  0  0  0  0  0  0  0  0  0
  159.5730  201.2360  149.3070 C   0  0  0  0  0  2  0  0  0  0  0  0
  160.9000  201.7130  149.7620 C   0  0  1  0  0  3  0  0  0  0  0  0
  160.6870  201.2340  148.4520 O   0  0  0  0  0  0  0  0  0  0  0  0
  1 14  1  0  0  0  0
  1  3  1  1  0  0  0
  2  3  1  0  0  0  0
  4  6  1  0  0  0  0
  4  2  1  0  0  0  0
  6  5  1  6  0  0  0
  6  1  1  0  0  0  0
  7  4  2  0  0  0  0
  8 10  2  0  0  0  0
  8  9  1  0  0  0  0
  9  5  2  0  0  0  0
 10  7  1  0  0  0  0
 13 12  1  0  0  0  0
 14 11  1  6  0  0  0
 14 12  1  0  0  0  0
 15 16  1  1  0  0  0
 15 11  1  0  0  0  0
 15 13  1  0  0  0  0
 16 17  1  0  0  0  0
 18 16  1  0  0  0  0
 19 22  1  0  0  0  0
 20 23  1  6  0  0  0
 20 18  1  0  0  0  0
 20 19  1  0  0  0  0
 21 18  2  0  0  0  0
 22 17  1  0  0  0  0
 24 23  1  0  0  0  0
 25  7  1  0  0  0  0
 26 32  2  0  0  0  0
 27 33  1  0  0  0  0
 27 25  1  0  0  0  0
 28 31  2  0  0  0  0
 30 27  2  0  0  0  0
 31 33  1  0  0  0  0
 32 28  1  0  0  0  0
 32 30  1  0  0  0  0
 33 29  2  0  0  0  0
 34 35  1  0  0  0  0
 35 31  1  6  0  0  0
 36 34  1  0  0  0  0
 36 35  1  0  0  0  0
M  END
>  <MODEL>
6

>  <REMARK>
 VINA RESULT:      -8.5      2.288      9.619
  Name = 
  6 active torsions:
  status: ('A' for Active; 'I' for Inactive)
    1  A    between atoms: N_1  and  C_16
    2  A    between atoms: N_1  and  C_22
    3  A    between atoms: C_5  and  C_27
    4  A    between atoms: C_7  and  C_23
    5  A    between atoms: N_12  and  C_30
    6  A    between atoms: C_20  and  C_28
                            x       y       z     vdW  Elec       q    Type
                         _______ _______ _______ _____ _____    ______ ____

>  <TORSDO>
F 6

$$$$
=
 OpenBabel11072413343D

 36 41  0  0  1  0  0  0  0  0999 V2000
  160.5970  206.3160  153.1330 C   0  0  1  0  0  3  0  0  0  0  0  0
  160.3510  207.9300  154.9640 C   0  0  0  0  0  2  0  0  0  0  0  0
  160.2180  206.4630  154.6060 C   0  0  0  0  0  2  0  0  0  0  0  0
  161.1490  208.5190  153.8610 C   0  0  0  0  0  0  0  0  0  0  0  0
  160.8820  208.1000  151.4640 C   0  0  0  0  0  3  0  0  0  0  0  0
  161.3910  207.5600  152.7560 C   0  0  2  0  0  3  0  0  0  0  0  0
  161.6940  209.7430  153.9250 C   0  0  0  0  0  0  0  0  0  0  0  0
  162.3200  210.0780  151.5390 N   0  0  0  0  0  0  0  0  0  0  0  0
  161.3460  209.2230  150.9200 C   0  0  0  0  0  3  0  0  0  0  0  0
  162.4890  210.3180  152.8090 C   0  0  0  0  0  3  0  0  0  0  0  0
  160.6090  204.0190  152.1150 C   0  0  0  0  0  2  0  0  0  0  0  0
  162.6370  205.3250  152.0410 C   0  0  0  0  0  2  0  0  0  0  0  0
  162.2790  204.9680  150.6080 C   0  0  0  0  0  2  0  0  0  0  0  0
  161.4140  205.0380  152.9020 C   0  0  1  0  0  3  0  0  0  0  0  0
  160.9210  204.2920  150.6560 C   0  0  1  0  0  3  0  0  0  0  0  0
  160.8990  203.0670  149.8590 N   0  0  0  0  0  0  0  0  0  0  0  0
  161.1320  201.8050  150.5630 C   0  0  0  0  0  2  0  0  0  0  0  0
  160.7680  203.0680  148.4240 C   0  0  0  0  0  0  0  0  0  0  0  0
  161.4480  200.7590  148.4270 O   0  0  0  0  0  0  0  0  0  0  0  0
  160.7410  201.7400  147.7030 C   0  0  2  0  0  3  0  0  0  0  0  0
  160.5900  204.1460  147.7900 O   0  0  0  0  0  0  0  0  0  0  0  0
  160.7970  200.6130  149.6650 C   0  0  0  0  0  2  0  0  0  0  0  0
  161.2850  201.8360  146.2770 C   0  0  0  0  0  2  0  0  0  0  0  0
  160.1690  201.9190  145.2470 C   0  0  0  0  0  1  0  0  0  0  0  0
  161.4900  210.5270  155.1100 N   0  0  0  0  0  2  0  0  0  0  0  0
  159.9080  214.4530  157.2600 O   0  0  0  0  0  0  0  0  0  0  0  0
  160.4780  211.5260  155.2940 C   0  0  0  0  0  0  0  0  0  0  0  0
  158.4340  213.5310  155.6530 C   0  0  0  0  0  3  0  0  0  0  0  0
  159.1130  210.7740  153.4850 O   0  0  0  0  0  0  0  0  0  0  0  0
  160.6900  212.4880  156.1960 C   0  0  0  0  0  3  0  0  0  0  0  0
  158.2030  212.5820  154.7380 C   0  0  0  0  0  0  0  0  0  0  0  0
  159.6910  213.5450  156.4180 C   0  0  0  0  0  0  0  0  0  0  0  0
  159.2480  211.5650  154.4570 C   0  0  0  0  0  0  0  0  0  0  0  0
  155.8170  212.0130  154.7140 C   0  0  0  0  0  2  0  0  0  0  0  0
  156.9310  212.6130  153.9430 C   0  0  1  0  0  3  0  0  0  0  0  0
  155.9710  213.4050  154.6060 O   0  0  0  0  0  0  0  0  0  0  0  0
  1  3  1  1  0  0  0
  3  2  1  0  0  0  0
  4  7  2  0  0  0  0
  4  2  1  0  0  0  0
  6  5  1  6  0  0  0
  6  1  1  0  0  0  0
  6  4  1  0  0  0  0
  7 25  1  0  0  0  0
  8 10  2  0  0  0  0
  9  5  2  0  0  0  0
  9  8  1  0  0  0  0
 10  7  1  0  0  0  0
 11 14  1  0  0  0  0
 13 15  1  0  0  0  0
 13 12  1  0  0  0  0
 14 12  1  6  0  0  0
 14  1  1  0  0  0  0
 15 16  1  6  0  0  0
 15 11  1  0  0  0  0
 16 17  1  0  0  0  0
 18 16  1  0  0  0  0
 19 22  1  0  0  0  0
 20 23  1  6  0  0  0
 20 18  1  0  0  0  0
 20 19  1  0  0  0  0
 21 18  2  0  0  0  0
 22 17  1  0  0  0  0
 24 23  1  0  0  0  0
 25 27  1  0  0  0  0
 27 30  2  0  0  0  0
 28 32  1  0  0  0  0
 29 33  2  0  0  0  0
 30 32  1  0  0  0  0
 31 28  2  0  0  0  0
 32 26  2  0  0  0  0
 33 31  1  0  0  0  0
 33 27  1  0  0  0  0
 35 36  1  0  0  0  0
 35 34  1  0  0  0  0
 35 31  1  1  0  0  0
 36 34  1  0  0  0  0
M  END
>  <MODEL>
7

>  <REMARK>
 VINA RESULT:      -7.2      2.280      3.381
  Name = 
  6 active torsions:
  status: ('A' for Active; 'I' for Inactive)
    1  A    between atoms: N_1  and  C_16
    2  A    between atoms: N_1  and  C_22
    3  A    between atoms: C_5  and  C_27
    4  A    between atoms: C_7  and  C_23
    5  A    between atoms: N_12  and  C_30
    6  A    between atoms: C_20  and  C_28
                            x       y       z     vdW  Elec       q    Type
                         _______ _______ _______ _____ _____    ______ ____

>  <TORSDO>
F 6

$$$$
=
 OpenBabel11072413343D

 36 41  0  0  1  0  0  0  0  0999 V2000
  162.1490  207.4510  149.7440 C   0  0  1  0  0  3  0  0  0  0  0  0
  162.1340  209.7700  150.5460 C   0  0  0  0  0  2  0  0  0  0  0  0
  162.1970  208.9120  149.2980 C   0  0  0  0  0  2  0  0  0  0  0  0
  161.6700  208.8520  151.6140 C   0  0  0  0  0  0  0  0  0  0  0  0
  162.4320  206.5620  152.0200 C   0  0  0  0  0  3  0  0  0  0  0  0
  161.5910  207.4420  151.1610 C   0  0  2  0  0  3  0  0  0  0  0  0
  161.2500  209.2790  152.8150 C   0  0  0  0  0  0  0  0  0  0  0  0
  161.2200  207.1290  154.0680 N   0  0  0  0  0  0  0  0  0  0  0  0
  162.2190  206.4120  153.3250 C   0  0  0  0  0  3  0  0  0  0  0  0
  160.7920  208.3440  153.8740 C   0  0  0  0  0  3  0  0  0  0  0  0
  161.8840  205.2350  148.5890 C   0  0  0  0  0  2  0  0  0  0  0  0
  159.9080  206.3610  149.3970 C   0  0  0  0  0  2  0  0  0  0  0  0
  159.9450  204.9890  150.0510 C   0  0  0  0  0  2  0  0  0  0  0  0
  161.2830  206.6150  148.7940 C   0  0  1  0  0  3  0  0  0  0  0  0
  161.2700  204.3600  149.6650 C   0  0  1  0  0  3  0  0  0  0  0  0
  161.1020  202.9810  149.2090 N   0  0  0  0  0  0  0  0  0  0  0  0
  161.2400  201.9230  150.2100 C   0  0  0  0  0  2  0  0  0  0  0  0
  160.9160  202.6310  147.8230 C   0  0  0  0  0  0  0  0  0  0  0  0
  161.3730  200.3420  148.4110 O   0  0  0  0  0  0  0  0  0  0  0  0
  160.7350  201.1740  147.4680 C   0  0  2  0  0  3  0  0  0  0  0  0
  160.8180  203.5250  146.9370 O   0  0  0  0  0  0  0  0  0  0  0  0
  160.7580  200.5820  149.6520 C   0  0  0  0  0  2  0  0  0  0  0  0
  161.2310  200.8480  146.0590 C   0  0  0  0  0  2  0  0  0  0  0  0
  161.1890  199.3550  145.7730 C   0  0  0  0  0  1  0  0  0  0  0  0
  161.2580  210.6890  153.0850 N   0  0  0  0  0  2  0  0  0  0  0  0
  158.2090  213.6130  150.9190 O   0  0  0  0  0  0  0  0  0  0  0  0
  160.1080  211.5430  153.1260 C   0  0  0  0  0  0  0  0  0  0  0  0
  157.7900  213.2610  153.2230 C   0  0  0  0  0  3  0  0  0  0  0  0
  159.5090  210.9780  155.3670 O   0  0  0  0  0  0  0  0  0  0  0  0
  159.7350  212.1650  152.0030 C   0  0  0  0  0  3  0  0  0  0  0  0
  158.1390  212.6420  154.3570 C   0  0  0  0  0  0  0  0  0  0  0  0
  158.5570  213.0450  151.9860 C   0  0  0  0  0  0  0  0  0  0  0  0
  159.2790  211.6910  154.3530 C   0  0  0  0  0  0  0  0  0  0  0  0
  156.1750  213.7520  155.3240 C   0  0  0  0  0  2  0  0  0  0  0  0
  157.3170  212.8480  155.5960 C   0  0  1  0  0  3  0  0  0  0  0  0
  156.0100  212.3590  155.3900 O   0  0  0  0  0  0  0  0  0  0  0  0
  1  3  1  6  0  0  0
  1  6  1  0  0  0  0
  2  4  1  0  0  0  0
  3  2  1  0  0  0  0
  4  7  2  0  0  0  0
  5  9  2  0  0  0  0
  6  4  1  0  0  0  0
  6  5  1  1  0  0  0
  7 25  1  0  0  0  0
  7 10  1  0  0  0  0
  9  8  1  0  0  0  0
 10  8  2  0  0  0  0
 12 13  1  0  0  0  0
 14 11  1  1  0  0  0
 14 12  1  0  0  0  0
 14  1  1  0  0  0  0
 15 11  1  6  0  0  0
 15 13  1  0  0  0  0
 16 15  1  0  0  0  0
 16 17  1  0  0  0  0
 18 16  1  0  0  0  0
 19 22  1  0  0  0  0
 20 23  1  6  0  0  0
 20 18  1  0  0  0  0
 20 19  1  0  0  0  0
 21 18  2  0  0  0  0
 22 17  1  0  0  0  0
 24 23  1  0  0  0  0
 25 27  1  0  0  0  0
 26 32  2  0  0  0  0
 27 33  1  0  0  0  0
 28 31  2  0  0  0  0
 30 27  2  0  0  0  0
 32 30  1  0  0  0  0
 32 28  1  0  0  0  0
 33 31  1  0  0  0  0
 33 29  2  0  0  0  0
 34 36  1  0  0  0  0
 34 35  1  0  0  0  0
 35 31  1  6  0  0  0
 36 35  1  0  0  0  0
M  END
>  <MODEL>
8

>  <REMARK>
 VINA RESULT:      -6.8      1.618      2.997
  Name = 
  6 active torsions:
  status: ('A' for Active; 'I' for Inactive)
    1  A    between atoms: N_1  and  C_16
    2  A    between atoms: N_1  and  C_22
    3  A    between atoms: C_5  and  C_27
    4  A    between atoms: C_7  and  C_23
    5  A    between atoms: N_12  and  C_30
    6  A    between atoms: C_20  and  C_28
                            x       y       z     vdW  Elec       q    Type
                         _______ _______ _______ _____ _____    ______ ____

>  <TORSDO>
F 6

$$$$
=
 OpenBabel11072413343D

 36 41  0  0  1  0  0  0  0  0999 V2000
  158.4670  212.6300  154.8300 C   0  0  1  0  0  3  0  0  0  0  0  0
  158.5450  210.2150  154.4070 C   0  0  0  0  0  2  0  0  0  0  0  0
  157.7620  211.4790  154.1140 C   0  0  0  0  0  2  0  0  0  0  0  0
  159.8500  210.6890  154.9290 C   0  0  0  0  0  0  0  0  0  0  0  0
  160.2210  212.4870  156.5480 C   0  0  0  0  0  3  0  0  0  0  0  0
  159.8820  212.1580  155.1350 C   0  0  2  0  0  3  0  0  0  0  0  0
  160.9150  209.8880  155.0740 C   0  0  0  0  0  0  0  0  0  0  0  0
  162.3790  211.3380  156.4690 N   0  0  0  0  0  0  0  0  0  0  0  0
  161.3730  212.1350  157.1140 C   0  0  0  0  0  3  0  0  0  0  0  0
  162.2130  210.3800  155.6020 C   0  0  0  0  0  3  0  0  0  0  0  0
  159.0620  213.6060  152.5920 C   0  0  0  0  0  2  0  0  0  0  0  0
  157.0520  214.3700  153.6880 C   0  0  0  0  0  2  0  0  0  0  0  0
  156.6450  213.8290  152.3280 C   0  0  0  0  0  2  0  0  0  0  0  0
  158.4730  213.8950  153.9620 C   0  0  1  0  0  3  0  0  0  0  0  0
  157.8880  213.2040  151.7200 C   0  0  1  0  0  3  0  0  0  0  0  0
  158.0780  213.6200  150.3320 N   0  0  0  0  0  0  0  0  0  0  0  0
  156.8820  213.7320  149.4960 C   0  0  0  0  0  2  0  0  0  0  0  0
  159.3800  213.8130  149.7430 C   0  0  0  0  0  0  0  0  0  0  0  0
  158.3230  213.8350  147.5810 O   0  0  0  0  0  0  0  0  0  0  0  0
  159.4570  214.2600  148.3020 C   0  0  2  0  0  3  0  0  0  0  0  0
  160.4280  213.6980  150.4360 O   0  0  0  0  0  0  0  0  0  0  0  0
  157.2050  214.4420  148.1800 C   0  0  0  0  0  2  0  0  0  0  0  0
  160.7320  213.7790  147.6060 C   0  0  0  0  0  2  0  0  0  0  0  0
  160.5940  212.3570  147.0860 C   0  0  0  0  0  1  0  0  0  0  0  0
  160.7880  208.5020  154.7180 N   0  0  0  0  0  2  0  0  0  0  0  0
  162.0260  208.9880  150.1610 O   0  0  0  0  0  0  0  0  0  0  0  0
  161.1300  207.9260  153.4510 C   0  0  0  0  0  0  0  0  0  0  0  0
  161.8170  206.7510  150.9060 C   0  0  0  0  0  3  0  0  0  0  0  0
  161.2010  205.6800  154.2580 O   0  0  0  0  0  0  0  0  0  0  0  0
  161.3970  208.7450  152.4300 C   0  0  0  0  0  3  0  0  0  0  0  0
  161.5630  205.9110  151.9160 C   0  0  0  0  0  0  0  0  0  0  0  0
  161.7640  208.2070  151.1100 C   0  0  0  0  0  0  0  0  0  0  0  0
  161.2740  206.4560  153.2670 C   0  0  0  0  0  0  0  0  0  0  0  0
  160.4040  203.9000  151.1200 C   0  0  0  0  0  2  0  0  0  0  0  0
  161.6630  204.4310  151.6930 C   0  0  1  0  0  3  0  0  0  0  0  0
  161.5310  204.1440  150.3180 O   0  0  0  0  0  0  0  0  0  0  0  0
  1  3  1  6  0  0  0
  1  6  1  0  0  0  0
  2  4  1  0  0  0  0
  3  2  1  0  0  0  0
  4  7  2  0  0  0  0
  4  6  1  0  0  0  0
  5  9  2  0  0  0  0
  6  5  1  1  0  0  0
  7 10  1  0  0  0  0
  8  9  1  0  0  0  0
 10  8  2  0  0  0  0
 12 14  1  0  0  0  0
 13 12  1  0  0  0  0
 14 11  1  6  0  0  0
 14  1  1  0  0  0  0
 15 16  1  6  0  0  0
 15 13  1  0  0  0  0
 15 11  1  0  0  0  0
 17 16  1  0  0  0  0
 18 16  1  0  0  0  0
 18 21  2  0  0  0  0
 19 22  1  0  0  0  0
 19 20  1  0  0  0  0
 20 23  1  6  0  0  0
 20 18  1  0  0  0  0
 22 17  1  0  0  0  0
 24 23  1  0  0  0  0
 25  7  1  0  0  0  0
 26 32  2  0  0  0  0
 27 25  1  0  0  0  0
 28 32  1  0  0  0  0
 28 31  2  0  0  0  0
 30 27  2  0  0  0  0
 31 33  1  0  0  0  0
 32 30  1  0  0  0  0
 33 27  1  0  0  0  0
 33 29  2  0  0  0  0
 34 35  1  0  0  0  0
 35 31  1  6  0  0  0
 36 34  1  0  0  0  0
 36 35  1  0  0  0  0
M  END
>  <MODEL>
9

>  <REMARK>
 VINA RESULT:      -6.4      3.444      8.548
  Name = 
  6 active torsions:
  status: ('A' for Active; 'I' for Inactive)
    1  A    between atoms: N_1  and  C_16
    2  A    between atoms: N_1  and  C_22
    3  A    between atoms: C_5  and  C_27
    4  A    between atoms: C_7  and  C_23
    5  A    between atoms: N_12  and  C_30
    6  A    between atoms: C_20  and  C_28
                            x       y       z     vdW  Elec       q    Type
                         _______ _______ _______ _____ _____    ______ ____

>  <TORSDO>
F 6

$$$$
