=
 OpenBabel11072414253D

 26 29  0  0  1  0  0  0  0  0999 V2000
  160.9160  205.6970  150.3010 C   0  0  2  0  0  3  0  0  0  0  0  0
  161.4650  210.0580  152.0650 C   0  0  0  0  0  2  0  0  0  0  0  0
  161.7450  208.7810  151.3270 C   0  0  0  0  0  0  0  0  0  0  0  0
  160.2240  209.9670  152.9020 C   0  0  0  0  0  0  0  0  0  0  0  0
  162.1960  208.8060  149.9890 N   0  0  0  0  0  0  0  0  0  0  0  0
  160.1640  209.1390  153.9480 C   0  0  0  0  0  3  0  0  0  0  0  0
  162.5690  207.4560  149.6060 C   0  0  0  0  0  2  0  0  0  0  0  0
  162.1180  206.5540  150.7650 C   0  0  1  0  0  3  0  0  0  0  0  0
  161.7480  207.5470  151.8310 C   0  0  0  0  0  0  0  0  0  0  0  0
  161.3150  208.2420  154.2820 C   0  0  0  0  0  2  0  0  0  0  0  0
  158.8490  210.9840  152.5220 Cl  0  0  0  0  0  0  0  0  0  0  0  0
  161.4410  207.1230  153.2520 C   0  0  0  0  0  3  0  0  0  0  0  0
  160.1340  203.1620  150.1890 C   0  0  0  0  0  1  0  0  0  0  0  0
  160.8870  204.2560  152.4350 C   0  0  1  0  0  3  0  0  0  0  0  0
  160.2750  203.1020  152.9300 O   0  0  0  0  0  1  0  0  0  0  0  0
  162.1250  203.8690  151.6420 C   0  0  0  0  0  2  0  0  0  0  0  0
  160.8700  204.2890  150.9090 C   0  0  2  0  0  0  0  0  0  0  0  0
  160.8400  205.6110  148.7990 C   0  0  0  0  0  0  0  0  0  0  0  0
  159.9430  206.2000  148.2140 O   0  0  0  0  0  0  0  0  0  0  0  0
  161.1750  203.5430  147.5520 N   0  0  0  0  0  0  0  0  0  0  0  0
  162.1050  204.4780  145.7370 O   0  0  0  0  0  0  0  0  0  0  0  0
  160.8780  202.3550  145.5180 N   0  0  0  0  0  1  0  0  0  0  0  0
  161.3770  203.4430  146.2860 C   0  0  0  0  0  0  0  0  0  0  0  0
  161.9290  206.7810  146.3960 C   0  0  0  0  0  1  0  0  0  0  0  0
  161.8190  204.7610  148.0280 C   0  0  1  0  0  3  0  0  0  0  0  0
  162.4470  205.3960  146.7600 C   0  0  1  0  0  3  0  0  0  0  0  0
  1 18  1  6  0  0  0
  1 17  1  0  0  0  0
  2  4  1  0  0  0  0
  3  9  1  0  0  0  0
  3  2  1  0  0  0  0
  4  6  2  0  0  0  0
  5  3  2  0  0  0  0
  6 10  1  0  0  0  0
  7  5  1  0  0  0  0
  7  8  1  0  0  0  0
  8  1  1  6  0  0  0
  8  9  1  0  0  0  0
  9 12  2  0  0  0  0
 11  4  1  0  0  0  0
 12 10  1  0  0  0  0
 14 15  1  6  0  0  0
 16 14  1  0  0  0  0
 17 13  1  6  0  0  0
 17 16  1  0  0  0  0
 17 14  1  0  0  0  0
 19 18  2  0  0  0  0
 20 25  1  0  0  0  0
 21 23  1  0  0  0  0
 21 26  1  0  0  0  0
 22 23  1  0  0  0  0
 23 20  2  0  0  0  0
 25 18  1  6  0  0  0
 26 24  1  6  0  0  0
 26 25  1  0  0  0  0
M  END
>  <MODEL>
1

>  <REMARK>
 VINA RESULT:      -7.3      0.000      0.000
  Name = 
  4 active torsions:
  status: ('A' for Active; 'I' for Inactive)
    1  A    between atoms: C_2  and  C_4
    2  A    between atoms: C_2  and  C_21
    3  A    between atoms: C_4  and  C_13
    4  A    between atoms: C_4  and  C_26
                            x       y       z     vdW  Elec       q    Type
                         _______ _______ _______ _____ _____    ______ ____

>  <TORSDO>
F 4

$$$$
=
 OpenBabel11072414253D

 26 29  0  0  1  0  0  0  0  0999 V2000
  160.9760  208.2470  152.6200 C   0  0  2  0  0  3  0  0  0  0  0  0
  160.1240  212.7290  151.3470 C   0  0  0  0  0  2  0  0  0  0  0  0
  160.8610  211.4600  151.6600 C   0  0  0  0  0  0  0  0  0  0  0  0
  158.6760  212.6520  151.7310 C   0  0  0  0  0  0  0  0  0  0  0  0
  161.8110  210.9360  150.7550 N   0  0  0  0  0  0  0  0  0  0  0  0
  158.3130  212.5440  153.0120 C   0  0  0  0  0  3  0  0  0  0  0  0
  162.4980  209.8320  151.4000 C   0  0  0  0  0  2  0  0  0  0  0  0
  161.7470  209.5850  152.7170 C   0  0  1  0  0  3  0  0  0  0  0  0
  160.8350  210.7770  152.8050 C   0  0  0  0  0  0  0  0  0  0  0  0
  159.3430  212.4470  154.0940 C   0  0  0  0  0  2  0  0  0  0  0  0
  157.4460  212.7360  150.4860 Cl  0  0  0  0  0  0  0  0  0  0  0  0
  160.0380  211.0890  154.0540 C   0  0  0  0  0  3  0  0  0  0  0  0
  161.0770  205.9360  153.9220 C   0  0  0  0  0  1  0  0  0  0  0  0
  160.0040  208.0580  154.9960 C   0  0  1  0  0  3  0  0  0  0  0  0
  159.5240  207.0830  155.8730 O   0  0  0  0  0  1  0  0  0  0  0  0
  161.5160  208.1550  155.1300 C   0  0  0  0  0  2  0  0  0  0  0  0
  160.9160  207.4540  153.9310 C   0  0  2  0  0  0  0  0  0  0  0  0
  161.5140  207.3740  151.5150 C   0  0  0  0  0  0  0  0  0  0  0  0
  162.6860  207.0310  151.5470 O   0  0  0  0  0  0  0  0  0  0  0  0
  161.1920  207.4730  149.1010 N   0  0  0  0  0  0  0  0  0  0  0  0
  160.8740  205.2750  148.7880 O   0  0  0  0  0  0  0  0  0  0  0  0
  161.7950  206.6430  146.9610 N   0  0  0  0  0  1  0  0  0  0  0  0
  161.2890  206.4880  148.2800 C   0  0  0  0  0  0  0  0  0  0  0  0
  161.2190  204.5410  151.0490 C   0  0  0  0  0  1  0  0  0  0  0  0
  160.6370  206.9770  150.3540 C   0  0  1  0  0  3  0  0  0  0  0  0
  160.4330  205.4580  150.1220 C   0  0  1  0  0  3  0  0  0  0  0  0
  1 18  1  6  0  0  0
  1 17  1  0  0  0  0
  2  3  1  0  0  0  0
  2  4  1  0  0  0  0
  3  9  1  0  0  0  0
  4  6  2  0  0  0  0
  5  7  1  0  0  0  0
  5  3  2  0  0  0  0
  6 10  1  0  0  0  0
  7  8  1  0  0  0  0
  8  1  1  6  0  0  0
  8  9  1  0  0  0  0
  9 12  2  0  0  0  0
 11  4  1  0  0  0  0
 12 10  1  0  0  0  0
 14 16  1  0  0  0  0
 14 15  1  1  0  0  0
 17 13  1  6  0  0  0
 17 14  1  0  0  0  0
 17 16  1  0  0  0  0
 18 19  2  0  0  0  0
 20 25  1  0  0  0  0
 21 26  1  0  0  0  0
 22 23  1  0  0  0  0
 23 21  1  0  0  0  0
 23 20  2  0  0  0  0
 25 18  1  1  0  0  0
 26 25  1  0  0  0  0
 26 24  1  1  0  0  0
M  END
>  <MODEL>
2

>  <REMARK>
 VINA RESULT:      -7.0      2.267      3.984
  Name = 
  4 active torsions:
  status: ('A' for Active; 'I' for Inactive)
    1  A    between atoms: C_2  and  C_4
    2  A    between atoms: C_2  and  C_21
    3  A    between atoms: C_4  and  C_13
    4  A    between atoms: C_4  and  C_26
                            x       y       z     vdW  Elec       q    Type
                         _______ _______ _______ _____ _____    ______ ____

>  <TORSDO>
F 4

$$$$
=
 OpenBabel11072414253D

 26 29  0  0  1  0  0  0  0  0999 V2000
  161.0760  206.6690  150.3610 C   0  0  2  0  0  3  0  0  0  0  0  0
  161.5060  211.3740  150.6840 C   0  0  0  0  0  2  0  0  0  0  0  0
  161.7720  209.9490  150.2950 C   0  0  0  0  0  0  0  0  0  0  0  0
  160.4470  211.4830  151.7410 C   0  0  0  0  0  0  0  0  0  0  0  0
  161.9750  209.5980  148.9410 N   0  0  0  0  0  0  0  0  0  0  0  0
  160.6530  210.9970  152.9680 C   0  0  0  0  0  3  0  0  0  0  0  0
  162.4020  208.2120  148.8870 C   0  0  0  0  0  2  0  0  0  0  0  0
  162.2520  207.6720  150.3180 C   0  0  1  0  0  3  0  0  0  0  0  0
  161.9830  208.9190  151.1130 C   0  0  0  0  0  0  0  0  0  0  0  0
  161.9260  210.2860  153.3060 C   0  0  0  0  0  2  0  0  0  0  0  0
  158.9350  212.2860  151.3690 Cl  0  0  0  0  0  0  0  0  0  0  0  0
  161.9750  208.9200  152.6280 C   0  0  0  0  0  3  0  0  0  0  0  0
  160.4010  204.2880  151.3230 C   0  0  0  0  0  1  0  0  0  0  0  0
  161.5380  206.0910  152.8270 C   0  0  1  0  0  3  0  0  0  0  0  0
  161.0900  205.2100  153.8140 O   0  0  0  0  0  1  0  0  0  0  0  0
  162.6090  205.4070  151.9910 C   0  0  0  0  0  2  0  0  0  0  0  0
  161.2160  205.5740  151.4270 C   0  0  2  0  0  0  0  0  0  0  0  0
  160.8280  206.0430  149.0130 C   0  0  0  0  0  0  0  0  0  0  0  0
  159.8060  206.3250  148.4060 O   0  0  0  0  0  0  0  0  0  0  0  0
  161.2860  203.6830  148.6140 N   0  0  0  0  0  0  0  0  0  0  0  0
  161.7640  203.8720  146.4300 O   0  0  0  0  0  0  0  0  0  0  0  0
  160.8670  201.7510  147.2990 N   0  0  0  0  0  1  0  0  0  0  0  0
  161.3020  203.0940  147.4710 C   0  0  0  0  0  0  0  0  0  0  0  0
  161.3330  206.2220  146.1770 C   0  0  0  0  0  1  0  0  0  0  0  0
  161.7960  205.0370  148.4430 C   0  0  1  0  0  3  0  0  0  0  0  0
  162.1120  205.1520  146.9290 C   0  0  1  0  0  3  0  0  0  0  0  0
  1 18  1  6  0  0  0
  1 17  1  0  0  0  0
  2  4  1  0  0  0  0
  3  2  1  0  0  0  0
  3  9  1  0  0  0  0
  4  6  2  0  0  0  0
  5  3  2  0  0  0  0
  6 10  1  0  0  0  0
  7  5  1  0  0  0  0
  7  8  1  0  0  0  0
  8  1  1  6  0  0  0
  8  9  1  0  0  0  0
  9 12  2  0  0  0  0
 11  4  1  0  0  0  0
 12 10  1  0  0  0  0
 14 15  1  1  0  0  0
 16 14  1  0  0  0  0
 17 13  1  6  0  0  0
 17 16  1  0  0  0  0
 17 14  1  0  0  0  0
 19 18  2  0  0  0  0
 21 26  1  0  0  0  0
 21 23  1  0  0  0  0
 22 23  1  0  0  0  0
 23 20  2  0  0  0  0
 25 20  1  0  0  0  0
 25 18  1  6  0  0  0
 26 24  1  6  0  0  0
 26 25  1  0  0  0  0
M  END
>  <MODEL>
3

>  <REMARK>
 VINA RESULT:      -6.7      1.310      1.526
  Name = 
  4 active torsions:
  status: ('A' for Active; 'I' for Inactive)
    1  A    between atoms: C_2  and  C_4
    2  A    between atoms: C_2  and  C_21
    3  A    between atoms: C_4  and  C_13
    4  A    between atoms: C_4  and  C_26
                            x       y       z     vdW  Elec       q    Type
                         _______ _______ _______ _____ _____    ______ ____

>  <TORSDO>
F 4

$$$$
=
 OpenBabel11072414253D

 26 29  0  0  1  0  0  0  0  0999 V2000
  161.1270  206.1060  150.3780 C   0  0  2  0  0  3  0  0  0  0  0  0
  160.3760  201.4360  150.1450 C   0  0  0  0  0  2  0  0  0  0  0  0
  160.9460  202.7610  150.5570 C   0  0  0  0  0  0  0  0  0  0  0  0
  159.4660  201.5560  148.9580 C   0  0  0  0  0  0  0  0  0  0  0  0
  161.0600  203.1040  151.9230 N   0  0  0  0  0  0  0  0  0  0  0  0
  159.9430  201.9250  147.7660 C   0  0  0  0  0  3  0  0  0  0  0  0
  161.8170  204.3380  152.0240 C   0  0  0  0  0  3  0  0  0  0  0  0
  161.9920  204.8400  150.5820 C   0  0  1  0  0  3  0  0  0  0  0  0
  161.5160  203.6720  149.7660 C   0  0  0  0  0  0  0  0  0  0  0  0
  161.3870  202.2760  147.5940 C   0  0  0  0  0  2  0  0  0  0  0  0
  157.7640  201.1770  149.1310 Cl  0  0  0  0  0  0  0  0  0  0  0  0
  161.6980  203.6120  148.2640 C   0  0  0  0  0  2  0  0  0  0  0  0
  159.9100  206.1960  148.0200 C   0  0  0  0  0  1  0  0  0  0  0  0
  162.4280  206.8260  148.2760 C   0  0  1  0  0  3  0  0  0  0  0  0
  162.3580  206.6970  146.8870 O   0  0  0  0  0  1  0  0  0  0  0  0
  161.5820  208.0110  148.7150 C   0  0  0  0  0  2  0  0  0  0  0  0
  161.0660  206.6050  148.9280 C   0  0  2  0  0  0  0  0  0  0  0  0
  161.5560  207.2270  151.2890 C   0  0  0  0  0  0  0  0  0  0  0  0
  162.7200  207.5980  151.2680 O   0  0  0  0  0  0  0  0  0  0  0  0
  160.8340  207.3700  153.6130 N   0  0  0  0  0  0  0  0  0  0  0  0
  160.8370  209.6090  153.7520 O   0  0  0  0  0  0  0  0  0  0  0  0
  161.2090  208.2630  155.7800 N   0  0  0  0  0  1  0  0  0  0  0  0
  160.9570  208.3900  154.3860 C   0  0  0  0  0  0  0  0  0  0  0  0
  161.6620  210.0990  151.5500 C   0  0  0  0  0  1  0  0  0  0  0  0
  160.5800  207.8450  152.2590 C   0  0  1  0  0  3  0  0  0  0  0  0
  160.5950  209.3910  152.3730 C   0  0  1  0  0  3  0  0  0  0  0  0
  1 18  1  1  0  0  0
  2  3  1  0  0  0  0
  3  5  1  0  0  0  0
  4 11  1  0  0  0  0
  4  2  1  0  0  0  0
  5  7  2  0  0  0  0
  6  4  2  0  0  0  0
  8  1  1  1  0  0  0
  8  7  1  0  0  0  0
  9  3  2  0  0  0  0
  9  8  1  0  0  0  0
 10  6  1  0  0  0  0
 10 12  1  0  0  0  0
 12  9  1  0  0  0  0
 14 15  1  6  0  0  0
 14 16  1  0  0  0  0
 14 17  1  0  0  0  0
 16 17  1  0  0  0  0
 17 13  1  6  0  0  0
 17  1  1  0  0  0  0
 19 18  2  0  0  0  0
 20 23  2  0  0  0  0
 21 23  1  0  0  0  0
 23 22  1  0  0  0  0
 25 18  1  6  0  0  0
 25 26  1  0  0  0  0
 25 20  1  0  0  0  0
 26 24  1  6  0  0  0
 26 21  1  0  0  0  0
M  END
>  <MODEL>
4

>  <REMARK>
 VINA RESULT:      -6.6      3.298      6.922
  Name = 
  4 active torsions:
  status: ('A' for Active; 'I' for Inactive)
    1  A    between atoms: C_2  and  C_4
    2  A    between atoms: C_2  and  C_21
    3  A    between atoms: C_4  and  C_13
    4  A    between atoms: C_4  and  C_26
                            x       y       z     vdW  Elec       q    Type
                         _______ _______ _______ _____ _____    ______ ____

>  <TORSDO>
F 4

$$$$
=
 OpenBabel11072414253D

 26 29  0  0  1  0  0  0  0  0999 V2000
  160.5510  210.0830  154.2320 C   0  0  2  0  0  3  0  0  0  0  0  0
  156.4160  212.3600  154.6140 C   0  0  0  0  0  2  0  0  0  0  0  0
  157.7900  211.9860  154.1410 C   0  0  0  0  0  0  0  0  0  0  0  0
  156.0160  211.6030  155.8460 C   0  0  0  0  0  0  0  0  0  0  0  0
  158.0590  211.8260  152.7630 N   0  0  0  0  0  0  0  0  0  0  0  0
  156.6600  211.7880  157.0010 C   0  0  0  0  0  3  0  0  0  0  0  0
  159.4910  211.6650  152.5920 C   0  0  0  0  0  2  0  0  0  0  0  0
  160.0690  211.5370  154.0100 C   0  0  1  0  0  3  0  0  0  0  0  0
  158.8970  211.9000  154.8780 C   0  0  0  0  0  0  0  0  0  0  0  0
  157.8300  212.7170  157.0850 C   0  0  0  0  0  2  0  0  0  0  0  0
  154.6670  210.4870  155.7740 Cl  0  0  0  0  0  0  0  0  0  0  0  0
  159.0400  212.1240  156.3690 C   0  0  0  0  0  3  0  0  0  0  0  0
  162.4740  210.7020  155.9540 C   0  0  0  0  0  1  0  0  0  0  0  0
  161.2420  208.4050  156.0570 C   0  0  1  0  0  3  0  0  0  0  0  0
  162.3310  208.1240  156.8860 O   0  0  0  0  0  1  0  0  0  0  0  0
  160.3660  209.4580  156.7170 C   0  0  0  0  0  2  0  0  0  0  0  0
  161.2680  209.8500  155.5670 C   0  0  2  0  0  0  0  0  0  0  0  0
  161.4140  209.6030  153.0940 C   0  0  0  0  0  0  0  0  0  0  0  0
  162.5840  209.9530  153.0460 O   0  0  0  0  0  0  0  0  0  0  0  0
  161.5440  208.9710  150.7430 N   0  0  0  0  0  0  0  0  0  0  0  0
  161.5780  206.7520  151.0680 O   0  0  0  0  0  0  0  0  0  0  0  0
  162.6430  207.7040  149.0640 N   0  0  0  0  0  1  0  0  0  0  0  0
  161.9210  207.8320  150.2820 C   0  0  0  0  0  0  0  0  0  0  0  0
  161.5810  206.7460  153.4700 C   0  0  0  0  0  1  0  0  0  0  0  0
  160.8310  208.7500  151.9950 C   0  0  1  0  0  3  0  0  0  0  0  0
  160.8730  207.2140  152.2070 C   0  0  1  0  0  3  0  0  0  0  0  0
  1 18  1  6  0  0  0
  1 17  1  0  0  0  0
  2  4  1  0  0  0  0
  3  2  1  0  0  0  0
  3  9  1  0  0  0  0
  4  6  2  0  0  0  0
  5  3  2  0  0  0  0
  6 10  1  0  0  0  0
  7  5  1  0  0  0  0
  7  8  1  0  0  0  0
  8  1  1  1  0  0  0
  8  9  1  0  0  0  0
  9 12  2  0  0  0  0
 11  4  1  0  0  0  0
 12 10  1  0  0  0  0
 14 16  1  0  0  0  0
 14 15  1  1  0  0  0
 17 13  1  1  0  0  0
 17 14  1  0  0  0  0
 17 16  1  0  0  0  0
 19 18  2  0  0  0  0
 20 25  1  0  0  0  0
 21 26  1  0  0  0  0
 22 23  1  0  0  0  0
 23 20  2  0  0  0  0
 23 21  1  0  0  0  0
 25 26  1  0  0  0  0
 25 18  1  1  0  0  0
 26 24  1  1  0  0  0
M  END
>  <MODEL>
5

>  <REMARK>
 VINA RESULT:      -6.3      3.661      6.365
  Name = 
  4 active torsions:
  status: ('A' for Active; 'I' for Inactive)
    1  A    between atoms: C_2  and  C_4
    2  A    between atoms: C_2  and  C_21
    3  A    between atoms: C_4  and  C_13
    4  A    between atoms: C_4  and  C_26
                            x       y       z     vdW  Elec       q    Type
                         _______ _______ _______ _____ _____    ______ ____

>  <TORSDO>
F 4

$$$$
=
 OpenBabel11072414253D

 26 29  0  0  1  0  0  0  0  0999 V2000
  161.4090  207.6290  151.3210 C   0  0  2  0  0  3  0  0  0  0  0  0
  160.1040  211.8030  153.1390 C   0  0  0  0  0  2  0  0  0  0  0  0
  160.8530  210.7760  152.3420 C   0  0  0  0  0  0  0  0  0  0  0  0
  159.1320  211.1780  154.0960 C   0  0  0  0  0  0  0  0  0  0  0  0
  161.1030  210.9730  150.9650 N   0  0  0  0  0  0  0  0  0  0  0  0
  159.5620  210.4350  155.1190 C   0  0  0  0  0  3  0  0  0  0  0  0
  162.0050  209.9310  150.5100 C   0  0  0  0  0  2  0  0  0  0  0  0
  162.1330  208.9470  151.6830 C   0  0  1  0  0  3  0  0  0  0  0  0
  161.4670  209.6880  152.8080 C   0  0  0  0  0  0  0  0  0  0  0  0
  161.0220  210.1650  155.3090 C   0  0  0  0  0  2  0  0  0  0  0  0
  157.4150  211.4530  153.8860 Cl  0  0  0  0  0  0  0  0  0  0  0  0
  161.5330  209.2020  154.2410 C   0  0  0  0  0  3  0  0  0  0  0  0
  163.0470  205.8350  152.3930 C   0  0  0  0  0  1  0  0  0  0  0  0
  160.4560  205.5800  152.5540 C   0  0  1  0  0  3  0  0  0  0  0  0
  160.8430  204.2920  152.9320 O   0  0  0  0  0  1  0  0  0  0  0  0
  160.9150  206.5730  153.6110 C   0  0  0  0  0  2  0  0  0  0  0  0
  161.6650  206.4760  152.3000 C   0  0  2  0  0  0  0  0  0  0  0  0
  161.7240  207.1880  149.9150 C   0  0  0  0  0  0  0  0  0  0  0  0
  162.8640  207.3130  149.4940 O   0  0  0  0  0  0  0  0  0  0  0  0
  160.8340  207.1140  147.6470 N   0  0  0  0  0  0  0  0  0  0  0  0
  160.6480  204.8830  147.5100 O   0  0  0  0  0  0  0  0  0  0  0  0
  160.9860  206.2030  145.4600 N   0  0  0  0  0  1  0  0  0  0  0  0
  160.8220  206.0910  146.8680 C   0  0  0  0  0  0  0  0  0  0  0  0
  161.5810  204.3180  149.6500 C   0  0  0  0  0  1  0  0  0  0  0  0
  160.6370  206.6550  149.0160 C   0  0  1  0  0  3  0  0  0  0  0  0
  160.5200  205.1120  148.9020 C   0  0  1  0  0  3  0  0  0  0  0  0
  1 18  1  6  0  0  0
  1 17  1  0  0  0  0
  2  4  1  0  0  0  0
  3  9  1  0  0  0  0
  3  2  1  0  0  0  0
  4  6  2  0  0  0  0
  5  3  2  0  0  0  0
  6 10  1  0  0  0  0
  7  5  1  0  0  0  0
  7  8  1  0  0  0  0
  8  1  1  6  0  0  0
  8  9  1  0  0  0  0
  9 12  2  0  0  0  0
 11  4  1  0  0  0  0
 12 10  1  0  0  0  0
 14 15  1  1  0  0  0
 14 16  1  0  0  0  0
 17 13  1  1  0  0  0
 17 14  1  0  0  0  0
 17 16  1  0  0  0  0
 19 18  2  0  0  0  0
 20 25  1  0  0  0  0
 21 26  1  0  0  0  0
 22 23  1  0  0  0  0
 23 21  1  0  0  0  0
 23 20  2  0  0  0  0
 25 18  1  1  0  0  0
 26 25  1  0  0  0  0
 26 24  1  1  0  0  0
M  END
>  <MODEL>
6

>  <REMARK>
 VINA RESULT:      -6.3      1.819      2.752
  Name = 
  4 active torsions:
  status: ('A' for Active; 'I' for Inactive)
    1  A    between atoms: C_2  and  C_4
    2  A    between atoms: C_2  and  C_21
    3  A    between atoms: C_4  and  C_13
    4  A    between atoms: C_4  and  C_26
                            x       y       z     vdW  Elec       q    Type
                         _______ _______ _______ _____ _____    ______ ____

>  <TORSDO>
F 4

$$$$
=
 OpenBabel11072414253D

 26 29  0  0  1  0  0  0  0  0999 V2000
  161.3680  209.5960  150.6270 C   0  0  2  0  0  3  0  0  0  0  0  0
  159.8970  213.3230  148.1020 C   0  0  0  0  0  2  0  0  0  0  0  0
  160.7880  212.2550  148.6660 C   0  0  0  0  0  0  0  0  0  0  0  0
  158.5670  213.3740  148.7920 C   0  0  0  0  0  0  0  0  0  0  0  0
  161.5800  211.4530  147.8150 N   0  0  0  0  0  0  0  0  0  0  0  0
  158.4770  213.7260  150.0780 C   0  0  0  0  0  3  0  0  0  0  0  0
  162.4740  210.6570  148.6360 C   0  0  0  0  0  2  0  0  0  0  0  0
  162.0240  210.8890  150.0870 C   0  0  1  0  0  3  0  0  0  0  0  0
  161.0500  212.0240  149.9520 C   0  0  0  0  0  0  0  0  0  0  0  0
  159.7060  214.0300  150.8760 C   0  0  0  0  0  2  0  0  0  0  0  0
  157.1110  212.9970  147.8930 Cl  0  0  0  0  0  0  0  0  0  0  0  0
  160.4930  212.7530  151.1580 C   0  0  0  0  0  3  0  0  0  0  0  0
  162.6220  209.9530  152.9390 C   0  0  0  0  0  1  0  0  0  0  0  0
  160.6790  208.2300  152.6970 C   0  0  1  0  0  3  0  0  0  0  0  0
  161.2070  207.8170  153.9220 O   0  0  0  0  0  1  0  0  0  0  0  0
  160.0810  209.6200  152.8500 C   0  0  0  0  0  2  0  0  0  0  0  0
  161.4140  209.4520  152.1530 C   0  0  2  0  0  0  0  0  0  0  0  0
  161.9450  208.3650  149.9770 C   0  0  0  0  0  0  0  0  0  0  0  0
  163.0590  207.9860  150.3060 O   0  0  0  0  0  0  0  0  0  0  0  0
  162.0670  207.3300  147.7730 N   0  0  0  0  0  0  0  0  0  0  0  0
  161.1110  205.3830  148.3430 O   0  0  0  0  0  0  0  0  0  0  0  0
  162.7070  205.4530  146.4700 N   0  0  0  0  0  1  0  0  0  0  0  0
  161.9720  206.0740  147.5170 C   0  0  0  0  0  0  0  0  0  0  0  0
  160.8310  205.8000  150.6920 C   0  0  0  0  0  1  0  0  0  0  0  0
  161.1870  207.6420  148.8920 C   0  0  1  0  0  3  0  0  0  0  0  0
  160.5430  206.2840  149.2780 C   0  0  1  0  0  3  0  0  0  0  0  0
  1 18  1  6  0  0  0
  1 17  1  0  0  0  0
  2  3  1  0  0  0  0
  2  4  1  0  0  0  0
  3  9  1  0  0  0  0
  4  6  2  0  0  0  0
  5  7  1  0  0  0  0
  5  3  2  0  0  0  0
  6 10  1  0  0  0  0
  7  8  1  0  0  0  0
  8  1  1  6  0  0  0
  9  8  1  0  0  0  0
  9 12  2  0  0  0  0
 10 12  1  0  0  0  0
 11  4  1  0  0  0  0
 14 16  1  0  0  0  0
 14 15  1  1  0  0  0
 17 14  1  0  0  0  0
 17 16  1  0  0  0  0
 17 13  1  1  0  0  0
 18 19  2  0  0  0  0
 20 25  1  0  0  0  0
 21 26  1  0  0  0  0
 22 23  1  0  0  0  0
 23 20  2  0  0  0  0
 23 21  1  0  0  0  0
 25 26  1  0  0  0  0
 25 18  1  1  0  0  0
 26 24  1  1  0  0  0
M  END
>  <MODEL>
7

>  <REMARK>
 VINA RESULT:      -6.2      3.194      4.788
  Name = 
  4 active torsions:
  status: ('A' for Active; 'I' for Inactive)
    1  A    between atoms: C_2  and  C_4
    2  A    between atoms: C_2  and  C_21
    3  A    between atoms: C_4  and  C_13
    4  A    between atoms: C_4  and  C_26
                            x       y       z     vdW  Elec       q    Type
                         _______ _______ _______ _____ _____    ______ ____

>  <TORSDO>
F 4

$$$$
=
 OpenBabel11072414253D

 26 29  0  0  1  0  0  0  0  0999 V2000
  161.7340  206.6110  151.6250 C   0  0  2  0  0  3  0  0  0  0  0  0
  161.1540  209.2030  155.5460 C   0  0  0  0  0  2  0  0  0  0  0  0
  161.0180  208.0890  154.5500 C   0  0  0  0  0  0  0  0  0  0  0  0
  161.9140  210.3700  154.9900 C   0  0  0  0  0  0  0  0  0  0  0  0
  161.1650  206.7420  154.9500 N   0  0  0  0  0  0  0  0  0  0  0  0
  161.4180  211.0900  153.9810 C   0  0  0  0  0  3  0  0  0  0  0  0
  160.7890  205.8890  153.8380 C   0  0  0  0  0  3  0  0  0  0  0  0
  160.5880  206.8310  152.6400 C   0  0  1  0  0  3  0  0  0  0  0  0
  160.6280  208.1900  153.2790 C   0  0  0  0  0  0  0  0  0  0  0  0
  160.1140  210.7220  153.3450 C   0  0  0  0  0  2  0  0  0  0  0  0
  163.4570  210.8110  155.6930 Cl  0  0  0  0  0  0  0  0  0  0  0  0
  160.2600  209.4470  152.5200 C   0  0  0  0  0  2  0  0  0  0  0  0
  160.3720  207.3630  149.4730 C   0  0  0  0  0  1  0  0  0  0  0  0
  162.9480  207.7330  149.6510 C   0  0  1  0  0  3  0  0  0  0  0  0
  162.7730  207.9550  148.2830 O   0  0  0  0  0  1  0  0  0  0  0  0
  162.2430  208.8300  150.4330 C   0  0  0  0  0  2  0  0  0  0  0  0
  161.6190  207.4540  150.3480 C   0  0  2  0  0  0  0  0  0  0  0  0
  161.8900  205.1560  151.2670 C   0  0  0  0  0  0  0  0  0  0  0  0
  162.9210  204.5760  151.5730 O   0  0  0  0  0  0  0  0  0  0  0  0
  161.1980  204.3080  149.0890 N   0  0  0  0  0  0  0  0  0  0  0  0
  160.6890  202.2300  149.7650 O   0  0  0  0  0  0  0  0  0  0  0  0
  161.3990  202.6130  147.4390 N   0  0  0  0  0  1  0  0  0  0  0  0
  161.0990  203.0710  148.7510 C   0  0  0  0  0  0  0  0  0  0  0  0
  161.3380  202.4390  152.0680 C   0  0  0  0  0  1  0  0  0  0  0  0
  160.8160  204.4370  150.4890 C   0  0  1  0  0  3  0  0  0  0  0  0
  160.4780  202.9920  150.9410 C   0  0  1  0  0  3  0  0  0  0  0  0
  1 18  1  6  0  0  0
  3  5  1  0  0  0  0
  3  2  1  0  0  0  0
  4  2  1  0  0  0  0
  4 11  1  0  0  0  0
  6  4  2  0  0  0  0
  7  5  2  0  0  0  0
  8  1  1  6  0  0  0
  8  9  1  0  0  0  0
  8  7  1  0  0  0  0
  9  3  2  0  0  0  0
 10  6  1  0  0  0  0
 12  9  1  0  0  0  0
 12 10  1  0  0  0  0
 14 15  1  6  0  0  0
 14 17  1  0  0  0  0
 14 16  1  0  0  0  0
 17 13  1  6  0  0  0
 17 16  1  0  0  0  0
 17  1  1  0  0  0  0
 18 19  2  0  0  0  0
 20 25  1  0  0  0  0
 21 26  1  0  0  0  0
 22 23  1  0  0  0  0
 23 20  2  0  0  0  0
 23 21  1  0  0  0  0
 25 26  1  0  0  0  0
 25 18  1  1  0  0  0
 26 24  1  1  0  0  0
M  END
>  <MODEL>
8

>  <REMARK>
 VINA RESULT:      -5.7      2.424      4.084
  Name = 
  4 active torsions:
  status: ('A' for Active; 'I' for Inactive)
    1  A    between atoms: C_2  and  C_4
    2  A    between atoms: C_2  and  C_21
    3  A    between atoms: C_4  and  C_13
    4  A    between atoms: C_4  and  C_26
                            x       y       z     vdW  Elec       q    Type
                         _______ _______ _______ _____ _____    ______ ____

>  <TORSDO>
F 4

$$$$
=
 OpenBabel11072414253D

 26 29  0  0  1  0  0  0  0  0999 V2000
  160.7270  205.9780  150.2790 C   0  0  2  0  0  3  0  0  0  0  0  0
  162.7070  206.5120  146.0110 C   0  0  0  0  0  2  0  0  0  0  0  0
  162.1610  206.8340  147.3700 C   0  0  0  0  0  0  0  0  0  0  0  0
  162.4120  205.0990  145.6030 C   0  0  0  0  0  0  0  0  0  0  0  0
  162.9120  207.6050  148.2850 N   0  0  0  0  0  0  0  0  0  0  0  0
  161.1560  204.6960  145.3920 C   0  0  0  0  0  3  0  0  0  0  0  0
  162.0660  207.9220  149.4210 C   0  0  0  0  0  3  0  0  0  0  0  0
  160.7790  207.1070  149.2230 C   0  0  1  0  0  3  0  0  0  0  0  0
  160.9310  206.5860  147.8220 C   0  0  0  0  0  0  0  0  0  0  0  0
  160.0060  205.6300  145.6060 C   0  0  0  0  0  2  0  0  0  0  0  0
  163.7340  203.9720  145.3710 Cl  0  0  0  0  0  0  0  0  0  0  0  0
  159.7980  205.8930  147.0940 C   0  0  0  0  0  2  0  0  0  0  0  0
  162.9250  206.1070  151.7630 C   0  0  0  0  0  1  0  0  0  0  0  0
  160.5500  206.1270  152.8430 C   0  0  1  0  0  3  0  0  0  0  0  0
  161.3230  205.8700  153.9790 O   0  0  0  0  0  1  0  0  0  0  0  0
  160.8630  207.5230  152.3280 C   0  0  0  0  0  2  0  0  0  0  0  0
  161.4210  206.3170  151.6050 C   0  0  2  0  0  0  0  0  0  0  0  0
  161.2650  204.6800  149.7350 C   0  0  0  0  0  0  0  0  0  0  0  0
  162.4060  204.6470  149.2970 O   0  0  0  0  0  0  0  0  0  0  0  0
  160.6990  202.6640  148.4870 N   0  0  0  0  0  0  0  0  0  0  0  0
  160.8520  201.2360  150.2090 O   0  0  0  0  0  0  0  0  0  0  0  0
  161.2640  200.4300  147.9200 N   0  0  0  0  0  1  0  0  0  0  0  0
  160.9350  201.4540  148.8490 C   0  0  0  0  0  0  0  0  0  0  0  0
  161.5680  202.7900  151.8950 C   0  0  0  0  0  1  0  0  0  0  0  0
  160.3920  203.4520  149.6730 C   0  0  1  0  0  3  0  0  0  0  0  0
  160.5120  202.4510  150.8520 C   0  0  1  0  0  3  0  0  0  0  0  0
  1 18  1  6  0  0  0
  1 17  1  0  0  0  0
  2  3  1  0  0  0  0
  3  9  2  0  0  0  0
  3  5  1  0  0  0  0
  4  2  1  0  0  0  0
  5  7  2  0  0  0  0
  6  4  2  0  0  0  0
  6 10  1  0  0  0  0
  8  7  1  0  0  0  0
  8  1  1  1  0  0  0
  9  8  1  0  0  0  0
 10 12  1  0  0  0  0
 11  4  1  0  0  0  0
 12  9  1  0  0  0  0
 14 15  1  1  0  0  0
 16 14  1  0  0  0  0
 17 13  1  1  0  0  0
 17 16  1  0  0  0  0
 17 14  1  0  0  0  0
 19 18  2  0  0  0  0
 20 23  2  0  0  0  0
 20 25  1  0  0  0  0
 21 26  1  0  0  0  0
 22 23  1  0  0  0  0
 23 21  1  0  0  0  0
 25 18  1  1  0  0  0
 25 26  1  0  0  0  0
 26 24  1  1  0  0  0
M  END
>  <MODEL>
9

>  <REMARK>
 VINA RESULT:      -5.5      2.909      5.279
  Name = 
  4 active torsions:
  status: ('A' for Active; 'I' for Inactive)
    1  A    between atoms: C_2  and  C_4
    2  A    between atoms: C_2  and  C_21
    3  A    between atoms: C_4  and  C_13
    4  A    between atoms: C_4  and  C_26
                            x       y       z     vdW  Elec       q    Type
                         _______ _______ _______ _____ _____    ______ ____

>  <TORSDO>
F 4

$$$$
