=
 OpenBabel11072411173D

 28 31  0  0  1  0  0  0  0  0999 V2000
  161.5670  206.2050  151.7130 C   0  0  2  0  0  0  0  0  0  0  0  0
  162.5910  206.9380  150.3590 S   0  0  0  0  0  0  0  0  0  0  0  0
  160.6190  203.9970  152.3770 C   0  0  0  0  0  2  0  0  0  0  0  0
  160.8680  202.2920  150.5520 C   0  0  0  0  0  3  0  0  0  0  0  0
  160.8890  204.7520  149.7390 C   0  0  1  0  0  3  0  0  0  0  0  0
  161.9070  204.7690  152.0630 C   0  0  1  0  0  3  0  0  0  0  0  0
  161.0490  203.2760  149.4680 C   0  0  0  0  0  0  0  0  0  0  0  0
  162.0590  205.2260  150.6440 C   0  0  2  0  0  0  0  0  0  0  0  0
  160.6780  202.5970  151.8420 C   0  0  0  0  0  3  0  0  0  0  0  0
  161.5820  202.8730  148.3600 N   0  0  0  0  0  2  0  0  0  0  0  0
  160.1620  206.9040  148.8620 O   0  0  0  0  0  1  0  0  0  0  0  0
  160.5400  205.6070  148.4950 C   0  0  1  0  0  3  0  0  0  0  0  0
  162.5210  206.9730  147.6660 C   0  0  0  0  0  1  0  0  0  0  0  0
  161.7300  205.6720  147.5180 C   0  0  2  0  0  3  0  0  0  0  0  0
  161.3650  205.3500  146.0530 C   0  0  0  0  0  0  0  0  0  0  0  0
  161.0640  203.8690  145.8930 C   0  0  0  0  0  1  0  0  0  0  0  0
  160.1570  206.1450  145.5850 C   0  0  0  0  0  1  0  0  0  0  0  0
  162.5400  205.6750  145.1470 C   0  0  0  0  0  1  0  0  0  0  0  0
  162.2980  206.8360  152.8850 C   0  0  0  0  0  2  0  0  0  0  0  0
  161.3270  207.5430  153.7780 C   0  0  0  0  0  0  0  0  0  0  0  0
  161.6690  209.7030  152.5110 C   0  0  0  0  0  1  0  0  0  0  0  0
  159.5400  208.8140  155.5220 C   0  0  0  0  0  3  0  0  0  0  0  0
  160.1360  209.5410  154.4890 C   0  0  0  0  0  0  0  0  0  0  0  0
  160.7260  206.8270  154.8190 C   0  0  0  0  0  3  0  0  0  0  0  0
  159.2550  206.7580  156.6910 F   0  0  0  0  0  0  0  0  0  0  0  0
  161.0360  208.9140  153.6120 C   0  0  0  0  0  0  0  0  0  0  0  0
  159.8300  210.8900  154.3440 O   0  0  0  0  0  1  0  0  0  0  0  0
  159.8340  207.4590  155.6870 C   0  0  0  0  0  0  0  0  0  0  0  0
  1  6  1  0  0  0  0
  1 19  1  6  0  0  0
  2  1  1  0  0  0  0
  4  9  2  0  0  0  0
  5 12  1  6  0  0  0
  5  8  1  0  0  0  0
  6  3  1  6  0  0  0
  7  5  1  0  0  0  0
  7  4  1  0  0  0  0
  8  2  1  6  0  0  0
  8  1  1  0  0  0  0
  8  6  1  0  0  0  0
  9  3  1  0  0  0  0
 10  7  2  0  0  0  0
 12 11  1  1  0  0  0
 14 13  1  6  0  0  0
 14 12  1  0  0  0  0
 15 14  1  0  0  0  0
 16 15  1  0  0  0  0
 17 15  1  0  0  0  0
 18 15  1  0  0  0  0
 19 20  1  0  0  0  0
 20 24  1  0  0  0  0
 21 26  1  0  0  0  0
 22 28  1  0  0  0  0
 23 22  2  0  0  0  0
 24 28  2  0  0  0  0
 26 20  2  0  0  0  0
 26 23  1  0  0  0  0
 27 23  1  0  0  0  0
 28 25  1  0  0  0  0
M  END
>  <MODEL>
1

>  <REMARK>
 VINA RESULT:      -8.1      0.000      0.000
  Name = 
  5 active torsions:
  status: ('A' for Active; 'I' for Inactive)
    1  A    between atoms: C_1  and  C_11
    2  A    between atoms: C_2  and  C_11
    3  A    between atoms: C_3  and  C_28
    4  A    between atoms: C_12  and  C_24
    5  A    between atoms: C_24  and  C_28
                            x       y       z     vdW  Elec       q    Type
                         _______ _______ _______ _____ _____    ______ ____

>  <TORSDO>
F 5

$$$$
=
 OpenBabel11072411173D

 28 31  0  0  1  0  0  0  0  0999 V2000
  161.4100  206.4510  151.6800 C   0  0  2  0  0  0  0  0  0  0  0  0
  162.4630  207.1450  150.3280 S   0  0  0  0  0  0  0  0  0  0  0  0
  160.5160  204.2480  152.4320 C   0  0  0  0  0  2  0  0  0  0  0  0
  160.9020  202.4550  150.7180 C   0  0  0  0  0  3  0  0  0  0  0  0
  160.8670  204.8650  149.7670 C   0  0  1  0  0  3  0  0  0  0  0  0
  161.7880  205.0500  152.1240 C   0  0  1  0  0  3  0  0  0  0  0  0
  161.0910  203.3840  149.5870 C   0  0  0  0  0  0  0  0  0  0  0  0
  161.9810  205.4330  150.6880 C   0  0  2  0  0  0  0  0  0  0  0  0
  160.6470  202.8240  151.9790 C   0  0  0  0  0  3  0  0  0  0  0  0
  161.6830  202.9410  148.5260 N   0  0  0  0  0  2  0  0  0  0  0  0
  160.1300  206.9460  148.7390 O   0  0  0  0  0  1  0  0  0  0  0  0
  160.5390  205.6360  148.4640 C   0  0  1  0  0  3  0  0  0  0  0  0
  162.5400  206.9700  147.6310 C   0  0  0  0  0  1  0  0  0  0  0  0
  161.7540  205.6630  147.5170 C   0  0  2  0  0  3  0  0  0  0  0  0
  161.4290  205.2770  146.0580 C   0  0  0  0  0  0  0  0  0  0  0  0
  162.6390  205.5020  145.1660 C   0  0  0  0  0  1  0  0  0  0  0  0
  161.0020  203.8230  145.9400 C   0  0  0  0  0  1  0  0  0  0  0  0
  160.3080  206.1560  145.5320 C   0  0  0  0  0  1  0  0  0  0  0  0
  162.0690  207.1730  152.8420 C   0  0  0  0  0  2  0  0  0  0  0  0
  161.2700  208.3800  153.2200 C   0  0  0  0  0  0  0  0  0  0  0  0
  160.7230  207.3670  155.4700 C   0  0  0  0  0  1  0  0  0  0  0  0
  159.7450  210.6490  153.8370 C   0  0  0  0  0  3  0  0  0  0  0  0
  159.8550  209.6130  154.7690 C   0  0  0  0  0  0  0  0  0  0  0  0
  161.1480  209.4220  152.2950 C   0  0  0  0  0  3  0  0  0  0  0  0
  160.2810  211.5600  151.7030 F   0  0  0  0  0  0  0  0  0  0  0  0
  160.6140  208.4700  154.4660 C   0  0  0  0  0  0  0  0  0  0  0  0
  159.2030  209.7270  155.9910 O   0  0  0  0  0  1  0  0  0  0  0  0
  160.3910  210.5540  152.6030 C   0  0  0  0  0  0  0  0  0  0  0  0
  1  6  1  0  0  0  0
  1 19  1  6  0  0  0
  2  1  1  0  0  0  0
  4  9  2  0  0  0  0
  5 12  1  6  0  0  0
  5  8  1  0  0  0  0
  6  3  1  6  0  0  0
  7  5  1  0  0  0  0
  7  4  1  0  0  0  0
  8  2  1  6  0  0  0
  8  1  1  0  0  0  0
  8  6  1  0  0  0  0
  9  3  1  0  0  0  0
 10  7  2  0  0  0  0
 12 11  1  1  0  0  0
 14 13  1  6  0  0  0
 14 12  1  0  0  0  0
 15 14  1  0  0  0  0
 16 15  1  0  0  0  0
 17 15  1  0  0  0  0
 18 15  1  0  0  0  0
 19 20  1  0  0  0  0
 20 26  1  0  0  0  0
 22 23  1  0  0  0  0
 23 27  1  0  0  0  0
 24 28  1  0  0  0  0
 24 20  2  0  0  0  0
 25 28  1  0  0  0  0
 26 23  2  0  0  0  0
 26 21  1  0  0  0  0
 28 22  2  0  0  0  0
M  END
>  <MODEL>
2

>  <REMARK>
 VINA RESULT:      -7.7      1.480      2.137
  Name = 
  5 active torsions:
  status: ('A' for Active; 'I' for Inactive)
    1  A    between atoms: C_1  and  C_11
    2  A    between atoms: C_2  and  C_11
    3  A    between atoms: C_3  and  C_28
    4  A    between atoms: C_12  and  C_24
    5  A    between atoms: C_24  and  C_28
                            x       y       z     vdW  Elec       q    Type
                         _______ _______ _______ _____ _____    ______ ____

>  <TORSDO>
F 5

$$$$
=
 OpenBabel11072411173D

 28 31  0  0  1  0  0  0  0  0999 V2000
  160.8120  210.4270  152.6540 C   0  0  2  0  0  0  0  0  0  0  0  0
  162.2600  210.3300  153.7990 S   0  0  0  0  0  0  0  0  0  0  0  0
  158.7370  211.7740  152.3460 C   0  0  0  0  0  2  0  0  0  0  0  0
  158.3010  213.2710  154.3140 C   0  0  0  0  0  3  0  0  0  0  0  0
  159.7660  211.1990  154.8400 C   0  0  1  0  0  3  0  0  0  0  0  0
  160.2680  211.8250  152.4330 C   0  0  1  0  0  3  0  0  0  0  0  0
  159.1450  212.5100  155.2560 C   0  0  0  0  0  0  0  0  0  0  0  0
  160.8540  211.4780  153.7670 C   0  0  2  0  0  0  0  0  0  0  0  0
  158.1130  212.9570  153.0260 C   0  0  0  0  0  3  0  0  0  0  0  0
  159.5360  213.1000  156.3380 N   0  0  0  0  0  2  0  0  0  0  0  0
  159.3770  210.5510  157.1540 O   0  0  0  0  0  1  0  0  0  0  0  0
  160.1250  210.2500  156.0100 C   0  0  1  0  0  3  0  0  0  0  0  0
  158.4450  208.3460  155.8330 C   0  0  0  0  0  1  0  0  0  0  0  0
  159.8960  208.7780  155.6170 C   0  0  2  0  0  3  0  0  0  0  0  0
  160.9170  207.7930  156.2270 C   0  0  0  0  0  0  0  0  0  0  0  0
  161.4790  206.8760  155.1540 C   0  0  0  0  0  1  0  0  0  0  0  0
  162.0710  208.5210  156.8980 C   0  0  0  0  0  1  0  0  0  0  0  0
  160.2310  206.9170  157.2600 C   0  0  0  0  0  1  0  0  0  0  0  0
  161.5800  210.3430  151.3470 C   0  0  0  0  0  2  0  0  0  0  0  0
  161.5510  208.9420  150.8200 C   0  0  0  0  0  0  0  0  0  0  0  0
  162.2100  209.7480  148.5170 C   0  0  0  0  0  1  0  0  0  0  0  0
  161.4250  206.3010  149.8940 C   0  0  0  0  0  3  0  0  0  0  0  0
  161.7750  207.3290  149.0140 C   0  0  0  0  0  0  0  0  0  0  0  0
  161.1990  207.9040  151.6900 C   0  0  0  0  0  3  0  0  0  0  0  0
  160.7990  205.5890  152.0780 F   0  0  0  0  0  0  0  0  0  0  0  0
  161.8360  208.6560  149.4690 C   0  0  0  0  0  0  0  0  0  0  0  0
  162.0550  207.0210  147.6870 O   0  0  0  0  0  1  0  0  0  0  0  0
  161.1380  206.5880  151.2290 C   0  0  0  0  0  0  0  0  0  0  0  0
  1 19  1  1  0  0  0
  1  8  1  0  0  0  0
  1  2  1  0  0  0  0
  3  9  1  0  0  0  0
  4  7  1  0  0  0  0
  5  7  1  0  0  0  0
  5 12  1  1  0  0  0
  6  3  1  1  0  0  0
  6  1  1  0  0  0  0
  6  8  1  0  0  0  0
  7 10  2  0  0  0  0
  8  2  1  1  0  0  0
  8  5  1  0  0  0  0
  9  4  2  0  0  0  0
 12 11  1  1  0  0  0
 14 13  1  1  0  0  0
 14 12  1  0  0  0  0
 14 15  1  0  0  0  0
 15 17  1  0  0  0  0
 15 18  1  0  0  0  0
 16 15  1  0  0  0  0
 20 19  1  0  0  0  0
 20 24  1  0  0  0  0
 21 26  1  0  0  0  0
 22 28  1  0  0  0  0
 23 26  1  0  0  0  0
 23 22  2  0  0  0  0
 26 20  2  0  0  0  0
 27 23  1  0  0  0  0
 28 24  2  0  0  0  0
 28 25  1  0  0  0  0
M  END
>  <MODEL>
3

>  <REMARK>
 VINA RESULT:      -7.1      3.731      8.264
  Name = 
  5 active torsions:
  status: ('A' for Active; 'I' for Inactive)
    1  A    between atoms: C_1  and  C_11
    2  A    between atoms: C_2  and  C_11
    3  A    between atoms: C_3  and  C_28
    4  A    between atoms: C_12  and  C_24
    5  A    between atoms: C_24  and  C_28
                            x       y       z     vdW  Elec       q    Type
                         _______ _______ _______ _____ _____    ______ ____

>  <TORSDO>
F 5

$$$$
=
 OpenBabel11072411173D

 28 31  0  0  1  0  0  0  0  0999 V2000
  160.7800  209.3860  153.1060 C   0  0  2  0  0  0  0  0  0  0  0  0
  161.0750  209.2210  154.9240 S   0  0  0  0  0  0  0  0  0  0  0  0
  160.2580  211.1600  151.4340 C   0  0  0  0  0  2  0  0  0  0  0  0
  159.6750  213.3370  152.5390 C   0  0  0  0  0  3  0  0  0  0  0  0
  159.3000  211.2420  154.0190 C   0  0  1  0  0  3  0  0  0  0  0  0
  161.2570  210.6920  152.5000 C   0  0  1  0  0  3  0  0  0  0  0  0
  159.3360  212.7420  153.8470 C   0  0  0  0  0  0  0  0  0  0  0  0
  160.7470  210.6900  153.9090 C   0  0  2  0  0  0  0  0  0  0  0  0
  160.0830  212.6500  151.4660 C   0  0  0  0  0  3  0  0  0  0  0  0
  159.3160  213.5150  154.8830 N   0  0  0  0  0  2  0  0  0  0  0  0
  159.1970  210.1750  156.2050 O   0  0  0  0  0  1  0  0  0  0  0  0
  158.4180  210.7440  155.1910 C   0  0  1  0  0  3  0  0  0  0  0  0
  157.8510  212.1120  157.2610 C   0  0  0  0  0  1  0  0  0  0  0  0
  157.5730  211.8930  155.7730 C   0  0  2  0  0  3  0  0  0  0  0  0
  156.0660  211.7990  155.4470 C   0  0  0  0  0  0  0  0  0  0  0  0
  155.7100  212.7310  154.3010 C   0  0  0  0  0  1  0  0  0  0  0  0
  155.6580  210.3840  155.0680 C   0  0  0  0  0  1  0  0  0  0  0  0
  155.2520  212.2310  156.6540 C   0  0  0  0  0  1  0  0  0  0  0  0
  161.9540  208.5480  152.6320 C   0  0  0  0  0  2  0  0  0  0  0  0
  161.4970  207.5460  151.6200 C   0  0  0  0  0  0  0  0  0  0  0  0
  161.2550  205.7820  153.4140 C   0  0  0  0  0  1  0  0  0  0  0  0
  160.6990  205.7070  149.6610 C   0  0  0  0  0  3  0  0  0  0  0  0
  160.7740  205.3070  150.9980 C   0  0  0  0  0  0  0  0  0  0  0  0
  161.4210  207.9320  150.2770 C   0  0  0  0  0  3  0  0  0  0  0  0
  160.9480  207.4000  148.0040 F   0  0  0  0  0  0  0  0  0  0  0  0
  161.1770  206.2210  151.9860 C   0  0  0  0  0  0  0  0  0  0  0  0
  160.4500  203.9980  151.3340 O   0  0  0  0  0  1  0  0  0  0  0  0
  161.0210  207.0170  149.3010 C   0  0  0  0  0  0  0  0  0  0  0  0
  1 19  1  6  0  0  0
  1  8  1  0  0  0  0
  1  2  1  0  0  0  0
  3  9  1  0  0  0  0
  4  7  1  0  0  0  0
  5 12  1  1  0  0  0
  6  3  1  6  0  0  0
  6  1  1  0  0  0  0
  6  8  1  0  0  0  0
  7  5  1  0  0  0  0
  7 10  2  0  0  0  0
  8  5  1  0  0  0  0
  8  2  1  1  0  0  0
  9  4  2  0  0  0  0
 12 14  1  0  0  0  0
 12 11  1  1  0  0  0
 14 13  1  1  0  0  0
 15 14  1  0  0  0  0
 15 18  1  0  0  0  0
 16 15  1  0  0  0  0
 17 15  1  0  0  0  0
 20 26  1  0  0  0  0
 20 19  1  0  0  0  0
 22 23  1  0  0  0  0
 23 27  1  0  0  0  0
 23 26  2  0  0  0  0
 24 20  2  0  0  0  0
 25 28  1  0  0  0  0
 26 21  1  0  0  0  0
 28 22  2  0  0  0  0
 28 24  1  0  0  0  0
M  END
>  <MODEL>
4

>  <REMARK>
 VINA RESULT:      -7.0      4.192      8.751
  Name = 
  5 active torsions:
  status: ('A' for Active; 'I' for Inactive)
    1  A    between atoms: C_1  and  C_11
    2  A    between atoms: C_2  and  C_11
    3  A    between atoms: C_3  and  C_28
    4  A    between atoms: C_12  and  C_24
    5  A    between atoms: C_24  and  C_28
                            x       y       z     vdW  Elec       q    Type
                         _______ _______ _______ _____ _____    ______ ____

>  <TORSDO>
F 5

$$$$
=
 OpenBabel11072411173D

 28 31  0  0  1  0  0  0  0  0999 V2000
  160.7290  206.8300  153.1530 C   0  0  2  0  0  0  0  0  0  0  0  0
  160.5280  206.5790  154.9740 S   0  0  0  0  0  0  0  0  0  0  0  0
  161.7770  208.4520  151.5760 C   0  0  0  0  0  2  0  0  0  0  0  0
  162.5610  210.5230  152.7590 C   0  0  0  0  0  3  0  0  0  0  0  0
  160.6720  209.2340  153.9790 C   0  0  1  0  0  3  0  0  0  0  0  0
  162.0330  207.4870  152.7410 C   0  0  1  0  0  3  0  0  0  0  0  0
  161.6990  210.3410  153.9430 C   0  0  0  0  0  0  0  0  0  0  0  0
  161.4090  207.8690  154.0490 C   0  0  2  0  0  0  0  0  0  0  0  0
  162.6050  209.6960  151.7070 C   0  0  0  0  0  3  0  0  0  0  0  0
  162.0050  210.9780  155.0250 N   0  0  0  0  0  2  0  0  0  0  0  0
  159.7010  208.8180  156.1730 O   0  0  0  0  0  1  0  0  0  0  0  0
  159.4930  209.4740  154.9540 C   0  0  1  0  0  3  0  0  0  0  0  0
  159.1130  211.2910  156.6960 C   0  0  0  0  0  1  0  0  0  0  0  0
  159.2840  210.9790  155.2080 C   0  0  2  0  0  3  0  0  0  0  0  0
  158.1920  211.6250  154.3260 C   0  0  0  0  0  0  0  0  0  0  0  0
  158.0980  213.1160  154.6030 C   0  0  0  0  0  1  0  0  0  0  0  0
  158.4700  211.4220  152.8460 C   0  0  0  0  0  1  0  0  0  0  0  0
  156.8410  211.0150  154.6530 C   0  0  0  0  0  1  0  0  0  0  0  0
  161.1420  205.4120  152.7970 C   0  0  0  0  0  2  0  0  0  0  0  0
  161.0010  205.1880  151.3240 C   0  0  0  0  0  0  0  0  0  0  0  0
  161.2700  202.6950  151.6340 C   0  0  0  0  0  1  0  0  0  0  0  0
  160.7800  204.8510  148.5510 C   0  0  0  0  0  3  0  0  0  0  0  0
  160.9600  203.7360  149.3730 C   0  0  0  0  0  0  0  0  0  0  0  0
  160.8230  206.2970  150.4890 C   0  0  0  0  0  3  0  0  0  0  0  0
  160.5370  207.2080  148.3070 F   0  0  0  0  0  0  0  0  0  0  0  0
  161.0760  203.8960  150.7640 C   0  0  0  0  0  0  0  0  0  0  0  0
  161.0270  202.4720  148.7980 O   0  0  0  0  0  1  0  0  0  0  0  0
  160.7110  206.1290  149.1080 C   0  0  0  0  0  0  0  0  0  0  0  0
  1 19  1  6  0  0  0
  1  8  1  0  0  0  0
  1  2  1  0  0  0  0
  3  9  1  0  0  0  0
  4  7  1  0  0  0  0
  5  8  1  0  0  0  0
  5 12  1  1  0  0  0
  6  3  1  6  0  0  0
  6  1  1  0  0  0  0
  6  8  1  0  0  0  0
  7  5  1  0  0  0  0
  7 10  2  0  0  0  0
  8  2  1  1  0  0  0
  9  4  2  0  0  0  0
 12 14  1  0  0  0  0
 12 11  1  1  0  0  0
 14 13  1  1  0  0  0
 15 16  1  0  0  0  0
 15 18  1  0  0  0  0
 15 14  1  0  0  0  0
 17 15  1  0  0  0  0
 20 19  1  0  0  0  0
 22 28  2  0  0  0  0
 22 23  1  0  0  0  0
 23 26  2  0  0  0  0
 24 20  2  0  0  0  0
 25 28  1  0  0  0  0
 26 20  1  0  0  0  0
 26 21  1  0  0  0  0
 27 23  1  0  0  0  0
 28 24  1  0  0  0  0
M  END
>  <MODEL>
5

>  <REMARK>
 VINA RESULT:      -7.0      3.348      7.869
  Name = 
  5 active torsions:
  status: ('A' for Active; 'I' for Inactive)
    1  A    between atoms: C_1  and  C_11
    2  A    between atoms: C_2  and  C_11
    3  A    between atoms: C_3  and  C_28
    4  A    between atoms: C_12  and  C_24
    5  A    between atoms: C_24  and  C_28
                            x       y       z     vdW  Elec       q    Type
                         _______ _______ _______ _____ _____    ______ ____

>  <TORSDO>
F 5

$$$$
=
 OpenBabel11072411173D

 28 31  0  0  1  0  0  0  0  0999 V2000
  161.6060  207.5900  151.0980 C   0  0  2  0  0  0  0  0  0  0  0  0
  162.5730  207.6300  149.5230 S   0  0  0  0  0  0  0  0  0  0  0  0
  160.7760  205.9270  152.7600 C   0  0  0  0  0  2  0  0  0  0  0  0
  161.0800  203.5710  151.9490 C   0  0  0  0  0  3  0  0  0  0  0  0
  160.9700  205.3520  150.0690 C   0  0  1  0  0  3  0  0  0  0  0  0
  162.0210  206.5030  152.0720 C   0  0  1  0  0  3  0  0  0  0  0  0
  161.1970  203.9300  150.5220 C   0  0  0  0  0  0  0  0  0  0  0  0
  162.1290  206.2390  150.6010 C   0  0  2  0  0  0  0  0  0  0  0  0
  160.8950  204.4430  152.9470 C   0  0  0  0  0  3  0  0  0  0  0  0
  161.7320  203.0710  149.7180 N   0  0  0  0  0  2  0  0  0  0  0  0
  159.6860  206.5820  148.4060 O   0  0  0  0  0  1  0  0  0  0  0  0
  160.5610  205.5040  148.5830 C   0  0  1  0  0  3  0  0  0  0  0  0
  161.9710  207.1460  147.2440 C   0  0  0  0  0  1  0  0  0  0  0  0
  161.8000  205.6920  147.6860 C   0  0  2  0  0  3  0  0  0  0  0  0
  161.8920  204.6890  146.5160 C   0  0  0  0  0  0  0  0  0  0  0  0
  163.3340  204.5330  146.0620 C   0  0  0  0  0  1  0  0  0  0  0  0
  161.3530  203.3210  146.9010 C   0  0  0  0  0  1  0  0  0  0  0  0
  161.0960  205.2070  145.3310 C   0  0  0  0  0  1  0  0  0  0  0  0
  162.3230  208.7260  151.8060 C   0  0  0  0  0  2  0  0  0  0  0  0
  161.3290  209.6990  152.3570 C   0  0  0  0  0  0  0  0  0  0  0  0
  161.6130  211.1950  150.3400 C   0  0  0  0  0  1  0  0  0  0  0  0
  159.4990  211.5030  153.4750 C   0  0  0  0  0  3  0  0  0  0  0  0
  160.0770  211.7820  152.2340 C   0  0  0  0  0  0  0  0  0  0  0  0
  160.7450  209.4340  153.6000 C   0  0  0  0  0  3  0  0  0  0  0  0
  159.2690  210.0650  155.3600 F   0  0  0  0  0  0  0  0  0  0  0  0
  160.9990  210.8850  151.6680 C   0  0  0  0  0  0  0  0  0  0  0  0
  159.7330  212.9550  151.5730 O   0  0  0  0  0  1  0  0  0  0  0  0
  159.8320  210.3310  154.1570 C   0  0  0  0  0  0  0  0  0  0  0  0
  1 19  1  6  0  0  0
  1  6  1  0  0  0  0
  2  1  1  0  0  0  0
  3  9  1  0  0  0  0
  4  9  2  0  0  0  0
  5 12  1  6  0  0  0
  5  7  1  0  0  0  0
  5  8  1  0  0  0  0
  6  3  1  6  0  0  0
  7  4  1  0  0  0  0
  8  2  1  6  0  0  0
  8  1  1  0  0  0  0
  8  6  1  0  0  0  0
 10  7  2  0  0  0  0
 12 11  1  1  0  0  0
 14 13  1  6  0  0  0
 14 12  1  0  0  0  0
 15 17  1  0  0  0  0
 15 14  1  0  0  0  0
 16 15  1  0  0  0  0
 18 15  1  0  0  0  0
 19 20  1  0  0  0  0
 20 24  1  0  0  0  0
 21 26  1  0  0  0  0
 22 28  1  0  0  0  0
 23 22  2  0  0  0  0
 24 28  2  0  0  0  0
 26 23  1  0  0  0  0
 26 20  2  0  0  0  0
 27 23  1  0  0  0  0
 28 25  1  0  0  0  0
M  END
>  <MODEL>
6

>  <REMARK>
 VINA RESULT:      -7.0      1.575      2.203
  Name = 
  5 active torsions:
  status: ('A' for Active; 'I' for Inactive)
    1  A    between atoms: C_1  and  C_11
    2  A    between atoms: C_2  and  C_11
    3  A    between atoms: C_3  and  C_28
    4  A    between atoms: C_12  and  C_24
    5  A    between atoms: C_24  and  C_28
                            x       y       z     vdW  Elec       q    Type
                         _______ _______ _______ _____ _____    ______ ____

>  <TORSDO>
F 5

$$$$
=
 OpenBabel11072411173D

 28 31  0  0  1  0  0  0  0  0999 V2000
  160.1460  213.2590  141.2860 C   0  0  2  0  0  0  0  0  0  0  0  0
  159.3460  214.4460  140.1170 S   0  0  0  0  0  0  0  0  0  0  0  0
  161.8290  211.4200  141.2500 C   0  0  0  0  0  2  0  0  0  0  0  0
  162.4370  210.7630  138.9050 C   0  0  0  0  0  3  0  0  0  0  0  0
  160.1170  211.8950  139.1400 C   0  0  1  0  0  3  0  0  0  0  0  0
  161.5820  212.9040  140.9500 C   0  0  1  0  0  3  0  0  0  0  0  0
  161.2270  211.3350  138.2830 C   0  0  0  0  0  0  0  0  0  0  0  0
  160.6240  213.1890  139.8330 C   0  0  2  0  0  0  0  0  0  0  0  0
  162.7150  210.7940  140.2130 C   0  0  0  0  0  3  0  0  0  0  0  0
  161.2460  211.5680  137.0110 N   0  0  0  0  0  2  0  0  0  0  0  0
  158.8400  212.1640  137.0840 O   0  0  0  0  0  1  0  0  0  0  0  0
  158.7260  211.9310  138.4600 C   0  0  1  0  0  3  0  0  0  0  0  0
  158.4670  209.4870  137.8010 C   0  0  0  0  0  1  0  0  0  0  0  0
  157.9600  210.6160  138.6990 C   0  0  2  0  0  3  0  0  0  0  0  0
  156.4230  210.7640  138.6740 C   0  0  0  0  0  0  0  0  0  0  0  0
  155.9950  211.9950  139.4560 C   0  0  0  0  0  1  0  0  0  0  0  0
  155.8910  210.8800  137.2550 C   0  0  0  0  0  1  0  0  0  0  0  0
  155.7800  209.5580  139.3360 C   0  0  0  0  0  1  0  0  0  0  0  0
  160.4770  214.2500  142.3880 C   0  0  0  0  0  2  0  0  0  0  0  0
  160.2630  213.6220  143.7290 C   0  0  0  0  0  0  0  0  0  0  0  0
  162.6950  213.9650  144.3260 C   0  0  0  0  0  1  0  0  0  0  0  0
  159.7990  212.3870  146.2010 C   0  0  0  0  0  3  0  0  0  0  0  0
  161.0790  212.8540  145.8890 C   0  0  0  0  0  0  0  0  0  0  0  0
  158.9880  213.1460  144.0530 C   0  0  0  0  0  3  0  0  0  0  0  0
  157.5170  212.0780  145.5930 F   0  0  0  0  0  0  0  0  0  0  0  0
  161.3210  213.4710  144.6500 C   0  0  0  0  0  0  0  0  0  0  0  0
  162.1040  212.6970  146.8150 O   0  0  0  0  0  1  0  0  0  0  0  0
  158.7560  212.5330  145.2860 C   0  0  0  0  0  0  0  0  0  0  0  0
  1 19  1  1  0  0  0
  2  1  1  0  0  0  0
  4  9  2  0  0  0  0
  5 12  1  6  0  0  0
  5  8  1  0  0  0  0
  6  3  1  6  0  0  0
  6  1  1  0  0  0  0
  7  4  1  0  0  0  0
  7  5  1  0  0  0  0
  8  2  1  6  0  0  0
  8  6  1  0  0  0  0
  8  1  1  0  0  0  0
  9  3  1  0  0  0  0
 10  7  2  0  0  0  0
 12 11  1  6  0  0  0
 12 14  1  0  0  0  0
 14 13  1  6  0  0  0
 15 14  1  0  0  0  0
 15 18  1  0  0  0  0
 15 16  1  0  0  0  0
 17 15  1  0  0  0  0
 19 20  1  0  0  0  0
 20 24  2  0  0  0  0
 20 26  1  0  0  0  0
 21 26  1  0  0  0  0
 23 22  1  0  0  0  0
 23 27  1  0  0  0  0
 24 28  1  0  0  0  0
 26 23  2  0  0  0  0
 28 25  1  0  0  0  0
 28 22  2  0  0  0  0
M  END
>  <MODEL>
7

>  <REMARK>
 VINA RESULT:      -6.9      9.345     12.024
  Name = 
  5 active torsions:
  status: ('A' for Active; 'I' for Inactive)
    1  A    between atoms: C_1  and  C_11
    2  A    between atoms: C_2  and  C_11
    3  A    between atoms: C_3  and  C_28
    4  A    between atoms: C_12  and  C_24
    5  A    between atoms: C_24  and  C_28
                            x       y       z     vdW  Elec       q    Type
                         _______ _______ _______ _____ _____    ______ ____

>  <TORSDO>
F 5

$$$$
=
 OpenBabel11072411173D

 28 31  0  0  1  0  0  0  0  0999 V2000
  160.7720  209.8530  152.7100 C   0  0  2  0  0  0  0  0  0  0  0  0
  161.1630  209.5640  154.4930 S   0  0  0  0  0  0  0  0  0  0  0  0
  160.0010  211.7000  151.2230 C   0  0  0  0  0  2  0  0  0  0  0  0
  159.2520  213.7020  152.5410 C   0  0  0  0  0  3  0  0  0  0  0  0
  159.1550  211.4600  153.8370 C   0  0  1  0  0  3  0  0  0  0  0  0
  161.0880  211.2490  152.2080 C   0  0  1  0  0  3  0  0  0  0  0  0
  159.0330  212.9640  153.8000 C   0  0  0  0  0  0  0  0  0  0  0  0
  160.6440  211.0720  153.6280 C   0  0  2  0  0  0  0  0  0  0  0  0
  159.6800  213.1560  151.3960 C   0  0  0  0  0  3  0  0  0  0  0  0
  158.9820  213.6390  154.9020 N   0  0  0  0  0  2  0  0  0  0  0  0
  159.2520  210.1140  155.8640 O   0  0  0  0  0  1  0  0  0  0  0  0
  158.3800  210.7740  154.9900 C   0  0  1  0  0  3  0  0  0  0  0  0
  157.9090  211.8240  157.2600 C   0  0  0  0  0  1  0  0  0  0  0  0
  157.5390  211.7980  155.7760 C   0  0  2  0  0  3  0  0  0  0  0  0
  156.0170  211.6870  155.5340 C   0  0  0  0  0  0  0  0  0  0  0  0
  155.5590  212.7410  154.5400 C   0  0  0  0  0  1  0  0  0  0  0  0
  155.6300  210.3160  155.0020 C   0  0  0  0  0  1  0  0  0  0  0  0
  155.2720  211.9310  156.8340 C   0  0  0  0  0  1  0  0  0  0  0  0
  162.0020  209.1860  152.1210 C   0  0  0  0  0  2  0  0  0  0  0  0
  161.6030  207.9960  151.3050 C   0  0  0  0  0  0  0  0  0  0  0  0
  161.9610  209.2910  149.1640 C   0  0  0  0  0  1  0  0  0  0  0  0
  160.7940  205.7450  149.8450 C   0  0  0  0  0  3  0  0  0  0  0  0
  161.1650  206.9120  149.1720 C   0  0  0  0  0  0  0  0  0  0  0  0
  161.2260  206.8230  151.9670 C   0  0  0  0  0  3  0  0  0  0  0  0
  160.4650  204.5670  151.8890 F   0  0  0  0  0  0  0  0  0  0  0  0
  161.5680  208.0470  149.8960 C   0  0  0  0  0  0  0  0  0  0  0  0
  161.1250  206.9360  147.7820 O   0  0  0  0  0  1  0  0  0  0  0  0
  160.8260  205.7000  151.2400 C   0  0  0  0  0  0  0  0  0  0  0  0
  1 19  1  6  0  0  0
  1  8  1  0  0  0  0
  1  2  1  0  0  0  0
  3  9  1  0  0  0  0
  4  7  1  0  0  0  0
  5 12  1  1  0  0  0
  6  3  1  6  0  0  0
  6  1  1  0  0  0  0
  6  8  1  0  0  0  0
  7  5  1  0  0  0  0
  7 10  2  0  0  0  0
  8  5  1  0  0  0  0
  8  2  1  1  0  0  0
  9  4  2  0  0  0  0
 12 14  1  0  0  0  0
 12 11  1  1  0  0  0
 14 13  1  1  0  0  0
 15 14  1  0  0  0  0
 15 18  1  0  0  0  0
 16 15  1  0  0  0  0
 17 15  1  0  0  0  0
 20 24  1  0  0  0  0
 20 19  1  0  0  0  0
 21 26  1  0  0  0  0
 22 28  1  0  0  0  0
 23 22  2  0  0  0  0
 23 26  1  0  0  0  0
 26 20  2  0  0  0  0
 27 23  1  0  0  0  0
 28 25  1  0  0  0  0
 28 24  2  0  0  0  0
M  END
>  <MODEL>
8

>  <REMARK>
 VINA RESULT:      -6.7      4.029      8.697
  Name = 
  5 active torsions:
  status: ('A' for Active; 'I' for Inactive)
    1  A    between atoms: C_1  and  C_11
    2  A    between atoms: C_2  and  C_11
    3  A    between atoms: C_3  and  C_28
    4  A    between atoms: C_12  and  C_24
    5  A    between atoms: C_24  and  C_28
                            x       y       z     vdW  Elec       q    Type
                         _______ _______ _______ _____ _____    ______ ____

>  <TORSDO>
F 5

$$$$
=
 OpenBabel11072411173D

 28 31  0  0  1  0  0  0  0  0999 V2000
  160.8560  209.9190  152.5380 C   0  0  2  0  0  0  0  0  0  0  0  0
  162.1850  210.4000  151.3470 S   0  0  0  0  0  0  0  0  0  0  0  0
  160.2240  207.9870  153.9810 C   0  0  0  0  0  2  0  0  0  0  0  0
  161.6290  205.9650  153.4920 C   0  0  0  0  0  3  0  0  0  0  0  0
  161.4660  207.6610  151.5400 C   0  0  1  0  0  3  0  0  0  0  0  0
  161.3120  209.0250  153.6740 C   0  0  1  0  0  3  0  0  0  0  0  0
  162.0510  206.4110  152.1510 C   0  0  0  0  0  0  0  0  0  0  0  0
  161.9740  208.8930  152.3370 C   0  0  2  0  0  0  0  0  0  0  0  0
  160.8230  206.6510  154.3110 C   0  0  0  0  0  3  0  0  0  0  0  0
  163.0950  205.8580  151.6240 N   0  0  0  0  0  2  0  0  0  0  0  0
  162.8420  207.5810  149.5330 O   0  0  0  0  0  1  0  0  0  0  0  0
  161.5270  207.7190  149.9930 C   0  0  1  0  0  3  0  0  0  0  0  0
  160.2820  205.5320  150.3710 C   0  0  0  0  0  1  0  0  0  0  0  0
  160.6420  206.6270  149.3640 C   0  0  2  0  0  3  0  0  0  0  0  0
  161.1790  206.0670  148.0290 C   0  0  0  0  0  0  0  0  0  0  0  0
  160.1550  206.2590  146.9220 C   0  0  0  0  0  1  0  0  0  0  0  0
  162.4750  206.7440  147.6140 C   0  0  0  0  0  1  0  0  0  0  0  0
  161.4310  204.5760  148.1610 C   0  0  0  0  0  1  0  0  0  0  0  0
  160.8290  211.2060  153.3440 C   0  0  0  0  0  2  0  0  0  0  0  0
  159.4200  211.6750  153.5230 C   0  0  0  0  0  0  0  0  0  0  0  0
  159.6540  213.2610  151.5690 C   0  0  0  0  0  1  0  0  0  0  0  0
  156.7890  212.5410  153.9510 C   0  0  0  0  0  3  0  0  0  0  0  0
  157.5390  213.0900  152.9070 C   0  0  0  0  0  0  0  0  0  0  0  0
  158.6590  211.1360  154.5660 C   0  0  0  0  0  3  0  0  0  0  0  0
  156.6170  211.0370  155.7890 F   0  0  0  0  0  0  0  0  0  0  0  0
  158.8600  212.6650  152.6880 C   0  0  0  0  0  0  0  0  0  0  0  0
  156.9640  214.0620  152.0960 O   0  0  0  0  0  1  0  0  0  0  0  0
  157.3470  211.5660  154.7780 C   0  0  0  0  0  0  0  0  0  0  0  0
  1 19  1  6  0  0  0
  1  6  1  0  0  0  0
  2  1  1  0  0  0  0
  3  9  1  0  0  0  0
  4  9  2  0  0  0  0
  5 12  1  6  0  0  0
  5  7  1  0  0  0  0
  5  8  1  0  0  0  0
  6  3  1  6  0  0  0
  7  4  1  0  0  0  0
  8  2  1  6  0  0  0
  8  1  1  0  0  0  0
  8  6  1  0  0  0  0
 10  7  2  0  0  0  0
 12 11  1  1  0  0  0
 14 12  1  0  0  0  0
 14 13  1  1  0  0  0
 15 18  1  0  0  0  0
 15 14  1  0  0  0  0
 16 15  1  0  0  0  0
 17 15  1  0  0  0  0
 19 20  1  0  0  0  0
 20 24  1  0  0  0  0
 21 26  1  0  0  0  0
 22 28  1  0  0  0  0
 23 22  2  0  0  0  0
 24 28  2  0  0  0  0
 26 23  1  0  0  0  0
 26 20  2  0  0  0  0
 27 23  1  0  0  0  0
 28 25  1  0  0  0  0
M  END
>  <MODEL>
9

>  <REMARK>
 VINA RESULT:      -6.7      2.762      4.105
  Name = 
  5 active torsions:
  status: ('A' for Active; 'I' for Inactive)
    1  A    between atoms: C_1  and  C_11
    2  A    between atoms: C_2  and  C_11
    3  A    between atoms: C_3  and  C_28
    4  A    between atoms: C_12  and  C_24
    5  A    between atoms: C_24  and  C_28
                            x       y       z     vdW  Elec       q    Type
                         _______ _______ _______ _____ _____    ______ ____

>  <TORSDO>
F 5

$$$$
