=
 OpenBabel11072415293D

 59 65  0  0  1  0  0  0  0  0999 V2000
  160.5210  208.9460  154.2070 C   0  0  1  0  0  3  0  0  0  0  0  0
  161.7500  206.9510  154.7460 N   0  0  0  0  0  2  0  0  0  0  0  0
  161.7760  208.1530  153.9120 C   0  0  1  0  0  3  0  0  0  0  0  0
  160.0240  208.3040  155.4700 C   0  0  1  0  0  3  0  0  0  0  0  0
  158.5700  208.2790  155.4750 N   0  0  0  0  0  1  0  0  0  0  0  0
  160.5470  206.9450  155.4800 N   0  0  0  0  0  2  0  0  0  0  0  0
  162.5850  206.0470  150.6950 C   0  0  0  0  0  2  0  0  0  0  0  0
  162.0120  206.3440  152.0760 C   0  0  0  0  0  2  0  0  0  0  0  0
  161.8010  207.8490  149.0870 C   0  0  0  0  0  2  0  0  0  0  0  0
  161.5540  206.4310  149.6350 C   0  0  1  0  0  3  0  0  0  0  0  0
  162.0340  207.8410  152.4150 C   0  0  1  0  0  3  0  0  0  0  0  0
  161.9970  208.9200  150.1660 C   0  0  0  0  0  2  0  0  0  0  0  0
  161.1920  208.6700  151.4360 C   0  0  0  0  0  2  0  0  0  0  0  0
  160.9910  206.2100  145.7140 O   0  0  0  0  0  0  0  0  0  0  0  0
  162.8270  206.7620  147.1150 O   0  0  0  0  0  0  0  0  0  0  0  0
  161.3780  205.3720  148.5270 C   0  0  1  0  0  0  0  0  0  0  0  0
  160.0360  205.6100  147.8150 C   0  0  0  0  0  2  0  0  0  0  0  0
  162.3040  205.8810  146.1560 C   0  0  2  0  0  0  0  0  0  0  0  0
  163.2320  205.5650  145.1900 F   0  0  0  0  0  0  0  0  0  0  0  0
  162.5840  205.4280  147.5520 C   0  0  1  0  0  3  0  0  0  0  0  0
  160.1870  206.6880  146.7600 C   0  0  0  0  0  2  0  0  0  0  0  0
  161.3330  203.9710  149.1430 C   0  0  0  0  0  2  0  0  0  0  0  0
  160.3780  203.1780  148.5000 O   0  0  0  0  0  0  0  0  0  0  0  0
  160.9190  201.8820  148.4600 C   0  0  1  0  0  3  0  0  0  0  0  0
  159.8090  200.9060  148.0880 C   0  0  0  0  0  2  0  0  0  0  0  0
  160.8290  201.2960  147.0510 C   0  0  1  0  0  0  0  0  0  0  0  0
  159.5640  201.3460  145.0110 O   0  0  0  0  0  1  0  0  0  0  0  0
  161.3140  202.7950  145.2540 O   0  0  0  0  0  1  0  0  0  0  0  0
  160.2680  202.1460  145.9160 C   0  0  0  0  0  3  0  0  0  0  0  0
  161.7220  200.1880  146.6690 N   0  0  0  0  0  2  0  0  0  0  0  0
  161.0400  199.0740  146.0200 C   0  0  0  0  0  2  0  0  0  0  0  0
  162.0530  198.1080  145.4370 C   0  0  0  0  0  1  0  0  0  0  0  0
  160.8290  210.4150  154.3590 C   0  0  0  0  0  0  0  0  0  0  0  0
  161.9670  210.7930  154.1610 O   0  0  0  0  0  0  0  0  0  0  0  0
  157.1230  211.9660  154.6420 S   0  0  0  0  0  0  0  0  0  0  0  0
  159.7590  211.4200  154.6950 C   0  0  2  0  0  3  0  0  0  0  0  0
  158.0500  211.9590  156.2090 C   0  0  1  0  0  3  0  0  0  0  0  0
  159.2880  211.2100  156.0590 N   0  0  0  0  0  2  0  0  0  0  0  0
  158.5770  211.3700  153.7310 C   0  0  2  0  0  3  0  0  0  0  0  0
  158.8300  212.2110  152.4590 C   0  0  1  0  0  3  0  0  0  0  0  0
  157.9570  211.8260  151.4400 O   0  0  0  0  0  1  0  0  0  0  0  0
  157.3470  214.0460  152.8930 O   0  0  0  0  0  1  0  0  0  0  0  0
  158.6960  213.7260  152.6990 C   0  0  0  0  0  0  0  0  0  0  0  0
  159.4220  214.0900  153.8370 O   0  0  0  0  0  1  0  0  0  0  0  0
  159.1960  214.4520  151.5360 N   0  0  0  0  0  2  0  0  0  0  0  0
  159.5580  213.5280  150.5430 N   0  0  0  0  0  2  0  0  0  0  0  0
  159.8260  213.9400  149.2020 C   0  0  0  0  0  0  0  0  0  0  0  0
  158.5990  214.0900  148.1180 S   0  0  0  0  0  0  0  0  0  0  0  0
  161.4820  213.3920  147.3240 C   0  0  2  0  0  3  0  0  0  0  0  0
  161.8290  212.5900  148.5630 C   0  0  0  0  0  2  0  0  0  0  0  0
  161.2490  213.9810  148.7270 C   0  0  2  0  0  3  0  0  0  0  0  0
  160.0420  212.6230  146.5030 S   0  0  0  0  0  1  0  0  0  0  0  0
  159.8330  213.9080  156.9370 S   0  0  0  0  0  0  0  0  0  0  0  0
  158.3100  213.3500  156.7230 C   0  0  0  0  0  0  0  0  0  0  0  0
  157.2170  214.2220  156.9990 N   0  0  0  0  0  2  0  0  0  0  0  0
  155.8760  213.7320  157.2610 C   0  0  0  0  0  2  0  0  0  0  0  0
  153.5440  214.4530  156.9400 C   0  0  0  0  0  1  0  0  0  0  0  0
  154.9010  214.3560  156.2830 C   0  0  2  0  0  3  0  0  0  0  0  0
  154.8160  213.5740  155.1240 O   0  0  0  0  0  1  0  0  0  0  0  0
  1 33  1  1  0  0  0
  1  4  1  0  0  0  0
  2  6  1  0  0  0  0
  3  1  1  0  0  0  0
  3  2  1  1  0  0  0
  4  5  1  6  0  0  0
  4  6  1  0  0  0  0
  7  8  1  0  0  0  0
  8 11  1  0  0  0  0
  9 12  1  0  0  0  0
 10  9  1  6  0  0  0
 10  7  1  0  0  0  0
 11 13  1  6  0  0  0
 11  3  1  0  0  0  0
 12 13  1  0  0  0  0
 14 18  1  0  0  0  0
 14 21  1  0  0  0  0
 16 22  1  1  0  0  0
 16 10  1  0  0  0  0
 17 16  1  0  0  0  0
 18 19  1  6  0  0  0
 18 15  1  0  0  0  0
 18 20  1  0  0  0  0
 20 15  1  1  0  0  0
 20 16  1  0  0  0  0
 21 17  1  0  0  0  0
 23 22  1  0  0  0  0
 24 23  1  6  0  0  0
 25 24  1  0  0  0  0
 26 29  1  6  0  0  0
 26 25  1  0  0  0  0
 26 24  1  0  0  0  0
 27 29  1  0  0  0  0
 28 29  1  0  0  0  0
 30 26  1  0  0  0  0
 31 30  1  0  0  0  0
 32 31  1  0  0  0  0
 34 33  2  0  0  0  0
 35 37  1  0  0  0  0
 36 33  1  6  0  0  0
 36 38  1  0  0  0  0
 37 54  1  6  0  0  0
 38 37  1  0  0  0  0
 39 40  1  6  0  0  0
 39 35  1  0  0  0  0
 39 36  1  0  0  0  0
 40 41  1  6  0  0  0
 40 43  1  0  0  0  0
 43 42  1  0  0  0  0
 43 44  1  0  0  0  0
 45 43  1  0  0  0  0
 46 45  1  0  0  0  0
 47 46  1  0  0  0  0
 48 47  2  0  0  0  0
 49 52  1  1  0  0  0
 49 50  1  0  0  0  0
 49 51  1  0  0  0  0
 50 51  1  0  0  0  0
 51 47  1  1  0  0  0
 54 53  2  0  0  0  0
 54 55  1  0  0  0  0
 55 56  1  0  0  0  0
 58 57  1  1  0  0  0
 58 56  1  0  0  0  0
 59 58  1  0  0  0  0
M  END
>  <MODEL>
1

>  <REMARK>
 VINA RESULT:      -3.7      0.000      0.000
  Name = 
  20 active torsions:
  status: ('A' for Active; 'I' for Inactive)
    1  A    between atoms: C_1  and  O_29
    2  A    between atoms: C_3  and  C_6
    3  A    between atoms: C_3  and  C_38
    4  A    between atoms: C_8  and  C_27
    5  A    between atoms: C_8  and  C_57
    6  A    between atoms: C_10  and  N_37
    7  A    between atoms: C_10  and  C_50
    8  A    between atoms: C_13  and  C_18
    9  A    between atoms: C_13  and  N_53
   10  A    between atoms: N_14  and  C_23
   11  A    between atoms: N_14  and  N_53
   12  A    between atoms: C_17  and  C_44
   13  A    between atoms: N_22  and  C_39
   14  A    between atoms: N_22  and  C_44
   15  A    between atoms: C_23  and  C_32
   16  A    between atoms: O_29  and  C_57
   17  A    between atoms: C_30  and  C_39
   18  A    between atoms: C_32  and  C_40
   19  A    between atoms: C_34  and  C_47
   20  A    between atoms: N_37  and  C_41
                            x       y       z     vdW  Elec       q    Type
                         _______ _______ _______ _____ _____    ______ ____

>  <TORSDO>
F 20

$$$$
=
 OpenBabel11072415293D

 59 65  0  0  1  0  0  0  0  0999 V2000
  161.6560  204.3950  150.4720 C   0  0  1  0  0  3  0  0  0  0  0  0
  159.3690  204.4900  151.2070 N   0  0  0  0  0  2  0  0  0  0  0  0
  160.5650  205.3050  150.9950 C   0  0  1  0  0  3  0  0  0  0  0  0
  160.8900  203.1650  150.0820 C   0  0  1  0  0  3  0  0  0  0  0  0
  161.6850  201.9780  150.3520 N   0  0  0  0  0  1  0  0  0  0  0  0
  159.6810  203.1520  150.8950 N   0  0  0  0  0  2  0  0  0  0  0  0
  160.8780  208.4600  153.3160 C   0  0  0  0  0  2  0  0  0  0  0  0
  160.2530  207.5270  152.2850 C   0  0  0  0  0  2  0  0  0  0  0  0
  161.4440  207.1130  155.3920 C   0  0  0  0  0  2  0  0  0  0  0  0
  160.4190  208.0400  154.7100 C   0  0  1  0  0  3  0  0  0  0  0  0
  160.9420  206.1550  152.2350 C   0  0  1  0  0  3  0  0  0  0  0  0
  161.9140  205.9400  154.5230 C   0  0  0  0  0  2  0  0  0  0  0  0
  160.8450  205.4100  153.5740 C   0  0  0  0  0  2  0  0  0  0  0  0
  161.9820  210.7180  157.1860 O   0  0  0  0  0  0  0  0  0  0  0  0
  161.9820  210.4120  154.8310 O   0  0  0  0  0  0  0  0  0  0  0  0
  159.9800  209.2200  155.6020 C   0  0  1  0  0  0  0  0  0  0  0  0
  160.4030  208.9360  157.0530 C   0  0  0  0  0  2  0  0  0  0  0  0
  161.6000  211.2230  155.9110 C   0  0  2  0  0  0  0  0  0  0  0  0
  161.8450  212.5550  155.6640 F   0  0  0  0  0  0  0  0  0  0  0  0
  160.5820  210.5420  155.0570 C   0  0  1  0  0  3  0  0  0  0  0  0
  161.8540  209.3220  157.2600 C   0  0  0  0  0  2  0  0  0  0  0  0
  158.4540  209.3510  155.5820 C   0  0  0  0  0  2  0  0  0  0  0  0
  158.0690  210.6780  155.7940 O   0  0  0  0  0  0  0  0  0  0  0  0
  157.4670  211.0980  154.5960 C   0  0  1  0  0  3  0  0  0  0  0  0
  156.0010  211.4090  154.8750 C   0  0  0  0  0  2  0  0  0  0  0  0
  156.9780  212.5430  154.7080 C   0  0  1  0  0  0  0  0  0  0  0  0
  158.5810  213.1990  156.3710 O   0  0  0  0  0  1  0  0  0  0  0  0
  156.4130  212.8590  157.0080 O   0  0  0  0  0  1  0  0  0  0  0  0
  157.2430  213.3300  155.9870 C   0  0  0  0  0  3  0  0  0  0  0  0
  156.7540  213.3280  153.4810 N   0  0  0  0  0  2  0  0  0  0  0  0
  157.9780  213.6820  152.7720 C   0  0  0  0  0  2  0  0  0  0  0  0
  157.6690  214.0090  151.3240 C   0  0  0  0  0  1  0  0  0  0  0  0
  162.3940  205.0350  149.3210 C   0  0  0  0  0  0  0  0  0  0  0  0
  163.4620  205.5720  149.5430 O   0  0  0  0  0  0  0  0  0  0  0  0
  162.2820  205.7080  145.3530 S   0  0  0  0  0  0  0  0  0  0  0  0
  161.8680  204.9790  147.9110 C   0  0  2  0  0  3  0  0  0  0  0  0
  162.1230  203.9550  145.8170 C   0  0  1  0  0  3  0  0  0  0  0  0
  162.3700  203.7860  147.2400 N   0  0  0  0  0  2  0  0  0  0  0  0
  162.2320  206.2170  147.0960 C   0  0  2  0  0  3  0  0  0  0  0  0
  161.2300  207.3720  147.3190 C   0  0  1  0  0  3  0  0  0  0  0  0
  160.0180  206.8760  147.8040 O   0  0  0  0  0  1  0  0  0  0  0  0
  161.2170  208.2440  149.5540 O   0  0  0  0  0  1  0  0  0  0  0  0
  161.7570  208.4550  148.2790 C   0  0  0  0  0  0  0  0  0  0  0  0
  163.1510  208.3810  148.3530 O   0  0  0  0  0  1  0  0  0  0  0  0
  161.3520  209.7730  147.8010 N   0  0  0  0  0  2  0  0  0  0  0  0
  161.9150  210.7520  148.6340 N   0  0  0  0  0  2  0  0  0  0  0  0
  161.8540  212.1390  148.3000 C   0  0  0  0  0  0  0  0  0  0  0  0
  163.0690  212.8420  147.4440 S   0  0  0  0  0  0  0  0  0  0  0  0
  159.6050  213.3460  148.0660 C   0  0  2  0  0  3  0  0  0  0  0  0
  160.7090  214.3600  148.2970 C   0  0  0  0  0  2  0  0  0  0  0  0
  160.8120  212.9980  148.9560 C   0  0  2  0  0  3  0  0  0  0  0  0
  159.6700  212.7820  146.3300 S   0  0  0  0  0  1  0  0  0  0  0  0
  159.7780  204.1860  144.4200 S   0  0  0  0  0  0  0  0  0  0  0  0
  160.7910  203.3790  145.4190 C   0  0  0  0  0  0  0  0  0  0  0  0
  160.4050  202.0890  145.8870 N   0  0  0  0  0  2  0  0  0  0  0  0
  160.7530  200.8680  145.1830 C   0  0  0  0  0  2  0  0  0  0  0  0
  161.5550  200.1290  147.3900 C   0  0  0  0  0  1  0  0  0  0  0  0
  160.7930  199.7070  146.1550 C   0  0  2  0  0  3  0  0  0  0  0  0
  161.4190  198.6040  145.5610 O   0  0  0  0  0  1  0  0  0  0  0  0
  1 33  1  6  0  0  0
  1  3  1  0  0  0  0
  3  2  1  1  0  0  0
  3 11  1  0  0  0  0
  4  5  1  1  0  0  0
  4  1  1  0  0  0  0
  4  6  1  0  0  0  0
  6  2  1  0  0  0  0
  8  7  1  0  0  0  0
 10  7  1  6  0  0  0
 10  9  1  0  0  0  0
 10 16  1  0  0  0  0
 11  8  1  1  0  0  0
 11 13  1  0  0  0  0
 12  9  1  0  0  0  0
 13 12  1  0  0  0  0
 14 21  1  0  0  0  0
 15 18  1  0  0  0  0
 16 22  1  6  0  0  0
 16 17  1  0  0  0  0
 17 21  1  0  0  0  0
 18 19  1  6  0  0  0
 18 14  1  0  0  0  0
 20 15  1  6  0  0  0
 20 16  1  0  0  0  0
 20 18  1  0  0  0  0
 22 23  1  0  0  0  0
 24 26  1  0  0  0  0
 24 25  1  0  0  0  0
 24 23  1  1  0  0  0
 26 30  1  6  0  0  0
 26 25  1  0  0  0  0
 26 29  1  0  0  0  0
 29 27  1  0  0  0  0
 29 28  1  0  0  0  0
 31 30  1  0  0  0  0
 32 31  1  0  0  0  0
 33 34  2  0  0  0  0
 35 37  1  0  0  0  0
 35 39  1  0  0  0  0
 36 33  1  1  0  0  0
 37 54  1  1  0  0  0
 37 38  1  0  0  0  0
 38 36  1  0  0  0  0
 39 40  1  6  0  0  0
 39 36  1  0  0  0  0
 40 41  1  1  0  0  0
 40 43  1  0  0  0  0
 43 44  1  0  0  0  0
 43 42  1  0  0  0  0
 45 43  1  0  0  0  0
 45 46  1  0  0  0  0
 47 46  1  0  0  0  0
 48 47  2  0  0  0  0
 49 52  1  6  0  0  0
 49 50  1  0  0  0  0
 49 51  1  0  0  0  0
 50 51  1  0  0  0  0
 51 47  1  6  0  0  0
 53 54  2  0  0  0  0
 54 55  1  0  0  0  0
 56 55  1  0  0  0  0
 56 58  1  0  0  0  0
 58 57  1  1  0  0  0
 59 58  1  0  0  0  0
M  END
>  <MODEL>
2

>  <REMARK>
 VINA RESULT:      -1.5      3.410     10.798
  Name = 
  20 active torsions:
  status: ('A' for Active; 'I' for Inactive)
    1  A    between atoms: C_1  and  O_29
    2  A    between atoms: C_3  and  C_6
    3  A    between atoms: C_3  and  C_38
    4  A    between atoms: C_8  and  C_27
    5  A    between atoms: C_8  and  C_57
    6  A    between atoms: C_10  and  N_37
    7  A    between atoms: C_10  and  C_50
    8  A    between atoms: C_13  and  C_18
    9  A    between atoms: C_13  and  N_53
   10  A    between atoms: N_14  and  C_23
   11  A    between atoms: N_14  and  N_53
   12  A    between atoms: C_17  and  C_44
   13  A    between atoms: N_22  and  C_39
   14  A    between atoms: N_22  and  C_44
   15  A    between atoms: C_23  and  C_32
   16  A    between atoms: O_29  and  C_57
   17  A    between atoms: C_30  and  C_39
   18  A    between atoms: C_32  and  C_40
   19  A    between atoms: C_34  and  C_47
   20  A    between atoms: N_37  and  C_41
                            x       y       z     vdW  Elec       q    Type
                         _______ _______ _______ _____ _____    ______ ____

>  <TORSDO>
F 20

$$$$
=
 OpenBabel11072415293D

 59 65  0  0  1  0  0  0  0  0999 V2000
  160.6760  209.0410  152.5560 C   0  0  1  0  0  3  0  0  0  0  0  0
  161.4680  207.1450  153.8020 N   0  0  0  0  0  2  0  0  0  0  0  0
  161.7280  207.9550  152.6120 C   0  0  1  0  0  3  0  0  0  0  0  0
  160.0850  208.9900  153.9340 C   0  0  1  0  0  3  0  0  0  0  0  0
  158.6590  209.2680  153.8730 N   0  0  0  0  0  1  0  0  0  0  0  0
  160.3090  207.6390  154.4330 N   0  0  0  0  0  2  0  0  0  0  0  0
  162.5520  204.8490  150.3500 C   0  0  0  0  0  2  0  0  0  0  0  0
  162.0830  205.6030  151.5890 C   0  0  0  0  0  2  0  0  0  0  0  0
  161.3020  205.7480  148.3310 C   0  0  0  0  0  2  0  0  0  0  0  0
  161.3650  204.6500  149.4100 C   0  0  1  0  0  3  0  0  0  0  0  0
  161.8790  207.1030  151.3260 C   0  0  1  0  0  3  0  0  0  0  0  0
  161.4200  207.1770  148.8750 C   0  0  0  0  0  2  0  0  0  0  0  0
  160.8080  207.3620  150.2580 C   0  0  0  0  0  2  0  0  0  0  0  0
  160.4440  200.9680  150.5660 O   0  0  0  0  0  0  0  0  0  0  0  0
  159.2070  202.9510  150.1450 O   0  0  0  0  0  0  0  0  0  0  0  0
  161.2630  203.2230  148.8320 C   0  0  1  0  0  0  0  0  0  0  0  0
  162.1920  202.2920  149.6290 C   0  0  0  0  0  2  0  0  0  0  0  0
  159.4540  201.6190  149.7760 C   0  0  2  0  0  0  0  0  0  0  0  0
  158.2880  200.9290  149.5350 F   0  0  0  0  0  0  0  0  0  0  0  0
  159.7850  202.7500  148.8590 C   0  0  1  0  0  3  0  0  0  0  0  0
  161.5030  201.8260  150.8970 C   0  0  0  0  0  2  0  0  0  0  0  0
  161.7370  203.2130  147.3760 C   0  0  0  0  0  2  0  0  0  0  0  0
  161.7270  204.5050  146.8430 O   0  0  0  0  0  0  0  0  0  0  0  0
  162.4090  204.4190  145.6170 C   0  0  1  0  0  3  0  0  0  0  0  0
  161.5890  203.5540  144.6680 C   0  0  0  0  0  2  0  0  0  0  0  0
  161.5890  205.0500  144.4910 C   0  0  1  0  0  0  0  0  0  0  0  0
  160.4000  206.6090  145.8770 O   0  0  0  0  0  1  0  0  0  0  0  0
  159.3120  204.7360  145.1460 O   0  0  0  0  0  1  0  0  0  0  0  0
  160.2540  205.7140  144.8120 C   0  0  0  0  0  3  0  0  0  0  0  0
  162.2690  205.4900  143.2600 N   0  0  0  0  0  2  0  0  0  0  0  0
  161.4730  206.3900  142.4330 C   0  0  0  0  0  2  0  0  0  0  0  0
  162.0910  206.5190  141.0550 C   0  0  0  0  0  1  0  0  0  0  0  0
  161.2910  210.3770  152.2150 C   0  0  0  0  0  0  0  0  0  0  0  0
  162.4540  210.5720  152.5110 O   0  0  0  0  0  0  0  0  0  0  0  0
  160.1400  214.0860  151.1520 S   0  0  0  0  0  0  0  0  0  0  0  0
  160.5220  211.4410  151.4780 C   0  0  2  0  0  3  0  0  0  0  0  0
  160.6280  213.0270  149.7540 C   0  0  1  0  0  3  0  0  0  0  0  0
  161.2100  211.7870  150.2410 N   0  0  0  0  0  2  0  0  0  0  0  0
  160.3070  212.7000  152.3150 C   0  0  2  0  0  3  0  0  0  0  0  0
  159.0710  212.5810  153.2330 C   0  0  1  0  0  3  0  0  0  0  0  0
  158.3320  211.4410  152.9080 O   0  0  0  0  0  1  0  0  0  0  0  0
  160.7700  212.1690  154.8760 O   0  0  0  0  0  1  0  0  0  0  0  0
  159.4290  212.5440  154.7310 C   0  0  0  0  0  0  0  0  0  0  0  0
  159.2430  213.8110  155.2920 O   0  0  0  0  0  1  0  0  0  0  0  0
  158.5850  211.5680  155.4120 N   0  0  0  0  0  2  0  0  0  0  0  0
  157.7630  212.2410  156.3310 N   0  0  0  0  0  2  0  0  0  0  0  0
  156.3450  212.0680  156.3290 C   0  0  0  0  0  0  0  0  0  0  0  0
  155.6480  210.9390  155.3580 S   0  0  0  0  0  0  0  0  0  0  0  0
  155.0090  214.2450  156.1160 C   0  0  2  0  0  3  0  0  0  0  0  0
  156.1670  214.4470  157.0730 C   0  0  0  0  0  2  0  0  0  0  0  0
  155.4880  213.0920  157.0160 C   0  0  2  0  0  3  0  0  0  0  0  0
  155.6430  214.2740  154.4030 S   0  0  0  0  0  1  0  0  0  0  0  0
  157.9420  213.1290  149.2220 S   0  0  0  0  0  0  0  0  0  0  0  0
  159.4840  212.7640  148.8130 C   0  0  0  0  0  0  0  0  0  0  0  0
  159.7370  212.2180  147.5210 N   0  0  0  0  0  2  0  0  0  0  0  0
  159.4030  212.9220  146.2970 C   0  0  0  0  0  2  0  0  0  0  0  0
  160.6420  213.1740  144.1850 C   0  0  0  0  0  1  0  0  0  0  0  0
  160.6620  213.4800  145.6640 C   0  0  2  0  0  3  0  0  0  0  0  0
  161.7930  212.9030  146.2560 O   0  0  0  0  0  1  0  0  0  0  0  0
  1 33  1  1  0  0  0
  1  3  1  0  0  0  0
  1  4  1  0  0  0  0
  2  6  1  0  0  0  0
  3  2  1  1  0  0  0
  4  5  1  6  0  0  0
  4  6  1  0  0  0  0
  7  8  1  0  0  0  0
  9 12  1  0  0  0  0
 10  9  1  6  0  0  0
 10  7  1  0  0  0  0
 11 13  1  6  0  0  0
 11  8  1  0  0  0  0
 11  3  1  0  0  0  0
 12 13  1  0  0  0  0
 14 21  1  0  0  0  0
 16 22  1  6  0  0  0
 16 20  1  0  0  0  0
 16 10  1  0  0  0  0
 16 17  1  0  0  0  0
 17 21  1  0  0  0  0
 18 19  1  6  0  0  0
 18 15  1  0  0  0  0
 18 14  1  0  0  0  0
 20 18  1  0  0  0  0
 20 15  1  1  0  0  0
 23 22  1  0  0  0  0
 24 23  1  1  0  0  0
 25 24  1  0  0  0  0
 26 30  1  6  0  0  0
 26 25  1  0  0  0  0
 26 29  1  0  0  0  0
 26 24  1  0  0  0  0
 29 28  1  0  0  0  0
 29 27  1  0  0  0  0
 31 30  1  0  0  0  0
 32 31  1  0  0  0  0
 33 34  2  0  0  0  0
 35 39  1  0  0  0  0
 36 33  1  1  0  0  0
 36 39  1  0  0  0  0
 37 54  1  1  0  0  0
 37 38  1  0  0  0  0
 37 35  1  0  0  0  0
 38 36  1  0  0  0  0
 39 40  1  6  0  0  0
 40 41  1  6  0  0  0
 40 43  1  0  0  0  0
 43 42  1  0  0  0  0
 43 44  1  0  0  0  0
 43 45  1  0  0  0  0
 45 46  1  0  0  0  0
 47 46  1  0  0  0  0
 48 47  2  0  0  0  0
 49 52  1  6  0  0  0
 49 51  1  0  0  0  0
 49 50  1  0  0  0  0
 51 47  1  6  0  0  0
 51 50  1  0  0  0  0
 54 53  2  0  0  0  0
 55 54  1  0  0  0  0
 56 55  1  0  0  0  0
 58 57  1  6  0  0  0
 58 59  1  0  0  0  0
 58 56  1  0  0  0  0
M  END
>  <MODEL>
3

>  <REMARK>
 VINA RESULT:      -0.8      2.483      6.191
  Name = 
  20 active torsions:
  status: ('A' for Active; 'I' for Inactive)
    1  A    between atoms: C_1  and  O_29
    2  A    between atoms: C_3  and  C_6
    3  A    between atoms: C_3  and  C_38
    4  A    between atoms: C_8  and  C_27
    5  A    between atoms: C_8  and  C_57
    6  A    between atoms: C_10  and  N_37
    7  A    between atoms: C_10  and  C_50
    8  A    between atoms: C_13  and  C_18
    9  A    between atoms: C_13  and  N_53
   10  A    between atoms: N_14  and  C_23
   11  A    between atoms: N_14  and  N_53
   12  A    between atoms: C_17  and  C_44
   13  A    between atoms: N_22  and  C_39
   14  A    between atoms: N_22  and  C_44
   15  A    between atoms: C_23  and  C_32
   16  A    between atoms: O_29  and  C_57
   17  A    between atoms: C_30  and  C_39
   18  A    between atoms: C_32  and  C_40
   19  A    between atoms: C_34  and  C_47
   20  A    between atoms: N_37  and  C_41
                            x       y       z     vdW  Elec       q    Type
                         _______ _______ _______ _____ _____    ______ ____

>  <TORSDO>
F 20

$$$$
=
 OpenBabel11072415293D

 59 65  0  0  1  0  0  0  0  0999 V2000
  162.0970  210.9710  149.4770 C   0  0  1  0  0  3  0  0  0  0  0  0
  161.0710  210.5810  147.3380 N   0  0  0  0  0  2  0  0  0  0  0  0
  161.2010  210.0390  148.6900 C   0  0  1  0  0  3  0  0  0  0  0  0
  162.1350  212.1930  148.6050 C   0  0  1  0  0  3  0  0  0  0  0  0
  163.4500  212.8100  148.6730 N   0  0  0  0  0  1  0  0  0  0  0  0
  161.8630  211.7430  147.2460 N   0  0  0  0  0  2  0  0  0  0  0  0
  161.9070  206.4430  150.1090 C   0  0  0  0  0  2  0  0  0  0  0  0
  161.2120  207.7930  149.9780 C   0  0  0  0  0  2  0  0  0  0  0  0
  161.9910  205.3490  147.8200 C   0  0  0  0  0  2  0  0  0  0  0  0
  161.2410  205.4470  149.1620 C   0  0  1  0  0  3  0  0  0  0  0  0
  161.6170  208.5450  148.7010 C   0  0  1  0  0  3  0  0  0  0  0  0
  162.3010  206.7010  147.1670 C   0  0  0  0  0  2  0  0  0  0  0  0
  161.2460  207.7690  147.4310 C   0  0  0  0  0  2  0  0  0  0  0  0
  161.6720  203.5750  152.6340 O   0  0  0  0  0  0  0  0  0  0  0  0
  160.2320  205.2760  151.8150 O   0  0  0  0  0  0  0  0  0  0  0  0
  160.9600  204.0720  149.8030 C   0  0  1  0  0  0  0  0  0  0  0  0
  162.2810  203.4860  150.3290 C   0  0  0  0  0  2  0  0  0  0  0  0
  160.3410  203.9720  152.3220 C   0  0  2  0  0  0  0  0  0  0  0  0
  159.3690  203.7040  153.2590 F   0  0  0  0  0  0  0  0  0  0  0  0
  159.8920  204.2220  150.9190 C   0  0  1  0  0  3  0  0  0  0  0  0
  162.5990  204.0570  151.6970 C   0  0  0  0  0  2  0  0  0  0  0  0
  160.4110  203.1050  148.7500 C   0  0  0  0  0  2  0  0  0  0  0  0
  161.4500  202.5670  147.9850 O   0  0  0  0  0  0  0  0  0  0  0  0
  160.9540  201.3600  147.4620 C   0  0  1  0  0  3  0  0  0  0  0  0
  159.5580  201.6120  146.9060 C   0  0  0  0  0  2  0  0  0  0  0  0
  160.7180  201.4740  145.9560 C   0  0  1  0  0  0  0  0  0  0  0  0
  162.2950  203.2690  145.7210 O   0  0  0  0  0  1  0  0  0  0  0  0
  160.0730  203.7100  145.4140 O   0  0  0  0  0  1  0  0  0  0  0  0
  161.0860  202.7640  145.2310 C   0  0  0  0  0  3  0  0  0  0  0  0
  160.6570  200.2490  145.1390 N   0  0  0  0  0  2  0  0  0  0  0  0
  161.2710  199.0850  145.7690 C   0  0  0  0  0  2  0  0  0  0  0  0
  161.2810  197.9130  144.8080 C   0  0  0  0  0  1  0  0  0  0  0  0
  161.5350  211.2320  150.8530 C   0  0  0  0  0  0  0  0  0  0  0  0
  162.1080  210.7530  151.8130 O   0  0  0  0  0  0  0  0  0  0  0  0
  159.2780  214.1450  152.4770 S   0  0  0  0  0  0  0  0  0  0  0  0
  160.3270  212.1050  151.0670 C   0  0  2  0  0  3  0  0  0  0  0  0
  159.4040  214.2230  150.6620 C   0  0  1  0  0  3  0  0  0  0  0  0
  160.3870  213.2630  150.1840 N   0  0  0  0  0  2  0  0  0  0  0  0
  160.1840  212.5700  152.5140 C   0  0  2  0  0  3  0  0  0  0  0  0
  159.4600  211.5230  153.3900 C   0  0  1  0  0  3  0  0  0  0  0  0
  159.2790  210.3360  152.6770 O   0  0  0  0  0  1  0  0  0  0  0  0
  159.6240  210.0950  155.3110 O   0  0  0  0  0  1  0  0  0  0  0  0
  160.2000  211.2180  154.7060 C   0  0  0  0  0  0  0  0  0  0  0  0
  161.5470  210.9550  154.4390 O   0  0  0  0  0  1  0  0  0  0  0  0
  160.0840  212.3590  155.6080 N   0  0  0  0  0  2  0  0  0  0  0  0
  159.1480  212.0550  156.6090 N   0  0  0  0  0  2  0  0  0  0  0  0
  157.9410  212.8050  156.7540 C   0  0  0  0  0  0  0  0  0  0  0  0
  157.9690  214.4470  156.6770 S   0  0  0  0  0  0  0  0  0  0  0  0
  155.6460  211.8380  156.1440 C   0  0  2  0  0  3  0  0  0  0  0  0
  155.4760  212.9860  157.1210 C   0  0  0  0  0  2  0  0  0  0  0  0
  156.7040  212.1020  157.2320 C   0  0  2  0  0  3  0  0  0  0  0  0
  155.9840  212.5180  154.4830 S   0  0  0  0  0  1  0  0  0  0  0  0
  156.7240  213.6900  150.8530 S   0  0  0  0  0  0  0  0  0  0  0  0
  158.0720  214.0250  149.9900 C   0  0  0  0  0  0  0  0  0  0  0  0
  157.9620  214.1650  148.5760 N   0  0  0  0  0  2  0  0  0  0  0  0
  159.0310  213.7900  147.6690 C   0  0  0  0  0  2  0  0  0  0  0  0
  157.1470  214.3950  146.2060 C   0  0  0  0  0  1  0  0  0  0  0  0
  158.5060  213.7370  146.2490 C   0  0  2  0  0  3  0  0  0  0  0  0
  158.4060  212.4060  145.8230 O   0  0  0  0  0  1  0  0  0  0  0  0
  1 33  1  1  0  0  0
  3  2  1  6  0  0  0
  3 11  1  0  0  0  0
  3  1  1  0  0  0  0
  4  5  1  6  0  0  0
  4  1  1  0  0  0  0
  6  2  1  0  0  0  0
  6  4  1  0  0  0  0
  8  7  1  0  0  0  0
 10  9  1  6  0  0  0
 10 16  1  0  0  0  0
 10  7  1  0  0  0  0
 11 13  1  6  0  0  0
 11  8  1  0  0  0  0
 12 13  1  0  0  0  0
 12  9  1  0  0  0  0
 15 18  1  0  0  0  0
 16 22  1  6  0  0  0
 16 17  1  0  0  0  0
 16 20  1  0  0  0  0
 17 21  1  0  0  0  0
 18 14  1  0  0  0  0
 18 19  1  1  0  0  0
 20 15  1  1  0  0  0
 20 18  1  0  0  0  0
 21 14  1  0  0  0  0
 23 22  1  0  0  0  0
 24 23  1  1  0  0  0
 25 24  1  0  0  0  0
 26 30  1  6  0  0  0
 26 25  1  0  0  0  0
 26 24  1  0  0  0  0
 29 28  1  0  0  0  0
 29 27  1  0  0  0  0
 29 26  1  0  0  0  0
 30 31  1  0  0  0  0
 32 31  1  0  0  0  0
 33 34  2  0  0  0  0
 35 39  1  0  0  0  0
 36 33  1  1  0  0  0
 36 39  1  0  0  0  0
 37 54  1  6  0  0  0
 37 35  1  0  0  0  0
 38 37  1  0  0  0  0
 38 36  1  0  0  0  0
 39 40  1  1  0  0  0
 40 41  1  6  0  0  0
 40 43  1  0  0  0  0
 43 42  1  0  0  0  0
 43 45  1  0  0  0  0
 44 43  1  0  0  0  0
 45 46  1  0  0  0  0
 46 47  1  0  0  0  0
 48 47  2  0  0  0  0
 49 52  1  6  0  0  0
 49 50  1  0  0  0  0
 49 51  1  0  0  0  0
 50 51  1  0  0  0  0
 51 47  1  6  0  0  0
 54 53  2  0  0  0  0
 55 54  1  0  0  0  0
 56 55  1  0  0  0  0
 58 57  1  1  0  0  0
 58 56  1  0  0  0  0
 59 58  1  0  0  0  0
M  END
>  <MODEL>
4

>  <REMARK>
 VINA RESULT:      -0.7      2.666      6.055
  Name = 
  20 active torsions:
  status: ('A' for Active; 'I' for Inactive)
    1  A    between atoms: C_1  and  O_29
    2  A    between atoms: C_3  and  C_6
    3  A    between atoms: C_3  and  C_38
    4  A    between atoms: C_8  and  C_27
    5  A    between atoms: C_8  and  C_57
    6  A    between atoms: C_10  and  N_37
    7  A    between atoms: C_10  and  C_50
    8  A    between atoms: C_13  and  C_18
    9  A    between atoms: C_13  and  N_53
   10  A    between atoms: N_14  and  C_23
   11  A    between atoms: N_14  and  N_53
   12  A    between atoms: C_17  and  C_44
   13  A    between atoms: N_22  and  C_39
   14  A    between atoms: N_22  and  C_44
   15  A    between atoms: C_23  and  C_32
   16  A    between atoms: O_29  and  C_57
   17  A    between atoms: C_30  and  C_39
   18  A    between atoms: C_32  and  C_40
   19  A    between atoms: C_34  and  C_47
   20  A    between atoms: N_37  and  C_41
                            x       y       z     vdW  Elec       q    Type
                         _______ _______ _______ _____ _____    ______ ____

>  <TORSDO>
F 20

$$$$
