=
 OpenBabel11072410033D

 55 61  0  0  1  0  0  0  0  0999 V2000
  160.5090  211.1860  152.0950 C   0  0  0  0  0  0  0  0  0  0  0  0
  160.1480  212.9390  150.5050 O   0  0  0  0  0  0  0  0  0  0  0  0
  160.4520  211.7380  150.7700 C   0  0  0  0  0  0  0  0  0  0  0  0
  161.0330  209.7920  152.0030 C   0  0  1  0  0  3  0  0  0  0  0  0
  160.8460  210.7820  149.7970 N   0  0  0  0  0  0  0  0  0  0  0  0
  161.0470  209.5060  150.4830 C   0  0  0  0  0  2  0  0  0  0  0  0
  159.8220  211.6510  153.1350 C   0  0  0  0  0  2  0  0  0  0  0  0
  161.4860  213.4230  147.4340 C   0  0  0  0  0  0  0  0  0  0  0  0
  162.9830  213.5840  147.5050 C   0  0  0  0  0  2  0  0  0  0  0  0
  159.3270  214.3450  147.0530 C   0  0  0  0  0  2  0  0  0  0  0  0
  163.0100  211.5870  148.9670 C   0  0  0  0  0  2  0  0  0  0  0  0
  160.3770  211.4310  146.3770 C   0  0  0  0  0  2  0  0  0  0  0  0
  158.0650  212.4760  145.9750 C   0  0  0  0  0  2  0  0  0  0  0  0
  161.6020  211.1120  148.5870 C   0  0  2  0  0  3  0  0  0  0  0  0
  160.8140  212.0870  147.6860 C   0  0  1  0  0  3  0  0  0  0  0  0
  163.6860  212.2690  147.7940 C   0  0  0  0  0  2  0  0  0  0  0  0
  159.4820  212.2850  145.4550 C   0  0  1  0  0  0  0  0  0  0  0  0
  158.9360  213.6980  145.7280 C   0  0  2  0  0  3  0  0  0  0  0  0
  160.7650  214.4490  147.1500 N   0  0  0  0  0  0  0  0  0  0  0  0
  159.5850  212.0260  144.0540 O   0  0  0  0  0  0  0  0  0  0  0  0
  162.2900  212.3420  138.3280 C   0  0  1  0  0  3  0  0  0  0  0  0
  162.9650  212.8190  137.0580 C   0  0  0  0  0  1  0  0  0  0  0  0
  161.3470  210.3910  140.4490 C   0  0  0  0  0  2  0  0  0  0  0  0
  162.2480  210.9490  138.3280 O   0  0  0  0  0  0  0  0  0  0  0  0
  162.7740  213.7070  143.0380 C   0  0  0  0  0  0  0  0  0  0  0  0
  161.5880  211.6850  141.2330 C   0  0  1  0  0  3  0  0  0  0  0  0
  161.6130  213.1530  143.7010 N   0  0  0  0  0  0  0  0  0  0  0  0
  163.0810  213.5440  141.6340 N   0  0  0  0  0  0  0  0  0  0  0  0
  163.0280  212.8060  139.4520 O   0  0  0  0  0  0  0  0  0  0  0  0
  162.6010  212.6900  140.7810 C   0  0  0  0  0  0  0  0  0  0  0  0
  160.5600  212.5640  143.2080 C   0  0  0  0  0  0  0  0  0  0  0  0
  161.0590  210.6310  138.9800 C   0  0  0  0  0  2  0  0  0  0  0  0
  163.6090  214.3860  143.7540 N   0  0  0  0  0  2  0  0  0  0  0  0
  160.3570  212.3800  141.7480 C   0  0  0  0  0  2  0  0  0  0  0  0
  162.3490  209.7460  152.4820 O   0  0  0  0  0  0  0  0  0  0  0  0
  161.6770  206.6020  152.1040 C   0  0  0  0  0  0  0  0  0  0  0  0
  162.4690  208.5440  153.1990 C   0  0  1  0  0  3  0  0  0  0  0  0
  161.1150  208.0960  153.6750 C   0  0  0  0  0  0  0  0  0  0  0  0
  160.6580  207.0350  153.0390 C   0  0  0  0  0  3  0  0  0  0  0  0
  161.5600  205.6060  151.2300 C   0  0  0  0  0  3  0  0  0  0  0  0
  162.8910  207.4410  152.2210 C   0  0  0  0  0  2  0  0  0  0  0  0
  160.3470  208.7250  154.7000 N   0  0  0  0  0  2  0  0  0  0  0  0
  159.4360  209.1480  157.1830 O   0  0  0  0  0  0  0  0  0  0  0  0
  160.5030  207.0070  156.6980 O   0  0  0  0  0  0  0  0  0  0  0  0
  160.5400  208.4840  156.4110 S   0  0  0  0  0  0  0  0  0  0  0  0
  162.1120  209.1410  156.9540 C   0  0  0  0  0  2  0  0  0  0  0  0
  162.4270  210.4860  156.3860 C   0  0  0  0  0  0  0  0  0  0  0  0
  161.4440  211.4570  156.2240 O   0  0  0  0  0  1  0  0  0  0  0  0
  163.6180  210.7580  156.0750 O   0  0  0  0  0  0  0  0  0  0  0  0
  160.3240  204.7690  151.1200 C   0  0  0  0  0  2  0  0  0  0  0  0
  160.5010  203.7780  150.0670 N   0  0  0  0  0  0  0  0  0  0  0  0
  161.4220  204.3410  149.0780 C   0  0  0  0  0  2  0  0  0  0  0  0
  161.0690  203.8420  147.6880 C   0  0  0  0  0  1  0  0  0  0  0  0
  160.4980  201.4040  150.1360 O   0  0  0  0  0  1  0  0  0  0  0  0
  161.0880  202.5650  150.6470 C   0  0  0  0  0  2  0  0  0  0  0  0
  1  7  2  0  0  0  0
  2  3  2  0  0  0  0
  3  1  1  0  0  0  0
  4  1  1  0  0  0  0
  4 35  1  6  0  0  0
  5  6  1  0  0  0  0
  5  3  1  0  0  0  0
  6  4  1  0  0  0  0
  8  9  1  0  0  0  0
  8 15  1  0  0  0  0
  9 16  1  0  0  0  0
 10 19  1  0  0  0  0
 14 11  1  1  0  0  0
 14  5  1  0  0  0  0
 15 12  1  6  0  0  0
 15 14  1  0  0  0  0
 16 11  1  0  0  0  0
 17 20  1  6  0  0  0
 17 18  1  0  0  0  0
 17 13  1  0  0  0  0
 17 12  1  0  0  0  0
 18 13  1  1  0  0  0
 18 10  1  0  0  0  0
 19  8  2  0  0  0  0
 21 22  1  6  0  0  0
 21 24  1  0  0  0  0
 21 29  1  0  0  0  0
 24 32  1  0  0  0  0
 25 27  1  0  0  0  0
 25 33  2  0  0  0  0
 26 23  1  6  0  0  0
 26 34  1  0  0  0  0
 28 25  1  0  0  0  0
 29 30  1  0  0  0  0
 30 26  1  0  0  0  0
 30 28  2  0  0  0  0
 31 27  2  0  0  0  0
 31 20  1  0  0  0  0
 32 23  1  0  0  0  0
 34 31  1  0  0  0  0
 36 41  1  0  0  0  0
 36 39  1  0  0  0  0
 37 35  1  6  0  0  0
 37 38  1  0  0  0  0
 38 42  1  0  0  0  0
 39 38  2  0  0  0  0
 40 36  2  0  0  0  0
 41 37  1  0  0  0  0
 42 45  1  0  0  0  0
 45 44  2  0  0  0  0
 45 46  1  0  0  0  0
 45 43  2  0  0  0  0
 47 46  1  0  0  0  0
 48 47  1  0  0  0  0
 49 47  2  0  0  0  0
 50 40  1  0  0  0  0
 51 55  1  0  0  0  0
 51 50  1  0  0  0  0
 52 51  1  0  0  0  0
 53 52  1  0  0  0  0
 54 55  1  0  0  0  0
M  END
>  <MODEL>
1

>  <REMARK>
 VINA RESULT:      -3.3      0.000      0.000
  Name = 
  13 active torsions:
  status: ('A' for Active; 'I' for Inactive)
    1  A    between atoms: C_4  and  C_23
    2  A    between atoms: C_4  and  S_31
    3  A    between atoms: O_7  and  C_8
    4  A    between atoms: O_7  and  C_29
    5  A    between atoms: C_9  and  N_27
    6  A    between atoms: C_11  and  N_18
    7  A    between atoms: N_18  and  S_31
    8  A    between atoms: O_22  and  C_42
    9  A    between atoms: O_22  and  C_43
   10  A    between atoms: N_27  and  C_50
   11  A    between atoms: N_27  and  C_53
   12  A    between atoms: C_28  and  N_34
   13  A    between atoms: C_45  and  C_50
                            x       y       z     vdW  Elec       q    Type
                         _______ _______ _______ _____ _____    ______ ____

>  <TORSDO>
F 13

$$$$
=
 OpenBabel11072410033D

 55 61  0  0  1  0  0  0  0  0999 V2000
  161.4550  210.4790  155.6300 C   0  0  0  0  0  0  0  0  0  0  0  0
  161.6070  208.1390  156.1140 O   0  0  0  0  0  0  0  0  0  0  0  0
  161.5390  209.0890  155.2780 C   0  0  0  0  0  0  0  0  0  0  0  0
  161.2540  211.2700  154.3820 C   0  0  1  0  0  3  0  0  0  0  0  0
  161.4680  208.9100  153.8710 N   0  0  0  0  0  0  0  0  0  0  0  0
  161.4690  210.2350  153.2530 C   0  0  0  0  0  2  0  0  0  0  0  0
  161.9080  210.9960  156.7690 C   0  0  0  0  0  2  0  0  0  0  0  0
  162.0400  206.0430  151.7680 C   0  0  0  0  0  0  0  0  0  0  0  0
  161.5200  204.9020  152.6030 C   0  0  0  0  0  2  0  0  0  0  0  0
  163.5260  206.8750  150.1090 C   0  0  0  0  0  2  0  0  0  0  0  0
  160.7010  206.6020  154.2050 C   0  0  0  0  0  2  0  0  0  0  0  0
  160.5340  207.7430  150.6920 C   0  0  0  0  0  2  0  0  0  0  0  0
  162.1730  208.6000  148.9090 C   0  0  0  0  0  2  0  0  0  0  0  0
  160.7970  207.7800  153.2250 C   0  0  2  0  0  3  0  0  0  0  0  0
  161.4570  207.4380  151.8710 C   0  0  1  0  0  3  0  0  0  0  0  0
  160.3490  205.3200  153.4770 C   0  0  0  0  0  2  0  0  0  0  0  0
  161.1410  207.5480  149.2870 C   0  0  1  0  0  0  0  0  0  0  0  0
  162.5820  207.1360  148.9400 C   0  0  2  0  0  3  0  0  0  0  0  0
  163.0020  205.8200  150.9450 N   0  0  0  0  0  0  0  0  0  0  0  0
  160.2290  207.1900  148.2470 O   0  0  0  0  0  0  0  0  0  0  0  0
  160.9270  201.0140  146.9960 C   0  0  1  0  0  3  0  0  0  0  0  0
  160.8700  199.6380  146.3640 C   0  0  0  0  0  1  0  0  0  0  0  0
  161.9130  203.2380  148.8060 C   0  0  0  0  0  2  0  0  0  0  0  0
  161.8100  200.9850  148.0750 O   0  0  0  0  0  0  0  0  0  0  0  0
  161.2690  205.5300  145.0560 C   0  0  0  0  0  0  0  0  0  0  0  0
  161.3890  203.9830  147.5750 C   0  0  1  0  0  3  0  0  0  0  0  0
  160.9060  206.4210  146.1370 N   0  0  0  0  0  0  0  0  0  0  0  0
  161.3360  204.0890  145.1600 N   0  0  0  0  0  0  0  0  0  0  0  0
  161.3730  201.9550  146.0290 O   0  0  0  0  0  0  0  0  0  0  0  0
  161.3850  203.3420  146.2220 C   0  0  0  0  0  0  0  0  0  0  0  0
  160.4300  206.1620  147.3220 C   0  0  0  0  0  0  0  0  0  0  0  0
  161.2700  201.8780  148.9980 C   0  0  0  0  0  2  0  0  0  0  0  0
  161.5680  206.0580  143.9140 N   0  0  0  0  0  2  0  0  0  0  0  0
  160.1290  204.7800  147.7770 C   0  0  0  0  0  2  0  0  0  0  0  0
  159.9330  211.7360  154.3200 O   0  0  0  0  0  0  0  0  0  0  0  0
  157.9830  213.6850  156.0170 C   0  0  0  0  0  0  0  0  0  0  0  0
  159.9420  213.0310  154.8620 C   0  0  1  0  0  3  0  0  0  0  0  0
  159.0410  213.9280  154.0570 C   0  0  0  0  0  0  0  0  0  0  0  0
  157.9320  214.2610  154.6870 C   0  0  0  0  0  3  0  0  0  0  0  0
  157.0150  213.7400  156.9270 C   0  0  0  0  0  3  0  0  0  0  0  0
  159.2670  212.9820  156.2380 C   0  0  0  0  0  2  0  0  0  0  0  0
  159.3020  214.3910  152.7330 N   0  0  0  0  0  2  0  0  0  0  0  0
  158.1130  212.3080  151.5400 O   0  0  0  0  0  0  0  0  0  0  0  0
  158.1200  214.4520  150.3730 O   0  0  0  0  0  0  0  0  0  0  0  0
  158.9230  213.5410  151.2630 S   0  0  0  0  0  0  0  0  0  0  0  0
  160.4260  213.0780  150.4130 C   0  0  0  0  0  2  0  0  0  0  0  0
  160.4450  213.4730  148.9720 C   0  0  0  0  0  0  0  0  0  0  0  0
  159.6760  212.8060  148.0240 O   0  0  0  0  0  0  0  0  0  0  0  0
  161.1520  214.4530  148.6140 O   0  0  0  0  0  1  0  0  0  0  0  0
  155.7200  214.4510  156.6870 C   0  0  0  0  0  2  0  0  0  0  0  0
  154.8100  213.5720  155.9640 N   0  0  0  0  0  0  0  0  0  0  0  0
  154.6260  214.1300  154.6230 C   0  0  0  0  0  2  0  0  0  0  0  0
  154.9890  213.0970  153.5700 C   0  0  0  0  0  1  0  0  0  0  0  0
  155.1060  211.4380  156.9650 O   0  0  0  0  0  1  0  0  0  0  0  0
  155.4160  212.2390  155.8610 C   0  0  0  0  0  2  0  0  0  0  0  0
  1  7  2  0  0  0  0
  3  1  1  0  0  0  0
  3  2  2  0  0  0  0
  4 35  1  1  0  0  0
  4  1  1  0  0  0  0
  5  3  1  0  0  0  0
  6  5  1  0  0  0  0
  6  4  1  0  0  0  0
  8 15  1  0  0  0  0
  8  9  1  0  0  0  0
  9 16  1  0  0  0  0
 10 19  1  0  0  0  0
 13 17  1  0  0  0  0
 14  5  1  1  0  0  0
 14 11  1  0  0  0  0
 15 12  1  6  0  0  0
 15 14  1  0  0  0  0
 16 11  1  0  0  0  0
 17 20  1  6  0  0  0
 17 12  1  0  0  0  0
 18 13  1  6  0  0  0
 18 17  1  0  0  0  0
 18 10  1  0  0  0  0
 19  8  2  0  0  0  0
 21 22  1  6  0  0  0
 21 24  1  0  0  0  0
 23 32  1  0  0  0  0
 24 32  1  0  0  0  0
 25 28  1  0  0  0  0
 25 27  1  0  0  0  0
 26 34  1  1  0  0  0
 26 23  1  0  0  0  0
 27 31  2  0  0  0  0
 28 30  2  0  0  0  0
 29 30  1  0  0  0  0
 29 21  1  0  0  0  0
 30 26  1  0  0  0  0
 31 34  1  0  0  0  0
 31 20  1  0  0  0  0
 33 25  2  0  0  0  0
 36 41  1  0  0  0  0
 36 40  2  0  0  0  0
 37 35  1  6  0  0  0
 37 41  1  0  0  0  0
 38 39  2  0  0  0  0
 38 37  1  0  0  0  0
 39 36  1  0  0  0  0
 42 38  1  0  0  0  0
 44 45  2  0  0  0  0
 45 43  2  0  0  0  0
 45 42  1  0  0  0  0
 46 45  1  0  0  0  0
 47 46  1  0  0  0  0
 48 47  2  0  0  0  0
 49 47  1  0  0  0  0
 50 40  1  0  0  0  0
 51 50  1  0  0  0  0
 52 51  1  0  0  0  0
 53 52  1  0  0  0  0
 55 51  1  0  0  0  0
 55 54  1  0  0  0  0
M  END
>  <MODEL>
2

>  <REMARK>
 VINA RESULT:      -2.6      4.821      9.178
  Name = 
  13 active torsions:
  status: ('A' for Active; 'I' for Inactive)
    1  A    between atoms: C_4  and  C_23
    2  A    between atoms: C_4  and  S_31
    3  A    between atoms: O_7  and  C_8
    4  A    between atoms: O_7  and  C_29
    5  A    between atoms: C_9  and  N_27
    6  A    between atoms: C_11  and  N_18
    7  A    between atoms: N_18  and  S_31
    8  A    between atoms: O_22  and  C_42
    9  A    between atoms: O_22  and  C_43
   10  A    between atoms: N_27  and  C_50
   11  A    between atoms: N_27  and  C_53
   12  A    between atoms: C_28  and  N_34
   13  A    between atoms: C_45  and  C_50
                            x       y       z     vdW  Elec       q    Type
                         _______ _______ _______ _____ _____    ______ ____

>  <TORSDO>
F 13

$$$$
=
 OpenBabel11072410033D

 55 61  0  0  1  0  0  0  0  0999 V2000
  161.8010  204.7140  151.9190 C   0  0  0  0  0  0  0  0  0  0  0  0
  163.3100  206.4990  152.4420 O   0  0  0  0  0  0  0  0  0  0  0  0
  162.1300  206.0520  152.3280 C   0  0  0  0  0  0  0  0  0  0  0  0
  160.3200  204.6150  151.7760 C   0  0  1  0  0  3  0  0  0  0  0  0
  160.9590  206.8310  152.5240 N   0  0  0  0  0  0  0  0  0  0  0  0
  159.8050  205.9470  152.3680 C   0  0  0  0  0  2  0  0  0  0  0  0
  162.6030  203.6630  152.0720 C   0  0  0  0  0  2  0  0  0  0  0  0
  162.2380  210.0780  153.4150 C   0  0  0  0  0  0  0  0  0  0  0  0
  162.7960  210.5900  152.1120 C   0  0  0  0  0  2  0  0  0  0  0  0
  162.2730  210.0130  155.7920 C   0  0  0  0  0  2  0  0  0  0  0  0
  161.8090  208.5900  151.0380 C   0  0  0  0  0  2  0  0  0  0  0  0
  159.7720  209.8600  153.8500 C   0  0  0  0  0  2  0  0  0  0  0  0
  159.8630  209.8060  156.4170 C   0  0  0  0  0  2  0  0  0  0  0  0
  160.8640  208.2560  152.2000 C   0  0  2  0  0  3  0  0  0  0  0  0
  161.0560  209.1290  153.4580 C   0  0  1  0  0  3  0  0  0  0  0  0
  162.0060  210.0880  150.9150 C   0  0  0  0  0  2  0  0  0  0  0  0
  159.8250  210.6680  155.1640 C   0  0  1  0  0  0  0  0  0  0  0  0
  161.0020  210.7770  156.1480 C   0  0  2  0  0  3  0  0  0  0  0  0
  162.7800  210.4610  154.5150 N   0  0  0  0  0  0  0  0  0  0  0  0
  158.9730  211.8120  155.2380 O   0  0  0  0  0  0  0  0  0  0  0  0
  158.1760  213.3420  149.1360 C   0  0  1  0  0  3  0  0  0  0  0  0
  157.6170  213.5310  147.7410 C   0  0  0  0  0  1  0  0  0  0  0  0
  159.9950  213.7890  151.5210 C   0  0  0  0  0  2  0  0  0  0  0  0
  159.3780  214.0400  149.2450 O   0  0  0  0  0  0  0  0  0  0  0  0
  156.0730  213.5160  153.5890 C   0  0  0  0  0  0  0  0  0  0  0  0
  158.6600  213.3930  152.1580 C   0  0  1  0  0  3  0  0  0  0  0  0
  157.0360  212.8940  154.4730 N   0  0  0  0  0  0  0  0  0  0  0  0
  156.2640  213.7160  152.1700 N   0  0  0  0  0  0  0  0  0  0  0  0
  157.2400  213.8360  150.0860 O   0  0  0  0  0  0  0  0  0  0  0  0
  157.3590  213.6730  151.4720 C   0  0  0  0  0  0  0  0  0  0  0  0
  158.1460  212.2650  154.2060 C   0  0  0  0  0  0  0  0  0  0  0  0
  160.1570  213.2690  150.1060 C   0  0  0  0  0  2  0  0  0  0  0  0
  154.9660  213.9370  154.1060 N   0  0  0  0  0  2  0  0  0  0  0  0
  158.6220  212.0410  152.8160 C   0  0  0  0  0  2  0  0  0  0  0  0
  159.9760  204.5640  150.4170 O   0  0  0  0  0  0  0  0  0  0  0  0
  160.6940  205.8780  147.5470 C   0  0  0  0  0  0  0  0  0  0  0  0
  161.1060  204.9950  149.7040 C   0  0  1  0  0  3  0  0  0  0  0  0
  161.4070  204.0280  148.5910 C   0  0  0  0  0  0  0  0  0  0  0  0
  161.1420  204.5070  147.3920 C   0  0  0  0  0  3  0  0  0  0  0  0
  160.2660  206.6730  146.5710 C   0  0  0  0  0  3  0  0  0  0  0  0
  160.7450  206.2910  148.9680 C   0  0  0  0  0  2  0  0  0  0  0  0
  161.9160  202.7050  148.7580 N   0  0  0  0  0  2  0  0  0  0  0  0
  161.0210  200.8590  150.4800 O   0  0  0  0  0  0  0  0  0  0  0  0
  159.5330  201.5710  148.6810 O   0  0  0  0  0  0  0  0  0  0  0  0
  160.9650  201.2760  149.0390 S   0  0  0  0  0  0  0  0  0  0  0  0
  161.5540  199.9330  148.0150 C   0  0  0  0  0  2  0  0  0  0  0  0
  161.2070  200.0850  146.5700 C   0  0  0  0  0  0  0  0  0  0  0  0
  161.1780  198.9930  145.7090 O   0  0  0  0  0  0  0  0  0  0  0  0
  160.9040  201.2260  146.1280 O   0  0  0  0  0  1  0  0  0  0  0  0
  160.2170  206.2390  145.1400 C   0  0  0  0  0  2  0  0  0  0  0  0
  161.0340  205.0450  144.9650 N   0  0  0  0  0  0  0  0  0  0  0  0
  160.4650  204.2760  143.8570 C   0  0  0  0  0  2  0  0  0  0  0  0
  159.2880  203.4480  144.3430 C   0  0  0  0  0  1  0  0  0  0  0  0
  163.3550  204.6030  145.2080 O   0  0  0  0  0  1  0  0  0  0  0  0
  162.4030  205.4490  144.6280 C   0  0  0  0  0  2  0  0  0  0  0  0
  1  7  2  0  0  0  0
  1  3  1  0  0  0  0
  3  2  2  0  0  0  0
  3  5  1  0  0  0  0
  4 35  1  6  0  0  0
  4  1  1  0  0  0  0
  4  6  1  0  0  0  0
  6  5  1  0  0  0  0
  8 15  1  0  0  0  0
  8 19  2  0  0  0  0
  9  8  1  0  0  0  0
 12 17  1  0  0  0  0
 14 11  1  6  0  0  0
 14  5  1  0  0  0  0
 14 15  1  0  0  0  0
 15 12  1  6  0  0  0
 16 11  1  0  0  0  0
 16  9  1  0  0  0  0
 17 20  1  1  0  0  0
 17 18  1  0  0  0  0
 17 13  1  0  0  0  0
 18 10  1  6  0  0  0
 18 13  1  0  0  0  0
 19 10  1  0  0  0  0
 21 22  1  6  0  0  0
 21 24  1  0  0  0  0
 21 29  1  0  0  0  0
 24 32  1  0  0  0  0
 25 33  2  0  0  0  0
 25 27  1  0  0  0  0
 26 23  1  6  0  0  0
 26 34  1  0  0  0  0
 28 25  1  0  0  0  0
 29 30  1  0  0  0  0
 30 26  1  0  0  0  0
 30 28  2  0  0  0  0
 31 27  2  0  0  0  0
 31 20  1  0  0  0  0
 32 23  1  0  0  0  0
 34 31  1  0  0  0  0
 36 41  1  0  0  0  0
 37 35  1  6  0  0  0
 38 42  1  0  0  0  0
 38 37  1  0  0  0  0
 39 36  1  0  0  0  0
 39 38  2  0  0  0  0
 40 36  2  0  0  0  0
 41 37  1  0  0  0  0
 42 45  1  0  0  0  0
 44 45  2  0  0  0  0
 45 43  2  0  0  0  0
 46 45  1  0  0  0  0
 47 46  1  0  0  0  0
 48 47  2  0  0  0  0
 49 47  1  0  0  0  0
 50 40  1  0  0  0  0
 51 50  1  0  0  0  0
 52 53  1  0  0  0  0
 52 51  1  0  0  0  0
 55 51  1  0  0  0  0
 55 54  1  0  0  0  0
M  END
>  <MODEL>
3

>  <REMARK>
 VINA RESULT:      -2.6      5.066      9.314
  Name = 
  13 active torsions:
  status: ('A' for Active; 'I' for Inactive)
    1  A    between atoms: C_4  and  C_23
    2  A    between atoms: C_4  and  S_31
    3  A    between atoms: O_7  and  C_8
    4  A    between atoms: O_7  and  C_29
    5  A    between atoms: C_9  and  N_27
    6  A    between atoms: C_11  and  N_18
    7  A    between atoms: N_18  and  S_31
    8  A    between atoms: O_22  and  C_42
    9  A    between atoms: O_22  and  C_43
   10  A    between atoms: N_27  and  C_50
   11  A    between atoms: N_27  and  C_53
   12  A    between atoms: C_28  and  N_34
   13  A    between atoms: C_45  and  C_50
                            x       y       z     vdW  Elec       q    Type
                         _______ _______ _______ _____ _____    ______ ____

>  <TORSDO>
F 13

$$$$
=
 OpenBabel11072410033D

 55 61  0  0  1  0  0  0  0  0999 V2000
  161.4950  208.9340  149.3820 C   0  0  0  0  0  0  0  0  0  0  0  0
  160.7100  209.9510  147.3610 O   0  0  0  0  0  0  0  0  0  0  0  0
  161.4750  209.9550  148.3700 C   0  0  0  0  0  0  0  0  0  0  0  0
  162.4270  209.3610  150.4650 C   0  0  1  0  0  3  0  0  0  0  0  0
  162.3800  211.0030  148.6820 N   0  0  0  0  0  0  0  0  0  0  0  0
  163.1260  210.6080  149.8760 C   0  0  0  0  0  2  0  0  0  0  0  0
  161.1140  207.6740  149.1870 C   0  0  0  0  0  2  0  0  0  0  0  0
  159.9520  213.2560  147.2670 C   0  0  0  0  0  0  0  0  0  0  0  0
  159.6900  214.2220  148.3940 C   0  0  0  0  0  2  0  0  0  0  0  0
  159.2130  212.1040  145.3220 C   0  0  0  0  0  2  0  0  0  0  0  0
  161.5250  213.1030  149.6220 C   0  0  0  0  0  2  0  0  0  0  0  0
  162.1070  213.2230  145.9730 C   0  0  0  0  0  2  0  0  0  0  0  0
  161.2560  211.9870  143.8880 C   0  0  0  0  0  2  0  0  0  0  0  0
  162.1250  212.4150  148.3880 C   0  0  2  0  0  3  0  0  0  0  0  0
  161.2970  212.5760  147.0950 C   0  0  1  0  0  3  0  0  0  0  0  0
  160.9230  214.4450  149.2540 C   0  0  0  0  0  2  0  0  0  0  0  0
  161.4080  213.3220  144.6010 C   0  0  1  0  0  0  0  0  0  0  0  0
  160.0130  212.7950  144.2220 C   0  0  2  0  0  3  0  0  0  0  0  0
  159.0090  213.0090  146.4300 N   0  0  0  0  0  0  0  0  0  0  0  0
  161.7990  214.4150  143.7680 O   0  0  0  0  0  0  0  0  0  0  0  0
  158.5030  213.6020  138.4120 C   0  0  1  0  0  3  0  0  0  0  0  0
  157.9440  213.7300  137.0110 C   0  0  0  0  0  1  0  0  0  0  0  0
  159.1350  212.3050  141.0800 C   0  0  0  0  0  2  0  0  0  0  0  0
  158.0160  212.4320  138.9940 O   0  0  0  0  0  0  0  0  0  0  0  0
  163.0330  214.2620  140.2360 C   0  0  0  0  0  0  0  0  0  0  0  0
  160.3240  213.2430  140.8470 C   0  0  1  0  0  3  0  0  0  0  0  0
  162.8420  214.3520  141.6680 N   0  0  0  0  0  0  0  0  0  0  0  0
  161.9770  214.0410  139.2730 N   0  0  0  0  0  0  0  0  0  0  0  0
  159.9230  213.5560  138.3480 O   0  0  0  0  0  0  0  0  0  0  0  0
  160.7680  213.6050  139.4640 C   0  0  0  0  0  0  0  0  0  0  0  0
  161.7470  214.4180  142.3710 C   0  0  0  0  0  0  0  0  0  0  0  0
  157.8810  212.7390  140.3460 C   0  0  0  0  0  2  0  0  0  0  0  0
  164.2380  214.3730  139.7810 N   0  0  0  0  0  2  0  0  0  0  0  0
  160.3980  214.4450  141.7490 C   0  0  0  0  0  2  0  0  0  0  0  0
  161.6960  209.7470  151.5970 O   0  0  0  0  0  0  0  0  0  0  0  0
  161.9700  206.5810  152.2130 C   0  0  0  0  0  0  0  0  0  0  0  0
  162.1060  208.9040  152.6420 C   0  0  1  0  0  3  0  0  0  0  0  0
  160.9070  208.2470  153.2690 C   0  0  0  0  0  0  0  0  0  0  0  0
  160.8120  206.9600  152.9990 C   0  0  0  0  0  3  0  0  0  0  0  0
  162.1960  205.3800  151.6880 C   0  0  0  0  0  3  0  0  0  0  0  0
  162.8860  207.7310  152.0360 C   0  0  0  0  0  2  0  0  0  0  0  0
  159.9280  208.9030  154.0730 N   0  0  0  0  0  2  0  0  0  0  0  0
  160.7420  211.4140  154.5280 O   0  0  0  0  0  0  0  0  0  0  0  0
  159.2440  211.0140  152.6430 O   0  0  0  0  0  0  0  0  0  0  0  0
  159.5690  210.6050  154.0550 S   0  0  0  0  0  0  0  0  0  0  0  0
  158.1580  210.9490  155.0980 C   0  0  0  0  0  2  0  0  0  0  0  0
  157.5850  212.3150  154.8980 C   0  0  0  0  0  0  0  0  0  0  0  0
  157.7960  213.3350  155.8200 O   0  0  0  0  0  1  0  0  0  0  0  0
  156.9210  212.5550  153.8540 O   0  0  0  0  0  0  0  0  0  0  0  0
  161.2590  204.2290  151.8730 C   0  0  0  0  0  2  0  0  0  0  0  0
  161.2930  203.3800  150.6880 N   0  0  0  0  0  0  0  0  0  0  0  0
  160.4210  202.2310  150.9410 C   0  0  0  0  0  2  0  0  0  0  0  0
  160.5520  201.2170  149.8180 C   0  0  0  0  0  1  0  0  0  0  0  0
  161.5900  203.9870  148.4110 O   0  0  0  0  0  1  0  0  0  0  0  0
  160.7810  204.1400  149.5420 C   0  0  0  0  0  2  0  0  0  0  0  0
  1  4  1  0  0  0  0
  2  3  2  0  0  0  0
  3  5  1  0  0  0  0
  3  1  1  0  0  0  0
  4 35  1  1  0  0  0
  5  6  1  0  0  0  0
  6  4  1  0  0  0  0
  7  1  2  0  0  0  0
  8  9  1  0  0  0  0
  9 16  1  0  0  0  0
 10 19  1  0  0  0  0
 13 17  1  0  0  0  0
 14  5  1  1  0  0  0
 14 11  1  0  0  0  0
 15 12  1  6  0  0  0
 15  8  1  0  0  0  0
 15 14  1  0  0  0  0
 16 11  1  0  0  0  0
 17 20  1  6  0  0  0
 17 12  1  0  0  0  0
 18 13  1  6  0  0  0
 18 17  1  0  0  0  0
 18 10  1  0  0  0  0
 19  8  2  0  0  0  0
 21 22  1  6  0  0  0
 21 24  1  0  0  0  0
 24 32  1  0  0  0  0
 25 27  1  0  0  0  0
 26 23  1  6  0  0  0
 26 34  1  0  0  0  0
 27 31  2  0  0  0  0
 28 30  2  0  0  0  0
 28 25  1  0  0  0  0
 29 21  1  0  0  0  0
 29 30  1  0  0  0  0
 30 26  1  0  0  0  0
 31 20  1  0  0  0  0
 32 23  1  0  0  0  0
 33 25  2  0  0  0  0
 34 31  1  0  0  0  0
 36 39  1  0  0  0  0
 37 35  1  6  0  0  0
 37 38  1  0  0  0  0
 38 42  1  0  0  0  0
 39 38  2  0  0  0  0
 40 50  1  0  0  0  0
 40 36  2  0  0  0  0
 41 36  1  0  0  0  0
 41 37  1  0  0  0  0
 44 45  2  0  0  0  0
 45 42  1  0  0  0  0
 45 43  2  0  0  0  0
 45 46  1  0  0  0  0
 47 46  1  0  0  0  0
 47 48  1  0  0  0  0
 49 47  2  0  0  0  0
 51 52  1  0  0  0  0
 51 50  1  0  0  0  0
 53 52  1  0  0  0  0
 54 55  1  0  0  0  0
 55 51  1  0  0  0  0
M  END
>  <MODEL>
4

>  <REMARK>
 VINA RESULT:      -2.4      2.260      3.195
  Name = 
  13 active torsions:
  status: ('A' for Active; 'I' for Inactive)
    1  A    between atoms: C_4  and  C_23
    2  A    between atoms: C_4  and  S_31
    3  A    between atoms: O_7  and  C_8
    4  A    between atoms: O_7  and  C_29
    5  A    between atoms: C_9  and  N_27
    6  A    between atoms: C_11  and  N_18
    7  A    between atoms: N_18  and  S_31
    8  A    between atoms: O_22  and  C_42
    9  A    between atoms: O_22  and  C_43
   10  A    between atoms: N_27  and  C_50
   11  A    between atoms: N_27  and  C_53
   12  A    between atoms: C_28  and  N_34
   13  A    between atoms: C_45  and  C_50
                            x       y       z     vdW  Elec       q    Type
                         _______ _______ _______ _____ _____    ______ ____

>  <TORSDO>
F 13

$$$$
=
 OpenBabel11072410033D

 55 61  0  0  1  0  0  0  0  0999 V2000
  161.5570  205.0650  152.4800 C   0  0  0  0  0  0  0  0  0  0  0  0
  162.2990  206.7190  154.0450 O   0  0  0  0  0  0  0  0  0  0  0  0
  161.5620  206.3740  153.0740 C   0  0  0  0  0  0  0  0  0  0  0  0
  160.6620  205.0920  151.2880 C   0  0  1  0  0  3  0  0  0  0  0  0
  160.6810  207.2510  152.3890 N   0  0  0  0  0  0  0  0  0  0  0  0
  159.9640  206.4680  151.3840 C   0  0  0  0  0  2  0  0  0  0  0  0
  161.9150  203.9510  153.1130 C   0  0  0  0  0  2  0  0  0  0  0  0
  161.9350  210.2120  154.0120 C   0  0  0  0  0  0  0  0  0  0  0  0
  163.0620  210.6410  153.1080 C   0  0  0  0  0  2  0  0  0  0  0  0
  160.9500  210.1040  156.1740 C   0  0  0  0  0  2  0  0  0  0  0  0
  162.3340  208.8600  151.5510 C   0  0  0  0  0  2  0  0  0  0  0  0
  159.5150  210.4180  153.3650 C   0  0  0  0  0  2  0  0  0  0  0  0
  158.5000  210.3080  155.7230 C   0  0  0  0  0  2  0  0  0  0  0  0
  160.9470  208.6760  152.1810 C   0  0  2  0  0  3  0  0  0  0  0  0
  160.7170  209.4820  153.4780 C   0  0  1  0  0  3  0  0  0  0  0  0
  162.7880  210.3030  151.6530 C   0  0  0  0  0  2  0  0  0  0  0  0
  159.1270  211.1830  154.6470 C   0  0  1  0  0  0  0  0  0  0  0  0
  159.7780  211.0710  156.0370 C   0  0  2  0  0  3  0  0  0  0  0  0
  162.0110  210.4770  155.2670 N   0  0  0  0  0  0  0  0  0  0  0  0
  158.5070  212.4570  154.4620 O   0  0  0  0  0  0  0  0  0  0  0  0
  158.3340  213.6510  148.2370 C   0  0  1  0  0  3  0  0  0  0  0  0
  157.9220  213.7560  146.7840 C   0  0  0  0  0  1  0  0  0  0  0  0
  159.8900  214.2520  150.7690 C   0  0  0  0  0  2  0  0  0  0  0  0
  159.5110  214.3730  148.4320 O   0  0  0  0  0  0  0  0  0  0  0  0
  155.7770  214.0240  152.4320 C   0  0  0  0  0  0  0  0  0  0  0  0
  158.5000  213.8680  151.2850 C   0  0  1  0  0  3  0  0  0  0  0  0
  156.6490  213.4660  153.4440 N   0  0  0  0  0  0  0  0  0  0  0  0
  156.1120  214.1520  151.0320 N   0  0  0  0  0  0  0  0  0  0  0  0
  157.2990  214.1780  149.0570 O   0  0  0  0  0  0  0  0  0  0  0  0
  157.2740  214.0900  150.4540 C   0  0  0  0  0  0  0  0  0  0  0  0
  157.7870  212.8410  153.3270 C   0  0  0  0  0  0  0  0  0  0  0  0
  160.2040  213.6610  149.4090 C   0  0  0  0  0  2  0  0  0  0  0  0
  154.6170  214.4530  152.8080 N   0  0  0  0  0  2  0  0  0  0  0  0
  158.4080  212.5520  152.0080 C   0  0  0  0  0  2  0  0  0  0  0  0
  161.4300  205.0570  150.1160 O   0  0  0  0  0  0  0  0  0  0  0  0
  161.0520  202.2420  148.5630 C   0  0  0  0  0  0  0  0  0  0  0  0
  160.6120  204.4990  149.1200 C   0  0  1  0  0  3  0  0  0  0  0  0
  161.3970  204.3360  147.8470 C   0  0  0  0  0  0  0  0  0  0  0  0
  161.6730  203.0800  147.5570 C   0  0  0  0  0  3  0  0  0  0  0  0
  161.1640  200.9200  148.6530 C   0  0  0  0  0  3  0  0  0  0  0  0
  160.2770  203.0590  149.5240 C   0  0  0  0  0  2  0  0  0  0  0  0
  161.8380  205.4000  147.0040 N   0  0  0  0  0  2  0  0  0  0  0  0
  163.0110  206.5520  144.8900 O   0  0  0  0  0  0  0  0  0  0  0  0
  163.8870  204.4100  145.6650 O   0  0  0  0  0  0  0  0  0  0  0  0
  162.6330  205.2190  145.4680 S   0  0  0  0  0  0  0  0  0  0  0  0
  161.5660  204.3620  144.3170 C   0  0  0  0  0  2  0  0  0  0  0  0
  160.1310  204.7650  144.4180 C   0  0  0  0  0  0  0  0  0  0  0  0
  159.1130  203.9700  143.9020 O   0  0  0  0  0  0  0  0  0  0  0  0
  159.8340  205.8370  145.0120 O   0  0  0  0  0  1  0  0  0  0  0  0
  161.9550  200.1080  147.6760 C   0  0  0  0  0  2  0  0  0  0  0  0
  161.0750  199.6310  146.6170 N   0  0  0  0  0  0  0  0  0  0  0  0
  161.0900  200.6290  145.5460 C   0  0  0  0  0  2  0  0  0  0  0  0
  159.6910  201.1760  145.3190 C   0  0  0  0  0  1  0  0  0  0  0  0
  161.0910  198.0630  144.8330 O   0  0  0  0  0  1  0  0  0  0  0  0
  161.5920  198.3570  146.1060 C   0  0  0  0  0  2  0  0  0  0  0  0
  1  3  1  0  0  0  0
  1  7  2  0  0  0  0
  3  2  2  0  0  0  0
  4 35  1  6  0  0  0
  4  6  1  0  0  0  0
  4  1  1  0  0  0  0
  5  3  1  0  0  0  0
  6  5  1  0  0  0  0
  8 19  2  0  0  0  0
  9  8  1  0  0  0  0
 11 16  1  0  0  0  0
 12 17  1  0  0  0  0
 14 11  1  1  0  0  0
 14  5  1  0  0  0  0
 14 15  1  0  0  0  0
 15 12  1  6  0  0  0
 15  8  1  0  0  0  0
 16  9  1  0  0  0  0
 17 20  1  6  0  0  0
 17 13  1  0  0  0  0
 17 18  1  0  0  0  0
 18 13  1  1  0  0  0
 18 10  1  0  0  0  0
 19 10  1  0  0  0  0
 21 22  1  6  0  0  0
 21 24  1  0  0  0  0
 21 29  1  0  0  0  0
 24 32  1  0  0  0  0
 25 33  2  0  0  0  0
 25 27  1  0  0  0  0
 26 23  1  6  0  0  0
 26 34  1  0  0  0  0
 28 25  1  0  0  0  0
 29 30  1  0  0  0  0
 30 28  2  0  0  0  0
 30 26  1  0  0  0  0
 31 27  2  0  0  0  0
 31 20  1  0  0  0  0
 32 23  1  0  0  0  0
 34 31  1  0  0  0  0
 36 40  2  0  0  0  0
 36 41  1  0  0  0  0
 37 41  1  0  0  0  0
 37 35  1  1  0  0  0
 38 37  1  0  0  0  0
 39 38  2  0  0  0  0
 39 36  1  0  0  0  0
 42 38  1  0  0  0  0
 43 45  2  0  0  0  0
 45 44  2  0  0  0  0
 45 42  1  0  0  0  0
 46 47  1  0  0  0  0
 46 45  1  0  0  0  0
 47 49  1  0  0  0  0
 48 47  2  0  0  0  0
 50 40  1  0  0  0  0
 51 50  1  0  0  0  0
 52 51  1  0  0  0  0
 53 52  1  0  0  0  0
 54 55  1  0  0  0  0
 55 51  1  0  0  0  0
M  END
>  <MODEL>
5

>  <REMARK>
 VINA RESULT:      -2.3      4.991      9.064
  Name = 
  13 active torsions:
  status: ('A' for Active; 'I' for Inactive)
    1  A    between atoms: C_4  and  C_23
    2  A    between atoms: C_4  and  S_31
    3  A    between atoms: O_7  and  C_8
    4  A    between atoms: O_7  and  C_29
    5  A    between atoms: C_9  and  N_27
    6  A    between atoms: C_11  and  N_18
    7  A    between atoms: N_18  and  S_31
    8  A    between atoms: O_22  and  C_42
    9  A    between atoms: O_22  and  C_43
   10  A    between atoms: N_27  and  C_50
   11  A    between atoms: N_27  and  C_53
   12  A    between atoms: C_28  and  N_34
   13  A    between atoms: C_45  and  C_50
                            x       y       z     vdW  Elec       q    Type
                         _______ _______ _______ _____ _____    ______ ____

>  <TORSDO>
F 13

$$$$
