=
 OpenBabel11072413473D

 29 32  0  0  1  0  0  0  0  0999 V2000
  161.5290  206.8940  152.4140 C   0  0  0  0  0  0  0  0  0  0  0  0
  160.7300  209.1700  153.8580 C   0  0  0  0  0  0  0  0  0  0  0  0
  160.7520  207.9060  154.4810 C   0  0  0  0  0  0  0  0  0  0  0  0
  161.5140  208.1520  151.7980 C   0  0  0  0  0  3  0  0  0  0  0  0
  161.1500  206.7780  153.7550 C   0  0  0  0  0  3  0  0  0  0  0  0
  161.1180  209.2820  152.5170 C   0  0  0  0  0  3  0  0  0  0  0  0
  161.2640  211.1020  155.3570 C   0  0  0  0  0  3  0  0  0  0  0  0
  162.5060  210.7530  155.4380 N   0  0  0  0  0  2  0  0  0  0  0  0
  160.3270  210.3470  154.5800 N   0  0  0  0  0  0  0  0  0  0  0  0
  157.7400  214.0200  154.9770 O   0  0  0  0  0  0  0  0  0  0  0  0
  158.0680  212.8470  155.0470 C   0  0  0  0  0  0  0  0  0  0  0  0
  158.7470  212.1280  153.9800 C   0  0  0  0  0  2  0  0  0  0  0  0
  158.4360  210.7330  155.9500 O   0  0  0  0  0  0  0  0  0  0  0  0
  157.8710  211.9950  156.2340 C   0  0  2  0  0  3  0  0  0  0  0  0
  158.9270  210.7570  154.6160 C   0  0  2  0  0  3  0  0  0  0  0  0
  156.3960  211.8600  156.6180 C   0  0  0  0  0  2  0  0  0  0  0  0
  155.6820  210.8860  155.7790 C   0  0  0  0  0  0  0  0  0  0  0  0
  155.1210  210.1190  155.1200 N   0  0  0  0  0  0  0  0  0  0  0  0
  160.3940  207.7430  155.8910 C   0  0  0  0  0  0  0  0  0  0  0  0
  160.3350  208.2450  157.1520 O   0  0  0  0  0  0  0  0  0  0  0  0
  159.8920  206.9940  156.8710 N   0  0  0  0  0  0  0  0  0  0  0  0
  161.9300  205.7220  151.6990 N   0  0  0  0  0  0  0  0  0  0  0  0
  161.2900  204.6270  151.7970 N   0  0  0  0  0  0  0  0  0  0  0  0
  161.7230  203.4560  151.0540 C   0  0  2  0  0  3  0  0  0  0  0  0
  161.4720  203.6610  149.5720 C   0  0  0  0  0  2  0  0  0  0  0  0
  160.6310  202.4040  151.0860 C   0  0  0  0  0  2  0  0  0  0  0  0
  160.3750  202.6120  149.6070 C   0  0  2  0  0  3  0  0  0  0  0  0
  160.8010  201.3750  148.8340 C   0  0  0  0  0  2  0  0  0  0  0  0
  160.6590  201.6180  147.3440 C   0  0  0  0  0  1  0  0  0  0  0  0
  1  5  1  0  0  0  0
  2  3  1  0  0  0  0
  2  9  1  0  0  0  0
  3 19  1  0  0  0  0
  4  1  2  0  0  0  0
  4  6  1  0  0  0  0
  5  3  2  0  0  0  0
  6  2  2  0  0  0  0
  7  8  2  0  0  0  0
  9  7  1  0  0  0  0
 10 11  2  0  0  0  0
 11 14  1  0  0  0  0
 12 15  1  0  0  0  0
 12 11  1  0  0  0  0
 13 14  1  0  0  0  0
 14 16  1  6  0  0  0
 15  9  1  1  0  0  0
 15 13  1  0  0  0  0
 17 16  1  0  0  0  0
 18 17  3  0  0  0  0
 19 21  2  0  0  0  0
 19 20  1  0  0  0  0
 21 20  1  0  0  0  0
 22 23  2  0  0  0  0
 22  1  1  0  0  0  0
 24 26  1  0  0  0  0
 24 23  1  1  0  0  0
 25 27  1  0  0  0  0
 25 24  1  0  0  0  0
 27 28  1  6  0  0  0
 27 26  1  0  0  0  0
 29 28  1  0  0  0  0
M  END
>  <MODEL>
1

>  <REMARK>
 VINA RESULT:      -7.0      0.000      0.000
  Name = 
  8 active torsions:
  status: ('A' for Active; 'I' for Inactive)
    1  A    between atoms: C_1  and  N_16
    2  A    between atoms: C_2  and  N_20
    3  A    between atoms: C_3  and  C_21
    4  A    between atoms: C_3  and  C_23
    5  A    between atoms: C_4  and  N_12
    6  A    between atoms: C_5  and  C_19
    7  A    between atoms: N_12  and  C_28
    8  A    between atoms: C_14  and  C_26
                            x       y       z     vdW  Elec       q    Type
                         _______ _______ _______ _____ _____    ______ ____

>  <TORSDO>
F 8

$$$$
=
 OpenBabel11072413473D

 29 32  0  0  1  0  0  0  0  0999 V2000
  160.9840  207.0230  153.9000 C   0  0  0  0  0  0  0  0  0  0  0  0
  160.0410  209.3940  155.0810 C   0  0  0  0  0  0  0  0  0  0  0  0
  160.5640  209.4120  153.7720 C   0  0  0  0  0  0  0  0  0  0  0  0
  160.4560  207.0040  155.1980 C   0  0  0  0  0  3  0  0  0  0  0  0
  161.0320  208.2280  153.1930 C   0  0  0  0  0  3  0  0  0  0  0  0
  159.9870  208.1830  155.7830 C   0  0  0  0  0  3  0  0  0  0  0  0
  160.4430  211.5510  156.2860 C   0  0  0  0  0  3  0  0  0  0  0  0
  161.7230  211.3700  156.2750 N   0  0  0  0  0  2  0  0  0  0  0  0
  159.5500  210.5950  155.7010 N   0  0  0  0  0  0  0  0  0  0  0  0
  156.2820  213.3560  154.2720 O   0  0  0  0  0  0  0  0  0  0  0  0
  156.8780  212.5810  155.0020 C   0  0  0  0  0  0  0  0  0  0  0  0
  157.5290  211.3660  154.5390 C   0  0  0  0  0  2  0  0  0  0  0  0
  157.8590  211.7100  156.9260 O   0  0  0  0  0  0  0  0  0  0  0  0
  157.0700  212.7800  156.4500 C   0  0  2  0  0  3  0  0  0  0  0  0
  158.1160  210.8320  155.8380 C   0  0  2  0  0  3  0  0  0  0  0  0
  155.7440  212.8610  157.2100 C   0  0  0  0  0  2  0  0  0  0  0  0
  155.0310  211.5760  157.2380 C   0  0  0  0  0  0  0  0  0  0  0  0
  154.4690  210.5650  157.2610 N   0  0  0  0  0  0  0  0  0  0  0  0
  160.6050  210.6440  152.9830 C   0  0  0  0  0  0  0  0  0  0  0  0
  160.4540  211.9930  152.9040 O   0  0  0  0  0  0  0  0  0  0  0  0
  160.8150  211.2600  151.8210 N   0  0  0  0  0  0  0  0  0  0  0  0
  161.4710  205.8300  153.2800 N   0  0  0  0  0  0  0  0  0  0  0  0
  161.2760  205.5910  152.0460 N   0  0  0  0  0  0  0  0  0  0  0  0
  161.7870  204.3710  151.4460 C   0  0  2  0  0  3  0  0  0  0  0  0
  161.2920  204.2490  150.0170 C   0  0  0  0  0  2  0  0  0  0  0  0
  160.9050  203.2030  151.8440 C   0  0  0  0  0  2  0  0  0  0  0  0
  160.4050  203.0840  150.4180 C   0  0  2  0  0  3  0  0  0  0  0  0
  160.9160  201.7930  149.8000 C   0  0  0  0  0  2  0  0  0  0  0  0
  160.4100  201.6610  148.3770 C   0  0  0  0  0  1  0  0  0  0  0  0
  1  4  1  0  0  0  0
  2  9  1  0  0  0  0
  2  6  1  0  0  0  0
  3  2  2  0  0  0  0
  4  6  2  0  0  0  0
  5  3  1  0  0  0  0
  5  1  2  0  0  0  0
  8  7  2  0  0  0  0
  9  7  1  0  0  0  0
 10 11  2  0  0  0  0
 11 14  1  0  0  0  0
 12 11  1  0  0  0  0
 12 15  1  0  0  0  0
 14 13  1  0  0  0  0
 14 16  1  1  0  0  0
 15  9  1  6  0  0  0
 15 13  1  0  0  0  0
 16 17  1  0  0  0  0
 17 18  3  0  0  0  0
 19  3  1  0  0  0  0
 20 19  1  0  0  0  0
 21 20  1  0  0  0  0
 21 19  2  0  0  0  0
 22  1  1  0  0  0  0
 23 22  2  0  0  0  0
 24 26  1  0  0  0  0
 24 23  1  1  0  0  0
 25 27  1  0  0  0  0
 25 24  1  0  0  0  0
 27 28  1  6  0  0  0
 27 26  1  0  0  0  0
 29 28  1  0  0  0  0
M  END
>  <MODEL>
2

>  <REMARK>
 VINA RESULT:      -6.7      1.606      2.408
  Name = 
  8 active torsions:
  status: ('A' for Active; 'I' for Inactive)
    1  A    between atoms: C_1  and  N_16
    2  A    between atoms: C_2  and  N_20
    3  A    between atoms: C_3  and  C_21
    4  A    between atoms: C_3  and  C_23
    5  A    between atoms: C_4  and  N_12
    6  A    between atoms: C_5  and  C_19
    7  A    between atoms: N_12  and  C_28
    8  A    between atoms: C_14  and  C_26
                            x       y       z     vdW  Elec       q    Type
                         _______ _______ _______ _____ _____    ______ ____

>  <TORSDO>
F 8

$$$$
=
 OpenBabel11072413473D

 29 32  0  0  1  0  0  0  0  0999 V2000
  161.9750  208.3330  150.7270 C   0  0  0  0  0  0  0  0  0  0  0  0
  161.0500  209.7640  152.9630 C   0  0  0  0  0  0  0  0  0  0  0  0
  161.1940  208.3640  153.0260 C   0  0  0  0  0  0  0  0  0  0  0  0
  161.8390  209.7270  150.6660 C   0  0  0  0  0  3  0  0  0  0  0  0
  161.6540  207.6600  151.9090 C   0  0  0  0  0  3  0  0  0  0  0  0
  161.3800  210.4360  151.7790 C   0  0  0  0  0  3  0  0  0  0  0  0
  161.4790  210.9520  155.1240 C   0  0  0  0  0  3  0  0  0  0  0  0
  162.7430  210.6880  155.0700 N   0  0  0  0  0  2  0  0  0  0  0  0
  160.5820  210.5160  154.0960 N   0  0  0  0  0  0  0  0  0  0  0  0
  157.6400  213.9170  154.4500 O   0  0  0  0  0  0  0  0  0  0  0  0
  158.1130  212.8020  154.6000 C   0  0  0  0  0  0  0  0  0  0  0  0
  158.7360  212.0340  153.5330 C   0  0  0  0  0  2  0  0  0  0  0  0
  158.8430  210.8650  155.6640 O   0  0  0  0  0  0  0  0  0  0  0  0
  158.1700  212.0860  155.8860 C   0  0  2  0  0  3  0  0  0  0  0  0
  159.1580  210.7780  154.2810 C   0  0  2  0  0  3  0  0  0  0  0  0
  156.7800  211.8430  156.4820 C   0  0  0  0  0  2  0  0  0  0  0  0
  155.9380  211.0010  155.6210 C   0  0  0  0  0  0  0  0  0  0  0  0
  155.2740  210.3390  154.9420 N   0  0  0  0  0  0  0  0  0  0  0  0
  160.9000  207.6210  154.2530 C   0  0  0  0  0  0  0  0  0  0  0  0
  161.0670  207.4510  155.5910 O   0  0  0  0  0  0  0  0  0  0  0  0
  160.2770  206.6180  154.8690 N   0  0  0  0  0  0  0  0  0  0  0  0
  162.4420  207.5840  149.6020 N   0  0  0  0  0  0  0  0  0  0  0  0
  161.7170  207.4030  148.5720 N   0  0  0  0  0  0  0  0  0  0  0  0
  162.2240  206.6400  147.4440 C   0  0  2  0  0  3  0  0  0  0  0  0
  161.0830  206.2770  146.5110 C   0  0  0  0  0  2  0  0  0  0  0  0
  162.3560  205.1810  147.8380 C   0  0  0  0  0  2  0  0  0  0  0  0
  161.2130  204.8180  146.9110 C   0  0  2  0  0  3  0  0  0  0  0  0
  161.7390  203.9950  145.7470 C   0  0  0  0  0  2  0  0  0  0  0  0
  160.9320  202.7190  145.6040 C   0  0  0  0  0  1  0  0  0  0  0  0
  1  5  1  0  0  0  0
  2  3  1  0  0  0  0
  2  9  1  0  0  0  0
  3 19  1  0  0  0  0
  4  1  2  0  0  0  0
  4  6  1  0  0  0  0
  5  3  2  0  0  0  0
  6  2  2  0  0  0  0
  8  7  2  0  0  0  0
  9  7  1  0  0  0  0
 10 11  2  0  0  0  0
 11 14  1  0  0  0  0
 12 15  1  0  0  0  0
 12 11  1  0  0  0  0
 13 14  1  0  0  0  0
 14 16  1  6  0  0  0
 15  9  1  1  0  0  0
 15 13  1  0  0  0  0
 17 16  1  0  0  0  0
 18 17  3  0  0  0  0
 19 21  2  0  0  0  0
 19 20  1  0  0  0  0
 21 20  1  0  0  0  0
 22  1  1  0  0  0  0
 23 22  2  0  0  0  0
 24 26  1  0  0  0  0
 24 23  1  1  0  0  0
 25 27  1  0  0  0  0
 25 24  1  0  0  0  0
 27 28  1  6  0  0  0
 27 26  1  0  0  0  0
 29 28  1  0  0  0  0
M  END
>  <MODEL>
3

>  <REMARK>
 VINA RESULT:      -6.7      1.950      2.306
  Name = 
  8 active torsions:
  status: ('A' for Active; 'I' for Inactive)
    1  A    between atoms: C_1  and  N_16
    2  A    between atoms: C_2  and  N_20
    3  A    between atoms: C_3  and  C_21
    4  A    between atoms: C_3  and  C_23
    5  A    between atoms: C_4  and  N_12
    6  A    between atoms: C_5  and  C_19
    7  A    between atoms: N_12  and  C_28
    8  A    between atoms: C_14  and  C_26
                            x       y       z     vdW  Elec       q    Type
                         _______ _______ _______ _____ _____    ______ ____

>  <TORSDO>
F 8

$$$$
=
 OpenBabel11072413473D

 29 32  0  0  1  0  0  0  0  0999 V2000
  161.1980  207.6760  152.1030 C   0  0  0  0  0  0  0  0  0  0  0  0
  160.5660  209.5560  154.0950 C   0  0  0  0  0  0  0  0  0  0  0  0
  160.7080  208.1930  154.4250 C   0  0  0  0  0  0  0  0  0  0  0  0
  161.0640  209.0330  151.7770 C   0  0  0  0  0  3  0  0  0  0  0  0
  161.0210  207.2650  153.4270 C   0  0  0  0  0  3  0  0  0  0  0  0
  160.7520  209.9650  152.7680 C   0  0  0  0  0  3  0  0  0  0  0  0
  161.2690  211.1560  155.8880 C   0  0  0  0  0  3  0  0  0  0  0  0
  162.5170  210.8610  155.7240 N   0  0  0  0  0  2  0  0  0  0  0  0
  160.2470  210.5340  155.0990 N   0  0  0  0  0  0  0  0  0  0  0  0
  157.1090  213.6900  154.3620 O   0  0  0  0  0  0  0  0  0  0  0  0
  157.7020  212.7850  154.9270 C   0  0  0  0  0  0  0  0  0  0  0  0
  158.2000  211.5950  154.2550 C   0  0  0  0  0  2  0  0  0  0  0  0
  158.7800  211.6040  156.6190 O   0  0  0  0  0  0  0  0  0  0  0  0
  158.0450  212.7810  156.3600 C   0  0  2  0  0  3  0  0  0  0  0  0
  158.8580  210.8570  155.4120 C   0  0  2  0  0  3  0  0  0  0  0  0
  156.8070  212.8610  157.2580 C   0  0  0  0  0  2  0  0  0  0  0  0
  155.8180  211.8200  156.9470 C   0  0  0  0  0  0  0  0  0  0  0  0
  155.0380  211.0000  156.7030 N   0  0  0  0  0  0  0  0  0  0  0  0
  160.5630  207.7220  155.8030 C   0  0  0  0  0  0  0  0  0  0  0  0
  161.0750  207.5750  157.0530 O   0  0  0  0  0  0  0  0  0  0  0  0
  159.8350  207.1220  156.7420 N   0  0  0  0  0  0  0  0  0  0  0  0
  161.5170  206.7020  151.1060 N   0  0  0  0  0  0  0  0  0  0  0  0
  161.6640  207.0200  149.8830 N   0  0  0  0  0  0  0  0  0  0  0  0
  161.9910  206.0060  148.8960 C   0  0  2  0  0  3  0  0  0  0  0  0
  162.2550  206.6580  147.5510 C   0  0  0  0  0  2  0  0  0  0  0  0
  160.7130  205.4040  148.3440 C   0  0  0  0  0  2  0  0  0  0  0  0
  160.9720  206.0600  147.0030 C   0  0  2  0  0  3  0  0  0  0  0  0
  161.2870  204.9960  145.9640 C   0  0  0  0  0  2  0  0  0  0  0  0
  160.9970  205.5250  144.5730 C   0  0  0  0  0  1  0  0  0  0  0  0
  1  5  1  0  0  0  0
  2  3  1  0  0  0  0
  2  9  1  0  0  0  0
  3 19  1  0  0  0  0
  4  1  2  0  0  0  0
  4  6  1  0  0  0  0
  5  3  2  0  0  0  0
  6  2  2  0  0  0  0
  8  7  2  0  0  0  0
  9  7  1  0  0  0  0
 10 11  2  0  0  0  0
 11 14  1  0  0  0  0
 12 11  1  0  0  0  0
 12 15  1  0  0  0  0
 14 13  1  0  0  0  0
 14 16  1  1  0  0  0
 15  9  1  6  0  0  0
 15 13  1  0  0  0  0
 17 16  1  0  0  0  0
 18 17  3  0  0  0  0
 19 21  2  0  0  0  0
 19 20  1  0  0  0  0
 21 20  1  0  0  0  0
 22  1  1  0  0  0  0
 23 22  2  0  0  0  0
 24 23  1  1  0  0  0
 25 24  1  0  0  0  0
 26 24  1  0  0  0  0
 27 28  1  6  0  0  0
 27 25  1  0  0  0  0
 27 26  1  0  0  0  0
 29 28  1  0  0  0  0
M  END
>  <MODEL>
4

>  <REMARK>
 VINA RESULT:      -6.5      1.807      2.138
  Name = 
  8 active torsions:
  status: ('A' for Active; 'I' for Inactive)
    1  A    between atoms: C_1  and  N_16
    2  A    between atoms: C_2  and  N_20
    3  A    between atoms: C_3  and  C_21
    4  A    between atoms: C_3  and  C_23
    5  A    between atoms: C_4  and  N_12
    6  A    between atoms: C_5  and  C_19
    7  A    between atoms: N_12  and  C_28
    8  A    between atoms: C_14  and  C_26
                            x       y       z     vdW  Elec       q    Type
                         _______ _______ _______ _____ _____    ______ ____

>  <TORSDO>
F 8

$$$$
=
 OpenBabel11072413473D

 29 32  0  0  1  0  0  0  0  0999 V2000
  161.6440  208.0420  152.3770 C   0  0  0  0  0  0  0  0  0  0  0  0
  161.2500  209.9740  154.3800 C   0  0  0  0  0  0  0  0  0  0  0  0
  160.9150  208.6270  154.6190 C   0  0  0  0  0  0  0  0  0  0  0  0
  161.9850  209.3810  152.1430 C   0  0  0  0  0  3  0  0  0  0  0  0
  161.1130  207.6720  153.6160 C   0  0  0  0  0  3  0  0  0  0  0  0
  161.7890  210.3390  153.1400 C   0  0  0  0  0  3  0  0  0  0  0  0
  161.9620  211.1040  156.4970 C   0  0  0  0  0  3  0  0  0  0  0  0
  162.9820  210.3220  156.6250 N   0  0  0  0  0  2  0  0  0  0  0  0
  161.0590  210.9780  155.3920 N   0  0  0  0  0  0  0  0  0  0  0  0
  156.5690  210.8130  154.9870 O   0  0  0  0  0  0  0  0  0  0  0  0
  157.7010  211.2660  154.9280 C   0  0  0  0  0  0  0  0  0  0  0  0
  158.6830  211.1380  155.9930 C   0  0  0  0  0  2  0  0  0  0  0  0
  159.6040  212.2760  154.0490 O   0  0  0  0  0  0  0  0  0  0  0  0
  158.2590  211.9650  153.7580 C   0  0  2  0  0  3  0  0  0  0  0  0
  159.8820  211.8420  155.3740 C   0  0  2  0  0  3  0  0  0  0  0  0
  157.4710  213.2280  153.4010 C   0  0  0  0  0  2  0  0  0  0  0  0
  157.4870  213.5140  151.9590 C   0  0  0  0  0  0  0  0  0  0  0  0
  157.5000  213.7380  150.8240 N   0  0  0  0  0  0  0  0  0  0  0  0
  160.3860  208.1880  155.9110 C   0  0  0  0  0  0  0  0  0  0  0  0
  160.2340  208.3900  157.2470 O   0  0  0  0  0  0  0  0  0  0  0  0
  159.7050  207.3020  156.6340 N   0  0  0  0  0  0  0  0  0  0  0  0
  161.8350  207.0420  151.3730 N   0  0  0  0  0  0  0  0  0  0  0  0
  161.5430  207.2550  150.1540 N   0  0  0  0  0  0  0  0  0  0  0  0
  161.7520  206.2180  149.1570 C   0  0  2  0  0  3  0  0  0  0  0  0
  162.3350  206.8240  147.8930 C   0  0  0  0  0  2  0  0  0  0  0  0
  160.4530  205.9530  148.4220 C   0  0  0  0  0  2  0  0  0  0  0  0
  161.0310  206.5630  147.1610 C   0  0  2  0  0  3  0  0  0  0  0  0
  161.2220  205.4830  146.1090 C   0  0  0  0  0  2  0  0  0  0  0  0
  160.4430  205.8320  144.8570 C   0  0  0  0  0  1  0  0  0  0  0  0
  1  5  1  0  0  0  0
  2  3  1  0  0  0  0
  2  9  1  0  0  0  0
  3 19  1  0  0  0  0
  4  1  2  0  0  0  0
  4  6  1  0  0  0  0
  5  3  2  0  0  0  0
  6  2  2  0  0  0  0
  7  8  2  0  0  0  0
  9  7  1  0  0  0  0
 11 10  2  0  0  0  0
 11 12  1  0  0  0  0
 13 15  1  0  0  0  0
 14 16  1  1  0  0  0
 14 13  1  0  0  0  0
 14 11  1  0  0  0  0
 15  9  1  6  0  0  0
 15 12  1  0  0  0  0
 17 16  1  0  0  0  0
 18 17  3  0  0  0  0
 19 21  2  0  0  0  0
 19 20  1  0  0  0  0
 21 20  1  0  0  0  0
 22  1  1  0  0  0  0
 23 22  2  0  0  0  0
 24 23  1  1  0  0  0
 25 24  1  0  0  0  0
 26 24  1  0  0  0  0
 27 28  1  6  0  0  0
 27 25  1  0  0  0  0
 27 26  1  0  0  0  0
 29 28  1  0  0  0  0
M  END
>  <MODEL>
5

>  <REMARK>
 VINA RESULT:      -6.2      2.391      2.941
  Name = 
  8 active torsions:
  status: ('A' for Active; 'I' for Inactive)
    1  A    between atoms: C_1  and  N_16
    2  A    between atoms: C_2  and  N_20
    3  A    between atoms: C_3  and  C_21
    4  A    between atoms: C_3  and  C_23
    5  A    between atoms: C_4  and  N_12
    6  A    between atoms: C_5  and  C_19
    7  A    between atoms: N_12  and  C_28
    8  A    between atoms: C_14  and  C_26
                            x       y       z     vdW  Elec       q    Type
                         _______ _______ _______ _____ _____    ______ ____

>  <TORSDO>
F 8

$$$$
=
 OpenBabel11072413473D

 29 32  0  0  1  0  0  0  0  0999 V2000
  161.5700  208.0820  152.5270 C   0  0  0  0  0  0  0  0  0  0  0  0
  161.1700  210.0310  154.5130 C   0  0  0  0  0  0  0  0  0  0  0  0
  160.9310  208.6710  154.7950 C   0  0  0  0  0  0  0  0  0  0  0  0
  161.8150  209.4340  152.2490 C   0  0  0  0  0  3  0  0  0  0  0  0
  161.1310  207.7080  153.8000 C   0  0  0  0  0  3  0  0  0  0  0  0
  161.6170  210.4000  153.2380 C   0  0  0  0  0  3  0  0  0  0  0  0
  161.8980  211.2090  156.5980 C   0  0  0  0  0  3  0  0  0  0  0  0
  162.9410  210.4560  156.7130 N   0  0  0  0  0  2  0  0  0  0  0  0
  160.9740  211.0430  155.5150 N   0  0  0  0  0  0  0  0  0  0  0  0
  156.4740  210.7400  155.4270 O   0  0  0  0  0  0  0  0  0  0  0  0
  157.5860  211.2140  155.2580 C   0  0  0  0  0  0  0  0  0  0  0  0
  158.6390  211.1920  156.2610 C   0  0  0  0  0  2  0  0  0  0  0  0
  159.3980  212.2000  154.1810 O   0  0  0  0  0  0  0  0  0  0  0  0
  158.0460  211.8360  154.0040 C   0  0  2  0  0  3  0  0  0  0  0  0
  159.7750  211.8750  155.5120 C   0  0  2  0  0  3  0  0  0  0  0  0
  157.2000  213.0490  153.6090 C   0  0  0  0  0  2  0  0  0  0  0  0
  157.6310  213.6460  152.3360 C   0  0  0  0  0  0  0  0  0  0  0  0
  157.9720  214.1160  151.3350 N   0  0  0  0  0  0  0  0  0  0  0  0
  160.5010  208.2300  156.1230 C   0  0  0  0  0  0  0  0  0  0  0  0
  159.7910  208.4520  157.2600 O   0  0  0  0  0  0  0  0  0  0  0  0
  160.5230  207.3220  157.0960 N   0  0  0  0  0  0  0  0  0  0  0  0
  161.7650  207.0730  151.5320 N   0  0  0  0  0  0  0  0  0  0  0  0
  161.8540  205.8420  151.8370 N   0  0  0  0  0  0  0  0  0  0  0  0
  162.0490  204.8420  150.8010 C   0  0  2  0  0  3  0  0  0  0  0  0
  160.8550  204.8260  149.8650 C   0  0  0  0  0  2  0  0  0  0  0  0
  161.6440  203.4800  151.3300 C   0  0  0  0  0  2  0  0  0  0  0  0
  160.4480  203.4650  150.4000 C   0  0  2  0  0  3  0  0  0  0  0  0
  160.6390  202.3990  149.3330 C   0  0  0  0  0  2  0  0  0  0  0  0
  159.4900  201.4100  149.3730 C   0  0  0  0  0  1  0  0  0  0  0  0
  1  5  1  0  0  0  0
  2  3  1  0  0  0  0
  2  9  1  0  0  0  0
  3 19  1  0  0  0  0
  4  1  2  0  0  0  0
  4  6  1  0  0  0  0
  5  3  2  0  0  0  0
  6  2  2  0  0  0  0
  7  8  2  0  0  0  0
  9  7  1  0  0  0  0
 11 10  2  0  0  0  0
 11 12  1  0  0  0  0
 13 15  1  0  0  0  0
 14 16  1  1  0  0  0
 14 13  1  0  0  0  0
 14 11  1  0  0  0  0
 15  9  1  6  0  0  0
 15 12  1  0  0  0  0
 17 16  1  0  0  0  0
 18 17  3  0  0  0  0
 19 21  2  0  0  0  0
 19 20  1  0  0  0  0
 21 20  1  0  0  0  0
 22 23  2  0  0  0  0
 22  1  1  0  0  0  0
 24 26  1  0  0  0  0
 24 23  1  1  0  0  0
 25 27  1  0  0  0  0
 25 24  1  0  0  0  0
 27 28  1  6  0  0  0
 27 26  1  0  0  0  0
 28 29  1  0  0  0  0
M  END
>  <MODEL>
6

>  <REMARK>
 VINA RESULT:      -6.1      1.696      2.210
  Name = 
  8 active torsions:
  status: ('A' for Active; 'I' for Inactive)
    1  A    between atoms: C_1  and  N_16
    2  A    between atoms: C_2  and  N_20
    3  A    between atoms: C_3  and  C_21
    4  A    between atoms: C_3  and  C_23
    5  A    between atoms: C_4  and  N_12
    6  A    between atoms: C_5  and  C_19
    7  A    between atoms: N_12  and  C_28
    8  A    between atoms: C_14  and  C_26
                            x       y       z     vdW  Elec       q    Type
                         _______ _______ _______ _____ _____    ______ ____

>  <TORSDO>
F 8

$$$$
=
 OpenBabel11072413473D

 29 32  0  0  1  0  0  0  0  0999 V2000
  161.2050  205.3260  151.8290 C   0  0  0  0  0  0  0  0  0  0  0  0
  160.9910  208.0150  152.6230 C   0  0  0  0  0  0  0  0  0  0  0  0
  161.0300  206.9900  153.5900 C   0  0  0  0  0  0  0  0  0  0  0  0
  161.1750  206.3460  150.8680 C   0  0  0  0  0  3  0  0  0  0  0  0
  161.1350  205.6550  153.1850 C   0  0  0  0  0  3  0  0  0  0  0  0
  161.0700  207.6810  151.2650 C   0  0  0  0  0  3  0  0  0  0  0  0
  161.9460  210.3250  152.7530 C   0  0  0  0  0  3  0  0  0  0  0  0
  163.0360  209.9560  152.1660 N   0  0  0  0  0  2  0  0  0  0  0  0
  160.8860  209.3960  153.0080 N   0  0  0  0  0  0  0  0  0  0  0  0
  158.2380  213.0190  153.4680 O   0  0  0  0  0  0  0  0  0  0  0  0
  158.8150  211.9860  153.7680 C   0  0  0  0  0  0  0  0  0  0  0  0
  158.8840  210.8150  152.9080 C   0  0  0  0  0  2  0  0  0  0  0  0
  160.1410  210.4960  154.9680 O   0  0  0  0  0  0  0  0  0  0  0  0
  159.5680  211.7850  155.0190 C   0  0  2  0  0  3  0  0  0  0  0  0
  159.7280  209.8750  153.7570 C   0  0  2  0  0  3  0  0  0  0  0  0
  158.6880  211.9430  156.2620 C   0  0  0  0  0  2  0  0  0  0  0  0
  158.2530  213.3320  156.4710 C   0  0  0  0  0  0  0  0  0  0  0  0
  157.9120  214.4250  156.6360 N   0  0  0  0  0  0  0  0  0  0  0  0
  160.9910  207.2890  155.0220 C   0  0  0  0  0  0  0  0  0  0  0  0
  161.5990  207.7750  156.1360 O   0  0  0  0  0  0  0  0  0  0  0  0
  160.3370  207.2810  156.1820 N   0  0  0  0  0  0  0  0  0  0  0  0
  161.3120  203.9520  151.4480 N   0  0  0  0  0  0  0  0  0  0  0  0
  160.4990  203.4210  150.6270 N   0  0  0  0  0  0  0  0  0  0  0  0
  160.6380  202.0220  150.2580 C   0  0  2  0  0  3  0  0  0  0  0  0
  161.9330  201.8130  149.4960 C   0  0  0  0  0  2  0  0  0  0  0  0
  159.8550  201.7540  148.9880 C   0  0  0  0  0  2  0  0  0  0  0  0
  161.1470  201.5500  148.2240 C   0  0  2  0  0  3  0  0  0  0  0  0
  161.2780  200.0930  147.8130 C   0  0  0  0  0  2  0  0  0  0  0  0
  161.2990  199.9770  146.3020 C   0  0  0  0  0  1  0  0  0  0  0  0
  1  5  1  0  0  0  0
  2  9  1  0  0  0  0
  2  3  1  0  0  0  0
  3 19  1  0  0  0  0
  4  6  1  0  0  0  0
  4  1  2  0  0  0  0
  5  3  2  0  0  0  0
  6  2  2  0  0  0  0
  7  9  1  0  0  0  0
  8  7  2  0  0  0  0
 10 11  2  0  0  0  0
 11 14  1  0  0  0  0
 12 15  1  0  0  0  0
 12 11  1  0  0  0  0
 13 14  1  0  0  0  0
 14 16  1  1  0  0  0
 15  9  1  6  0  0  0
 15 13  1  0  0  0  0
 16 17  1  0  0  0  0
 17 18  3  0  0  0  0
 19 20  1  0  0  0  0
 19 21  2  0  0  0  0
 20 21  1  0  0  0  0
 22  1  1  0  0  0  0
 23 22  2  0  0  0  0
 24 23  1  6  0  0  0
 25 24  1  0  0  0  0
 26 24  1  0  0  0  0
 27 28  1  1  0  0  0
 27 26  1  0  0  0  0
 27 25  1  0  0  0  0
 29 28  1  0  0  0  0
M  END
>  <MODEL>
7

>  <REMARK>
 VINA RESULT:      -5.3      1.858      2.222
  Name = 
  8 active torsions:
  status: ('A' for Active; 'I' for Inactive)
    1  A    between atoms: C_1  and  N_16
    2  A    between atoms: C_2  and  N_20
    3  A    between atoms: C_3  and  C_21
    4  A    between atoms: C_3  and  C_23
    5  A    between atoms: C_4  and  N_12
    6  A    between atoms: C_5  and  C_19
    7  A    between atoms: N_12  and  C_28
    8  A    between atoms: C_14  and  C_26
                            x       y       z     vdW  Elec       q    Type
                         _______ _______ _______ _____ _____    ______ ____

>  <TORSDO>
F 8

$$$$
=
 OpenBabel11072413473D

 29 32  0  0  1  0  0  0  0  0999 V2000
  160.9860  207.9070  152.0400 C   0  0  0  0  0  0  0  0  0  0  0  0
  160.5320  209.9180  153.9510 C   0  0  0  0  0  0  0  0  0  0  0  0
  160.3820  210.1970  152.5780 C   0  0  0  0  0  0  0  0  0  0  0  0
  161.1270  207.6270  153.4060 C   0  0  0  0  0  3  0  0  0  0  0  0
  160.6110  209.1910  151.6340 C   0  0  0  0  0  3  0  0  0  0  0  0
  160.9000  208.6270  154.3540 C   0  0  0  0  0  3  0  0  0  0  0  0
  161.3160  211.2920  155.8910 C   0  0  0  0  0  3  0  0  0  0  0  0
  162.4760  210.7220  155.8840 N   0  0  0  0  0  2  0  0  0  0  0  0
  160.3020  210.9310  154.9450 N   0  0  0  0  0  0  0  0  0  0  0  0
  158.2640  214.4470  156.9030 O   0  0  0  0  0  0  0  0  0  0  0  0
  158.3970  213.3360  156.4150 C   0  0  0  0  0  0  0  0  0  0  0  0
  159.1240  213.0720  155.1830 C   0  0  0  0  0  2  0  0  0  0  0  0
  158.2950  211.0210  156.1970 O   0  0  0  0  0  0  0  0  0  0  0  0
  157.8870  212.0930  157.0200 C   0  0  2  0  0  3  0  0  0  0  0  0
  158.9920  211.5590  155.0810 C   0  0  2  0  0  3  0  0  0  0  0  0
  156.3650  212.1060  157.1870 C   0  0  0  0  0  2  0  0  0  0  0  0
  155.6820  211.2740  156.1860 C   0  0  0  0  0  0  0  0  0  0  0  0
  155.1450  210.6190  155.3980 N   0  0  0  0  0  0  0  0  0  0  0  0
  159.9610  211.5180  152.1090 C   0  0  0  0  0  0  0  0  0  0  0  0
  158.9800  212.3490  151.6700 O   0  0  0  0  0  0  0  0  0  0  0  0
  160.2600  212.7780  151.8000 N   0  0  0  0  0  0  0  0  0  0  0  0
  161.2120  206.9000  151.0490 N   0  0  0  0  0  0  0  0  0  0  0  0
  161.5220  207.1980  149.8520 N   0  0  0  0  0  0  0  0  0  0  0  0
  161.7490  206.1510  148.8710 C   0  0  2  0  0  3  0  0  0  0  0  0
  162.6800  206.6530  147.7830 C   0  0  0  0  0  2  0  0  0  0  0  0
  160.6050  206.1340  147.8750 C   0  0  0  0  0  2  0  0  0  0  0  0
  161.5320  206.6410  146.7890 C   0  0  2  0  0  3  0  0  0  0  0  0
  161.7460  205.5550  145.7480 C   0  0  0  0  0  2  0  0  0  0  0  0
  160.6980  205.6650  144.6570 C   0  0  0  0  0  1  0  0  0  0  0  0
  1  4  1  0  0  0  0
  2  6  1  0  0  0  0
  2  9  1  0  0  0  0
  3  2  2  0  0  0  0
  4  6  2  0  0  0  0
  5  1  2  0  0  0  0
  5  3  1  0  0  0  0
  8  7  2  0  0  0  0
  9  7  1  0  0  0  0
 11 10  2  0  0  0  0
 11 14  1  0  0  0  0
 12 11  1  0  0  0  0
 13 14  1  0  0  0  0
 14 16  1  6  0  0  0
 15  9  1  1  0  0  0
 15 12  1  0  0  0  0
 15 13  1  0  0  0  0
 17 16  1  0  0  0  0
 18 17  3  0  0  0  0
 19  3  1  0  0  0  0
 20 21  1  0  0  0  0
 20 19  1  0  0  0  0
 21 19  2  0  0  0  0
 22  1  1  0  0  0  0
 23 22  2  0  0  0  0
 24 23  1  1  0  0  0
 25 24  1  0  0  0  0
 26 24  1  0  0  0  0
 27 28  1  6  0  0  0
 27 25  1  0  0  0  0
 27 26  1  0  0  0  0
 29 28  1  0  0  0  0
M  END
>  <MODEL>
8

>  <REMARK>
 VINA RESULT:      -5.1      2.318      3.309
  Name = 
  8 active torsions:
  status: ('A' for Active; 'I' for Inactive)
    1  A    between atoms: C_1  and  N_16
    2  A    between atoms: C_2  and  N_20
    3  A    between atoms: C_3  and  C_21
    4  A    between atoms: C_3  and  C_23
    5  A    between atoms: C_4  and  N_12
    6  A    between atoms: C_5  and  C_19
    7  A    between atoms: N_12  and  C_28
    8  A    between atoms: C_14  and  C_26
                            x       y       z     vdW  Elec       q    Type
                         _______ _______ _______ _____ _____    ______ ____

>  <TORSDO>
F 8

$$$$
=
 OpenBabel11072413473D

 29 32  0  0  1  0  0  0  0  0999 V2000
  160.6440  209.5820  152.7940 C   0  0  0  0  0  0  0  0  0  0  0  0
  161.2580  207.0700  151.6910 C   0  0  0  0  0  0  0  0  0  0  0  0
  161.3960  208.2380  150.9160 C   0  0  0  0  0  0  0  0  0  0  0  0
  160.5150  208.4200  153.5680 C   0  0  0  0  0  3  0  0  0  0  0  0
  161.0870  209.4840  151.4720 C   0  0  0  0  0  3  0  0  0  0  0  0
  160.8210  207.1730  153.0180 C   0  0  0  0  0  3  0  0  0  0  0  0
  162.6790  205.0100  151.6330 C   0  0  0  0  0  3  0  0  0  0  0  0
  163.4400  205.4530  152.5790 N   0  0  0  0  0  2  0  0  0  0  0  0
  161.5700  205.7760  151.1470 N   0  0  0  0  0  0  0  0  0  0  0  0
  160.3050  201.8660  149.2880 O   0  0  0  0  0  0  0  0  0  0  0  0
  160.6030  203.0470  149.3610 C   0  0  0  0  0  0  0  0  0  0  0  0
  160.1160  203.9450  150.3960 C   0  0  0  0  0  2  0  0  0  0  0  0
  161.6710  205.0610  148.8930 O   0  0  0  0  0  0  0  0  0  0  0  0
  161.5350  203.7290  148.4460 C   0  0  2  0  0  3  0  0  0  0  0  0
  160.8190  205.2410  150.0160 C   0  0  2  0  0  3  0  0  0  0  0  0
  161.0630  203.6860  146.9910 C   0  0  0  0  0  2  0  0  0  0  0  0
  161.5680  204.8180  146.2000 C   0  0  0  0  0  0  0  0  0  0  0  0
  161.9660  205.7080  145.5780 N   0  0  0  0  0  0  0  0  0  0  0  0
  161.8860  208.1870  149.5370 C   0  0  0  0  0  0  0  0  0  0  0  0
  162.8490  207.8300  148.6470 O   0  0  0  0  0  0  0  0  0  0  0  0
  161.7150  208.4570  148.2450 N   0  0  0  0  0  0  0  0  0  0  0  0
  160.3360  210.8700  153.3340 N   0  0  0  0  0  0  0  0  0  0  0  0
  159.5420  211.6690  152.7430 N   0  0  0  0  0  0  0  0  0  0  0  0
  159.2480  212.9700  153.3200 C   0  0  2  0  0  3  0  0  0  0  0  0
  159.1980  212.8660  154.8340 C   0  0  0  0  0  2  0  0  0  0  0  0
  157.7500  213.2080  153.2950 C   0  0  0  0  0  2  0  0  0  0  0  0
  157.6990  213.0980  154.8060 C   0  0  2  0  0  3  0  0  0  0  0  0
  157.3620  214.4530  155.4070 C   0  0  0  0  0  2  0  0  0  0  0  0
  156.3110  214.2960  156.4880 C   0  0  0  0  0  1  0  0  0  0  0  0
  1 22  1  0  0  0  0
  1  4  1  0  0  0  0
  2  6  1  0  0  0  0
  3  5  1  0  0  0  0
  3  2  2  0  0  0  0
  5  1  2  0  0  0  0
  6  4  2  0  0  0  0
  7  8  2  0  0  0  0
  9  7  1  0  0  0  0
  9  2  1  0  0  0  0
 10 11  2  0  0  0  0
 11 12  1  0  0  0  0
 13 15  1  0  0  0  0
 14 16  1  6  0  0  0
 14 13  1  0  0  0  0
 14 11  1  0  0  0  0
 15 12  1  0  0  0  0
 15  9  1  1  0  0  0
 17 16  1  0  0  0  0
 18 17  3  0  0  0  0
 19  3  1  0  0  0  0
 20 19  1  0  0  0  0
 21 20  1  0  0  0  0
 21 19  2  0  0  0  0
 23 22  2  0  0  0  0
 24 23  1  6  0  0  0
 24 25  1  0  0  0  0
 26 24  1  0  0  0  0
 26 27  1  0  0  0  0
 27 25  1  0  0  0  0
 27 28  1  1  0  0  0
 28 29  1  0  0  0  0
M  END
>  <MODEL>
9

>  <REMARK>
 VINA RESULT:      -4.9      3.677      9.543
  Name = 
  8 active torsions:
  status: ('A' for Active; 'I' for Inactive)
    1  A    between atoms: C_1  and  N_16
    2  A    between atoms: C_2  and  N_20
    3  A    between atoms: C_3  and  C_21
    4  A    between atoms: C_3  and  C_23
    5  A    between atoms: C_4  and  N_12
    6  A    between atoms: C_5  and  C_19
    7  A    between atoms: N_12  and  C_28
    8  A    between atoms: C_14  and  C_26
                            x       y       z     vdW  Elec       q    Type
                         _______ _______ _______ _____ _____    ______ ____

>  <TORSDO>
F 8

$$$$
