=
 OpenBabel11072412103D

 31 36  0  0  1  0  0  0  0  0999 V2000
  162.4430  206.9530  148.7410 C   0  0  1  0  0  3  0  0  0  0  0  0
  161.3380  206.8780  150.6570 N   0  0  0  0  0  0  0  0  0  0  0  0
  161.1530  204.8770  149.3380 C   0  0  0  0  0  0  0  0  0  0  0  0
  162.5680  207.4970  150.1320 C   0  0  2  0  0  3  0  0  0  0  0  0
  161.1710  206.3840  149.2760 C   0  0  2  0  0  3  0  0  0  0  0  0
  162.2630  203.9490  147.4580 O   0  0  0  0  0  0  0  0  0  0  0  0
  160.8190  204.8680  151.7810 C   0  0  0  0  0  3  0  0  0  0  0  0
  162.4140  209.0110  150.0820 C   0  0  0  0  0  2  0  0  0  0  0  0
  162.3970  209.3850  148.6120 C   0  0  1  0  0  3  0  0  0  0  0  0
  162.1330  208.1170  147.8180 C   0  0  0  0  0  2  0  0  0  0  0  0
  160.9190  204.2100  150.4550 C   0  0  0  0  0  0  0  0  0  0  0  0
  160.8540  202.5640  148.7350 N   0  0  0  0  0  0  0  0  0  0  0  0
  161.0450  204.2030  146.7920 C   0  0  0  0  0  2  0  0  0  0  0  0
  161.0960  203.9120  148.2380 C   0  0  1  0  0  0  0  0  0  0  0  0
  161.0280  206.1910  151.8690 C   0  0  0  0  0  0  0  0  0  0  0  0
  160.7490  202.7490  150.1930 C   0  0  0  0  0  3  0  0  0  0  0  0
  161.1480  208.0250  155.7720 C   0  0  0  0  0  2  0  0  0  0  0  0
  160.7100  208.2880  153.3130 C   0  0  0  0  0  0  0  0  0  0  0  0
  160.5000  210.2690  154.8460 C   0  0  0  0  0  2  0  0  0  0  0  0
  161.0210  206.9010  153.1160 N   0  0  0  0  0  2  0  0  0  0  0  0
  160.0910  209.7400  157.2570 C   0  0  0  0  0  2  0  0  0  0  0  0
  160.2090  208.2490  156.9550 C   0  0  0  0  0  2  0  0  0  0  0  0
  160.4270  209.0260  152.3300 O   0  0  0  0  0  0  0  0  0  0  0  0
  159.5640  210.4830  156.0320 C   0  0  0  0  0  2  0  0  0  0  0  0
  160.7160  208.8380  154.6370 N   0  0  0  0  0  0  0  0  0  0  0  0
  161.4260  210.4430  148.3150 N   0  0  0  0  0  2  0  0  0  0  0  0
  161.8480  211.7180  148.8930 C   0  0  0  0  0  2  0  0  0  0  0  0
  163.8250  212.1620  147.6490 F   0  0  0  0  0  0  0  0  0  0  0  0
  161.8300  212.4630  146.6510 F   0  0  0  0  0  0  0  0  0  0  0  0
  162.5210  212.5810  147.8400 C   0  0  0  0  0  0  0  0  0  0  0  0
  162.5140  213.9050  148.2400 F   0  0  0  0  0  0  0  0  0  0  0  0
  1 10  1  6  0  0  0
  1  5  1  0  0  0  0
  1  4  1  0  0  0  0
  2 15  1  0  0  0  0
  3 11  2  0  0  0  0
  4  8  1  6  0  0  0
  4  2  1  0  0  0  0
  5  3  1  1  0  0  0
  5  2  1  0  0  0  0
  6 14  1  0  0  0  0
  7 15  2  0  0  0  0
  9 26  1  1  0  0  0
  9  8  1  0  0  0  0
 10  9  1  0  0  0  0
 11  7  1  0  0  0  0
 12 16  2  0  0  0  0
 13  6  1  0  0  0  0
 14 13  1  6  0  0  0
 14 12  1  0  0  0  0
 14  3  1  0  0  0  0
 15 20  1  0  0  0  0
 16 11  1  0  0  0  0
 17 22  1  0  0  0  0
 18 25  1  0  0  0  0
 19 24  1  0  0  0  0
 20 18  1  0  0  0  0
 22 21  1  0  0  0  0
 23 18  2  0  0  0  0
 24 21  1  0  0  0  0
 25 19  1  0  0  0  0
 25 17  1  0  0  0  0
 26 27  1  0  0  0  0
 28 30  1  0  0  0  0
 29 30  1  0  0  0  0
 30 31  1  0  0  0  0
 30 27  1  0  0  0  0
M  END
>  <MODEL>
1

>  <REMARK>
 VINA RESULT:      -8.4      0.000      0.000
  Name = 
  4 active torsions:
  status: ('A' for Active; 'I' for Inactive)
    1  A    between atoms: N_9  and  C_17
    2  A    between atoms: N_9  and  C_23
    3  A    between atoms: N_12  and  C_30
    4  A    between atoms: C_16  and  C_17
                            x       y       z     vdW  Elec       q    Type
                         _______ _______ _______ _____ _____    ______ ____

>  <TORSDO>
F 4

$$$$
=
 OpenBabel11072412103D

 31 36  0  0  1  0  0  0  0  0999 V2000
  161.7700  206.6310  153.4950 C   0  0  1  0  0  3  0  0  0  0  0  0
  161.2220  208.4790  152.4070 N   0  0  0  0  0  0  0  0  0  0  0  0
  160.8200  208.5780  154.7740 C   0  0  0  0  0  0  0  0  0  0  0  0
  162.2260  207.4050  152.2960 C   0  0  2  0  0  3  0  0  0  0  0  0
  160.7250  207.6960  153.5540 C   0  0  2  0  0  3  0  0  0  0  0  0
  161.4460  207.3090  156.6790 O   0  0  0  0  0  0  0  0  0  0  0  0
  161.1510  210.6100  153.4180 C   0  0  0  0  0  3  0  0  0  0  0  0
  161.9680  206.5720  151.0470 C   0  0  0  0  0  2  0  0  0  0  0  0
  161.5360  205.2020  151.5360 C   0  0  1  0  0  3  0  0  0  0  0  0
  161.1520  205.3360  152.9990 C   0  0  0  0  0  2  0  0  0  0  0  0
  160.9360  209.8930  154.6980 C   0  0  0  0  0  0  0  0  0  0  0  0
  160.5190  209.4480  157.0010 N   0  0  0  0  0  0  0  0  0  0  0  0
  160.0810  206.9530  156.7130 C   0  0  0  0  0  2  0  0  0  0  0  0
  160.5330  208.2490  156.1720 C   0  0  1  0  0  0  0  0  0  0  0  0
  161.2910  209.8990  152.2870 C   0  0  0  0  0  0  0  0  0  0  0  0
  160.7950  210.5320  156.0420 C   0  0  0  0  0  3  0  0  0  0  0  0
  162.3300  211.4120  148.3830 C   0  0  0  0  0  2  0  0  0  0  0  0
  161.0060  211.7130  150.4960 C   0  0  0  0  0  0  0  0  0  0  0  0
  160.7850  213.3770  148.6250 C   0  0  0  0  0  2  0  0  0  0  0  0
  161.5710  210.5010  151.0160 N   0  0  0  0  0  2  0  0  0  0  0  0
  162.7070  213.4810  147.0280 C   0  0  0  0  0  2  0  0  0  0  0  0
  163.3830  212.3240  147.7580 C   0  0  0  0  0  2  0  0  0  0  0  0
  160.1490  212.3570  151.1620 O   0  0  0  0  0  0  0  0  0  0  0  0
  161.8430  214.2810  147.9990 C   0  0  0  0  0  2  0  0  0  0  0  0
  161.4220  212.2000  149.2140 N   0  0  0  0  0  0  0  0  0  0  0  0
  160.4560  204.6330  150.7230 N   0  0  0  0  0  2  0  0  0  0  0  0
  160.9830  204.0340  149.4980 C   0  0  0  0  0  2  0  0  0  0  0  0
  159.5050  202.1750  149.3780 F   0  0  0  0  0  0  0  0  0  0  0  0
  161.5750  201.9680  148.5160 F   0  0  0  0  0  0  0  0  0  0  0  0
  160.8340  202.5240  149.5400 C   0  0  0  0  0  0  0  0  0  0  0  0
  161.2960  202.0380  150.7500 F   0  0  0  0  0  0  0  0  0  0  0  0
  1 10  1  6  0  0  0
  1  5  1  0  0  0  0
  2  5  1  0  0  0  0
  3 14  1  0  0  0  0
  4  8  1  6  0  0  0
  4  2  1  0  0  0  0
  4  1  1  0  0  0  0
  5  3  1  1  0  0  0
  6 13  1  0  0  0  0
  7 11  1  0  0  0  0
  8  9  1  0  0  0  0
  9 26  1  6  0  0  0
  9 10  1  0  0  0  0
 11  3  2  0  0  0  0
 11 16  1  0  0  0  0
 14  6  1  0  0  0  0
 14 13  1  1  0  0  0
 14 12  1  0  0  0  0
 15  2  1  0  0  0  0
 15  7  2  0  0  0  0
 16 12  2  0  0  0  0
 17 25  1  0  0  0  0
 18 20  1  0  0  0  0
 18 23  2  0  0  0  0
 19 25  1  0  0  0  0
 20 15  1  0  0  0  0
 21 22  1  0  0  0  0
 21 24  1  0  0  0  0
 22 17  1  0  0  0  0
 24 19  1  0  0  0  0
 25 18  1  0  0  0  0
 27 30  1  0  0  0  0
 27 26  1  0  0  0  0
 28 30  1  0  0  0  0
 29 30  1  0  0  0  0
 30 31  1  0  0  0  0
M  END
>  <MODEL>
2

>  <REMARK>
 VINA RESULT:      -8.1      4.209      7.793
  Name = 
  4 active torsions:
  status: ('A' for Active; 'I' for Inactive)
    1  A    between atoms: N_9  and  C_17
    2  A    between atoms: N_9  and  C_23
    3  A    between atoms: N_12  and  C_30
    4  A    between atoms: C_16  and  C_17
                            x       y       z     vdW  Elec       q    Type
                         _______ _______ _______ _____ _____    ______ ____

>  <TORSDO>
F 4

$$$$
=
 OpenBabel11072412103D

 31 36  0  0  1  0  0  0  0  0999 V2000
  162.3130  207.9460  149.5000 C   0  0  1  0  0  3  0  0  0  0  0  0
  161.3210  208.4270  151.4190 N   0  0  0  0  0  0  0  0  0  0  0  0
  161.1320  206.1210  150.7660 C   0  0  0  0  0  0  0  0  0  0  0  0
  162.4970  208.8820  150.6550 C   0  0  2  0  0  3  0  0  0  0  0  0
  161.0940  207.5420  150.2600 C   0  0  2  0  0  3  0  0  0  0  0  0
  162.1660  204.6940  149.1790 O   0  0  0  0  0  0  0  0  0  0  0  0
  160.9370  206.8350  153.1190 C   0  0  0  0  0  3  0  0  0  0  0  0
  162.2870  210.3100  150.1690 C   0  0  0  0  0  2  0  0  0  0  0  0
  162.1740  210.2280  148.6580 C   0  0  1  0  0  3  0  0  0  0  0  0
  161.9110  208.7770  148.2950 C   0  0  0  0  0  2  0  0  0  0  0  0
  160.9850  205.8130  152.0440 C   0  0  0  0  0  0  0  0  0  0  0  0
  160.8810  203.7290  150.8970 N   0  0  0  0  0  0  0  0  0  0  0  0
  160.9040  204.7180  148.5480 C   0  0  0  0  0  2  0  0  0  0  0  0
  161.0460  204.8710  150.0080 C   0  0  1  0  0  0  0  0  0  0  0  0
  161.1040  208.1280  152.7970 C   0  0  0  0  0  0  0  0  0  0  0  0
  160.8520  204.3380  152.2380 C   0  0  0  0  0  3  0  0  0  0  0  0
  161.5060  211.1100  155.8890 C   0  0  0  0  0  2  0  0  0  0  0  0
  160.3610  210.3800  153.7760 C   0  0  0  0  0  0  0  0  0  0  0  0
  159.7830  212.5920  154.8190 C   0  0  0  0  0  2  0  0  0  0  0  0
  161.1430  209.1760  153.7750 N   0  0  0  0  0  2  0  0  0  0  0  0
  160.2830  212.8070  157.2610 C   0  0  0  0  0  2  0  0  0  0  0  0
  160.9100  211.4160  157.2600 C   0  0  0  0  0  2  0  0  0  0  0  0
  159.5520  210.6180  152.8380 O   0  0  0  0  0  0  0  0  0  0  0  0
  159.1940  212.8920  156.1940 C   0  0  0  0  0  2  0  0  0  0  0  0
  160.4960  211.3170  154.8520 N   0  0  0  0  0  0  0  0  0  0  0  0
  161.1520  211.1340  148.1240 N   0  0  0  0  0  2  0  0  0  0  0  0
  161.3280  212.4880  148.6460 C   0  0  0  0  0  2  0  0  0  0  0  0
  161.0560  214.3940  147.2500 F   0  0  0  0  0  0  0  0  0  0  0  0
  163.0980  213.9510  148.0900 F   0  0  0  0  0  0  0  0  0  0  0  0
  161.9420  213.3870  147.5870 C   0  0  0  0  0  0  0  0  0  0  0  0
  162.2520  212.6460  146.4610 F   0  0  0  0  0  0  0  0  0  0  0  0
  1 10  1  6  0  0  0
  1  5  1  0  0  0  0
  1  4  1  0  0  0  0
  2 15  1  0  0  0  0
  3 11  2  0  0  0  0
  4  8  1  6  0  0  0
  4  2  1  0  0  0  0
  5  3  1  1  0  0  0
  5  2  1  0  0  0  0
  6 14  1  0  0  0  0
  9 26  1  1  0  0  0
  9  8  1  0  0  0  0
 10  9  1  0  0  0  0
 11 16  1  0  0  0  0
 11  7  1  0  0  0  0
 12 16  2  0  0  0  0
 13  6  1  0  0  0  0
 14 13  1  6  0  0  0
 14  3  1  0  0  0  0
 14 12  1  0  0  0  0
 15  7  2  0  0  0  0
 15 20  1  0  0  0  0
 17 22  1  0  0  0  0
 18 25  1  0  0  0  0
 19 25  1  0  0  0  0
 19 24  1  0  0  0  0
 20 18  1  0  0  0  0
 22 21  1  0  0  0  0
 23 18  2  0  0  0  0
 24 21  1  0  0  0  0
 25 17  1  0  0  0  0
 26 27  1  0  0  0  0
 28 30  1  0  0  0  0
 30 29  1  0  0  0  0
 30 27  1  0  0  0  0
 31 30  1  0  0  0  0
M  END
>  <MODEL>
3

>  <REMARK>
 VINA RESULT:      -7.8      1.553      2.146
  Name = 
  4 active torsions:
  status: ('A' for Active; 'I' for Inactive)
    1  A    between atoms: N_9  and  C_17
    2  A    between atoms: N_9  and  C_23
    3  A    between atoms: N_12  and  C_30
    4  A    between atoms: C_16  and  C_17
                            x       y       z     vdW  Elec       q    Type
                         _______ _______ _______ _____ _____    ______ ____

>  <TORSDO>
F 4

$$$$
=
 OpenBabel11072412103D

 31 36  0  0  1  0  0  0  0  0999 V2000
  161.7270  207.6670  152.7460 C   0  0  1  0  0  3  0  0  0  0  0  0
  160.6900  209.4960  152.0550 N   0  0  0  0  0  0  0  0  0  0  0  0
  160.6110  209.1610  154.4340 C   0  0  0  0  0  0  0  0  0  0  0  0
  161.8550  208.6860  151.6550 C   0  0  2  0  0  3  0  0  0  0  0  0
  160.5170  208.4670  153.0980 C   0  0  2  0  0  3  0  0  0  0  0  0
  161.7270  207.7890  156.0140 O   0  0  0  0  0  0  0  0  0  0  0  0
  160.3540  211.3930  153.4180 C   0  0  0  0  0  3  0  0  0  0  0  0
  161.5880  208.0080  150.3170 C   0  0  0  0  0  2  0  0  0  0  0  0
  161.4990  206.5220  150.6070 C   0  0  1  0  0  3  0  0  0  0  0  0
  161.3040  206.3580  152.1040 C   0  0  0  0  0  2  0  0  0  0  0  0
  160.4610  210.4680  154.5720 C   0  0  0  0  0  0  0  0  0  0  0  0
  160.4630  209.6140  156.7960 N   0  0  0  0  0  0  0  0  0  0  0  0
  160.4740  207.1520  156.1330 C   0  0  0  0  0  2  0  0  0  0  0  0
  160.5900  208.5790  155.7770 C   0  0  1  0  0  0  0  0  0  0  0  0
  160.4680  210.9010  152.1740 C   0  0  0  0  0  0  0  0  0  0  0  0
  160.3900  210.8590  156.0120 C   0  0  0  0  0  3  0  0  0  0  0  0
  160.1010  213.5360  148.7780 C   0  0  0  0  0  2  0  0  0  0  0  0
  161.4740  211.8260  150.0030 C   0  0  0  0  0  0  0  0  0  0  0  0
  162.3560  212.8700  147.8930 C   0  0  0  0  0  2  0  0  0  0  0  0
  160.4480  211.7270  151.0020 N   0  0  0  0  0  2  0  0  0  0  0  0
  160.6340  213.8260  146.3510 C   0  0  0  0  0  2  0  0  0  0  0  0
  159.5390  213.4940  147.3590 C   0  0  0  0  0  2  0  0  0  0  0  0
  162.5420  211.1640  150.1150 O   0  0  0  0  0  0  0  0  0  0  0  0
  161.7840  212.8310  146.4790 C   0  0  0  0  0  2  0  0  0  0  0  0
  161.2830  212.6800  148.8670 N   0  0  0  0  0  0  0  0  0  0  0  0
  160.4450  205.8630  149.8290 N   0  0  0  0  0  2  0  0  0  0  0  0
  160.4540  206.3210  148.4410 C   0  0  0  0  0  2  0  0  0  0  0  0
  160.8330  205.2540  146.3500 F   0  0  0  0  0  0  0  0  0  0  0  0
  162.5960  206.0980  147.4690 F   0  0  0  0  0  0  0  0  0  0  0  0
  161.3810  205.4570  147.6040 C   0  0  0  0  0  0  0  0  0  0  0  0
  161.5780  204.2370  148.2260 F   0  0  0  0  0  0  0  0  0  0  0  0
  1 10  1  6  0  0  0
  1  5  1  0  0  0  0
  2 15  1  0  0  0  0
  2  5  1  0  0  0  0
  3 11  2  0  0  0  0
  3 14  1  0  0  0  0
  4  8  1  6  0  0  0
  4  2  1  0  0  0  0
  4  1  1  0  0  0  0
  5  3  1  1  0  0  0
  6 13  1  0  0  0  0
  7 11  1  0  0  0  0
  8  9  1  0  0  0  0
  9 26  1  6  0  0  0
  9 10  1  0  0  0  0
 11 16  1  0  0  0  0
 14  6  1  0  0  0  0
 14 13  1  1  0  0  0
 14 12  1  0  0  0  0
 15  7  2  0  0  0  0
 16 12  2  0  0  0  0
 17 25  1  0  0  0  0
 18 23  2  0  0  0  0
 18 20  1  0  0  0  0
 19 25  1  0  0  0  0
 20 15  1  0  0  0  0
 21 24  1  0  0  0  0
 21 22  1  0  0  0  0
 22 17  1  0  0  0  0
 24 19  1  0  0  0  0
 25 18  1  0  0  0  0
 27 26  1  0  0  0  0
 28 30  1  0  0  0  0
 29 30  1  0  0  0  0
 30 31  1  0  0  0  0
 30 27  1  0  0  0  0
M  END
>  <MODEL>
4

>  <REMARK>
 VINA RESULT:      -7.4      3.151      7.289
  Name = 
  4 active torsions:
  status: ('A' for Active; 'I' for Inactive)
    1  A    between atoms: N_9  and  C_17
    2  A    between atoms: N_9  and  C_23
    3  A    between atoms: N_12  and  C_30
    4  A    between atoms: C_16  and  C_17
                            x       y       z     vdW  Elec       q    Type
                         _______ _______ _______ _____ _____    ______ ____

>  <TORSDO>
F 4

$$$$
=
 OpenBabel11072412103D

 31 36  0  0  1  0  0  0  0  0999 V2000
  162.0560  206.8930  150.5550 C   0  0  1  0  0  3  0  0  0  0  0  0
  161.2100  208.9300  150.3780 N   0  0  0  0  0  0  0  0  0  0  0  0
  161.2140  208.0590  152.6190 C   0  0  0  0  0  0  0  0  0  0  0  0
  162.2480  208.1200  149.7160 C   0  0  2  0  0  3  0  0  0  0  0  0
  160.9690  207.7090  151.1710 C   0  0  2  0  0  3  0  0  0  0  0  0
  162.2380  206.2470  153.7560 O   0  0  0  0  0  0  0  0  0  0  0  0
  161.1730  210.4810  152.1570 C   0  0  0  0  0  3  0  0  0  0  0  0
  161.8350  207.8050  148.2840 C   0  0  0  0  0  2  0  0  0  0  0  0
  161.5850  206.3100  148.2370 C   0  0  1  0  0  3  0  0  0  0  0  0
  161.4480  205.8210  149.6680 C   0  0  0  0  0  2  0  0  0  0  0  0
  161.2280  209.3050  153.0600 C   0  0  0  0  0  0  0  0  0  0  0  0
  161.2420  207.9590  155.0250 N   0  0  0  0  0  0  0  0  0  0  0  0
  160.9260  205.7330  153.8240 C   0  0  0  0  0  2  0  0  0  0  0  0
  161.1930  207.1840  153.7930 C   0  0  1  0  0  0  0  0  0  0  0  0
  161.1640  210.2830  150.8290 C   0  0  0  0  0  0  0  0  0  0  0  0
  161.2780  209.3540  154.5530 C   0  0  0  0  0  3  0  0  0  0  0  0
  160.9450  213.6670  148.1630 C   0  0  0  0  0  2  0  0  0  0  0  0
  162.1430  211.5640  148.8340 C   0  0  0  0  0  0  0  0  0  0  0  0
  163.0200  212.9590  146.9360 C   0  0  0  0  0  2  0  0  0  0  0  0
  161.1820  211.3580  149.8800 N   0  0  0  0  0  2  0  0  0  0  0  0
  161.3510  214.4530  145.8220 C   0  0  0  0  0  2  0  0  0  0  0  0
  160.2890  214.0290  146.8330 C   0  0  0  0  0  2  0  0  0  0  0  0
  163.1120  210.7700  148.6900 O   0  0  0  0  0  0  0  0  0  0  0  0
  162.3560  213.3240  145.6120 C   0  0  0  0  0  2  0  0  0  0  0  0
  161.9980  212.6770  147.9430 N   0  0  0  0  0  0  0  0  0  0  0  0
  160.4210  205.9640  147.4140 N   0  0  0  0  0  2  0  0  0  0  0  0
  160.6620  206.2800  146.0070 C   0  0  0  0  0  2  0  0  0  0  0  0
  162.8080  205.5260  145.3140 F   0  0  0  0  0  0  0  0  0  0  0  0
  161.3250  204.0130  146.0760 F   0  0  0  0  0  0  0  0  0  0  0  0
  161.4700  205.1760  145.3470 C   0  0  0  0  0  0  0  0  0  0  0  0
  161.0150  204.9640  144.0580 F   0  0  0  0  0  0  0  0  0  0  0  0
  1 10  1  6  0  0  0
  1  5  1  0  0  0  0
  2 15  1  0  0  0  0
  2  5  1  0  0  0  0
  3 11  2  0  0  0  0
  3 14  1  0  0  0  0
  4  8  1  6  0  0  0
  4  2  1  0  0  0  0
  4  1  1  0  0  0  0
  5  3  1  1  0  0  0
  6 14  1  0  0  0  0
  6 13  1  0  0  0  0
  7 11  1  0  0  0  0
  9 26  1  6  0  0  0
  9  8  1  0  0  0  0
  9 10  1  0  0  0  0
 11 16  1  0  0  0  0
 14 13  1  6  0  0  0
 14 12  1  0  0  0  0
 15  7  2  0  0  0  0
 16 12  2  0  0  0  0
 18 20  1  0  0  0  0
 19 25  1  0  0  0  0
 20 15  1  0  0  0  0
 21 22  1  0  0  0  0
 22 17  1  0  0  0  0
 23 18  2  0  0  0  0
 24 21  1  0  0  0  0
 24 19  1  0  0  0  0
 25 17  1  0  0  0  0
 25 18  1  0  0  0  0
 27 26  1  0  0  0  0
 28 30  1  0  0  0  0
 30 27  1  0  0  0  0
 30 29  1  0  0  0  0
 31 30  1  0  0  0  0
M  END
>  <MODEL>
5

>  <REMARK>
 VINA RESULT:      -7.0      3.282      6.923
  Name = 
  4 active torsions:
  status: ('A' for Active; 'I' for Inactive)
    1  A    between atoms: N_9  and  C_17
    2  A    between atoms: N_9  and  C_23
    3  A    between atoms: N_12  and  C_30
    4  A    between atoms: C_16  and  C_17
                            x       y       z     vdW  Elec       q    Type
                         _______ _______ _______ _____ _____    ______ ____

>  <TORSDO>
F 4

$$$$
=
 OpenBabel11072412103D

 31 36  0  0  1  0  0  0  0  0999 V2000
  161.0320  210.6480  153.7790 C   0  0  1  0  0  3  0  0  0  0  0  0
  159.3800  211.5000  152.5790 N   0  0  0  0  0  0  0  0  0  0  0  0
  159.2510  212.0050  154.9250 C   0  0  0  0  0  0  0  0  0  0  0  0
  160.8080  211.1800  152.3970 C   0  0  2  0  0  3  0  0  0  0  0  0
  159.5730  210.9240  153.9230 C   0  0  2  0  0  3  0  0  0  0  0  0
  160.7060  211.8750  156.7940 O   0  0  0  0  0  0  0  0  0  0  0  0
  158.1590  213.4150  153.2220 C   0  0  0  0  0  3  0  0  0  0  0  0
  160.9670  210.0390  151.4000 C   0  0  0  0  0  2  0  0  0  0  0  0
  161.4920  208.8570  152.1930 C   0  0  1  0  0  3  0  0  0  0  0  0
  161.2600  209.1510  153.6640 C   0  0  0  0  0  2  0  0  0  0  0  0
  158.5510  213.0830  154.6140 C   0  0  0  0  0  0  0  0  0  0  0  0
  158.7270  213.1330  156.9880 N   0  0  0  0  0  0  0  0  0  0  0  0
  159.8360  210.8490  157.2200 C   0  0  0  0  0  2  0  0  0  0  0  0
  159.3660  211.9710  156.3850 C   0  0  1  0  0  0  0  0  0  0  0  0
  158.5750  212.6230  152.2210 C   0  0  0  0  0  0  0  0  0  0  0  0
  158.1990  213.8750  155.8310 C   0  0  0  0  0  3  0  0  0  0  0  0
  157.4220  213.3540  148.1290 C   0  0  0  0  0  2  0  0  0  0  0  0
  159.1880  213.5410  149.9050 C   0  0  0  0  0  0  0  0  0  0  0  0
  159.6190  214.4520  147.6020 C   0  0  0  0  0  2  0  0  0  0  0  0
  158.3060  212.9030  150.8400 N   0  0  0  0  0  2  0  0  0  0  0  0
  158.2370  213.4660  145.7660 C   0  0  0  0  0  2  0  0  0  0  0  0
  157.4680  212.6310  146.7850 C   0  0  0  0  0  2  0  0  0  0  0  0
  160.3250  213.9450  150.2710 O   0  0  0  0  0  0  0  0  0  0  0  0
  159.6570  213.7240  146.2620 C   0  0  0  0  0  2  0  0  0  0  0  0
  158.7760  213.7160  148.5430 N   0  0  0  0  0  0  0  0  0  0  0  0
  160.8860  207.5900  151.7730 N   0  0  0  0  0  2  0  0  0  0  0  0
  161.9070  206.5660  151.5600 C   0  0  0  0  0  2  0  0  0  0  0  0
  160.9740  205.1260  153.2060 F   0  0  0  0  0  0  0  0  0  0  0  0
  160.2470  204.9530  151.0820 F   0  0  0  0  0  0  0  0  0  0  0  0
  161.3510  205.1890  151.8770 C   0  0  0  0  0  0  0  0  0  0  0  0
  162.3080  204.2230  151.6210 F   0  0  0  0  0  0  0  0  0  0  0  0
  1 10  1  6  0  0  0
  1  5  1  0  0  0  0
  2  5  1  0  0  0  0
  3 14  1  0  0  0  0
  4  8  1  6  0  0  0
  4  2  1  0  0  0  0
  4  1  1  0  0  0  0
  5  3  1  1  0  0  0
  6 13  1  0  0  0  0
  7 11  1  0  0  0  0
  8  9  1  0  0  0  0
  9 26  1  6  0  0  0
  9 10  1  0  0  0  0
 11  3  2  0  0  0  0
 11 16  1  0  0  0  0
 14  6  1  0  0  0  0
 14 12  1  0  0  0  0
 14 13  1  1  0  0  0
 15  2  1  0  0  0  0
 15  7  2  0  0  0  0
 16 12  2  0  0  0  0
 17 25  1  0  0  0  0
 18 23  2  0  0  0  0
 18 20  1  0  0  0  0
 19 25  1  0  0  0  0
 20 15  1  0  0  0  0
 21 24  1  0  0  0  0
 21 22  1  0  0  0  0
 22 17  1  0  0  0  0
 24 19  1  0  0  0  0
 25 18  1  0  0  0  0
 27 26  1  0  0  0  0
 27 30  1  0  0  0  0
 29 30  1  0  0  0  0
 30 28  1  0  0  0  0
 31 30  1  0  0  0  0
M  END
>  <MODEL>
6

>  <REMARK>
 VINA RESULT:      -6.8      4.421      8.862
  Name = 
  4 active torsions:
  status: ('A' for Active; 'I' for Inactive)
    1  A    between atoms: N_9  and  C_17
    2  A    between atoms: N_9  and  C_23
    3  A    between atoms: N_12  and  C_30
    4  A    between atoms: C_16  and  C_17
                            x       y       z     vdW  Elec       q    Type
                         _______ _______ _______ _____ _____    ______ ____

>  <TORSDO>
F 4

$$$$
=
 OpenBabel11072412103D

 31 36  0  0  1  0  0  0  0  0999 V2000
  158.9450  213.1520  152.7050 C   0  0  1  0  0  3  0  0  0  0  0  0
  160.1350  211.2860  152.6440 N   0  0  0  0  0  0  0  0  0  0  0  0
  159.6480  212.0680  154.8640 C   0  0  0  0  0  0  0  0  0  0  0  0
  159.0890  211.9390  151.8360 C   0  0  2  0  0  3  0  0  0  0  0  0
  160.0470  212.5020  153.4760 C   0  0  2  0  0  3  0  0  0  0  0  0
  158.1770  213.6490  155.8460 O   0  0  0  0  0  0  0  0  0  0  0  0
  160.1600  209.7030  154.3940 C   0  0  0  0  0  3  0  0  0  0  0  0
  159.6550  212.3660  150.4890 C   0  0  0  0  0  2  0  0  0  0  0  0
  159.6580  213.8830  150.4930 C   0  0  1  0  0  3  0  0  0  0  0  0
  159.4930  214.3380  151.9320 C   0  0  0  0  0  2  0  0  0  0  0  0
  159.7750  210.8220  155.2880 C   0  0  0  0  0  0  0  0  0  0  0  0
  159.2400  212.0790  157.2390 N   0  0  0  0  0  0  0  0  0  0  0  0
  159.3600  214.3670  156.1200 C   0  0  0  0  0  2  0  0  0  0  0  0
  159.3460  212.8940  156.0350 C   0  0  1  0  0  0  0  0  0  0  0  0
  160.3370  209.9440  153.0850 C   0  0  0  0  0  0  0  0  0  0  0  0
  159.5090  210.7140  156.7540 C   0  0  0  0  0  3  0  0  0  0  0  0
  161.2610  207.1040  149.9710 C   0  0  0  0  0  2  0  0  0  0  0  0
  160.9180  207.5350  152.4220 C   0  0  0  0  0  0  0  0  0  0  0  0
  161.5520  205.2370  151.6260 C   0  0  0  0  0  2  0  0  0  0  0  0
  160.6410  208.9140  152.1350 N   0  0  0  0  0  2  0  0  0  0  0  0
  161.0130  204.7260  149.2370 C   0  0  0  0  0  2  0  0  0  0  0  0
  160.5150  206.1540  149.0380 C   0  0  0  0  0  2  0  0  0  0  0  0
  160.9360  207.1210  153.6130 O   0  0  0  0  0  0  0  0  0  0  0  0
  160.8050  204.2950  150.6870 C   0  0  0  0  0  2  0  0  0  0  0  0
  161.1700  206.6200  151.3480 N   0  0  0  0  0  0  0  0  0  0  0  0
  160.8590  214.4410  149.8630 N   0  0  0  0  0  2  0  0  0  0  0  0
  160.8220  214.2610  148.4130 C   0  0  0  0  0  2  0  0  0  0  0  0
  162.2980  212.4570  148.8810 F   0  0  0  0  0  0  0  0  0  0  0  0
  161.7080  212.8440  146.7430 F   0  0  0  0  0  0  0  0  0  0  0  0
  162.0120  213.4400  147.9510 C   0  0  0  0  0  0  0  0  0  0  0  0
  163.1150  214.2580  147.7880 F   0  0  0  0  0  0  0  0  0  0  0  0
  1 10  1  6  0  0  0
  1  5  1  0  0  0  0
  2 15  1  0  0  0  0
  2  5  1  0  0  0  0
  3 11  2  0  0  0  0
  3 14  1  0  0  0  0
  4  8  1  6  0  0  0
  4  2  1  0  0  0  0
  4  1  1  0  0  0  0
  5  3  1  1  0  0  0
  6 14  1  0  0  0  0
  6 13  1  0  0  0  0
  7 11  1  0  0  0  0
  8  9  1  0  0  0  0
  9 26  1  1  0  0  0
  9 10  1  0  0  0  0
 11 16  1  0  0  0  0
 14 13  1  1  0  0  0
 14 12  1  0  0  0  0
 15  7  2  0  0  0  0
 16 12  2  0  0  0  0
 17 25  1  0  0  0  0
 18 23  2  0  0  0  0
 20 18  1  0  0  0  0
 20 15  1  0  0  0  0
 21 24  1  0  0  0  0
 22 21  1  0  0  0  0
 22 17  1  0  0  0  0
 24 19  1  0  0  0  0
 25 19  1  0  0  0  0
 25 18  1  0  0  0  0
 27 26  1  0  0  0  0
 29 30  1  0  0  0  0
 30 27  1  0  0  0  0
 30 28  1  0  0  0  0
 31 30  1  0  0  0  0
M  END
>  <MODEL>
7

>  <REMARK>
 VINA RESULT:      -6.5      2.665      7.284
  Name = 
  4 active torsions:
  status: ('A' for Active; 'I' for Inactive)
    1  A    between atoms: N_9  and  C_17
    2  A    between atoms: N_9  and  C_23
    3  A    between atoms: N_12  and  C_30
    4  A    between atoms: C_16  and  C_17
                            x       y       z     vdW  Elec       q    Type
                         _______ _______ _______ _____ _____    ______ ____

>  <TORSDO>
F 4

$$$$
=
 OpenBabel11072412103D

 31 36  0  0  1  0  0  0  0  0999 V2000
  160.4170  204.4620  150.2710 C   0  0  1  0  0  3  0  0  0  0  0  0
  161.2270  206.1010  149.0230 N   0  0  0  0  0  0  0  0  0  0  0  0
  161.2860  203.9410  147.9680 C   0  0  0  0  0  0  0  0  0  0  0  0
  160.1870  205.9270  150.0530 C   0  0  2  0  0  3  0  0  0  0  0  0
  161.5040  204.6720  149.2700 C   0  0  2  0  0  3  0  0  0  0  0  0
  160.3160  201.8120  148.3560 O   0  0  0  0  0  0  0  0  0  0  0  0
  161.2790  206.0340  146.6640 C   0  0  0  0  0  3  0  0  0  0  0  0
  160.5730  206.6770  151.3210 C   0  0  0  0  0  2  0  0  0  0  0  0
  160.8460  205.6180  152.3720 C   0  0  1  0  0  3  0  0  0  0  0  0
  161.0210  204.2920  151.6530 C   0  0  0  0  0  2  0  0  0  0  0  0
  161.2630  204.5570  146.7980 C   0  0  0  0  0  0  0  0  0  0  0  0
  161.3130  202.2360  146.2670 N   0  0  0  0  0  0  0  0  0  0  0  0
  161.6370  201.4230  148.6620 C   0  0  0  0  0  2  0  0  0  0  0  0
  161.3470  202.5030  147.6990 C   0  0  1  0  0  0  0  0  0  0  0  0
  161.2620  206.7900  147.7740 C   0  0  0  0  0  0  0  0  0  0  0  0
  161.2450  203.5790  145.6680 C   0  0  0  0  0  3  0  0  0  0  0  0
  160.8170  211.0680  147.4400 C   0  0  0  0  0  2  0  0  0  0  0  0
  161.9460  209.1300  148.5710 C   0  0  0  0  0  0  0  0  0  0  0  0
  162.4680  211.4830  149.2870 C   0  0  0  0  0  2  0  0  0  0  0  0
  161.2060  208.2230  147.7420 N   0  0  0  0  0  2  0  0  0  0  0  0
  162.0070  213.2630  147.5920 C   0  0  0  0  0  2  0  0  0  0  0  0
  161.4270  212.2180  146.6440 C   0  0  0  0  0  2  0  0  0  0  0  0
  162.7290  208.6930  149.4580 O   0  0  0  0  0  0  0  0  0  0  0  0
  163.0720  212.6300  148.4830 C   0  0  0  0  0  2  0  0  0  0  0  0
  161.8000  210.5440  148.3870 N   0  0  0  0  0  0  0  0  0  0  0  0
  161.9960  205.9530  153.2180 N   0  0  0  0  0  2  0  0  0  0  0  0
  161.9900  207.3710  153.5720 C   0  0  0  0  0  2  0  0  0  0  0  0
  161.9640  208.0170  155.8600 F   0  0  0  0  0  0  0  0  0  0  0  0
  160.2150  208.5800  154.5580 F   0  0  0  0  0  0  0  0  0  0  0  0
  161.1540  207.6020  154.8190 C   0  0  0  0  0  0  0  0  0  0  0  0
  160.5050  206.4330  155.1750 F   0  0  0  0  0  0  0  0  0  0  0  0
  1 10  1  1  0  0  0
  2  5  1  0  0  0  0
  2  4  1  0  0  0  0
  4  1  1  0  0  0  0
  4  8  1  1  0  0  0
  5  3  1  6  0  0  0
  5  1  1  0  0  0  0
  6 13  1  0  0  0  0
  7 11  1  0  0  0  0
  7 15  2  0  0  0  0
  8  9  1  0  0  0  0
  9 26  1  6  0  0  0
 10  9  1  0  0  0  0
 11  3  2  0  0  0  0
 12 14  1  0  0  0  0
 14  3  1  0  0  0  0
 14  6  1  0  0  0  0
 14 13  1  1  0  0  0
 15  2  1  0  0  0  0
 16 12  2  0  0  0  0
 16 11  1  0  0  0  0
 17 25  1  0  0  0  0
 18 23  2  0  0  0  0
 20 15  1  0  0  0  0
 20 18  1  0  0  0  0
 21 24  1  0  0  0  0
 22 17  1  0  0  0  0
 22 21  1  0  0  0  0
 24 19  1  0  0  0  0
 25 18  1  0  0  0  0
 25 19  1  0  0  0  0
 26 27  1  0  0  0  0
 27 30  1  0  0  0  0
 29 30  1  0  0  0  0
 30 31  1  0  0  0  0
 30 28  1  0  0  0  0
M  END
>  <MODEL>
8

>  <REMARK>
 VINA RESULT:      -6.5      3.288      6.175
  Name = 
  4 active torsions:
  status: ('A' for Active; 'I' for Inactive)
    1  A    between atoms: N_9  and  C_17
    2  A    between atoms: N_9  and  C_23
    3  A    between atoms: N_12  and  C_30
    4  A    between atoms: C_16  and  C_17
                            x       y       z     vdW  Elec       q    Type
                         _______ _______ _______ _____ _____    ______ ____

>  <TORSDO>
F 4

$$$$
=
 OpenBabel11072412103D

 31 36  0  0  1  0  0  0  0  0999 V2000
  159.4950  211.5340  153.7060 C   0  0  1  0  0  3  0  0  0  0  0  0
  160.5460  209.8920  152.6580 N   0  0  0  0  0  0  0  0  0  0  0  0
  160.9890  209.9930  155.0180 C   0  0  0  0  0  0  0  0  0  0  0  0
  159.2700  210.6220  152.5390 C   0  0  2  0  0  3  0  0  0  0  0  0
  160.8060  210.8240  153.7720 C   0  0  2  0  0  3  0  0  0  0  0  0
  160.0440  211.0850  156.9000 O   0  0  0  0  0  0  0  0  0  0  0  0
  161.2500  207.9090  153.7260 C   0  0  0  0  0  3  0  0  0  0  0  0
  159.2570  211.4530  151.2620 C   0  0  0  0  0  2  0  0  0  0  0  0
  159.2750  212.9040  151.7040 C   0  0  1  0  0  3  0  0  0  0  0  0
  159.7010  212.9360  153.1610 C   0  0  0  0  0  2  0  0  0  0  0  0
  161.2620  208.7000  154.9810 C   0  0  0  0  0  0  0  0  0  0  0  0
  161.5600  209.3230  157.2610 N   0  0  0  0  0  0  0  0  0  0  0  0
  161.2450  211.8250  156.8950 C   0  0  0  0  0  2  0  0  0  0  0  0
  161.1850  210.4370  156.4000 C   0  0  1  0  0  0  0  0  0  0  0  0
  160.8940  208.5110  152.5800 C   0  0  0  0  0  0  0  0  0  0  0  0
  161.6010  208.1750  156.3390 C   0  0  0  0  0  3  0  0  0  0  0  0
  160.2890  206.2230  148.9720 C   0  0  0  0  0  2  0  0  0  0  0  0
  161.5110  208.0910  150.1250 C   0  0  0  0  0  0  0  0  0  0  0  0
  161.9630  207.5990  147.7020 C   0  0  0  0  0  2  0  0  0  0  0  0
  160.7860  207.8120  151.3320 N   0  0  0  0  0  2  0  0  0  0  0  0
  161.4020  205.2840  146.9380 C   0  0  0  0  0  2  0  0  0  0  0  0
  160.8410  204.9590  148.3190 C   0  0  0  0  0  2  0  0  0  0  0  0
  162.3280  209.0510  150.0770 O   0  0  0  0  0  0  0  0  0  0  0  0
  162.5080  206.3300  147.0550 C   0  0  0  0  0  2  0  0  0  0  0  0
  161.3100  207.2700  148.9680 N   0  0  0  0  0  0  0  0  0  0  0  0
  160.1310  213.7360  150.8520 N   0  0  0  0  0  2  0  0  0  0  0  0
  159.8940  213.4560  149.4370 C   0  0  0  0  0  2  0  0  0  0  0  0
  161.8900  212.1700  149.3070 F   0  0  0  0  0  0  0  0  0  0  0  0
  160.9500  212.9040  147.3970 F   0  0  0  0  0  0  0  0  0  0  0  0
  161.2090  213.2190  148.7160 C   0  0  0  0  0  0  0  0  0  0  0  0
  161.9870  214.3620  148.7650 F   0  0  0  0  0  0  0  0  0  0  0  0
  1 10  1  6  0  0  0
  1  5  1  0  0  0  0
  2  5  1  0  0  0  0
  3 14  1  0  0  0  0
  4  8  1  6  0  0  0
  4  2  1  0  0  0  0
  4  1  1  0  0  0  0
  5  3  1  1  0  0  0
  7 11  1  0  0  0  0
  8  9  1  0  0  0  0
  9 26  1  6  0  0  0
  9 10  1  0  0  0  0
 11  3  2  0  0  0  0
 11 16  1  0  0  0  0
 13  6  1  0  0  0  0
 14 13  1  1  0  0  0
 14  6  1  0  0  0  0
 14 12  1  0  0  0  0
 15  2  1  0  0  0  0
 15  7  2  0  0  0  0
 16 12  2  0  0  0  0
 18 20  1  0  0  0  0
 19 25  1  0  0  0  0
 20 15  1  0  0  0  0
 21 24  1  0  0  0  0
 21 22  1  0  0  0  0
 22 17  1  0  0  0  0
 23 18  2  0  0  0  0
 24 19  1  0  0  0  0
 25 17  1  0  0  0  0
 25 18  1  0  0  0  0
 27 26  1  0  0  0  0
 29 30  1  0  0  0  0
 30 31  1  0  0  0  0
 30 28  1  0  0  0  0
 30 27  1  0  0  0  0
M  END
>  <MODEL>
9

>  <REMARK>
 VINA RESULT:      -6.4      2.256      6.928
  Name = 
  4 active torsions:
  status: ('A' for Active; 'I' for Inactive)
    1  A    between atoms: N_9  and  C_17
    2  A    between atoms: N_9  and  C_23
    3  A    between atoms: N_12  and  C_30
    4  A    between atoms: C_16  and  C_17
                            x       y       z     vdW  Elec       q    Type
                         _______ _______ _______ _____ _____    ______ ____

>  <TORSDO>
F 4

$$$$
