=
 OpenBabel11072412243D

 27 30  0  0  1  0  0  0  0  0999 V2000
  160.8680  207.3130  152.8280 C   0  0  0  0  0  2  0  0  0  0  0  0
  161.3960  208.2480  155.6420 N   0  0  0  0  0  0  0  0  0  0  0  0
  160.6570  211.5020  154.1030 N   0  0  0  0  0  0  0  0  0  0  0  0
  162.0440  208.6640  156.6880 C   0  0  0  0  0  3  0  0  0  0  0  0
  159.9120  211.1560  152.9030 C   0  0  0  0  0  2  0  0  0  0  0  0
  161.5360  208.6290  153.2190 C   0  0  1  0  0  3  0  0  0  0  0  0
  162.3440  210.0910  156.8700 C   0  0  0  0  0  3  0  0  0  0  0  0
  160.8360  210.6400  151.9040 N   0  0  0  0  0  0  0  0  0  0  0  0
  161.5810  209.5750  152.0250 C   0  0  0  0  0  0  0  0  0  0  0  0
  161.1800  210.5850  154.8520 C   0  0  0  0  0  0  0  0  0  0  0  0
  160.9390  209.1190  154.5510 C   0  0  2  0  0  3  0  0  0  0  0  0
  161.9300  210.9670  156.0090 N   0  0  0  0  0  0  0  0  0  0  0  0
  162.0390  208.9820  149.6690 C   0  0  0  0  0  1  0  0  0  0  0  0
  162.4690  209.2410  150.9980 O   0  0  0  0  0  0  0  0  0  0  0  0
  161.8700  206.1690  152.7820 C   0  0  0  0  0  2  0  0  0  0  0  0
  161.1500  204.8290  152.7590 C   0  0  0  0  0  2  0  0  0  0  0  0
  161.6760  203.9690  151.6220 C   0  0  0  0  0  2  0  0  0  0  0  0
  160.4880  201.9710  147.6240 N   0  0  0  0  0  2  0  0  0  0  0  0
  161.3370  204.8300  149.4050 O   0  0  0  0  0  0  0  0  0  0  0  0
  161.2240  202.6910  148.5730 N   0  0  2  0  0  0  0  0  0  0  0  0
  160.7520  204.0400  150.4130 C   0  0  1  0  0  3  0  0  0  0  0  0
  160.5500  202.6470  149.8440 C   0  0  0  0  0  2  0  0  0  0  0  0
  161.1050  204.0890  148.2420 C   0  0  2  0  0  3  0  0  0  0  0  0
  162.0800  204.3970  147.1300 C   0  0  0  0  0  2  0  0  0  0  0  0
  161.4450  203.6730  145.5690 S   0  0  0  0  0  0  0  0  0  0  0  0
  160.7880  202.1160  146.2300 C   0  0  0  0  0  0  0  0  0  0  0  0
  160.2620  200.9810  145.1820 S   0  0  0  0  0  0  0  0  0  0  0  0
  2  4  2  0  0  0  0
  3 10  2  0  0  0  0
  4  7  1  0  0  0  0
  5  3  1  0  0  0  0
  6  1  1  6  0  0  0
  6 11  1  0  0  0  0
  8  9  2  0  0  0  0
  8  5  1  0  0  0  0
  9  6  1  0  0  0  0
 10 12  1  0  0  0  0
 11 10  1  1  0  0  0
 11  2  1  0  0  0  0
 12  7  2  0  0  0  0
 13 14  1  0  0  0  0
 14  9  1  0  0  0  0
 15  1  1  0  0  0  0
 16 15  1  0  0  0  0
 17 16  1  0  0  0  0
 18 20  1  0  0  0  0
 19 21  1  0  0  0  0
 20 22  1  1  0  0  0
 21 17  1  1  0  0  0
 22 21  1  0  0  0  0
 23 24  1  6  0  0  0
 23 20  1  0  0  0  0
 23 19  1  0  0  0  0
 25 26  1  0  0  0  0
 25 24  1  0  0  0  0
 26 18  1  0  0  0  0
 27 26  2  0  0  0  0
M  END
>  <MODEL>
1

>  <REMARK>
 VINA RESULT:      -8.0      0.000      0.000
  Name = 
  6 active torsions:
  status: ('A' for Active; 'I' for Inactive)
    1  A    between atoms: C_3  and  C_8
    2  A    between atoms: C_3  and  C_13
    3  A    between atoms: C_13  and  C_14
    4  A    between atoms: C_14  and  C_19
    5  A    between atoms: C_16  and  C_19
    6  A    between atoms: C_21  and  O_27
                            x       y       z     vdW  Elec       q    Type
                         _______ _______ _______ _____ _____    ______ ____

>  <TORSDO>
F 6

$$$$
=
 OpenBabel11072412243D

 27 30  0  0  1  0  0  0  0  0999 V2000
  161.6120  203.7960  149.6550 C   0  0  0  0  0  2  0  0  0  0  0  0
  160.8130  201.7860  147.5590 N   0  0  0  0  0  0  0  0  0  0  0  0
  162.2910  204.3320  145.3570 N   0  0  0  0  0  0  0  0  0  0  0  0
  160.0870  201.1600  146.6810 C   0  0  0  0  0  3  0  0  0  0  0  0
  163.1460  205.1020  146.2460 C   0  0  0  0  0  2  0  0  0  0  0  0
  161.1100  204.1250  148.2510 C   0  0  1  0  0  3  0  0  0  0  0  0
  159.9940  201.6440  145.2980 C   0  0  0  0  0  3  0  0  0  0  0  0
  162.3160  205.9700  147.0670 N   0  0  0  0  0  0  0  0  0  0  0  0
  161.4010  205.5820  147.9130 C   0  0  0  0  0  0  0  0  0  0  0  0
  161.5190  203.3990  145.8170 C   0  0  0  0  0  0  0  0  0  0  0  0
  161.5660  203.0170  147.2830 C   0  0  2  0  0  3  0  0  0  0  0  0
  160.6700  202.6820  144.9150 N   0  0  0  0  0  0  0  0  0  0  0  0
  161.2000  207.7450  149.0920 C   0  0  0  0  0  1  0  0  0  0  0  0
  160.6400  206.5420  148.5860 O   0  0  0  0  0  0  0  0  0  0  0  0
  160.7500  204.4510  150.7250 C   0  0  0  0  0  2  0  0  0  0  0  0
  161.5160  204.5630  152.0330 C   0  0  0  0  0  2  0  0  0  0  0  0
  161.8950  206.0100  152.2990 C   0  0  0  0  0  2  0  0  0  0  0  0
  160.6000  209.9980  154.2500 N   0  0  0  0  0  2  0  0  0  0  0  0
  160.8950  206.5410  154.4180 O   0  0  0  0  0  0  0  0  0  0  0  0
  161.2590  208.7790  154.0480 N   0  0  2  0  0  0  0  0  0  0  0  0
  160.7760  206.7400  153.0290 C   0  0  1  0  0  3  0  0  0  0  0  0
  160.8880  208.2330  152.7700 C   0  0  0  0  0  2  0  0  0  0  0  0
  160.6710  207.8170  154.9460 C   0  0  2  0  0  3  0  0  0  0  0  0
  161.2780  208.0140  156.3150 C   0  0  0  0  0  2  0  0  0  0  0  0
  160.5950  209.5500  157.0480 S   0  0  0  0  0  0  0  0  0  0  0  0
  160.5680  210.5830  155.5570 C   0  0  0  0  0  0  0  0  0  0  0  0
  160.2080  212.1680  155.7100 S   0  0  0  0  0  0  0  0  0  0  0  0
  1 15  1  0  0  0  0
  3 10  2  0  0  0  0
  3  5  1  0  0  0  0
  4  2  2  0  0  0  0
  5  8  1  0  0  0  0
  6  1  1  1  0  0  0
  7  4  1  0  0  0  0
  8  9  2  0  0  0  0
  9  6  1  0  0  0  0
  9 14  1  0  0  0  0
 11 10  1  6  0  0  0
 11  2  1  0  0  0  0
 11  6  1  0  0  0  0
 12  7  2  0  0  0  0
 12 10  1  0  0  0  0
 14 13  1  0  0  0  0
 15 16  1  0  0  0  0
 16 17  1  0  0  0  0
 18 26  1  0  0  0  0
 19 23  1  0  0  0  0
 20 22  1  6  0  0  0
 20 18  1  0  0  0  0
 20 23  1  0  0  0  0
 21 17  1  6  0  0  0
 21 19  1  0  0  0  0
 22 21  1  0  0  0  0
 23 24  1  1  0  0  0
 24 25  1  0  0  0  0
 26 27  2  0  0  0  0
 26 25  1  0  0  0  0
M  END
>  <MODEL>
2

>  <REMARK>
 VINA RESULT:      -7.3      4.094      9.180
  Name = 
  6 active torsions:
  status: ('A' for Active; 'I' for Inactive)
    1  A    between atoms: C_3  and  C_8
    2  A    between atoms: C_3  and  C_13
    3  A    between atoms: C_13  and  C_14
    4  A    between atoms: C_14  and  C_19
    5  A    between atoms: C_16  and  C_19
    6  A    between atoms: C_21  and  O_27
                            x       y       z     vdW  Elec       q    Type
                         _______ _______ _______ _____ _____    ______ ____

>  <TORSDO>
F 6

$$$$
=
 OpenBabel11072412243D

 27 30  0  0  1  0  0  0  0  0999 V2000
  162.1170  209.8810  152.3280 C   0  0  0  0  0  2  0  0  0  0  0  0
  160.0000  211.9710  152.8020 N   0  0  0  0  0  0  0  0  0  0  0  0
  159.6220  210.0740  155.9280 N   0  0  0  0  0  0  0  0  0  0  0  0
  158.8440  212.5620  152.7860 C   0  0  0  0  0  3  0  0  0  0  0  0
  160.8850  209.3650  156.0560 C   0  0  0  0  0  2  0  0  0  0  0  0
  160.7910  209.6580  153.0520 C   0  0  1  0  0  3  0  0  0  0  0  0
  157.8300  212.2620  153.8060 C   0  0  0  0  0  3  0  0  0  0  0  0
  160.9010  208.2520  155.1190 N   0  0  0  0  0  0  0  0  0  0  0  0
  160.8230  208.3420  153.8200 C   0  0  0  0  0  0  0  0  0  0  0  0
  159.3540  210.7730  154.8710 C   0  0  0  0  0  0  0  0  0  0  0  0
  160.3960  210.9530  153.7850 C   0  0  2  0  0  3  0  0  0  0  0  0
  158.0880  211.4330  154.7690 N   0  0  0  0  0  0  0  0  0  0  0  0
  161.6080  206.0480  153.3370 C   0  0  0  0  0  1  0  0  0  0  0  0
  160.7870  207.1720  153.0540 O   0  0  0  0  0  0  0  0  0  0  0  0
  161.9530  209.7890  150.8180 C   0  0  0  0  0  2  0  0  0  0  0  0
  162.3380  208.4040  150.3220 C   0  0  0  0  0  2  0  0  0  0  0  0
  162.1200  208.3030  148.8220 C   0  0  0  0  0  2  0  0  0  0  0  0
  160.7710  203.9280  149.4780 N   0  0  0  0  0  2  0  0  0  0  0  0
  161.4090  206.5710  147.3150 O   0  0  0  0  0  0  0  0  0  0  0  0
  161.5030  205.0300  149.0160 N   0  0  2  0  0  0  0  0  0  0  0  0
  161.0620  207.2580  148.4950 C   0  0  1  0  0  3  0  0  0  0  0  0
  160.9930  206.2350  149.6160 C   0  0  0  0  0  2  0  0  0  0  0  0
  161.1500  205.2350  147.6340 C   0  0  2  0  0  3  0  0  0  0  0  0
  161.9380  204.2550  146.7950 C   0  0  0  0  0  2  0  0  0  0  0  0
  161.2340  202.5780  147.0290 S   0  0  0  0  0  0  0  0  0  0  0  0
  160.8840  202.6670  148.8070 C   0  0  0  0  0  0  0  0  0  0  0  0
  160.4050  201.3110  149.5790 S   0  0  0  0  0  0  0  0  0  0  0  0
  3  5  1  0  0  0  0
  4  2  2  0  0  0  0
  4  7  1  0  0  0  0
  6  1  1  1  0  0  0
  6 11  1  0  0  0  0
  6  9  1  0  0  0  0
  7 12  2  0  0  0  0
  8  5  1  0  0  0  0
  9  8  2  0  0  0  0
 10  3  2  0  0  0  0
 11  2  1  6  0  0  0
 11 10  1  0  0  0  0
 12 10  1  0  0  0  0
 14 13  1  0  0  0  0
 14  9  1  0  0  0  0
 15  1  1  0  0  0  0
 16 15  1  0  0  0  0
 17 16  1  0  0  0  0
 19 23  1  0  0  0  0
 19 21  1  0  0  0  0
 20 18  1  0  0  0  0
 20 22  1  1  0  0  0
 21 17  1  1  0  0  0
 21 22  1  0  0  0  0
 23 24  1  6  0  0  0
 23 20  1  0  0  0  0
 24 25  1  0  0  0  0
 25 26  1  0  0  0  0
 26 18  1  0  0  0  0
 26 27  2  0  0  0  0
M  END
>  <MODEL>
3

>  <REMARK>
 VINA RESULT:      -7.3      1.954      3.611
  Name = 
  6 active torsions:
  status: ('A' for Active; 'I' for Inactive)
    1  A    between atoms: C_3  and  C_8
    2  A    between atoms: C_3  and  C_13
    3  A    between atoms: C_13  and  C_14
    4  A    between atoms: C_14  and  C_19
    5  A    between atoms: C_16  and  C_19
    6  A    between atoms: C_21  and  O_27
                            x       y       z     vdW  Elec       q    Type
                         _______ _______ _______ _____ _____    ______ ____

>  <TORSDO>
F 6

$$$$
=
 OpenBabel11072412243D

 27 30  0  0  1  0  0  0  0  0999 V2000
  161.6940  203.9710  149.5710 C   0  0  0  0  0  2  0  0  0  0  0  0
  160.8590  201.8410  147.6130 N   0  0  0  0  0  0  0  0  0  0  0  0
  162.2300  204.2820  145.2310 N   0  0  0  0  0  0  0  0  0  0  0  0
  160.1150  201.1590  146.7940 C   0  0  0  0  0  3  0  0  0  0  0  0
  163.1010  205.1100  146.0490 C   0  0  0  0  0  2  0  0  0  0  0  0
  161.1430  204.2170  148.1680 C   0  0  1  0  0  3  0  0  0  0  0  0
  159.9720  201.5660  145.3900 C   0  0  0  0  0  3  0  0  0  0  0  0
  162.2850  206.0110  146.8490 N   0  0  0  0  0  0  0  0  0  0  0  0
  161.4030  205.6570  147.7440 C   0  0  0  0  0  0  0  0  0  0  0  0
  161.4860  203.3650  145.7650 C   0  0  0  0  0  0  0  0  0  0  0  0
  161.5850  203.0640  147.2470 C   0  0  2  0  0  3  0  0  0  0  0  0
  160.6200  202.5900  144.9300 N   0  0  0  0  0  0  0  0  0  0  0  0
  161.2330  207.8160  148.9360 C   0  0  0  0  0  1  0  0  0  0  0  0
  160.6490  206.6430  148.3870 O   0  0  0  0  0  0  0  0  0  0  0  0
  160.5800  203.9050  150.6060 C   0  0  0  0  0  2  0  0  0  0  0  0
  160.5300  205.1880  151.4200 C   0  0  0  0  0  2  0  0  0  0  0  0
  161.1520  204.9680  152.7890 C   0  0  0  0  0  2  0  0  0  0  0  0
  160.5310  208.9050  155.1340 N   0  0  0  0  0  2  0  0  0  0  0  0
  161.7260  207.2540  152.3210 O   0  0  0  0  0  0  0  0  0  0  0  0
  160.4630  207.9540  154.1080 N   0  0  2  0  0  0  0  0  0  0  0  0
  161.8160  206.2410  153.2950 C   0  0  1  0  0  3  0  0  0  0  0  0
  161.0940  206.7330  154.5360 C   0  0  0  0  0  2  0  0  0  0  0  0
  161.3600  208.3810  153.0630 C   0  0  2  0  0  3  0  0  0  0  0  0
  160.6600  209.4380  152.2420 C   0  0  0  0  0  2  0  0  0  0  0  0
  160.5880  210.9910  153.2150 S   0  0  0  0  0  0  0  0  0  0  0  0
  160.2460  210.2810  154.8490 C   0  0  0  0  0  0  0  0  0  0  0  0
  159.8900  211.2890  156.0820 S   0  0  0  0  0  0  0  0  0  0  0  0
  1 15  1  0  0  0  0
  3 10  2  0  0  0  0
  3  5  1  0  0  0  0
  4  2  2  0  0  0  0
  5  8  1  0  0  0  0
  6  1  1  1  0  0  0
  7  4  1  0  0  0  0
  8  9  2  0  0  0  0
  9  6  1  0  0  0  0
  9 14  1  0  0  0  0
 11 10  1  6  0  0  0
 11  2  1  0  0  0  0
 11  6  1  0  0  0  0
 12  7  2  0  0  0  0
 12 10  1  0  0  0  0
 14 13  1  0  0  0  0
 15 16  1  0  0  0  0
 16 17  1  0  0  0  0
 19 23  1  0  0  0  0
 19 21  1  0  0  0  0
 20 22  1  1  0  0  0
 20 18  1  0  0  0  0
 21 17  1  6  0  0  0
 21 22  1  0  0  0  0
 23 24  1  6  0  0  0
 23 20  1  0  0  0  0
 24 25  1  0  0  0  0
 25 26  1  0  0  0  0
 26 18  1  0  0  0  0
 26 27  2  0  0  0  0
M  END
>  <MODEL>
4

>  <REMARK>
 VINA RESULT:      -7.3      3.659      8.846
  Name = 
  6 active torsions:
  status: ('A' for Active; 'I' for Inactive)
    1  A    between atoms: C_3  and  C_8
    2  A    between atoms: C_3  and  C_13
    3  A    between atoms: C_13  and  C_14
    4  A    between atoms: C_14  and  C_19
    5  A    between atoms: C_16  and  C_19
    6  A    between atoms: C_21  and  O_27
                            x       y       z     vdW  Elec       q    Type
                         _______ _______ _______ _____ _____    ______ ____

>  <TORSDO>
F 6

$$$$
=
 OpenBabel11072412243D

 27 30  0  0  1  0  0  0  0  0999 V2000
  160.3860  202.0860  148.7300 C   0  0  0  0  0  2  0  0  0  0  0  0
  161.5560  204.6930  147.7800 N   0  0  0  0  0  0  0  0  0  0  0  0
  160.4690  203.3540  144.5340 N   0  0  0  0  0  0  0  0  0  0  0  0
  162.4300  205.5570  147.3570 C   0  0  0  0  0  3  0  0  0  0  0  0
  159.4650  202.3630  144.8890 C   0  0  0  0  0  2  0  0  0  0  0  0
  161.1240  202.3030  147.4110 C   0  0  1  0  0  3  0  0  0  0  0  0
  162.7610  205.6560  145.9290 C   0  0  0  0  0  3  0  0  0  0  0  0
  160.1310  201.1780  145.4090 N   0  0  0  0  0  0  0  0  0  0  0  0
  160.8860  201.1270  146.4720 C   0  0  0  0  0  0  0  0  0  0  0  0
  161.1550  203.9640  145.4470 C   0  0  0  0  0  0  0  0  0  0  0  0
  160.8540  203.7360  146.9150 C   0  0  2  0  0  3  0  0  0  0  0  0
  162.1550  204.9120  145.0580 N   0  0  0  0  0  0  0  0  0  0  0  0
  161.5510  198.8090  145.9290 C   0  0  0  0  0  1  0  0  0  0  0  0
  161.5100  199.9220  146.8100 O   0  0  0  0  0  0  0  0  0  0  0  0
  161.3270  201.6050  149.8260 C   0  0  0  0  0  2  0  0  0  0  0  0
  161.0850  202.3770  151.1130 C   0  0  0  0  0  2  0  0  0  0  0  0
  160.7320  203.8220  150.8030 C   0  0  0  0  0  2  0  0  0  0  0  0
  161.1390  207.0180  154.1210 N   0  0  0  0  0  2  0  0  0  0  0  0
  161.7050  206.0190  150.8430 O   0  0  0  0  0  0  0  0  0  0  0  0
  160.7840  206.4070  152.9110 N   0  0  2  0  0  0  0  0  0  0  0  0
  161.6830  204.7780  151.5090 C   0  0  1  0  0  3  0  0  0  0  0  0
  161.1960  205.0280  152.9250 C   0  0  0  0  0  2  0  0  0  0  0  0
  161.6440  206.9460  151.8870 C   0  0  2  0  0  3  0  0  0  0  0  0
  161.0950  208.2890  151.4660 C   0  0  0  0  0  2  0  0  0  0  0  0
  161.4290  209.5070  152.7960 S   0  0  0  0  0  0  0  0  0  0  0  0
  161.1090  208.4460  154.2330 C   0  0  0  0  0  0  0  0  0  0  0  0
  161.0820  209.1260  155.7170 S   0  0  0  0  0  0  0  0  0  0  0  0
  1 15  1  0  0  0  0
  3  5  1  0  0  0  0
  3 10  2  0  0  0  0
  4  2  2  0  0  0  0
  5  8  1  0  0  0  0
  6  1  1  1  0  0  0
  7  4  1  0  0  0  0
  8  9  2  0  0  0  0
  9 14  1  0  0  0  0
  9  6  1  0  0  0  0
 11 10  1  6  0  0  0
 11  6  1  0  0  0  0
 11  2  1  0  0  0  0
 12 10  1  0  0  0  0
 12  7  2  0  0  0  0
 13 14  1  0  0  0  0
 15 16  1  0  0  0  0
 17 16  1  0  0  0  0
 18 26  1  0  0  0  0
 19 21  1  0  0  0  0
 19 23  1  0  0  0  0
 20 22  1  1  0  0  0
 20 18  1  0  0  0  0
 21 17  1  6  0  0  0
 21 22  1  0  0  0  0
 23 24  1  6  0  0  0
 23 20  1  0  0  0  0
 24 25  1  0  0  0  0
 25 26  1  0  0  0  0
 26 27  2  0  0  0  0
M  END
>  <MODEL>
5

>  <REMARK>
 VINA RESULT:      -7.2      3.641      8.926
  Name = 
  6 active torsions:
  status: ('A' for Active; 'I' for Inactive)
    1  A    between atoms: C_3  and  C_8
    2  A    between atoms: C_3  and  C_13
    3  A    between atoms: C_13  and  C_14
    4  A    between atoms: C_14  and  C_19
    5  A    between atoms: C_16  and  C_19
    6  A    between atoms: C_21  and  O_27
                            x       y       z     vdW  Elec       q    Type
                         _______ _______ _______ _____ _____    ______ ____

>  <TORSDO>
F 6

$$$$
=
 OpenBabel11072412243D

 27 30  0  0  1  0  0  0  0  0999 V2000
  161.5930  208.2600  152.8820 C   0  0  0  0  0  2  0  0  0  0  0  0
  160.0560  210.8250  152.5220 N   0  0  0  0  0  0  0  0  0  0  0  0
  161.3590  211.4260  155.9050 N   0  0  0  0  0  0  0  0  0  0  0  0
  159.0670  211.6680  152.5360 C   0  0  0  0  0  3  0  0  0  0  0  0
  162.4970  210.5260  156.0020 C   0  0  0  0  0  2  0  0  0  0  0  0
  160.8430  209.0110  153.9800 C   0  0  1  0  0  3  0  0  0  0  0  0
  158.7370  212.4220  153.7530 C   0  0  0  0  0  3  0  0  0  0  0  0
  162.0110  209.1660  156.1870 N   0  0  0  0  0  0  0  0  0  0  0  0
  161.2630  208.4990  155.3520 C   0  0  0  0  0  0  0  0  0  0  0  0
  160.5820  211.4100  154.8700 C   0  0  0  0  0  0  0  0  0  0  0  0
  160.9010  210.5210  153.6840 C   0  0  2  0  0  3  0  0  0  0  0  0
  159.4560  212.2920  154.8240 N   0  0  0  0  0  0  0  0  0  0  0  0
  159.7040  207.0000  156.5500 C   0  0  0  0  0  1  0  0  0  0  0  0
  160.8220  207.2190  155.7020 O   0  0  0  0  0  0  0  0  0  0  0  0
  160.7600  207.1220  152.3120 C   0  0  0  0  0  2  0  0  0  0  0  0
  161.3470  205.7770  152.7130 C   0  0  0  0  0  2  0  0  0  0  0  0
  162.0000  205.1100  151.5140 C   0  0  0  0  0  2  0  0  0  0  0  0
  160.7170  202.5860  147.8580 N   0  0  0  0  0  2  0  0  0  0  0  0
  161.5240  205.6740  149.2280 O   0  0  0  0  0  0  0  0  0  0  0  0
  161.4650  203.4460  148.6720 N   0  0  2  0  0  0  0  0  0  0  0  0
  161.0200  204.9960  150.3550 C   0  0  1  0  0  3  0  0  0  0  0  0
  160.8520  203.5360  149.9720 C   0  0  0  0  0  2  0  0  0  0  0  0
  161.2710  204.7860  148.1780 C   0  0  2  0  0  3  0  0  0  0  0  0
  162.1810  204.9880  146.9890 C   0  0  0  0  0  2  0  0  0  0  0  0
  161.5060  204.0520  145.5630 S   0  0  0  0  0  0  0  0  0  0  0  0
  160.9470  202.5670  146.4430 C   0  0  0  0  0  0  0  0  0  0  0  0
  160.4230  201.2910  145.5710 S   0  0  0  0  0  0  0  0  0  0  0  0
  2  4  2  0  0  0  0
  3  5  1  0  0  0  0
  4  7  1  0  0  0  0
  5  8  1  0  0  0  0
  6  1  1  6  0  0  0
  6  9  1  0  0  0  0
  7 12  2  0  0  0  0
  9 14  1  0  0  0  0
  9  8  2  0  0  0  0
 10  3  2  0  0  0  0
 11  2  1  6  0  0  0
 11  6  1  0  0  0  0
 11 10  1  0  0  0  0
 12 10  1  0  0  0  0
 14 13  1  0  0  0  0
 15 16  1  0  0  0  0
 15  1  1  0  0  0  0
 17 16  1  0  0  0  0
 18 20  1  0  0  0  0
 19 21  1  0  0  0  0
 20 22  1  1  0  0  0
 21 17  1  1  0  0  0
 22 21  1  0  0  0  0
 23 24  1  6  0  0  0
 23 20  1  0  0  0  0
 23 19  1  0  0  0  0
 25 26  1  0  0  0  0
 25 24  1  0  0  0  0
 26 18  1  0  0  0  0
 27 26  2  0  0  0  0
M  END
>  <MODEL>
6

>  <REMARK>
 VINA RESULT:      -7.0      1.490      3.028
  Name = 
  6 active torsions:
  status: ('A' for Active; 'I' for Inactive)
    1  A    between atoms: C_3  and  C_8
    2  A    between atoms: C_3  and  C_13
    3  A    between atoms: C_13  and  C_14
    4  A    between atoms: C_14  and  C_19
    5  A    between atoms: C_16  and  C_19
    6  A    between atoms: C_21  and  O_27
                            x       y       z     vdW  Elec       q    Type
                         _______ _______ _______ _____ _____    ______ ____

>  <TORSDO>
F 6

$$$$
=
 OpenBabel11072412243D

 27 30  0  0  1  0  0  0  0  0999 V2000
  160.2460  206.1140  149.5840 C   0  0  0  0  0  2  0  0  0  0  0  0
  161.3740  205.8770  146.8010 N   0  0  0  0  0  0  0  0  0  0  0  0
  161.0900  202.2990  147.5950 N   0  0  0  0  0  0  0  0  0  0  0  0
  162.2440  205.7990  145.8400 C   0  0  0  0  0  3  0  0  0  0  0  0
  160.1180  202.2620  148.6760 C   0  0  0  0  0  2  0  0  0  0  0  0
  161.2210  205.0400  149.1060 C   0  0  1  0  0  3  0  0  0  0  0  0
  162.8530  204.5130  145.4760 C   0  0  0  0  0  3  0  0  0  0  0  0
  160.7540  202.7140  149.9030 N   0  0  0  0  0  0  0  0  0  0  0  0
  161.2760  203.8930  150.1080 C   0  0  0  0  0  0  0  0  0  0  0  0
  161.5220  203.4260  147.1260 C   0  0  0  0  0  0  0  0  0  0  0  0
  160.9440  204.7370  147.6220 C   0  0  2  0  0  3  0  0  0  0  0  0
  162.5010  203.4220  146.0820 N   0  0  0  0  0  0  0  0  0  0  0  0
  161.1960  204.3300  152.5400 C   0  0  0  0  0  1  0  0  0  0  0  0
  161.9110  204.1570  151.3250 O   0  0  0  0  0  0  0  0  0  0  0  0
  160.8930  207.4910  149.5960 C   0  0  0  0  0  2  0  0  0  0  0  0
  162.2030  207.4600  150.3680 C   0  0  0  0  0  2  0  0  0  0  0  0
  162.2090  208.5390  151.4380 C   0  0  0  0  0  2  0  0  0  0  0  0
  159.8100  210.4770  154.8850 N   0  0  0  0  0  2  0  0  0  0  0  0
  161.3880  207.6940  153.5320 O   0  0  0  0  0  0  0  0  0  0  0  0
  160.8400  209.8230  154.1970 N   0  0  2  0  0  0  0  0  0  0  0  0
  161.0120  208.3900  152.3670 C   0  0  1  0  0  3  0  0  0  0  0  0
  160.5240  209.7640  152.7940 C   0  0  0  0  0  2  0  0  0  0  0  0
  160.7830  208.4290  154.5560 C   0  0  2  0  0  3  0  0  0  0  0  0
  161.4570  208.2570  155.8970 C   0  0  0  0  0  2  0  0  0  0  0  0
  160.3620  208.9380  157.2000 S   0  0  0  0  0  0  0  0  0  0  0  0
  159.7460  210.3960  156.3140 C   0  0  0  0  0  0  0  0  0  0  0  0
  158.8480  211.4870  157.1310 S   0  0  0  0  0  0  0  0  0  0  0  0
  1 15  1  0  0  0  0
  3  5  1  0  0  0  0
  4  2  2  0  0  0  0
  5  8  1  0  0  0  0
  6  1  1  1  0  0  0
  6  9  1  0  0  0  0
  7  4  1  0  0  0  0
  7 12  2  0  0  0  0
  8  9  2  0  0  0  0
  9 14  1  0  0  0  0
 10  3  2  0  0  0  0
 10 11  1  0  0  0  0
 11  2  1  6  0  0  0
 11  6  1  0  0  0  0
 12 10  1  0  0  0  0
 14 13  1  0  0  0  0
 15 16  1  0  0  0  0
 16 17  1  0  0  0  0
 18 26  1  0  0  0  0
 19 23  1  0  0  0  0
 20 22  1  6  0  0  0
 20 23  1  0  0  0  0
 20 18  1  0  0  0  0
 21 17  1  6  0  0  0
 21 22  1  0  0  0  0
 21 19  1  0  0  0  0
 23 24  1  1  0  0  0
 24 25  1  0  0  0  0
 26 27  2  0  0  0  0
 26 25  1  0  0  0  0
M  END
>  <MODEL>
7

>  <REMARK>
 VINA RESULT:      -7.0      4.059      9.101
  Name = 
  6 active torsions:
  status: ('A' for Active; 'I' for Inactive)
    1  A    between atoms: C_3  and  C_8
    2  A    between atoms: C_3  and  C_13
    3  A    between atoms: C_13  and  C_14
    4  A    between atoms: C_14  and  C_19
    5  A    between atoms: C_16  and  C_19
    6  A    between atoms: C_21  and  O_27
                            x       y       z     vdW  Elec       q    Type
                         _______ _______ _______ _____ _____    ______ ____

>  <TORSDO>
F 6

$$$$
=
 OpenBabel11072412243D

 27 30  0  0  1  0  0  0  0  0999 V2000
  160.6010  209.6240  152.9310 C   0  0  0  0  0  2  0  0  0  0  0  0
  159.6540  212.3450  153.8120 N   0  0  0  0  0  0  0  0  0  0  0  0
  161.6530  211.4660  156.7680 N   0  0  0  0  0  0  0  0  0  0  0  0
  158.9040  213.2630  154.3430 C   0  0  0  0  0  3  0  0  0  0  0  0
  162.5520  210.4310  156.2820 C   0  0  0  0  0  2  0  0  0  0  0  0
  160.2550  210.0270  154.3630 C   0  0  1  0  0  3  0  0  0  0  0  0
  158.9830  213.5620  155.7790 C   0  0  0  0  0  3  0  0  0  0  0  0
  161.8090  209.1880  156.1360 N   0  0  0  0  0  0  0  0  0  0  0  0
  160.7890  208.9930  155.3460 C   0  0  0  0  0  0  0  0  0  0  0  0
  160.7180  211.9460  156.0120 C   0  0  0  0  0  0  0  0  0  0  0  0
  160.6030  211.5140  154.5640 C   0  0  2  0  0  3  0  0  0  0  0  0
  159.8350  212.9440  156.5360 N   0  0  0  0  0  0  0  0  0  0  0  0
  159.8860  207.0420  156.5670 C   0  0  0  0  0  1  0  0  0  0  0  0
  160.1370  207.7560  155.3650 O   0  0  0  0  0  0  0  0  0  0  0  0
  162.0330  209.9990  152.5750 C   0  0  0  0  0  2  0  0  0  0  0  0
  162.3230  209.6750  151.1180 C   0  0  0  0  0  2  0  0  0  0  0  0
  161.3710  208.6010  150.6180 C   0  0  0  0  0  2  0  0  0  0  0  0
  160.9470  204.1920  149.2880 N   0  0  0  0  0  2  0  0  0  0  0  0
  162.0850  206.5250  151.5960 O   0  0  0  0  0  0  0  0  0  0  0  0
  160.8390  205.3540  150.0620 N   0  0  2  0  0  0  0  0  0  0  0  0
  162.1020  207.2810  150.4080 C   0  0  1  0  0  3  0  0  0  0  0  0
  161.3910  206.4700  149.3390 C   0  0  0  0  0  2  0  0  0  0  0  0
  161.7750  205.2360  151.1510 C   0  0  2  0  0  3  0  0  0  0  0  0
  161.1500  204.3680  152.2190 C   0  0  0  0  0  2  0  0  0  0  0  0
  161.1550  202.6270  151.6420 S   0  0  0  0  0  0  0  0  0  0  0  0
  160.7480  202.9100  149.8970 C   0  0  0  0  0  0  0  0  0  0  0  0
  160.4340  201.6200  148.9480 S   0  0  0  0  0  0  0  0  0  0  0  0
  2  4  2  0  0  0  0
  4  7  1  0  0  0  0
  5  3  1  0  0  0  0
  6  1  1  6  0  0  0
  6 11  1  0  0  0  0
  6  9  1  0  0  0  0
  7 12  2  0  0  0  0
  8  5  1  0  0  0  0
  9 14  1  0  0  0  0
  9  8  2  0  0  0  0
 10 12  1  0  0  0  0
 10  3  2  0  0  0  0
 11  2  1  1  0  0  0
 11 10  1  0  0  0  0
 14 13  1  0  0  0  0
 15  1  1  0  0  0  0
 16 15  1  0  0  0  0
 17 16  1  0  0  0  0
 18 26  1  0  0  0  0
 18 20  1  0  0  0  0
 20 22  1  6  0  0  0
 20 23  1  0  0  0  0
 21 17  1  1  0  0  0
 21 19  1  0  0  0  0
 22 21  1  0  0  0  0
 23 19  1  0  0  0  0
 23 24  1  1  0  0  0
 25 24  1  0  0  0  0
 26 25  1  0  0  0  0
 27 26  2  0  0  0  0
M  END
>  <MODEL>
8

>  <REMARK>
 VINA RESULT:      -6.9      2.485      4.204
  Name = 
  6 active torsions:
  status: ('A' for Active; 'I' for Inactive)
    1  A    between atoms: C_3  and  C_8
    2  A    between atoms: C_3  and  C_13
    3  A    between atoms: C_13  and  C_14
    4  A    between atoms: C_14  and  C_19
    5  A    between atoms: C_16  and  C_19
    6  A    between atoms: C_21  and  O_27
                            x       y       z     vdW  Elec       q    Type
                         _______ _______ _______ _____ _____    ______ ____

>  <TORSDO>
F 6

$$$$
=
 OpenBabel11072412243D

 27 30  0  0  1  0  0  0  0  0999 V2000
  161.3720  209.2930  152.9510 C   0  0  0  0  0  2  0  0  0  0  0  0
  159.7940  211.7960  152.3910 N   0  0  0  0  0  0  0  0  0  0  0  0
  160.2350  212.2140  156.0160 N   0  0  0  0  0  0  0  0  0  0  0  0
  158.7750  212.5850  152.2220 C   0  0  0  0  0  3  0  0  0  0  0  0
  161.3760  211.3670  156.3240 C   0  0  0  0  0  2  0  0  0  0  0  0
  160.3400  209.9220  153.8830 C   0  0  1  0  0  3  0  0  0  0  0  0
  158.1230  213.2300  153.3690 C   0  0  0  0  0  3  0  0  0  0  0  0
  160.9520  209.9750  156.3090 N   0  0  0  0  0  0  0  0  0  0  0  0
  160.4630  209.3330  155.2830 C   0  0  0  0  0  0  0  0  0  0  0  0
  159.7220  212.2340  154.8270 C   0  0  0  0  0  0  0  0  0  0  0  0
  160.3640  211.4510  153.6990 C   0  0  2  0  0  3  0  0  0  0  0  0
  158.5810  213.0590  154.5690 N   0  0  0  0  0  0  0  0  0  0  0  0
  160.1390  207.3200  156.6800 C   0  0  0  0  0  1  0  0  0  0  0  0
  160.0390  208.0110  155.4430 O   0  0  0  0  0  0  0  0  0  0  0  0
  160.8400  208.0230  152.3030 C   0  0  0  0  0  2  0  0  0  0  0  0
  161.9540  207.2890  151.5720 C   0  0  0  0  0  2  0  0  0  0  0  0
  162.0840  207.8110  150.1510 C   0  0  0  0  0  2  0  0  0  0  0  0
  161.0510  203.8640  147.9740 N   0  0  0  0  0  2  0  0  0  0  0  0
  161.4750  207.3100  147.8810 O   0  0  0  0  0  0  0  0  0  0  0  0
  161.6980  205.0630  148.3000 N   0  0  2  0  0  0  0  0  0  0  0  0
  161.0970  207.1150  149.2230 C   0  0  1  0  0  3  0  0  0  0  0  0
  161.1140  205.6210  149.4910 C   0  0  0  0  0  2  0  0  0  0  0  0
  161.3140  206.0420  147.3140 C   0  0  2  0  0  3  0  0  0  0  0  0
  162.1570  205.8260  146.0790 C   0  0  0  0  0  2  0  0  0  0  0  0
  161.5750  204.3110  145.2250 S   0  0  0  0  0  0  0  0  0  0  0  0
  161.2430  203.2800  146.6800 C   0  0  0  0  0  0  0  0  0  0  0  0
  160.8700  201.7070  146.4550 S   0  0  0  0  0  0  0  0  0  0  0  0
  3  5  1  0  0  0  0
  4  2  2  0  0  0  0
  4  7  1  0  0  0  0
  6  1  1  6  0  0  0
  6  9  1  0  0  0  0
  7 12  2  0  0  0  0
  8  5  1  0  0  0  0
  9 14  1  0  0  0  0
  9  8  2  0  0  0  0
 10  3  2  0  0  0  0
 11  2  1  6  0  0  0
 11  6  1  0  0  0  0
 11 10  1  0  0  0  0
 12 10  1  0  0  0  0
 14 13  1  0  0  0  0
 15  1  1  0  0  0  0
 16 15  1  0  0  0  0
 17 16  1  0  0  0  0
 18 20  1  0  0  0  0
 19 21  1  0  0  0  0
 20 22  1  1  0  0  0
 21 22  1  0  0  0  0
 21 17  1  1  0  0  0
 23 24  1  6  0  0  0
 23 19  1  0  0  0  0
 23 20  1  0  0  0  0
 25 24  1  0  0  0  0
 25 26  1  0  0  0  0
 26 18  1  0  0  0  0
 27 26  2  0  0  0  0
M  END
>  <MODEL>
9

>  <REMARK>
 VINA RESULT:      -6.7      2.038      3.664
  Name = 
  6 active torsions:
  status: ('A' for Active; 'I' for Inactive)
    1  A    between atoms: C_3  and  C_8
    2  A    between atoms: C_3  and  C_13
    3  A    between atoms: C_13  and  C_14
    4  A    between atoms: C_14  and  C_19
    5  A    between atoms: C_16  and  C_19
    6  A    between atoms: C_21  and  O_27
                            x       y       z     vdW  Elec       q    Type
                         _______ _______ _______ _____ _____    ______ ____

>  <TORSDO>
F 6

$$$$
