=
 OpenBabel11072414513D

 47 50  0  0  1  0  0  0  0  0999 V2000
  161.1890  206.3140  153.6730 C   0  0  0  0  0  0  0  0  0  0  0  0
  161.1140  208.5530  154.0650 N   0  0  0  0  0  0  0  0  0  0  0  0
  160.9350  208.8950  151.1220 F   0  0  0  0  0  0  0  0  0  0  0  0
  161.1060  207.5350  153.0770 C   0  0  0  0  0  0  0  0  0  0  0  0
  161.0660  206.4870  150.9000 C   0  0  0  0  0  0  0  0  0  0  0  0
  161.2020  205.1330  152.9410 C   0  0  0  0  0  3  0  0  0  0  0  0
  161.2290  206.4380  155.0810 N   0  0  0  0  0  0  0  0  0  0  0  0
  161.1430  205.2290  151.5440 C   0  0  0  0  0  3  0  0  0  0  0  0
  161.0330  207.6680  151.6860 C   0  0  0  0  0  0  0  0  0  0  0  0
  161.1560  207.8750  155.3670 C   0  0  0  0  0  3  0  0  0  0  0  0
  162.2800  206.5400  148.6810 N   0  0  0  0  0  2  0  0  0  0  0  0
  159.9560  206.5150  148.8060 O   0  0  0  0  0  0  0  0  0  0  0  0
  161.0560  206.5260  149.4220 C   0  0  0  0  0  0  0  0  0  0  0  0
  162.3190  206.4060  147.2310 C   0  0  0  0  0  2  0  0  0  0  0  0
  162.4450  204.9350  146.8390 C   0  0  2  0  0  3  0  0  0  0  0  0
  163.6700  204.6940  145.9730 C   0  0  0  0  0  1  0  0  0  0  0  0
  161.3840  204.2180  144.8400 F   0  0  0  0  0  0  0  0  0  0  0  0
  161.1710  204.3750  146.1970 C   0  0  1  0  0  3  0  0  0  0  0  0
  160.6790  203.0590  146.8150 C   0  0  2  0  0  3  0  0  0  0  0  0
  161.0360  201.9450  149.0040 C   0  0  0  0  0  0  0  0  0  0  0  0
  161.4660  199.2790  145.9760 Cl  0  0  0  0  0  0  0  0  0  0  0  0
  161.2770  202.0290  150.7340 Cl  0  0  0  0  0  0  0  0  0  0  0  0
  160.8720  203.0830  148.3120 C   0  0  0  0  0  3  0  0  0  0  0  0
  160.8230  200.7030  146.8250 C   0  0  2  0  0  3  0  0  0  0  0  0
  161.3830  201.9180  146.2380 N   0  0  0  0  0  2  0  0  0  0  0  0
  161.1850  200.6180  148.3090 C   0  0  0  0  0  2  0  0  0  0  0  0
  160.5520  209.8860  153.8760 C   0  0  0  0  0  2  0  0  0  0  0  0
  159.0560  209.5940  155.7310 O   0  0  0  0  0  1  0  0  0  0  0  0
  160.2730  213.0460  156.5870 C   0  0  1  0  0  3  0  0  0  0  0  0
  159.9870  210.4800  155.1840 C   0  0  1  0  0  0  0  0  0  0  0  0
  161.1160  210.6830  156.2230 C   0  0  1  0  0  3  0  0  0  0  0  0
  162.3100  211.0840  155.6180 O   0  0  0  0  0  1  0  0  0  0  0  0
  159.1270  213.5550  157.2030 O   0  0  0  0  0  1  0  0  0  0  0  0
  160.7110  211.7310  157.2610 C   0  0  0  0  0  2  0  0  0  0  0  0
  160.0830  212.9390  155.1860 O   0  0  0  0  0  0  0  0  0  0  0  0
  159.2520  211.8300  154.9380 C   0  0  1  0  0  3  0  0  0  0  0  0
  157.1240  211.6490  153.8030 O   0  0  0  0  0  1  0  0  0  0  0  0
  158.4620  212.0040  153.6300 C   0  0  1  0  0  3  0  0  0  0  0  0
  158.5580  213.4120  153.0590 C   0  0  0  0  0  2  0  0  0  0  0  0
  159.2140  213.4140  151.6840 C   0  0  1  0  0  3  0  0  0  0  0  0
  160.0840  212.3290  151.5890 O   0  0  0  0  0  1  0  0  0  0  0  0
  158.1670  213.3480  150.5730 C   0  0  1  0  0  3  0  0  0  0  0  0
  156.9250  213.9560  151.0170 N   0  0  0  0  0  1  0  0  0  0  0  0
  158.6520  214.0800  149.3300 C   0  0  0  0  0  2  0  0  0  0  0  0
  157.0700  212.9160  147.9810 O   0  0  0  0  0  1  0  0  0  0  0  0
  158.2430  213.3540  148.0960 C   0  0  0  0  0  0  0  0  0  0  0  0
  159.1540  213.1640  147.0670 O   0  0  0  0  0  0  0  0  0  0  0  0
  1  7  1  0  0  0  0
  2 10  1  0  0  0  0
  3  9  1  0  0  0  0
  4  1  1  0  0  0  0
  4  2  1  0  0  0  0
  5  8  2  0  0  0  0
  5  9  1  0  0  0  0
  6  1  2  0  0  0  0
  7 10  2  0  0  0  0
  8  6  1  0  0  0  0
  9  4  2  0  0  0  0
 11 13  1  0  0  0  0
 12 13  2  0  0  0  0
 13  5  1  0  0  0  0
 14 11  1  0  0  0  0
 15 16  1  6  0  0  0
 15 14  1  0  0  0  0
 18 17  1  6  0  0  0
 18 15  1  0  0  0  0
 19 18  1  6  0  0  0
 19 23  1  0  0  0  0
 20 22  1  0  0  0  0
 23 20  2  0  0  0  0
 24 21  1  6  0  0  0
 24 26  1  0  0  0  0
 25 19  1  0  0  0  0
 25 24  1  0  0  0  0
 26 20  1  0  0  0  0
 27  2  1  0  0  0  0
 27 30  1  0  0  0  0
 29 33  1  1  0  0  0
 29 34  1  0  0  0  0
 30 28  1  1  0  0  0
 30 31  1  0  0  0  0
 31 32  1  6  0  0  0
 31 34  1  0  0  0  0
 35 29  1  0  0  0  0
 36 38  1  6  0  0  0
 36 30  1  0  0  0  0
 36 35  1  0  0  0  0
 38 37  1  1  0  0  0
 39 38  1  0  0  0  0
 40 41  1  1  0  0  0
 40 39  1  0  0  0  0
 42 43  1  1  0  0  0
 42 40  1  0  0  0  0
 44 42  1  0  0  0  0
 45 46  1  0  0  0  0
 46 44  1  0  0  0  0
 47 46  2  0  0  0  0
M  END
>  <MODEL>
1

>  <REMARK>
 VINA RESULT:      -7.7      0.000      0.000
  Name = 
  13 active torsions:
  status: ('A' for Active; 'I' for Inactive)
    1  A    between atoms: C_5  and  C_18
    2  A    between atoms: N_7  and  C_18
    3  A    between atoms: C_8  and  C_12
    4  A    between atoms: C_10  and  C_14
    5  A    between atoms: C_10  and  C_29
    6  A    between atoms: C_12  and  C_36
    7  A    between atoms: C_14  and  C_23
    8  A    between atoms: N_19  and  C_33
    9  A    between atoms: C_20  and  C_23
   10  A    between atoms: C_28  and  C_31
   11  A    between atoms: C_29  and  C_41
   12  A    between atoms: C_33  and  C_36
   13  A    between atoms: C_38  and  C_41
                            x       y       z     vdW  Elec       q    Type
                         _______ _______ _______ _____ _____    ______ ____

>  <TORSDO>
F 13

$$$$
=
 OpenBabel11072414513D

 47 50  0  0  1  0  0  0  0  0999 V2000
  160.6970  207.8940  154.0690 C   0  0  0  0  0  0  0  0  0  0  0  0
  161.2520  206.6660  152.2380 N   0  0  0  0  0  0  0  0  0  0  0  0
  161.1080  209.2000  150.6990 F   0  0  0  0  0  0  0  0  0  0  0  0
  160.9350  207.9580  152.7310 C   0  0  0  0  0  0  0  0  0  0  0  0
  160.4870  210.3320  152.7480 C   0  0  0  0  0  0  0  0  0  0  0  0
  160.3600  209.0170  154.8150 C   0  0  0  0  0  3  0  0  0  0  0  0
  160.8660  206.5750  154.5530 N   0  0  0  0  0  0  0  0  0  0  0  0
  160.2530  210.2410  154.1410 C   0  0  0  0  0  3  0  0  0  0  0  0
  160.8500  209.1640  152.0280 C   0  0  0  0  0  0  0  0  0  0  0  0
  161.2520  205.7610  153.3960 C   0  0  0  0  0  3  0  0  0  0  0  0
  161.0370  211.9640  150.8950 N   0  0  0  0  0  2  0  0  0  0  0  0
  159.4840  212.4710  152.5530 O   0  0  0  0  0  0  0  0  0  0  0  0
  160.3100  211.6410  152.0840 C   0  0  0  0  0  0  0  0  0  0  0  0
  160.7700  213.1660  150.1160 C   0  0  0  0  0  2  0  0  0  0  0  0
  161.1270  212.9340  148.6490 C   0  0  2  0  0  3  0  0  0  0  0  0
  161.8620  211.6180  148.4580 C   0  0  0  0  0  1  0  0  0  0  0  0
  163.2450  213.8560  148.0990 F   0  0  0  0  0  0  0  0  0  0  0  0
  161.8870  214.1090  148.0250 C   0  0  1  0  0  3  0  0  0  0  0  0
  161.4820  214.4270  146.5800 C   0  0  2  0  0  3  0  0  0  0  0  0
  159.4370  214.0200  145.2360 C   0  0  0  0  0  0  0  0  0  0  0  0
  162.7460  213.0340  143.1050 Cl  0  0  0  0  0  0  0  0  0  0  0  0
  157.6970  213.8840  145.1120 Cl  0  0  0  0  0  0  0  0  0  0  0  0
  159.9850  214.3190  146.4230 C   0  0  0  0  0  3  0  0  0  0  0  0
  161.7670  213.9290  144.2900 C   0  0  2  0  0  3  0  0  0  0  0  0
  162.1510  213.5300  145.6420 N   0  0  0  0  0  2  0  0  0  0  0  0
  160.2850  213.6350  144.0530 C   0  0  0  0  0  2  0  0  0  0  0  0
  162.0320  206.4150  151.0300 C   0  0  0  0  0  2  0  0  0  0  0  0
  159.8100  206.4720  150.1240 O   0  0  0  0  0  1  0  0  0  0  0  0
  161.6580  205.7950  146.9220 C   0  0  1  0  0  3  0  0  0  0  0  0
  161.1540  206.3420  149.7640 C   0  0  1  0  0  0  0  0  0  0  0  0
  161.4980  207.4970  148.7930 C   0  0  1  0  0  3  0  0  0  0  0  0
  162.8660  207.7850  148.7970 O   0  0  0  0  0  1  0  0  0  0  0  0
  160.6950  205.0410  146.2470 O   0  0  0  0  0  1  0  0  0  0  0  0
  161.0710  207.1490  147.3660 C   0  0  0  0  0  2  0  0  0  0  0  0
  162.2360  205.0440  147.9750 O   0  0  0  0  0  0  0  0  0  0  0  0
  161.3050  204.9780  149.0300 C   0  0  1  0  0  3  0  0  0  0  0  0
  162.1780  204.0060  151.0660 O   0  0  0  0  0  1  0  0  0  0  0  0
  161.5090  203.7110  149.8780 C   0  0  1  0  0  3  0  0  0  0  0  0
  160.2080  202.9800  150.1790 C   0  0  0  0  0  2  0  0  0  0  0  0
  160.1930  201.5870  149.5620 C   0  0  1  0  0  3  0  0  0  0  0  0
  158.8720  201.1560  149.4370 O   0  0  0  0  0  1  0  0  0  0  0  0
  160.8790  201.5800  148.1970 C   0  0  1  0  0  3  0  0  0  0  0  0
  161.6090  200.3380  148.0080 N   0  0  0  0  0  1  0  0  0  0  0  0
  159.8570  201.7200  147.0780 C   0  0  0  0  0  2  0  0  0  0  0  0
  160.2380  200.7110  144.9540 O   0  0  0  0  0  0  0  0  0  0  0  0
  160.5190  201.6450  145.7460 C   0  0  0  0  0  0  0  0  0  0  0  0
  161.4440  202.6100  145.3740 O   0  0  0  0  0  1  0  0  0  0  0  0
  1  7  1  0  0  0  0
  1  6  1  0  0  0  0
  2  4  1  0  0  0  0
  2 10  1  0  0  0  0
  3  9  1  0  0  0  0
  4  1  2  0  0  0  0
  5  8  1  0  0  0  0
  8  6  2  0  0  0  0
  9  4  1  0  0  0  0
  9  5  2  0  0  0  0
 10  7  2  0  0  0  0
 11 13  1  0  0  0  0
 13 12  2  0  0  0  0
 13  5  1  0  0  0  0
 14 11  1  0  0  0  0
 15 16  1  1  0  0  0
 15 14  1  0  0  0  0
 18 17  1  6  0  0  0
 18 15  1  0  0  0  0
 19 18  1  1  0  0  0
 20 23  2  0  0  0  0
 22 20  1  0  0  0  0
 23 19  1  0  0  0  0
 24 21  1  6  0  0  0
 24 25  1  0  0  0  0
 25 19  1  0  0  0  0
 26 24  1  0  0  0  0
 26 20  1  0  0  0  0
 27  2  1  0  0  0  0
 29 33  1  1  0  0  0
 29 34  1  0  0  0  0
 29 35  1  0  0  0  0
 30 28  1  1  0  0  0
 30 27  1  0  0  0  0
 31 32  1  6  0  0  0
 31 30  1  0  0  0  0
 34 31  1  0  0  0  0
 35 36  1  0  0  0  0
 36 30  1  0  0  0  0
 36 38  1  1  0  0  0
 38 39  1  0  0  0  0
 38 37  1  1  0  0  0
 40 41  1  6  0  0  0
 40 39  1  0  0  0  0
 42 43  1  6  0  0  0
 42 40  1  0  0  0  0
 44 42  1  0  0  0  0
 45 46  2  0  0  0  0
 46 44  1  0  0  0  0
 47 46  1  0  0  0  0
M  END
>  <MODEL>
2

>  <REMARK>
 VINA RESULT:      -6.0      4.136      9.629
  Name = 
  13 active torsions:
  status: ('A' for Active; 'I' for Inactive)
    1  A    between atoms: C_5  and  C_18
    2  A    between atoms: N_7  and  C_18
    3  A    between atoms: C_8  and  C_12
    4  A    between atoms: C_10  and  C_14
    5  A    between atoms: C_10  and  C_29
    6  A    between atoms: C_12  and  C_36
    7  A    between atoms: C_14  and  C_23
    8  A    between atoms: N_19  and  C_33
    9  A    between atoms: C_20  and  C_23
   10  A    between atoms: C_28  and  C_31
   11  A    between atoms: C_29  and  C_41
   12  A    between atoms: C_33  and  C_36
   13  A    between atoms: C_38  and  C_41
                            x       y       z     vdW  Elec       q    Type
                         _______ _______ _______ _____ _____    ______ ____

>  <TORSDO>
F 13

$$$$
=
 OpenBabel11072414513D

 47 50  0  0  1  0  0  0  0  0999 V2000
  161.8380  209.1820  150.1810 C   0  0  0  0  0  0  0  0  0  0  0  0
  161.6530  210.0630  152.2690 N   0  0  0  0  0  0  0  0  0  0  0  0
  161.5810  207.2670  153.2630 F   0  0  0  0  0  0  0  0  0  0  0  0
  161.7230  208.8720  151.5000 C   0  0  0  0  0  0  0  0  0  0  0  0
  161.7430  206.5160  150.9660 C   0  0  0  0  0  0  0  0  0  0  0  0
  161.9250  208.2050  149.1960 C   0  0  0  0  0  3  0  0  0  0  0  0
  161.8810  210.5830  149.9890 N   0  0  0  0  0  0  0  0  0  0  0  0
  161.8730  206.8650  149.6000 C   0  0  0  0  0  3  0  0  0  0  0  0
  161.6800  207.5450  151.9410 C   0  0  0  0  0  0  0  0  0  0  0  0
  161.7900  211.1810  151.3260 C   0  0  0  0  0  3  0  0  0  0  0  0
  160.5260  204.2990  150.9030 N   0  0  0  0  0  2  0  0  0  0  0  0
  162.5720  204.5430  151.9850 O   0  0  0  0  0  0  0  0  0  0  0  0
  161.6440  205.0860  151.3260 C   0  0  0  0  0  0  0  0  0  0  0  0
  160.4710  202.8540  151.0860 C   0  0  0  0  0  2  0  0  0  0  0  0
  160.2490  202.1600  149.7440 C   0  0  2  0  0  3  0  0  0  0  0  0
  159.2570  201.0170  149.8680 C   0  0  0  0  0  1  0  0  0  0  0  0
  161.6650  200.3390  149.1800 F   0  0  0  0  0  0  0  0  0  0  0  0
  161.5550  201.7140  149.0780 C   0  0  1  0  0  3  0  0  0  0  0  0
  161.6990  202.1520  147.6140 C   0  0  2  0  0  3  0  0  0  0  0  0
  161.3320  204.2930  146.4150 C   0  0  0  0  0  0  0  0  0  0  0  0
  159.6700  201.2170  144.3550 Cl  0  0  0  0  0  0  0  0  0  0  0  0
  161.3780  206.0410  146.3680 Cl  0  0  0  0  0  0  0  0  0  0  0  0
  161.7390  203.6580  147.5240 C   0  0  0  0  0  3  0  0  0  0  0  0
  160.8370  202.0340  145.4200 C   0  0  2  0  0  3  0  0  0  0  0  0
  160.6020  201.6310  146.8040 N   0  0  0  0  0  2  0  0  0  0  0  0
  160.6810  203.5490  145.2780 C   0  0  0  0  0  2  0  0  0  0  0  0
  162.0260  210.1560  153.6770 C   0  0  0  0  0  2  0  0  0  0  0  0
  160.0130  208.9090  154.0660 O   0  0  0  0  0  1  0  0  0  0  0  0
  159.8610  211.1020  157.1150 C   0  0  1  0  0  3  0  0  0  0  0  0
  160.8370  209.8900  154.6220 C   0  0  1  0  0  0  0  0  0  0  0  0
  161.3340  209.3710  155.9930 C   0  0  1  0  0  3  0  0  0  0  0  0
  162.5330  209.9820  156.3730 O   0  0  0  0  0  1  0  0  0  0  0  0
  158.4760  211.2120  157.2600 O   0  0  0  0  0  1  0  0  0  0  0  0
  160.2860  209.6210  157.0780 C   0  0  0  0  0  2  0  0  0  0  0  0
  160.3110  211.8580  156.0040 O   0  0  0  0  0  0  0  0  0  0  0  0
  159.9640  211.1630  154.8290 C   0  0  1  0  0  3  0  0  0  0  0  0
  158.8380  211.6330  152.7420 O   0  0  0  0  0  1  0  0  0  0  0  0
  159.7820  212.1250  153.6440 C   0  0  1  0  0  3  0  0  0  0  0  0
  159.4070  213.5360  154.0740 C   0  0  0  0  0  2  0  0  0  0  0  0
  158.0750  213.5600  154.8150 C   0  0  1  0  0  3  0  0  0  0  0  0
  158.2430  214.2080  156.0390 O   0  0  0  0  0  1  0  0  0  0  0  0
  156.9980  214.2640  153.9920 C   0  0  1  0  0  3  0  0  0  0  0  0
  157.4530  214.4530  152.6250 N   0  0  0  0  0  1  0  0  0  0  0  0
  155.7150  213.4460  153.9700 C   0  0  0  0  0  2  0  0  0  0  0  0
  156.1060  211.2030  154.6730 O   0  0  0  0  0  0  0  0  0  0  0  0
  155.7590  212.3670  154.9960 C   0  0  0  0  0  0  0  0  0  0  0  0
  155.4250  212.6460  156.3130 O   0  0  0  0  0  1  0  0  0  0  0  0
  1  4  1  0  0  0  0
  2 27  1  0  0  0  0
  4  9  2  0  0  0  0
  4  2  1  0  0  0  0
  5 13  1  0  0  0  0
  5  9  1  0  0  0  0
  6  8  1  0  0  0  0
  6  1  2  0  0  0  0
  7  1  1  0  0  0  0
  7 10  2  0  0  0  0
  8  5  2  0  0  0  0
  9  3  1  0  0  0  0
 10  2  1  0  0  0  0
 11 14  1  0  0  0  0
 11 13  1  0  0  0  0
 13 12  2  0  0  0  0
 15 16  1  1  0  0  0
 15 14  1  0  0  0  0
 18 17  1  6  0  0  0
 18 15  1  0  0  0  0
 19 18  1  1  0  0  0
 20 23  2  0  0  0  0
 22 20  1  0  0  0  0
 23 19  1  0  0  0  0
 24 21  1  6  0  0  0
 24 25  1  0  0  0  0
 25 19  1  0  0  0  0
 26 24  1  0  0  0  0
 26 20  1  0  0  0  0
 27 30  1  0  0  0  0
 29 33  1  6  0  0  0
 30 28  1  6  0  0  0
 30 36  1  0  0  0  0
 30 31  1  0  0  0  0
 31 32  1  1  0  0  0
 31 34  1  0  0  0  0
 34 29  1  0  0  0  0
 35 29  1  0  0  0  0
 36 38  1  6  0  0  0
 36 35  1  0  0  0  0
 38 37  1  6  0  0  0
 38 39  1  0  0  0  0
 39 40  1  0  0  0  0
 40 41  1  1  0  0  0
 42 43  1  6  0  0  0
 42 40  1  0  0  0  0
 44 42  1  0  0  0  0
 44 46  1  0  0  0  0
 45 46  2  0  0  0  0
 46 47  1  0  0  0  0
M  END
>  <MODEL>
3

>  <REMARK>
 VINA RESULT:      -5.7      2.724      3.970
  Name = 
  13 active torsions:
  status: ('A' for Active; 'I' for Inactive)
    1  A    between atoms: C_5  and  C_18
    2  A    between atoms: N_7  and  C_18
    3  A    between atoms: C_8  and  C_12
    4  A    between atoms: C_10  and  C_14
    5  A    between atoms: C_10  and  C_29
    6  A    between atoms: C_12  and  C_36
    7  A    between atoms: C_14  and  C_23
    8  A    between atoms: N_19  and  C_33
    9  A    between atoms: C_20  and  C_23
   10  A    between atoms: C_28  and  C_31
   11  A    between atoms: C_29  and  C_41
   12  A    between atoms: C_33  and  C_36
   13  A    between atoms: C_38  and  C_41
                            x       y       z     vdW  Elec       q    Type
                         _______ _______ _______ _____ _____    ______ ____

>  <TORSDO>
F 13

$$$$
=
 OpenBabel11072414513D

 47 50  0  0  1  0  0  0  0  0999 V2000
  160.6850  213.1670  149.8070 C   0  0  0  0  0  0  0  0  0  0  0  0
  159.9640  213.0130  151.9580 N   0  0  0  0  0  0  0  0  0  0  0  0
  160.9170  210.2020  151.9030 F   0  0  0  0  0  0  0  0  0  0  0  0
  160.5760  212.3310  150.8750 C   0  0  0  0  0  0  0  0  0  0  0  0
  161.5860  210.5440  149.6000 C   0  0  0  0  0  0  0  0  0  0  0  0
  161.2490  212.7600  148.6040 C   0  0  0  0  0  3  0  0  0  0  0  0
  160.1840  214.4530  150.1150 N   0  0  0  0  0  0  0  0  0  0  0  0
  161.6970  211.4360  148.5070 C   0  0  0  0  0  3  0  0  0  0  0  0
  161.0250  211.0070  150.8180 C   0  0  0  0  0  0  0  0  0  0  0  0
  159.7340  214.3930  151.5100 C   0  0  0  0  0  3  0  0  0  0  0  0
  161.8940  208.4870  148.1590 N   0  0  0  0  0  2  0  0  0  0  0  0
  162.5700  208.5350  150.3850 O   0  0  0  0  0  0  0  0  0  0  0  0
  162.0320  209.1460  149.4220 C   0  0  0  0  0  0  0  0  0  0  0  0
  162.4720  207.1770  147.8910 C   0  0  0  0  0  2  0  0  0  0  0  0
  161.3690  206.1270  147.7760 C   0  0  2  0  0  3  0  0  0  0  0  0
  161.2170  205.3390  149.0660 C   0  0  0  0  0  1  0  0  0  0  0  0
  162.6170  205.6510  145.8120 F   0  0  0  0  0  0  0  0  0  0  0  0
  161.5420  205.2080  146.5620 C   0  0  1  0  0  3  0  0  0  0  0  0
  161.7130  203.7240  146.9130 C   0  0  2  0  0  3  0  0  0  0  0  0
  160.6950  201.6260  146.0660 C   0  0  0  0  0  0  0  0  0  0  0  0
  160.7470  201.6310  150.1230 Cl  0  0  0  0  0  0  0  0  0  0  0  0
  160.0370  200.6730  144.7550 Cl  0  0  0  0  0  0  0  0  0  0  0  0
  161.1540  202.8600  145.8100 C   0  0  0  0  0  3  0  0  0  0  0  0
  161.3100  202.0020  148.4770 C   0  0  2  0  0  3  0  0  0  0  0  0
  161.0550  203.4090  148.1780 N   0  0  0  0  0  2  0  0  0  0  0  0
  160.5780  201.1080  147.4750 C   0  0  0  0  0  2  0  0  0  0  0  0
  160.1320  212.6470  153.3610 C   0  0  0  0  0  2  0  0  0  0  0  0
  159.0080  214.1620  154.8450 O   0  0  0  0  0  1  0  0  0  0  0  0
  156.4470  211.4120  154.8780 C   0  0  1  0  0  3  0  0  0  0  0  0
  158.8690  212.9310  154.2010 C   0  0  1  0  0  0  0  0  0  0  0  0
  157.6160  213.0090  153.2950 C   0  0  1  0  0  3  0  0  0  0  0  0
  157.6830  212.0920  152.2420 O   0  0  0  0  0  1  0  0  0  0  0  0
  155.9540  211.5620  156.1770 O   0  0  0  0  0  1  0  0  0  0  0  0
  156.3470  212.7410  154.1050 C   0  0  0  0  0  2  0  0  0  0  0  0
  157.7490  210.8530  154.8970 O   0  0  0  0  0  0  0  0  0  0  0  0
  158.6520  211.8540  155.3040 C   0  0  1  0  0  3  0  0  0  0  0  0
  160.0730  211.7900  157.2590 O   0  0  0  0  0  1  0  0  0  0  0  0
  159.8890  211.2480  155.9870 C   0  0  1  0  0  3  0  0  0  0  0  0
  159.8390  209.7280  156.0700 C   0  0  0  0  0  2  0  0  0  0  0  0
  161.1180  209.0960  155.5360 C   0  0  1  0  0  3  0  0  0  0  0  0
  162.1450  209.2900  156.4590 O   0  0  0  0  0  1  0  0  0  0  0  0
  160.9270  207.6040  155.2680 C   0  0  1  0  0  3  0  0  0  0  0  0
  159.8280  207.0880  156.0660 N   0  0  0  0  0  1  0  0  0  0  0  0
  160.6220  207.3540  153.7990 C   0  0  0  0  0  2  0  0  0  0  0  0
  162.4860  206.4560  152.6160 O   0  0  0  0  0  0  0  0  0  0  0  0
  161.4410  206.2250  153.2740 C   0  0  0  0  0  0  0  0  0  0  0  0
  161.0540  204.9150  153.5170 O   0  0  0  0  0  1  0  0  0  0  0  0
  1  7  1  0  0  0  0
  1  4  1  0  0  0  0
  2 27  1  0  0  0  0
  4  2  1  0  0  0  0
  5  9  1  0  0  0  0
  6  1  2  0  0  0  0
  7 10  2  0  0  0  0
  8  6  1  0  0  0  0
  8  5  2  0  0  0  0
  9  4  2  0  0  0  0
  9  3  1  0  0  0  0
 10  2  1  0  0  0  0
 11 13  1  0  0  0  0
 13  5  1  0  0  0  0
 13 12  2  0  0  0  0
 14 11  1  0  0  0  0
 15 14  1  0  0  0  0
 15 16  1  1  0  0  0
 18 17  1  1  0  0  0
 18 15  1  0  0  0  0
 19 18  1  6  0  0  0
 19 25  1  0  0  0  0
 20 26  1  0  0  0  0
 22 20  1  0  0  0  0
 23 20  2  0  0  0  0
 23 19  1  0  0  0  0
 24 21  1  1  0  0  0
 25 24  1  0  0  0  0
 26 24  1  0  0  0  0
 27 30  1  0  0  0  0
 29 35  1  0  0  0  0
 29 33  1  1  0  0  0
 30 28  1  1  0  0  0
 30 36  1  0  0  0  0
 31 32  1  6  0  0  0
 31 34  1  0  0  0  0
 31 30  1  0  0  0  0
 34 29  1  0  0  0  0
 35 36  1  0  0  0  0
 36 38  1  6  0  0  0
 38 39  1  0  0  0  0
 38 37  1  1  0  0  0
 40 39  1  0  0  0  0
 40 41  1  1  0  0  0
 42 40  1  0  0  0  0
 42 43  1  1  0  0  0
 44 42  1  0  0  0  0
 45 46  2  0  0  0  0
 46 47  1  0  0  0  0
 46 44  1  0  0  0  0
M  END
>  <MODEL>
4

>  <REMARK>
 VINA RESULT:      -5.6      2.215      5.405
  Name = 
  13 active torsions:
  status: ('A' for Active; 'I' for Inactive)
    1  A    between atoms: C_5  and  C_18
    2  A    between atoms: N_7  and  C_18
    3  A    between atoms: C_8  and  C_12
    4  A    between atoms: C_10  and  C_14
    5  A    between atoms: C_10  and  C_29
    6  A    between atoms: C_12  and  C_36
    7  A    between atoms: C_14  and  C_23
    8  A    between atoms: N_19  and  C_33
    9  A    between atoms: C_20  and  C_23
   10  A    between atoms: C_28  and  C_31
   11  A    between atoms: C_29  and  C_41
   12  A    between atoms: C_33  and  C_36
   13  A    between atoms: C_38  and  C_41
                            x       y       z     vdW  Elec       q    Type
                         _______ _______ _______ _____ _____    ______ ____

>  <TORSDO>
F 13

$$$$
=
 OpenBabel11072414513D

 47 50  0  0  1  0  0  0  0  0999 V2000
  161.8290  209.3510  150.2650 C   0  0  0  0  0  0  0  0  0  0  0  0
  161.3860  207.1340  150.0310 N   0  0  0  0  0  0  0  0  0  0  0  0
  160.6510  207.1460  152.9070 F   0  0  0  0  0  0  0  0  0  0  0  0
  161.4100  208.2370  150.9230 C   0  0  0  0  0  0  0  0  0  0  0  0
  161.2110  209.5020  152.9710 C   0  0  0  0  0  0  0  0  0  0  0  0
  161.9490  210.5830  150.8970 C   0  0  0  0  0  3  0  0  0  0  0  0
  162.0810  209.0720  148.9010 N   0  0  0  0  0  0  0  0  0  0  0  0
  161.6390  210.6490  152.2620 C   0  0  0  0  0  3  0  0  0  0  0  0
  161.0800  208.2690  152.2820 C   0  0  0  0  0  0  0  0  0  0  0  0
  161.7770  207.6490  148.7130 C   0  0  0  0  0  3  0  0  0  0  0  0
  160.8520  210.9090  155.0440 N   0  0  0  0  0  2  0  0  0  0  0  0
  160.7660  208.5840  155.1110 O   0  0  0  0  0  0  0  0  0  0  0  0
  160.9450  209.6240  154.4210 C   0  0  0  0  0  0  0  0  0  0  0  0
  160.4240  211.0800  156.4260 C   0  0  0  0  0  2  0  0  0  0  0  0
  158.9820  211.5800  156.4750 C   0  0  2  0  0  3  0  0  0  0  0  0
  158.0120  210.5270  155.9700 C   0  0  0  0  0  1  0  0  0  0  0  0
  160.0320  213.4700  155.4920 F   0  0  0  0  0  0  0  0  0  0  0  0
  158.7900  212.9230  155.7620 C   0  0  1  0  0  3  0  0  0  0  0  0
  157.9530  212.8420  154.4790 C   0  0  2  0  0  3  0  0  0  0  0  0
  158.2530  213.6990  152.1700 C   0  0  0  0  0  0  0  0  0  0  0  0
  154.4830  214.4420  153.4720 Cl  0  0  0  0  0  0  0  0  0  0  0  0
  159.2850  214.1000  150.8160 Cl  0  0  0  0  0  0  0  0  0  0  0  0
  158.8030  213.1850  153.2800 C   0  0  0  0  0  3  0  0  0  0  0  0
  156.0230  213.5630  153.3280 C   0  0  2  0  0  3  0  0  0  0  0  0
  156.8030  213.7380  154.5500 N   0  0  0  0  0  2  0  0  0  0  0  0
  156.8010  214.0960  152.1240 C   0  0  0  0  0  2  0  0  0  0  0  0
  160.5500  205.9500  150.2100 C   0  0  0  0  0  2  0  0  0  0  0  0
  162.7010  205.0720  150.8140 O   0  0  0  0  0  1  0  0  0  0  0  0
  160.7820  201.8410  150.8900 C   0  0  1  0  0  3  0  0  0  0  0  0
  161.3650  204.7080  150.6280 C   0  0  1  0  0  0  0  0  0  0  0  0
  160.8390  204.1350  151.9660 C   0  0  1  0  0  3  0  0  0  0  0  0
  159.4490  204.2450  152.0640 O   0  0  0  0  0  1  0  0  0  0  0  0
  161.7910  200.9560  150.4970 O   0  0  0  0  0  1  0  0  0  0  0  0
  161.2300  202.6640  152.1130 C   0  0  0  0  0  2  0  0  0  0  0  0
  160.3510  202.6270  149.7930 O   0  0  0  0  0  0  0  0  0  0  0  0
  161.3360  203.6010  149.5340 C   0  0  1  0  0  3  0  0  0  0  0  0
  162.6170  204.0580  147.5360 O   0  0  0  0  0  1  0  0  0  0  0  0
  161.3240  204.0300  148.0580 C   0  0  1  0  0  3  0  0  0  0  0  0
  160.4290  203.1560  147.1910 C   0  0  0  0  0  2  0  0  0  0  0  0
  161.1640  202.6590  145.9520 C   0  0  1  0  0  3  0  0  0  0  0  0
  161.2160  201.2660  145.9790 O   0  0  0  0  0  1  0  0  0  0  0  0
  160.4740  203.1330  144.6730 C   0  0  1  0  0  3  0  0  0  0  0  0
  159.2840  202.3390  144.4190 N   0  0  0  0  0  1  0  0  0  0  0  0
  160.0680  204.5950  144.7910 C   0  0  0  0  0  2  0  0  0  0  0  0
  161.7470  206.1840  145.3680 O   0  0  0  0  0  1  0  0  0  0  0  0
  161.2150  205.4890  144.4660 C   0  0  0  0  0  0  0  0  0  0  0  0
  161.7010  205.5520  143.1680 O   0  0  0  0  0  0  0  0  0  0  0  0
  1  6  2  0  0  0  0
  1  4  1  0  0  0  0
  2 27  1  0  0  0  0
  2  4  1  0  0  0  0
  4  9  2  0  0  0  0
  5 13  1  0  0  0  0
  6  8  1  0  0  0  0
  7  1  1  0  0  0  0
  8  5  2  0  0  0  0
  9  3  1  0  0  0  0
  9  5  1  0  0  0  0
 10  7  2  0  0  0  0
 10  2  1  0  0  0  0
 11 14  1  0  0  0  0
 13 11  1  0  0  0  0
 13 12  2  0  0  0  0
 14 15  1  0  0  0  0
 15 16  1  6  0  0  0
 18 17  1  6  0  0  0
 18 15  1  0  0  0  0
 19 25  1  0  0  0  0
 19 18  1  1  0  0  0
 20 23  2  0  0  0  0
 22 20  1  0  0  0  0
 23 19  1  0  0  0  0
 24 21  1  1  0  0  0
 24 25  1  0  0  0  0
 26 20  1  0  0  0  0
 26 24  1  0  0  0  0
 27 30  1  0  0  0  0
 29 33  1  6  0  0  0
 29 34  1  0  0  0  0
 30 28  1  1  0  0  0
 30 31  1  0  0  0  0
 31 32  1  6  0  0  0
 31 34  1  0  0  0  0
 35 29  1  0  0  0  0
 36 38  1  6  0  0  0
 36 35  1  0  0  0  0
 36 30  1  0  0  0  0
 38 37  1  6  0  0  0
 39 38  1  0  0  0  0
 40 41  1  6  0  0  0
 40 39  1  0  0  0  0
 42 43  1  1  0  0  0
 42 44  1  0  0  0  0
 42 40  1  0  0  0  0
 46 44  1  0  0  0  0
 46 45  1  0  0  0  0
 47 46  2  0  0  0  0
M  END
>  <MODEL>
5

>  <REMARK>
 VINA RESULT:      -5.4      4.338     10.429
  Name = 
  13 active torsions:
  status: ('A' for Active; 'I' for Inactive)
    1  A    between atoms: C_5  and  C_18
    2  A    between atoms: N_7  and  C_18
    3  A    between atoms: C_8  and  C_12
    4  A    between atoms: C_10  and  C_14
    5  A    between atoms: C_10  and  C_29
    6  A    between atoms: C_12  and  C_36
    7  A    between atoms: C_14  and  C_23
    8  A    between atoms: N_19  and  C_33
    9  A    between atoms: C_20  and  C_23
   10  A    between atoms: C_28  and  C_31
   11  A    between atoms: C_29  and  C_41
   12  A    between atoms: C_33  and  C_36
   13  A    between atoms: C_38  and  C_41
                            x       y       z     vdW  Elec       q    Type
                         _______ _______ _______ _____ _____    ______ ____

>  <TORSDO>
F 13

$$$$
=
 OpenBabel11072414513D

 47 50  0  0  1  0  0  0  0  0999 V2000
  160.7930  206.7180  154.1110 C   0  0  0  0  0  0  0  0  0  0  0  0
  161.2470  206.1710  151.9510 N   0  0  0  0  0  0  0  0  0  0  0  0
  161.1380  209.0800  151.3660 F   0  0  0  0  0  0  0  0  0  0  0  0
  160.9900  207.2260  152.8640 C   0  0  0  0  0  0  0  0  0  0  0  0
  160.6230  209.4630  153.7010 C   0  0  0  0  0  0  0  0  0  0  0  0
  160.5190  207.5280  155.2060 C   0  0  0  0  0  3  0  0  0  0  0  0
  160.9330  205.3100  154.1140 N   0  0  0  0  0  0  0  0  0  0  0  0
  160.4320  208.9100  154.9890 C   0  0  0  0  0  3  0  0  0  0  0  0
  160.9230  208.6010  152.6140 C   0  0  0  0  0  0  0  0  0  0  0  0
  161.2530  204.9290  152.7340 C   0  0  0  0  0  3  0  0  0  0  0  0
  159.6850  211.4550  152.4550 N   0  0  0  0  0  2  0  0  0  0  0  0
  161.0090  211.7090  154.3510 O   0  0  0  0  0  0  0  0  0  0  0  0
  160.4690  210.9230  153.5260 C   0  0  0  0  0  0  0  0  0  0  0  0
  159.3660  212.8730  152.3460 C   0  0  0  0  0  2  0  0  0  0  0  0
  157.9090  213.0560  151.9240 C   0  0  2  0  0  3  0  0  0  0  0  0
  157.8010  213.4590  150.4640 C   0  0  0  0  0  1  0  0  0  0  0  0
  155.9980  214.4400  152.1840 F   0  0  0  0  0  0  0  0  0  0  0  0
  157.1370  214.0110  152.8400 C   0  0  1  0  0  3  0  0  0  0  0  0
  156.7730  213.4180  154.2080 C   0  0  2  0  0  3  0  0  0  0  0  0
  158.0980  212.6490  156.1590 C   0  0  0  0  0  0  0  0  0  0  0  0
  155.2110  209.9440  155.2600 Cl  0  0  0  0  0  0  0  0  0  0  0  0
  159.4910  212.7950  157.2080 Cl  0  0  0  0  0  0  0  0  0  0  0  0
  157.9480  213.5180  155.1480 C   0  0  0  0  0  3  0  0  0  0  0  0
  155.9660  211.5490  155.4010 C   0  0  2  0  0  3  0  0  0  0  0  0
  156.3530  212.0260  154.0760 N   0  0  0  0  0  2  0  0  0  0  0  0
  157.1930  211.4560  156.3090 C   0  0  0  0  0  2  0  0  0  0  0  0
  161.9780  206.3290  150.6980 C   0  0  0  0  0  2  0  0  0  0  0  0
  159.7180  206.4740  149.9020 O   0  0  0  0  0  1  0  0  0  0  0  0
  161.4200  206.1490  146.5670 C   0  0  1  0  0  3  0  0  0  0  0  0
  161.0440  206.3880  149.4710 C   0  0  1  0  0  0  0  0  0  0  0  0
  161.3460  207.6410  148.6140 C   0  0  1  0  0  3  0  0  0  0  0  0
  162.7130  207.9330  148.5890 O   0  0  0  0  0  1  0  0  0  0  0  0
  160.4270  205.4670  145.8590 O   0  0  0  0  0  1  0  0  0  0  0  0
  160.8550  207.4450  147.1800 C   0  0  0  0  0  2  0  0  0  0  0  0
  162.0430  205.2920  147.5080 O   0  0  0  0  0  0  0  0  0  0  0  0
  161.1620  205.1100  148.5900 C   0  0  1  0  0  3  0  0  0  0  0  0
  162.2050  203.9180  150.4170 O   0  0  0  0  0  1  0  0  0  0  0  0
  161.4020  203.7610  149.2870 C   0  0  1  0  0  3  0  0  0  0  0  0
  160.1110  203.0440  149.6590 C   0  0  0  0  0  2  0  0  0  0  0  0
  160.0520  201.6480  149.0520 C   0  0  1  0  0  3  0  0  0  0  0  0
  158.8400  201.4920  148.3790 O   0  0  0  0  0  1  0  0  0  0  0  0
  161.2190  201.4120  148.0950 C   0  0  1  0  0  3  0  0  0  0  0  0
  162.2090  200.5470  148.7140 N   0  0  0  0  0  1  0  0  0  0  0  0
  160.7370  200.7580  146.8080 C   0  0  0  0  0  2  0  0  0  0  0  0
  159.5870  201.6610  144.9260 O   0  0  0  0  0  0  0  0  0  0  0  0
  160.5370  201.7780  145.7410 C   0  0  0  0  0  0  0  0  0  0  0  0
  161.3960  202.8630  145.6470 O   0  0  0  0  0  1  0  0  0  0  0  0
  1  7  1  0  0  0  0
  1  6  1  0  0  0  0
  2 10  1  0  0  0  0
  2  4  1  0  0  0  0
  3  9  1  0  0  0  0
  4  1  2  0  0  0  0
  5  8  1  0  0  0  0
  8  6  2  0  0  0  0
  9  4  1  0  0  0  0
  9  5  2  0  0  0  0
 10  7  2  0  0  0  0
 11 13  1  0  0  0  0
 13  5  1  0  0  0  0
 13 12  2  0  0  0  0
 14 11  1  0  0  0  0
 15 16  1  6  0  0  0
 15 14  1  0  0  0  0
 15 18  1  0  0  0  0
 18 17  1  6  0  0  0
 19 18  1  6  0  0  0
 19 23  1  0  0  0  0
 20 26  1  0  0  0  0
 20 22  1  0  0  0  0
 23 20  2  0  0  0  0
 24 21  1  6  0  0  0
 24 26  1  0  0  0  0
 25 19  1  0  0  0  0
 25 24  1  0  0  0  0
 27  2  1  0  0  0  0
 29 33  1  1  0  0  0
 29 34  1  0  0  0  0
 29 35  1  0  0  0  0
 30 28  1  1  0  0  0
 30 27  1  0  0  0  0
 31 32  1  6  0  0  0
 31 30  1  0  0  0  0
 34 31  1  0  0  0  0
 35 36  1  0  0  0  0
 36 38  1  1  0  0  0
 36 30  1  0  0  0  0
 38 39  1  0  0  0  0
 38 37  1  1  0  0  0
 40 41  1  6  0  0  0
 40 39  1  0  0  0  0
 42 43  1  1  0  0  0
 42 40  1  0  0  0  0
 44 42  1  0  0  0  0
 45 46  2  0  0  0  0
 46 44  1  0  0  0  0
 47 46  1  0  0  0  0
M  END
>  <MODEL>
6

>  <REMARK>
 VINA RESULT:      -5.2      3.831     10.183
  Name = 
  13 active torsions:
  status: ('A' for Active; 'I' for Inactive)
    1  A    between atoms: C_5  and  C_18
    2  A    between atoms: N_7  and  C_18
    3  A    between atoms: C_8  and  C_12
    4  A    between atoms: C_10  and  C_14
    5  A    between atoms: C_10  and  C_29
    6  A    between atoms: C_12  and  C_36
    7  A    between atoms: C_14  and  C_23
    8  A    between atoms: N_19  and  C_33
    9  A    between atoms: C_20  and  C_23
   10  A    between atoms: C_28  and  C_31
   11  A    between atoms: C_29  and  C_41
   12  A    between atoms: C_33  and  C_36
   13  A    between atoms: C_38  and  C_41
                            x       y       z     vdW  Elec       q    Type
                         _______ _______ _______ _____ _____    ______ ____

>  <TORSDO>
F 13

$$$$
