=
 OpenBabel11072413503D

 29 31  0  0  1  0  0  0  0  0999 V2000
  160.2370  205.2410  147.0840 O   0  0  0  0  0  0  0  0  0  0  0  0
  160.3910  205.9400  145.8700 C   0  0  2  0  0  3  0  0  0  0  0  0
  159.2400  205.7840  145.1000 O   0  0  0  0  0  1  0  0  0  0  0  0
  162.0500  206.7260  148.0370 C   0  0  2  0  0  3  0  0  0  0  0  0
  161.3620  205.3600  147.9580 C   0  0  2  0  0  0  0  0  0  0  0  0
  161.5820  205.3990  145.1140 C   0  0  0  0  0  2  0  0  0  0  0  0
  162.7650  205.5510  147.3580 C   0  0  1  0  0  3  0  0  0  0  0  0
  162.8290  205.8340  145.8550 C   0  0  0  0  0  2  0  0  0  0  0  0
  161.2950  204.5100  149.2430 C   0  0  1  0  0  3  0  0  0  0  0  0
  160.9090  205.1330  151.5980 C   0  0  0  0  0  2  0  0  0  0  0  0
  160.5230  205.2030  150.3260 C   0  0  0  0  0  3  0  0  0  0  0  0
  160.7510  203.0890  149.0440 C   0  0  2  0  0  3  0  0  0  0  0  0
  160.8210  202.1040  150.5790 S   0  0  0  0  0  0  0  0  0  0  0  0
  159.3660  201.1310  150.1040 C   0  0  0  0  0  1  0  0  0  0  0  0
  162.0110  201.2050  148.2040 O   0  0  0  0  0  1  0  0  0  0  0  0
  161.3060  202.3480  147.8190 C   0  0  1  0  0  3  0  0  0  0  0  0
  160.1870  201.9560  146.8670 C   0  0  0  0  0  2  0  0  0  0  0  0
  159.9920  200.9240  144.7320 O   0  0  0  0  0  0  0  0  0  0  0  0
  159.6050  202.2560  144.5040 C   0  0  0  0  0  2  0  0  0  0  0  0
  160.6980  201.9140  145.4390 C   0  0  1  0  0  3  0  0  0  0  0  0
  162.8760  207.0760  149.6280 S   0  0  0  0  0  0  0  0  0  0  0  0
  162.1570  208.7130  149.7200 C   0  0  0  0  0  0  0  0  0  0  0  0
  161.8430  209.3300  148.6400 N   0  0  0  0  0  2  0  0  0  0  0  0
  161.9690  209.3610  151.0610 C   0  0  1  0  0  3  0  0  0  0  0  0
  161.7670  210.7390  150.9280 O   0  0  0  0  0  1  0  0  0  0  0  0
  160.8500  208.7140  151.8810 C   0  0  0  0  0  2  0  0  0  0  0  0
  161.4860  209.8770  154.0010 O   0  0  0  0  0  0  0  0  0  0  0  0
  161.0250  207.6320  154.0010 O   0  0  0  0  0  1  0  0  0  0  0  0
  161.1290  208.7040  153.3500 C   0  0  0  0  0  0  0  0  0  0  0  0
  1  5  1  0  0  0  0
  2  3  1  6  0  0  0
  2  1  1  0  0  0  0
  4 21  1  1  0  0  0
  5  4  1  0  0  0  0
  5  9  1  1  0  0  0
  6  8  1  0  0  0  0
  6  2  1  0  0  0  0
  7  8  1  6  0  0  0
  7  5  1  0  0  0  0
  7  4  1  0  0  0  0
  9 11  1  1  0  0  0
 11 10  2  0  0  0  0
 12  9  1  0  0  0  0
 12 13  1  1  0  0  0
 14 13  1  0  0  0  0
 16 15  1  1  0  0  0
 16 12  1  0  0  0  0
 17 16  1  0  0  0  0
 18 20  1  0  0  0  0
 19 18  1  0  0  0  0
 19 20  1  0  0  0  0
 20 17  1  1  0  0  0
 21 22  1  0  0  0  0
 22 24  1  0  0  0  0
 23 22  2  0  0  0  0
 24 25  1  6  0  0  0
 24 26  1  0  0  0  0
 26 29  1  0  0  0  0
 29 27  2  0  0  0  0
 29 28  1  0  0  0  0
M  END
>  <MODEL>
1

>  <REMARK>
 VINA RESULT:      -4.6      0.000      0.000
  Name = 
  12 active torsions:
  status: ('A' for Active; 'I' for Inactive)
    1  A    between atoms: C_1  and  C_18
    2  A    between atoms: C_1  and  C_23
    3  A    between atoms: S_2  and  C_16
    4  A    between atoms: C_10  and  S_28
    5  A    between atoms: C_11  and  C_12
    6  A    between atoms: C_11  and  S_28
    7  A    between atoms: C_12  and  C_21
    8  A    between atoms: C_13  and  C_16
    9  A    between atoms: C_13  and  C_17
   10  A    between atoms: C_13  and  C_19
   11  A    between atoms: C_16  and  C_23
   12  A    between atoms: C_21  and  C_22
                            x       y       z     vdW  Elec       q    Type
                         _______ _______ _______ _____ _____    ______ ____

>  <TORSDO>
F 12

$$$$
=
 OpenBabel11072413503D

 29 31  0  0  1  0  0  0  0  0999 V2000
  162.1740  210.3490  154.7480 O   0  0  0  0  0  0  0  0  0  0  0  0
  162.0660  211.0450  155.9690 C   0  0  2  0  0  3  0  0  0  0  0  0
  163.3220  211.1240  156.5670 O   0  0  0  0  0  1  0  0  0  0  0  0
  160.0030  211.4500  154.0580 C   0  0  2  0  0  3  0  0  0  0  0  0
  160.9350  210.2350  154.0440 C   0  0  2  0  0  0  0  0  0  0  0  0
  161.1120  210.3190  156.8900 C   0  0  0  0  0  2  0  0  0  0  0  0
  159.6190  210.1860  154.8370 C   0  0  1  0  0  3  0  0  0  0  0  0
  159.7150  210.4980  156.3330 C   0  0  0  0  0  2  0  0  0  0  0  0
  160.9770  209.3740  152.7660 C   0  0  1  0  0  3  0  0  0  0  0  0
  161.8840  210.2960  150.6650 C   0  0  0  0  0  2  0  0  0  0  0  0
  162.1100  209.7700  151.8660 C   0  0  0  0  0  3  0  0  0  0  0  0
  161.0150  207.8590  153.0140 C   0  0  2  0  0  3  0  0  0  0  0  0
  161.5220  207.4530  154.7190 S   0  0  0  0  0  0  0  0  0  0  0  0
  159.9000  206.7390  155.1060 C   0  0  0  0  0  1  0  0  0  0  0  0
  162.7440  206.2430  152.5270 O   0  0  0  0  0  1  0  0  0  0  0  0
  161.7610  207.0470  151.9460 C   0  0  1  0  0  3  0  0  0  0  0  0
  160.7990  206.1760  151.1540 C   0  0  0  0  0  2  0  0  0  0  0  0
  160.3350  203.8540  150.9190 O   0  0  0  0  0  0  0  0  0  0  0  0
  160.8910  204.2180  149.6810 C   0  0  0  0  0  2  0  0  0  0  0  0
  161.3840  204.7900  150.9510 C   0  0  1  0  0  3  0  0  0  0  0  0
  158.9130  211.5960  152.6010 S   0  0  0  0  0  0  0  0  0  0  0  0
  158.4300  213.2630  153.0420 C   0  0  0  0  0  0  0  0  0  0  0  0
  159.2640  214.2260  152.8900 N   0  0  0  0  0  2  0  0  0  0  0  0
  157.0680  213.5070  153.6240 C   0  0  1  0  0  3  0  0  0  0  0  0
  156.1610  213.8930  152.6330 O   0  0  0  0  0  1  0  0  0  0  0  0
  156.5420  212.3110  154.4220 C   0  0  0  0  0  2  0  0  0  0  0  0
  156.7650  213.8130  156.4080 O   0  0  0  0  0  0  0  0  0  0  0  0
  156.3780  211.5710  156.6850 O   0  0  0  0  0  1  0  0  0  0  0  0
  156.5620  212.5370  155.9000 C   0  0  0  0  0  0  0  0  0  0  0  0
  1  2  1  0  0  0  0
  2  3  1  1  0  0  0
  2  6  1  0  0  0  0
  4 21  1  6  0  0  0
  4  7  1  0  0  0  0
  5  9  1  6  0  0  0
  5  4  1  0  0  0  0
  5  1  1  0  0  0  0
  5  7  1  0  0  0  0
  7  8  1  1  0  0  0
  8  6  1  0  0  0  0
  9 11  1  1  0  0  0
  9 12  1  0  0  0  0
 10 11  2  0  0  0  0
 12 13  1  1  0  0  0
 13 14  1  0  0  0  0
 16 15  1  1  0  0  0
 16 12  1  0  0  0  0
 17 16  1  0  0  0  0
 18 20  1  0  0  0  0
 19 18  1  0  0  0  0
 19 20  1  0  0  0  0
 20 17  1  6  0  0  0
 21 22  1  0  0  0  0
 22 24  1  0  0  0  0
 23 22  2  0  0  0  0
 24 25  1  6  0  0  0
 24 26  1  0  0  0  0
 26 29  1  0  0  0  0
 29 27  2  0  0  0  0
 29 28  1  0  0  0  0
M  END
>  <MODEL>
2

>  <REMARK>
 VINA RESULT:      -4.5      4.178      7.838
  Name = 
  12 active torsions:
  status: ('A' for Active; 'I' for Inactive)
    1  A    between atoms: C_1  and  C_18
    2  A    between atoms: C_1  and  C_23
    3  A    between atoms: S_2  and  C_16
    4  A    between atoms: C_10  and  S_28
    5  A    between atoms: C_11  and  C_12
    6  A    between atoms: C_11  and  S_28
    7  A    between atoms: C_12  and  C_21
    8  A    between atoms: C_13  and  C_16
    9  A    between atoms: C_13  and  C_17
   10  A    between atoms: C_13  and  C_19
   11  A    between atoms: C_16  and  C_23
   12  A    between atoms: C_21  and  C_22
                            x       y       z     vdW  Elec       q    Type
                         _______ _______ _______ _____ _____    ______ ____

>  <TORSDO>
F 12

$$$$
=
 OpenBabel11072413503D

 29 31  0  0  1  0  0  0  0  0999 V2000
  159.4060  209.2630  155.2170 O   0  0  0  0  0  0  0  0  0  0  0  0
  159.9880  208.0910  155.7410 C   0  0  2  0  0  3  0  0  0  0  0  0
  159.0170  207.3600  156.4240 O   0  0  0  0  0  1  0  0  0  0  0  0
  161.3340  209.3510  153.5800 C   0  0  2  0  0  3  0  0  0  0  0  0
  160.3220  210.0720  154.4760 C   0  0  2  0  0  0  0  0  0  0  0  0
  161.1070  208.4530  156.6900 C   0  0  0  0  0  2  0  0  0  0  0  0
  161.8140  210.0610  154.8520 C   0  0  1  0  0  3  0  0  0  0  0  0
  162.2520  208.9940  155.8590 C   0  0  0  0  0  2  0  0  0  0  0  0
  159.7670  211.4260  153.9910 C   0  0  1  0  0  3  0  0  0  0  0  0
  158.6470  212.1150  151.9030 C   0  0  0  0  0  2  0  0  0  0  0  0
  158.7410  211.2500  152.9100 C   0  0  0  0  0  3  0  0  0  0  0  0
  159.2030  212.3240  155.1010 C   0  0  2  0  0  3  0  0  0  0  0  0
  160.2400  212.2970  156.6020 S   0  0  0  0  0  0  0  0  0  0  0  0
  160.1110  214.0940  156.8100 C   0  0  0  0  0  1  0  0  0  0  0  0
  157.5150  211.4260  156.5800 O   0  0  0  0  0  1  0  0  0  0  0  0
  157.7070  212.1330  155.3900 C   0  0  1  0  0  3  0  0  0  0  0  0
  156.9950  213.4740  155.4780 C   0  0  0  0  0  2  0  0  0  0  0  0
  155.3220  213.1190  153.8230 O   0  0  0  0  0  0  0  0  0  0  0  0
  155.1040  214.4400  154.2520 C   0  0  0  0  0  2  0  0  0  0  0  0
  156.4660  213.8830  154.1160 C   0  0  1  0  0  3  0  0  0  0  0  0
  161.8900  210.3080  152.1280 S   0  0  0  0  0  0  0  0  0  0  0  0
  161.9720  208.8400  151.1060 C   0  0  0  0  0  0  0  0  0  0  0  0
  162.2900  207.7150  151.6350 N   0  0  0  0  0  2  0  0  0  0  0  0
  161.7090  208.9520  149.6320 C   0  0  1  0  0  3  0  0  0  0  0  0
  162.1490  210.1830  149.1360 O   0  0  0  0  0  1  0  0  0  0  0  0
  162.3030  207.7880  148.8330 C   0  0  0  0  0  2  0  0  0  0  0  0
  160.2670  206.3470  148.9930 O   0  0  0  0  0  1  0  0  0  0  0  0
  161.2830  206.7030  146.9700 O   0  0  0  0  0  0  0  0  0  0  0  0
  161.2640  206.9130  148.2100 C   0  0  0  0  0  0  0  0  0  0  0  0
  1  2  1  0  0  0  0
  2  3  1  1  0  0  0
  2  6  1  0  0  0  0
  4 21  1  6  0  0  0
  4  5  1  0  0  0  0
  4  7  1  0  0  0  0
  5  9  1  6  0  0  0
  5  7  1  0  0  0  0
  5  1  1  0  0  0  0
  7  8  1  1  0  0  0
  8  6  1  0  0  0  0
  9 11  1  6  0  0  0
  9 12  1  0  0  0  0
 10 11  2  0  0  0  0
 12 16  1  0  0  0  0
 12 13  1  1  0  0  0
 13 14  1  0  0  0  0
 16 17  1  0  0  0  0
 16 15  1  1  0  0  0
 18 20  1  0  0  0  0
 18 19  1  0  0  0  0
 20 19  1  0  0  0  0
 20 17  1  1  0  0  0
 22 23  2  0  0  0  0
 22 21  1  0  0  0  0
 24 25  1  6  0  0  0
 24 22  1  0  0  0  0
 26 24  1  0  0  0  0
 28 29  2  0  0  0  0
 29 26  1  0  0  0  0
 29 27  1  0  0  0  0
M  END
>  <MODEL>
3

>  <REMARK>
 VINA RESULT:      -4.2      4.326     10.005
  Name = 
  12 active torsions:
  status: ('A' for Active; 'I' for Inactive)
    1  A    between atoms: C_1  and  C_18
    2  A    between atoms: C_1  and  C_23
    3  A    between atoms: S_2  and  C_16
    4  A    between atoms: C_10  and  S_28
    5  A    between atoms: C_11  and  C_12
    6  A    between atoms: C_11  and  S_28
    7  A    between atoms: C_12  and  C_21
    8  A    between atoms: C_13  and  C_16
    9  A    between atoms: C_13  and  C_17
   10  A    between atoms: C_13  and  C_19
   11  A    between atoms: C_16  and  C_23
   12  A    between atoms: C_21  and  C_22
                            x       y       z     vdW  Elec       q    Type
                         _______ _______ _______ _____ _____    ______ ____

>  <TORSDO>
F 12

$$$$
=
 OpenBabel11072413503D

 29 31  0  0  1  0  0  0  0  0999 V2000
  159.4120  208.9740  156.0800 O   0  0  0  0  0  0  0  0  0  0  0  0
  160.4810  208.0990  156.3610 C   0  0  2  0  0  3  0  0  0  0  0  0
  160.0540  207.1220  157.2590 O   0  0  0  0  0  1  0  0  0  0  0  0
  160.6430  209.6180  153.9650 C   0  0  2  0  0  3  0  0  0  0  0  0
  159.7460  210.0030  155.1460 C   0  0  2  0  0  0  0  0  0  0  0  0
  161.6310  208.8720  156.9650 C   0  0  0  0  0  2  0  0  0  0  0  0
  161.1940  210.5180  155.0780 C   0  0  1  0  0  3  0  0  0  0  0  0
  162.2370  209.7210  155.8660 C   0  0  0  0  0  2  0  0  0  0  0  0
  158.6500  211.0600  154.9050 C   0  0  1  0  0  3  0  0  0  0  0  0
  156.2500  210.4900  154.9600 C   0  0  0  0  0  2  0  0  0  0  0  0
  157.3800  210.7170  155.6260 C   0  0  0  0  0  3  0  0  0  0  0  0
  159.0630  212.5000  155.2360 C   0  0  2  0  0  3  0  0  0  0  0  0
  158.7720  212.9160  156.9880 S   0  0  0  0  0  0  0  0  0  0  0  0
  160.5210  213.3070  157.2610 C   0  0  0  0  0  1  0  0  0  0  0  0
  158.4430  213.0510  152.9660 O   0  0  0  0  0  1  0  0  0  0  0  0
  158.5390  213.5650  154.2610 C   0  0  1  0  0  3  0  0  0  0  0  0
  157.1790  214.0830  154.7020 C   0  0  0  0  0  2  0  0  0  0  0  0
  155.3330  213.2130  153.4780 O   0  0  0  0  0  0  0  0  0  0  0  0
  154.8730  214.4530  153.9550 C   0  0  0  0  0  2  0  0  0  0  0  0
  156.2670  214.2640  153.5020 C   0  0  1  0  0  3  0  0  0  0  0  0
  160.4010  210.6230  152.4610 S   0  0  0  0  0  0  0  0  0  0  0  0
  161.8060  209.8680  151.6470 C   0  0  0  0  0  0  0  0  0  0  0  0
  162.9820  210.0260  152.1340 N   0  0  0  0  0  2  0  0  0  0  0  0
  161.5940  209.0930  150.3790 C   0  0  1  0  0  3  0  0  0  0  0  0
  162.0110  209.8290  149.2660 O   0  0  0  0  0  1  0  0  0  0  0  0
  162.2560  207.7130  150.4100 C   0  0  0  0  0  2  0  0  0  0  0  0
  160.8920  205.7470  149.6860 O   0  0  0  0  0  0  0  0  0  0  0  0
  160.8580  206.4430  151.8690 O   0  0  0  0  0  1  0  0  0  0  0  0
  161.2930  206.6060  150.7000 C   0  0  0  0  0  0  0  0  0  0  0  0
  1  2  1  0  0  0  0
  2  6  1  0  0  0  0
  2  3  1  1  0  0  0
  4 21  1  6  0  0  0
  4  7  1  0  0  0  0
  4  5  1  0  0  0  0
  5  9  1  6  0  0  0
  5  1  1  0  0  0  0
  7  5  1  0  0  0  0
  7  8  1  1  0  0  0
  8  6  1  0  0  0  0
  9 12  1  0  0  0  0
  9 11  1  1  0  0  0
 10 11  2  0  0  0  0
 12 13  1  1  0  0  0
 13 14  1  0  0  0  0
 16 15  1  6  0  0  0
 16 17  1  0  0  0  0
 16 12  1  0  0  0  0
 18 20  1  0  0  0  0
 18 19  1  0  0  0  0
 20 19  1  0  0  0  0
 20 17  1  1  0  0  0
 22 23  2  0  0  0  0
 22 21  1  0  0  0  0
 24 25  1  6  0  0  0
 24 26  1  0  0  0  0
 24 22  1  0  0  0  0
 26 29  1  0  0  0  0
 27 29  2  0  0  0  0
 29 28  1  0  0  0  0
M  END
>  <MODEL>
4

>  <REMARK>
 VINA RESULT:      -4.2      4.682     10.112
  Name = 
  12 active torsions:
  status: ('A' for Active; 'I' for Inactive)
    1  A    between atoms: C_1  and  C_18
    2  A    between atoms: C_1  and  C_23
    3  A    between atoms: S_2  and  C_16
    4  A    between atoms: C_10  and  S_28
    5  A    between atoms: C_11  and  C_12
    6  A    between atoms: C_11  and  S_28
    7  A    between atoms: C_12  and  C_21
    8  A    between atoms: C_13  and  C_16
    9  A    between atoms: C_13  and  C_17
   10  A    between atoms: C_13  and  C_19
   11  A    between atoms: C_16  and  C_23
   12  A    between atoms: C_21  and  C_22
                            x       y       z     vdW  Elec       q    Type
                         _______ _______ _______ _____ _____    ______ ____

>  <TORSDO>
F 12

$$$$
=
 OpenBabel11072413503D

 29 31  0  0  1  0  0  0  0  0999 V2000
  160.9350  208.1960  152.7310 O   0  0  0  0  0  0  0  0  0  0  0  0
  161.2950  208.3470  151.3760 C   0  0  2  0  0  3  0  0  0  0  0  0
  161.6760  207.1090  150.8600 O   0  0  0  0  0  1  0  0  0  0  0  0
  159.6360  210.3560  152.5080 C   0  0  2  0  0  3  0  0  0  0  0  0
  160.5050  209.4130  153.3460 C   0  0  2  0  0  0  0  0  0  0  0  0
  162.4450  209.3200  151.2560 C   0  0  0  0  0  2  0  0  0  0  0  0
  161.0780  210.7520  152.8510 C   0  0  1  0  0  3  0  0  0  0  0  0
  161.9060  210.7020  151.5640 C   0  0  0  0  0  2  0  0  0  0  0  0
  160.2230  209.3260  154.8590 C   0  0  1  0  0  3  0  0  0  0  0  0
  159.3450  207.4090  156.1400 C   0  0  0  0  0  2  0  0  0  0  0  0
  160.2960  207.9130  155.3570 C   0  0  0  0  0  3  0  0  0  0  0  0
  161.1080  210.2300  155.7290 C   0  0  2  0  0  3  0  0  0  0  0  0
  162.3090  209.2750  156.7160 S   0  0  0  0  0  0  0  0  0  0  0  0
  163.2700  210.7600  157.1140 C   0  0  0  0  0  1  0  0  0  0  0  0
  160.5350  212.5610  156.0090 O   0  0  0  0  0  1  0  0  0  0  0  0
  160.3490  211.2850  156.5460 C   0  0  1  0  0  3  0  0  0  0  0  0
  158.8630  210.9700  156.5970 C   0  0  0  0  0  2  0  0  0  0  0  0
  157.2290  212.6730  156.2860 O   0  0  0  0  0  0  0  0  0  0  0  0
  156.6520  211.8150  157.2390 C   0  0  0  0  0  2  0  0  0  0  0  0
  158.1000  212.1140  157.2390 C   0  0  1  0  0  3  0  0  0  0  0  0
  158.4940  211.4040  153.4730 S   0  0  0  0  0  0  0  0  0  0  0  0
  158.9610  212.8730  152.5610 C   0  0  0  0  0  0  0  0  0  0  0  0
  159.2790  213.9400  153.1970 N   0  0  0  0  0  2  0  0  0  0  0  0
  158.9320  212.8490  151.0600 C   0  0  1  0  0  3  0  0  0  0  0  0
  157.6590  213.1660  150.5780 O   0  0  0  0  0  1  0  0  0  0  0  0
  160.0020  213.7460  150.4320 C   0  0  0  0  0  2  0  0  0  0  0  0
  159.4860  213.7870  147.9860 O   0  0  0  0  0  0  0  0  0  0  0  0
  161.3550  212.7120  148.7610 O   0  0  0  0  0  1  0  0  0  0  0  0
  160.3200  213.3790  149.0180 C   0  0  0  0  0  0  0  0  0  0  0  0
  1  5  1  0  0  0  0
  2  3  1  1  0  0  0
  2  1  1  0  0  0  0
  4  7  1  0  0  0  0
  4  5  1  0  0  0  0
  4 21  1  1  0  0  0
  5  9  1  1  0  0  0
  6  2  1  0  0  0  0
  6  8  1  0  0  0  0
  7  8  1  6  0  0  0
  7  5  1  0  0  0  0
  9 11  1  1  0  0  0
  9 12  1  0  0  0  0
 11 10  2  0  0  0  0
 12 16  1  0  0  0  0
 12 13  1  1  0  0  0
 13 14  1  0  0  0  0
 16 15  1  6  0  0  0
 16 17  1  0  0  0  0
 18 20  1  0  0  0  0
 18 19  1  0  0  0  0
 20 17  1  6  0  0  0
 20 19  1  0  0  0  0
 22 23  2  0  0  0  0
 22 21  1  0  0  0  0
 24 25  1  1  0  0  0
 24 22  1  0  0  0  0
 26 24  1  0  0  0  0
 27 29  2  0  0  0  0
 28 29  1  0  0  0  0
 29 26  1  0  0  0  0
M  END
>  <MODEL>
5

>  <REMARK>
 VINA RESULT:      -4.0      5.832      9.310
  Name = 
  12 active torsions:
  status: ('A' for Active; 'I' for Inactive)
    1  A    between atoms: C_1  and  C_18
    2  A    between atoms: C_1  and  C_23
    3  A    between atoms: S_2  and  C_16
    4  A    between atoms: C_10  and  S_28
    5  A    between atoms: C_11  and  C_12
    6  A    between atoms: C_11  and  S_28
    7  A    between atoms: C_12  and  C_21
    8  A    between atoms: C_13  and  C_16
    9  A    between atoms: C_13  and  C_17
   10  A    between atoms: C_13  and  C_19
   11  A    between atoms: C_16  and  C_23
   12  A    between atoms: C_21  and  C_22
                            x       y       z     vdW  Elec       q    Type
                         _______ _______ _______ _____ _____    ______ ____

>  <TORSDO>
F 12

$$$$
=
 OpenBabel11072413503D

 29 31  0  0  1  0  0  0  0  0999 V2000
  159.4960  209.0830  155.9280 O   0  0  0  0  0  0  0  0  0  0  0  0
  160.6140  208.2670  156.1910 C   0  0  2  0  0  3  0  0  0  0  0  0
  160.2450  207.2460  157.0660 O   0  0  0  0  0  1  0  0  0  0  0  0
  160.6880  209.8460  153.8310 C   0  0  2  0  0  3  0  0  0  0  0  0
  159.7690  210.1510  155.0180 C   0  0  2  0  0  0  0  0  0  0  0  0
  161.7160  209.0920  156.8150 C   0  0  0  0  0  2  0  0  0  0  0  0
  161.1840  210.7520  154.9650 C   0  0  1  0  0  3  0  0  0  0  0  0
  162.2710  210.0010  155.7370 C   0  0  0  0  0  2  0  0  0  0  0  0
  158.6130  211.1460  154.7980 C   0  0  1  0  0  3  0  0  0  0  0  0
  156.1960  210.7110  155.0370 C   0  0  0  0  0  2  0  0  0  0  0  0
  157.4010  210.7740  155.6000 C   0  0  0  0  0  3  0  0  0  0  0  0
  158.9740  212.6160  155.0520 C   0  0  2  0  0  3  0  0  0  0  0  0
  158.5530  213.1460  156.7460 S   0  0  0  0  0  0  0  0  0  0  0  0
  160.2560  213.6750  157.0790 C   0  0  0  0  0  1  0  0  0  0  0  0
  158.3320  212.9460  152.7450 O   0  0  0  0  0  1  0  0  0  0  0  0
  158.4960  213.5960  153.9700 C   0  0  1  0  0  3  0  0  0  0  0  0
  157.1870  214.2550  154.3730 C   0  0  0  0  0  2  0  0  0  0  0  0
  155.2290  213.1170  153.6430 O   0  0  0  0  0  0  0  0  0  0  0  0
  154.8160  214.4530  153.7820 C   0  0  0  0  0  2  0  0  0  0  0  0
  156.1570  214.1050  153.2680 C   0  0  1  0  0  3  0  0  0  0  0  0
  160.3890  210.8690  152.3490 S   0  0  0  0  0  0  0  0  0  0  0  0
  161.2310  209.7000  151.2860 C   0  0  0  0  0  0  0  0  0  0  0  0
  161.1810  208.4470  151.5570 N   0  0  0  0  0  2  0  0  0  0  0  0
  162.0200  210.2040  150.1130 C   0  0  1  0  0  3  0  0  0  0  0  0
  162.0990  209.2350  149.1080 O   0  0  0  0  0  1  0  0  0  0  0  0
  161.4850  211.5290  149.5640 C   0  0  0  0  0  2  0  0  0  0  0  0
  161.0760  212.2310  147.2000 O   0  0  0  0  0  0  0  0  0  0  0  0
  163.1970  211.7410  147.9160 O   0  0  0  0  0  1  0  0  0  0  0  0
  161.9720  211.8320  148.1830 C   0  0  0  0  0  0  0  0  0  0  0  0
  1  2  1  0  0  0  0
  2  6  1  0  0  0  0
  2  3  1  1  0  0  0
  4 21  1  6  0  0  0
  4  7  1  0  0  0  0
  4  5  1  0  0  0  0
  5  9  1  6  0  0  0
  5  1  1  0  0  0  0
  7  5  1  0  0  0  0
  7  8  1  1  0  0  0
  8  6  1  0  0  0  0
  9 12  1  0  0  0  0
  9 11  1  1  0  0  0
 10 11  2  0  0  0  0
 12 13  1  1  0  0  0
 13 14  1  0  0  0  0
 16 15  1  6  0  0  0
 16 17  1  0  0  0  0
 16 12  1  0  0  0  0
 18 19  1  0  0  0  0
 20 18  1  0  0  0  0
 20 19  1  0  0  0  0
 20 17  1  1  0  0  0
 22 23  2  0  0  0  0
 22 21  1  0  0  0  0
 24 25  1  6  0  0  0
 24 22  1  0  0  0  0
 26 24  1  0  0  0  0
 27 29  2  0  0  0  0
 28 29  1  0  0  0  0
 29 26  1  0  0  0  0
M  END
>  <MODEL>
6

>  <REMARK>
 VINA RESULT:      -3.7      6.170     10.262
  Name = 
  12 active torsions:
  status: ('A' for Active; 'I' for Inactive)
    1  A    between atoms: C_1  and  C_18
    2  A    between atoms: C_1  and  C_23
    3  A    between atoms: S_2  and  C_16
    4  A    between atoms: C_10  and  S_28
    5  A    between atoms: C_11  and  C_12
    6  A    between atoms: C_11  and  S_28
    7  A    between atoms: C_12  and  C_21
    8  A    between atoms: C_13  and  C_16
    9  A    between atoms: C_13  and  C_17
   10  A    between atoms: C_13  and  C_19
   11  A    between atoms: C_16  and  C_23
   12  A    between atoms: C_21  and  C_22
                            x       y       z     vdW  Elec       q    Type
                         _______ _______ _______ _____ _____    ______ ____

>  <TORSDO>
F 12

$$$$
=
 OpenBabel11072413503D

 29 31  0  0  1  0  0  0  0  0999 V2000
  159.6090  209.9770  155.2860 O   0  0  0  0  0  0  0  0  0  0  0  0
  160.5460  209.3110  156.1010 C   0  0  2  0  0  3  0  0  0  0  0  0
  159.9140  208.8640  157.2600 O   0  0  0  0  0  1  0  0  0  0  0  0
  161.1710  209.5550  153.3410 C   0  0  2  0  0  3  0  0  0  0  0  0
  160.1590  210.4560  154.0570 C   0  0  2  0  0  0  0  0  0  0  0  0
  161.6680  210.2550  156.4700 C   0  0  0  0  0  2  0  0  0  0  0  0
  161.6430  210.8560  154.0000 C   0  0  1  0  0  3  0  0  0  0  0  0
  162.4920  210.4930  155.2210 C   0  0  0  0  0  2  0  0  0  0  0  0
  159.2070  211.3020  153.1890 C   0  0  1  0  0  3  0  0  0  0  0  0
  157.1230  211.4090  154.5060 C   0  0  0  0  0  2  0  0  0  0  0  0
  157.7700  210.9490  153.4370 C   0  0  0  0  0  3  0  0  0  0  0  0
  159.3990  212.8190  153.3170 C   0  0  2  0  0  3  0  0  0  0  0  0
  158.3480  213.5390  154.6220 S   0  0  0  0  0  0  0  0  0  0  0  0
  159.7240  213.5860  155.8030 C   0  0  0  0  0  1  0  0  0  0  0  0
  160.0770  212.9390  151.0000 O   0  0  0  0  0  1  0  0  0  0  0  0
  159.3410  213.5930  151.9910 C   0  0  1  0  0  3  0  0  0  0  0  0
  157.9050  213.7660  151.5240 C   0  0  0  0  0  2  0  0  0  0  0  0
  157.0350  212.9640  149.4600 O   0  0  0  0  0  0  0  0  0  0  0  0
  156.4720  214.2450  149.5930 C   0  0  0  0  0  2  0  0  0  0  0  0
  157.8580  213.9580  150.0190 C   0  0  1  0  0  3  0  0  0  0  0  0
  161.2290  209.7600  151.5270 S   0  0  0  0  0  0  0  0  0  0  0  0
  161.1920  207.9900  151.2560 C   0  0  0  0  0  0  0  0  0  0  0  0
  161.0400  207.1990  152.2540 N   0  0  0  0  0  2  0  0  0  0  0  0
  161.3810  207.4530  149.8680 C   0  0  1  0  0  3  0  0  0  0  0  0
  162.6200  207.8370  149.3460 O   0  0  0  0  0  1  0  0  0  0  0  0
  161.1930  205.9350  149.7890 C   0  0  0  0  0  2  0  0  0  0  0  0
  161.2960  204.1390  148.0520 O   0  0  0  0  0  1  0  0  0  0  0  0
  160.4560  206.2080  147.5360 O   0  0  0  0  0  0  0  0  0  0  0  0
  160.9650  205.4440  148.3950 C   0  0  0  0  0  0  0  0  0  0  0  0
  1  2  1  0  0  0  0
  2  6  1  0  0  0  0
  2  3  1  1  0  0  0
  4 21  1  6  0  0  0
  4  7  1  0  0  0  0
  4  5  1  0  0  0  0
  5  9  1  6  0  0  0
  5  1  1  0  0  0  0
  7  5  1  0  0  0  0
  7  8  1  1  0  0  0
  8  6  1  0  0  0  0
  9 12  1  0  0  0  0
  9 11  1  1  0  0  0
 11 10  2  0  0  0  0
 12 13  1  1  0  0  0
 13 14  1  0  0  0  0
 16 15  1  6  0  0  0
 16 12  1  0  0  0  0
 17 16  1  0  0  0  0
 18 19  1  0  0  0  0
 18 20  1  0  0  0  0
 19 20  1  0  0  0  0
 20 17  1  1  0  0  0
 22 21  1  0  0  0  0
 22 23  2  0  0  0  0
 24 25  1  1  0  0  0
 24 22  1  0  0  0  0
 26 24  1  0  0  0  0
 27 29  1  0  0  0  0
 28 29  2  0  0  0  0
 29 26  1  0  0  0  0
M  END
>  <MODEL>
7

>  <REMARK>
 VINA RESULT:      -3.7      4.123      9.543
  Name = 
  12 active torsions:
  status: ('A' for Active; 'I' for Inactive)
    1  A    between atoms: C_1  and  C_18
    2  A    between atoms: C_1  and  C_23
    3  A    between atoms: S_2  and  C_16
    4  A    between atoms: C_10  and  S_28
    5  A    between atoms: C_11  and  C_12
    6  A    between atoms: C_11  and  S_28
    7  A    between atoms: C_12  and  C_21
    8  A    between atoms: C_13  and  C_16
    9  A    between atoms: C_13  and  C_17
   10  A    between atoms: C_13  and  C_19
   11  A    between atoms: C_16  and  C_23
   12  A    between atoms: C_21  and  C_22
                            x       y       z     vdW  Elec       q    Type
                         _______ _______ _______ _____ _____    ______ ____

>  <TORSDO>
F 12

$$$$
=
 OpenBabel11072413503D

 29 31  0  0  1  0  0  0  0  0999 V2000
  160.5190  207.9470  153.0080 O   0  0  0  0  0  0  0  0  0  0  0  0
  160.9210  207.8940  151.6580 C   0  0  2  0  0  3  0  0  0  0  0  0
  160.8980  206.5710  151.2210 O   0  0  0  0  0  1  0  0  0  0  0  0
  159.9700  210.3880  152.6300 C   0  0  2  0  0  3  0  0  0  0  0  0
  160.4890  209.2720  153.5430 C   0  0  2  0  0  0  0  0  0  0  0  0
  162.3200  208.4470  151.5170 C   0  0  0  0  0  2  0  0  0  0  0  0
  161.4600  210.3300  152.9920 C   0  0  1  0  0  3  0  0  0  0  0  0
  162.2430  209.9450  151.7340 C   0  0  0  0  0  2  0  0  0  0  0  0
  160.1800  209.3710  155.0500 C   0  0  1  0  0  3  0  0  0  0  0  0
  159.1300  207.2740  155.8170 C   0  0  0  0  0  2  0  0  0  0  0  0
  160.2230  208.0260  155.7140 C   0  0  0  0  0  3  0  0  0  0  0  0
  161.0620  210.3620  155.8220 C   0  0  2  0  0  3  0  0  0  0  0  0
  162.4420  209.5320  156.6790 S   0  0  0  0  0  0  0  0  0  0  0  0
  163.2380  211.1120  157.0780 C   0  0  0  0  0  1  0  0  0  0  0  0
  160.4910  212.6650  156.2820 O   0  0  0  0  0  1  0  0  0  0  0  0
  160.2960  211.3510  156.7140 C   0  0  1  0  0  3  0  0  0  0  0  0
  158.8090  211.0370  156.7240 C   0  0  0  0  0  2  0  0  0  0  0  0
  157.2540  212.7620  156.2050 O   0  0  0  0  0  0  0  0  0  0  0  0
  156.5720  211.9550  157.1320 C   0  0  0  0  0  2  0  0  0  0  0  0
  158.0210  212.2210  157.2520 C   0  0  1  0  0  3  0  0  0  0  0  0
  159.2080  211.7980  153.5040 S   0  0  0  0  0  0  0  0  0  0  0  0
  159.0700  212.7490  151.9930 C   0  0  0  0  0  0  0  0  0  0  0  0
  160.0940  212.8830  151.2320 N   0  0  0  0  0  2  0  0  0  0  0  0
  157.7670  213.4130  151.6550 C   0  0  1  0  0  3  0  0  0  0  0  0
  157.3410  214.2400  152.6980 O   0  0  0  0  0  1  0  0  0  0  0  0
  157.8150  214.1750  150.3280 C   0  0  0  0  0  2  0  0  0  0  0  0
  155.3330  214.0290  150.0690 O   0  0  0  0  0  1  0  0  0  0  0  0
  156.7080  213.7680  148.2540 O   0  0  0  0  0  0  0  0  0  0  0  0
  156.5940  213.9730  149.4900 C   0  0  0  0  0  0  0  0  0  0  0  0
  1  5  1  0  0  0  0
  2  3  1  1  0  0  0
  2  1  1  0  0  0  0
  4  7  1  0  0  0  0
  4 21  1  1  0  0  0
  4  5  1  0  0  0  0
  5  9  1  1  0  0  0
  6  2  1  0  0  0  0
  6  8  1  0  0  0  0
  7  8  1  6  0  0  0
  7  5  1  0  0  0  0
  9 11  1  1  0  0  0
  9 12  1  0  0  0  0
 11 10  2  0  0  0  0
 12 13  1  1  0  0  0
 12 16  1  0  0  0  0
 13 14  1  0  0  0  0
 16 15  1  6  0  0  0
 16 17  1  0  0  0  0
 18 19  1  0  0  0  0
 18 20  1  0  0  0  0
 19 20  1  0  0  0  0
 20 17  1  6  0  0  0
 22 21  1  0  0  0  0
 23 22  2  0  0  0  0
 24 22  1  0  0  0  0
 24 25  1  1  0  0  0
 26 24  1  0  0  0  0
 28 29  2  0  0  0  0
 29 27  1  0  0  0  0
 29 26  1  0  0  0  0
M  END
>  <MODEL>
8

>  <REMARK>
 VINA RESULT:      -3.7      5.677      9.503
  Name = 
  12 active torsions:
  status: ('A' for Active; 'I' for Inactive)
    1  A    between atoms: C_1  and  C_18
    2  A    between atoms: C_1  and  C_23
    3  A    between atoms: S_2  and  C_16
    4  A    between atoms: C_10  and  S_28
    5  A    between atoms: C_11  and  C_12
    6  A    between atoms: C_11  and  S_28
    7  A    between atoms: C_12  and  C_21
    8  A    between atoms: C_13  and  C_16
    9  A    between atoms: C_13  and  C_17
   10  A    between atoms: C_13  and  C_19
   11  A    between atoms: C_16  and  C_23
   12  A    between atoms: C_21  and  C_22
                            x       y       z     vdW  Elec       q    Type
                         _______ _______ _______ _____ _____    ______ ____

>  <TORSDO>
F 12

$$$$
=
 OpenBabel11072413503D

 29 31  0  0  1  0  0  0  0  0999 V2000
  160.5300  207.1430  149.6060 O   0  0  0  0  0  0  0  0  0  0  0  0
  160.6970  206.8720  148.2330 C   0  0  2  0  0  3  0  0  0  0  0  0
  159.7250  205.9610  147.8220 O   0  0  0  0  0  1  0  0  0  0  0  0
  161.8310  209.2800  149.2250 C   0  0  2  0  0  3  0  0  0  0  0  0
  161.4710  208.0900  150.1190 C   0  0  2  0  0  0  0  0  0  0  0  0
  162.0700  206.2900  147.9880 C   0  0  0  0  0  2  0  0  0  0  0  0
  162.8690  208.1820  149.4860 C   0  0  1  0  0  3  0  0  0  0  0  0
  163.0790  207.4040  148.1850 C   0  0  0  0  0  2  0  0  0  0  0  0
  161.4120  208.3240  151.6420 C   0  0  1  0  0  3  0  0  0  0  0  0
  160.5320  210.1990  152.9830 C   0  0  0  0  0  2  0  0  0  0  0  0
  160.3430  209.3100  152.0100 C   0  0  0  0  0  3  0  0  0  0  0  0
  161.2540  207.0480  152.4820 C   0  0  2  0  0  3  0  0  0  0  0  0
  161.7720  207.2950  154.2140 S   0  0  0  0  0  0  0  0  0  0  0  0
  160.1030  206.9520  154.8360 C   0  0  0  0  0  1  0  0  0  0  0  0
  163.2240  205.7250  152.0200 O   0  0  0  0  0  1  0  0  0  0  0  0
  161.8380  205.7780  151.8460 C   0  0  1  0  0  3  0  0  0  0  0  0
  161.2060  204.5310  152.4410 C   0  0  0  0  0  2  0  0  0  0  0  0
  161.2710  203.6570  150.2280 O   0  0  0  0  0  0  0  0  0  0  0  0
  161.1930  202.5150  151.0450 C   0  0  0  0  0  2  0  0  0  0  0  0
  160.4580  203.7550  151.3720 C   0  0  1  0  0  3  0  0  0  0  0  0
  162.3320  210.7890  150.1240 S   0  0  0  0  0  0  0  0  0  0  0  0
  162.2880  211.7760  148.6310 C   0  0  0  0  0  0  0  0  0  0  0  0
  163.3420  211.8800  147.9080 N   0  0  0  0  0  2  0  0  0  0  0  0
  161.0280  212.5060  148.2670 C   0  0  1  0  0  3  0  0  0  0  0  0
  160.5270  213.2190  149.3600 O   0  0  0  0  0  1  0  0  0  0  0  0
  161.2000  213.4130  147.0450 C   0  0  0  0  0  2  0  0  0  0  0  0
  161.3020  212.9480  144.5910 O   0  0  0  0  0  0  0  0  0  0  0  0
  159.5210  212.2220  145.8380 O   0  0  0  0  0  1  0  0  0  0  0  0
  160.6210  212.8320  145.7960 C   0  0  0  0  0  0  0  0  0  0  0  0
  1  5  1  0  0  0  0
  2  3  1  1  0  0  0
  2  1  1  0  0  0  0
  4  7  1  0  0  0  0
  4  5  1  0  0  0  0
  4 21  1  1  0  0  0
  5  9  1  1  0  0  0
  6  8  1  0  0  0  0
  6  2  1  0  0  0  0
  7  8  1  6  0  0  0
  7  5  1  0  0  0  0
  9 11  1  6  0  0  0
  9 12  1  0  0  0  0
 11 10  2  0  0  0  0
 12 13  1  1  0  0  0
 13 14  1  0  0  0  0
 16 15  1  1  0  0  0
 16 17  1  0  0  0  0
 16 12  1  0  0  0  0
 18 19  1  0  0  0  0
 18 20  1  0  0  0  0
 19 20  1  0  0  0  0
 20 17  1  1  0  0  0
 22 21  1  0  0  0  0
 23 22  2  0  0  0  0
 24 22  1  0  0  0  0
 24 25  1  1  0  0  0
 26 24  1  0  0  0  0
 27 29  2  0  0  0  0
 29 28  1  0  0  0  0
 29 26  1  0  0  0  0
M  END
>  <MODEL>
9

>  <REMARK>
 VINA RESULT:      -3.6      3.256      5.459
  Name = 
  12 active torsions:
  status: ('A' for Active; 'I' for Inactive)
    1  A    between atoms: C_1  and  C_18
    2  A    between atoms: C_1  and  C_23
    3  A    between atoms: S_2  and  C_16
    4  A    between atoms: C_10  and  S_28
    5  A    between atoms: C_11  and  C_12
    6  A    between atoms: C_11  and  S_28
    7  A    between atoms: C_12  and  C_21
    8  A    between atoms: C_13  and  C_16
    9  A    between atoms: C_13  and  C_17
   10  A    between atoms: C_13  and  C_19
   11  A    between atoms: C_16  and  C_23
   12  A    between atoms: C_21  and  C_22
                            x       y       z     vdW  Elec       q    Type
                         _______ _______ _______ _____ _____    ______ ____

>  <TORSDO>
F 12

$$$$
