=
 OpenBabel11072414483D

 45 48  0  0  1  0  0  0  0  0999 V2000
  162.6800  213.5690  140.0770 C   0  0  2  0  0  3  0  0  0  0  0  0
  162.7980  212.4600  142.1230 C   0  0  1  0  0  3  0  0  0  0  0  0
  162.7150  213.0210  144.5510 C   0  0  0  0  0  2  0  0  0  0  0  0
  162.2670  213.9950  146.8010 C   0  0  0  0  0  2  0  0  0  0  0  0
  156.7750  213.6270  140.6470 C   0  0  0  0  0  2  0  0  0  0  0  0
  161.4560  213.8840  148.0990 C   0  0  1  0  0  3  0  0  0  0  0  0
  161.8550  214.4100  139.3230 O   0  0  0  0  0  1  0  0  0  0  0  0
  157.5150  214.4030  144.2000 C   0  0  0  0  0  3  0  0  0  0  0  0
  159.1790  213.6900  146.9600 C   0  0  0  0  0  2  0  0  0  0  0  0
  157.6030  212.3820  140.3750 C   0  0  2  0  0  3  0  0  0  0  0  0
  162.3450  212.0770  139.9220 C   0  0  2  0  0  0  0  0  0  0  0  0
  160.9280  211.8620  139.3500 C   0  0  0  0  0  2  0  0  0  0  0  0
  157.3910  214.4520  141.7630 C   0  0  0  0  0  2  0  0  0  0  0  0
  159.8260  212.2590  140.3250 C   0  0  0  0  0  2  0  0  0  0  0  0
  161.2620  211.3620  147.7040 C   0  0  0  0  0  2  0  0  0  0  0  0
  160.0320  214.4480  147.9630 C   0  0  0  0  0  2  0  0  0  0  0  0
  157.1950  213.8670  145.5310 C   0  0  0  0  0  0  0  0  0  0  0  0
  158.7180  212.7210  139.6000 O   0  0  0  0  0  0  0  0  0  0  0  0
  162.1470  211.5160  146.4710 C   0  0  0  0  0  2  0  0  0  0  0  0
  162.4310  211.4630  141.1950 O   0  0  0  0  0  0  0  0  0  0  0  0
  161.9050  212.8790  145.8250 C   0  0  2  0  0  3  0  0  0  0  0  0
  157.0340  213.8660  143.0840 C   0  0  0  0  0  3  0  0  0  0  0  0
  162.5020  213.8190  141.5330 C   0  0  0  0  0  2  0  0  0  0  0  0
  157.8870  214.4400  146.7180 C   0  0  0  0  0  2  0  0  0  0  0  0
  161.5610  212.4720  148.7120 C   0  0  2  0  0  3  0  0  0  0  0  0
  162.0370  212.2650  143.4200 C   0  0  0  0  0  2  0  0  0  0  0  0
  156.4780  212.8000  145.6630 N   0  0  0  0  0  2  0  0  0  0  0  0
  160.7700  212.3200  149.9720 C   0  0  0  0  0  0  0  0  0  0  0  0
  159.6680  212.9230  150.0780 O   0  0  0  0  0  0  0  0  0  0  0  0
  161.2610  211.4760  151.0290 N   0  0  0  0  0  2  0  0  0  0  0  0
  158.9070  211.4990  154.0320 C   0  0  0  0  0  2  0  0  0  0  0  0
  159.6940  211.9310  152.8240 C   0  0  0  0  0  3  0  0  0  0  0  0
  160.5650  211.1020  152.2260 C   0  0  0  0  0  0  0  0  0  0  0  0
  159.7260  210.5090  154.8770 C   0  0  2  0  0  3  0  0  0  0  0  0
  160.4080  209.4580  154.0330 C   0  0  0  0  0  3  0  0  0  0  0  0
  160.8190  209.7650  152.8000 C   0  0  0  0  0  3  0  0  0  0  0  0
  159.8440  209.9990  157.1110 C   0  0  0  0  0  1  0  0  0  0  0  0
  159.0150  209.9830  155.9790 O   0  0  0  0  0  0  0  0  0  0  0  0
  156.1070  210.6110  139.0470 C   0  0  0  0  0  0  0  0  0  0  0  0
  156.7820  211.4100  139.6470 C   0  0  0  0  0  0  0  0  0  0  0  0
  155.3210  209.6820  138.3520 N   0  0  0  0  0  1  0  0  0  0  0  0
  163.3560  211.4150  138.9640 C   0  0  2  0  0  3  0  0  0  0  0  0
  164.4480  212.2640  138.7440 O   0  0  0  0  0  1  0  0  0  0  0  0
  162.7450  211.0480  137.6150 C   0  0  0  0  0  2  0  0  0  0  0  0
  162.2760  209.7340  137.6440 O   0  0  0  0  0  1  0  0  0  0  0  0
  1  7  1  6  0  0  0
  1 23  1  0  0  0  0
  2 23  1  6  0  0  0
  2 26  1  0  0  0  0
  5 13  1  0  0  0  0
  6  4  1  6  0  0  0
  6 25  1  0  0  0  0
  8 17  1  0  0  0  0
  9 16  1  0  0  0  0
 10 40  1  6  0  0  0
 10  5  1  0  0  0  0
 11 42  1  6  0  0  0
 11  1  1  0  0  0  0
 11 20  1  0  0  0  0
 12 11  1  0  0  0  0
 12 14  1  0  0  0  0
 13 22  1  0  0  0  0
 15 25  1  0  0  0  0
 16  6  1  0  0  0  0
 17 27  2  0  0  0  0
 17 24  1  0  0  0  0
 18 14  1  0  0  0  0
 18 10  1  0  0  0  0
 19 15  1  0  0  0  0
 20  2  1  0  0  0  0
 21  3  1  6  0  0  0
 21 19  1  0  0  0  0
 21  4  1  0  0  0  0
 22  8  2  0  0  0  0
 24  9  1  0  0  0  0
 25 28  1  1  0  0  0
 26  3  1  0  0  0  0
 28 29  2  0  0  0  0
 28 30  1  0  0  0  0
 30 33  1  0  0  0  0
 31 34  1  0  0  0  0
 32 31  1  0  0  0  0
 33 36  1  0  0  0  0
 33 32  2  0  0  0  0
 34 38  1  1  0  0  0
 35 34  1  0  0  0  0
 36 35  2  0  0  0  0
 38 37  1  0  0  0  0
 39 40  3  0  0  0  0
 41 39  1  0  0  0  0
 42 43  1  6  0  0  0
 44 45  1  0  0  0  0
 44 42  1  0  0  0  0
M  END
>  <MODEL>
1

>  <REMARK>
 VINA RESULT:      -1.4      0.000      0.000
  Name = 
  6 active torsions:
  status: ('A' for Active; 'I' for Inactive)
    1  A    between atoms: C_1  and  C_11
    2  A    between atoms: C_11  and  C_16
    3  A    between atoms: C_14  and  C_38
    4  A    between atoms: C_25  and  N_44
    5  A    between atoms: O_26  and  C_29
    6  A    between atoms: C_27  and  C_41
                            x       y       z     vdW  Elec       q    Type
                         _______ _______ _______ _____ _____    ______ ____

>  <TORSDO>
F 6

$$$$
=
 OpenBabel11072414483D

 45 48  0  0  1  0  0  0  0  0999 V2000
  160.0970  211.5350  155.3470 C   0  0  2  0  0  3  0  0  0  0  0  0
  158.6950  212.0300  153.5540 C   0  0  1  0  0  3  0  0  0  0  0  0
  158.7830  213.3240  151.4240 C   0  0  0  0  0  2  0  0  0  0  0  0
  159.4270  214.4520  149.2960 C   0  0  0  0  0  2  0  0  0  0  0  0
  162.6020  207.3260  151.9990 C   0  0  0  0  0  2  0  0  0  0  0  0
  159.4430  214.3680  147.7650 C   0  0  1  0  0  3  0  0  0  0  0  0
  161.3340  210.9590  155.6540 O   0  0  0  0  0  1  0  0  0  0  0  0
  162.3190  209.8540  149.2960 C   0  0  0  0  0  3  0  0  0  0  0  0
  160.4650  212.0320  147.6480 C   0  0  0  0  0  2  0  0  0  0  0  0
  161.1950  207.2530  152.5660 C   0  0  2  0  0  3  0  0  0  0  0  0
  158.9530  210.5140  155.2360 C   0  0  2  0  0  0  0  0  0  0  0  0
  159.4820  209.0780  155.0390 C   0  0  0  0  0  2  0  0  0  0  0  0
  162.8600  208.6820  151.3680 C   0  0  0  0  0  2  0  0  0  0  0  0
  160.1320  208.8640  153.6770 C   0  0  0  0  0  2  0  0  0  0  0  0
  157.3730  212.8660  147.8720 C   0  0  0  0  0  2  0  0  0  0  0  0
  160.5820  213.4870  147.2270 C   0  0  0  0  0  2  0  0  0  0  0  0
  161.7420  209.9600  147.9490 C   0  0  0  0  0  0  0  0  0  0  0  0
  161.1510  207.9090  153.8010 O   0  0  0  0  0  0  0  0  0  0  0  0
  157.3500  213.0550  149.3870 C   0  0  0  0  0  2  0  0  0  0  0  0
  158.1420  210.8670  154.1310 O   0  0  0  0  0  0  0  0  0  0  0  0
  158.7760  213.2150  149.9110 C   0  0  2  0  0  3  0  0  0  0  0  0
  162.2560  208.7340  150.0080 C   0  0  0  0  0  3  0  0  0  0  0  0
  160.1300  212.1730  154.0030 C   0  0  0  0  0  2  0  0  0  0  0  0
  161.7320  211.2900  147.2780 C   0  0  0  0  0  2  0  0  0  0  0  0
  158.0390  214.0660  147.1990 C   0  0  2  0  0  3  0  0  0  0  0  0
  158.6150  211.9450  152.0410 C   0  0  0  0  0  2  0  0  0  0  0  0
  161.0870  208.9760  147.4270 N   0  0  0  0  0  2  0  0  0  0  0  0
  158.0180  213.9620  145.7080 C   0  0  0  0  0  0  0  0  0  0  0  0
  157.0160  214.3990  145.0800 O   0  0  0  0  0  0  0  0  0  0  0  0
  159.1410  213.3910  145.0130 N   0  0  0  0  0  2  0  0  0  0  0  0
  159.5060  214.4250  141.3580 C   0  0  0  0  0  2  0  0  0  0  0  0
  159.2070  214.4530  142.8330 C   0  0  0  0  0  3  0  0  0  0  0  0
  159.3470  213.3560  143.5940 C   0  0  0  0  0  0  0  0  0  0  0  0
  159.1790  213.0410  140.7730 C   0  0  2  0  0  3  0  0  0  0  0  0
  159.6840  211.9140  141.6430 C   0  0  0  0  0  3  0  0  0  0  0  0
  159.7280  212.0720  142.9690 C   0  0  0  0  0  3  0  0  0  0  0  0
  158.8290  213.8680  138.6620 C   0  0  0  0  0  1  0  0  0  0  0  0
  159.5260  212.9070  139.4100 O   0  0  0  0  0  0  0  0  0  0  0  0
  160.5200  204.6890  152.9030 C   0  0  0  0  0  0  0  0  0  0  0  0
  160.8250  205.8460  152.7500 C   0  0  0  0  0  0  0  0  0  0  0  0
  160.1670  203.3450  153.0790 N   0  0  0  0  0  1  0  0  0  0  0  0
  158.1060  210.5430  156.5240 C   0  0  2  0  0  3  0  0  0  0  0  0
  156.7660  210.2610  156.2330 O   0  0  0  0  0  1  0  0  0  0  0  0
  158.1750  211.8830  157.2510 C   0  0  0  0  0  2  0  0  0  0  0  0
  156.9270  212.5070  157.2220 O   0  0  0  0  0  1  0  0  0  0  0  0
  1  7  1  6  0  0  0
  2 26  1  6  0  0  0
  2 23  1  0  0  0  0
  2 20  1  0  0  0  0
  3 26  1  0  0  0  0
  5 10  1  0  0  0  0
  6 16  1  1  0  0  0
  6  4  1  0  0  0  0
  8 22  2  0  0  0  0
 10 40  1  1  0  0  0
 10 18  1  0  0  0  0
 11  1  1  0  0  0  0
 11 42  1  1  0  0  0
 12 11  1  0  0  0  0
 13  5  1  0  0  0  0
 14 18  1  0  0  0  0
 14 12  1  0  0  0  0
 15 19  1  0  0  0  0
 16  9  1  0  0  0  0
 17  8  1  0  0  0  0
 19 21  1  0  0  0  0
 20 11  1  0  0  0  0
 21  4  1  6  0  0  0
 21  3  1  0  0  0  0
 22 13  1  0  0  0  0
 23  1  1  0  0  0  0
 24  9  1  0  0  0  0
 24 17  1  0  0  0  0
 25 28  1  6  0  0  0
 25  6  1  0  0  0  0
 25 15  1  0  0  0  0
 27 17  2  0  0  0  0
 29 28  2  0  0  0  0
 30 28  1  0  0  0  0
 31 32  1  0  0  0  0
 32 33  2  0  0  0  0
 33 30  1  0  0  0  0
 34 38  1  6  0  0  0
 34 31  1  0  0  0  0
 34 35  1  0  0  0  0
 35 36  2  0  0  0  0
 36 33  1  0  0  0  0
 37 38  1  0  0  0  0
 39 41  1  0  0  0  0
 40 39  3  0  0  0  0
 42 43  1  6  0  0  0
 42 44  1  0  0  0  0
 45 44  1  0  0  0  0
M  END
>  <MODEL>
2

>  <REMARK>
 VINA RESULT:      -0.1      2.948     12.373
  Name = 
  6 active torsions:
  status: ('A' for Active; 'I' for Inactive)
    1  A    between atoms: C_1  and  C_11
    2  A    between atoms: C_11  and  C_16
    3  A    between atoms: C_14  and  C_38
    4  A    between atoms: C_25  and  N_44
    5  A    between atoms: O_26  and  C_29
    6  A    between atoms: C_27  and  C_41
                            x       y       z     vdW  Elec       q    Type
                         _______ _______ _______ _____ _____    ______ ____

>  <TORSDO>
F 6

$$$$
