=
 OpenBabel11072410473D

 38 43  0  0  1  0  0  0  0  0999 V2000
  161.0960  205.3350  152.2030 C   0  0  0  0  0  0  0  0  0  0  0  0
  161.7000  205.8130  150.9100 C   0  0  0  0  0  2  0  0  0  0  0  0
  162.8380  212.5930  148.1970 O   0  0  0  0  0  0  0  0  0  0  0  0
  161.5850  209.6480  151.7050 C   0  0  2  0  0  3  0  0  0  0  0  0
  161.4620  212.3200  148.1440 C   0  0  2  0  0  0  0  0  0  0  0  0
  161.8280  207.3150  150.8060 C   0  0  0  0  0  0  0  0  0  0  0  0
  161.6730  210.0630  148.7670 C   0  0  0  0  0  0  0  0  0  0  0  0
  161.5560  208.1390  151.8540 C   0  0  0  0  0  0  0  0  0  0  0  0
  162.7840  210.2600  150.9930 C   0  0  0  0  0  2  0  0  0  0  0  0
  162.2060  212.2560  149.4210 C   0  0  1  0  0  3  0  0  0  0  0  0
  162.4060  207.8120  149.5110 C   0  0  0  0  0  2  0  0  0  0  0  0
  161.0770  210.9080  147.7080 C   0  0  0  0  0  2  0  0  0  0  0  0
  161.5070  208.6710  148.8100 O   0  0  0  0  0  0  0  0  0  0  0  0
  160.8340  206.2730  153.2950 C   0  0  0  0  0  3  0  0  0  0  0  0
  161.0500  207.5730  153.1280 C   0  0  0  0  0  3  0  0  0  0  0  0
  162.2990  210.7940  149.6860 C   0  0  0  0  0  0  0  0  0  0  0  0
  160.8200  204.1150  152.3500 O   0  0  0  0  0  0  0  0  0  0  0  0
  161.4840  210.3180  154.1380 C   0  0  0  0  0  3  0  0  0  0  0  0
  161.0550  211.1820  155.1440 C   0  0  0  0  0  0  0  0  0  0  0  0
  161.4750  210.9880  156.4520 O   0  0  0  0  0  1  0  0  0  0  0  0
  160.1900  211.5700  152.5090 C   0  0  0  0  0  0  0  0  0  0  0  0
  160.2020  212.2430  154.8350 C   0  0  0  0  0  3  0  0  0  0  0  0
  159.7690  211.7690  151.1990 O   0  0  0  0  0  1  0  0  0  0  0  0
  159.7580  212.4450  153.5200 C   0  0  0  0  0  0  0  0  0  0  0  0
  161.0520  210.5050  152.8150 C   0  0  0  0  0  0  0  0  0  0  0  0
  158.9190  213.5530  153.1600 N   0  0  0  0  0  2  0  0  0  0  0  0
  156.7900  214.0760  152.0710 C   0  0  0  0  0  0  0  0  0  0  0  0
  155.3900  214.1860  152.1140 C   0  0  0  0  0  3  0  0  0  0  0  0
  154.6880  213.8670  153.2780 C   0  0  0  0  0  3  0  0  0  0  0  0
  156.7710  213.3230  154.3810 C   0  0  0  0  0  3  0  0  0  0  0  0
  155.3780  213.4270  154.4100 C   0  0  0  0  0  3  0  0  0  0  0  0
  157.4870  213.6520  153.2180 C   0  0  0  0  0  0  0  0  0  0  0  0
  157.5260  214.3770  150.9100 O   0  0  0  0  0  0  0  0  0  0  0  0
  157.0860  212.8750  149.1810 O   0  0  0  0  0  0  0  0  0  0  0  0
  157.1640  214.0640  149.5910 C   0  0  0  0  0  3  0  0  0  0  0  0
  160.5350  213.5150  148.0320 C   0  0  0  0  0  2  0  0  0  0  0  0
  160.3470  213.8990  146.5770 C   0  0  0  0  0  2  0  0  0  0  0  0
  158.9860  214.0000  146.2920 O   0  0  0  0  0  1  0  0  0  0  0  0
  1 17  2  0  0  0  0
  1 14  1  0  0  0  0
  2  1  1  0  0  0  0
  4  8  1  0  0  0  0
  4 25  1  1  0  0  0
  5 36  1  6  0  0  0
  5  3  1  0  0  0  0
  5 10  1  0  0  0  0
  6  2  1  0  0  0  0
  6  8  2  0  0  0  0
  7 13  1  0  0  0  0
  7 16  2  0  0  0  0
  8 15  1  0  0  0  0
  9  4  1  0  0  0  0
 10  3  1  6  0  0  0
 10 16  1  0  0  0  0
 11  6  1  0  0  0  0
 12  5  1  0  0  0  0
 12  7  1  0  0  0  0
 13 11  1  0  0  0  0
 15 14  2  0  0  0  0
 16  9  1  0  0  0  0
 18 19  1  0  0  0  0
 19 20  1  0  0  0  0
 21 25  1  0  0  0  0
 21 24  2  0  0  0  0
 22 19  2  0  0  0  0
 23 21  1  0  0  0  0
 24 22  1  0  0  0  0
 25 18  2  0  0  0  0
 26 32  1  0  0  0  0
 26 24  1  0  0  0  0
 27 28  2  0  0  0  0
 27 32  1  0  0  0  0
 28 29  1  0  0  0  0
 29 31  2  0  0  0  0
 30 31  1  0  0  0  0
 32 30  2  0  0  0  0
 33 27  1  0  0  0  0
 34 35  2  0  0  0  0
 35 33  1  0  0  0  0
 37 36  1  0  0  0  0
 38 37  1  0  0  0  0
M  END
>  <MODEL>
1

>  <REMARK>
 VINA RESULT:      -5.8      0.000      0.000
  Name = 
  7 active torsions:
  status: ('A' for Active; 'I' for Inactive)
    1  A    between atoms: C_1  and  O_35
    2  A    between atoms: C_6  and  C_12
    3  A    between atoms: C_6  and  C_25
    4  A    between atoms: C_10  and  C_38
    5  A    between atoms: C_20  and  O_35
    6  A    between atoms: N_30  and  C_31
    7  A    between atoms: N_30  and  C_34
                            x       y       z     vdW  Elec       q    Type
                         _______ _______ _______ _____ _____    ______ ____

>  <TORSDO>
F 7

$$$$
=
 OpenBabel11072410473D

 38 43  0  0  1  0  0  0  0  0999 V2000
  160.5980  203.7950  150.0720 C   0  0  0  0  0  0  0  0  0  0  0  0
  161.2460  204.6590  149.0260 C   0  0  0  0  0  2  0  0  0  0  0  0
  163.0360  211.8300  148.9620 O   0  0  0  0  0  0  0  0  0  0  0  0
  161.5000  207.9230  151.1800 C   0  0  2  0  0  3  0  0  0  0  0  0
  161.6400  211.7220  148.8590 C   0  0  2  0  0  0  0  0  0  0  0  0
  161.5190  206.0760  149.4780 C   0  0  0  0  0  0  0  0  0  0  0  0
  161.6320  209.3850  148.6000 C   0  0  0  0  0  0  0  0  0  0  0  0
  161.3250  206.4750  150.7650 C   0  0  0  0  0  0  0  0  0  0  0  0
  162.7540  208.6440  150.7030 C   0  0  0  0  0  2  0  0  0  0  0  0
  162.3730  211.1230  149.9960 C   0  0  1  0  0  3  0  0  0  0  0  0
  162.1440  206.9620  148.4380 C   0  0  0  0  0  2  0  0  0  0  0  0
  161.1220  210.6120  147.9470 C   0  0  0  0  0  2  0  0  0  0  0  0
  161.3320  208.0960  148.1330 O   0  0  0  0  0  0  0  0  0  0  0  0
  160.4250  204.2820  151.4410 C   0  0  0  0  0  3  0  0  0  0  0  0
  160.7660  205.5270  151.7570 C   0  0  0  0  0  3  0  0  0  0  0  0
  162.3250  209.6640  149.7010 C   0  0  0  0  0  0  0  0  0  0  0  0
  160.2050  202.6360  149.7690 O   0  0  0  0  0  0  0  0  0  0  0  0
  161.2960  207.5480  153.6700 C   0  0  0  0  0  3  0  0  0  0  0  0
  160.9580  208.0030  154.9440 C   0  0  0  0  0  0  0  0  0  0  0  0
  161.1920  207.2000  156.0510 O   0  0  0  0  0  1  0  0  0  0  0  0
  160.4700  209.6210  152.7110 C   0  0  0  0  0  0  0  0  0  0  0  0
  160.3860  209.2660  155.1050 C   0  0  0  0  0  3  0  0  0  0  0  0
  160.2360  210.4280  151.6030 O   0  0  0  0  0  1  0  0  0  0  0  0
  160.1320  210.0830  153.9940 C   0  0  0  0  0  0  0  0  0  0  0  0
  161.0510  208.3530  152.5450 C   0  0  0  0  0  0  0  0  0  0  0  0
  159.5870  211.4050  154.1280 N   0  0  0  0  0  2  0  0  0  0  0  0
  157.6860  212.8750  153.6650 C   0  0  0  0  0  0  0  0  0  0  0  0
  156.3620  213.2750  153.9120 C   0  0  0  0  0  3  0  0  0  0  0  0
  155.5810  212.6040  154.8540 C   0  0  0  0  0  3  0  0  0  0  0  0
  157.4320  211.1200  155.3240 C   0  0  0  0  0  3  0  0  0  0  0  0
  156.1140  211.5190  155.5550 C   0  0  0  0  0  3  0  0  0  0  0  0
  158.2290  211.7960  154.3860 C   0  0  0  0  0  0  0  0  0  0  0  0
  158.4950  213.5230  152.7130 O   0  0  0  0  0  0  0  0  0  0  0  0
  157.5540  213.3380  150.5870 O   0  0  0  0  0  0  0  0  0  0  0  0
  158.0720  214.0550  151.4850 C   0  0  0  0  0  3  0  0  0  0  0  0
  160.8330  212.9520  149.2260 C   0  0  0  0  0  2  0  0  0  0  0  0
  160.0360  213.4330  148.0300 C   0  0  0  0  0  2  0  0  0  0  0  0
  160.8640  214.1590  147.1760 O   0  0  0  0  0  1  0  0  0  0  0  0
  1 14  1  0  0  0  0
  2  6  1  0  0  0  0
  2  1  1  0  0  0  0
  4 25  1  1  0  0  0
  5  3  1  0  0  0  0
  5 36  1  1  0  0  0
  5 10  1  0  0  0  0
  6  8  2  0  0  0  0
  7 16  2  0  0  0  0
  8  4  1  0  0  0  0
  8 15  1  0  0  0  0
  9  4  1  0  0  0  0
 10  3  1  6  0  0  0
 11  6  1  0  0  0  0
 12  7  1  0  0  0  0
 12  5  1  0  0  0  0
 13 11  1  0  0  0  0
 13  7  1  0  0  0  0
 14 15  2  0  0  0  0
 16 10  1  0  0  0  0
 16  9  1  0  0  0  0
 17  1  2  0  0  0  0
 18 19  1  0  0  0  0
 19 22  2  0  0  0  0
 19 20  1  0  0  0  0
 21 24  2  0  0  0  0
 23 21  1  0  0  0  0
 24 26  1  0  0  0  0
 24 22  1  0  0  0  0
 25 21  1  0  0  0  0
 25 18  2  0  0  0  0
 26 32  1  0  0  0  0
 27 28  2  0  0  0  0
 27 32  1  0  0  0  0
 28 29  1  0  0  0  0
 29 31  2  0  0  0  0
 30 31  1  0  0  0  0
 32 30  2  0  0  0  0
 33 27  1  0  0  0  0
 34 35  2  0  0  0  0
 35 33  1  0  0  0  0
 37 36  1  0  0  0  0
 38 37  1  0  0  0  0
M  END
>  <MODEL>
2

>  <REMARK>
 VINA RESULT:      -5.3      1.625      2.136
  Name = 
  7 active torsions:
  status: ('A' for Active; 'I' for Inactive)
    1  A    between atoms: C_1  and  O_35
    2  A    between atoms: C_6  and  C_12
    3  A    between atoms: C_6  and  C_25
    4  A    between atoms: C_10  and  C_38
    5  A    between atoms: C_20  and  O_35
    6  A    between atoms: N_30  and  C_31
    7  A    between atoms: N_30  and  C_34
                            x       y       z     vdW  Elec       q    Type
                         _______ _______ _______ _____ _____    ______ ____

>  <TORSDO>
F 7

$$$$
=
 OpenBabel11072410473D

 38 43  0  0  1  0  0  0  0  0999 V2000
  161.0340  205.6930  151.1440 C   0  0  0  0  0  0  0  0  0  0  0  0
  161.5950  206.3370  149.9060 C   0  0  0  0  0  2  0  0  0  0  0  0
  162.6140  213.4190  148.0520 O   0  0  0  0  0  0  0  0  0  0  0  0
  161.4850  210.0390  151.1890 C   0  0  2  0  0  3  0  0  0  0  0  0
  161.2380  213.1430  148.0060 C   0  0  2  0  0  0  0  0  0  0  0  0
  161.7130  207.8420  149.9920 C   0  0  0  0  0  0  0  0  0  0  0  0
  161.4800  210.8270  148.3280 C   0  0  0  0  0  0  0  0  0  0  0  0
  161.4690  208.5220  151.1450 C   0  0  0  0  0  0  0  0  0  0  0  0
  162.6590  210.7470  150.5260 C   0  0  0  0  0  2  0  0  0  0  0  0
  162.0220  212.9230  149.2410 C   0  0  1  0  0  3  0  0  0  0  0  0
  162.2470  208.5060  148.7540 C   0  0  0  0  0  2  0  0  0  0  0  0
  160.8470  211.7950  147.4040 C   0  0  0  0  0  2  0  0  0  0  0  0
  161.3220  209.4390  148.1970 O   0  0  0  0  0  0  0  0  0  0  0  0
  160.8020  206.4810  152.3560 C   0  0  0  0  0  3  0  0  0  0  0  0
  161.0060  207.7940  152.3500 C   0  0  0  0  0  3  0  0  0  0  0  0
  162.1310  211.4390  149.3130 C   0  0  0  0  0  0  0  0  0  0  0  0
  160.7690  204.4610  151.1430 O   0  0  0  0  0  0  0  0  0  0  0  0
  161.4310  210.3670  153.6930 C   0  0  0  0  0  3  0  0  0  0  0  0
  161.0300  211.0900  154.8160 C   0  0  0  0  0  0  0  0  0  0  0  0
  161.4660  210.7100  156.0770 O   0  0  0  0  0  1  0  0  0  0  0  0
  160.1340  211.8510  152.2740 C   0  0  0  0  0  0  0  0  0  0  0  0
  160.1900  212.1960  154.6700 C   0  0  0  0  0  3  0  0  0  0  0  0
  159.6970  212.2340  151.0110 O   0  0  0  0  0  1  0  0  0  0  0  0
  159.7310  212.5840  153.4030 C   0  0  0  0  0  0  0  0  0  0  0  0
  160.9830  210.7410  152.4160 C   0  0  0  0  0  0  0  0  0  0  0  0
  158.9050  213.7430  153.2130 N   0  0  0  0  0  2  0  0  0  0  0  0
  156.5990  213.5760  154.0160 C   0  0  0  0  0  0  0  0  0  0  0  0
  155.2160  213.6270  153.7790 C   0  0  0  0  0  3  0  0  0  0  0  0
  154.7250  213.9160  152.5040 C   0  0  0  0  0  3  0  0  0  0  0  0
  156.9900  214.1090  151.6790 C   0  0  0  0  0  3  0  0  0  0  0  0
  155.6120  214.1660  151.4550 C   0  0  0  0  0  3  0  0  0  0  0  0
  157.4940  213.8080  152.9550 C   0  0  0  0  0  0  0  0  0  0  0  0
  157.1260  213.2990  155.2920 O   0  0  0  0  0  0  0  0  0  0  0  0
  156.9200  210.9860  155.5040 O   0  0  0  0  0  0  0  0  0  0  0  0
  156.9280  212.1280  156.0380 C   0  0  0  0  0  3  0  0  0  0  0  0
  160.3020  214.3340  148.0760 C   0  0  0  0  0  2  0  0  0  0  0  0
  159.0000  214.0220  147.3640 C   0  0  0  0  0  2  0  0  0  0  0  0
  158.0310  213.6590  148.2970 O   0  0  0  0  0  1  0  0  0  0  0  0
  1 14  1  0  0  0  0
  2  6  1  0  0  0  0
  2  1  1  0  0  0  0
  4 25  1  1  0  0  0
  5  3  1  0  0  0  0
  5 36  1  6  0  0  0
  5 10  1  0  0  0  0
  6  8  2  0  0  0  0
  7 16  2  0  0  0  0
  8  4  1  0  0  0  0
  8 15  1  0  0  0  0
  9  4  1  0  0  0  0
 10  3  1  6  0  0  0
 10 16  1  0  0  0  0
 11  6  1  0  0  0  0
 12  5  1  0  0  0  0
 12  7  1  0  0  0  0
 13  7  1  0  0  0  0
 13 11  1  0  0  0  0
 15 14  2  0  0  0  0
 16  9  1  0  0  0  0
 17  1  2  0  0  0  0
 18 19  1  0  0  0  0
 19 20  1  0  0  0  0
 21 25  1  0  0  0  0
 21 24  2  0  0  0  0
 22 19  2  0  0  0  0
 23 21  1  0  0  0  0
 24 22  1  0  0  0  0
 25 18  2  0  0  0  0
 26 24  1  0  0  0  0
 27 33  1  0  0  0  0
 28 27  1  0  0  0  0
 29 28  2  0  0  0  0
 30 32  1  0  0  0  0
 31 30  2  0  0  0  0
 31 29  1  0  0  0  0
 32 26  1  0  0  0  0
 32 27  2  0  0  0  0
 33 35  1  0  0  0  0
 34 35  2  0  0  0  0
 37 36  1  0  0  0  0
 37 38  1  0  0  0  0
M  END
>  <MODEL>
3

>  <REMARK>
 VINA RESULT:      -5.2      1.342      2.044
  Name = 
  7 active torsions:
  status: ('A' for Active; 'I' for Inactive)
    1  A    between atoms: C_1  and  O_35
    2  A    between atoms: C_6  and  C_12
    3  A    between atoms: C_6  and  C_25
    4  A    between atoms: C_10  and  C_38
    5  A    between atoms: C_20  and  O_35
    6  A    between atoms: N_30  and  C_31
    7  A    between atoms: N_30  and  C_34
                            x       y       z     vdW  Elec       q    Type
                         _______ _______ _______ _____ _____    ______ ____

>  <TORSDO>
F 7

$$$$
=
 OpenBabel11072410473D

 38 43  0  0  1  0  0  0  0  0999 V2000
  161.2970  205.3240  150.5450 C   0  0  0  0  0  0  0  0  0  0  0  0
  161.0790  205.2300  152.0300 C   0  0  0  0  0  2  0  0  0  0  0  0
  160.4110  210.4080  157.2610 O   0  0  0  0  0  0  0  0  0  0  0  0
  160.7300  209.0730  152.7160 C   0  0  2  0  0  3  0  0  0  0  0  0
  161.7540  210.3610  156.8540 C   0  0  2  0  0  0  0  0  0  0  0  0
  160.9010  206.5660  152.7140 C   0  0  0  0  0  0  0  0  0  0  0  0
  161.4970  208.4470  155.5140 C   0  0  0  0  0  0  0  0  0  0  0  0
  160.8010  207.7290  152.0140 C   0  0  0  0  0  0  0  0  0  0  0  0
  159.7640  209.2030  153.8850 C   0  0  0  0  0  2  0  0  0  0  0  0
  160.6680  210.6140  155.8820 C   0  0  1  0  0  3  0  0  0  0  0  0
  160.7070  206.4940  154.2030 C   0  0  0  0  0  2  0  0  0  0  0  0
  162.3320  208.9670  156.6200 C   0  0  0  0  0  2  0  0  0  0  0  0
  161.7240  207.1980  154.9160 O   0  0  0  0  0  0  0  0  0  0  0  0
  161.1670  206.6060  149.8510 C   0  0  0  0  0  3  0  0  0  0  0  0
  160.9360  207.7190  150.5380 C   0  0  0  0  0  3  0  0  0  0  0  0
  160.5850  209.3340  155.1260 C   0  0  0  0  0  0  0  0  0  0  0  0
  161.5870  204.2880  149.8880 O   0  0  0  0  0  0  0  0  0  0  0  0
  161.7570  210.4040  150.8300 C   0  0  0  0  0  3  0  0  0  0  0  0
  161.7970  211.5430  150.0280 C   0  0  0  0  0  0  0  0  0  0  0  0
  162.6940  211.6170  148.9720 O   0  0  0  0  0  1  0  0  0  0  0  0
  159.9950  211.4060  152.1680 C   0  0  0  0  0  0  0  0  0  0  0  0
  160.9330  212.6100  150.2880 C   0  0  0  0  0  3  0  0  0  0  0  0
  159.0940  211.3340  153.2250 O   0  0  0  0  0  1  0  0  0  0  0  0
  160.0300  212.5550  151.3590 C   0  0  0  0  0  0  0  0  0  0  0  0
  160.8570  210.3290  151.9070 C   0  0  0  0  0  0  0  0  0  0  0  0
  159.0970  213.6140  151.6250 N   0  0  0  0  0  2  0  0  0  0  0  0
  156.7510  214.1960  152.0090 C   0  0  0  0  0  0  0  0  0  0  0  0
  155.4390  214.3570  151.5350 C   0  0  0  0  0  3  0  0  0  0  0  0
  155.1360  214.1230  150.1920 C   0  0  0  0  0  3  0  0  0  0  0  0
  157.4500  213.5600  149.7710 C   0  0  0  0  0  3  0  0  0  0  0  0
  156.1430  213.7320  149.3070 C   0  0  0  0  0  3  0  0  0  0  0  0
  157.7630  213.7820  151.1220 C   0  0  0  0  0  0  0  0  0  0  0  0
  157.0920  214.4360  153.3530 O   0  0  0  0  0  0  0  0  0  0  0  0
  156.0210  212.6330  154.3740 O   0  0  0  0  0  0  0  0  0  0  0  0
  156.5970  213.7500  154.4720 C   0  0  0  0  0  3  0  0  0  0  0  0
  162.6010  211.5810  157.1600 C   0  0  0  0  0  2  0  0  0  0  0  0
  164.0630  211.1930  157.2610 C   0  0  0  0  0  2  0  0  0  0  0  0
  164.8540  212.3410  157.2570 O   0  0  0  0  0  1  0  0  0  0  0  0
  1  2  1  0  0  0  0
  2  6  1  0  0  0  0
  4 25  1  6  0  0  0
  4  9  1  0  0  0  0
  5 36  1  1  0  0  0
  5  3  1  0  0  0  0
  6 11  1  0  0  0  0
  7 12  1  0  0  0  0
  8  6  2  0  0  0  0
  8  4  1  0  0  0  0
  9 16  1  0  0  0  0
 10 16  1  6  0  0  0
 10  5  1  0  0  0  0
 10  3  1  0  0  0  0
 11 13  1  0  0  0  0
 12  5  1  0  0  0  0
 13  7  1  0  0  0  0
 14 15  2  0  0  0  0
 14  1  1  0  0  0  0
 15  8  1  0  0  0  0
 16  7  2  0  0  0  0
 17  1  2  0  0  0  0
 18 25  1  0  0  0  0
 19 22  1  0  0  0  0
 19 18  2  0  0  0  0
 20 19  1  0  0  0  0
 21 23  1  0  0  0  0
 22 24  2  0  0  0  0
 24 26  1  0  0  0  0
 24 21  1  0  0  0  0
 25 21  2  0  0  0  0
 27 33  1  0  0  0  0
 28 27  1  0  0  0  0
 29 28  2  0  0  0  0
 30 32  1  0  0  0  0
 31 30  2  0  0  0  0
 31 29  1  0  0  0  0
 32 26  1  0  0  0  0
 32 27  2  0  0  0  0
 33 35  1  0  0  0  0
 34 35  2  0  0  0  0
 36 37  1  0  0  0  0
 38 37  1  0  0  0  0
M  END
>  <MODEL>
4

>  <REMARK>
 VINA RESULT:      -4.8      1.975      5.491
  Name = 
  7 active torsions:
  status: ('A' for Active; 'I' for Inactive)
    1  A    between atoms: C_1  and  O_35
    2  A    between atoms: C_6  and  C_12
    3  A    between atoms: C_6  and  C_25
    4  A    between atoms: C_10  and  C_38
    5  A    between atoms: C_20  and  O_35
    6  A    between atoms: N_30  and  C_31
    7  A    between atoms: N_30  and  C_34
                            x       y       z     vdW  Elec       q    Type
                         _______ _______ _______ _____ _____    ______ ____

>  <TORSDO>
F 7

$$$$
=
 OpenBabel11072410473D

 38 43  0  0  1  0  0  0  0  0999 V2000
  160.0500  210.0840  154.9500 C   0  0  0  0  0  0  0  0  0  0  0  0
  160.3260  208.6650  155.3660 C   0  0  0  0  0  2  0  0  0  0  0  0
  162.4230  202.7100  151.5220 O   0  0  0  0  0  0  0  0  0  0  0  0
  161.5550  207.3650  151.8790 C   0  0  2  0  0  3  0  0  0  0  0  0
  161.0810  202.9870  151.2130 C   0  0  2  0  0  0  0  0  0  0  0  0
  160.8350  207.7820  154.2490 C   0  0  0  0  0  0  0  0  0  0  0  0
  160.8310  204.6550  152.8500 C   0  0  0  0  0  0  0  0  0  0  0  0
  161.1490  208.2770  153.0210 C   0  0  0  0  0  0  0  0  0  0  0  0
  162.5920  206.2890  152.1740 C   0  0  0  0  0  2  0  0  0  0  0  0
  162.1380  204.0020  151.0110 C   0  0  1  0  0  3  0  0  0  0  0  0
  161.0930  206.3540  154.6400 C   0  0  0  0  0  2  0  0  0  0  0  0
  160.1970  203.4000  152.3870 C   0  0  0  0  0  2  0  0  0  0  0  0
  160.3000  205.4340  153.8890 O   0  0  0  0  0  0  0  0  0  0  0  0
  160.4200  210.5560  153.6150 C   0  0  0  0  0  3  0  0  0  0  0  0
  160.9310  209.7120  152.7240 C   0  0  0  0  0  3  0  0  0  0  0  0
  161.8930  204.9710  152.1150 C   0  0  0  0  0  0  0  0  0  0  0  0
  159.5010  210.8770  155.7610 O   0  0  0  0  0  0  0  0  0  0  0  0
  161.1880  207.2080  149.3850 C   0  0  0  0  0  3  0  0  0  0  0  0
  161.2060  207.7830  148.1150 C   0  0  0  0  0  0  0  0  0  0  0  0
  160.7460  207.0650  147.0210 O   0  0  0  0  0  1  0  0  0  0  0  0
  162.1510  209.2330  150.3170 C   0  0  0  0  0  0  0  0  0  0  0  0
  161.6880  209.0830  147.9450 C   0  0  0  0  0  3  0  0  0  0  0  0
  162.6110  209.9560  151.4120 O   0  0  0  0  0  1  0  0  0  0  0  0
  162.1680  209.8170  149.0390 C   0  0  0  0  0  0  0  0  0  0  0  0
  161.6630  207.9290  150.4930 C   0  0  0  0  0  0  0  0  0  0  0  0
  162.6270  211.1720  148.9070 N   0  0  0  0  0  2  0  0  0  0  0  0
  161.0420  213.0360  148.9380 C   0  0  0  0  0  0  0  0  0  0  0  0
  160.4060  214.1110  148.2940 C   0  0  0  0  0  3  0  0  0  0  0  0
  160.7210  214.4330  146.9730 C   0  0  0  0  0  3  0  0  0  0  0  0
  162.3110  212.6110  146.9110 C   0  0  0  0  0  3  0  0  0  0  0  0
  161.6800  213.6880  146.2820 C   0  0  0  0  0  3  0  0  0  0  0  0
  161.9930  212.2730  148.2360 C   0  0  0  0  0  0  0  0  0  0  0  0
  160.7560  212.6940  150.2730 O   0  0  0  0  0  0  0  0  0  0  0  0
  158.6410  212.9260  151.2270 O   0  0  0  0  0  0  0  0  0  0  0  0
  159.8310  213.3280  151.1150 C   0  0  0  0  0  3  0  0  0  0  0  0
  160.5440  202.3940  149.9250 C   0  0  0  0  0  2  0  0  0  0  0  0
  160.9880  200.9510  149.7860 C   0  0  0  0  0  2  0  0  0  0  0  0
  161.3530  200.6990  148.4640 O   0  0  0  0  0  1  0  0  0  0  0  0
  1  2  1  0  0  0  0
  1 17  2  0  0  0  0
  4 25  1  6  0  0  0
  4  9  1  0  0  0  0
  4  8  1  0  0  0  0
  5 36  1  6  0  0  0
  5  3  1  0  0  0  0
  5 12  1  0  0  0  0
  6 11  1  0  0  0  0
  6  2  1  0  0  0  0
  7 13  1  0  0  0  0
  8  6  2  0  0  0  0
 10  5  1  0  0  0  0
 10  3  1  1  0  0  0
 10 16  1  0  0  0  0
 12  7  1  0  0  0  0
 13 11  1  0  0  0  0
 14  1  1  0  0  0  0
 15  8  1  0  0  0  0
 15 14  2  0  0  0  0
 16  9  1  0  0  0  0
 16  7  2  0  0  0  0
 18 25  1  0  0  0  0
 19 18  2  0  0  0  0
 20 19  1  0  0  0  0
 21 25  2  0  0  0  0
 21 23  1  0  0  0  0
 22 19  1  0  0  0  0
 22 24  2  0  0  0  0
 24 21  1  0  0  0  0
 26 24  1  0  0  0  0
 27 33  1  0  0  0  0
 28 27  1  0  0  0  0
 29 28  2  0  0  0  0
 30 32  1  0  0  0  0
 31 30  2  0  0  0  0
 31 29  1  0  0  0  0
 32 26  1  0  0  0  0
 32 27  2  0  0  0  0
 33 35  1  0  0  0  0
 35 34  2  0  0  0  0
 37 36  1  0  0  0  0
 38 37  1  0  0  0  0
M  END
>  <MODEL>
5

>  <REMARK>
 VINA RESULT:      -4.6      2.630      7.190
  Name = 
  7 active torsions:
  status: ('A' for Active; 'I' for Inactive)
    1  A    between atoms: C_1  and  O_35
    2  A    between atoms: C_6  and  C_12
    3  A    between atoms: C_6  and  C_25
    4  A    between atoms: C_10  and  C_38
    5  A    between atoms: C_20  and  O_35
    6  A    between atoms: N_30  and  C_31
    7  A    between atoms: N_30  and  C_34
                            x       y       z     vdW  Elec       q    Type
                         _______ _______ _______ _____ _____    ______ ____

>  <TORSDO>
F 7

$$$$
=
 OpenBabel11072410473D

 38 43  0  0  1  0  0  0  0  0999 V2000
  160.6020  203.7890  150.3470 C   0  0  0  0  0  0  0  0  0  0  0  0
  161.2280  204.6340  149.2720 C   0  0  0  0  0  2  0  0  0  0  0  0
  162.9800  211.8100  149.0270 O   0  0  0  0  0  0  0  0  0  0  0  0
  161.5030  207.9440  151.3530 C   0  0  2  0  0  3  0  0  0  0  0  0
  161.5830  211.6930  148.9500 C   0  0  2  0  0  0  0  0  0  0  0  0
  161.5020  206.0610  149.6890 C   0  0  0  0  0  0  0  0  0  0  0  0
  161.5830  209.3520  148.7410 C   0  0  0  0  0  0  0  0  0  0  0  0
  161.3290  206.4860  150.9710 C   0  0  0  0  0  0  0  0  0  0  0  0
  162.7450  208.6600  150.8390 C   0  0  0  0  0  2  0  0  0  0  0  0
  162.3390  211.1220  150.0870 C   0  0  1  0  0  3  0  0  0  0  0  0
  162.1040  206.9290  148.6200 C   0  0  0  0  0  2  0  0  0  0  0  0
  161.0550  210.5620  148.0720 C   0  0  0  0  0  2  0  0  0  0  0  0
  161.2810  208.0520  148.3060 O   0  0  0  0  0  0  0  0  0  0  0  0
  160.4520  204.3030  151.7090 C   0  0  0  0  0  3  0  0  0  0  0  0
  160.7910  205.5560  151.9920 C   0  0  0  0  0  3  0  0  0  0  0  0
  162.2930  209.6570  149.8240 C   0  0  0  0  0  0  0  0  0  0  0  0
  160.2100  202.6220  150.0760 O   0  0  0  0  0  0  0  0  0  0  0  0
  161.4140  207.6600  153.8610 C   0  0  0  0  0  3  0  0  0  0  0  0
  161.0940  208.1450  155.1280 C   0  0  0  0  0  0  0  0  0  0  0  0
  161.4200  207.4060  156.2570 O   0  0  0  0  0  1  0  0  0  0  0  0
  160.4180  209.6330  152.8540 C   0  0  0  0  0  0  0  0  0  0  0  0
  160.4440  209.3740  155.2620 C   0  0  0  0  0  3  0  0  0  0  0  0
  160.0910  210.3760  151.7260 O   0  0  0  0  0  1  0  0  0  0  0  0
  160.0960  210.1260  154.1300 C   0  0  0  0  0  0  0  0  0  0  0  0
  161.0760  208.4000  152.7160 C   0  0  0  0  0  0  0  0  0  0  0  0
  159.4700  211.4140  154.2340 N   0  0  0  0  0  2  0  0  0  0  0  0
  158.3200  212.1640  156.2600 C   0  0  0  0  0  0  0  0  0  0  0  0
  157.1390  212.5060  156.9390 C   0  0  0  0  0  3  0  0  0  0  0  0
  155.9080  212.4710  156.2830 C   0  0  0  0  0  3  0  0  0  0  0  0
  157.0120  211.7480  154.2570 C   0  0  0  0  0  3  0  0  0  0  0  0
  155.8440  212.1000  154.9380 C   0  0  0  0  0  3  0  0  0  0  0  0
  158.2540  211.7700  154.9110 C   0  0  0  0  0  0  0  0  0  0  0  0
  159.5790  212.2010  156.8890 O   0  0  0  0  0  0  0  0  0  0  0  0
  160.1540  214.4290  156.5130 O   0  0  0  0  0  0  0  0  0  0  0  0
  160.3630  213.3420  157.1160 C   0  0  0  0  0  3  0  0  0  0  0  0
  160.7770  212.9270  149.3060 C   0  0  0  0  0  2  0  0  0  0  0  0
  160.9150  213.9760  148.2200 C   0  0  0  0  0  2  0  0  0  0  0  0
  161.5260  213.4130  147.1010 O   0  0  0  0  0  1  0  0  0  0  0  0
  1 14  1  0  0  0  0
  2  6  1  0  0  0  0
  2  1  1  0  0  0  0
  4 25  1  1  0  0  0
  5  3  1  0  0  0  0
  5 36  1  1  0  0  0
  5 10  1  0  0  0  0
  6  8  2  0  0  0  0
  7 16  2  0  0  0  0
  8  4  1  0  0  0  0
  8 15  1  0  0  0  0
  9  4  1  0  0  0  0
 10  3  1  6  0  0  0
 11  6  1  0  0  0  0
 12  7  1  0  0  0  0
 12  5  1  0  0  0  0
 13 11  1  0  0  0  0
 13  7  1  0  0  0  0
 14 15  2  0  0  0  0
 16 10  1  0  0  0  0
 16  9  1  0  0  0  0
 17  1  2  0  0  0  0
 18 19  1  0  0  0  0
 19 22  2  0  0  0  0
 19 20  1  0  0  0  0
 21 24  2  0  0  0  0
 23 21  1  0  0  0  0
 24 26  1  0  0  0  0
 24 22  1  0  0  0  0
 25 21  1  0  0  0  0
 25 18  2  0  0  0  0
 26 32  1  0  0  0  0
 27 33  1  0  0  0  0
 27 28  1  0  0  0  0
 29 28  2  0  0  0  0
 30 32  1  0  0  0  0
 30 31  2  0  0  0  0
 31 29  1  0  0  0  0
 32 27  2  0  0  0  0
 33 35  1  0  0  0  0
 34 35  2  0  0  0  0
 37 36  1  0  0  0  0
 38 37  1  0  0  0  0
M  END
>  <MODEL>
6

>  <REMARK>
 VINA RESULT:      -4.6      2.091      3.155
  Name = 
  7 active torsions:
  status: ('A' for Active; 'I' for Inactive)
    1  A    between atoms: C_1  and  O_35
    2  A    between atoms: C_6  and  C_12
    3  A    between atoms: C_6  and  C_25
    4  A    between atoms: C_10  and  C_38
    5  A    between atoms: C_20  and  O_35
    6  A    between atoms: N_30  and  C_31
    7  A    between atoms: N_30  and  C_34
                            x       y       z     vdW  Elec       q    Type
                         _______ _______ _______ _____ _____    ______ ____

>  <TORSDO>
F 7

$$$$
=
 OpenBabel11072410473D

 38 43  0  0  1  0  0  0  0  0999 V2000
  161.7540  212.4750  148.5720 C   0  0  0  0  0  0  0  0  0  0  0  0
  160.9090  213.3770  149.4290 C   0  0  0  0  0  2  0  0  0  0  0  0
  157.5100  212.2830  155.9000 O   0  0  0  0  0  0  0  0  0  0  0  0
  160.4520  210.9070  152.4370 C   0  0  2  0  0  3  0  0  0  0  0  0
  156.8080  211.5810  154.9070 C   0  0  2  0  0  0  0  0  0  0  0  0
  160.4890  212.7640  150.7450 C   0  0  0  0  0  0  0  0  0  0  0  0
  158.0290  212.4830  153.1120 C   0  0  0  0  0  0  0  0  0  0  0  0
  160.9640  211.5600  151.1670 C   0  0  0  0  0  0  0  0  0  0  0  0
  160.3540  211.7770  153.6830 C   0  0  0  0  0  2  0  0  0  0  0  0
  158.2460  211.3320  155.1490 C   0  0  1  0  0  3  0  0  0  0  0  0
  159.6230  213.6420  151.6040 C   0  0  0  0  0  2  0  0  0  0  0  0
  156.6340  212.3040  153.5740 C   0  0  0  0  0  2  0  0  0  0  0  0
  158.3500  213.0530  151.8710 O   0  0  0  0  0  0  0  0  0  0  0  0
  162.2390  211.1940  149.0890 C   0  0  0  0  0  3  0  0  0  0  0  0
  161.8690  210.7750  150.2940 C   0  0  0  0  0  3  0  0  0  0  0  0
  158.9030  211.9710  153.9750 C   0  0  0  0  0  0  0  0  0  0  0  0
  162.0550  212.8270  147.4000 O   0  0  0  0  0  0  0  0  0  0  0  0
  160.9500  209.0360  154.0580 C   0  0  0  0  0  3  0  0  0  0  0  0
  161.2070  207.6910  154.3210 C   0  0  0  0  0  0  0  0  0  0  0  0
  161.3370  207.2510  155.6300 O   0  0  0  0  0  1  0  0  0  0  0  0
  160.9610  208.5740  151.6740 C   0  0  0  0  0  0  0  0  0  0  0  0
  161.3330  206.7860  153.2640 C   0  0  0  0  0  3  0  0  0  0  0  0
  160.8300  209.0100  150.3610 O   0  0  0  0  0  1  0  0  0  0  0  0
  161.2160  207.2170  151.9350 C   0  0  0  0  0  0  0  0  0  0  0  0
  160.8290  209.4860  152.7330 C   0  0  0  0  0  0  0  0  0  0  0  0
  161.2940  206.3050  150.8280 N   0  0  0  0  0  2  0  0  0  0  0  0
  160.9050  204.2200  149.6070 C   0  0  0  0  0  0  0  0  0  0  0  0
  160.7450  202.8240  149.5910 C   0  0  0  0  0  3  0  0  0  0  0  0
  160.8310  202.0870  150.7730 C   0  0  0  0  0  3  0  0  0  0  0  0
  161.2370  204.1250  152.0110 C   0  0  0  0  0  3  0  0  0  0  0  0
  161.0860  202.7360  151.9840 C   0  0  0  0  0  3  0  0  0  0  0  0
  161.1420  204.8760  150.8290 C   0  0  0  0  0  0  0  0  0  0  0  0
  160.8360  204.9910  148.4310 O   0  0  0  0  0  0  0  0  0  0  0  0
  162.1770  206.0750  146.8610 O   0  0  0  0  0  0  0  0  0  0  0  0
  161.7730  205.0030  147.3880 C   0  0  0  0  0  3  0  0  0  0  0  0
  155.9030  210.4590  155.3780 C   0  0  0  0  0  2  0  0  0  0  0  0
  155.0190  210.9390  156.5130 C   0  0  0  0  0  2  0  0  0  0  0  0
  154.0850  209.9530  156.8280 O   0  0  0  0  0  1  0  0  0  0  0  0
  1 14  1  0  0  0  0
  1  2  1  0  0  0  0
  2  6  1  0  0  0  0
  4 25  1  1  0  0  0
  4  9  1  0  0  0  0
  5 10  1  0  0  0  0
  5 36  1  1  0  0  0
  5  3  1  0  0  0  0
  6  8  2  0  0  0  0
  6 11  1  0  0  0  0
  7 12  1  0  0  0  0
  7 16  2  0  0  0  0
  8  4  1  0  0  0  0
  9 16  1  0  0  0  0
 10 16  1  6  0  0  0
 10  3  1  0  0  0  0
 11 13  1  0  0  0  0
 12  5  1  0  0  0  0
 13  7  1  0  0  0  0
 14 15  2  0  0  0  0
 15  8  1  0  0  0  0
 17  1  2  0  0  0  0
 18 19  1  0  0  0  0
 19 20  1  0  0  0  0
 21 24  2  0  0  0  0
 21 25  1  0  0  0  0
 22 19  2  0  0  0  0
 23 21  1  0  0  0  0
 24 22  1  0  0  0  0
 25 18  2  0  0  0  0
 26 32  1  0  0  0  0
 26 24  1  0  0  0  0
 27 32  1  0  0  0  0
 28 27  2  0  0  0  0
 28 29  1  0  0  0  0
 29 31  2  0  0  0  0
 31 30  1  0  0  0  0
 32 30  2  0  0  0  0
 33 27  1  0  0  0  0
 34 35  2  0  0  0  0
 35 33  1  0  0  0  0
 36 37  1  0  0  0  0
 37 38  1  0  0  0  0
M  END
>  <MODEL>
7

>  <REMARK>
 VINA RESULT:      -4.5      2.776      8.006
  Name = 
  7 active torsions:
  status: ('A' for Active; 'I' for Inactive)
    1  A    between atoms: C_1  and  O_35
    2  A    between atoms: C_6  and  C_12
    3  A    between atoms: C_6  and  C_25
    4  A    between atoms: C_10  and  C_38
    5  A    between atoms: C_20  and  O_35
    6  A    between atoms: N_30  and  C_31
    7  A    between atoms: N_30  and  C_34
                            x       y       z     vdW  Elec       q    Type
                         _______ _______ _______ _____ _____    ______ ____

>  <TORSDO>
F 7

$$$$
=
 OpenBabel11072410473D

 38 43  0  0  1  0  0  0  0  0999 V2000
  161.6600  212.1730  149.0150 C   0  0  0  0  0  0  0  0  0  0  0  0
  160.7030  213.0770  149.7430 C   0  0  0  0  0  2  0  0  0  0  0  0
  157.1270  212.3350  156.1680 O   0  0  0  0  0  0  0  0  0  0  0  0
  160.3270  210.8890  152.9730 C   0  0  2  0  0  3  0  0  0  0  0  0
  156.5330  211.4760  155.2290 C   0  0  2  0  0  0  0  0  0  0  0  0
  160.2790  212.5630  151.1000 C   0  0  0  0  0  0  0  0  0  0  0  0
  157.7500  212.3000  153.3950 C   0  0  0  0  0  0  0  0  0  0  0  0
  160.8360  211.4550  151.6610 C   0  0  0  0  0  0  0  0  0  0  0  0
  160.1000  211.8680  154.1170 C   0  0  0  0  0  2  0  0  0  0  0  0
  157.9750  211.3840  155.5470 C   0  0  1  0  0  3  0  0  0  0  0  0
  159.3040  213.4410  151.8320 C   0  0  0  0  0  2  0  0  0  0  0  0
  156.3570  212.0440  153.8230 C   0  0  0  0  0  2  0  0  0  0  0  0
  158.0760  212.7700  152.1140 O   0  0  0  0  0  0  0  0  0  0  0  0
  162.2290  210.9990  149.6780 C   0  0  0  0  0  3  0  0  0  0  0  0
  161.8440  210.6710  150.9070 C   0  0  0  0  0  3  0  0  0  0  0  0
  158.6250  211.9590  154.3370 C   0  0  0  0  0  0  0  0  0  0  0  0
  161.9810  212.4310  147.8240 O   0  0  0  0  0  0  0  0  0  0  0  0
  161.1990  209.3340  154.7610 C   0  0  0  0  0  3  0  0  0  0  0  0
  161.5560  208.0570  155.1940 C   0  0  0  0  0  0  0  0  0  0  0  0
  161.9490  207.8550  156.5090 O   0  0  0  0  0  1  0  0  0  0  0  0
  160.7770  208.4620  152.5340 C   0  0  0  0  0  0  0  0  0  0  0  0
  161.5160  206.9830  154.3030 C   0  0  0  0  0  3  0  0  0  0  0  0
  160.3820  208.6620  151.2160 O   0  0  0  0  0  1  0  0  0  0  0  0
  161.1330  207.1740  152.9680 C   0  0  0  0  0  0  0  0  0  0  0  0
  160.8110  209.5450  153.4280 C   0  0  0  0  0  0  0  0  0  0  0  0
  161.0370  206.0830  152.0380 N   0  0  0  0  0  2  0  0  0  0  0  0
  160.9990  204.9350  149.8770 C   0  0  0  0  0  0  0  0  0  0  0  0
  161.3040  204.9000  148.5070 C   0  0  0  0  0  3  0  0  0  0  0  0
  161.9380  205.9820  147.8930 C   0  0  0  0  0  3  0  0  0  0  0  0
  161.9760  207.1550  150.0080 C   0  0  0  0  0  3  0  0  0  0  0  0
  162.2670  207.1140  148.6420 C   0  0  0  0  0  3  0  0  0  0  0  0
  161.3480  206.0670  150.6360 C   0  0  0  0  0  0  0  0  0  0  0  0
  160.3490  203.8670  150.5230 O   0  0  0  0  0  0  0  0  0  0  0  0
  160.3480  201.5560  150.2050 O   0  0  0  0  0  0  0  0  0  0  0  0
  160.8670  202.5790  150.7280 C   0  0  0  0  0  3  0  0  0  0  0  0
  155.7080  210.3310  155.7820 C   0  0  0  0  0  2  0  0  0  0  0  0
  154.8500  210.8110  156.9370 C   0  0  0  0  0  2  0  0  0  0  0  0
  153.7570  209.9600  157.0940 O   0  0  0  0  0  1  0  0  0  0  0  0
  1 14  1  0  0  0  0
  1  2  1  0  0  0  0
  2  6  1  0  0  0  0
  4 25  1  1  0  0  0
  4  9  1  0  0  0  0
  5 10  1  0  0  0  0
  5 36  1  1  0  0  0
  5  3  1  0  0  0  0
  6  8  2  0  0  0  0
  6 11  1  0  0  0  0
  7 12  1  0  0  0  0
  7 16  2  0  0  0  0
  8  4  1  0  0  0  0
  9 16  1  0  0  0  0
 10 16  1  6  0  0  0
 10  3  1  0  0  0  0
 11 13  1  0  0  0  0
 12  5  1  0  0  0  0
 13  7  1  0  0  0  0
 14 15  2  0  0  0  0
 15  8  1  0  0  0  0
 17  1  2  0  0  0  0
 18 19  1  0  0  0  0
 19 20  1  0  0  0  0
 21 24  2  0  0  0  0
 21 25  1  0  0  0  0
 22 19  2  0  0  0  0
 23 21  1  0  0  0  0
 24 22  1  0  0  0  0
 25 18  2  0  0  0  0
 26 24  1  0  0  0  0
 27 33  1  0  0  0  0
 27 32  1  0  0  0  0
 28 27  2  0  0  0  0
 29 28  1  0  0  0  0
 29 31  2  0  0  0  0
 30 32  2  0  0  0  0
 31 30  1  0  0  0  0
 32 26  1  0  0  0  0
 33 35  1  0  0  0  0
 34 35  2  0  0  0  0
 36 37  1  0  0  0  0
 37 38  1  0  0  0  0
M  END
>  <MODEL>
8

>  <REMARK>
 VINA RESULT:      -4.3      2.689      7.969
  Name = 
  7 active torsions:
  status: ('A' for Active; 'I' for Inactive)
    1  A    between atoms: C_1  and  O_35
    2  A    between atoms: C_6  and  C_12
    3  A    between atoms: C_6  and  C_25
    4  A    between atoms: C_10  and  C_38
    5  A    between atoms: C_20  and  O_35
    6  A    between atoms: N_30  and  C_31
    7  A    between atoms: N_30  and  C_34
                            x       y       z     vdW  Elec       q    Type
                         _______ _______ _______ _____ _____    ______ ____

>  <TORSDO>
F 7

$$$$
=
 OpenBabel11072410473D

 38 43  0  0  1  0  0  0  0  0999 V2000
  159.9270  210.6090  154.8770 C   0  0  0  0  0  0  0  0  0  0  0  0
  160.2880  209.2420  155.3900 C   0  0  0  0  0  2  0  0  0  0  0  0
  162.5460  203.1070  151.9420 O   0  0  0  0  0  0  0  0  0  0  0  0
  161.4590  207.7290  151.9700 C   0  0  2  0  0  3  0  0  0  0  0  0
  161.1830  203.2950  151.6640 C   0  0  2  0  0  0  0  0  0  0  0  0
  160.8020  208.2980  154.3270 C   0  0  0  0  0  0  0  0  0  0  0  0
  160.9060  205.0740  153.1750 C   0  0  0  0  0  0  0  0  0  0  0  0
  161.0480  208.7090  153.0530 C   0  0  0  0  0  0  0  0  0  0  0  0
  162.5590  206.7310  152.3080 C   0  0  0  0  0  2  0  0  0  0  0  0
  162.1800  204.3390  151.3430 C   0  0  1  0  0  3  0  0  0  0  0  0
  161.1440  206.9190  154.8170 C   0  0  0  0  0  2  0  0  0  0  0  0
  160.3210  203.7570  152.8350 C   0  0  0  0  0  2  0  0  0  0  0  0
  160.3730  205.9070  154.1700 O   0  0  0  0  0  0  0  0  0  0  0  0
  160.2270  210.9900  153.4960 C   0  0  0  0  0  3  0  0  0  0  0  0
  160.7480  210.1040  152.6540 C   0  0  0  0  0  3  0  0  0  0  0  0
  161.9250  205.3800  152.3770 C   0  0  0  0  0  0  0  0  0  0  0  0
  159.3670  211.4370  155.6440 O   0  0  0  0  0  0  0  0  0  0  0  0
  162.1350  209.3820  150.1830 C   0  0  0  0  0  3  0  0  0  0  0  0
  162.2390  209.7460  148.8420 C   0  0  0  0  0  0  0  0  0  0  0  0
  162.8670  210.9330  148.4920 O   0  0  0  0  0  1  0  0  0  0  0  0
  160.9570  207.3570  149.5420 C   0  0  0  0  0  0  0  0  0  0  0  0
  161.7120  208.9160  147.8500 C   0  0  0  0  0  3  0  0  0  0  0  0
  160.3290  206.1660  149.8900 O   0  0  0  0  0  1  0  0  0  0  0  0
  161.0630  207.7200  148.1890 C   0  0  0  0  0  0  0  0  0  0  0  0
  161.4910  208.1860  150.5420 C   0  0  0  0  0  0  0  0  0  0  0  0
  160.5510  206.8220  147.1920 N   0  0  0  0  0  2  0  0  0  0  0  0
  161.0840  205.1370  145.4990 C   0  0  0  0  0  0  0  0  0  0  0  0
  161.5170  203.8460  145.1530 C   0  0  0  0  0  3  0  0  0  0  0  0
  161.8780  202.9300  146.1420 C   0  0  0  0  0  3  0  0  0  0  0  0
  161.3800  204.5760  147.8430 C   0  0  0  0  0  3  0  0  0  0  0  0
  161.8180  203.2970  147.4890 C   0  0  0  0  0  3  0  0  0  0  0  0
  161.0050  205.5010  146.8560 C   0  0  0  0  0  0  0  0  0  0  0  0
  160.7250  206.0880  144.5250 O   0  0  0  0  0  0  0  0  0  0  0  0
  161.4600  205.6640  142.3530 O   0  0  0  0  0  0  0  0  0  0  0  0
  161.4510  206.4100  143.3690 C   0  0  0  0  0  3  0  0  0  0  0  0
  160.6320  202.5770  150.4470 C   0  0  0  0  0  2  0  0  0  0  0  0
  161.1200  201.1420  150.4170 C   0  0  0  0  0  2  0  0  0  0  0  0
  160.7850  200.5580  149.1970 O   0  0  0  0  0  1  0  0  0  0  0  0
  1  2  1  0  0  0  0
  1 17  2  0  0  0  0
  4 25  1  6  0  0  0
  4  9  1  0  0  0  0
  4  8  1  0  0  0  0
  5 36  1  6  0  0  0
  5  3  1  0  0  0  0
  5 12  1  0  0  0  0
  6 11  1  0  0  0  0
  6  2  1  0  0  0  0
  7 13  1  0  0  0  0
  8  6  2  0  0  0  0
  9 16  1  0  0  0  0
 10  5  1  0  0  0  0
 10  3  1  1  0  0  0
 10 16  1  0  0  0  0
 12  7  1  0  0  0  0
 13 11  1  0  0  0  0
 14  1  1  0  0  0  0
 15  8  1  0  0  0  0
 15 14  2  0  0  0  0
 16  7  2  0  0  0  0
 18 25  1  0  0  0  0
 19 18  2  0  0  0  0
 20 19  1  0  0  0  0
 21 23  1  0  0  0  0
 21 25  2  0  0  0  0
 22 24  2  0  0  0  0
 22 19  1  0  0  0  0
 24 21  1  0  0  0  0
 26 24  1  0  0  0  0
 27 32  1  0  0  0  0
 28 27  2  0  0  0  0
 28 29  1  0  0  0  0
 29 31  2  0  0  0  0
 31 30  1  0  0  0  0
 32 26  1  0  0  0  0
 32 30  2  0  0  0  0
 33 27  1  0  0  0  0
 34 35  2  0  0  0  0
 35 33  1  0  0  0  0
 37 36  1  0  0  0  0
 38 37  1  0  0  0  0
M  END
>  <MODEL>
9

>  <REMARK>
 VINA RESULT:      -4.3      3.638      8.804
  Name = 
  7 active torsions:
  status: ('A' for Active; 'I' for Inactive)
    1  A    between atoms: C_1  and  O_35
    2  A    between atoms: C_6  and  C_12
    3  A    between atoms: C_6  and  C_25
    4  A    between atoms: C_10  and  C_38
    5  A    between atoms: C_20  and  O_35
    6  A    between atoms: N_30  and  C_31
    7  A    between atoms: N_30  and  C_34
                            x       y       z     vdW  Elec       q    Type
                         _______ _______ _______ _____ _____    ______ ____

>  <TORSDO>
F 7

$$$$
