=
 OpenBabel11072413173D

 27 30  0  0  1  0  0  0  0  0999 V2000
  161.4170  208.6840  151.9040 C   0  0  0  0  0  0  0  0  0  0  0  0
  162.5910  206.6280  148.0750 C   0  0  0  0  0  1  0  0  0  0  0  0
  160.7430  205.1980  148.7710 N   0  0  0  0  0  2  0  0  0  0  0  0
  160.8010  206.3490  152.2970 C   0  0  0  0  0  3  0  0  0  0  0  0
  160.5880  204.8780  150.1990 C   0  0  2  0  0  3  0  0  0  0  0  0
  160.8740  206.1280  150.9270 C   0  0  0  0  0  0  0  0  0  0  0  0
  161.0740  207.6320  152.8090 C   0  0  0  0  0  0  0  0  0  0  0  0
  161.4910  208.4150  150.5110 C   0  0  0  0  0  0  0  0  0  0  0  0
  161.8680  209.4760  149.5260 C   0  0  0  0  0  1  0  0  0  0  0  0
  161.1960  206.5970  148.6740 C   0  0  1  0  0  3  0  0  0  0  0  0
  161.5530  203.8560  150.5730 N   0  0  0  0  0  1  0  0  0  0  0  0
  161.2150  207.1180  150.0630 C   0  0  0  0  0  0  0  0  0  0  0  0
  161.0210  207.8080  154.2840 C   0  0  0  0  0  0  0  0  0  0  0  0
  160.1990  208.1860  157.2580 C   0  0  0  0  0  3  0  0  0  0  0  0
  161.9960  208.7460  154.9330 C   0  0  0  0  0  2  0  0  0  0  0  0
  160.5460  209.5390  156.7850 C   0  0  0  0  0  3  0  0  0  0  0  0
  160.0720  207.0920  156.4980 C   0  0  0  0  0  3  0  0  0  0  0  0
  161.3090  209.8060  155.7260 C   0  0  0  0  0  3  0  0  0  0  0  0
  160.2410  207.0190  155.0320 C   0  0  0  0  0  3  0  0  0  0  0  0
  161.7540  210.0620  152.4170 C   0  0  0  0  0  2  0  0  0  0  0  0
  160.5900  210.9990  152.3250 C   0  0  0  0  0  0  0  0  0  0  0  0
  160.6810  212.1290  151.5040 C   0  0  0  0  0  3  0  0  0  0  0  0
  158.3530  211.6700  152.9840 C   0  0  0  0  0  3  0  0  0  0  0  0
  159.4240  210.7770  153.0700 C   0  0  0  0  0  3  0  0  0  0  0  0
  159.6100  213.0230  151.4170 C   0  0  0  0  0  3  0  0  0  0  0  0
  157.3060  213.7420  152.0610 C   0  0  0  0  0  1  0  0  0  0  0  0
  158.4450  212.7930  152.1540 C   0  0  0  0  0  0  0  0  0  0  0  0
  1 20  1  0  0  0  0
  1  7  1  0  0  0  0
  3  5  1  0  0  0  0
  4  7  2  0  0  0  0
  5 11  1  1  0  0  0
  5  6  1  0  0  0  0
  6  4  1  0  0  0  0
  7 13  1  0  0  0  0
  8  1  2  0  0  0  0
  9  8  1  0  0  0  0
 10  2  1  1  0  0  0
 10  3  1  0  0  0  0
 10 12  1  0  0  0  0
 12  8  1  0  0  0  0
 12  6  2  0  0  0  0
 13 15  1  0  0  0  0
 13 19  2  0  0  0  0
 15 18  1  0  0  0  0
 16 14  1  0  0  0  0
 17 14  2  0  0  0  0
 18 16  2  0  0  0  0
 19 17  1  0  0  0  0
 21 20  1  0  0  0  0
 21 24  1  0  0  0  0
 22 21  2  0  0  0  0
 23 24  2  0  0  0  0
 25 22  1  0  0  0  0
 25 27  2  0  0  0  0
 26 27  1  0  0  0  0
 27 23  1  0  0  0  0
M  END
>  <MODEL>
1

>  <REMARK>
 VINA RESULT:      -7.4      0.000      0.000
  Name = 
  3 active torsions:
  status: ('A' for Active; 'I' for Inactive)
    1  A    between atoms: C_1  and  C_14
    2  A    between atoms: C_2  and  C_15
    3  A    between atoms: C_3  and  C_15
                            x       y       z     vdW  Elec       q    Type
                         _______ _______ _______ _____ _____    ______ ____

>  <TORSDO>
F 3

$$$$
=
 OpenBabel11072413173D

 27 30  0  0  1  0  0  0  0  0999 V2000
  161.4230  208.9710  151.7850 C   0  0  0  0  0  0  0  0  0  0  0  0
  162.6310  206.5900  148.1600 C   0  0  0  0  0  1  0  0  0  0  0  0
  160.7840  205.2200  148.9670 N   0  0  0  0  0  2  0  0  0  0  0  0
  160.8130  206.6770  152.3780 C   0  0  0  0  0  3  0  0  0  0  0  0
  160.6200  205.0250  150.4160 C   0  0  2  0  0  3  0  0  0  0  0  0
  160.8970  206.3360  151.0330 C   0  0  0  0  0  0  0  0  0  0  0  0
  161.0780  208.0010  152.7770 C   0  0  0  0  0  0  0  0  0  0  0  0
  161.5080  208.5800  150.4220 C   0  0  0  0  0  0  0  0  0  0  0  0
  161.8880  209.5510  149.3490 C   0  0  0  0  0  1  0  0  0  0  0  0
  161.2320  206.6060  148.7500 C   0  0  1  0  0  3  0  0  0  0  0  0
  161.5850  204.0450  150.8850 N   0  0  0  0  0  1  0  0  0  0  0  0
  161.2400  207.2480  150.0880 C   0  0  0  0  0  0  0  0  0  0  0  0
  161.0140  208.3070  154.2300 C   0  0  0  0  0  0  0  0  0  0  0  0
  161.5660  208.7250  157.2610 C   0  0  0  0  0  3  0  0  0  0  0  0
  159.7890  207.9070  154.9970 C   0  0  0  0  0  2  0  0  0  0  0  0
  160.8770  207.4230  157.1750 C   0  0  0  0  0  3  0  0  0  0  0  0
  162.0270  209.4430  156.2290 C   0  0  0  0  0  3  0  0  0  0  0  0
  160.1170  207.0260  156.1560 C   0  0  0  0  0  3  0  0  0  0  0  0
  161.9490  209.0740  154.8010 C   0  0  0  0  0  3  0  0  0  0  0  0
  161.7520  210.3890  152.1760 C   0  0  0  0  0  2  0  0  0  0  0  0
  160.5440  211.2740  152.1610 C   0  0  0  0  0  0  0  0  0  0  0  0
  160.4990  212.3600  151.2800 C   0  0  0  0  0  3  0  0  0  0  0  0
  158.3600  211.8920  153.0190 C   0  0  0  0  0  3  0  0  0  0  0  0
  159.4730  211.0470  153.0360 C   0  0  0  0  0  3  0  0  0  0  0  0
  159.3860  213.2050  151.2620 C   0  0  0  0  0  3  0  0  0  0  0  0
  157.1310  213.8680  152.1100 C   0  0  0  0  0  1  0  0  0  0  0  0
  158.3150  212.9700  152.1290 C   0  0  0  0  0  0  0  0  0  0  0  0
  1 20  1  0  0  0  0
  1  7  1  0  0  0  0
  3  5  1  0  0  0  0
  4  7  2  0  0  0  0
  5 11  1  1  0  0  0
  5  6  1  0  0  0  0
  6  4  1  0  0  0  0
  7 13  1  0  0  0  0
  8  1  2  0  0  0  0
  9  8  1  0  0  0  0
 10  2  1  1  0  0  0
 10  3  1  0  0  0  0
 10 12  1  0  0  0  0
 12  8  1  0  0  0  0
 12  6  2  0  0  0  0
 13 19  2  0  0  0  0
 13 15  1  0  0  0  0
 15 18  1  0  0  0  0
 16 14  1  0  0  0  0
 17 14  2  0  0  0  0
 18 16  2  0  0  0  0
 19 17  1  0  0  0  0
 21 20  1  0  0  0  0
 21 24  1  0  0  0  0
 22 21  2  0  0  0  0
 23 24  2  0  0  0  0
 25 22  1  0  0  0  0
 25 27  2  0  0  0  0
 26 27  1  0  0  0  0
 27 23  1  0  0  0  0
M  END
>  <MODEL>
2

>  <REMARK>
 VINA RESULT:      -7.1      0.504      1.220
  Name = 
  3 active torsions:
  status: ('A' for Active; 'I' for Inactive)
    1  A    between atoms: C_1  and  C_14
    2  A    between atoms: C_2  and  C_15
    3  A    between atoms: C_3  and  C_15
                            x       y       z     vdW  Elec       q    Type
                         _______ _______ _______ _____ _____    ______ ____

>  <TORSDO>
F 3

$$$$
=
 OpenBabel11072413173D

 27 30  0  0  1  0  0  0  0  0999 V2000
  160.6790  211.2480  153.0550 C   0  0  0  0  0  0  0  0  0  0  0  0
  157.6680  213.1080  150.2720 C   0  0  0  0  0  1  0  0  0  0  0  0
  157.1590  214.3290  152.3190 N   0  0  0  0  0  2  0  0  0  0  0  0
  158.8410  211.8800  154.5410 C   0  0  0  0  0  3  0  0  0  0  0  0
  157.1860  213.6110  153.6040 C   0  0  2  0  0  3  0  0  0  0  0  0
  158.3590  212.7190  153.5430 C   0  0  0  0  0  0  0  0  0  0  0  0
  160.0090  211.1280  154.3120 C   0  0  0  0  0  0  0  0  0  0  0  0
  160.1490  212.1090  152.0570 C   0  0  0  0  0  0  0  0  0  0  0  0
  160.7990  212.2530  150.7170 C   0  0  0  0  0  1  0  0  0  0  0  0
  158.2550  213.8000  151.4900 C   0  0  1  0  0  3  0  0  0  0  0  0
  155.9720  212.8220  153.7430 N   0  0  0  0  0  1  0  0  0  0  0  0
  158.9810  212.8270  152.3410 C   0  0  0  0  0  0  0  0  0  0  0  0
  160.4620  210.2160  155.3940 C   0  0  0  0  0  0  0  0  0  0  0  0
  161.9540  208.1780  157.2060 C   0  0  0  0  0  3  0  0  0  0  0  0
  159.4440  209.3600  156.0880 C   0  0  0  0  0  2  0  0  0  0  0  0
  160.8890  207.3950  156.5510 C   0  0  0  0  0  3  0  0  0  0  0  0
  162.3090  209.4340  156.9080 C   0  0  0  0  0  3  0  0  0  0  0  0
  159.7860  207.9100  156.0100 C   0  0  0  0  0  3  0  0  0  0  0  0
  161.7150  210.2850  155.8560 C   0  0  0  0  0  3  0  0  0  0  0  0
  161.9100  210.4300  152.7570 C   0  0  0  0  0  2  0  0  0  0  0  0
  161.5750  209.1160  152.1230 C   0  0  0  0  0  0  0  0  0  0  0  0
  161.2490  208.0240  152.9360 C   0  0  0  0  0  3  0  0  0  0  0  0
  161.3090  207.7190  150.1570 C   0  0  0  0  0  3  0  0  0  0  0  0
  161.6100  208.9570  150.7310 C   0  0  0  0  0  3  0  0  0  0  0  0
  160.9480  206.7860  152.3620 C   0  0  0  0  0  3  0  0  0  0  0  0
  160.6540  205.3170  150.3630 C   0  0  0  0  0  1  0  0  0  0  0  0
  160.9750  206.6330  150.9730 C   0  0  0  0  0  0  0  0  0  0  0  0
  1  7  1  0  0  0  0
  3  5  1  0  0  0  0
  5 11  1  6  0  0  0
  6  5  1  0  0  0  0
  6  4  1  0  0  0  0
  7  4  2  0  0  0  0
  7 13  1  0  0  0  0
  8 12  1  0  0  0  0
  8  1  2  0  0  0  0
  9  8  1  0  0  0  0
 10  2  1  6  0  0  0
 10  3  1  0  0  0  0
 10 12  1  0  0  0  0
 12  6  2  0  0  0  0
 13 19  2  0  0  0  0
 13 15  1  0  0  0  0
 16 14  1  0  0  0  0
 17 14  2  0  0  0  0
 18 15  1  0  0  0  0
 18 16  2  0  0  0  0
 19 17  1  0  0  0  0
 20  1  1  0  0  0  0
 21 20  1  0  0  0  0
 21 22  1  0  0  0  0
 23 24  1  0  0  0  0
 23 27  2  0  0  0  0
 24 21  2  0  0  0  0
 25 22  2  0  0  0  0
 26 27  1  0  0  0  0
 27 25  1  0  0  0  0
M  END
>  <MODEL>
3

>  <REMARK>
 VINA RESULT:      -6.7      3.107      5.952
  Name = 
  3 active torsions:
  status: ('A' for Active; 'I' for Inactive)
    1  A    between atoms: C_1  and  C_14
    2  A    between atoms: C_2  and  C_15
    3  A    between atoms: C_3  and  C_15
                            x       y       z     vdW  Elec       q    Type
                         _______ _______ _______ _____ _____    ______ ____

>  <TORSDO>
F 3

$$$$
=
 OpenBabel11072413173D

 27 30  0  0  1  0  0  0  0  0999 V2000
  161.7080  210.6810  151.2220 C   0  0  0  0  0  0  0  0  0  0  0  0
  159.5620  212.8800  147.9320 C   0  0  0  0  0  1  0  0  0  0  0  0
  159.1220  214.3840  149.8000 N   0  0  0  0  0  2  0  0  0  0  0  0
  159.9110  211.8550  152.3960 C   0  0  0  0  0  3  0  0  0  0  0  0
  158.8300  213.8100  151.1230 C   0  0  2  0  0  3  0  0  0  0  0  0
  159.7590  212.6760  151.2860 C   0  0  0  0  0  0  0  0  0  0  0  0
  160.8870  210.8400  152.3820 C   0  0  0  0  0  0  0  0  0  0  0  0
  161.5150  211.5340  150.1030 C   0  0  0  0  0  0  0  0  0  0  0  0
  162.3310  211.3930  148.8580 C   0  0  0  0  0  1  0  0  0  0  0  0
  160.1510  213.5420  149.1660 C   0  0  1  0  0  3  0  0  0  0  0  0
  157.4580  213.3320  151.1520 N   0  0  0  0  0  1  0  0  0  0  0  0
  160.5240  212.5200  150.1750 C   0  0  0  0  0  0  0  0  0  0  0  0
  160.9840  209.9630  153.5770 C   0  0  0  0  0  0  0  0  0  0  0  0
  160.4690  208.1160  156.0250 C   0  0  0  0  0  3  0  0  0  0  0  0
  161.9530  210.3280  154.6630 C   0  0  0  0  0  2  0  0  0  0  0  0
  160.6620  209.4620  156.5970 C   0  0  0  0  0  3  0  0  0  0  0  0
  160.3410  207.8220  154.7250 C   0  0  0  0  0  3  0  0  0  0  0  0
  161.2820  210.4710  155.9870 C   0  0  0  0  0  3  0  0  0  0  0  0
  160.3520  208.7840  153.6040 C   0  0  0  0  0  3  0  0  0  0  0  0
  162.7380  209.5820  151.1520 C   0  0  0  0  0  2  0  0  0  0  0  0
  162.1300  208.2610  150.7930 C   0  0  0  0  0  0  0  0  0  0  0  0
  162.3310  207.1610  151.6360 C   0  0  0  0  0  3  0  0  0  0  0  0
  160.8440  206.8600  149.2870 C   0  0  0  0  0  3  0  0  0  0  0  0
  161.3910  208.1040  149.6140 C   0  0  0  0  0  3  0  0  0  0  0  0
  161.7840  205.9170  151.3090 C   0  0  0  0  0  3  0  0  0  0  0  0
  160.4560  204.4440  149.7900 C   0  0  0  0  0  1  0  0  0  0  0  0
  161.0380  205.7660  150.1360 C   0  0  0  0  0  0  0  0  0  0  0  0
  1  7  1  0  0  0  0
  3  5  1  0  0  0  0
  5 11  1  6  0  0  0
  5  6  1  0  0  0  0
  6  4  1  0  0  0  0
  7  4  2  0  0  0  0
  7 13  1  0  0  0  0
  8 12  1  0  0  0  0
  8  1  2  0  0  0  0
  9  8  1  0  0  0  0
 10  2  1  6  0  0  0
 10  3  1  0  0  0  0
 10 12  1  0  0  0  0
 12  6  2  0  0  0  0
 13 19  2  0  0  0  0
 13 15  1  0  0  0  0
 14 16  1  0  0  0  0
 15 18  1  0  0  0  0
 17 14  2  0  0  0  0
 18 16  2  0  0  0  0
 19 17  1  0  0  0  0
 20  1  1  0  0  0  0
 21 20  1  0  0  0  0
 21 22  1  0  0  0  0
 23 24  1  0  0  0  0
 23 27  2  0  0  0  0
 24 21  2  0  0  0  0
 25 22  2  0  0  0  0
 26 27  1  0  0  0  0
 27 25  1  0  0  0  0
M  END
>  <MODEL>
4

>  <REMARK>
 VINA RESULT:      -6.5      2.895      5.627
  Name = 
  3 active torsions:
  status: ('A' for Active; 'I' for Inactive)
    1  A    between atoms: C_1  and  C_14
    2  A    between atoms: C_2  and  C_15
    3  A    between atoms: C_3  and  C_15
                            x       y       z     vdW  Elec       q    Type
                         _______ _______ _______ _____ _____    ______ ____

>  <TORSDO>
F 3

$$$$
=
 OpenBabel11072413173D

 27 30  0  0  1  0  0  0  0  0999 V2000
  162.1250  209.3400  150.4640 C   0  0  0  0  0  0  0  0  0  0  0  0
  160.3720  205.2060  150.7800 C   0  0  0  0  0  1  0  0  0  0  0  0
  161.4800  205.0280  148.6160 N   0  0  0  0  0  2  0  0  0  0  0  0
  161.7560  208.6950  148.1330 C   0  0  0  0  0  3  0  0  0  0  0  0
  161.4450  206.1790  147.7000 C   0  0  2  0  0  3  0  0  0  0  0  0
  161.6500  207.3720  148.5430 C   0  0  0  0  0  0  0  0  0  0  0  0
  161.9930  209.7020  149.0870 C   0  0  0  0  0  0  0  0  0  0  0  0
  162.0000  207.9770  150.8450 C   0  0  0  0  0  0  0  0  0  0  0  0
  162.1070  207.5490  152.2740 C   0  0  0  0  0  1  0  0  0  0  0  0
  161.6190  205.5510  149.9850 C   0  0  1  0  0  3  0  0  0  0  0  0
  160.1440  206.2470  147.0560 N   0  0  0  0  0  1  0  0  0  0  0  0
  161.7580  207.0220  149.8510 C   0  0  0  0  0  0  0  0  0  0  0  0
  162.0590  211.1060  148.6030 C   0  0  0  0  0  0  0  0  0  0  0  0
  162.6750  214.1160  148.1250 C   0  0  0  0  0  3  0  0  0  0  0  0
  160.7830  211.8000  148.2290 C   0  0  0  0  0  2  0  0  0  0  0  0
  161.4210  214.1030  148.9020 C   0  0  0  0  0  3  0  0  0  0  0  0
  163.4610  213.0610  147.8770 C   0  0  0  0  0  3  0  0  0  0  0  0
  160.5900  213.0660  148.9940 C   0  0  0  0  0  3  0  0  0  0  0  0
  163.2410  211.6760  148.3410 C   0  0  0  0  0  3  0  0  0  0  0  0
  162.3410  210.3930  151.5200 C   0  0  0  0  0  2  0  0  0  0  0  0
  161.1150  210.6200  152.3500 C   0  0  0  0  0  0  0  0  0  0  0  0
  160.0030  211.2480  151.7750 C   0  0  0  0  0  3  0  0  0  0  0  0
  159.9280  210.4740  154.4610 C   0  0  0  0  0  3  0  0  0  0  0  0
  161.0750  210.2410  153.6980 C   0  0  0  0  0  3  0  0  0  0  0  0
  158.8550  211.4810  152.5370 C   0  0  0  0  0  3  0  0  0  0  0  0
  157.5960  211.3390  154.6900 C   0  0  0  0  0  1  0  0  0  0  0  0
  158.8160  211.0920  153.8800 C   0  0  0  0  0  0  0  0  0  0  0  0
  1  8  1  0  0  0  0
  1 20  1  0  0  0  0
  3 10  1  0  0  0  0
  4  6  2  0  0  0  0
  4  7  1  0  0  0  0
  5 11  1  1  0  0  0
  5  6  1  0  0  0  0
  5  3  1  0  0  0  0
  6 12  1  0  0  0  0
  7  1  2  0  0  0  0
  8  9  1  0  0  0  0
 10  2  1  1  0  0  0
 12 10  1  0  0  0  0
 12  8  2  0  0  0  0
 13  7  1  0  0  0  0
 14 16  1  0  0  0  0
 15 13  1  0  0  0  0
 15 18  1  0  0  0  0
 16 18  2  0  0  0  0
 17 14  2  0  0  0  0
 17 19  1  0  0  0  0
 19 13  2  0  0  0  0
 20 21  1  0  0  0  0
 21 24  1  0  0  0  0
 22 21  2  0  0  0  0
 22 25  1  0  0  0  0
 24 23  2  0  0  0  0
 25 27  2  0  0  0  0
 27 23  1  0  0  0  0
 27 26  1  0  0  0  0
M  END
>  <MODEL>
5

>  <REMARK>
 VINA RESULT:      -6.4      1.945      5.127
  Name = 
  3 active torsions:
  status: ('A' for Active; 'I' for Inactive)
    1  A    between atoms: C_1  and  C_14
    2  A    between atoms: C_2  and  C_15
    3  A    between atoms: C_3  and  C_15
                            x       y       z     vdW  Elec       q    Type
                         _______ _______ _______ _____ _____    ______ ____

>  <TORSDO>
F 3

$$$$
=
 OpenBabel11072413173D

 27 30  0  0  1  0  0  0  0  0999 V2000
  161.1090  210.4260  152.1060 C   0  0  0  0  0  0  0  0  0  0  0  0
  159.7560  210.8690  156.3770 C   0  0  0  0  0  1  0  0  0  0  0  0
  157.7530  211.6400  155.2200 N   0  0  0  0  0  2  0  0  0  0  0  0
  159.5020  212.2680  152.0090 C   0  0  0  0  0  3  0  0  0  0  0  0
  157.9020  212.4680  154.0130 C   0  0  2  0  0  3  0  0  0  0  0  0
  159.0180  211.8760  153.2520 C   0  0  0  0  0  0  0  0  0  0  0  0
  160.5580  211.5510  151.4170 C   0  0  0  0  0  0  0  0  0  0  0  0
  160.5930  210.0630  153.3800 C   0  0  0  0  0  0  0  0  0  0  0  0
  161.1500  208.9100  154.1520 C   0  0  0  0  0  1  0  0  0  0  0  0
  158.8240  210.6290  155.2020 C   0  0  1  0  0  3  0  0  0  0  0  0
  158.2340  213.8300  154.3980 N   0  0  0  0  0  1  0  0  0  0  0  0
  159.5470  210.8190  153.9200 C   0  0  0  0  0  0  0  0  0  0  0  0
  161.0660  212.0330  150.1060 C   0  0  0  0  0  0  0  0  0  0  0  0
  162.7700  212.9900  147.6880 C   0  0  0  0  0  3  0  0  0  0  0  0
  160.3260  213.1360  149.4080 C   0  0  0  0  0  2  0  0  0  0  0  0
  162.2680  214.2280  148.3140 C   0  0  0  0  0  3  0  0  0  0  0  0
  162.6720  211.7540  148.1930 C   0  0  0  0  0  3  0  0  0  0  0  0
  161.2080  214.3030  149.1160 C   0  0  0  0  0  3  0  0  0  0  0  0
  162.0540  211.3820  149.4830 C   0  0  0  0  0  3  0  0  0  0  0  0
  162.2660  209.6560  151.5230 C   0  0  0  0  0  2  0  0  0  0  0  0
  161.8640  208.2830  151.0800 C   0  0  0  0  0  0  0  0  0  0  0  0
  162.1640  207.1840  151.8940 C   0  0  0  0  0  3  0  0  0  0  0  0
  160.8670  206.7900  149.4470 C   0  0  0  0  0  3  0  0  0  0  0  0
  161.2210  208.0800  149.8520 C   0  0  0  0  0  3  0  0  0  0  0  0
  161.8090  205.8930  151.4900 C   0  0  0  0  0  3  0  0  0  0  0  0
  160.7820  204.3250  149.8390 C   0  0  0  0  0  1  0  0  0  0  0  0
  161.1590  205.6960  150.2680 C   0  0  0  0  0  0  0  0  0  0  0  0
  1  8  1  0  0  0  0
  4  6  2  0  0  0  0
  5 11  1  1  0  0  0
  5  3  1  0  0  0  0
  6 12  1  0  0  0  0
  6  5  1  0  0  0  0
  7  4  1  0  0  0  0
  7  1  2  0  0  0  0
  8 12  2  0  0  0  0
  8  9  1  0  0  0  0
 10  3  1  0  0  0  0
 10  2  1  1  0  0  0
 12 10  1  0  0  0  0
 13  7  1  0  0  0  0
 14 17  2  0  0  0  0
 14 16  1  0  0  0  0
 15 13  1  0  0  0  0
 16 18  2  0  0  0  0
 17 19  1  0  0  0  0
 18 15  1  0  0  0  0
 19 13  2  0  0  0  0
 20  1  1  0  0  0  0
 21 20  1  0  0  0  0
 21 22  1  0  0  0  0
 23 24  1  0  0  0  0
 23 27  2  0  0  0  0
 24 21  2  0  0  0  0
 25 22  2  0  0  0  0
 26 27  1  0  0  0  0
 27 25  1  0  0  0  0
M  END
>  <MODEL>
6

>  <REMARK>
 VINA RESULT:      -6.2      3.272      7.368
  Name = 
  3 active torsions:
  status: ('A' for Active; 'I' for Inactive)
    1  A    between atoms: C_1  and  C_14
    2  A    between atoms: C_2  and  C_15
    3  A    between atoms: C_3  and  C_15
                            x       y       z     vdW  Elec       q    Type
                         _______ _______ _______ _____ _____    ______ ____

>  <TORSDO>
F 3

$$$$
=
 OpenBabel11072413173D

 27 30  0  0  1  0  0  0  0  0999 V2000
  161.3000  209.4820  152.5010 C   0  0  0  0  0  0  0  0  0  0  0  0
  160.4290  209.2820  156.9130 C   0  0  0  0  0  1  0  0  0  0  0  0
  158.3810  210.3470  156.1280 N   0  0  0  0  0  2  0  0  0  0  0  0
  159.8330  211.4030  152.8820 C   0  0  0  0  0  3  0  0  0  0  0  0
  158.4660  211.3550  155.0600 C   0  0  2  0  0  3  0  0  0  0  0  0
  159.4510  210.8370  154.0920 C   0  0  0  0  0  0  0  0  0  0  0  0
  160.7660  210.7350  152.0660 C   0  0  0  0  0  0  0  0  0  0  0  0
  160.8930  208.9420  153.7500 C   0  0  0  0  0  0  0  0  0  0  0  0
  161.4390  207.6460  154.2600 C   0  0  0  0  0  1  0  0  0  0  0  0
  159.3670  209.2950  155.8280 C   0  0  1  0  0  3  0  0  0  0  0  0
  158.9360  212.6130  155.6180 N   0  0  0  0  0  1  0  0  0  0  0  0
  159.9660  209.6550  154.5190 C   0  0  0  0  0  0  0  0  0  0  0  0
  161.1720  211.4000  150.8000 C   0  0  0  0  0  0  0  0  0  0  0  0
  161.3090  212.8260  148.0410 C   0  0  0  0  0  3  0  0  0  0  0  0
  162.3310  210.8390  150.0310 C   0  0  0  0  0  2  0  0  0  0  0  0
  161.5430  211.3990  147.7440 C   0  0  0  0  0  3  0  0  0  0  0  0
  160.9180  213.3340  149.2160 C   0  0  0  0  0  3  0  0  0  0  0  0
  161.9560  210.4930  148.6290 C   0  0  0  0  0  3  0  0  0  0  0  0
  160.6300  212.5710  150.4480 C   0  0  0  0  0  3  0  0  0  0  0  0
  162.3310  208.7560  151.6750 C   0  0  0  0  0  2  0  0  0  0  0  0
  161.8640  207.3960  151.2570 C   0  0  0  0  0  0  0  0  0  0  0  0
  160.9220  207.2790  150.2280 C   0  0  0  0  0  3  0  0  0  0  0  0
  161.8750  204.9820  151.5070 C   0  0  0  0  0  3  0  0  0  0  0  0
  162.3340  206.2430  151.9000 C   0  0  0  0  0  3  0  0  0  0  0  0
  160.4650  206.0180  149.8340 C   0  0  0  0  0  3  0  0  0  0  0  0
  160.4560  203.5300  150.0530 C   0  0  0  0  0  1  0  0  0  0  0  0
  160.9420  204.8700  150.4720 C   0  0  0  0  0  0  0  0  0  0  0  0
  1  8  1  0  0  0  0
  4  6  2  0  0  0  0
  5 11  1  1  0  0  0
  5  3  1  0  0  0  0
  6 12  1  0  0  0  0
  6  5  1  0  0  0  0
  7  1  2  0  0  0  0
  7  4  1  0  0  0  0
  8  9  1  0  0  0  0
  8 12  2  0  0  0  0
 10  3  1  0  0  0  0
 10  2  1  1  0  0  0
 12 10  1  0  0  0  0
 13  7  1  0  0  0  0
 14 17  2  0  0  0  0
 15 13  1  0  0  0  0
 16 14  1  0  0  0  0
 16 18  2  0  0  0  0
 17 19  1  0  0  0  0
 18 15  1  0  0  0  0
 19 13  2  0  0  0  0
 20  1  1  0  0  0  0
 21 20  1  0  0  0  0
 21 24  1  0  0  0  0
 22 21  2  0  0  0  0
 23 24  2  0  0  0  0
 25 22  1  0  0  0  0
 25 27  2  0  0  0  0
 26 27  1  0  0  0  0
 27 23  1  0  0  0  0
M  END
>  <MODEL>
7

>  <REMARK>
 VINA RESULT:      -5.4      3.025      7.132
  Name = 
  3 active torsions:
  status: ('A' for Active; 'I' for Inactive)
    1  A    between atoms: C_1  and  C_14
    2  A    between atoms: C_2  and  C_15
    3  A    between atoms: C_3  and  C_15
                            x       y       z     vdW  Elec       q    Type
                         _______ _______ _______ _____ _____    ______ ____

>  <TORSDO>
F 3

$$$$
=
 OpenBabel11072413173D

 27 30  0  0  1  0  0  0  0  0999 V2000
  161.7620  206.6940  151.7620 C   0  0  0  0  0  0  0  0  0  0  0  0
  161.8460  209.3100  155.4250 C   0  0  0  0  0  1  0  0  0  0  0  0
  159.7760  210.0900  154.4000 N   0  0  0  0  0  2  0  0  0  0  0  0
  160.5810  208.7150  151.0490 C   0  0  0  0  0  3  0  0  0  0  0  0
  159.7160  210.2330  152.9360 C   0  0  2  0  0  3  0  0  0  0  0  0
  160.4220  209.0610  152.3860 C   0  0  0  0  0  0  0  0  0  0  0  0
  161.2570  207.5260  150.7150 C   0  0  0  0  0  0  0  0  0  0  0  0
  161.5880  207.0880  153.1160 C   0  0  0  0  0  0  0  0  0  0  0  0
  162.1170  206.2650  154.2470 C   0  0  0  0  0  1  0  0  0  0  0  0
  160.5800  208.8920  154.6970 C   0  0  1  0  0  3  0  0  0  0  0  0
  160.4010  211.4530  152.5410 N   0  0  0  0  0  1  0  0  0  0  0  0
  160.9130  208.2850  153.3850 C   0  0  0  0  0  0  0  0  0  0  0  0
  161.4360  207.2200  149.2710 C   0  0  0  0  0  0  0  0  0  0  0  0
  161.5280  205.9450  146.4380 C   0  0  0  0  0  3  0  0  0  0  0  0
  162.7050  207.6500  148.5960 C   0  0  0  0  0  2  0  0  0  0  0  0
  162.8930  205.7810  146.9730 C   0  0  0  0  0  3  0  0  0  0  0  0
  160.4560  206.3630  147.1230 C   0  0  0  0  0  3  0  0  0  0  0  0
  163.4170  206.5030  147.9630 C   0  0  0  0  0  3  0  0  0  0  0  0
  160.4200  206.7320  148.5530 C   0  0  0  0  0  3  0  0  0  0  0  0
  162.5250  205.4340  151.4440 C   0  0  0  0  0  2  0  0  0  0  0  0
  161.6260  204.3320  150.9740 C   0  0  0  0  0  0  0  0  0  0  0  0
  160.8410  203.6420  151.9050 C   0  0  0  0  0  3  0  0  0  0  0  0
  160.7470  202.9250  149.2040 C   0  0  0  0  0  3  0  0  0  0  0  0
  161.5810  203.9650  149.6230 C   0  0  0  0  0  3  0  0  0  0  0  0
  160.0060  202.6020  151.4860 C   0  0  0  0  0  3  0  0  0  0  0  0
  159.0690  201.1390  149.6910 C   0  0  0  0  0  1  0  0  0  0  0  0
  159.9570  202.2440  150.1360 C   0  0  0  0  0  0  0  0  0  0  0  0
  1  8  1  0  0  0  0
  3 10  1  0  0  0  0
  4  6  2  0  0  0  0
  5 11  1  1  0  0  0
  5  3  1  0  0  0  0
  6  5  1  0  0  0  0
  6 12  1  0  0  0  0
  7  4  1  0  0  0  0
  7  1  2  0  0  0  0
  8 12  2  0  0  0  0
  8  9  1  0  0  0  0
 10  2  1  6  0  0  0
 12 10  1  0  0  0  0
 13  7  1  0  0  0  0
 14 16  1  0  0  0  0
 14 17  2  0  0  0  0
 15 13  1  0  0  0  0
 16 18  2  0  0  0  0
 17 19  1  0  0  0  0
 18 15  1  0  0  0  0
 19 13  2  0  0  0  0
 20  1  1  0  0  0  0
 21 20  1  0  0  0  0
 21 22  1  0  0  0  0
 23 24  1  0  0  0  0
 23 27  2  0  0  0  0
 24 21  2  0  0  0  0
 25 22  2  0  0  0  0
 26 27  1  0  0  0  0
 27 25  1  0  0  0  0
M  END
>  <MODEL>
8

>  <REMARK>
 VINA RESULT:      -5.3      2.731      7.576
  Name = 
  3 active torsions:
  status: ('A' for Active; 'I' for Inactive)
    1  A    between atoms: C_1  and  C_14
    2  A    between atoms: C_2  and  C_15
    3  A    between atoms: C_3  and  C_15
                            x       y       z     vdW  Elec       q    Type
                         _______ _______ _______ _____ _____    ______ ____

>  <TORSDO>
F 3

$$$$
=
 OpenBabel11072413173D

 27 30  0  0  1  0  0  0  0  0999 V2000
  159.9920  211.3080  153.8710 C   0  0  0  0  0  0  0  0  0  0  0  0
  160.4470  206.9740  155.0010 C   0  0  0  0  0  1  0  0  0  0  0  0
  161.9580  207.0710  153.0910 N   0  0  0  0  0  2  0  0  0  0  0  0
  160.5190  210.2150  151.7460 C   0  0  0  0  0  3  0  0  0  0  0  0
  161.5760  207.8770  151.9200 C   0  0  2  0  0  3  0  0  0  0  0  0
  160.9790  209.1130  152.4580 C   0  0  0  0  0  0  0  0  0  0  0  0
  160.0150  211.3300  152.4420 C   0  0  0  0  0  0  0  0  0  0  0  0
  160.4620  210.1590  154.5620 C   0  0  0  0  0  0  0  0  0  0  0  0
  160.4380  210.0760  156.0550 C   0  0  0  0  0  1  0  0  0  0  0  0
  161.5120  207.7940  154.2940 C   0  0  1  0  0  3  0  0  0  0  0  0
  160.5900  207.1530  151.1350 N   0  0  0  0  0  1  0  0  0  0  0  0
  160.9460  209.0780  153.8150 C   0  0  0  0  0  0  0  0  0  0  0  0
  159.4980  212.4670  151.6350 C   0  0  0  0  0  0  0  0  0  0  0  0
  157.9740  214.3430  149.6790 C   0  0  0  0  0  3  0  0  0  0  0  0
  160.4790  213.4310  151.0380 C   0  0  0  0  0  2  0  0  0  0  0  0
  159.2190  213.9860  148.9720 C   0  0  0  0  0  3  0  0  0  0  0  0
  157.5290  213.7970  150.8180 C   0  0  0  0  0  3  0  0  0  0  0  0
  160.3290  213.5380  149.5580 C   0  0  0  0  0  3  0  0  0  0  0  0
  158.1860  212.7220  151.5890 C   0  0  0  0  0  3  0  0  0  0  0  0
  159.4240  212.4660  154.6500 C   0  0  0  0  0  2  0  0  0  0  0  0
  158.1390  212.1110  155.3340 C   0  0  0  0  0  0  0  0  0  0  0  0
  157.1750  211.3700  154.6410 C   0  0  0  0  0  3  0  0  0  0  0  0
  156.6680  212.2070  157.2610 C   0  0  0  0  0  3  0  0  0  0  0  0
  157.8780  212.5340  156.6440 C   0  0  0  0  0  3  0  0  0  0  0  0
  155.9640  211.0420  155.2580 C   0  0  0  0  0  3  0  0  0  0  0  0
  154.4250  211.1080  157.2240 C   0  0  0  0  0  1  0  0  0  0  0  0
  155.7110  211.4580  156.5680 C   0  0  0  0  0  0  0  0  0  0  0  0
  1  8  1  0  0  0  0
  1 20  1  0  0  0  0
  3 10  1  0  0  0  0
  4  7  1  0  0  0  0
  4  6  2  0  0  0  0
  5 11  1  6  0  0  0
  5  6  1  0  0  0  0
  5  3  1  0  0  0  0
  6 12  1  0  0  0  0
  7  1  2  0  0  0  0
  8  9  1  0  0  0  0
 10  2  1  6  0  0  0
 12 10  1  0  0  0  0
 12  8  2  0  0  0  0
 13  7  1  0  0  0  0
 14 17  2  0  0  0  0
 15 13  1  0  0  0  0
 16 18  2  0  0  0  0
 16 14  1  0  0  0  0
 17 19  1  0  0  0  0
 18 15  1  0  0  0  0
 19 13  2  0  0  0  0
 20 21  1  0  0  0  0
 21 24  1  0  0  0  0
 22 25  1  0  0  0  0
 22 21  2  0  0  0  0
 24 23  2  0  0  0  0
 25 27  2  0  0  0  0
 27 26  1  0  0  0  0
 27 23  1  0  0  0  0
M  END
>  <MODEL>
9

>  <REMARK>
 VINA RESULT:      -5.2      2.523      5.800
  Name = 
  3 active torsions:
  status: ('A' for Active; 'I' for Inactive)
    1  A    between atoms: C_1  and  C_14
    2  A    between atoms: C_2  and  C_15
    3  A    between atoms: C_3  and  C_15
                            x       y       z     vdW  Elec       q    Type
                         _______ _______ _______ _____ _____    ______ ____

>  <TORSDO>
F 3

$$$$
