=
 OpenBabel11072411283D

 35 40  0  0  1  0  0  0  0  0999 V2000
  162.0160  205.9840  153.6790 O   0  0  0  0  0  1  0  0  0  0  0  0
  161.9910  209.6530  151.6330 C   0  0  0  0  0  2  0  0  0  0  0  0
  161.6060  205.9870  152.3530 C   0  0  1  0  0  3  0  0  0  0  0  0
  160.8310  205.2410  150.3440 C   0  0  1  0  0  3  0  0  0  0  0  0
  160.8660  203.6670  152.0490 N   0  0  0  0  0  2  0  0  0  0  0  0
  161.5530  209.9960  150.3160 C   0  0  2  0  0  3  0  0  0  0  0  0
  160.8940  203.0610  150.9270 N   0  0  0  0  0  0  0  0  0  0  0  0
  162.0840  206.8840  151.3020 C   0  0  2  0  0  3  0  0  0  0  0  0
  160.8540  205.0570  151.7690 C   0  0  1  0  0  3  0  0  0  0  0  0
  161.9870  208.2270  151.1570 C   0  0  1  0  0  3  0  0  0  0  0  0
  161.6000  206.4450  150.0450 C   0  0  2  0  0  3  0  0  0  0  0  0
  161.5070  208.5980  149.9430 N   0  0  1  0  0  0  0  0  0  0  0  0
  161.2090  207.5270  149.1970 C   0  0  0  0  0  2  0  0  0  0  0  0
  160.9330  204.0130  149.8500 C   0  0  0  0  0  0  0  0  0  0  0  0
  161.4180  204.6900  147.4860 N   0  0  0  0  0  2  0  0  0  0  0  0
  161.6360  202.4700  148.1950 O   0  0  0  0  0  0  0  0  0  0  0  0
  161.3460  203.6630  148.4830 C   0  0  0  0  0  0  0  0  0  0  0  0
  163.2880  204.5480  145.9290 C   0  0  0  0  0  1  0  0  0  0  0  0
  161.7740  204.4790  146.0800 C   0  0  0  0  0  0  0  0  0  0  0  0
  161.2920  203.1080  145.6270 C   0  0  0  0  0  1  0  0  0  0  0  0
  161.3110  205.5010  143.7220 C   0  0  0  0  0  1  0  0  0  0  0  0
  160.1660  206.3300  145.6840 C   0  0  0  0  0  2  0  0  0  0  0  0
  161.1280  205.5360  145.2070 C   0  0  0  0  0  0  0  0  0  0  0  0
  162.6610  210.7100  149.5500 C   0  0  0  0  0  2  0  0  0  0  0  0
  162.1530  211.1930  148.2720 N   0  0  0  0  0  2  0  0  0  0  0  0
  160.1190  214.2920  148.9300 C   0  0  0  0  0  3  0  0  0  0  0  0
  160.3310  212.2890  146.9080 C   0  0  2  0  0  3  0  0  0  0  0  0
  159.2070  214.2300  148.0100 N   0  0  0  0  0  0  0  0  0  0  0  0
  161.1860  212.2420  148.1450 C   0  0  0  0  0  0  0  0  0  0  0  0
  161.3190  212.8930  145.5510 Cl  0  0  0  0  0  0  0  0  0  0  0  0
  161.1160  213.2220  149.0550 C   0  0  0  0  0  3  0  0  0  0  0  0
  159.1640  213.1610  147.0960 N   0  0  0  0  0  0  0  0  0  0  0  0
  157.5570  213.9110  145.4020 C   0  0  0  0  0  2  0  0  0  0  0  0
  157.9020  212.8470  146.4300 C   0  0  0  0  0  3  0  0  0  0  0  0
  156.8700  213.9150  146.7470 C   0  0  0  0  0  2  0  0  0  0  0  0
  3  1  1  6  0  0  0
  4 14  1  6  0  0  0
  4  9  1  0  0  0  0
  6 24  1  6  0  0  0
  6  2  1  0  0  0  0
  7  5  1  0  0  0  0
  8  3  1  0  0  0  0
  9  5  1  0  0  0  0
  9  3  1  0  0  0  0
 10  8  1  0  0  0  0
 10  2  1  0  0  0  0
 11  4  1  0  0  0  0
 11  8  1  0  0  0  0
 12  6  1  0  0  0  0
 12 10  1  0  0  0  0
 13 12  1  0  0  0  0
 13 11  1  0  0  0  0
 14  7  2  0  0  0  0
 15 17  1  0  0  0  0
 16 17  2  0  0  0  0
 17 14  1  0  0  0  0
 18 19  1  0  0  0  0
 19 15  1  0  0  0  0
 20 19  1  0  0  0  0
 21 23  1  0  0  0  0
 23 22  2  0  0  0  0
 23 19  1  0  0  0  0
 25 24  1  0  0  0  0
 26 31  1  0  0  0  0
 27 32  1  0  0  0  0
 27 29  1  0  0  0  0
 28 26  2  0  0  0  0
 29 25  1  0  0  0  0
 29 31  2  0  0  0  0
 30 27  1  0  0  0  0
 32 28  1  0  0  0  0
 33 34  1  0  0  0  0
 33 35  1  0  0  0  0
 34 35  1  0  0  0  0
 34 32  1  0  0  0  0
M  END
>  <MODEL>
1

>  <REMARK>
 VINA RESULT:      -8.9      0.000      0.000
  Name = 
  7 active torsions:
  status: ('A' for Active; 'I' for Inactive)
    1  A    between atoms: N_1  and  C_11
    2  A    between atoms: N_1  and  C_22
    3  A    between atoms: C_11  and  C_12
    4  A    between atoms: C_18  and  N_35
    5  A    between atoms: C_21  and  C_24
    6  A    between atoms: C_24  and  N_25
    7  A    between atoms: C_28  and  C_34
                            x       y       z     vdW  Elec       q    Type
                         _______ _______ _______ _____ _____    ______ ____

>  <TORSDO>
F 7

$$$$
=
 OpenBabel11072411283D

 35 40  0  0  1  0  0  0  0  0999 V2000
  160.9580  205.5320  154.2580 O   0  0  0  0  0  1  0  0  0  0  0  0
  161.8120  206.1160  150.1860 C   0  0  0  0  0  2  0  0  0  0  0  0
  161.1130  206.8360  153.8050 C   0  0  1  0  0  3  0  0  0  0  0  0
  161.2470  209.1100  153.8180 C   0  0  1  0  0  3  0  0  0  0  0  0
  161.0010  208.1120  155.8980 N   0  0  0  0  0  2  0  0  0  0  0  0
  162.1030  207.3020  149.4440 C   0  0  2  0  0  3  0  0  0  0  0  0
  160.5860  209.3160  155.9660 N   0  0  0  0  0  0  0  0  0  0  0  0
  160.7760  207.3340  152.4730 C   0  0  2  0  0  3  0  0  0  0  0  0
  161.4120  207.8900  154.5600 C   0  0  1  0  0  3  0  0  0  0  0  0
  161.2740  207.0320  151.2500 C   0  0  1  0  0  3  0  0  0  0  0  0
  160.8680  208.7470  152.4560 C   0  0  2  0  0  3  0  0  0  0  0  0
  161.6320  208.1280  150.5350 N   0  0  1  0  0  0  0  0  0  0  0  0
  161.4350  209.2480  151.2430 C   0  0  0  0  0  2  0  0  0  0  0  0
  160.6710  209.9440  154.6750 C   0  0  0  0  0  0  0  0  0  0  0  0
  158.6330  211.3880  154.8800 N   0  0  0  0  0  2  0  0  0  0  0  0
  160.4570  212.0220  153.5570 O   0  0  0  0  0  0  0  0  0  0  0  0
  159.9380  211.1700  154.3290 C   0  0  0  0  0  0  0  0  0  0  0  0
  158.3370  213.7730  155.2920 C   0  0  0  0  0  1  0  0  0  0  0  0
  157.7760  212.5420  154.5910 C   0  0  0  0  0  0  0  0  0  0  0  0
  157.7440  212.7970  153.0910 C   0  0  0  0  0  1  0  0  0  0  0  0
  155.8330  210.8850  155.1380 C   0  0  0  0  0  1  0  0  0  0  0  0
  155.6680  213.2290  155.7090 C   0  0  0  0  0  2  0  0  0  0  0  0
  156.3620  212.2830  155.0710 C   0  0  0  0  0  0  0  0  0  0  0  0
  161.1710  207.4290  148.2440 C   0  0  0  0  0  2  0  0  0  0  0  0
  161.8460  206.9710  147.0370 N   0  0  0  0  0  2  0  0  0  0  0  0
  160.4210  204.5210  144.5590 C   0  0  0  0  0  3  0  0  0  0  0  0
  162.1400  204.4700  146.8370 C   0  0  2  0  0  3  0  0  0  0  0  0
  160.7340  203.3770  145.0840 N   0  0  0  0  0  0  0  0  0  0  0  0
  161.5200  205.7540  146.3560 C   0  0  0  0  0  0  0  0  0  0  0  0
  163.8450  204.4260  146.3150 Cl  0  0  0  0  0  0  0  0  0  0  0  0
  160.7640  205.7690  145.2520 C   0  0  0  0  0  3  0  0  0  0  0  0
  161.4300  203.2990  146.3050 N   0  0  0  0  0  0  0  0  0  0  0  0
  160.0730  202.0960  147.9550 C   0  0  0  0  0  2  0  0  0  0  0  0
  161.3300  202.0790  147.1020 C   0  0  0  0  0  3  0  0  0  0  0  0
  161.4090  202.4200  148.5800 C   0  0  0  0  0  2  0  0  0  0  0  0
  2 10  1  0  0  0  0
  3  1  1  1  0  0  0
  3  9  1  0  0  0  0
  4  9  1  0  0  0  0
  4 14  1  1  0  0  0
  5  7  1  0  0  0  0
  6 24  1  6  0  0  0
  6  2  1  0  0  0  0
  6 12  1  0  0  0  0
  8  3  1  0  0  0  0
  9  5  1  0  0  0  0
 10  8  1  0  0  0  0
 11  8  1  0  0  0  0
 11  4  1  0  0  0  0
 12 13  1  0  0  0  0
 12 10  1  0  0  0  0
 13 11  1  0  0  0  0
 14  7  2  0  0  0  0
 16 17  2  0  0  0  0
 17 14  1  0  0  0  0
 17 15  1  0  0  0  0
 19 15  1  0  0  0  0
 19 23  1  0  0  0  0
 19 18  1  0  0  0  0
 20 19  1  0  0  0  0
 23 21  1  0  0  0  0
 23 22  2  0  0  0  0
 25 24  1  0  0  0  0
 26 28  2  0  0  0  0
 26 31  1  0  0  0  0
 28 32  1  0  0  0  0
 29 27  1  0  0  0  0
 29 25  1  0  0  0  0
 30 27  1  0  0  0  0
 31 29  2  0  0  0  0
 32 27  1  0  0  0  0
 32 34  1  0  0  0  0
 33 35  1  0  0  0  0
 34 33  1  0  0  0  0
 34 35  1  0  0  0  0
M  END
>  <MODEL>
2

>  <REMARK>
 VINA RESULT:      -8.2      4.093      8.761
  Name = 
  7 active torsions:
  status: ('A' for Active; 'I' for Inactive)
    1  A    between atoms: N_1  and  C_11
    2  A    between atoms: N_1  and  C_22
    3  A    between atoms: C_11  and  C_12
    4  A    between atoms: C_18  and  N_35
    5  A    between atoms: C_21  and  C_24
    6  A    between atoms: C_24  and  N_25
    7  A    between atoms: C_28  and  C_34
                            x       y       z     vdW  Elec       q    Type
                         _______ _______ _______ _____ _____    ______ ____

>  <TORSDO>
F 7

$$$$
=
 OpenBabel11072411283D

 35 40  0  0  1  0  0  0  0  0999 V2000
  160.8740  205.4820  153.3470 O   0  0  0  0  0  1  0  0  0  0  0  0
  162.1900  207.6710  150.0110 C   0  0  0  0  0  2  0  0  0  0  0  0
  161.0160  206.8560  153.4840 C   0  0  1  0  0  3  0  0  0  0  0  0
  161.0330  208.9270  154.4330 C   0  0  1  0  0  3  0  0  0  0  0  0
  160.5840  207.1690  155.8800 N   0  0  0  0  0  2  0  0  0  0  0  0
  162.5100  209.0550  149.8580 C   0  0  2  0  0  3  0  0  0  0  0  0
  160.1030  208.2420  156.3730 N   0  0  0  0  0  0  0  0  0  0  0  0
  160.8210  207.8550  152.4360 C   0  0  2  0  0  3  0  0  0  0  0  0
  161.1670  207.5100  154.6330 C   0  0  1  0  0  3  0  0  0  0  0  0
  161.4790  208.0750  151.2730 C   0  0  1  0  0  3  0  0  0  0  0  0
  160.8430  209.1520  153.0040 C   0  0  2  0  0  3  0  0  0  0  0  0
  161.8670  209.3660  151.1160 N   0  0  1  0  0  0  0  0  0  0  0  0
  161.5280  210.1010  152.1840 C   0  0  0  0  0  2  0  0  0  0  0  0
  160.3140  209.3420  155.4700 C   0  0  0  0  0  0  0  0  0  0  0  0
  158.2050  210.6480  155.1130 N   0  0  0  0  0  2  0  0  0  0  0  0
  160.1240  211.6390  156.0160 O   0  0  0  0  0  0  0  0  0  0  0  0
  159.5690  210.6050  155.5550 C   0  0  0  0  0  0  0  0  0  0  0  0
  155.9020  211.4260  154.9390 C   0  0  0  0  0  1  0  0  0  0  0  0
  157.3580  211.8440  155.1030 C   0  0  0  0  0  0  0  0  0  0  0  0
  157.5120  212.5960  156.4180 C   0  0  0  0  0  1  0  0  0  0  0  0
  158.4710  212.2170  152.7710 C   0  0  0  0  0  1  0  0  0  0  0  0
  157.2370  213.9900  153.8590 C   0  0  0  0  0  2  0  0  0  0  0  0
  157.7550  212.7630  153.9660 C   0  0  0  0  0  0  0  0  0  0  0  0
  161.7260  209.6630  148.7000 C   0  0  0  0  0  2  0  0  0  0  0  0
  162.2270  211.0000  148.4070 N   0  0  0  0  0  2  0  0  0  0  0  0
  160.1110  214.0050  149.2230 C   0  0  0  0  0  3  0  0  0  0  0  0
  161.0700  212.6610  146.8950 C   0  0  2  0  0  3  0  0  0  0  0  0
  159.6190  214.3250  148.0660 N   0  0  0  0  0  0  0  0  0  0  0  0
  161.3870  212.1530  148.2760 C   0  0  0  0  0  0  0  0  0  0  0  0
  162.5040  213.5040  146.2500 Cl  0  0  0  0  0  0  0  0  0  0  0  0
  160.9790  212.8290  149.3560 C   0  0  0  0  0  3  0  0  0  0  0  0
  159.9230  213.5790  146.9120 N   0  0  0  0  0  0  0  0  0  0  0  0
  157.9630  212.5330  145.8750 C   0  0  0  0  0  2  0  0  0  0  0  0
  159.0100  213.6300  145.7730 C   0  0  0  0  0  3  0  0  0  0  0  0
  159.1420  212.3620  144.9470 C   0  0  0  0  0  2  0  0  0  0  0  0
  2 10  1  0  0  0  0
  3  1  1  1  0  0  0
  3  9  1  0  0  0  0
  4  9  1  0  0  0  0
  4 14  1  1  0  0  0
  5  7  1  0  0  0  0
  6 24  1  6  0  0  0
  6  2  1  0  0  0  0
  6 12  1  0  0  0  0
  8 11  1  0  0  0  0
  8  3  1  0  0  0  0
  9  5  1  0  0  0  0
 10  8  1  0  0  0  0
 11  4  1  0  0  0  0
 12 10  1  0  0  0  0
 12 13  1  0  0  0  0
 13 11  1  0  0  0  0
 14 17  1  0  0  0  0
 14  7  2  0  0  0  0
 15 17  1  0  0  0  0
 17 16  2  0  0  0  0
 18 19  1  0  0  0  0
 19 15  1  0  0  0  0
 19 20  1  0  0  0  0
 21 23  1  0  0  0  0
 22 23  2  0  0  0  0
 23 19  1  0  0  0  0
 25 24  1  0  0  0  0
 26 31  1  0  0  0  0
 27 32  1  0  0  0  0
 27 29  1  0  0  0  0
 28 26  2  0  0  0  0
 29 25  1  0  0  0  0
 29 31  2  0  0  0  0
 30 27  1  0  0  0  0
 32 28  1  0  0  0  0
 34 33  1  0  0  0  0
 34 32  1  0  0  0  0
 35 34  1  0  0  0  0
 35 33  1  0  0  0  0
M  END
>  <MODEL>
3

>  <REMARK>
 VINA RESULT:      -7.5      3.646      6.728
  Name = 
  7 active torsions:
  status: ('A' for Active; 'I' for Inactive)
    1  A    between atoms: N_1  and  C_11
    2  A    between atoms: N_1  and  C_22
    3  A    between atoms: C_11  and  C_12
    4  A    between atoms: C_18  and  N_35
    5  A    between atoms: C_21  and  C_24
    6  A    between atoms: C_24  and  N_25
    7  A    between atoms: C_28  and  C_34
                            x       y       z     vdW  Elec       q    Type
                         _______ _______ _______ _____ _____    ______ ____

>  <TORSDO>
F 7

$$$$
=
 OpenBabel11072411283D

 35 40  0  0  1  0  0  0  0  0999 V2000
  161.5910  209.9160  148.7020 O   0  0  0  0  0  1  0  0  0  0  0  0
  161.2870  209.9450  152.8920 C   0  0  0  0  0  2  0  0  0  0  0  0
  161.7310  208.7090  149.3740 C   0  0  1  0  0  3  0  0  0  0  0  0
  162.0770  206.4880  149.7460 C   0  0  1  0  0  3  0  0  0  0  0  0
  162.3480  207.1880  147.5500 N   0  0  0  0  0  2  0  0  0  0  0  0
  161.4630  208.9060  153.8580 C   0  0  2  0  0  3  0  0  0  0  0  0
  162.0850  205.9390  147.5560 N   0  0  0  0  0  0  0  0  0  0  0  0
  161.0730  208.3340  150.6240 C   0  0  2  0  0  3  0  0  0  0  0  0
  162.3330  207.6210  148.8990 C   0  0  1  0  0  3  0  0  0  0  0  0
  161.1670  208.8450  151.8750 C   0  0  1  0  0  3  0  0  0  0  0  0
  161.2900  206.9580  150.8810 C   0  0  2  0  0  3  0  0  0  0  0  0
  161.4060  207.9000  152.8190 N   0  0  1  0  0  0  0  0  0  0  0  0
  161.5280  206.6870  152.2640 C   0  0  0  0  0  2  0  0  0  0  0  0
  161.8530  205.4870  148.9020 C   0  0  0  0  0  0  0  0  0  0  0  0
  161.4220  203.0690  148.4100 N   0  0  0  0  0  2  0  0  0  0  0  0
  160.3780  204.1610  150.1970 O   0  0  0  0  0  0  0  0  0  0  0  0
  161.1720  204.2250  149.2200 C   0  0  0  0  0  0  0  0  0  0  0  0
  161.4620  201.0220  149.7330 C   0  0  0  0  0  1  0  0  0  0  0  0
  160.7850  201.7610  148.5850 C   0  0  0  0  0  0  0  0  0  0  0  0
  159.3110  201.9460  148.9160 C   0  0  0  0  0  1  0  0  0  0  0  0
  160.5290  201.5430  145.9960 C   0  0  0  0  0  1  0  0  0  0  0  0
  161.5910  199.7990  147.2920 C   0  0  0  0  0  2  0  0  0  0  0  0
  160.9000  200.9420  147.3150 C   0  0  0  0  0  0  0  0  0  0  0  0
  160.2410  208.8010  154.7630 C   0  0  0  0  0  2  0  0  0  0  0  0
  160.0170  210.0670  155.4480 N   0  0  0  0  0  2  0  0  0  0  0  0
  156.6080  211.6060  155.0140 C   0  0  0  0  0  3  0  0  0  0  0  0
  159.3320  212.3340  154.5690 C   0  0  2  0  0  3  0  0  0  0  0  0
  156.8670  212.6730  154.3250 N   0  0  0  0  0  0  0  0  0  0  0  0
  158.9650  210.9790  155.1100 C   0  0  0  0  0  0  0  0  0  0  0  0
  159.9200  213.3490  155.9130 Cl  0  0  0  0  0  0  0  0  0  0  0  0
  157.6870  210.6760  155.3690 C   0  0  0  0  0  3  0  0  0  0  0  0
  158.1810  212.9840  153.9260 N   0  0  0  0  0  0  0  0  0  0  0  0
  158.1830  213.1020  151.4770 C   0  0  0  0  0  2  0  0  0  0  0  0
  158.3850  213.8620  152.7770 C   0  0  0  0  0  3  0  0  0  0  0  0
  159.5810  213.3890  151.9700 C   0  0  0  0  0  2  0  0  0  0  0  0
  2  6  1  0  0  0  0
  3  1  1  6  0  0  0
  3  8  1  0  0  0  0
  4 14  1  6  0  0  0
  4 11  1  0  0  0  0
  5  7  1  0  0  0  0
  5  9  1  0  0  0  0
  6 24  1  1  0  0  0
  7 14  2  0  0  0  0
  8 11  1  0  0  0  0
  8 10  1  0  0  0  0
  9  3  1  0  0  0  0
  9  4  1  0  0  0  0
 10 12  1  0  0  0  0
 10  2  1  0  0  0  0
 11 13  1  0  0  0  0
 12  6  1  0  0  0  0
 13 12  1  0  0  0  0
 14 17  1  0  0  0  0
 15 19  1  0  0  0  0
 15 17  1  0  0  0  0
 17 16  2  0  0  0  0
 19 20  1  0  0  0  0
 19 18  1  0  0  0  0
 21 23  1  0  0  0  0
 22 23  2  0  0  0  0
 23 19  1  0  0  0  0
 24 25  1  0  0  0  0
 26 31  1  0  0  0  0
 27 29  1  0  0  0  0
 27 30  1  0  0  0  0
 28 26  2  0  0  0  0
 29 31  2  0  0  0  0
 29 25  1  0  0  0  0
 32 28  1  0  0  0  0
 32 27  1  0  0  0  0
 33 35  1  0  0  0  0
 33 34  1  0  0  0  0
 34 32  1  0  0  0  0
 35 34  1  0  0  0  0
M  END
>  <MODEL>
4

>  <REMARK>
 VINA RESULT:      -7.0      3.926      5.316
  Name = 
  7 active torsions:
  status: ('A' for Active; 'I' for Inactive)
    1  A    between atoms: N_1  and  C_11
    2  A    between atoms: N_1  and  C_22
    3  A    between atoms: C_11  and  C_12
    4  A    between atoms: C_18  and  N_35
    5  A    between atoms: C_21  and  C_24
    6  A    between atoms: C_24  and  N_25
    7  A    between atoms: C_28  and  C_34
                            x       y       z     vdW  Elec       q    Type
                         _______ _______ _______ _____ _____    ______ ____

>  <TORSDO>
F 7

$$$$
=
 OpenBabel11072411283D

 35 40  0  0  1  0  0  0  0  0999 V2000
  160.8780  204.3670  149.5640 O   0  0  0  0  0  1  0  0  0  0  0  0
  162.0730  208.0800  148.0030 C   0  0  0  0  0  2  0  0  0  0  0  0
  161.2500  205.3610  150.4590 C   0  0  1  0  0  3  0  0  0  0  0  0
  161.7120  206.4140  152.4260 C   0  0  1  0  0  3  0  0  0  0  0  0
  161.1880  204.1590  152.5970 N   0  0  0  0  0  2  0  0  0  0  0  0
  162.5810  209.2530  148.6430 C   0  0  2  0  0  3  0  0  0  0  0  0
  160.9490  204.7250  153.7160 N   0  0  0  0  0  0  0  0  0  0  0  0
  161.0770  206.8000  150.2740 C   0  0  2  0  0  3  0  0  0  0  0  0
  161.6490  205.1670  151.7140 C   0  0  1  0  0  3  0  0  0  0  0  0
  161.6050  207.6580  149.3680 C   0  0  1  0  0  3  0  0  0  0  0  0
  161.3750  207.4750  151.4830 C   0  0  2  0  0  3  0  0  0  0  0  0
  162.1640  208.7550  149.9360 N   0  0  1  0  0  0  0  0  0  0  0  0
  162.0860  208.6960  151.2720 C   0  0  0  0  0  2  0  0  0  0  0  0
  161.2080  206.1370  153.6230 C   0  0  0  0  0  0  0  0  0  0  0  0
  161.2730  208.4210  154.6510 N   0  0  0  0  0  2  0  0  0  0  0  0
  159.7300  206.8050  155.3490 O   0  0  0  0  0  0  0  0  0  0  0  0
  160.6860  207.1140  154.5880 C   0  0  0  0  0  0  0  0  0  0  0  0
  160.3430  208.8440  156.8650 C   0  0  0  0  0  1  0  0  0  0  0  0
  160.8820  209.4780  155.5880 C   0  0  0  0  0  0  0  0  0  0  0  0
  162.0910  210.3350  155.9330 C   0  0  0  0  0  1  0  0  0  0  0  0
  158.8790  211.1330  155.8480 C   0  0  0  0  0  1  0  0  0  0  0  0
  159.8670  210.7050  153.6820 C   0  0  0  0  0  2  0  0  0  0  0  0
  159.8170  210.3630  154.9720 C   0  0  0  0  0  0  0  0  0  0  0  0
  161.7580  210.4770  148.2570 C   0  0  0  0  0  2  0  0  0  0  0  0
  161.8230  211.4750  149.3160 N   0  0  0  0  0  2  0  0  0  0  0  0
  159.4670  213.9570  150.8850 C   0  0  0  0  0  3  0  0  0  0  0  0
  160.3750  213.2620  148.2700 C   0  0  2  0  0  3  0  0  0  0  0  0
  158.8510  214.4510  149.8550 N   0  0  0  0  0  0  0  0  0  0  0  0
  160.8550  212.5180  149.4870 C   0  0  0  0  0  0  0  0  0  0  0  0
  161.6530  214.3920  147.7470 Cl  0  0  0  0  0  0  0  0  0  0  0  0
  160.4650  212.8960  150.7100 C   0  0  0  0  0  3  0  0  0  0  0  0
  159.1410  214.0080  148.5510 N   0  0  0  0  0  0  0  0  0  0  0  0
  157.0800  213.0970  147.5820 C   0  0  0  0  0  2  0  0  0  0  0  0
  158.1380  214.1840  147.5030 C   0  0  0  0  0  3  0  0  0  0  0  0
  158.1760  213.0050  146.5470 C   0  0  0  0  0  2  0  0  0  0  0  0
  2  6  1  0  0  0  0
  2 10  1  0  0  0  0
  3  1  1  1  0  0  0
  3  9  1  0  0  0  0
  4 14  1  1  0  0  0
  5  7  1  0  0  0  0
  6 24  1  6  0  0  0
  6 12  1  0  0  0  0
  8  3  1  0  0  0  0
  8 11  1  0  0  0  0
  9  4  1  0  0  0  0
  9  5  1  0  0  0  0
 10 12  1  0  0  0  0
 10  8  1  0  0  0  0
 11  4  1  0  0  0  0
 12 13  1  0  0  0  0
 13 11  1  0  0  0  0
 14  7  2  0  0  0  0
 14 17  1  0  0  0  0
 15 19  1  0  0  0  0
 17 15  1  0  0  0  0
 17 16  2  0  0  0  0
 19 20  1  0  0  0  0
 19 18  1  0  0  0  0
 22 23  2  0  0  0  0
 23 19  1  0  0  0  0
 23 21  1  0  0  0  0
 24 25  1  0  0  0  0
 25 29  1  0  0  0  0
 27 32  1  0  0  0  0
 27 29  1  0  0  0  0
 28 26  2  0  0  0  0
 29 31  2  0  0  0  0
 30 27  1  0  0  0  0
 31 26  1  0  0  0  0
 32 28  1  0  0  0  0
 34 33  1  0  0  0  0
 34 32  1  0  0  0  0
 35 34  1  0  0  0  0
 35 33  1  0  0  0  0
M  END
>  <MODEL>
5

>  <REMARK>
 VINA RESULT:      -7.0      2.445      5.702
  Name = 
  7 active torsions:
  status: ('A' for Active; 'I' for Inactive)
    1  A    between atoms: N_1  and  C_11
    2  A    between atoms: N_1  and  C_22
    3  A    between atoms: C_11  and  C_12
    4  A    between atoms: C_18  and  N_35
    5  A    between atoms: C_21  and  C_24
    6  A    between atoms: C_24  and  N_25
    7  A    between atoms: C_28  and  C_34
                            x       y       z     vdW  Elec       q    Type
                         _______ _______ _______ _____ _____    ______ ____

>  <TORSDO>
F 7

$$$$
=
 OpenBabel11072411283D

 35 40  0  0  1  0  0  0  0  0999 V2000
  162.3610  205.0640  151.5230 O   0  0  0  0  0  1  0  0  0  0  0  0
  160.7610  206.9360  154.9280 C   0  0  0  0  0  2  0  0  0  0  0  0
  161.8210  206.3350  151.3750 C   0  0  1  0  0  3  0  0  0  0  0  0
  161.1330  208.2730  150.3950 C   0  0  1  0  0  3  0  0  0  0  0  0
  161.9420  206.6520  148.9450 N   0  0  0  0  0  2  0  0  0  0  0  0
  160.0740  208.1790  155.0850 C   0  0  2  0  0  3  0  0  0  0  0  0
  162.0520  207.7950  148.3890 N   0  0  0  0  0  0  0  0  0  0  0  0
  161.8110  207.3930  152.3830 C   0  0  2  0  0  3  0  0  0  0  0  0
  161.3930  206.8690  150.2340 C   0  0  1  0  0  3  0  0  0  0  0  0
  161.2170  207.4690  153.5980 C   0  0  1  0  0  3  0  0  0  0  0  0
  161.3710  208.6050  151.7960 C   0  0  2  0  0  3  0  0  0  0  0  0
  160.4920  208.6030  153.7670 N   0  0  1  0  0  0  0  0  0  0  0  0
  160.5160  209.3570  152.6590 C   0  0  0  0  0  2  0  0  0  0  0  0
  161.6140  208.8280  149.2880 C   0  0  0  0  0  0  0  0  0  0  0  0
  161.4030  210.9700  148.0040 N   0  0  0  0  0  2  0  0  0  0  0  0
  162.7280  210.8190  149.9280 O   0  0  0  0  0  0  0  0  0  0  0  0
  161.9570  210.2460  149.1110 C   0  0  0  0  0  0  0  0  0  0  0  0
  161.1590  213.2600  148.8010 C   0  0  0  0  0  1  0  0  0  0  0  0
  161.6890  212.3710  147.6840 C   0  0  0  0  0  0  0  0  0  0  0  0
  163.1920  212.5750  147.5580 C   0  0  0  0  0  1  0  0  0  0  0  0
  161.8750  213.1450  145.1960 C   0  0  0  0  0  1  0  0  0  0  0  0
  159.7470  212.4890  146.1400 C   0  0  0  0  0  2  0  0  0  0  0  0
  161.0340  212.7570  146.3720 C   0  0  0  0  0  0  0  0  0  0  0  0
  160.7460  209.0340  156.1540 C   0  0  0  0  0  2  0  0  0  0  0  0
  159.8170  210.0450  156.6410 N   0  0  0  0  0  2  0  0  0  0  0  0
  156.8750  211.5830  154.8650 C   0  0  0  0  0  3  0  0  0  0  0  0
  159.6980  211.9740  155.0140 C   0  0  2  0  0  3  0  0  0  0  0  0
  157.4450  212.3720  154.0080 N   0  0  0  0  0  0  0  0  0  0  0  0
  159.0210  210.8730  155.7850 C   0  0  0  0  0  0  0  0  0  0  0  0
  160.0710  213.3120  156.1340 Cl  0  0  0  0  0  0  0  0  0  0  0  0
  157.6890  210.7410  155.7500 C   0  0  0  0  0  3  0  0  0  0  0  0
  158.8470  212.4660  153.9220 N   0  0  0  0  0  0  0  0  0  0  0  0
  158.8180  214.2470  152.2380 C   0  0  0  0  0  2  0  0  0  0  0  0
  159.4520  212.9390  152.6800 C   0  0  0  0  0  3  0  0  0  0  0  0
  158.4130  212.9540  151.5720 C   0  0  0  0  0  2  0  0  0  0  0  0
  2  6  1  0  0  0  0
  3  1  1  6  0  0  0
  3  8  1  0  0  0  0
  4 14  1  6  0  0  0
  4 11  1  0  0  0  0
  5  9  1  0  0  0  0
  6 24  1  1  0  0  0
  7  5  1  0  0  0  0
  7 14  2  0  0  0  0
  8 10  1  0  0  0  0
  9  4  1  0  0  0  0
  9  3  1  0  0  0  0
 10 12  1  0  0  0  0
 10  2  1  0  0  0  0
 11  8  1  0  0  0  0
 11 13  1  0  0  0  0
 12  6  1  0  0  0  0
 13 12  1  0  0  0  0
 15 17  1  0  0  0  0
 17 14  1  0  0  0  0
 17 16  2  0  0  0  0
 19 15  1  0  0  0  0
 19 18  1  0  0  0  0
 20 19  1  0  0  0  0
 21 23  1  0  0  0  0
 22 23  2  0  0  0  0
 23 19  1  0  0  0  0
 24 25  1  0  0  0  0
 26 31  1  0  0  0  0
 27 29  1  0  0  0  0
 27 30  1  0  0  0  0
 28 26  2  0  0  0  0
 29 25  1  0  0  0  0
 31 29  2  0  0  0  0
 32 28  1  0  0  0  0
 32 27  1  0  0  0  0
 33 34  1  0  0  0  0
 34 32  1  0  0  0  0
 35 33  1  0  0  0  0
 35 34  1  0  0  0  0
M  END
>  <MODEL>
6

>  <REMARK>
 VINA RESULT:      -6.9      3.970      6.429
  Name = 
  7 active torsions:
  status: ('A' for Active; 'I' for Inactive)
    1  A    between atoms: N_1  and  C_11
    2  A    between atoms: N_1  and  C_22
    3  A    between atoms: C_11  and  C_12
    4  A    between atoms: C_18  and  N_35
    5  A    between atoms: C_21  and  C_24
    6  A    between atoms: C_24  and  N_25
    7  A    between atoms: C_28  and  C_34
                            x       y       z     vdW  Elec       q    Type
                         _______ _______ _______ _____ _____    ______ ____

>  <TORSDO>
F 7

$$$$
=
 OpenBabel11072411283D

 35 40  0  0  1  0  0  0  0  0999 V2000
  161.6400  202.0330  152.6990 O   0  0  0  0  0  1  0  0  0  0  0  0
  161.2920  206.1950  153.1560 C   0  0  0  0  0  2  0  0  0  0  0  0
  161.2370  202.7790  151.5990 C   0  0  1  0  0  3  0  0  0  0  0  0
  160.5420  203.2860  149.4890 C   0  0  1  0  0  3  0  0  0  0  0  0
  160.7110  201.0220  149.9680 N   0  0  0  0  0  2  0  0  0  0  0  0
  160.8320  207.2080  152.2580 C   0  0  2  0  0  3  0  0  0  0  0  0
  160.8000  201.1850  148.7050 N   0  0  0  0  0  0  0  0  0  0  0  0
  161.6370  204.1500  151.2890 C   0  0  2  0  0  3  0  0  0  0  0  0
  160.5750  202.3100  150.5430 C   0  0  1  0  0  3  0  0  0  0  0  0
  161.4200  205.3160  151.9430 C   0  0  1  0  0  3  0  0  0  0  0  0
  161.2000  204.4910  149.9860 C   0  0  2  0  0  3  0  0  0  0  0  0
  160.9130  206.2890  151.1440 N   0  0  1  0  0  0  0  0  0  0  0  0
  160.7170  205.8330  149.8990 C   0  0  0  0  0  2  0  0  0  0  0  0
  160.7580  202.5860  148.3820 C   0  0  0  0  0  0  0  0  0  0  0  0
  161.7290  204.4590  147.0300 N   0  0  0  0  0  2  0  0  0  0  0  0
  161.1340  202.4190  146.0490 O   0  0  0  0  0  0  0  0  0  0  0  0
  161.2060  203.1250  147.0910 C   0  0  0  0  0  0  0  0  0  0  0  0
  162.7020  206.5210  146.1670 C   0  0  0  0  0  1  0  0  0  0  0  0
  162.1740  205.1370  145.8100 C   0  0  0  0  0  0  0  0  0  0  0  0
  163.2890  204.3360  145.1520 C   0  0  0  0  0  1  0  0  0  0  0  0
  159.7120  205.8280  145.2800 C   0  0  0  0  0  1  0  0  0  0  0  0
  161.2290  205.1740  143.5130 C   0  0  0  0  0  2  0  0  0  0  0  0
  161.0260  205.2690  144.8300 C   0  0  0  0  0  0  0  0  0  0  0  0
  161.8730  208.3110  152.1110 C   0  0  0  0  0  2  0  0  0  0  0  0
  161.2160  209.6070  152.0100 N   0  0  0  0  0  2  0  0  0  0  0  0
  160.8640  211.1390  155.4310 C   0  0  0  0  0  3  0  0  0  0  0  0
  159.4140  211.0930  152.9720 C   0  0  2  0  0  3  0  0  0  0  0  0
  159.6520  211.6020  155.4080 N   0  0  0  0  0  0  0  0  0  0  0  0
  160.7000  210.3280  153.1350 C   0  0  0  0  0  0  0  0  0  0  0  0
  159.7440  212.5780  152.0410 Cl  0  0  0  0  0  0  0  0  0  0  0  0
  161.3970  210.4090  154.2740 C   0  0  0  0  0  3  0  0  0  0  0  0
  158.8320  211.4450  154.2750 N   0  0  0  0  0  0  0  0  0  0  0  0
  156.8860  212.9360  154.2800 C   0  0  0  0  0  2  0  0  0  0  0  0
  157.3810  211.5080  154.4350 C   0  0  0  0  0  3  0  0  0  0  0  0
  157.0310  212.3370  155.6580 C   0  0  0  0  0  2  0  0  0  0  0  0
  3  1  1  6  0  0  0
  4 14  1  6  0  0  0
  4 11  1  0  0  0  0
  4  9  1  0  0  0  0
  5  9  1  0  0  0  0
  6 24  1  6  0  0  0
  6  2  1  0  0  0  0
  7  5  1  0  0  0  0
  8  3  1  0  0  0  0
  8 10  1  0  0  0  0
  9  3  1  0  0  0  0
 10  2  1  0  0  0  0
 11  8  1  0  0  0  0
 12 10  1  0  0  0  0
 12  6  1  0  0  0  0
 13 11  1  0  0  0  0
 13 12  1  0  0  0  0
 14  7  2  0  0  0  0
 15 17  1  0  0  0  0
 16 17  2  0  0  0  0
 17 14  1  0  0  0  0
 19 18  1  0  0  0  0
 19 15  1  0  0  0  0
 20 19  1  0  0  0  0
 22 23  2  0  0  0  0
 23 21  1  0  0  0  0
 23 19  1  0  0  0  0
 25 24  1  0  0  0  0
 25 29  1  0  0  0  0
 27 29  1  0  0  0  0
 27 32  1  0  0  0  0
 28 26  2  0  0  0  0
 29 31  2  0  0  0  0
 30 27  1  0  0  0  0
 31 26  1  0  0  0  0
 32 34  1  0  0  0  0
 32 28  1  0  0  0  0
 33 34  1  0  0  0  0
 33 35  1  0  0  0  0
 34 35  1  0  0  0  0
M  END
>  <MODEL>
7

>  <REMARK>
 VINA RESULT:      -6.9      3.812      4.568
  Name = 
  7 active torsions:
  status: ('A' for Active; 'I' for Inactive)
    1  A    between atoms: N_1  and  C_11
    2  A    between atoms: N_1  and  C_22
    3  A    between atoms: C_11  and  C_12
    4  A    between atoms: C_18  and  N_35
    5  A    between atoms: C_21  and  C_24
    6  A    between atoms: C_24  and  N_25
    7  A    between atoms: C_28  and  C_34
                            x       y       z     vdW  Elec       q    Type
                         _______ _______ _______ _____ _____    ______ ____

>  <TORSDO>
F 7

$$$$
=
 OpenBabel11072411283D

 35 40  0  0  1  0  0  0  0  0999 V2000
  161.7640  209.9940  148.6360 O   0  0  0  0  0  1  0  0  0  0  0  0
  161.4330  210.0810  152.8230 C   0  0  0  0  0  2  0  0  0  0  0  0
  161.8770  208.7930  149.3240 C   0  0  1  0  0  3  0  0  0  0  0  0
  162.1800  206.5710  149.7260 C   0  0  1  0  0  3  0  0  0  0  0  0
  162.4770  207.2380  147.5230 N   0  0  0  0  0  2  0  0  0  0  0  0
  161.5840  209.0510  153.8030 C   0  0  2  0  0  3  0  0  0  0  0  0
  162.1920  205.9940  147.5430 N   0  0  0  0  0  0  0  0  0  0  0  0
  161.2040  208.4460  150.5740 C   0  0  2  0  0  3  0  0  0  0  0  0
  162.4610  207.6880  148.8670 C   0  0  1  0  0  3  0  0  0  0  0  0
  161.2990  208.9700  151.8190 C   0  0  1  0  0  3  0  0  0  0  0  0
  161.3940  207.0690  150.8500 C   0  0  2  0  0  3  0  0  0  0  0  0
  161.5150  208.0330  152.7770 N   0  0  1  0  0  0  0  0  0  0  0  0
  161.6180  206.8120  152.2380 C   0  0  0  0  0  2  0  0  0  0  0  0
  161.9430  205.5640  148.8930 C   0  0  0  0  0  0  0  0  0  0  0  0
  161.4650  203.1500  148.4230 N   0  0  0  0  0  2  0  0  0  0  0  0
  160.4400  204.2800  150.1980 O   0  0  0  0  0  0  0  0  0  0  0  0
  161.2360  204.3190  149.2210 C   0  0  0  0  0  0  0  0  0  0  0  0
  161.4790  201.1040  149.7490 C   0  0  0  0  0  1  0  0  0  0  0  0
  160.8010  201.8570  148.6100 C   0  0  0  0  0  0  0  0  0  0  0  0
  159.3370  202.0750  148.9620 C   0  0  0  0  0  1  0  0  0  0  0  0
  160.4560  201.6250  146.0320 C   0  0  0  0  0  1  0  0  0  0  0  0
  161.5810  199.8980  147.2970 C   0  0  0  0  0  2  0  0  0  0  0  0
  160.8800  201.0330  147.3400 C   0  0  0  0  0  0  0  0  0  0  0  0
  160.3540  208.9800  154.7020 C   0  0  0  0  0  2  0  0  0  0  0  0
  160.3860  210.0600  155.6780 N   0  0  0  0  0  2  0  0  0  0  0  0
  159.2710  213.6500  155.8880 C   0  0  0  0  0  3  0  0  0  0  0  0
  158.2660  211.1770  154.8780 C   0  0  2  0  0  3  0  0  0  0  0  0
  158.0290  213.5800  155.5220 N   0  0  0  0  0  0  0  0  0  0  0  0
  159.5990  211.2520  155.5730 C   0  0  0  0  0  0  0  0  0  0  0  0
  158.5410  211.0790  153.1190 Cl  0  0  0  0  0  0  0  0  0  0  0  0
  160.0820  212.4300  155.9870 C   0  0  0  0  0  3  0  0  0  0  0  0
  157.4350  212.3490  155.1840 N   0  0  0  0  0  0  0  0  0  0  0  0
  155.5870  211.4260  156.5050 C   0  0  0  0  0  2  0  0  0  0  0  0
  155.9830  212.2150  155.2680 C   0  0  0  0  0  3  0  0  0  0  0  0
  155.5910  210.7520  155.1540 C   0  0  0  0  0  2  0  0  0  0  0  0
  2  6  1  0  0  0  0
  3  1  1  6  0  0  0
  3  8  1  0  0  0  0
  4 14  1  6  0  0  0
  4 11  1  0  0  0  0
  5  7  1  0  0  0  0
  5  9  1  0  0  0  0
  6 24  1  1  0  0  0
  7 14  2  0  0  0  0
  8 11  1  0  0  0  0
  8 10  1  0  0  0  0
  9  3  1  0  0  0  0
  9  4  1  0  0  0  0
 10 12  1  0  0  0  0
 10  2  1  0  0  0  0
 11 13  1  0  0  0  0
 12  6  1  0  0  0  0
 13 12  1  0  0  0  0
 14 17  1  0  0  0  0
 15 19  1  0  0  0  0
 15 17  1  0  0  0  0
 17 16  2  0  0  0  0
 19 20  1  0  0  0  0
 19 18  1  0  0  0  0
 21 23  1  0  0  0  0
 22 23  2  0  0  0  0
 23 19  1  0  0  0  0
 24 25  1  0  0  0  0
 26 31  1  0  0  0  0
 27 32  1  0  0  0  0
 27 29  1  0  0  0  0
 28 26  2  0  0  0  0
 29 25  1  0  0  0  0
 29 31  2  0  0  0  0
 30 27  1  0  0  0  0
 32 34  1  0  0  0  0
 32 28  1  0  0  0  0
 34 33  1  0  0  0  0
 35 34  1  0  0  0  0
 35 33  1  0  0  0  0
M  END
>  <MODEL>
8

>  <REMARK>
 VINA RESULT:      -6.7      4.361      5.761
  Name = 
  7 active torsions:
  status: ('A' for Active; 'I' for Inactive)
    1  A    between atoms: N_1  and  C_11
    2  A    between atoms: N_1  and  C_22
    3  A    between atoms: C_11  and  C_12
    4  A    between atoms: C_18  and  N_35
    5  A    between atoms: C_21  and  C_24
    6  A    between atoms: C_24  and  N_25
    7  A    between atoms: C_28  and  C_34
                            x       y       z     vdW  Elec       q    Type
                         _______ _______ _______ _____ _____    ______ ____

>  <TORSDO>
F 7

$$$$
=
 OpenBabel11072411283D

 35 40  0  0  1  0  0  0  0  0999 V2000
  161.0460  207.1790  156.9140 O   0  0  0  0  0  1  0  0  0  0  0  0
  161.9660  205.7850  153.0590 C   0  0  0  0  0  2  0  0  0  0  0  0
  161.1520  208.1120  155.8920 C   0  0  1  0  0  3  0  0  0  0  0  0
  161.1840  210.1200  154.8130 C   0  0  1  0  0  3  0  0  0  0  0  0
  160.9350  210.2270  157.1180 N   0  0  0  0  0  2  0  0  0  0  0  0
  162.2210  206.4850  151.8390 C   0  0  2  0  0  3  0  0  0  0  0  0
  160.4650  211.2950  156.6020 N   0  0  0  0  0  0  0  0  0  0  0  0
  160.8240  207.8950  154.4850 C   0  0  2  0  0  3  0  0  0  0  0  0
  161.3860  209.4130  156.0490 C   0  0  1  0  0  3  0  0  0  0  0  0
  161.3630  207.0700  153.5550 C   0  0  1  0  0  3  0  0  0  0  0  0
  160.8530  209.1310  153.7920 C   0  0  2  0  0  3  0  0  0  0  0  0
  161.6880  207.7070  152.4020 N   0  0  1  0  0  0  0  0  0  0  0  0
  161.4250  209.0170  152.4870 C   0  0  0  0  0  2  0  0  0  0  0  0
  160.5510  211.2320  155.1670 C   0  0  0  0  0  0  0  0  0  0  0  0
  160.0470  212.0950  152.8700 N   0  0  0  0  0  2  0  0  0  0  0  0
  158.8720  212.8500  154.7480 O   0  0  0  0  0  0  0  0  0  0  0  0
  159.7730  212.1040  154.2770 C   0  0  0  0  0  0  0  0  0  0  0  0
  157.9210  212.5150  151.7530 C   0  0  0  0  0  1  0  0  0  0  0  0
  159.3800  212.9390  151.8740 C   0  0  0  0  0  0  0  0  0  0  0  0
  159.4390  214.3960  152.3110 C   0  0  0  0  0  1  0  0  0  0  0  0
  159.7200  213.7480  149.4150 C   0  0  0  0  0  1  0  0  0  0  0  0
  161.1610  212.0630  150.3810 C   0  0  0  0  0  2  0  0  0  0  0  0
  160.0610  212.8060  150.5270 C   0  0  0  0  0  0  0  0  0  0  0  0
  161.3110  205.9750  150.7270 C   0  0  0  0  0  2  0  0  0  0  0  0
  161.5490  204.5560  150.4980 N   0  0  0  0  0  2  0  0  0  0  0  0
  160.3980  201.9520  148.0350 C   0  0  0  0  0  3  0  0  0  0  0  0
  161.3740  204.6340  147.9790 C   0  0  2  0  0  3  0  0  0  0  0  0
  160.7370  202.4730  146.8970 N   0  0  0  0  0  0  0  0  0  0  0  0
  161.2310  203.8820  149.2750 C   0  0  0  0  0  0  0  0  0  0  0  0
  160.0130  205.7760  147.8250 Cl  0  0  0  0  0  0  0  0  0  0  0  0
  160.7160  202.6470  149.2890 C   0  0  0  0  0  3  0  0  0  0  0  0
  161.3860  203.7200  146.8290 N   0  0  0  0  0  0  0  0  0  0  0  0
  163.3700  204.9130  146.0210 C   0  0  0  0  0  2  0  0  0  0  0  0
  162.1820  204.0430  145.6470 C   0  0  0  0  0  3  0  0  0  0  0  0
  162.1480  205.5400  145.3930 C   0  0  0  0  0  2  0  0  0  0  0  0
  2 10  1  0  0  0  0
  3  9  1  0  0  0  0
  3  1  1  1  0  0  0
  4 14  1  1  0  0  0
  4  9  1  0  0  0  0
  6 24  1  6  0  0  0
  6 12  1  0  0  0  0
  6  2  1  0  0  0  0
  7  5  1  0  0  0  0
  8  3  1  0  0  0  0
  9  5  1  0  0  0  0
 10  8  1  0  0  0  0
 11  8  1  0  0  0  0
 11  4  1  0  0  0  0
 12 13  1  0  0  0  0
 12 10  1  0  0  0  0
 13 11  1  0  0  0  0
 14  7  2  0  0  0  0
 15 17  1  0  0  0  0
 17 16  2  0  0  0  0
 17 14  1  0  0  0  0
 18 19  1  0  0  0  0
 19 20  1  0  0  0  0
 19 15  1  0  0  0  0
 21 23  1  0  0  0  0
 22 23  2  0  0  0  0
 23 19  1  0  0  0  0
 25 24  1  0  0  0  0
 26 31  1  0  0  0  0
 27 29  1  0  0  0  0
 28 26  2  0  0  0  0
 29 31  2  0  0  0  0
 29 25  1  0  0  0  0
 30 27  1  0  0  0  0
 32 28  1  0  0  0  0
 32 27  1  0  0  0  0
 34 33  1  0  0  0  0
 34 32  1  0  0  0  0
 35 34  1  0  0  0  0
 35 33  1  0  0  0  0
M  END
>  <MODEL>
9

>  <REMARK>
 VINA RESULT:      -6.5      3.527      8.514
  Name = 
  7 active torsions:
  status: ('A' for Active; 'I' for Inactive)
    1  A    between atoms: N_1  and  C_11
    2  A    between atoms: N_1  and  C_22
    3  A    between atoms: C_11  and  C_12
    4  A    between atoms: C_18  and  N_35
    5  A    between atoms: C_21  and  C_24
    6  A    between atoms: C_24  and  N_25
    7  A    between atoms: C_28  and  C_34
                            x       y       z     vdW  Elec       q    Type
                         _______ _______ _______ _____ _____    ______ ____

>  <TORSDO>
F 7

$$$$
