=
 OpenBabel11072409513D

 66 71  0  0  1  0  0  0  0  0999 V2000
  161.3060  206.4890  143.1030 C   0  0  0  0  0  0  0  0  0  0  0  0
  160.6780  207.4240  143.5820 O   0  0  0  0  0  0  0  0  0  0  0  0
  163.0120  205.6340  144.5220 O   0  0  0  0  0  1  0  0  0  0  0  0
  161.7450  205.3720  143.9980 C   0  0  1  0  0  3  0  0  0  0  0  0
  160.7500  205.1600  145.0980 C   0  0  0  0  0  0  0  0  0  0  0  0
  159.8820  204.3090  144.9870 O   0  0  0  0  0  0  0  0  0  0  0  0
  160.8800  205.9370  146.3790 C   0  0  0  0  0  2  0  0  0  0  0  0
  161.0750  205.0550  147.6210 C   0  0  2  0  0  3  0  0  0  0  0  0
  161.0520  207.4350  150.2600 C   0  0  0  0  0  3  0  0  0  0  0  0
  161.7360  204.0380  150.4900 O   0  0  0  0  0  0  0  0  0  0  0  0
  161.9130  205.7290  148.7300 C   0  0  1  0  0  3  0  0  0  0  0  0
  161.0360  206.2940  150.9230 C   0  0  0  0  0  0  0  0  0  0  0  0
  161.5320  207.1730  148.9050 C   0  0  0  0  0  0  0  0  0  0  0  0
  161.5550  205.2190  150.0910 C   0  0  0  0  0  0  0  0  0  0  0  0
  161.9570  208.1470  148.1140 C   0  0  0  0  0  2  0  0  0  0  0  0
  160.7010  206.1860  152.3700 C   0  0  0  0  0  2  0  0  0  0  0  0
  161.2970  207.3610  153.1250 C   0  0  0  0  0  2  0  0  0  0  0  0
  160.6310  207.5310  154.4830 C   0  0  0  0  0  2  0  0  0  0  0  0
  162.0830  210.6450  154.2140 O   0  0  0  0  0  0  0  0  0  0  0  0
  160.5260  208.9990  154.8850 C   0  0  2  0  0  3  0  0  0  0  0  0
  160.6980  209.8590  157.1070 O   0  0  0  0  0  1  0  0  0  0  0  0
  160.9970  209.8790  153.7170 C   0  0  1  0  0  3  0  0  0  0  0  0
  163.3360  210.8050  156.1530 O   0  0  0  0  0  0  0  0  0  0  0  0
  162.3670  210.3130  155.5190 C   0  0  0  0  0  0  0  0  0  0  0  0
  161.4470  209.2990  156.0720 C   0  0  2  0  0  3  0  0  0  0  0  0
  158.8940  210.8790  154.2530 O   0  0  0  0  0  1  0  0  0  0  0  0
  159.8800  210.8070  153.2670 C   0  0  0  0  0  2  0  0  0  0  0  0
  160.7390  202.5480  147.3660 N   0  0  0  0  0  2  0  0  0  0  0  0
  161.5790  203.6990  147.2360 C   0  0  0  0  0  0  0  0  0  0  0  0
  162.7600  203.5820  146.8140 O   0  0  0  0  0  0  0  0  0  0  0  0
  161.1470  201.2280  146.9080 C   0  0  0  0  0  2  0  0  0  0  0  0
  161.3130  200.2970  148.0960 C   0  0  0  0  0  2  0  0  0  0  0  0
  160.5200  200.7680  150.0920 C   0  0  0  0  0  1  0  0  0  0  0  0
  161.5890  201.0410  149.2410 O   0  0  0  0  0  0  0  0  0  0  0  0
  161.6940  206.4980  141.6470 C   0  0  2  0  0  3  0  0  0  0  0  0
  162.6940  205.5450  141.4110 O   0  0  0  0  0  1  0  0  0  0  0  0
  162.1370  207.8850  141.1800 C   0  0  0  0  0  2  0  0  0  0  0  0
  162.0960  207.9950  139.6610 C   0  0  1  0  0  3  0  0  0  0  0  0
  160.7810  207.4520  139.1460 C   0  0  0  0  0  2  0  0  0  0  0  0
  161.0030  208.9600  139.2280 C   0  0  2  0  0  3  0  0  0  0  0  0
  161.4550  209.5770  137.9760 N   0  0  0  0  0  0  0  0  0  0  0  0
  160.5230  210.5250  137.5230 N   0  0  0  0  0  2  0  0  0  0  0  0
  156.8360  209.3280  137.6690 C   0  0  0  0  0  0  0  0  0  0  0  0
  159.1270  210.2670  137.6610 C   0  0  0  0  0  0  0  0  0  0  0  0
  158.3340  208.9350  137.0120 S   0  0  0  0  0  0  0  0  0  0  0  0
  158.2470  211.0400  138.4070 C   0  0  0  0  0  3  0  0  0  0  0  0
  156.9450  210.5080  138.4110 C   0  0  0  0  0  0  0  0  0  0  0  0
  154.7130  210.5740  139.2130 O   0  0  0  0  0  0  0  0  0  0  0  0
  155.8370  211.1370  139.1520 C   0  0  0  0  0  0  0  0  0  0  0  0
  156.0130  212.3610  139.7740 O   0  0  0  0  0  1  0  0  0  0  0  0
  155.2120  207.5930  138.4730 C   0  0  0  0  0  1  0  0  0  0  0  0
  155.6400  208.5650  137.4870 N   0  0  0  0  0  2  0  0  0  0  0  0
  162.6830  210.2970  138.2630 C   0  0  0  0  0  2  0  0  0  0  0  0
  160.5370  210.9290  142.6960 F   0  0  0  0  0  0  0  0  0  0  0  0
  161.1660  213.6440  138.6790 C   0  0  0  0  0  2  0  0  0  0  0  0
  159.9090  211.8060  141.8290 C   0  0  1  0  0  3  0  0  0  0  0  0
  159.4390  213.0360  142.6040 C   0  0  0  0  0  2  0  0  0  0  0  0
  162.2870  212.7160  138.4970 N   0  0  0  0  0  0  0  0  0  0  0  0
  160.8740  212.2260  140.7180 C   0  0  2  0  0  3  0  0  0  0  0  0
  160.1960  213.2200  139.7800 C   0  0  1  0  0  3  0  0  0  0  0  0
  159.7240  214.4460  140.5510 C   0  0  0  0  0  2  0  0  0  0  0  0
  162.4010  211.4350  139.2350 C   0  0  1  0  0  3  0  0  0  0  0  0
  161.2280  211.1120  139.9530 O   0  0  0  0  0  0  0  0  0  0  0  0
  158.7610  214.0290  141.6590 C   0  0  0  0  0  2  0  0  0  0  0  0
  164.4860  213.7290  138.3030 C   0  0  0  0  0  2  0  0  0  0  0  0
  163.3860  213.2400  137.7370 C   0  0  0  0  0  3  0  0  0  0  0  0
  1  2  2  0  0  0  0
  1  4  1  0  0  0  0
  4  3  1  1  0  0  0
  4  5  1  0  0  0  0
  5  7  1  0  0  0  0
  6  5  2  0  0  0  0
  8  7  1  6  0  0  0
  9 12  2  0  0  0  0
 11  8  1  6  0  0  0
 11 13  1  0  0  0  0
 11 14  1  0  0  0  0
 12 16  1  0  0  0  0
 13  9  1  0  0  0  0
 14 10  2  0  0  0  0
 14 12  1  0  0  0  0
 15 13  2  0  0  0  0
 16 17  1  0  0  0  0
 17 18  1  0  0  0  0
 19 24  1  0  0  0  0
 20 18  1  6  0  0  0
 20 25  1  0  0  0  0
 22 27  1  1  0  0  0
 22 19  1  0  0  0  0
 22 20  1  0  0  0  0
 24 25  1  0  0  0  0
 24 23  2  0  0  0  0
 25 21  1  1  0  0  0
 27 26  1  0  0  0  0
 29 28  1  0  0  0  0
 29  8  1  0  0  0  0
 30 29  2  0  0  0  0
 31 28  1  0  0  0  0
 31 32  1  0  0  0  0
 32 34  1  0  0  0  0
 34 33  1  0  0  0  0
 35 36  1  1  0  0  0
 35  1  1  0  0  0  0
 37 35  1  0  0  0  0
 38 37  1  1  0  0  0
 39 40  1  0  0  0  0
 39 38  1  0  0  0  0
 40 41  1  6  0  0  0
 40 38  1  0  0  0  0
 41 53  1  0  0  0  0
 42 44  1  0  0  0  0
 42 41  1  0  0  0  0
 43 47  2  0  0  0  0
 44 46  2  0  0  0  0
 45 44  1  0  0  0  0
 45 43  1  0  0  0  0
 46 47  1  0  0  0  0
 47 49  1  0  0  0  0
 49 48  2  0  0  0  0
 49 50  1  0  0  0  0
 52 43  1  0  0  0  0
 52 51  1  0  0  0  0
 56 57  1  0  0  0  0
 56 54  1  1  0  0  0
 58 55  1  0  0  0  0
 58 62  1  0  0  0  0
 59 63  1  6  0  0  0
 59 56  1  0  0  0  0
 60 55  1  6  0  0  0
 60 61  1  0  0  0  0
 60 59  1  0  0  0  0
 61 64  1  0  0  0  0
 62 53  1  6  0  0  0
 62 63  1  0  0  0  0
 64 57  1  0  0  0  0
 66 65  2  0  0  0  0
 66 58  1  0  0  0  0
M  END
>  <MODEL>
1

>  <REMARK>
 VINA RESULT:      -2.0      0.000      0.000
  Name = 
  25 active torsions:
  status: ('A' for Active; 'I' for Inactive)
    1  A    between atoms: C_2  and  N_20
    2  A    between atoms: C_2  and  C_27
    3  A    between atoms: C_3  and  N_56
    4  A    between atoms: C_4  and  C_23
    5  A    between atoms: C_4  and  C_44
    6  A    between atoms: C_5  and  N_61
    7  A    between atoms: C_6  and  C_34
    8  A    between atoms: C_6  and  C_53
    9  A    between atoms: C_9  and  C_16
   10  A    between atoms: C_11  and  C_53
   11  A    between atoms: C_12  and  C_16
   12  A    between atoms: C_12  and  C_32
   13  A    between atoms: C_14  and  C_44
   14  A    between atoms: C_18  and  C_23
   15  A    between atoms: C_27  and  O_45
   16  A    between atoms: C_29  and  C_62
   17  A    between atoms: C_32  and  C_54
   18  A    between atoms: N_33  and  C_42
   19  A    between atoms: C_34  and  C_54
   20  A    between atoms: C_36  and  C_40
   21  A    between atoms: C_37  and  N_47
   22  A    between atoms: C_37  and  C_52
   23  A    between atoms: C_41  and  C_53
   24  A    between atoms: N_47  and  C_60
   25  A    between atoms: N_47  and  N_61
                            x       y       z     vdW  Elec       q    Type
                         _______ _______ _______ _____ _____    ______ ____

>  <TORSDO>
F 25

$$$$
=
 OpenBabel11072409513D

 66 71  0  0  1  0  0  0  0  0999 V2000
  161.6300  205.4130  150.6950 C   0  0  0  0  0  0  0  0  0  0  0  0
  162.6870  205.6010  150.1080 O   0  0  0  0  0  0  0  0  0  0  0  0
  160.0480  204.0130  151.7860 O   0  0  0  0  0  1  0  0  0  0  0  0
  161.2330  204.0140  151.0500 C   0  0  1  0  0  3  0  0  0  0  0  0
  161.0900  203.1800  149.8140 C   0  0  0  0  0  0  0  0  0  0  0  0
  161.4630  202.0170  149.8090 O   0  0  0  0  0  0  0  0  0  0  0  0
  160.4030  203.7530  148.6060 C   0  0  0  0  0  2  0  0  0  0  0  0
  161.3460  204.0060  147.4200 C   0  0  2  0  0  3  0  0  0  0  0  0
  162.3610  206.3620  144.9610 C   0  0  0  0  0  3  0  0  0  0  0  0
  159.9440  203.8870  144.6400 O   0  0  0  0  0  0  0  0  0  0  0  0
  160.8870  205.1630  146.5040 C   0  0  1  0  0  3  0  0  0  0  0  0
  161.6940  205.4840  144.2350 C   0  0  0  0  0  0  0  0  0  0  0  0
  161.9610  206.2040  146.3570 C   0  0  0  0  0  0  0  0  0  0  0  0
  160.7700  204.7340  145.0750 C   0  0  0  0  0  0  0  0  0  0  0  0
  162.2100  207.1380  147.2640 C   0  0  0  0  0  2  0  0  0  0  0  0
  161.7640  205.4160  142.7490 C   0  0  0  0  0  2  0  0  0  0  0  0
  161.3060  206.7350  142.1530 C   0  0  0  0  0  2  0  0  0  0  0  0
  162.0450  207.0340  140.8570 C   0  0  0  0  0  2  0  0  0  0  0  0
  162.4820  209.2400  138.2460 O   0  0  0  0  0  0  0  0  0  0  0  0
  161.4810  208.2630  140.1500 C   0  0  2  0  0  3  0  0  0  0  0  0
  161.3000  210.4550  141.0790 O   0  0  0  0  0  1  0  0  0  0  0  0
  161.7010  208.1210  138.6360 C   0  0  1  0  0  3  0  0  0  0  0  0
  163.5540  211.0280  139.2470 O   0  0  0  0  0  0  0  0  0  0  0  0
  162.8060  210.0200  139.3310 C   0  0  0  0  0  0  0  0  0  0  0  0
  162.2220  209.5270  140.5940 C   0  0  2  0  0  3  0  0  0  0  0  0
  159.3420  208.4670  138.7870 O   0  0  0  0  0  1  0  0  0  0  0  0
  160.3710  208.1430  137.9010 C   0  0  0  0  0  2  0  0  0  0  0  0
  161.0720  201.4940  147.1360 N   0  0  0  0  0  2  0  0  0  0  0  0
  161.6200  202.7340  146.6790 C   0  0  0  0  0  0  0  0  0  0  0  0
  162.3570  202.7680  145.6580 O   0  0  0  0  0  0  0  0  0  0  0  0
  161.2250  200.2530  146.3930 C   0  0  0  0  0  2  0  0  0  0  0  0
  160.2900  200.2480  145.1960 C   0  0  0  0  0  2  0  0  0  0  0  0
  161.2170  198.2550  145.1450 C   0  0  0  0  0  1  0  0  0  0  0  0
  160.0560  198.9380  144.7870 O   0  0  0  0  0  0  0  0  0  0  0  0
  160.7080  206.5670  150.9910 C   0  0  2  0  0  3  0  0  0  0  0  0
  160.9350  207.6090  150.0820 O   0  0  0  0  0  1  0  0  0  0  0  0
  160.8470  207.0580  152.4330 C   0  0  0  0  0  2  0  0  0  0  0  0
  161.5390  208.4140  152.4900 C   0  0  1  0  0  3  0  0  0  0  0  0
  161.1850  209.2200  151.2600 C   0  0  0  0  0  2  0  0  0  0  0  0
  160.5120  209.5300  152.5940 C   0  0  2  0  0  3  0  0  0  0  0  0
  161.1410  210.6160  153.3550 N   0  0  0  0  0  0  0  0  0  0  0  0
  160.2380  211.6720  153.5550 N   0  0  0  0  0  2  0  0  0  0  0  0
  158.3800  213.7110  150.8270 C   0  0  0  0  0  0  0  0  0  0  0  0
  159.7140  212.3770  152.4300 C   0  0  0  0  0  0  0  0  0  0  0  0
  158.1660  213.0300  152.3500 S   0  0  0  0  0  0  0  0  0  0  0  0
  160.4290  212.6810  151.2810 C   0  0  0  0  0  3  0  0  0  0  0  0
  159.6720  213.4370  150.3670 C   0  0  0  0  0  0  0  0  0  0  0  0
  159.4650  214.0470  148.0840 O   0  0  0  0  0  0  0  0  0  0  0  0
  160.2200  213.9020  149.0810 C   0  0  0  0  0  0  0  0  0  0  0  0
  161.5720  214.1690  148.9490 O   0  0  0  0  0  1  0  0  0  0  0  0
  156.2130  213.8010  149.5670 C   0  0  0  0  0  1  0  0  0  0  0  0
  157.3830  214.4530  150.1180 N   0  0  0  0  0  2  0  0  0  0  0  0
  161.4740  210.0920  154.6680 C   0  0  0  0  0  2  0  0  0  0  0  0
  156.5390  210.1240  155.2160 F   0  0  0  0  0  0  0  0  0  0  0  0
  160.2510  212.9650  156.6490 C   0  0  0  0  0  2  0  0  0  0  0  0
  156.9560  211.4370  155.3500 C   0  0  1  0  0  3  0  0  0  0  0  0
  156.0070  212.1760  156.2910 C   0  0  0  0  0  2  0  0  0  0  0  0
  160.9910  211.7140  156.4560 N   0  0  0  0  0  0  0  0  0  0  0  0
  158.3810  211.4800  155.9040 C   0  0  2  0  0  3  0  0  0  0  0  0
  158.8310  212.9270  156.0850 C   0  0  1  0  0  3  0  0  0  0  0  0
  157.8860  213.6670  157.0220 C   0  0  0  0  0  2  0  0  0  0  0  0
  160.4490  210.5670  155.6890 C   0  0  1  0  0  3  0  0  0  0  0  0
  159.2610  210.8850  154.9960 O   0  0  0  0  0  0  0  0  0  0  0  0
  156.4630  213.6250  156.4700 C   0  0  0  0  0  2  0  0  0  0  0  0
  163.3070  211.0640  156.7980 C   0  0  0  0  0  2  0  0  0  0  0  0
  162.1730  211.5840  157.2600 C   0  0  0  0  0  3  0  0  0  0  0  0
  1 35  1  0  0  0  0
  1  4  1  0  0  0  0
  2  1  2  0  0  0  0
  4  3  1  6  0  0  0
  5  4  1  0  0  0  0
  6  5  2  0  0  0  0
  7  5  1  0  0  0  0
  8  7  1  1  0  0  0
  9 13  1  0  0  0  0
 10 14  2  0  0  0  0
 11  8  1  1  0  0  0
 12  9  2  0  0  0  0
 12 14  1  0  0  0  0
 13 11  1  0  0  0  0
 13 15  2  0  0  0  0
 14 11  1  0  0  0  0
 16 12  1  0  0  0  0
 17 16  1  0  0  0  0
 18 17  1  0  0  0  0
 19 22  1  0  0  0  0
 19 24  1  0  0  0  0
 20 25  1  0  0  0  0
 20 18  1  1  0  0  0
 22 27  1  6  0  0  0
 22 20  1  0  0  0  0
 23 24  2  0  0  0  0
 24 25  1  0  0  0  0
 25 21  1  6  0  0  0
 27 26  1  0  0  0  0
 29 28  1  0  0  0  0
 29  8  1  0  0  0  0
 30 29  2  0  0  0  0
 31 28  1  0  0  0  0
 32 31  1  0  0  0  0
 34 33  1  0  0  0  0
 34 32  1  0  0  0  0
 35 36  1  6  0  0  0
 35 37  1  0  0  0  0
 38 37  1  6  0  0  0
 38 40  1  0  0  0  0
 39 38  1  0  0  0  0
 39 40  1  0  0  0  0
 40 41  1  1  0  0  0
 41 42  1  0  0  0  0
 41 53  1  0  0  0  0
 43 45  1  0  0  0  0
 44 42  1  0  0  0  0
 45 44  1  0  0  0  0
 46 44  2  0  0  0  0
 47 43  2  0  0  0  0
 47 46  1  0  0  0  0
 48 49  2  0  0  0  0
 49 47  1  0  0  0  0
 50 49  1  0  0  0  0
 51 52  1  0  0  0  0
 52 43  1  0  0  0  0
 56 54  1  1  0  0  0
 56 59  1  0  0  0  0
 56 57  1  0  0  0  0
 57 64  1  0  0  0  0
 58 55  1  0  0  0  0
 58 66  1  0  0  0  0
 59 63  1  6  0  0  0
 59 60  1  0  0  0  0
 60 55  1  1  0  0  0
 60 61  1  0  0  0  0
 62 53  1  6  0  0  0
 62 58  1  0  0  0  0
 63 62  1  0  0  0  0
 64 61  1  0  0  0  0
 65 66  2  0  0  0  0
M  END
>  <MODEL>
2

>  <REMARK>
 VINA RESULT:      -0.3      4.860     12.252
  Name = 
  25 active torsions:
  status: ('A' for Active; 'I' for Inactive)
    1  A    between atoms: C_2  and  N_20
    2  A    between atoms: C_2  and  C_27
    3  A    between atoms: C_3  and  N_56
    4  A    between atoms: C_4  and  C_23
    5  A    between atoms: C_4  and  C_44
    6  A    between atoms: C_5  and  N_61
    7  A    between atoms: C_6  and  C_34
    8  A    between atoms: C_6  and  C_53
    9  A    between atoms: C_9  and  C_16
   10  A    between atoms: C_11  and  C_53
   11  A    between atoms: C_12  and  C_16
   12  A    between atoms: C_12  and  C_32
   13  A    between atoms: C_14  and  C_44
   14  A    between atoms: C_18  and  C_23
   15  A    between atoms: C_27  and  O_45
   16  A    between atoms: C_29  and  C_62
   17  A    between atoms: C_32  and  C_54
   18  A    between atoms: N_33  and  C_42
   19  A    between atoms: C_34  and  C_54
   20  A    between atoms: C_36  and  C_40
   21  A    between atoms: C_37  and  N_47
   22  A    between atoms: C_37  and  C_52
   23  A    between atoms: C_41  and  C_53
   24  A    between atoms: N_47  and  C_60
   25  A    between atoms: N_47  and  N_61
                            x       y       z     vdW  Elec       q    Type
                         _______ _______ _______ _____ _____    ______ ____

>  <TORSDO>
F 25

$$$$
