=
 OpenBabel11072412243D

 27 28  0  0  1  0  0  0  0  0999 V2000
  160.8120  203.9500  152.6990 O   0  0  0  0  0  0  0  0  0  0  0  0
  161.4090  204.2650  150.4540 N   0  0  0  0  0  2  0  0  0  0  0  0
  160.4530  202.1460  150.7330 O   0  0  0  0  0  0  0  0  0  0  0  0
  161.2970  204.7040  151.8110 C   0  0  0  0  0  0  0  0  0  0  0  0
  160.9800  202.9900  149.9570 C   0  0  0  0  0  0  0  0  0  0  0  0
  161.1570  202.6580  148.5320 C   0  0  0  0  0  0  0  0  0  0  0  0
  161.3980  203.6310  147.6340 C   0  0  0  0  0  3  0  0  0  0  0  0
  160.9660  204.1720  145.2190 C   0  0  0  0  0  0  0  0  0  0  0  0
  160.1430  203.5030  144.4790 N   0  0  0  0  0  0  0  0  0  0  0  0
  160.1320  202.1680  144.8960 N   0  0  0  0  0  0  0  0  0  0  0  0
  160.9890  202.0210  145.8490 C   0  0  0  0  0  0  0  0  0  0  0  0
  161.6740  203.2980  146.1930 C   0  0  2  0  0  3  0  0  0  0  0  0
  160.8930  200.9630  146.8040 N   0  0  0  0  0  0  0  0  0  0  0  0
  160.9930  201.2490  148.0710 C   0  0  0  0  0  3  0  0  0  0  0  0
  161.1930  205.5420  145.0820 O   0  0  0  0  0  0  0  0  0  0  0  0
  160.3170  206.5060  145.6470 C   0  0  0  0  0  1  0  0  0  0  0  0
  161.8020  206.0690  152.1770 C   0  0  2  0  0  3  0  0  0  0  0  0
  161.9450  206.2510  153.5730 O   0  0  0  0  0  0  0  0  0  0  0  0
  160.8970  207.0610  154.0420 C   0  0  0  0  0  1  0  0  0  0  0  0
  161.0200  207.1330  151.5490 N   0  0  0  0  0  2  0  0  0  0  0  0
  161.9440  207.9810  150.8090 C   0  0  0  0  0  2  0  0  0  0  0  0
  161.7040  207.8500  149.3130 C   0  0  0  0  0  2  0  0  0  0  0  0
  162.0200  209.1560  148.6110 C   0  0  0  0  0  2  0  0  0  0  0  0
  162.0930  210.2720  149.6320 C   0  0  0  0  0  2  0  0  0  0  0  0
  161.1140  212.5450  149.3350 O   0  0  0  0  0  1  0  0  0  0  0  0
  162.8630  211.8520  148.0260 O   0  0  0  0  0  0  0  0  0  0  0  0
  162.0440  211.5900  148.9440 C   0  0  0  0  0  0  0  0  0  0  0  0
  2  4  1  0  0  0  0
  4 17  1  0  0  0  0
  4  1  2  0  0  0  0
  5  2  1  0  0  0  0
  5  3  2  0  0  0  0
  6  5  1  0  0  0  0
  7  6  2  0  0  0  0
  8 12  1  0  0  0  0
  9 10  1  0  0  0  0
  9  8  2  0  0  0  0
 10 11  2  0  0  0  0
 11 12  1  0  0  0  0
 11 13  1  0  0  0  0
 12  7  1  1  0  0  0
 13 14  2  0  0  0  0
 14  6  1  0  0  0  0
 15  8  1  0  0  0  0
 15 16  1  0  0  0  0
 17 20  1  1  0  0  0
 17 18  1  0  0  0  0
 18 19  1  0  0  0  0
 21 20  1  0  0  0  0
 22 21  1  0  0  0  0
 23 22  1  0  0  0  0
 23 24  1  0  0  0  0
 26 27  2  0  0  0  0
 27 25  1  0  0  0  0
 27 24  1  0  0  0  0
M  END
>  <MODEL>
1

>  <REMARK>
 VINA RESULT:      -7.1      0.000      0.000
  Name = 
  10 active torsions:
  status: ('A' for Active; 'I' for Inactive)
    1  A    between atoms: C_2  and  C_15
    2  A    between atoms: C_4  and  C_6
    3  A    between atoms: C_4  and  C_16
    4  A    between atoms: C_6  and  C_14
    5  A    between atoms: O_10  and  C_11
    6  A    between atoms: C_13  and  C_23
    7  A    between atoms: C_14  and  C_27
    8  A    between atoms: O_17  and  C_23
    9  A    between atoms: N_18  and  C_23
   10  A    between atoms: N_18  and  C_27
                            x       y       z     vdW  Elec       q    Type
                         _______ _______ _______ _____ _____    ______ ____

>  <TORSDO>
F 10

$$$$
=
 OpenBabel11072412243D

 27 28  0  0  1  0  0  0  0  0999 V2000
  161.9020  208.4530  148.5200 O   0  0  0  0  0  0  0  0  0  0  0  0
  161.1330  207.4490  150.4930 N   0  0  0  0  0  2  0  0  0  0  0  0
  161.8490  209.6330  150.9390 O   0  0  0  0  0  0  0  0  0  0  0  0
  161.3970  207.4460  149.0870 C   0  0  0  0  0  0  0  0  0  0  0  0
  161.3710  208.5510  151.3800 C   0  0  0  0  0  0  0  0  0  0  0  0
  161.0580  208.4240  152.8130 C   0  0  0  0  0  0  0  0  0  0  0  0
  160.9550  209.5230  153.5850 C   0  0  0  0  0  3  0  0  0  0  0  0
  161.3490  210.2530  155.9570 C   0  0  0  0  0  0  0  0  0  0  0  0
  161.9890  209.5360  156.8220 N   0  0  0  0  0  0  0  0  0  0  0  0
  161.7720  208.1810  156.5470 N   0  0  0  0  0  0  0  0  0  0  0  0
  160.9560  208.0830  155.5530 C   0  0  0  0  0  0  0  0  0  0  0  0
  160.5430  209.4150  155.0280 C   0  0  2  0  0  3  0  0  0  0  0  0
  160.9020  206.9220  154.7230 N   0  0  0  0  0  0  0  0  0  0  0  0
  160.9270  207.0730  153.4290 C   0  0  0  0  0  3  0  0  0  0  0  0
  161.3770  211.6480  155.9340 O   0  0  0  0  0  0  0  0  0  0  0  0
  160.1910  212.4220  156.0220 C   0  0  0  0  0  1  0  0  0  0  0  0
  161.1020  206.2050  148.2950 C   0  0  2  0  0  3  0  0  0  0  0  0
  160.3230  206.4570  147.1410 O   0  0  0  0  0  0  0  0  0  0  0  0
  161.0690  206.1220  145.9990 C   0  0  0  0  0  1  0  0  0  0  0  0
  160.5440  205.1400  149.1280 N   0  0  0  0  0  2  0  0  0  0  0  0
  161.1710  203.8900  148.7230 C   0  0  0  0  0  2  0  0  0  0  0  0
  160.8140  202.7760  149.6950 C   0  0  0  0  0  2  0  0  0  0  0  0
  160.2250  201.5940  148.9510 C   0  0  0  0  0  2  0  0  0  0  0  0
  161.3450  200.7210  148.4250 C   0  0  0  0  0  2  0  0  0  0  0  0
  160.6330  201.5190  146.1750 O   0  0  0  0  0  0  0  0  0  0  0  0
  161.5630  199.4400  146.4300 O   0  0  0  0  0  1  0  0  0  0  0  0
  161.1800  200.5140  146.9610 C   0  0  0  0  0  0  0  0  0  0  0  0
  1  4  2  0  0  0  0
  2  5  1  0  0  0  0
  3  5  2  0  0  0  0
  4  2  1  0  0  0  0
  5  6  1  0  0  0  0
  6 14  1  0  0  0  0
  6  7  2  0  0  0  0
  8  9  2  0  0  0  0
 10  9  1  0  0  0  0
 11 10  2  0  0  0  0
 12  7  1  6  0  0  0
 12 11  1  0  0  0  0
 12  8  1  0  0  0  0
 13 11  1  0  0  0  0
 14 13  2  0  0  0  0
 15  8  1  0  0  0  0
 15 16  1  0  0  0  0
 17 18  1  6  0  0  0
 17  4  1  0  0  0  0
 17 20  1  0  0  0  0
 19 18  1  0  0  0  0
 21 20  1  0  0  0  0
 21 22  1  0  0  0  0
 23 22  1  0  0  0  0
 24 23  1  0  0  0  0
 25 27  2  0  0  0  0
 26 27  1  0  0  0  0
 27 24  1  0  0  0  0
M  END
>  <MODEL>
2

>  <REMARK>
 VINA RESULT:      -7.1      3.130      9.144
  Name = 
  10 active torsions:
  status: ('A' for Active; 'I' for Inactive)
    1  A    between atoms: C_2  and  C_15
    2  A    between atoms: C_4  and  C_6
    3  A    between atoms: C_4  and  C_16
    4  A    between atoms: C_6  and  C_14
    5  A    between atoms: O_10  and  C_11
    6  A    between atoms: C_13  and  C_23
    7  A    between atoms: C_14  and  C_27
    8  A    between atoms: O_17  and  C_23
    9  A    between atoms: N_18  and  C_23
   10  A    between atoms: N_18  and  C_27
                            x       y       z     vdW  Elec       q    Type
                         _______ _______ _______ _____ _____    ______ ____

>  <TORSDO>
F 10

$$$$
=
 OpenBabel11072412243D

 27 28  0  0  1  0  0  0  0  0999 V2000
  161.0820  205.7940  152.0280 O   0  0  0  0  0  0  0  0  0  0  0  0
  161.2030  205.3650  149.7270 N   0  0  0  0  0  2  0  0  0  0  0  0
  161.0510  203.3470  150.9060 O   0  0  0  0  0  0  0  0  0  0  0  0
  161.1530  206.2470  150.8530 C   0  0  0  0  0  0  0  0  0  0  0  0
  161.1500  203.9320  149.7920 C   0  0  0  0  0  0  0  0  0  0  0  0
  161.2140  203.1360  148.5550 C   0  0  0  0  0  0  0  0  0  0  0  0
  161.3690  203.7440  147.3640 C   0  0  0  0  0  3  0  0  0  0  0  0
  160.7340  203.4450  144.9510 C   0  0  0  0  0  0  0  0  0  0  0  0
  159.8620  202.5780  144.5500 N   0  0  0  0  0  0  0  0  0  0  0  0
  159.9010  201.4630  145.3940 N   0  0  0  0  0  0  0  0  0  0  0  0
  160.8350  201.6330  146.2670 C   0  0  0  0  0  0  0  0  0  0  0  0
  161.5300  202.9400  146.1020 C   0  0  2  0  0  3  0  0  0  0  0  0
  160.8310  200.9620  147.5280 N   0  0  0  0  0  0  0  0  0  0  0  0
  161.0310  201.6570  148.6120 C   0  0  0  0  0  3  0  0  0  0  0  0
  160.9310  204.6840  144.3410 O   0  0  0  0  0  0  0  0  0  0  0  0
  160.4900  205.8920  144.9410 C   0  0  0  0  0  1  0  0  0  0  0  0
  161.2290  207.7270  150.6190 C   0  0  2  0  0  3  0  0  0  0  0  0
  161.1280  208.0790  149.2520 O   0  0  0  0  0  0  0  0  0  0  0  0
  162.4190  208.2150  148.7150 C   0  0  0  0  0  1  0  0  0  0  0  0
  162.3930  208.3290  151.2690 N   0  0  0  0  0  2  0  0  0  0  0  0
  161.9410  209.5270  151.9630 C   0  0  0  0  0  2  0  0  0  0  0  0
  160.5970  209.2800  152.6310 C   0  0  0  0  0  2  0  0  0  0  0  0
  160.7520  209.2650  154.1390 C   0  0  0  0  0  2  0  0  0  0  0  0
  161.0840  207.8600  154.5970 C   0  0  0  0  0  2  0  0  0  0  0  0
  159.7690  207.2480  156.6240 O   0  0  0  0  0  0  0  0  0  0  0  0
  161.8790  208.1200  156.8260 O   0  0  0  0  0  1  0  0  0  0  0  0
  160.9360  207.7630  156.0750 C   0  0  0  0  0  0  0  0  0  0  0  0
  2  5  1  0  0  0  0
  2  4  1  0  0  0  0
  4  1  2  0  0  0  0
  5  3  2  0  0  0  0
  6 14  1  0  0  0  0
  6  5  1  0  0  0  0
  7  6  2  0  0  0  0
  8 12  1  0  0  0  0
  9  8  2  0  0  0  0
  9 10  1  0  0  0  0
 10 11  2  0  0  0  0
 11 13  1  0  0  0  0
 12 11  1  0  0  0  0
 12  7  1  1  0  0  0
 13 14  2  0  0  0  0
 15 16  1  0  0  0  0
 15  8  1  0  0  0  0
 17 18  1  6  0  0  0
 17  4  1  0  0  0  0
 17 20  1  0  0  0  0
 19 18  1  0  0  0  0
 20 21  1  0  0  0  0
 21 22  1  0  0  0  0
 22 23  1  0  0  0  0
 23 24  1  0  0  0  0
 24 27  1  0  0  0  0
 27 25  2  0  0  0  0
 27 26  1  0  0  0  0
M  END
>  <MODEL>
3

>  <REMARK>
 VINA RESULT:      -7.0      1.825      3.876
  Name = 
  10 active torsions:
  status: ('A' for Active; 'I' for Inactive)
    1  A    between atoms: C_2  and  C_15
    2  A    between atoms: C_4  and  C_6
    3  A    between atoms: C_4  and  C_16
    4  A    between atoms: C_6  and  C_14
    5  A    between atoms: O_10  and  C_11
    6  A    between atoms: C_13  and  C_23
    7  A    between atoms: C_14  and  C_27
    8  A    between atoms: O_17  and  C_23
    9  A    between atoms: N_18  and  C_23
   10  A    between atoms: N_18  and  C_27
                            x       y       z     vdW  Elec       q    Type
                         _______ _______ _______ _____ _____    ______ ____

>  <TORSDO>
F 10

$$$$
=
 OpenBabel11072412243D

 27 28  0  0  1  0  0  0  0  0999 V2000
  162.3960  208.0100  147.9190 O   0  0  0  0  0  0  0  0  0  0  0  0
  161.2970  207.1350  149.7950 N   0  0  0  0  0  2  0  0  0  0  0  0
  162.3680  209.1380  150.3630 O   0  0  0  0  0  0  0  0  0  0  0  0
  161.6690  207.1060  148.4130 C   0  0  0  0  0  0  0  0  0  0  0  0
  161.6630  208.1590  150.7310 C   0  0  0  0  0  0  0  0  0  0  0  0
  161.2160  208.0680  152.1320 C   0  0  0  0  0  0  0  0  0  0  0  0
  161.0280  209.1870  152.8570 C   0  0  0  0  0  3  0  0  0  0  0  0
  161.1860  209.9910  155.2330 C   0  0  0  0  0  0  0  0  0  0  0  0
  161.7500  209.3080  156.1760 N   0  0  0  0  0  0  0  0  0  0  0  0
  161.5750  207.9430  155.9220 N   0  0  0  0  0  0  0  0  0  0  0  0
  160.8580  207.8050  154.8590 C   0  0  0  0  0  0  0  0  0  0  0  0
  160.4830  209.1150  154.2580 C   0  0  2  0  0  3  0  0  0  0  0  0
  160.8980  206.6200  154.0630 N   0  0  0  0  0  0  0  0  0  0  0  0
  161.0440  206.7330  152.7730 C   0  0  0  0  0  3  0  0  0  0  0  0
  161.2010  211.3850  155.1700 O   0  0  0  0  0  0  0  0  0  0  0  0
  160.3100  212.1780  155.9400 C   0  0  0  0  0  1  0  0  0  0  0  0
  161.2130  205.9580  147.5620 C   0  0  2  0  0  3  0  0  0  0  0  0
  160.1800  206.3100  146.6620 O   0  0  0  0  0  0  0  0  0  0  0  0
  160.6060  206.0540  145.3480 C   0  0  0  0  0  1  0  0  0  0  0  0
  160.8820  204.7780  148.3610 N   0  0  0  0  0  2  0  0  0  0  0  0
  161.6980  203.6730  147.8740 C   0  0  0  0  0  2  0  0  0  0  0  0
  160.8760  202.3970  147.8000 C   0  0  0  0  0  2  0  0  0  0  0  0
  161.3290  201.4130  148.8610 C   0  0  0  0  0  2  0  0  0  0  0  0
  160.4180  201.5180  150.0670 C   0  0  0  0  0  2  0  0  0  0  0  0
  160.3920  203.6480  151.3600 O   0  0  0  0  0  0  0  0  0  0  0  0
  162.0660  202.1150  151.6790 O   0  0  0  0  0  1  0  0  0  0  0  0
  161.0140  202.4410  151.0700 C   0  0  0  0  0  0  0  0  0  0  0  0
  1  4  2  0  0  0  0
  2  5  1  0  0  0  0
  3  5  2  0  0  0  0
  4  2  1  0  0  0  0
  5  6  1  0  0  0  0
  6 14  1  0  0  0  0
  6  7  2  0  0  0  0
  8  9  2  0  0  0  0
 10  9  1  0  0  0  0
 11 10  2  0  0  0  0
 12  7  1  6  0  0  0
 12 11  1  0  0  0  0
 12  8  1  0  0  0  0
 13 11  1  0  0  0  0
 14 13  2  0  0  0  0
 15  8  1  0  0  0  0
 15 16  1  0  0  0  0
 17 18  1  1  0  0  0
 17 20  1  0  0  0  0
 17  4  1  0  0  0  0
 19 18  1  0  0  0  0
 21 20  1  0  0  0  0
 22 21  1  0  0  0  0
 22 23  1  0  0  0  0
 23 24  1  0  0  0  0
 24 27  1  0  0  0  0
 27 25  2  0  0  0  0
 27 26  1  0  0  0  0
M  END
>  <MODEL>
4

>  <REMARK>
 VINA RESULT:      -7.0      2.697      8.577
  Name = 
  10 active torsions:
  status: ('A' for Active; 'I' for Inactive)
    1  A    between atoms: C_2  and  C_15
    2  A    between atoms: C_4  and  C_6
    3  A    between atoms: C_4  and  C_16
    4  A    between atoms: C_6  and  C_14
    5  A    between atoms: O_10  and  C_11
    6  A    between atoms: C_13  and  C_23
    7  A    between atoms: C_14  and  C_27
    8  A    between atoms: O_17  and  C_23
    9  A    between atoms: N_18  and  C_23
   10  A    between atoms: N_18  and  C_27
                            x       y       z     vdW  Elec       q    Type
                         _______ _______ _______ _____ _____    ______ ____

>  <TORSDO>
F 10

$$$$
=
 OpenBabel11072412243D

 27 28  0  0  1  0  0  0  0  0999 V2000
  162.6560  208.4090  148.2500 O   0  0  0  0  0  0  0  0  0  0  0  0
  161.5820  206.3880  148.7560 N   0  0  0  0  0  2  0  0  0  0  0  0
  162.5070  206.2820  146.6080 O   0  0  0  0  0  0  0  0  0  0  0  0
  162.0100  207.7150  149.0810 C   0  0  0  0  0  0  0  0  0  0  0  0
  161.8470  205.7110  147.5190 C   0  0  0  0  0  0  0  0  0  0  0  0
  161.3450  204.3430  147.3070 C   0  0  0  0  0  0  0  0  0  0  0  0
  160.9920  203.5790  148.3580 C   0  0  0  0  0  3  0  0  0  0  0  0
  160.9390  201.1650  149.0520 C   0  0  0  0  0  0  0  0  0  0  0  0
  161.5300  200.2240  148.3900 N   0  0  0  0  0  0  0  0  0  0  0  0
  161.5280  200.5480  147.0290 N   0  0  0  0  0  0  0  0  0  0  0  0
  160.8850  201.6540  146.8650 C   0  0  0  0  0  0  0  0  0  0  0  0
  160.3900  202.2150  148.1530 C   0  0  2  0  0  3  0  0  0  0  0  0
  161.1010  202.5000  145.7340 N   0  0  0  0  0  0  0  0  0  0  0  0
  161.2970  203.7730  145.9300 C   0  0  0  0  0  3  0  0  0  0  0  0
  160.7940  201.1630  150.4400 O   0  0  0  0  0  0  0  0  0  0  0  0
  161.2160  202.2590  151.2380 C   0  0  0  0  0  1  0  0  0  0  0  0
  161.6440  208.2880  150.4190 C   0  0  2  0  0  3  0  0  0  0  0  0
  161.9000  209.6760  150.5150 O   0  0  0  0  0  0  0  0  0  0  0  0
  162.5530  209.9420  151.7300 C   0  0  0  0  0  1  0  0  0  0  0  0
  162.2340  207.5310  151.5230 N   0  0  0  0  0  2  0  0  0  0  0  0
  161.1670  206.7630  152.1500 C   0  0  0  0  0  2  0  0  0  0  0  0
  161.5510  206.3800  153.5710 C   0  0  0  0  0  2  0  0  0  0  0  0
  160.5500  206.9460  154.5590 C   0  0  0  0  0  2  0  0  0  0  0  0
  161.2690  207.8380  155.5490 C   0  0  0  0  0  2  0  0  0  0  0  0
  160.1940  209.6830  154.2640 O   0  0  0  0  0  0  0  0  0  0  0  0
  162.1310  210.0540  155.4310 O   0  0  0  0  0  1  0  0  0  0  0  0
  161.2340  209.2480  155.0740 C   0  0  0  0  0  0  0  0  0  0  0  0
  1  4  2  0  0  0  0
  2  4  1  0  0  0  0
  3  5  2  0  0  0  0
  5  2  1  0  0  0  0
  6  5  1  0  0  0  0
  6  7  2  0  0  0  0
  8 15  1  0  0  0  0
  9  8  2  0  0  0  0
 10  9  1  0  0  0  0
 11 10  2  0  0  0  0
 11 12  1  0  0  0  0
 12  7  1  1  0  0  0
 12  8  1  0  0  0  0
 13 14  2  0  0  0  0
 13 11  1  0  0  0  0
 14  6  1  0  0  0  0
 15 16  1  0  0  0  0
 17  4  1  6  0  0  0
 17 18  1  0  0  0  0
 17 20  1  0  0  0  0
 18 19  1  0  0  0  0
 20 21  1  0  0  0  0
 21 22  1  0  0  0  0
 22 23  1  0  0  0  0
 23 24  1  0  0  0  0
 25 27  2  0  0  0  0
 27 26  1  0  0  0  0
 27 24  1  0  0  0  0
M  END
>  <MODEL>
5

>  <REMARK>
 VINA RESULT:      -6.9      2.005      4.704
  Name = 
  10 active torsions:
  status: ('A' for Active; 'I' for Inactive)
    1  A    between atoms: C_2  and  C_15
    2  A    between atoms: C_4  and  C_6
    3  A    between atoms: C_4  and  C_16
    4  A    between atoms: C_6  and  C_14
    5  A    between atoms: O_10  and  C_11
    6  A    between atoms: C_13  and  C_23
    7  A    between atoms: C_14  and  C_27
    8  A    between atoms: O_17  and  C_23
    9  A    between atoms: N_18  and  C_23
   10  A    between atoms: N_18  and  C_27
                            x       y       z     vdW  Elec       q    Type
                         _______ _______ _______ _____ _____    ______ ____

>  <TORSDO>
F 10

$$$$
=
 OpenBabel11072412243D

 27 28  0  0  1  0  0  0  0  0999 V2000
  160.9640  203.4210  151.8830 O   0  0  0  0  0  0  0  0  0  0  0  0
  161.0220  205.6650  151.2090 N   0  0  0  0  0  2  0  0  0  0  0  0
  161.4090  205.5160  153.5130 O   0  0  0  0  0  0  0  0  0  0  0  0
  160.8850  204.2640  150.9490 C   0  0  0  0  0  0  0  0  0  0  0  0
  161.2800  206.2480  152.4940 C   0  0  0  0  0  0  0  0  0  0  0  0
  161.3960  207.7100  152.6290 C   0  0  0  0  0  0  0  0  0  0  0  0
  160.8830  208.3360  153.7050 C   0  0  0  0  0  3  0  0  0  0  0  0
  159.8520  210.5350  154.3450 C   0  0  0  0  0  0  0  0  0  0  0  0
  159.4720  211.4180  153.4790 N   0  0  0  0  0  0  0  0  0  0  0  0
  160.3060  211.3510  152.3580 N   0  0  0  0  0  0  0  0  0  0  0  0
  161.2210  210.4680  152.5710 C   0  0  0  0  0  0  0  0  0  0  0  0
  161.0750  209.8140  153.9020 C   0  0  2  0  0  3  0  0  0  0  0  0
  161.9090  209.8090  151.5060 N   0  0  0  0  0  0  0  0  0  0  0  0
  162.0160  208.5110  151.5340 C   0  0  0  0  0  3  0  0  0  0  0  0
  159.2120  210.3230  155.5670 O   0  0  0  0  0  0  0  0  0  0  0  0
  159.9280  210.2990  156.7920 C   0  0  0  0  0  1  0  0  0  0  0  0
  160.6050  203.8100  149.5460 C   0  0  2  0  0  3  0  0  0  0  0  0
  161.1230  202.5240  149.2660 O   0  0  0  0  0  0  0  0  0  0  0  0
  160.0610  201.6080  149.1790 C   0  0  0  0  0  1  0  0  0  0  0  0
  161.0080  204.8060  148.5540 N   0  0  0  0  0  2  0  0  0  0  0  0
  161.9560  204.1690  147.6500 C   0  0  0  0  0  2  0  0  0  0  0  0
  162.0450  204.9400  146.3420 C   0  0  0  0  0  2  0  0  0  0  0  0
  161.4120  204.1450  145.2170 C   0  0  0  0  0  2  0  0  0  0  0  0
  161.1530  202.7290  145.6850 C   0  0  0  0  0  2  0  0  0  0  0  0
  159.1700  202.9430  144.1900 O   0  0  0  0  0  0  0  0  0  0  0  0
  159.9400  200.8760  144.8110 O   0  0  0  0  0  1  0  0  0  0  0  0
  160.0530  202.1260  144.8840 C   0  0  0  0  0  0  0  0  0  0  0  0
  2  5  1  0  0  0  0
  4  2  1  0  0  0  0
  4  1  2  0  0  0  0
  5  6  1  0  0  0  0
  5  3  2  0  0  0  0
  6  7  2  0  0  0  0
  8 15  1  0  0  0  0
  9  8  2  0  0  0  0
 10 11  2  0  0  0  0
 10  9  1  0  0  0  0
 11 12  1  0  0  0  0
 12  7  1  6  0  0  0
 12  8  1  0  0  0  0
 13 14  2  0  0  0  0
 13 11  1  0  0  0  0
 14  6  1  0  0  0  0
 15 16  1  0  0  0  0
 17 20  1  6  0  0  0
 17  4  1  0  0  0  0
 18 17  1  0  0  0  0
 19 18  1  0  0  0  0
 21 20  1  0  0  0  0
 22 21  1  0  0  0  0
 23 24  1  0  0  0  0
 23 22  1  0  0  0  0
 25 27  2  0  0  0  0
 26 27  1  0  0  0  0
 27 24  1  0  0  0  0
M  END
>  <MODEL>
6

>  <REMARK>
 VINA RESULT:      -6.8      3.062      8.285
  Name = 
  10 active torsions:
  status: ('A' for Active; 'I' for Inactive)
    1  A    between atoms: C_2  and  C_15
    2  A    between atoms: C_4  and  C_6
    3  A    between atoms: C_4  and  C_16
    4  A    between atoms: C_6  and  C_14
    5  A    between atoms: O_10  and  C_11
    6  A    between atoms: C_13  and  C_23
    7  A    between atoms: C_14  and  C_27
    8  A    between atoms: O_17  and  C_23
    9  A    between atoms: N_18  and  C_23
   10  A    between atoms: N_18  and  C_27
                            x       y       z     vdW  Elec       q    Type
                         _______ _______ _______ _____ _____    ______ ____

>  <TORSDO>
F 10

$$$$
=
 OpenBabel11072412243D

 27 28  0  0  1  0  0  0  0  0999 V2000
  160.8350  203.8440  152.6710 O   0  0  0  0  0  0  0  0  0  0  0  0
  161.3050  204.2300  150.4070 N   0  0  0  0  0  2  0  0  0  0  0  0
  160.6130  202.0130  150.7100 O   0  0  0  0  0  0  0  0  0  0  0  0
  161.1940  204.6510  151.7700 C   0  0  0  0  0  0  0  0  0  0  0  0
  161.0090  202.9130  149.9190 C   0  0  0  0  0  0  0  0  0  0  0  0
  161.1680  202.6060  148.4870 C   0  0  0  0  0  0  0  0  0  0  0  0
  161.3850  203.5960  147.6010 C   0  0  0  0  0  3  0  0  0  0  0  0
  160.9110  204.1700  145.2010 C   0  0  0  0  0  0  0  0  0  0  0  0
  160.0860  203.5020  144.4630 N   0  0  0  0  0  0  0  0  0  0  0  0
  160.0960  202.1600  144.8590 N   0  0  0  0  0  0  0  0  0  0  0  0
  160.9690  202.0090  145.7970 C   0  0  0  0  0  0  0  0  0  0  0  0
  161.6430  203.2900  146.1510 C   0  0  2  0  0  3  0  0  0  0  0  0
  160.9000  200.9360  146.7360 N   0  0  0  0  0  0  0  0  0  0  0  0
  161.0150  201.2030  148.0060 C   0  0  0  0  0  3  0  0  0  0  0  0
  161.1190  205.5450  145.0830 O   0  0  0  0  0  0  0  0  0  0  0  0
  160.3810  206.4820  145.8520 C   0  0  0  0  0  1  0  0  0  0  0  0
  161.5510  206.0650  152.1250 C   0  0  2  0  0  3  0  0  0  0  0  0
  162.6160  206.5790  151.3480 O   0  0  0  0  0  0  0  0  0  0  0  0
  162.1770  207.7230  150.6620 C   0  0  0  0  0  1  0  0  0  0  0  0
  161.7700  206.2340  153.5610 N   0  0  0  0  0  2  0  0  0  0  0  0
  160.6760  207.0420  154.0820 C   0  0  0  0  0  2  0  0  0  0  0  0
  161.1510  207.8870  155.2540 C   0  0  0  0  0  2  0  0  0  0  0  0
  160.6750  209.3190  155.1000 C   0  0  0  0  0  2  0  0  0  0  0  0
  160.8310  209.7480  153.6560 C   0  0  0  0  0  2  0  0  0  0  0  0
  159.6880  211.5110  152.3160 O   0  0  0  0  0  0  0  0  0  0  0  0
  160.4730  211.9750  154.4190 O   0  0  0  0  0  1  0  0  0  0  0  0
  160.3340  211.1410  153.4880 C   0  0  0  0  0  0  0  0  0  0  0  0
  2  4  1  0  0  0  0
  4 17  1  0  0  0  0
  4  1  2  0  0  0  0
  5  2  1  0  0  0  0
  5  3  2  0  0  0  0
  6  5  1  0  0  0  0
  7  6  2  0  0  0  0
  8 12  1  0  0  0  0
  9 10  1  0  0  0  0
  9  8  2  0  0  0  0
 10 11  2  0  0  0  0
 11 12  1  0  0  0  0
 11 13  1  0  0  0  0
 12  7  1  1  0  0  0
 13 14  2  0  0  0  0
 14  6  1  0  0  0  0
 15  8  1  0  0  0  0
 15 16  1  0  0  0  0
 17 18  1  6  0  0  0
 17 20  1  0  0  0  0
 19 18  1  0  0  0  0
 20 21  1  0  0  0  0
 21 22  1  0  0  0  0
 23 22  1  0  0  0  0
 24 23  1  0  0  0  0
 25 27  2  0  0  0  0
 27 24  1  0  0  0  0
 27 26  1  0  0  0  0
M  END
>  <MODEL>
7

>  <REMARK>
 VINA RESULT:      -6.8      1.783      2.840
  Name = 
  10 active torsions:
  status: ('A' for Active; 'I' for Inactive)
    1  A    between atoms: C_2  and  C_15
    2  A    between atoms: C_4  and  C_6
    3  A    between atoms: C_4  and  C_16
    4  A    between atoms: C_6  and  C_14
    5  A    between atoms: O_10  and  C_11
    6  A    between atoms: C_13  and  C_23
    7  A    between atoms: C_14  and  C_27
    8  A    between atoms: O_17  and  C_23
    9  A    between atoms: N_18  and  C_23
   10  A    between atoms: N_18  and  C_27
                            x       y       z     vdW  Elec       q    Type
                         _______ _______ _______ _____ _____    ______ ____

>  <TORSDO>
F 10

$$$$
=
 OpenBabel11072412243D

 27 28  0  0  1  0  0  0  0  0999 V2000
  162.0820  207.1940  149.2680 O   0  0  0  0  0  0  0  0  0  0  0  0
  161.0620  207.7930  151.2910 N   0  0  0  0  0  2  0  0  0  0  0  0
  162.1750  209.6420  150.3840 O   0  0  0  0  0  0  0  0  0  0  0  0
  161.3700  206.8580  150.2530 C   0  0  0  0  0  0  0  0  0  0  0  0
  161.4790  209.1650  151.3220 C   0  0  0  0  0  0  0  0  0  0  0  0
  161.0960  210.0250  152.4550 C   0  0  0  0  0  0  0  0  0  0  0  0
  161.1380  209.5490  153.7140 C   0  0  0  0  0  3  0  0  0  0  0  0
  159.9640  209.8250  155.9170 C   0  0  0  0  0  0  0  0  0  0  0  0
  158.8490  210.4690  156.0510 N   0  0  0  0  0  0  0  0  0  0  0  0
  158.8020  211.5050  155.1120 N   0  0  0  0  0  0  0  0  0  0  0  0
  159.9100  211.5220  154.4530 C   0  0  0  0  0  0  0  0  0  0  0  0
  160.8410  210.4420  154.8870 C   0  0  2  0  0  3  0  0  0  0  0  0
  160.0120  212.0930  153.1470 N   0  0  0  0  0  0  0  0  0  0  0  0
  160.5900  211.4050  152.2030 C   0  0  0  0  0  3  0  0  0  0  0  0
  160.3130  208.7140  156.6860 O   0  0  0  0  0  0  0  0  0  0  0  0
  159.8440  207.4110  156.3740 C   0  0  0  0  0  1  0  0  0  0  0  0
  160.8660  205.4490  150.3710 C   0  0  2  0  0  3  0  0  0  0  0  0
  161.7030  204.6250  151.1590 O   0  0  0  0  0  0  0  0  0  0  0  0
  161.1160  204.4450  152.4220 C   0  0  0  0  0  1  0  0  0  0  0  0
  160.5650  204.8610  149.0660 N   0  0  0  0  0  2  0  0  0  0  0  0
  161.0840  203.5000  149.0660 C   0  0  0  0  0  2  0  0  0  0  0  0
  161.5090  203.0920  147.6640 C   0  0  0  0  0  2  0  0  0  0  0  0
  161.9620  204.3060  146.8750 C   0  0  0  0  0  2  0  0  0  0  0  0
  161.6840  204.0820  145.4030 C   0  0  0  0  0  2  0  0  0  0  0  0
  161.4100  205.6770  143.5080 O   0  0  0  0  0  0  0  0  0  0  0  0
  160.2790  206.0030  145.4750 O   0  0  0  0  0  1  0  0  0  0  0  0
  161.0920  205.3110  144.8090 C   0  0  0  0  0  0  0  0  0  0  0  0
  1  4  2  0  0  0  0
  2  5  1  0  0  0  0
  3  5  2  0  0  0  0
  4 17  1  0  0  0  0
  4  2  1  0  0  0  0
  5  6  1  0  0  0  0
  6  7  2  0  0  0  0
  8  9  2  0  0  0  0
  8 15  1  0  0  0  0
 10  9  1  0  0  0  0
 11 12  1  0  0  0  0
 11 10  2  0  0  0  0
 12  7  1  6  0  0  0
 12  8  1  0  0  0  0
 13 11  1  0  0  0  0
 14  6  1  0  0  0  0
 14 13  2  0  0  0  0
 16 15  1  0  0  0  0
 17 20  1  6  0  0  0
 17 18  1  0  0  0  0
 18 19  1  0  0  0  0
 21 20  1  0  0  0  0
 22 21  1  0  0  0  0
 23 22  1  0  0  0  0
 24 23  1  0  0  0  0
 25 27  2  0  0  0  0
 27 24  1  0  0  0  0
 27 26  1  0  0  0  0
M  END
>  <MODEL>
8

>  <REMARK>
 VINA RESULT:      -6.6      3.031      8.612
  Name = 
  10 active torsions:
  status: ('A' for Active; 'I' for Inactive)
    1  A    between atoms: C_2  and  C_15
    2  A    between atoms: C_4  and  C_6
    3  A    between atoms: C_4  and  C_16
    4  A    between atoms: C_6  and  C_14
    5  A    between atoms: O_10  and  C_11
    6  A    between atoms: C_13  and  C_23
    7  A    between atoms: C_14  and  C_27
    8  A    between atoms: O_17  and  C_23
    9  A    between atoms: N_18  and  C_23
   10  A    between atoms: N_18  and  C_27
                            x       y       z     vdW  Elec       q    Type
                         _______ _______ _______ _____ _____    ______ ____

>  <TORSDO>
F 10

$$$$
=
 OpenBabel11072412243D

 27 28  0  0  1  0  0  0  0  0999 V2000
  162.4380  207.3640  150.0090 O   0  0  0  0  0  0  0  0  0  0  0  0
  160.9070  207.6330  151.7630 N   0  0  0  0  0  2  0  0  0  0  0  0
  162.0770  209.6310  151.4150 O   0  0  0  0  0  0  0  0  0  0  0  0
  161.5300  206.8660  150.7280 C   0  0  0  0  0  0  0  0  0  0  0  0
  161.2050  209.0020  152.0750 C   0  0  0  0  0  0  0  0  0  0  0  0
  160.4930  209.6790  153.1720 C   0  0  0  0  0  0  0  0  0  0  0  0
  159.6810  210.7210  152.9130 C   0  0  0  0  0  3  0  0  0  0  0  0
  158.8790  212.8490  153.9810 C   0  0  0  0  0  0  0  0  0  0  0  0
  159.4110  213.3510  155.0470 N   0  0  0  0  0  0  0  0  0  0  0  0
  159.8860  212.3130  155.8560 N   0  0  0  0  0  0  0  0  0  0  0  0
  159.5890  211.1850  155.3050 C   0  0  0  0  0  0  0  0  0  0  0  0
  158.8750  211.3620  154.0090 C   0  0  2  0  0  3  0  0  0  0  0  0
  160.3160  209.9870  155.5810 N   0  0  0  0  0  0  0  0  0  0  0  0
  160.7280  209.2570  154.5830 C   0  0  0  0  0  3  0  0  0  0  0  0
  158.3330  213.6180  152.9520 O   0  0  0  0  0  0  0  0  0  0  0  0
  156.9410  213.8850  152.8740 C   0  0  0  0  0  1  0  0  0  0  0  0
  161.1130  205.4370  150.5330 C   0  0  2  0  0  3  0  0  0  0  0  0
  161.8340  204.5330  151.3490 O   0  0  0  0  0  0  0  0  0  0  0  0
  161.2030  204.4370  152.6000 C   0  0  0  0  0  1  0  0  0  0  0  0
  161.1210  205.0490  149.1230 N   0  0  0  0  0  2  0  0  0  0  0  0
  160.8310  203.6230  149.0570 C   0  0  0  0  0  2  0  0  0  0  0  0
  161.3690  203.0310  147.7640 C   0  0  0  0  0  2  0  0  0  0  0  0
  161.7570  204.1330  146.7980 C   0  0  0  0  0  2  0  0  0  0  0  0
  161.0250  203.9350  145.4870 C   0  0  0  0  0  2  0  0  0  0  0  0
  161.5310  205.4710  143.5910 O   0  0  0  0  0  0  0  0  0  0  0  0
  160.1240  206.1280  145.2760 O   0  0  0  0  0  1  0  0  0  0  0  0
  160.8730  205.2410  144.7920 C   0  0  0  0  0  0  0  0  0  0  0  0
  1  4  2  0  0  0  0
  2  5  1  0  0  0  0
  3  5  2  0  0  0  0
  4  2  1  0  0  0  0
  5  6  1  0  0  0  0
  6 14  1  0  0  0  0
  7  6  2  0  0  0  0
  8 12  1  0  0  0  0
  8  9  2  0  0  0  0
  9 10  1  0  0  0  0
 11 13  1  0  0  0  0
 11 10  2  0  0  0  0
 12  7  1  6  0  0  0
 12 11  1  0  0  0  0
 14 13  2  0  0  0  0
 15  8  1  0  0  0  0
 16 15  1  0  0  0  0
 17 20  1  6  0  0  0
 17  4  1  0  0  0  0
 17 18  1  0  0  0  0
 18 19  1  0  0  0  0
 21 20  1  0  0  0  0
 22 21  1  0  0  0  0
 23 22  1  0  0  0  0
 24 23  1  0  0  0  0
 25 27  2  0  0  0  0
 27 26  1  0  0  0  0
 27 24  1  0  0  0  0
M  END
>  <MODEL>
9

>  <REMARK>
 VINA RESULT:      -6.3      3.606      8.749
  Name = 
  10 active torsions:
  status: ('A' for Active; 'I' for Inactive)
    1  A    between atoms: C_2  and  C_15
    2  A    between atoms: C_4  and  C_6
    3  A    between atoms: C_4  and  C_16
    4  A    between atoms: C_6  and  C_14
    5  A    between atoms: O_10  and  C_11
    6  A    between atoms: C_13  and  C_23
    7  A    between atoms: C_14  and  C_27
    8  A    between atoms: O_17  and  C_23
    9  A    between atoms: N_18  and  C_23
   10  A    between atoms: N_18  and  C_27
                            x       y       z     vdW  Elec       q    Type
                         _______ _______ _______ _____ _____    ______ ____

>  <TORSDO>
F 10

$$$$
