=
 OpenBabel11072411293D

 35 36  0  0  1  0  0  0  0  0999 V2000
  161.4190  206.2490  154.4600 N   0  0  0  0  0  0  0  0  0  0  0  0
  161.3600  207.6690  154.6090 C   0  0  0  0  0  0  0  0  0  0  0  0
  161.1780  208.5110  153.4180 C   0  0  0  0  0  0  0  0  0  0  0  0
  160.9210  207.9310  152.2460 C   0  0  0  0  0  3  0  0  0  0  0  0
  160.7120  206.4410  152.1040 C   0  0  2  0  0  3  0  0  0  0  0  0
  161.1660  205.6690  153.3250 C   0  0  0  0  0  3  0  0  0  0  0  0
  161.5130  208.1880  155.7470 O   0  0  0  0  0  0  0  0  0  0  0  0
  161.2250  203.9650  149.1500 C   0  0  0  0  0  2  0  0  0  0  0  0
  161.0960  206.3640  148.2760 C   0  0  1  0  0  3  0  0  0  0  0  0
  161.7490  204.9810  148.1180 C   0  0  2  0  0  3  0  0  0  0  0  0
  162.6610  207.6820  149.6860 C   0  0  0  0  0  1  0  0  0  0  0  0
  159.7230  206.3000  148.0170 O   0  0  0  0  0  1  0  0  0  0  0  0
  160.5750  204.6140  150.3740 C   0  0  0  0  0  2  0  0  0  0  0  0
  161.3250  205.8790  150.8100 C   0  0  1  0  0  3  0  0  0  0  0  0
  161.3380  206.9370  149.6790 C   0  0  2  0  0  3  0  0  0  0  0  0
  161.6220  204.4410  146.6890 C   0  0  1  0  0  3  0  0  0  0  0  0
  162.6640  205.8760  145.0850 O   0  0  0  0  0  1  0  0  0  0  0  0
  162.8810  204.7590  145.8930 C   0  0  0  0  0  2  0  0  0  0  0  0
  161.4290  203.0560  146.7070 O   0  0  0  0  0  0  0  0  0  0  0  0
  160.8270  202.7600  145.4830 C   0  0  0  0  0  2  0  0  0  0  0  0
  160.4210  201.4270  145.4740 O   0  0  0  0  0  1  0  0  0  0  0  0
  161.2910  209.9960  153.5000 C   0  0  0  0  0  2  0  0  0  0  0  0
  160.0170  210.5680  153.5240 O   0  0  0  0  0  0  0  0  0  0  0  0
  160.1820  211.7950  154.1740 C   0  0  2  0  0  3  0  0  0  0  0  0
  160.8750  211.5980  155.5110 C   0  0  0  0  0  1  0  0  0  0  0  0
  158.8550  212.5650  154.3180 C   0  0  2  0  0  3  0  0  0  0  0  0
  157.6870  213.6490  156.3140 C   0  0  0  0  0  1  0  0  0  0  0  0
  158.0700  212.3480  155.6260 C   0  0  1  0  0  3  0  0  0  0  0  0
  155.6860  212.2200  155.5410 O   0  0  0  0  0  1  0  0  0  0  0  0
  156.8510  211.4570  155.4590 C   0  0  0  0  0  2  0  0  0  0  0  0
  158.0320  212.3080  153.2160 O   0  0  0  0  0  0  0  0  0  0  0  0
  157.9810  213.5120  152.5110 C   0  0  0  0  0  2  0  0  0  0  0  0
  158.4850  213.3020  151.1290 C   0  0  0  0  0  0  0  0  0  0  0  0
  159.8850  213.2390  150.8840 N   0  0  0  0  0  1  0  0  0  0  0  0
  157.6730  213.1530  150.1810 O   0  0  0  0  0  0  0  0  0  0  0  0
  1  2  1  0  0  0  0
  2  7  2  0  0  0  0
  3 22  1  0  0  0  0
  3  2  1  0  0  0  0
  4  3  2  0  0  0  0
  5  4  1  1  0  0  0
  5  6  1  0  0  0  0
  6  1  2  0  0  0  0
  8 13  1  0  0  0  0
  9 12  1  1  0  0  0
  9 15  1  0  0  0  0
 10 16  1  6  0  0  0
 10  9  1  0  0  0  0
 10  8  1  0  0  0  0
 14 13  1  6  0  0  0
 14  5  1  0  0  0  0
 15 11  1  6  0  0  0
 15 14  1  0  0  0  0
 16 18  1  6  0  0  0
 16 19  1  0  0  0  0
 17 18  1  0  0  0  0
 20 19  1  0  0  0  0
 21 20  1  0  0  0  0
 22 23  1  0  0  0  0
 23 24  1  0  0  0  0
 24 26  1  0  0  0  0
 24 25  1  1  0  0  0
 26 31  1  6  0  0  0
 26 28  1  0  0  0  0
 28 27  1  6  0  0  0
 30 29  1  0  0  0  0
 30 28  1  0  0  0  0
 32 31  1  0  0  0  0
 33 32  1  0  0  0  0
 34 33  1  0  0  0  0
 35 33  2  0  0  0  0
M  END
>  <MODEL>
1

>  <REMARK>
 VINA RESULT:      -6.5      0.000      0.000
  Name = 
  14 active torsions:
  status: ('A' for Active; 'I' for Inactive)
    1  A    between atoms: C_5  and  O_33
    2  A    between atoms: C_7  and  C_32
    3  A    between atoms: C_8  and  C_24
    4  A    between atoms: C_9  and  O_14
    5  A    between atoms: C_9  and  C_24
    6  A    between atoms: C_9  and  C_25
    7  A    between atoms: C_10  and  C_32
    8  A    between atoms: O_14  and  C_29
    9  A    between atoms: C_15  and  C_35
   10  A    between atoms: C_18  and  C_29
   11  A    between atoms: C_19  and  C_30
   12  A    between atoms: O_23  and  C_25
   13  A    between atoms: O_23  and  C_35
   14  A    between atoms: C_32  and  O_33
                            x       y       z     vdW  Elec       q    Type
                         _______ _______ _______ _____ _____    ______ ____

>  <TORSDO>
F 14

$$$$
=
 OpenBabel11072411293D

 35 36  0  0  1  0  0  0  0  0999 V2000
  161.1240  206.4850  153.5810 N   0  0  0  0  0  0  0  0  0  0  0  0
  161.0810  206.1680  152.1870 C   0  0  0  0  0  0  0  0  0  0  0  0
  161.1290  207.2550  151.2000 C   0  0  0  0  0  0  0  0  0  0  0  0
  161.3630  208.5000  151.6140 C   0  0  0  0  0  3  0  0  0  0  0  0
  161.6800  208.8310  153.0550 C   0  0  2  0  0  3  0  0  0  0  0  0
  161.3570  207.6930  154.0010 C   0  0  0  0  0  3  0  0  0  0  0  0
  160.9530  204.9700  151.8210 O   0  0  0  0  0  0  0  0  0  0  0  0
  159.0840  211.7250  153.1440 C   0  0  0  0  0  2  0  0  0  0  0  0
  159.6030  210.9350  155.5190 C   0  0  1  0  0  3  0  0  0  0  0  0
  159.2830  212.1360  154.6140 C   0  0  2  0  0  3  0  0  0  0  0  0
  162.0810  210.8650  155.6810 C   0  0  0  0  0  1  0  0  0  0  0  0
  158.5260  210.0430  155.5620 O   0  0  0  0  0  1  0  0  0  0  0  0
  159.6980  210.3670  152.7980 C   0  0  0  0  0  2  0  0  0  0  0  0
  161.0400  210.1540  153.5110 C   0  0  1  0  0  3  0  0  0  0  0  0
  160.8680  210.2050  155.0490 C   0  0  2  0  0  3  0  0  0  0  0  0
  158.0920  212.9500  155.1320 C   0  0  1  0  0  3  0  0  0  0  0  0
  159.8400  214.2880  156.0650 O   0  0  0  0  0  1  0  0  0  0  0  0
  158.5470  214.3440  155.5440 C   0  0  0  0  0  2  0  0  0  0  0  0
  157.1100  213.0630  154.1420 O   0  0  0  0  0  0  0  0  0  0  0  0
  155.9310  212.6400  154.7550 C   0  0  0  0  0  2  0  0  0  0  0  0
  156.1960  212.2760  156.0750 O   0  0  0  0  0  1  0  0  0  0  0  0
  160.9060  206.9890  149.7500 C   0  0  0  0  0  2  0  0  0  0  0  0
  162.0780  206.4930  149.1720 O   0  0  0  0  0  0  0  0  0  0  0  0
  161.7130  206.1160  147.8760 C   0  0  2  0  0  3  0  0  0  0  0  0
  160.2830  206.5340  147.5850 C   0  0  0  0  0  1  0  0  0  0  0  0
  161.9420  204.6150  147.6160 C   0  0  2  0  0  3  0  0  0  0  0  0
  161.2730  203.2830  145.5420 C   0  0  0  0  0  1  0  0  0  0  0  0
  162.2990  204.2110  146.1720 C   0  0  1  0  0  3  0  0  0  0  0  0
  161.5410  205.5300  144.3300 O   0  0  0  0  0  1  0  0  0  0  0  0
  162.5700  205.3980  145.2630 C   0  0  0  0  0  2  0  0  0  0  0  0
  160.8390  203.8790  148.0620 O   0  0  0  0  0  0  0  0  0  0  0  0
  161.3290  203.0750  149.0930 C   0  0  0  0  0  2  0  0  0  0  0  0
  160.7950  201.6970  148.9470 C   0  0  0  0  0  0  0  0  0  0  0  0
  159.4370  201.4210  149.2710 N   0  0  0  0  0  1  0  0  0  0  0  0
  161.5360  200.7790  148.5110 O   0  0  0  0  0  0  0  0  0  0  0  0
  1  6  2  0  0  0  0
  2  1  1  0  0  0  0
  3  4  2  0  0  0  0
  3  2  1  0  0  0  0
  5  4  1  6  0  0  0
  5 14  1  0  0  0  0
  5  6  1  0  0  0  0
  7  2  2  0  0  0  0
  8 10  1  0  0  0  0
  9 12  1  6  0  0  0
 10 16  1  1  0  0  0
 10  9  1  0  0  0  0
 13  8  1  0  0  0  0
 14 13  1  6  0  0  0
 14 15  1  0  0  0  0
 15  9  1  0  0  0  0
 15 11  1  1  0  0  0
 16 18  1  6  0  0  0
 18 17  1  0  0  0  0
 19 20  1  0  0  0  0
 19 16  1  0  0  0  0
 20 21  1  0  0  0  0
 22  3  1  0  0  0  0
 23 22  1  0  0  0  0
 24 25  1  1  0  0  0
 24 23  1  0  0  0  0
 26 24  1  0  0  0  0
 26 31  1  6  0  0  0
 28 27  1  6  0  0  0
 28 26  1  0  0  0  0
 29 30  1  0  0  0  0
 30 28  1  0  0  0  0
 31 32  1  0  0  0  0
 33 32  1  0  0  0  0
 33 34  1  0  0  0  0
 35 33  2  0  0  0  0
M  END
>  <MODEL>
2

>  <REMARK>
 VINA RESULT:      -6.3      2.098     10.072
  Name = 
  14 active torsions:
  status: ('A' for Active; 'I' for Inactive)
    1  A    between atoms: C_5  and  O_33
    2  A    between atoms: C_7  and  C_32
    3  A    between atoms: C_8  and  C_24
    4  A    between atoms: C_9  and  O_14
    5  A    between atoms: C_9  and  C_24
    6  A    between atoms: C_9  and  C_25
    7  A    between atoms: C_10  and  C_32
    8  A    between atoms: O_14  and  C_29
    9  A    between atoms: C_15  and  C_35
   10  A    between atoms: C_18  and  C_29
   11  A    between atoms: C_19  and  C_30
   12  A    between atoms: O_23  and  C_25
   13  A    between atoms: O_23  and  C_35
   14  A    between atoms: C_32  and  O_33
                            x       y       z     vdW  Elec       q    Type
                         _______ _______ _______ _____ _____    ______ ____

>  <TORSDO>
F 14

$$$$
=
 OpenBabel11072411293D

 35 36  0  0  1  0  0  0  0  0999 V2000
  161.5980  206.2180  154.1780 N   0  0  0  0  0  0  0  0  0  0  0  0
  161.4050  207.6240  154.3520 C   0  0  0  0  0  0  0  0  0  0  0  0
  161.0680  208.4550  153.1870 C   0  0  0  0  0  0  0  0  0  0  0  0
  160.8000  207.8630  152.0230 C   0  0  0  0  0  3  0  0  0  0  0  0
  160.7330  206.3610  151.8710 C   0  0  2  0  0  3  0  0  0  0  0  0
  161.3360  205.6270  153.0500 C   0  0  0  0  0  3  0  0  0  0  0  0
  161.5740  208.1440  155.4870 O   0  0  0  0  0  0  0  0  0  0  0  0
  161.2290  204.0330  148.7950 C   0  0  0  0  0  2  0  0  0  0  0  0
  160.9900  206.4620  148.0320 C   0  0  1  0  0  3  0  0  0  0  0  0
  161.6830  205.1100  147.7930 C   0  0  2  0  0  3  0  0  0  0  0  0
  162.5560  207.7720  149.4470 C   0  0  0  0  0  1  0  0  0  0  0  0
  159.6110  206.3600  147.8160 O   0  0  0  0  0  1  0  0  0  0  0  0
  160.5990  204.6060  150.0670 C   0  0  0  0  0  2  0  0  0  0  0  0
  161.3210  205.8770  150.5340 C   0  0  1  0  0  3  0  0  0  0  0  0
  161.2590  206.9820  149.4500 C   0  0  2  0  0  3  0  0  0  0  0  0
  161.5260  204.6280  146.3460 C   0  0  1  0  0  3  0  0  0  0  0  0
  161.5520  205.7080  144.2140 O   0  0  0  0  0  1  0  0  0  0  0  0
  162.2730  205.5560  145.3980 C   0  0  0  0  0  2  0  0  0  0  0  0
  162.0280  203.3290  146.2080 O   0  0  0  0  0  0  0  0  0  0  0  0
  161.0100  202.6150  145.5760 C   0  0  0  0  0  2  0  0  0  0  0  0
  160.7720  201.4300  146.2720 O   0  0  0  0  0  1  0  0  0  0  0  0
  161.0350  209.9420  153.2850 C   0  0  0  0  0  2  0  0  0  0  0  0
  159.8630  210.4310  152.7040 O   0  0  0  0  0  0  0  0  0  0  0  0
  159.7720  211.7590  153.1310 C   0  0  2  0  0  3  0  0  0  0  0  0
  160.1130  211.8670  154.6060 C   0  0  0  0  0  1  0  0  0  0  0  0
  158.4020  212.3860  152.8060 C   0  0  2  0  0  3  0  0  0  0  0  0
  157.5600  214.4520  151.5630 C   0  0  0  0  0  1  0  0  0  0  0  0
  158.2820  213.1200  151.4550 C   0  0  1  0  0  3  0  0  0  0  0  0
  159.4000  213.7440  149.4380 O   0  0  0  0  0  1  0  0  0  0  0  0
  159.6120  213.2920  150.7420 C   0  0  0  0  0  2  0  0  0  0  0  0
  158.0040  213.2310  153.8470 O   0  0  0  0  0  0  0  0  0  0  0  0
  156.6550  212.9390  154.0580 C   0  0  0  0  0  2  0  0  0  0  0  0
  156.5280  211.9230  155.1340 C   0  0  0  0  0  0  0  0  0  0  0  0
  157.0440  212.1910  156.4330 N   0  0  0  0  0  1  0  0  0  0  0  0
  155.9400  210.8350  154.9040 O   0  0  0  0  0  0  0  0  0  0  0  0
  1  2  1  0  0  0  0
  2  7  2  0  0  0  0
  3 22  1  0  0  0  0
  3  2  1  0  0  0  0
  4  3  2  0  0  0  0
  5  4  1  1  0  0  0
  5  6  1  0  0  0  0
  6  1  2  0  0  0  0
  8 13  1  0  0  0  0
  9 12  1  1  0  0  0
  9 15  1  0  0  0  0
 10 16  1  6  0  0  0
 10  9  1  0  0  0  0
 10  8  1  0  0  0  0
 14 13  1  6  0  0  0
 14  5  1  0  0  0  0
 15 11  1  6  0  0  0
 15 14  1  0  0  0  0
 16 18  1  6  0  0  0
 17 18  1  0  0  0  0
 19 16  1  0  0  0  0
 20 19  1  0  0  0  0
 20 21  1  0  0  0  0
 23 24  1  0  0  0  0
 23 22  1  0  0  0  0
 24 25  1  1  0  0  0
 26 24  1  0  0  0  0
 26 31  1  1  0  0  0
 28 27  1  1  0  0  0
 28 26  1  0  0  0  0
 29 30  1  0  0  0  0
 30 28  1  0  0  0  0
 31 32  1  0  0  0  0
 32 33  1  0  0  0  0
 33 34  1  0  0  0  0
 35 33  2  0  0  0  0
M  END
>  <MODEL>
3

>  <REMARK>
 VINA RESULT:      -6.1      1.402      2.609
  Name = 
  14 active torsions:
  status: ('A' for Active; 'I' for Inactive)
    1  A    between atoms: C_5  and  O_33
    2  A    between atoms: C_7  and  C_32
    3  A    between atoms: C_8  and  C_24
    4  A    between atoms: C_9  and  O_14
    5  A    between atoms: C_9  and  C_24
    6  A    between atoms: C_9  and  C_25
    7  A    between atoms: C_10  and  C_32
    8  A    between atoms: O_14  and  C_29
    9  A    between atoms: C_15  and  C_35
   10  A    between atoms: C_18  and  C_29
   11  A    between atoms: C_19  and  C_30
   12  A    between atoms: O_23  and  C_25
   13  A    between atoms: O_23  and  C_35
   14  A    between atoms: C_32  and  O_33
                            x       y       z     vdW  Elec       q    Type
                         _______ _______ _______ _____ _____    ______ ____

>  <TORSDO>
F 14

$$$$
=
 OpenBabel11072411293D

 35 36  0  0  1  0  0  0  0  0999 V2000
  161.2850  211.6650  150.4920 N   0  0  0  0  0  0  0  0  0  0  0  0
  160.4290  212.3930  151.3760 C   0  0  0  0  0  0  0  0  0  0  0  0
  159.7800  211.6880  152.4910 C   0  0  0  0  0  0  0  0  0  0  0  0
  160.1190  210.4250  152.7470 C   0  0  0  0  0  3  0  0  0  0  0  0
  161.2190  209.7100  151.9960 C   0  0  2  0  0  3  0  0  0  0  0  0
  161.6290  210.4350  150.7310 C   0  0  0  0  0  3  0  0  0  0  0  0
  160.1990  213.6130  151.1640 O   0  0  0  0  0  0  0  0  0  0  0  0
  160.8200  206.4310  149.9440 C   0  0  0  0  0  2  0  0  0  0  0  0
  162.0540  205.9560  152.1330 C   0  0  1  0  0  3  0  0  0  0  0  0
  161.0400  205.4370  151.0990 C   0  0  2  0  0  3  0  0  0  0  0  0
  160.6970  207.0230  153.9190 C   0  0  0  0  0  1  0  0  0  0  0  0
  163.3230  206.0920  151.5610 O   0  0  0  0  0  1  0  0  0  0  0  0
  161.2390  207.8640  150.2810 C   0  0  0  0  0  2  0  0  0  0  0  0
  160.8870  208.2320  151.7280 C   0  0  1  0  0  3  0  0  0  0  0  0
  161.6030  207.2950  152.7310 C   0  0  2  0  0  3  0  0  0  0  0  0
  161.4100  204.0450  150.5750 C   0  0  1  0  0  3  0  0  0  0  0  0
  160.3770  202.9790  152.4500 O   0  0  0  0  0  1  0  0  0  0  0  0
  161.5720  203.0720  151.7360 C   0  0  0  0  0  2  0  0  0  0  0  0
  160.4150  203.5690  149.7140 O   0  0  0  0  0  0  0  0  0  0  0  0
  161.1010  202.8410  148.7410 C   0  0  0  0  0  2  0  0  0  0  0  0
  161.5590  203.7060  147.7480 O   0  0  0  0  0  1  0  0  0  0  0  0
  158.7420  212.3590  153.3260 C   0  0  0  0  0  2  0  0  0  0  0  0
  159.3560  213.1750  154.2800 O   0  0  0  0  0  0  0  0  0  0  0  0
  158.5140  213.1250  155.3960 C   0  0  2  0  0  3  0  0  0  0  0  0
  159.1760  213.7900  156.5890 C   0  0  0  0  0  1  0  0  0  0  0  0
  158.0500  211.6910  155.7160 C   0  0  2  0  0  3  0  0  0  0  0  0
  155.8940  212.7600  156.5720 C   0  0  0  0  0  1  0  0  0  0  0  0
  156.5520  211.5030  156.0250 C   0  0  1  0  0  3  0  0  0  0  0  0
  155.0140  209.8450  155.2540 O   0  0  0  0  0  1  0  0  0  0  0  0
  155.7570  210.9560  154.8510 C   0  0  0  0  0  2  0  0  0  0  0  0
  158.8240  211.1580  156.7530 O   0  0  0  0  0  0  0  0  0  0  0  0
  159.4460  210.0350  156.2040 C   0  0  0  0  0  2  0  0  0  0  0  0
  160.9190  210.1630  156.3450 C   0  0  0  0  0  0  0  0  0  0  0  0
  161.6730  209.1080  156.9310 N   0  0  0  0  0  1  0  0  0  0  0  0
  161.5030  211.1930  155.9210 O   0  0  0  0  0  0  0  0  0  0  0  0
  1  6  2  0  0  0  0
  1  2  1  0  0  0  0
  2  3  1  0  0  0  0
  3  4  2  0  0  0  0
  3 22  1  0  0  0  0
  5  6  1  6  0  0  0
  5  4  1  0  0  0  0
  7  2  2  0  0  0  0
  8 13  1  0  0  0  0
  8 10  1  0  0  0  0
  9 12  1  6  0  0  0
  9 15  1  0  0  0  0
 10 16  1  6  0  0  0
 10  9  1  0  0  0  0
 14 13  1  6  0  0  0
 14  5  1  0  0  0  0
 14 15  1  0  0  0  0
 15 11  1  1  0  0  0
 16 18  1  1  0  0  0
 18 17  1  0  0  0  0
 19 16  1  0  0  0  0
 20 19  1  0  0  0  0
 21 20  1  0  0  0  0
 22 23  1  0  0  0  0
 23 24  1  0  0  0  0
 24 26  1  0  0  0  0
 24 25  1  1  0  0  0
 26 28  1  0  0  0  0
 26 31  1  1  0  0  0
 28 27  1  6  0  0  0
 30 29  1  0  0  0  0
 30 28  1  0  0  0  0
 32 33  1  0  0  0  0
 32 31  1  0  0  0  0
 33 34  1  0  0  0  0
 35 33  2  0  0  0  0
M  END
>  <MODEL>
4

>  <REMARK>
 VINA RESULT:      -5.9      2.257      4.473
  Name = 
  14 active torsions:
  status: ('A' for Active; 'I' for Inactive)
    1  A    between atoms: C_5  and  O_33
    2  A    between atoms: C_7  and  C_32
    3  A    between atoms: C_8  and  C_24
    4  A    between atoms: C_9  and  O_14
    5  A    between atoms: C_9  and  C_24
    6  A    between atoms: C_9  and  C_25
    7  A    between atoms: C_10  and  C_32
    8  A    between atoms: O_14  and  C_29
    9  A    between atoms: C_15  and  C_35
   10  A    between atoms: C_18  and  C_29
   11  A    between atoms: C_19  and  C_30
   12  A    between atoms: O_23  and  C_25
   13  A    between atoms: O_23  and  C_35
   14  A    between atoms: C_32  and  O_33
                            x       y       z     vdW  Elec       q    Type
                         _______ _______ _______ _____ _____    ______ ____

>  <TORSDO>
F 14

$$$$
=
 OpenBabel11072411293D

 35 36  0  0  1  0  0  0  0  0999 V2000
  162.4530  209.2310  150.8520 N   0  0  0  0  0  0  0  0  0  0  0  0
  162.3950  207.8470  151.2070 C   0  0  0  0  0  0  0  0  0  0  0  0
  161.4700  207.4130  152.2630 C   0  0  0  0  0  0  0  0  0  0  0  0
  160.5970  208.2880  152.7630 C   0  0  0  0  0  3  0  0  0  0  0  0
  160.4510  209.6920  152.2200 C   0  0  2  0  0  3  0  0  0  0  0  0
  161.6060  210.0950  151.3270 C   0  0  0  0  0  3  0  0  0  0  0  0
  163.1690  207.0240  150.6500 O   0  0  0  0  0  0  0  0  0  0  0  0
  158.5430  212.4510  154.1860 C   0  0  0  0  0  2  0  0  0  0  0  0
  159.4120  210.6640  155.7960 C   0  0  1  0  0  3  0  0  0  0  0  0
  159.1370  212.1610  155.5770 C   0  0  2  0  0  3  0  0  0  0  0  0
  161.8040  210.3350  155.2110 C   0  0  0  0  0  1  0  0  0  0  0  0
  158.2200  209.9310  155.7790 O   0  0  0  0  0  1  0  0  0  0  0  0
  158.7940  211.3360  153.1680 C   0  0  0  0  0  2  0  0  0  0  0  0
  160.1940  210.7290  153.3270 C   0  0  1  0  0  3  0  0  0  0  0  0
  160.3780  210.1160  154.7370 C   0  0  2  0  0  3  0  0  0  0  0  0
  158.2690  212.7580  156.6900 C   0  0  1  0  0  3  0  0  0  0  0  0
  160.2850  214.0210  156.9320 O   0  0  0  0  0  1  0  0  0  0  0  0
  158.9290  214.0080  157.2590 C   0  0  0  0  0  2  0  0  0  0  0  0
  157.0040  213.0930  156.1950 O   0  0  0  0  0  0  0  0  0  0  0  0
  156.1080  212.6650  157.1760 C   0  0  0  0  0  2  0  0  0  0  0  0
  155.4640  211.5060  156.7430 O   0  0  0  0  0  1  0  0  0  0  0  0
  161.5030  206.0190  152.7910 C   0  0  0  0  0  2  0  0  0  0  0  0
  161.9410  205.1440  151.7940 O   0  0  0  0  0  0  0  0  0  0  0  0
  160.8250  204.3630  151.4790 C   0  0  2  0  0  3  0  0  0  0  0  0
  160.8350  203.0750  152.2810 C   0  0  0  0  0  1  0  0  0  0  0  0
  160.7020  204.1020  149.9650 C   0  0  2  0  0  3  0  0  0  0  0  0
  159.8980  201.6820  149.8350 C   0  0  0  0  0  1  0  0  0  0  0  0
  161.0000  202.6680  149.4860 C   0  0  1  0  0  3  0  0  0  0  0  0
  160.9090  201.3630  147.4870 O   0  0  0  0  0  1  0  0  0  0  0  0
  161.3400  202.5840  148.0080 C   0  0  0  0  0  2  0  0  0  0  0  0
  161.4870  205.0180  149.2570 O   0  0  0  0  0  0  0  0  0  0  0  0
  160.5900  205.9790  148.7840 C   0  0  0  0  0  2  0  0  0  0  0  0
  161.2620  206.8290  147.7680 C   0  0  0  0  0  0  0  0  0  0  0  0
  161.9200  206.2290  146.6590 N   0  0  0  0  0  1  0  0  0  0  0  0
  161.2250  208.0820  147.8750 O   0  0  0  0  0  0  0  0  0  0  0  0
  1  2  1  0  0  0  0
  1  6  2  0  0  0  0
  2  3  1  0  0  0  0
  3  4  2  0  0  0  0
  3 22  1  0  0  0  0
  5  6  1  1  0  0  0
  5  4  1  0  0  0  0
  5 14  1  0  0  0  0
  7  2  2  0  0  0  0
  8 10  1  0  0  0  0
  9 12  1  6  0  0  0
 10  9  1  0  0  0  0
 10 16  1  1  0  0  0
 13  8  1  0  0  0  0
 14 13  1  1  0  0  0
 14 15  1  0  0  0  0
 15 11  1  1  0  0  0
 15  9  1  0  0  0  0
 16 18  1  6  0  0  0
 17 18  1  0  0  0  0
 19 16  1  0  0  0  0
 19 20  1  0  0  0  0
 21 20  1  0  0  0  0
 23 22  1  0  0  0  0
 24 23  1  0  0  0  0
 24 25  1  1  0  0  0
 26 31  1  6  0  0  0
 26 24  1  0  0  0  0
 28 27  1  6  0  0  0
 28 26  1  0  0  0  0
 29 30  1  0  0  0  0
 30 28  1  0  0  0  0
 32 31  1  0  0  0  0
 33 35  2  0  0  0  0
 33 32  1  0  0  0  0
 34 33  1  0  0  0  0
M  END
>  <MODEL>
5

>  <REMARK>
 VINA RESULT:      -5.7      2.560      9.713
  Name = 
  14 active torsions:
  status: ('A' for Active; 'I' for Inactive)
    1  A    between atoms: C_5  and  O_33
    2  A    between atoms: C_7  and  C_32
    3  A    between atoms: C_8  and  C_24
    4  A    between atoms: C_9  and  O_14
    5  A    between atoms: C_9  and  C_24
    6  A    between atoms: C_9  and  C_25
    7  A    between atoms: C_10  and  C_32
    8  A    between atoms: O_14  and  C_29
    9  A    between atoms: C_15  and  C_35
   10  A    between atoms: C_18  and  C_29
   11  A    between atoms: C_19  and  C_30
   12  A    between atoms: O_23  and  C_25
   13  A    between atoms: O_23  and  C_35
   14  A    between atoms: C_32  and  O_33
                            x       y       z     vdW  Elec       q    Type
                         _______ _______ _______ _____ _____    ______ ____

>  <TORSDO>
F 14

$$$$
=
 OpenBabel11072411293D

 35 36  0  0  1  0  0  0  0  0999 V2000
  162.4370  209.5730  150.7080 N   0  0  0  0  0  0  0  0  0  0  0  0
  162.3290  208.1920  151.0630 C   0  0  0  0  0  0  0  0  0  0  0  0
  161.3810  207.7910  152.1130 C   0  0  0  0  0  0  0  0  0  0  0  0
  160.5350  208.6960  152.6060 C   0  0  0  0  0  3  0  0  0  0  0  0
  160.4420  210.1030  152.0600 C   0  0  2  0  0  3  0  0  0  0  0  0
  161.6160  210.4660  151.1760 C   0  0  0  0  0  3  0  0  0  0  0  0
  163.0780  207.3430  150.5130 O   0  0  0  0  0  0  0  0  0  0  0  0
  158.7210  213.0630  153.9040 C   0  0  0  0  0  2  0  0  0  0  0  0
  159.1810  211.1540  155.5410 C   0  0  1  0  0  3  0  0  0  0  0  0
  159.1280  212.6770  155.3380 C   0  0  2  0  0  3  0  0  0  0  0  0
  161.5560  210.5180  155.1870 C   0  0  0  0  0  1  0  0  0  0  0  0
  157.9120  210.5870  155.3880 O   0  0  0  0  0  1  0  0  0  0  0  0
  158.9260  211.9400  152.8850 C   0  0  0  0  0  2  0  0  0  0  0  0
  160.2110  211.1490  153.1650 C   0  0  1  0  0  3  0  0  0  0  0  0
  160.1690  210.4970  154.5680 C   0  0  2  0  0  3  0  0  0  0  0  0
  158.2370  213.3690  156.3760 C   0  0  1  0  0  3  0  0  0  0  0  0
  160.4150  214.2120  156.8880 O   0  0  0  0  0  1  0  0  0  0  0  0
  159.0700  214.3000  157.2480 C   0  0  0  0  0  2  0  0  0  0  0  0
  157.2340  214.1100  155.7420 O   0  0  0  0  0  0  0  0  0  0  0  0
  156.0370  213.5320  156.1650 C   0  0  0  0  0  2  0  0  0  0  0  0
  155.2290  213.2710  155.0590 O   0  0  0  0  0  1  0  0  0  0  0  0
  161.3630  206.3970  152.6420 C   0  0  0  0  0  2  0  0  0  0  0  0
  162.0770  205.5550  151.7860 O   0  0  0  0  0  0  0  0  0  0  0  0
  161.1060  204.7710  151.1540 C   0  0  2  0  0  3  0  0  0  0  0  0
  160.7260  203.5900  152.0280 C   0  0  0  0  0  1  0  0  0  0  0  0
  161.5370  204.3320  149.7420 C   0  0  2  0  0  3  0  0  0  0  0  0
  160.0910  206.3050  149.0070 C   0  0  0  0  0  1  0  0  0  0  0  0
  160.9950  205.1660  148.5640 C   0  0  1  0  0  3  0  0  0  0  0  0
  161.5850  206.7150  146.8440 O   0  0  0  0  0  1  0  0  0  0  0  0
  162.0840  205.6810  147.6380 C   0  0  0  0  0  2  0  0  0  0  0  0
  161.2360  202.9790  149.5490 O   0  0  0  0  0  0  0  0  0  0  0  0
  160.8330  202.8810  148.2160 C   0  0  0  0  0  2  0  0  0  0  0  0
  160.9410  201.4690  147.7660 C   0  0  0  0  0  0  0  0  0  0  0  0
  160.8370  201.1530  146.3830 N   0  0  0  0  0  1  0  0  0  0  0  0
  161.1520  200.5570  148.6060 O   0  0  0  0  0  0  0  0  0  0  0  0
  1  2  1  0  0  0  0
  1  6  2  0  0  0  0
  2  3  1  0  0  0  0
  3  4  2  0  0  0  0
  3 22  1  0  0  0  0
  5  6  1  1  0  0  0
  5  4  1  0  0  0  0
  5 14  1  0  0  0  0
  7  2  2  0  0  0  0
  8 10  1  0  0  0  0
  9 12  1  6  0  0  0
 10  9  1  0  0  0  0
 10 16  1  1  0  0  0
 13  8  1  0  0  0  0
 14 13  1  6  0  0  0
 14 15  1  0  0  0  0
 15 11  1  1  0  0  0
 15  9  1  0  0  0  0
 16 18  1  6  0  0  0
 17 18  1  0  0  0  0
 19 20  1  0  0  0  0
 19 16  1  0  0  0  0
 21 20  1  0  0  0  0
 23 22  1  0  0  0  0
 24 23  1  0  0  0  0
 24 25  1  1  0  0  0
 26 31  1  6  0  0  0
 26 24  1  0  0  0  0
 28 27  1  1  0  0  0
 28 26  1  0  0  0  0
 29 30  1  0  0  0  0
 30 28  1  0  0  0  0
 32 31  1  0  0  0  0
 33 32  1  0  0  0  0
 33 35  2  0  0  0  0
 34 33  1  0  0  0  0
M  END
>  <MODEL>
6

>  <REMARK>
 VINA RESULT:      -5.5      2.724     10.076
  Name = 
  14 active torsions:
  status: ('A' for Active; 'I' for Inactive)
    1  A    between atoms: C_5  and  O_33
    2  A    between atoms: C_7  and  C_32
    3  A    between atoms: C_8  and  C_24
    4  A    between atoms: C_9  and  O_14
    5  A    between atoms: C_9  and  C_24
    6  A    between atoms: C_9  and  C_25
    7  A    between atoms: C_10  and  C_32
    8  A    between atoms: O_14  and  C_29
    9  A    between atoms: C_15  and  C_35
   10  A    between atoms: C_18  and  C_29
   11  A    between atoms: C_19  and  C_30
   12  A    between atoms: O_23  and  C_25
   13  A    between atoms: O_23  and  C_35
   14  A    between atoms: C_32  and  O_33
                            x       y       z     vdW  Elec       q    Type
                         _______ _______ _______ _____ _____    ______ ____

>  <TORSDO>
F 14

$$$$
=
 OpenBabel11072411293D

 35 36  0  0  1  0  0  0  0  0999 V2000
  161.4720  206.2070  154.0900 N   0  0  0  0  0  0  0  0  0  0  0  0
  161.3970  207.6260  154.2500 C   0  0  0  0  0  0  0  0  0  0  0  0
  161.1790  208.4720  153.0690 C   0  0  0  0  0  0  0  0  0  0  0  0
  160.9050  207.8970  151.8980 C   0  0  0  0  0  3  0  0  0  0  0  0
  160.7120  206.4050  151.7510 C   0  0  2  0  0  3  0  0  0  0  0  0
  161.2030  205.6310  152.9570 C   0  0  0  0  0  3  0  0  0  0  0  0
  161.5680  208.1380  155.3880 O   0  0  0  0  0  0  0  0  0  0  0  0
  161.2360  203.9280  148.7990 C   0  0  0  0  0  2  0  0  0  0  0  0
  160.9670  206.3110  147.9120 C   0  0  1  0  0  3  0  0  0  0  0  0
  161.6760  204.9570  147.7420 C   0  0  2  0  0  3  0  0  0  0  0  0
  162.5190  207.7100  149.2570 C   0  0  0  0  0  1  0  0  0  0  0  0
  159.5910  206.1820  147.7020 O   0  0  0  0  0  1  0  0  0  0  0  0
  160.5990  204.5580  150.0400 C   0  0  0  0  0  2  0  0  0  0  0  0
  161.3050  205.8590  150.4400 C   0  0  1  0  0  3  0  0  0  0  0  0
  161.2310  206.9060  149.3020 C   0  0  2  0  0  3  0  0  0  0  0  0
  161.5250  204.3990  146.3230 C   0  0  1  0  0  3  0  0  0  0  0  0
  161.3700  205.7300  144.3420 O   0  0  0  0  0  1  0  0  0  0  0  0
  162.2560  205.2900  145.3270 C   0  0  0  0  0  2  0  0  0  0  0  0
  162.0500  203.1040  146.2490 O   0  0  0  0  0  0  0  0  0  0  0  0
  160.9350  202.2690  146.1640 C   0  0  0  0  0  2  0  0  0  0  0  0
  160.3880  202.3520  144.8840 O   0  0  0  0  0  1  0  0  0  0  0  0
  161.2740  209.9580  153.1580 C   0  0  0  0  0  2  0  0  0  0  0  0
  160.4440  210.5450  152.2000 O   0  0  0  0  0  0  0  0  0  0  0  0
  160.2890  211.8710  152.6160 C   0  0  2  0  0  3  0  0  0  0  0  0
  159.4440  211.9360  153.8750 C   0  0  0  0  0  1  0  0  0  0  0  0
  159.7340  212.7740  151.4990 C   0  0  2  0  0  3  0  0  0  0  0  0
  157.6540  213.9240  152.4350 C   0  0  0  0  0  1  0  0  0  0  0  0
  158.2020  212.9240  151.4300 C   0  0  1  0  0  3  0  0  0  0  0  0
  156.4400  213.8570  150.1140 O   0  0  0  0  0  1  0  0  0  0  0  0
  157.6880  213.2380  150.0350 C   0  0  0  0  0  2  0  0  0  0  0  0
  160.2330  212.3620  150.2590 O   0  0  0  0  0  0  0  0  0  0  0  0
  161.0360  213.4160  149.8190 C   0  0  0  0  0  2  0  0  0  0  0  0
  161.6950  213.0410  148.5420 C   0  0  0  0  0  0  0  0  0  0  0  0
  161.8200  211.6710  148.1800 N   0  0  0  0  0  1  0  0  0  0  0  0
  162.1190  213.9370  147.7670 O   0  0  0  0  0  0  0  0  0  0  0  0
  1  2  1  0  0  0  0
  2  7  2  0  0  0  0
  3 22  1  0  0  0  0
  3  2  1  0  0  0  0
  4  3  2  0  0  0  0
  5  4  1  1  0  0  0
  5  6  1  0  0  0  0
  6  1  2  0  0  0  0
  8 13  1  0  0  0  0
  9 12  1  1  0  0  0
  9 15  1  0  0  0  0
 10 16  1  6  0  0  0
 10  9  1  0  0  0  0
 10  8  1  0  0  0  0
 14 13  1  6  0  0  0
 14  5  1  0  0  0  0
 15 11  1  6  0  0  0
 15 14  1  0  0  0  0
 16 18  1  6  0  0  0
 17 18  1  0  0  0  0
 19 16  1  0  0  0  0
 20 19  1  0  0  0  0
 21 20  1  0  0  0  0
 23 24  1  0  0  0  0
 23 22  1  0  0  0  0
 24 25  1  1  0  0  0
 26 31  1  6  0  0  0
 26 24  1  0  0  0  0
 28 26  1  0  0  0  0
 28 27  1  1  0  0  0
 30 29  1  0  0  0  0
 30 28  1  0  0  0  0
 32 31  1  0  0  0  0
 33 32  1  0  0  0  0
 34 33  1  0  0  0  0
 35 33  2  0  0  0  0
M  END
>  <MODEL>
7

>  <REMARK>
 VINA RESULT:      -5.5      1.706      2.462
  Name = 
  14 active torsions:
  status: ('A' for Active; 'I' for Inactive)
    1  A    between atoms: C_5  and  O_33
    2  A    between atoms: C_7  and  C_32
    3  A    between atoms: C_8  and  C_24
    4  A    between atoms: C_9  and  O_14
    5  A    between atoms: C_9  and  C_24
    6  A    between atoms: C_9  and  C_25
    7  A    between atoms: C_10  and  C_32
    8  A    between atoms: O_14  and  C_29
    9  A    between atoms: C_15  and  C_35
   10  A    between atoms: C_18  and  C_29
   11  A    between atoms: C_19  and  C_30
   12  A    between atoms: O_23  and  C_25
   13  A    between atoms: O_23  and  C_35
   14  A    between atoms: C_32  and  O_33
                            x       y       z     vdW  Elec       q    Type
                         _______ _______ _______ _____ _____    ______ ____

>  <TORSDO>
F 14

$$$$
=
 OpenBabel11072411293D

 35 36  0  0  1  0  0  0  0  0999 V2000
  160.8540  205.9380  154.4420 N   0  0  0  0  0  0  0  0  0  0  0  0
  161.0990  205.3700  153.1530 C   0  0  0  0  0  0  0  0  0  0  0  0
  161.4770  206.2510  152.0390 C   0  0  0  0  0  0  0  0  0  0  0  0
  161.7310  207.5370  152.2840 C   0  0  0  0  0  3  0  0  0  0  0  0
  161.7420  208.1110  153.6820 C   0  0  2  0  0  3  0  0  0  0  0  0
  161.1020  207.1880  154.6980 C   0  0  0  0  0  3  0  0  0  0  0  0
  160.9400  204.1340  152.9720 O   0  0  0  0  0  0  0  0  0  0  0  0
  159.2400  210.9940  152.9400 C   0  0  0  0  0  2  0  0  0  0  0  0
  159.7510  210.8940  155.4430 C   0  0  1  0  0  3  0  0  0  0  0  0
  159.4630  211.7990  154.2330 C   0  0  2  0  0  3  0  0  0  0  0  0
  162.2270  210.7920  155.6230 C   0  0  0  0  0  1  0  0  0  0  0  0
  158.6470  210.0870  155.7350 O   0  0  0  0  0  1  0  0  0  0  0  0
  159.8080  209.5740  152.9950 C   0  0  0  0  0  2  0  0  0  0  0  0
  161.1480  209.5290  153.7420 C   0  0  1  0  0  3  0  0  0  0  0  0
  160.9890  210.0200  155.2020 C   0  0  2  0  0  3  0  0  0  0  0  0
  158.3030  212.7650  154.4960 C   0  0  1  0  0  3  0  0  0  0  0  0
  158.7060  214.4530  152.8520 O   0  0  0  0  0  1  0  0  0  0  0  0
  158.7390  214.1990  154.2230 C   0  0  0  0  0  2  0  0  0  0  0  0
  157.2130  212.4540  153.6760 O   0  0  0  0  0  0  0  0  0  0  0  0
  156.0890  212.6660  154.4740 C   0  0  0  0  0  2  0  0  0  0  0  0
  155.9190  211.5840  155.3370 O   0  0  0  0  0  1  0  0  0  0  0  0
  161.5650  205.7340  150.6430 C   0  0  0  0  0  2  0  0  0  0  0  0
  160.4580  206.1620  149.9070 O   0  0  0  0  0  0  0  0  0  0  0  0
  160.4730  205.3870  148.7430 C   0  0  2  0  0  3  0  0  0  0  0  0
  161.3300  204.1500  148.9410 C   0  0  0  0  0  1  0  0  0  0  0  0
  160.9030  206.1970  147.5050 C   0  0  2  0  0  3  0  0  0  0  0  0
  160.2220  205.6780  145.0990 C   0  0  0  0  0  1  0  0  0  0  0  0
  161.2020  205.3930  146.2240 C   0  0  1  0  0  3  0  0  0  0  0  0
  163.2870  204.3160  145.7790 O   0  0  0  0  0  1  0  0  0  0  0  0
  162.6320  205.5480  145.7350 C   0  0  0  0  0  2  0  0  0  0  0  0
  161.9910  207.0160  147.8230 O   0  0  0  0  0  0  0  0  0  0  0  0
  161.5440  208.3200  147.6020 C   0  0  0  0  0  2  0  0  0  0  0  0
  162.0650  209.2130  148.6700 C   0  0  0  0  0  0  0  0  0  0  0  0
  161.8660  210.6190  148.5830 N   0  0  0  0  0  1  0  0  0  0  0  0
  162.6580  208.7210  149.6640 O   0  0  0  0  0  0  0  0  0  0  0  0
  1  6  2  0  0  0  0
  2  1  1  0  0  0  0
  3  4  2  0  0  0  0
  3  2  1  0  0  0  0
  5  4  1  6  0  0  0
  5 14  1  0  0  0  0
  5  6  1  0  0  0  0
  7  2  2  0  0  0  0
  8 13  1  0  0  0  0
  8 10  1  0  0  0  0
  9 12  1  6  0  0  0
 10 16  1  1  0  0  0
 10  9  1  0  0  0  0
 14 13  1  1  0  0  0
 14 15  1  0  0  0  0
 15  9  1  0  0  0  0
 15 11  1  6  0  0  0
 16 18  1  6  0  0  0
 17 18  1  0  0  0  0
 19 20  1  0  0  0  0
 19 16  1  0  0  0  0
 20 21  1  0  0  0  0
 22  3  1  0  0  0  0
 23 22  1  0  0  0  0
 24 25  1  1  0  0  0
 24 23  1  0  0  0  0
 26 31  1  1  0  0  0
 26 24  1  0  0  0  0
 28 27  1  6  0  0  0
 28 26  1  0  0  0  0
 30 29  1  0  0  0  0
 30 28  1  0  0  0  0
 32 31  1  0  0  0  0
 32 33  1  0  0  0  0
 33 35  2  0  0  0  0
 34 33  1  0  0  0  0
M  END
>  <MODEL>
8

>  <REMARK>
 VINA RESULT:      -5.3      1.893      8.964
  Name = 
  14 active torsions:
  status: ('A' for Active; 'I' for Inactive)
    1  A    between atoms: C_5  and  O_33
    2  A    between atoms: C_7  and  C_32
    3  A    between atoms: C_8  and  C_24
    4  A    between atoms: C_9  and  O_14
    5  A    between atoms: C_9  and  C_24
    6  A    between atoms: C_9  and  C_25
    7  A    between atoms: C_10  and  C_32
    8  A    between atoms: O_14  and  C_29
    9  A    between atoms: C_15  and  C_35
   10  A    between atoms: C_18  and  C_29
   11  A    between atoms: C_19  and  C_30
   12  A    between atoms: O_23  and  C_25
   13  A    between atoms: O_23  and  C_35
   14  A    between atoms: C_32  and  O_33
                            x       y       z     vdW  Elec       q    Type
                         _______ _______ _______ _____ _____    ______ ____

>  <TORSDO>
F 14

$$$$
=
 OpenBabel11072411293D

 35 36  0  0  1  0  0  0  0  0999 V2000
  161.2820  204.6440  153.1300 N   0  0  0  0  0  0  0  0  0  0  0  0
  161.0800  203.9250  151.9110 C   0  0  0  0  0  0  0  0  0  0  0  0
  160.9540  204.6680  150.6490 C   0  0  0  0  0  0  0  0  0  0  0  0
  161.1800  205.9820  150.6430 C   0  0  0  0  0  3  0  0  0  0  0  0
  161.6590  206.7300  151.8670 C   0  0  2  0  0  3  0  0  0  0  0  0
  161.5090  205.9240  153.1400 C   0  0  0  0  0  3  0  0  0  0  0  0
  160.9630  202.6710  151.9350 O   0  0  0  0  0  0  0  0  0  0  0  0
  159.6530  209.6300  153.5080 C   0  0  0  0  0  2  0  0  0  0  0  0
  161.8530  210.5130  152.5480 C   0  0  1  0  0  3  0  0  0  0  0  0
  160.3620  210.7980  152.7980 C   0  0  2  0  0  3  0  0  0  0  0  0
  161.9810  209.6300  150.2300 C   0  0  0  0  0  1  0  0  0  0  0  0
  162.5450  210.3840  153.7560 O   0  0  0  0  0  1  0  0  0  0  0  0
  160.3940  208.2970  153.3830 C   0  0  0  0  0  2  0  0  0  0  0  0
  161.0200  208.1240  151.9930 C   0  0  1  0  0  3  0  0  0  0  0  0
  162.0420  209.2490  151.6980 C   0  0  2  0  0  3  0  0  0  0  0  0
  160.1440  212.1200  153.5440 C   0  0  1  0  0  3  0  0  0  0  0  0
  158.4290  212.5420  151.9330 O   0  0  0  0  0  1  0  0  0  0  0  0
  159.4820  213.1390  152.6260 C   0  0  0  0  0  2  0  0  0  0  0  0
  159.3320  211.9180  154.6660 O   0  0  0  0  0  0  0  0  0  0  0  0
  160.0090  212.5380  155.7160 C   0  0  0  0  0  2  0  0  0  0  0  0
  160.7420  211.5860  156.4240 O   0  0  0  0  0  1  0  0  0  0  0  0
  160.5640  203.9800  149.3850 C   0  0  0  0  0  2  0  0  0  0  0  0
  160.9710  202.6440  149.4280 O   0  0  0  0  0  0  0  0  0  0  0  0
  160.8290  202.1790  148.1170 C   0  0  2  0  0  3  0  0  0  0  0  0
  161.6350  200.9080  147.9140 C   0  0  0  0  0  1  0  0  0  0  0  0
  161.1770  203.2570  147.0720 C   0  0  2  0  0  3  0  0  0  0  0  0
  160.2600  201.6250  145.3350 C   0  0  0  0  0  1  0  0  0  0  0  0
  161.1670  202.8160  145.5950 C   0  0  1  0  0  3  0  0  0  0  0  0
  159.4690  204.0880  144.4970 O   0  0  0  0  0  1  0  0  0  0  0  0
  160.8510  203.9450  144.6300 C   0  0  0  0  0  2  0  0  0  0  0  0
  162.4040  203.8500  147.3880 O   0  0  0  0  0  0  0  0  0  0  0  0
  162.5180  204.9370  146.5180 C   0  0  0  0  0  2  0  0  0  0  0  0
  161.9610  206.1530  147.1650 C   0  0  0  0  0  0  0  0  0  0  0  0
  160.5820  206.4710  147.0170 N   0  0  0  0  0  1  0  0  0  0  0  0
  162.7050  206.8870  147.8650 O   0  0  0  0  0  0  0  0  0  0  0  0
  1  6  2  0  0  0  0
  2  7  2  0  0  0  0
  2  1  1  0  0  0  0
  3  2  1  0  0  0  0
  4  3  2  0  0  0  0
  5  4  1  6  0  0  0
  5 14  1  0  0  0  0
  5  6  1  0  0  0  0
  9 10  1  0  0  0  0
  9 12  1  1  0  0  0
 10  8  1  0  0  0  0
 10 16  1  1  0  0  0
 13  8  1  0  0  0  0
 14 13  1  1  0  0  0
 15 11  1  6  0  0  0
 15 14  1  0  0  0  0
 15  9  1  0  0  0  0
 16 18  1  6  0  0  0
 16 19  1  0  0  0  0
 17 18  1  0  0  0  0
 19 20  1  0  0  0  0
 20 21  1  0  0  0  0
 22 23  1  0  0  0  0
 22  3  1  0  0  0  0
 24 25  1  1  0  0  0
 24 23  1  0  0  0  0
 26 31  1  1  0  0  0
 26 24  1  0  0  0  0
 28 27  1  1  0  0  0
 28 26  1  0  0  0  0
 29 30  1  0  0  0  0
 30 28  1  0  0  0  0
 32 33  1  0  0  0  0
 32 31  1  0  0  0  0
 33 35  2  0  0  0  0
 34 33  1  0  0  0  0
M  END
>  <MODEL>
9

>  <REMARK>
 VINA RESULT:      -5.2      2.298      9.525
  Name = 
  14 active torsions:
  status: ('A' for Active; 'I' for Inactive)
    1  A    between atoms: C_5  and  O_33
    2  A    between atoms: C_7  and  C_32
    3  A    between atoms: C_8  and  C_24
    4  A    between atoms: C_9  and  O_14
    5  A    between atoms: C_9  and  C_24
    6  A    between atoms: C_9  and  C_25
    7  A    between atoms: C_10  and  C_32
    8  A    between atoms: O_14  and  C_29
    9  A    between atoms: C_15  and  C_35
   10  A    between atoms: C_18  and  C_29
   11  A    between atoms: C_19  and  C_30
   12  A    between atoms: O_23  and  C_25
   13  A    between atoms: O_23  and  C_35
   14  A    between atoms: C_32  and  O_33
                            x       y       z     vdW  Elec       q    Type
                         _______ _______ _______ _____ _____    ______ ____

>  <TORSDO>
F 14

$$$$
