=
 OpenBabel11072414573D

 65 71  0  0  1  0  0  0  0  0999 V2000
  160.9720  212.2430  147.1040 C   0  0  0  0  0  0  0  0  0  0  0  0
  160.3260  212.9330  148.1370 C   0  0  0  0  0  3  0  0  0  0  0  0
  160.2150  212.3430  149.4020 C   0  0  0  0  0  0  0  0  0  0  0  0
  160.7550  211.0760  149.6120 C   0  0  0  0  0  3  0  0  0  0  0  0
  161.4250  210.4230  148.5710 C   0  0  0  0  0  0  0  0  0  0  0  0
  161.4990  211.0100  147.3470 N   0  0  0  0  0  0  0  0  0  0  0  0
  160.5640  212.1610  144.7270 O   0  0  0  0  0  1  0  0  0  0  0  0
  161.0690  212.8180  145.7980 N   0  0  0  0  0  0  0  0  0  0  0  0
  161.7960  213.9980  145.5940 N   0  0  0  0  0  1  0  0  0  0  0  0
  159.5840  212.9920  150.4690 O   0  0  0  0  0  0  0  0  0  0  0  0
  156.6880  210.6870  154.8820 C   0  0  1  0  0  0  0  0  0  0  0  0
  156.7410  213.1290  154.0970 O   0  0  0  0  0  0  0  0  0  0  0  0
  158.9090  212.2600  152.9220 O   0  0  0  0  0  0  0  0  0  0  0  0
  159.9990  214.2990  155.9230 C   0  0  0  0  0  1  0  0  0  0  0  0
  156.2610  214.4370  150.7850 O   0  0  0  0  0  0  0  0  0  0  0  0
  155.6680  212.1360  156.6270 O   0  0  0  0  0  1  0  0  0  0  0  0
  159.7740  212.9920  155.1690 C   0  0  0  0  0  0  0  0  0  0  0  0
  156.1550  209.7520  155.7560 F   0  0  0  0  0  0  0  0  0  0  0  0
  157.6290  214.4300  150.4920 C   0  0  0  0  0  2  0  0  0  0  0  0
  157.7970  212.4320  152.0340 C   0  0  1  0  0  3  0  0  0  0  0  0
  154.3980  211.3260  154.1120 O   0  0  0  0  0  1  0  0  0  0  0  0
  158.2030  210.8820  155.2230 C   0  0  1  0  0  3  0  0  0  0  0  0
  156.6320  210.1340  153.6000 O   0  0  0  0  0  1  0  0  0  0  0  0
  159.4150  213.2870  153.7250 C   0  0  0  0  0  0  0  0  0  0  0  0
  154.5700  213.5500  155.0150 O   0  0  0  0  0  1  0  0  0  0  0  0
  156.5220  213.0120  152.7180 C   0  0  2  0  0  3  0  0  0  0  0  0
  155.5920  212.2030  154.9370 P   0  0  0  0  0  0  0  0  0  0  0  0
  158.1720  213.0110  150.6560 C   0  0  2  0  0  3  0  0  0  0  0  0
  158.6320  212.2120  155.8930 C   0  0  1  0  0  3  0  0  0  0  0  0
  159.5260  214.4520  153.2500 O   0  0  0  0  0  0  0  0  0  0  0  0
  158.8860  212.0430  157.2590 O   0  0  0  0  0  1  0  0  0  0  0  0
  156.1880  214.4070  152.1820 C   0  0  0  0  0  2  0  0  0  0  0  0
  161.0820  212.2220  155.1890 C   0  0  0  0  0  1  0  0  0  0  0  0
  159.1590  209.6510  157.1250 O   0  0  0  0  0  1  0  0  0  0  0  0
  158.8680  209.5880  155.7630 C   0  0  2  0  0  3  0  0  0  0  0  0
  160.1280  209.2170  154.9840 C   0  0  0  0  0  2  0  0  0  0  0  0
  161.9850  207.6150  155.0140 C   0  0  0  0  0  2  0  0  0  0  0  0
  161.1380  208.4840  155.8550 C   0  0  2  0  0  3  0  0  0  0  0  0
  160.9110  207.1000  155.7610 O   0  0  0  0  0  0  0  0  0  0  0  0
  162.0520  209.0740  148.7860 C   0  0  0  0  0  2  0  0  0  0  0  0
  162.4620  208.7930  150.2410 C   0  0  1  0  0  3  0  0  0  0  0  0
  161.2910  208.8570  151.1830 C   0  0  0  0  0  0  0  0  0  0  0  0
  161.4780  209.3350  152.4740 O   0  0  0  0  0  1  0  0  0  0  0  0
  160.1370  208.5190  150.8020 O   0  0  0  0  0  0  0  0  0  0  0  0
  163.2720  207.4970  150.3320 C   0  0  0  0  0  2  0  0  0  0  0  0
  162.5050  206.2400  149.9280 C   0  0  2  0  0  3  0  0  0  0  0  0
  160.8030  206.1010  148.2020 O   0  0  0  0  0  0  0  0  0  0  0  0
  162.6910  205.0940  146.2150 C   0  0  0  0  0  2  0  0  0  0  0  0
  160.4190  204.7250  144.9640 C   0  0  0  0  0  2  0  0  0  0  0  0
  162.8950  204.9860  147.7270 C   0  0  0  0  0  2  0  0  0  0  0  0
  162.1890  206.1540  148.4330 C   0  0  2  0  0  3  0  0  0  0  0  0
  161.2680  205.5460  145.9070 C   0  0  0  0  0  0  0  0  0  0  0  0
  161.1090  205.9920  144.4750 C   0  0  0  0  0  2  0  0  0  0  0  0
  160.6030  206.5190  146.8750 C   0  0  0  0  0  2  0  0  0  0  0  0
  161.2940  206.1830  150.6690 O   0  0  0  0  0  0  0  0  0  0  0  0
  160.9680  205.0780  151.4530 C   0  0  0  0  0  0  0  0  0  0  0  0
  160.9810  205.1890  152.7080 O   0  0  0  0  0  0  0  0  0  0  0  0
  160.6000  203.8690  150.8510 O   0  0  0  0  0  0  0  0  0  0  0  0
  161.5510  202.8650  150.5050 C   0  0  0  0  0  2  0  0  0  0  0  0
  160.9410  201.7180  149.6930 C   0  0  2  0  0  0  0  0  0  0  0  0
  160.5270  200.5750  150.3490 F   0  0  0  0  0  0  0  0  0  0  0  0
  161.0820  200.3610  147.6490 F   0  0  0  0  0  0  0  0  0  0  0  0
  161.2490  201.5930  148.2550 C   0  0  0  0  0  0  0  0  0  0  0  0
  160.0210  202.1240  148.7040 O   0  0  0  0  0  0  0  0  0  0  0  0
  162.0300  202.5540  147.6400 F   0  0  0  0  0  0  0  0  0  0  0  0
  1  6  2  0  0  0  0
  1  2  1  0  0  0  0
  2  3  2  0  0  0  0
  3  4  1  0  0  0  0
  3 10  1  0  0  0  0
  5 40  1  0  0  0  0
  5  4  2  0  0  0  0
  6  5  1  0  0  0  0
  7  8  1  0  0  0  0
  8  1  1  0  0  0  0
  9  8  1  0  0  0  0
 11 23  1  6  0  0  0
 11 27  1  0  0  0  0
 11 22  1  0  0  0  0
 11 18  1  0  0  0  0
 12 27  1  0  0  0  0
 13 24  1  0  0  0  0
 15 32  1  0  0  0  0
 17 33  1  0  0  0  0
 17 29  1  0  0  0  0
 17 14  1  0  0  0  0
 19 28  1  0  0  0  0
 19 15  1  0  0  0  0
 20 26  1  0  0  0  0
 20 13  1  1  0  0  0
 21 27  1  0  0  0  0
 22 35  1  1  0  0  0
 22 29  1  0  0  0  0
 24 17  1  0  0  0  0
 26 32  1  6  0  0  0
 26 12  1  0  0  0  0
 27 25  1  0  0  0  0
 27 16  1  0  0  0  0
 28 10  1  1  0  0  0
 28 20  1  0  0  0  0
 29 31  1  1  0  0  0
 30 24  2  0  0  0  0
 35 34  1  1  0  0  0
 36 35  1  0  0  0  0
 37 39  1  0  0  0  0
 37 38  1  0  0  0  0
 38 36  1  6  0  0  0
 39 38  1  0  0  0  0
 41 40  1  6  0  0  0
 41 45  1  0  0  0  0
 41 42  1  0  0  0  0
 42 43  1  0  0  0  0
 44 42  2  0  0  0  0
 46 45  1  6  0  0  0
 46 55  1  0  0  0  0
 47 51  1  0  0  0  0
 48 50  1  0  0  0  0
 49 52  1  0  0  0  0
 50 51  1  0  0  0  0
 51 46  1  1  0  0  0
 52 48  1  0  0  0  0
 52 54  1  0  0  0  0
 53 49  1  0  0  0  0
 53 52  1  0  0  0  0
 54 47  1  0  0  0  0
 55 56  1  0  0  0  0
 56 57  2  0  0  0  0
 58 56  1  0  0  0  0
 59 58  1  0  0  0  0
 60 61  1  1  0  0  0
 60 59  1  0  0  0  0
 62 63  1  0  0  0  0
 63 64  1  0  0  0  0
 63 60  1  0  0  0  0
 64 60  1  0  0  0  0
 65 63  1  0  0  0  0
M  END
>  <MODEL>
1

>  <REMARK>
 VINA RESULT:       1.3      0.000      0.000
  Name = 
  17 active torsions:
  status: ('A' for Active; 'I' for Inactive)
    1  A    between atoms: C_3  and  C_21
    2  A    between atoms: C_6  and  C_18
    3  A    between atoms: C_6  and  C_49
    4  A    between atoms: C_9  and  C_42
    5  A    between atoms: C_9  and  O_54
    6  A    between atoms: C_9  and  C_61
    7  A    between atoms: C_10  and  N_43
    8  A    between atoms: C_12  and  C_52
    9  A    between atoms: C_18  and  C_23
   10  A    between atoms: C_18  and  C_61
   11  A    between atoms: C_20  and  O_44
   12  A    between atoms: C_21  and  O_35
   13  A    between atoms: C_34  and  C_60
   14  A    between atoms: O_35  and  C_39
   15  A    between atoms: C_39  and  O_54
   16  A    between atoms: O_44  and  C_48
   17  A    between atoms: C_52  and  C_60
                            x       y       z     vdW  Elec       q    Type
                         _______ _______ _______ _____ _____    ______ ____

>  <TORSDO>
F 17

$$$$
=
 OpenBabel11072414573D

 65 71  0  0  1  0  0  0  0  0999 V2000
  161.5520  204.2680  150.9580 C   0  0  0  0  0  0  0  0  0  0  0  0
  161.4520  205.4970  151.6230 C   0  0  0  0  0  3  0  0  0  0  0  0
  161.7320  206.6830  150.9340 C   0  0  0  0  0  0  0  0  0  0  0  0
  162.1040  206.6210  149.5930 C   0  0  0  0  0  3  0  0  0  0  0  0
  162.1640  205.3830  148.9440 C   0  0  0  0  0  0  0  0  0  0  0  0
  161.9080  204.2440  149.6420 N   0  0  0  0  0  0  0  0  0  0  0  0
  161.7570  201.8720  151.1540 O   0  0  0  0  0  1  0  0  0  0  0  0
  161.2990  203.0440  151.6530 N   0  0  0  0  0  0  0  0  0  0  0  0
  160.4690  203.0280  152.7820 N   0  0  0  0  0  1  0  0  0  0  0  0
  161.6410  207.9360  151.5510 O   0  0  0  0  0  0  0  0  0  0  0  0
  157.9990  211.8030  153.7770 C   0  0  1  0  0  0  0  0  0  0  0  0
  160.3750  212.1670  152.8790 O   0  0  0  0  0  0  0  0  0  0  0  0
  160.4560  209.5810  153.2530 O   0  0  0  0  0  0  0  0  0  0  0  0
  162.4050  211.1850  156.0770 C   0  0  0  0  0  1  0  0  0  0  0  0
  161.7860  211.0940  149.7530 O   0  0  0  0  0  0  0  0  0  0  0  0
  158.7980  214.0600  154.4490 O   0  0  0  0  0  1  0  0  0  0  0  0
  161.1930  210.4690  155.4890 C   0  0  0  0  0  0  0  0  0  0  0  0
  156.8470  212.3720  154.2970 F   0  0  0  0  0  0  0  0  0  0  0  0
  162.2900  209.9060  150.2900 C   0  0  0  0  0  2  0  0  0  0  0  0
  160.3230  209.9630  151.8780 C   0  0  1  0  0  3  0  0  0  0  0  0
  157.8740  213.2940  151.7740 O   0  0  0  0  0  1  0  0  0  0  0  0
  158.6750  210.9360  154.8910 C   0  0  1  0  0  3  0  0  0  0  0  0
  157.6060  210.9230  152.7650 O   0  0  0  0  0  1  0  0  0  0  0  0
  161.5000  210.0170  154.0740 C   0  0  0  0  0  0  0  0  0  0  0  0
  159.9040  214.4530  152.3450 O   0  0  0  0  0  1  0  0  0  0  0  0
  160.3400  211.5040  151.6440 C   0  0  2  0  0  3  0  0  0  0  0  0
  159.0180  213.1780  153.0200 P   0  0  0  0  0  0  0  0  0  0  0  0
  161.1440  209.1010  150.9000 C   0  0  2  0  0  3  0  0  0  0  0  0
  159.9890  211.4600  155.5240 C   0  0  1  0  0  3  0  0  0  0  0  0
  162.6750  210.0700  153.6130 O   0  0  0  0  0  0  0  0  0  0  0  0
  159.7710  211.9900  156.8010 O   0  0  0  0  0  1  0  0  0  0  0  0
  161.5800  211.9330  150.8540 C   0  0  0  0  0  2  0  0  0  0  0  0
  160.9340  209.2380  156.3380 C   0  0  0  0  0  1  0  0  0  0  0  0
  157.3720  208.9620  155.5660 O   0  0  0  0  0  1  0  0  0  0  0  0
  157.6450  210.2980  155.8600 C   0  0  2  0  0  3  0  0  0  0  0  0
  156.3400  211.0880  155.9200 C   0  0  0  0  0  2  0  0  0  0  0  0
  155.1490  212.8560  157.1350 C   0  0  0  0  0  2  0  0  0  0  0  0
  156.1590  211.7860  157.2600 C   0  0  2  0  0  3  0  0  0  0  0  0
  156.5260  213.1380  157.1310 O   0  0  0  0  0  0  0  0  0  0  0  0
  162.5220  205.2940  147.4860 C   0  0  0  0  0  2  0  0  0  0  0  0
  161.4850  205.9260  146.5430 C   0  0  1  0  0  3  0  0  0  0  0  0
  160.6960  207.0160  147.2150 C   0  0  0  0  0  0  0  0  0  0  0  0
  159.5530  206.6890  147.9330 O   0  0  0  0  0  1  0  0  0  0  0  0
  161.0820  208.2150  147.1660 O   0  0  0  0  0  0  0  0  0  0  0  0
  162.1420  206.3460  145.2240 C   0  0  0  0  0  2  0  0  0  0  0  0
  161.5610  205.6700  143.9840 C   0  0  2  0  0  3  0  0  0  0  0  0
  159.6980  204.1250  144.1660 O   0  0  0  0  0  0  0  0  0  0  0  0
  161.3000  202.1280  145.5710 C   0  0  0  0  0  2  0  0  0  0  0  0
  158.8970  201.1290  145.8720 C   0  0  0  0  0  2  0  0  0  0  0  0
  161.6360  203.6200  145.5190 C   0  0  0  0  0  2  0  0  0  0  0  0
  161.0990  204.2300  144.2150 C   0  0  2  0  0  3  0  0  0  0  0  0
  159.8960  201.8870  145.0280 C   0  0  0  0  0  0  0  0  0  0  0  0
  159.6400  200.4280  144.7410 C   0  0  0  0  0  2  0  0  0  0  0  0
  159.4080  202.7770  143.8890 C   0  0  0  0  0  2  0  0  0  0  0  0
  162.5370  205.6920  142.9510 O   0  0  0  0  0  0  0  0  0  0  0  0
  162.2570  206.2200  141.6920 C   0  0  0  0  0  0  0  0  0  0  0  0
  162.8710  205.7730  140.6870 O   0  0  0  0  0  0  0  0  0  0  0  0
  161.2820  207.2140  141.5440 O   0  0  0  0  0  0  0  0  0  0  0  0
  160.8920  207.7210  140.2700 C   0  0  0  0  0  2  0  0  0  0  0  0
  161.9050  208.7100  139.6850 C   0  0  2  0  0  0  0  0  0  0  0  0
  162.9650  208.2280  138.9420 F   0  0  0  0  0  0  0  0  0  0  0  0
  163.2420  210.7340  140.0760 F   0  0  0  0  0  0  0  0  0  0  0  0
  162.0660  210.0430  140.2980 C   0  0  0  0  0  0  0  0  0  0  0  0
  161.3320  209.8630  139.1060 O   0  0  0  0  0  0  0  0  0  0  0  0
  161.2500  210.4100  141.3520 F   0  0  0  0  0  0  0  0  0  0  0  0
  1  2  1  0  0  0  0
  1  8  1  0  0  0  0
  3 10  1  0  0  0  0
  3  2  2  0  0  0  0
  4  3  1  0  0  0  0
  5  4  2  0  0  0  0
  5  6  1  0  0  0  0
  6  1  2  0  0  0  0
  7  8  1  0  0  0  0
  8  9  1  0  0  0  0
 11 23  1  6  0  0  0
 11 18  1  0  0  0  0
 11 22  1  0  0  0  0
 12 27  1  0  0  0  0
 13 24  1  0  0  0  0
 15 19  1  0  0  0  0
 15 32  1  0  0  0  0
 17 29  1  0  0  0  0
 17 14  1  0  0  0  0
 17 33  1  0  0  0  0
 19 28  1  0  0  0  0
 20 13  1  1  0  0  0
 21 27  1  0  0  0  0
 22 29  1  0  0  0  0
 22 35  1  1  0  0  0
 24 17  1  0  0  0  0
 25 27  1  0  0  0  0
 26 32  1  6  0  0  0
 26 20  1  0  0  0  0
 26 12  1  0  0  0  0
 27 11  1  0  0  0  0
 27 16  1  0  0  0  0
 28 10  1  1  0  0  0
 28 20  1  0  0  0  0
 29 31  1  1  0  0  0
 30 24  2  0  0  0  0
 35 34  1  6  0  0  0
 35 36  1  0  0  0  0
 37 38  1  0  0  0  0
 38 36  1  6  0  0  0
 39 37  1  0  0  0  0
 39 38  1  0  0  0  0
 40  5  1  0  0  0  0
 41 45  1  6  0  0  0
 41 42  1  0  0  0  0
 41 40  1  0  0  0  0
 42 43  1  0  0  0  0
 44 42  2  0  0  0  0
 46 45  1  1  0  0  0
 47 51  1  0  0  0  0
 50 48  1  0  0  0  0
 51 46  1  1  0  0  0
 51 50  1  0  0  0  0
 52 48  1  0  0  0  0
 52 49  1  0  0  0  0
 53 52  1  0  0  0  0
 53 49  1  0  0  0  0
 54 47  1  0  0  0  0
 54 52  1  0  0  0  0
 55 46  1  0  0  0  0
 56 55  1  0  0  0  0
 57 56  2  0  0  0  0
 58 56  1  0  0  0  0
 59 58  1  0  0  0  0
 60 61  1  6  0  0  0
 60 59  1  0  0  0  0
 60 63  1  0  0  0  0
 62 63  1  0  0  0  0
 63 65  1  0  0  0  0
 64 60  1  0  0  0  0
 64 63  1  0  0  0  0
M  END
>  <MODEL>
2

>  <REMARK>
 VINA RESULT:       3.0      3.984      6.931
  Name = 
  17 active torsions:
  status: ('A' for Active; 'I' for Inactive)
    1  A    between atoms: C_3  and  C_21
    2  A    between atoms: C_6  and  C_18
    3  A    between atoms: C_6  and  C_49
    4  A    between atoms: C_9  and  C_42
    5  A    between atoms: C_9  and  O_54
    6  A    between atoms: C_9  and  C_61
    7  A    between atoms: C_10  and  N_43
    8  A    between atoms: C_12  and  C_52
    9  A    between atoms: C_18  and  C_23
   10  A    between atoms: C_18  and  C_61
   11  A    between atoms: C_20  and  O_44
   12  A    between atoms: C_21  and  O_35
   13  A    between atoms: C_34  and  C_60
   14  A    between atoms: O_35  and  C_39
   15  A    between atoms: C_39  and  O_54
   16  A    between atoms: O_44  and  C_48
   17  A    between atoms: C_52  and  C_60
                            x       y       z     vdW  Elec       q    Type
                         _______ _______ _______ _____ _____    ______ ____

>  <TORSDO>
F 17

$$$$
=
 OpenBabel11072414573D

 65 71  0  0  1  0  0  0  0  0999 V2000
  160.9420  207.7970  154.4650 C   0  0  0  0  0  0  0  0  0  0  0  0
  161.6070  207.0490  153.4840 C   0  0  0  0  0  3  0  0  0  0  0  0
  162.1770  207.7010  152.3830 C   0  0  0  0  0  0  0  0  0  0  0  0
  162.0750  209.0870  152.2840 C   0  0  0  0  0  3  0  0  0  0  0  0
  161.4340  209.8120  153.2950 C   0  0  0  0  0  0  0  0  0  0  0  0
  160.8710  209.1520  154.3420 N   0  0  0  0  0  0  0  0  0  0  0  0
  161.0930  206.6120  156.5610 O   0  0  0  0  0  1  0  0  0  0  0  0
  160.3280  207.1460  155.5800 N   0  0  0  0  0  0  0  0  0  0  0  0
  158.9420  206.9410  155.6080 N   0  0  0  0  0  1  0  0  0  0  0  0
  162.8550  207.0020  151.3800 O   0  0  0  0  0  0  0  0  0  0  0  0
  162.0050  203.4080  146.9600 C   0  0  1  0  0  0  0  0  0  0  0  0
  160.6160  205.4490  147.6580 O   0  0  0  0  0  0  0  0  0  0  0  0
  161.9040  205.0270  149.8950 O   0  0  0  0  0  0  0  0  0  0  0  0
  158.3650  203.7650  150.3820 C   0  0  0  0  0  1  0  0  0  0  0  0
  161.7360  208.7800  148.4100 O   0  0  0  0  0  0  0  0  0  0  0  0
  159.8420  203.3930  145.7330 O   0  0  0  0  0  1  0  0  0  0  0  0
  159.8640  203.5790  150.1690 C   0  0  0  0  0  0  0  0  0  0  0  0
  162.2030  202.3890  146.0400 F   0  0  0  0  0  0  0  0  0  0  0  0
  161.8470  208.5250  149.7810 C   0  0  0  0  0  2  0  0  0  0  0  0
  162.4000  206.1410  149.1420 C   0  0  1  0  0  3  0  0  0  0  0  0
  162.1350  205.1210  145.1430 O   0  0  0  0  0  1  0  0  0  0  0  0
  161.5490  202.7750  148.3160 C   0  0  1  0  0  3  0  0  0  0  0  0
  163.2470  204.0040  147.1900 O   0  0  0  0  0  1  0  0  0  0  0  0
  160.5730  204.9120  150.3090 C   0  0  0  0  0  0  0  0  0  0  0  0
  159.8380  205.7820  145.4190 O   0  0  0  0  0  1  0  0  0  0  0  0
  161.5940  206.4370  147.8410 C   0  0  2  0  0  3  0  0  0  0  0  0
  160.8660  204.6680  146.1720 P   0  0  0  0  0  0  0  0  0  0  0  0
  162.8050  207.3550  150.0000 C   0  0  2  0  0  3  0  0  0  0  0  0
  160.0730  202.9670  148.7490 C   0  0  1  0  0  3  0  0  0  0  0  0
  159.9690  205.9290  150.7530 O   0  0  0  0  0  0  0  0  0  0  0  0
  159.3220  201.8020  148.5550 O   0  0  0  0  0  1  0  0  0  0  0  0
  160.8770  207.7880  147.9240 C   0  0  0  0  0  2  0  0  0  0  0  0
  160.3680  202.6530  151.2610 C   0  0  0  0  0  1  0  0  0  0  0  0
  163.4820  201.2680  148.1100 O   0  0  0  0  0  1  0  0  0  0  0  0
  162.1660  201.3720  148.5590 C   0  0  2  0  0  3  0  0  0  0  0  0
  161.3230  200.2560  147.9460 C   0  0  0  0  0  2  0  0  0  0  0  0
  160.8230  198.9470  145.9320 C   0  0  0  0  0  2  0  0  0  0  0  0
  161.6070  200.0810  146.4610 C   0  0  2  0  0  3  0  0  0  0  0  0
  162.1870  198.8170  146.2470 O   0  0  0  0  0  0  0  0  0  0  0  0
  161.3490  211.3120  153.2310 C   0  0  0  0  0  2  0  0  0  0  0  0
  160.0900  211.9010  153.8880 C   0  0  1  0  0  3  0  0  0  0  0  0
  160.1710  211.8810  155.3890 C   0  0  0  0  0  0  0  0  0  0  0  0
  160.3770  213.0690  156.0780 O   0  0  0  0  0  1  0  0  0  0  0  0
  160.0150  210.8060  156.0300 O   0  0  0  0  0  0  0  0  0  0  0  0
  159.7650  213.2750  153.2930 C   0  0  0  0  0  2  0  0  0  0  0  0
  158.4960  213.3140  152.4440 C   0  0  2  0  0  3  0  0  0  0  0  0
  157.7880  212.9190  150.1570 O   0  0  0  0  0  0  0  0  0  0  0  0
  160.3960  213.6510  149.0670 C   0  0  0  0  0  2  0  0  0  0  0  0
  159.2440  212.6410  146.9420 C   0  0  0  0  0  2  0  0  0  0  0  0
  160.1650  213.1820  150.5040 C   0  0  0  0  0  2  0  0  0  0  0  0
  158.7470  213.5650  150.9560 C   0  0  2  0  0  3  0  0  0  0  0  0
  159.1420  213.4230  148.2320 C   0  0  0  0  0  0  0  0  0  0  0  0
  159.1900  214.1630  146.9180 C   0  0  0  0  0  2  0  0  0  0  0  0
  157.7880  213.5840  148.9170 C   0  0  0  0  0  2  0  0  0  0  0  0
  157.6350  214.3230  152.9530 O   0  0  0  0  0  0  0  0  0  0  0  0
  156.9650  214.1690  154.1650 C   0  0  0  0  0  0  0  0  0  0  0  0
  157.5610  214.4520  155.2380 O   0  0  0  0  0  0  0  0  0  0  0  0
  155.6340  213.7340  154.1860 O   0  0  0  0  0  0  0  0  0  0  0  0
  155.1450  212.8090  155.1560 C   0  0  0  0  0  2  0  0  0  0  0  0
  155.6230  211.3750  154.9070 C   0  0  2  0  0  0  0  0  0  0  0  0
  154.7940  210.4970  154.2370 F   0  0  0  0  0  0  0  0  0  0  0  0
  156.7620  209.4110  155.8460 F   0  0  0  0  0  0  0  0  0  0  0  0
  156.6620  210.7880  155.7760 C   0  0  0  0  0  0  0  0  0  0  0  0
  156.9640  211.2680  154.4840 O   0  0  0  0  0  0  0  0  0  0  0  0
  157.2440  211.5640  156.7610 F   0  0  0  0  0  0  0  0  0  0  0  0
  1  8  1  0  0  0  0
  2  1  2  0  0  0  0
  3  2  1  0  0  0  0
  4  3  2  0  0  0  0
  4  5  1  0  0  0  0
  5  6  2  0  0  0  0
  6  1  1  0  0  0  0
  8  9  1  0  0  0  0
  8  7  1  0  0  0  0
 10  3  1  0  0  0  0
 11 18  1  6  0  0  0
 11 23  1  0  0  0  0
 11 22  1  0  0  0  0
 12 26  1  0  0  0  0
 13 24  1  0  0  0  0
 15 19  1  0  0  0  0
 16 27  1  0  0  0  0
 17 24  1  0  0  0  0
 17 14  1  0  0  0  0
 17 33  1  0  0  0  0
 19 28  1  0  0  0  0
 20 13  1  1  0  0  0
 20 28  1  0  0  0  0
 21 27  1  0  0  0  0
 22 35  1  6  0  0  0
 22 29  1  0  0  0  0
 24 30  2  0  0  0  0
 25 27  1  0  0  0  0
 26 32  1  1  0  0  0
 26 20  1  0  0  0  0
 27 11  1  0  0  0  0
 27 12  1  0  0  0  0
 28 10  1  1  0  0  0
 29 31  1  1  0  0  0
 29 17  1  0  0  0  0
 32 15  1  0  0  0  0
 35 34  1  6  0  0  0
 36 35  1  0  0  0  0
 37 39  1  0  0  0  0
 37 38  1  0  0  0  0
 38 36  1  1  0  0  0
 39 38  1  0  0  0  0
 40  5  1  0  0  0  0
 41 40  1  6  0  0  0
 41 42  1  0  0  0  0
 42 44  2  0  0  0  0
 42 43  1  0  0  0  0
 45 41  1  0  0  0  0
 46 55  1  0  0  0  0
 46 45  1  1  0  0  0
 47 51  1  0  0  0  0
 48 50  1  0  0  0  0
 49 52  1  0  0  0  0
 50 51  1  0  0  0  0
 51 46  1  1  0  0  0
 52 54  1  0  0  0  0
 52 48  1  0  0  0  0
 53 49  1  0  0  0  0
 53 52  1  0  0  0  0
 54 47  1  0  0  0  0
 55 56  1  0  0  0  0
 56 58  1  0  0  0  0
 56 57  2  0  0  0  0
 58 59  1  0  0  0  0
 60 61  1  6  0  0  0
 60 59  1  0  0  0  0
 60 63  1  0  0  0  0
 63 62  1  0  0  0  0
 63 65  1  0  0  0  0
 64 60  1  0  0  0  0
 64 63  1  0  0  0  0
M  END
>  <MODEL>
3

>  <REMARK>
 VINA RESULT:       3.8      3.143     10.241
  Name = 
  17 active torsions:
  status: ('A' for Active; 'I' for Inactive)
    1  A    between atoms: C_3  and  C_21
    2  A    between atoms: C_6  and  C_18
    3  A    between atoms: C_6  and  C_49
    4  A    between atoms: C_9  and  C_42
    5  A    between atoms: C_9  and  O_54
    6  A    between atoms: C_9  and  C_61
    7  A    between atoms: C_10  and  N_43
    8  A    between atoms: C_12  and  C_52
    9  A    between atoms: C_18  and  C_23
   10  A    between atoms: C_18  and  C_61
   11  A    between atoms: C_20  and  O_44
   12  A    between atoms: C_21  and  O_35
   13  A    between atoms: C_34  and  C_60
   14  A    between atoms: O_35  and  C_39
   15  A    between atoms: C_39  and  O_54
   16  A    between atoms: O_44  and  C_48
   17  A    between atoms: C_52  and  C_60
                            x       y       z     vdW  Elec       q    Type
                         _______ _______ _______ _____ _____    ______ ____

>  <TORSDO>
F 17

$$$$
