=
 OpenBabel11072412553D

 70 72  0  0  1  0  0  0  0  0999 V2000
  161.6690  210.3500  151.3240 C   0  0  2  0  0  3  0  0  0  0  0  0
  160.1660  212.0860  152.3970 C   0  0  0  0  0  2  0  0  0  0  0  0
  161.4940  209.8450  148.7710 C   0  0  2  0  0  3  0  0  0  0  0  0
  162.4790  212.8550  147.5360 C   0  0  0  0  0  1  0  0  0  0  0  0
  159.8480  213.1170  151.3330 C   0  0  0  0  0  0  0  0  0  0  0  0
  160.2330  212.9550  149.9930 O   0  0  0  0  0  0  0  0  0  0  0  0
  161.5840  211.5380  152.2960 C   0  0  0  0  0  2  0  0  0  0  0  0
  161.3260  211.9980  148.0190 C   0  0  2  0  0  0  0  0  0  0  0  0
  161.5400  210.6610  147.6190 O   0  0  0  0  0  0  0  0  0  0  0  0
  159.1390  214.1630  151.6330 N   0  0  0  0  0  0  0  0  0  0  0  0
  160.1450  212.4630  147.4340 O   0  0  0  0  0  1  0  0  0  0  0  0
  161.2570  212.0700  149.5370 C   0  0  2  0  0  3  0  0  0  0  0  0
  160.9980  210.6600  149.9660 C   0  0  2  0  0  3  0  0  0  0  0  0
  158.6160  214.4510  152.9650 C   0  0  0  0  0  2  0  0  0  0  0  0
  157.3310  213.6740  153.1930 C   0  0  0  0  0  1  0  0  0  0  0  0
  161.1400  209.0760  152.0080 C   0  0  2  0  0  3  0  0  0  0  0  0
  160.1880  209.4640  153.1480 C   0  0  0  0  0  2  0  0  0  0  0  0
  160.5350  208.7400  154.4440 C   0  0  0  0  0  2  0  0  0  0  0  0
  162.3010  210.3010  155.3300 C   0  0  0  0  0  1  0  0  0  0  0  0
  160.9210  209.7040  155.5640 C   0  0  1  0  0  3  0  0  0  0  0  0
  159.8360  210.7570  155.8350 C   0  0  2  0  0  3  0  0  0  0  0  0
  159.7360  211.0710  157.1930 O   0  0  0  0  0  1  0  0  0  0  0  0
  158.4690  210.3680  155.2620 C   0  0  0  0  0  2  0  0  0  0  0  0
  157.3940  211.4210  155.4930 C   0  0  0  0  0  2  0  0  0  0  0  0
  155.4430  209.9170  155.4080 C   0  0  0  0  0  1  0  0  0  0  0  0
  156.1390  211.0710  154.7230 C   0  0  0  0  0  2  0  0  0  0  0  0
  162.1860  208.2630  152.4800 O   0  0  0  0  0  0  0  0  0  0  0  0
  162.2300  207.1490  151.6280 C   0  0  2  0  0  3  0  0  0  0  0  0
  159.8690  207.5280  151.3940 F   0  0  0  0  0  0  0  0  0  0  0  0
  160.8470  205.9750  150.0640 F   0  0  0  0  0  0  0  0  0  0  0  0
  161.0150  207.1850  150.7040 C   0  0  0  0  0  3  0  0  0  0  0  0
  162.3130  205.8550  152.4440 C   0  0  1  0  0  3  0  0  0  0  0  0
  163.0460  206.0740  153.6170 O   0  0  0  0  0  1  0  0  0  0  0  0
  160.9110  205.3870  152.8150 C   0  0  0  0  0  2  0  0  0  0  0  0
  160.7740  203.8760  152.6410 C   0  0  0  0  0  2  0  0  0  0  0  0
  162.4600  202.2150  151.9530 C   0  0  0  0  0  1  0  0  0  0  0  0
  162.3530  204.3120  150.8850 F   0  0  0  0  0  0  0  0  0  0  0  0
  161.5640  203.3280  151.4520 C   0  0  2  0  0  0  0  0  0  0  0  0
  160.4900  201.5480  150.3220 O   0  0  0  0  0  0  0  0  0  0  0  0
  160.6380  202.7540  150.4270 C   0  0  0  0  0  3  0  0  0  0  0  0
  162.8230  209.0950  148.9600 C   0  0  0  0  0  2  0  0  0  0  0  0
  163.4330  206.8100  148.8640 O   0  0  0  0  0  0  0  0  0  0  0  0
  162.8390  207.7330  148.3290 C   0  0  0  0  0  0  0  0  0  0  0  0
  162.0760  207.4920  147.0680 C   0  0  0  0  0  2  0  0  0  0  0  0
  160.6370  207.1140  147.3810 C   0  0  0  0  0  2  0  0  0  0  0  0
  159.9710  206.4930  146.1590 C   0  0  0  0  0  2  0  0  0  0  0  0
  160.9800  206.2000  145.0530 C   0  0  2  0  0  3  0  0  0  0  0  0
  160.6130  206.8340  143.8580 O   0  0  0  0  0  0  0  0  0  0  0  0
  161.2990  206.1550  142.8420 C   0  0  0  0  0  2  0  0  0  0  0  0
  163.6360  206.6500  142.7490 O   0  0  0  0  0  1  0  0  0  0  0  0
  162.3920  207.0390  142.2420 C   0  0  1  0  0  3  0  0  0  0  0  0
  161.6200  205.8770  140.2870 O   0  0  0  0  0  1  0  0  0  0  0  0
  162.3840  206.9690  140.7090 C   0  0  2  0  0  0  0  0  0  0  0  0
  163.6790  206.8220  140.2380 F   0  0  0  0  0  0  0  0  0  0  0  0
  162.8780  209.4530  139.3560 O   0  0  0  0  0  1  0  0  0  0  0  0
  160.9570  209.2580  141.1110 O   0  0  0  0  0  1  0  0  0  0  0  0
  160.5370  208.1070  138.8050 O   0  0  0  0  0  0  0  0  0  0  0  0
  161.6570  208.4890  140.0140 P   0  0  0  0  0  0  0  0  0  0  0  0
  161.1090  204.6950  144.8440 C   0  0  0  0  0  2  0  0  0  0  0  0
  161.8070  202.5720  145.9070 C   0  0  2  0  0  3  0  0  0  0  0  0
  162.7190  203.6770  146.4070 C   0  0  0  0  0  2  0  0  0  0  0  0
  161.2520  203.9560  146.1610 C   0  0  1  0  0  3  0  0  0  0  0  0
  161.4330  201.6670  147.0700 C   0  0  0  0  0  2  0  0  0  0  0  0
  159.2750  201.1750  147.9460 O   0  0  0  0  0  0  0  0  0  0  0  0
  160.0150  201.2030  146.9280 C   0  0  0  0  0  0  0  0  0  0  0  0
  159.4880  200.8260  145.6890 O   0  0  0  0  0  0  0  0  0  0  0  0
  160.2770  200.7420  144.5030 C   0  0  0  0  0  2  0  0  0  0  0  0
  161.2040  199.5320  144.5540 C   0  0  0  0  0  2  0  0  0  0  0  0
  160.6080  198.4280  145.4130 C   0  0  0  0  0  2  0  0  0  0  0  0
  161.5630  198.0510  146.5280 C   0  0  0  0  0  1  0  0  0  0  0  0
  1 16  1  1  0  0  0
  1  7  1  0  0  0  0
  3 41  1  1  0  0  0
  3 13  1  0  0  0  0
  5 10  2  0  0  0  0
  5  2  1  0  0  0  0
  6  5  1  0  0  0  0
  7  2  1  0  0  0  0
  8  4  1  6  0  0  0
  8 12  1  0  0  0  0
  9  8  1  0  0  0  0
  9  3  1  0  0  0  0
 10 14  1  0  0  0  0
 11  8  1  0  0  0  0
 12 13  1  0  0  0  0
 12  6  1  6  0  0  0
 13  1  1  0  0  0  0
 14 15  1  0  0  0  0
 16 27  1  0  0  0  0
 16 17  1  0  0  0  0
 17 18  1  0  0  0  0
 18 20  1  0  0  0  0
 19 20  1  0  0  0  0
 20 21  1  0  0  0  0
 21 22  1  0  0  0  0
 23 24  1  0  0  0  0
 23 21  1  0  0  0  0
 26 25  1  0  0  0  0
 26 24  1  0  0  0  0
 28 32  1  0  0  0  0
 28 27  1  0  0  0  0
 30 31  1  0  0  0  0
 31 29  1  0  0  0  0
 31 28  1  0  0  0  0
 32 34  1  0  0  0  0
 32 33  1  0  0  0  0
 35 34  1  0  0  0  0
 37 38  1  0  0  0  0
 38 36  1  0  0  0  0
 38 35  1  0  0  0  0
 39 40  2  0  0  0  0
 40 38  1  0  0  0  0
 43 42  2  0  0  0  0
 43 41  1  0  0  0  0
 44 45  1  0  0  0  0
 44 43  1  0  0  0  0
 46 45  1  0  0  0  0
 47 46  1  0  0  0  0
 48 47  1  0  0  0  0
 49 48  1  0  0  0  0
 51 50  1  0  0  0  0
 51 49  1  0  0  0  0
 52 53  1  0  0  0  0
 53 51  1  0  0  0  0
 54 53  1  0  0  0  0
 55 58  1  0  0  0  0
 57 58  2  0  0  0  0
 58 53  1  0  0  0  0
 58 56  1  0  0  0  0
 59 47  1  0  0  0  0
 59 62  1  0  0  0  0
 60 62  1  0  0  0  0
 60 61  1  0  0  0  0
 60 63  1  0  0  0  0
 62 61  1  0  0  0  0
 65 63  1  0  0  0  0
 65 64  2  0  0  0  0
 66 65  1  0  0  0  0
 67 68  1  0  0  0  0
 67 66  1  0  0  0  0
 68 69  1  0  0  0  0
 69 70  1  0  0  0  0
M  END
>  <MODEL>
1

>  <REMARK>
 VINA RESULT:       4.4      0.000      0.000
  Name = 
  36 active torsions:
  status: ('A' for Active; 'I' for Inactive)
    1  A    between atoms: C_1  and  C_59
    2  A    between atoms: C_1  and  O_60
    3  A    between atoms: C_6  and  C_8
    4  A    between atoms: C_7  and  C_57
    5  A    between atoms: C_8  and  C_36
    6  A    between atoms: C_9  and  C_62
    7  A    between atoms: C_10  and  C_30
    8  A    between atoms: C_10  and  C_56
    9  A    between atoms: C_11  and  C_16
   10  A    between atoms: C_11  and  C_43
   11  A    between atoms: C_12  and  C_41
   12  A    between atoms: C_12  and  C_51
   13  A    between atoms: C_15  and  C_54
   14  A    between atoms: C_16  and  C_58
   15  A    between atoms: C_17  and  C_26
   16  A    between atoms: C_17  and  C_65
   17  A    between atoms: C_19  and  N_47
   18  A    between atoms: C_25  and  C_34
   19  A    between atoms: C_25  and  C_50
   20  A    between atoms: C_26  and  O_60
   21  A    between atoms: C_26  and  C_70
   22  A    between atoms: C_27  and  P_49
   23  A    between atoms: C_27  and  C_59
   24  A    between atoms: C_30  and  C_70
   25  A    between atoms: C_33  and  C_34
   26  A    between atoms: C_33  and  C_52
   27  A    between atoms: O_35  and  C_36
   28  A    between atoms: O_35  and  C_41
   29  A    between atoms: O_37  and  C_58
   30  A    between atoms: O_37  and  C_62
   31  A    between atoms: C_40  and  C_68
   32  A    between atoms: C_43  and  C_68
   33  A    between atoms: C_50  and  C_57
   34  A    between atoms: C_52  and  C_62
   35  A    between atoms: C_53  and  C_58
   36  A    between atoms: C_54  and  C_56
                            x       y       z     vdW  Elec       q    Type
                         _______ _______ _______ _____ _____    ______ ____

>  <TORSDO>
F 36

$$$$
