=
 OpenBabel11072410593D

 42 47  0  0  1  0  0  0  0  0999 V2000
  160.8440  211.3050  152.9860 P   0  0  2  0  0  0  0  0  0  0  0  0
  161.6480  206.2410  153.1010 C   0  0  0  0  0  3  0  0  0  0  0  0
  160.1740  212.2230  151.6710 O   0  0  0  0  0  1  0  0  0  0  0  0
  161.1320  207.2750  155.1770 N   0  0  0  0  0  0  0  0  0  0  0  0
  160.7590  208.5030  153.1450 C   0  0  0  0  0  0  0  0  0  0  0  0
  160.0550  209.1590  156.8130 N   0  0  0  0  0  1  0  0  0  0  0  0
  160.3180  209.5890  155.4470 C   0  0  2  0  0  3  0  0  0  0  0  0
  159.1480  210.3010  154.9360 N   0  0  0  0  0  2  0  0  0  0  0  0
  161.5820  206.1990  154.4860 C   0  0  0  0  0  3  0  0  0  0  0  0
  160.0970  212.4990  155.4010 C   0  0  0  0  0  1  0  0  0  0  0  0
  160.7020  208.4150  154.5670 C   0  0  0  0  0  0  0  0  0  0  0  0
  161.2560  207.3910  152.4170 C   0  0  0  0  0  0  0  0  0  0  0  0
  160.1690  209.6710  152.4020 C   0  0  0  0  0  2  0  0  0  0  0  0
  159.5270  211.5860  154.3190 C   0  0  1  0  0  0  0  0  0  0  0  0
  158.1820  212.3050  152.4660 O   0  0  0  0  0  0  0  0  0  0  0  0
  156.0510  213.3980  153.9490 C   0  0  0  0  0  2  0  0  0  0  0  0
  155.9800  213.5980  156.4130 C   0  0  0  0  0  3  0  0  0  0  0  0
  155.3020  213.8830  155.1250 C   0  0  0  0  0  0  0  0  0  0  0  0
  157.2560  212.8790  155.9930 C   0  0  0  0  0  3  0  0  0  0  0  0
  158.2790  212.2210  153.7220 C   0  0  0  0  0  0  0  0  0  0  0  0
  157.2250  212.7770  154.5350 N   0  0  0  0  0  0  0  0  0  0  0  0
  154.2270  214.4530  155.0450 O   0  0  0  0  0  0  0  0  0  0  0  0
  161.3680  207.3660  150.9840 N   0  0  0  0  0  2  0  0  0  0  0  0
  160.3610  206.8390  150.0720 C   0  0  0  0  0  2  0  0  0  0  0  0
  160.7110  205.0920  144.0990 C   0  0  0  0  0  3  0  0  0  0  0  0
  160.7670  205.8670  146.3780 C   0  0  0  0  0  0  0  0  0  0  0  0
  162.1390  206.1260  146.2380 C   0  0  0  0  0  0  0  0  0  0  0  0
  162.8980  206.6790  147.3690 C   0  0  0  0  0  3  0  0  0  0  0  0
  160.0450  205.3550  145.3000 C   0  0  0  0  0  3  0  0  0  0  0  0
  162.7640  205.8590  145.0200 C   0  0  0  0  0  3  0  0  0  0  0  0
  160.0660  206.2420  147.6530 C   0  0  0  0  0  2  0  0  0  0  0  0
  162.0430  205.3490  143.9830 N   0  0  0  0  0  0  0  0  0  0  0  0
  160.9930  206.1080  148.8840 C   0  0  1  0  0  0  0  0  0  0  0  0
  162.3550  206.7150  148.5900 C   0  0  0  0  0  3  0  0  0  0  0  0
  160.6340  201.6830  149.8510 C   0  0  0  0  0  0  0  0  0  0  0  0
  160.6500  202.8010  150.8950 C   0  0  0  0  0  2  0  0  0  0  0  0
  161.1700  204.6110  149.2340 C   0  0  1  0  0  3  0  0  0  0  0  0
  161.1750  200.4290  150.5020 C   0  0  0  0  0  1  0  0  0  0  0  0
  159.2130  201.3960  149.3870 C   0  0  0  0  0  1  0  0  0  0  0  0
  160.2100  204.1490  150.3310 C   0  0  0  0  0  2  0  0  0  0  0  0
  160.9870  203.5230  147.7710 S   0  0  0  0  0  0  0  0  0  0  0  0
  161.5380  202.0290  148.6640 C   0  0  0  0  0  2  0  0  0  0  0  0
  1  3  1  6  0  0  0
  1 14  1  0  0  0  0
  2  9  1  0  0  0  0
  5 11  2  0  0  0  0
  7  6  1  1  0  0  0
  8  7  1  0  0  0  0
  9  4  2  0  0  0  0
 11  4  1  0  0  0  0
 11  7  1  0  0  0  0
 12  2  2  0  0  0  0
 12  5  1  0  0  0  0
 13  1  1  0  0  0  0
 13  5  1  0  0  0  0
 14  8  1  0  0  0  0
 14 10  1  1  0  0  0
 15 20  2  0  0  0  0
 16 21  1  0  0  0  0
 16 18  1  0  0  0  0
 18 17  1  0  0  0  0
 19 17  2  0  0  0  0
 20 14  1  0  0  0  0
 20 21  1  0  0  0  0
 21 19  1  0  0  0  0
 22 18  2  0  0  0  0
 23 12  1  0  0  0  0
 24 23  1  0  0  0  0
 25 29  1  0  0  0  0
 26 31  1  0  0  0  0
 27 26  1  0  0  0  0
 27 28  1  0  0  0  0
 28 34  2  0  0  0  0
 29 26  2  0  0  0  0
 30 27  2  0  0  0  0
 31 33  1  0  0  0  0
 32 25  2  0  0  0  0
 32 30  1  0  0  0  0
 33 37  1  0  0  0  0
 33 24  1  1  0  0  0
 34 33  1  0  0  0  0
 35 38  1  0  0  0  0
 35 36  1  0  0  0  0
 37 40  1  1  0  0  0
 39 35  1  0  0  0  0
 40 36  1  0  0  0  0
 41 42  1  0  0  0  0
 41 37  1  0  0  0  0
 42 35  1  0  0  0  0
M  END
>  <MODEL>
1

>  <REMARK>
 VINA RESULT:      -6.4      0.000      0.000
  Name = 
  5 active torsions:
  status: ('A' for Active; 'I' for Inactive)
    1  A    between atoms: N_7  and  C_37
    2  A    between atoms: N_7  and  C_38
    3  A    between atoms: C_16  and  C_30
    4  A    between atoms: C_26  and  C_41
    5  A    between atoms: C_30  and  C_37
                            x       y       z     vdW  Elec       q    Type
                         _______ _______ _______ _____ _____    ______ ____

>  <TORSDO>
F 5

$$$$
=
 OpenBabel11072410593D

 42 47  0  0  1  0  0  0  0  0999 V2000
  160.7760  213.8280  146.4430 P   0  0  2  0  0  0  0  0  0  0  0  0
  158.8010  213.1490  151.1270 C   0  0  0  0  0  3  0  0  0  0  0  0
  162.1310  212.9880  145.7520 O   0  0  0  0  0  1  0  0  0  0  0  0
  157.2770  213.7980  149.4230 N   0  0  0  0  0  0  0  0  0  0  0  0
  159.4630  213.0260  148.7910 C   0  0  0  0  0  0  0  0  0  0  0  0
  156.3440  214.0230  146.8810 N   0  0  0  0  0  1  0  0  0  0  0  0
  157.7820  213.8430  147.0080 C   0  0  2  0  0  3  0  0  0  0  0  0
  158.2220  212.8190  146.0610 N   0  0  0  0  0  2  0  0  0  0  0  0
  157.5550  213.6200  150.7380 C   0  0  0  0  0  3  0  0  0  0  0  0
  158.9620  214.4530  144.4080 C   0  0  0  0  0  1  0  0  0  0  0  0
  158.1690  213.5050  148.4350 C   0  0  0  0  0  0  0  0  0  0  0  0
  159.7710  212.8640  150.1680 C   0  0  0  0  0  0  0  0  0  0  0  0
  160.4420  212.5480  147.7530 C   0  0  0  0  0  2  0  0  0  0  0  0
  159.3870  213.2730  145.2790 C   0  0  1  0  0  0  0  0  0  0  0  0
  159.7590  210.9450  144.8310 O   0  0  0  0  0  0  0  0  0  0  0  0
  160.8900  211.2320  142.2670 C   0  0  0  0  0  2  0  0  0  0  0  0
  161.4080  213.3850  141.1670 C   0  0  0  0  0  3  0  0  0  0  0  0
  161.4740  211.9060  141.0900 C   0  0  0  0  0  0  0  0  0  0  0  0
  160.7300  213.6440  142.5070 C   0  0  0  0  0  3  0  0  0  0  0  0
  159.8500  212.1260  144.3920 C   0  0  0  0  0  0  0  0  0  0  0  0
  160.4340  212.3370  143.0910 N   0  0  0  0  0  0  0  0  0  0  0  0
  161.9530  211.3040  140.1440 O   0  0  0  0  0  0  0  0  0  0  0  0
  161.0430  212.3970  150.6460 N   0  0  0  0  0  2  0  0  0  0  0  0
  161.4850  211.0080  150.6390 C   0  0  0  0  0  2  0  0  0  0  0  0
  162.4200  210.3750  156.7680 C   0  0  0  0  0  3  0  0  0  0  0  0
  161.8490  210.6520  154.4460 C   0  0  0  0  0  0  0  0  0  0  0  0
  160.4990  210.4520  154.7730 C   0  0  0  0  0  0  0  0  0  0  0  0
  159.4770  210.4980  153.7170 C   0  0  0  0  0  3  0  0  0  0  0  0
  162.8160  210.6220  155.4510 C   0  0  0  0  0  3  0  0  0  0  0  0
  160.1440  210.2180  156.1020 C   0  0  0  0  0  3  0  0  0  0  0  0
  162.2280  211.0010  153.0350 C   0  0  0  0  0  2  0  0  0  0  0  0
  161.1060  210.1820  157.0650 N   0  0  0  0  0  0  0  0  0  0  0  0
  161.2880  210.3380  152.0020 C   0  0  1  0  0  0  0  0  0  0  0  0
  159.8380  210.4910  152.4310 C   0  0  0  0  0  3  0  0  0  0  0  0
  161.5170  205.8630  151.2460 C   0  0  0  0  0  0  0  0  0  0  0  0
  160.9160  206.5030  152.5000 C   0  0  0  0  0  2  0  0  0  0  0  0
  161.6280  208.8320  151.8910 C   0  0  1  0  0  3  0  0  0  0  0  0
  162.0250  204.4880  151.6210 C   0  0  0  0  0  1  0  0  0  0  0  0
  160.4590  205.6950  150.1660 C   0  0  0  0  0  1  0  0  0  0  0  0
  160.4480  207.9360  152.2720 C   0  0  0  0  0  2  0  0  0  0  0  0
  162.2250  208.3700  150.2210 S   0  0  0  0  0  0  0  0  0  0  0  0
  162.7020  206.6820  150.7280 C   0  0  0  0  0  2  0  0  0  0  0  0
  1  3  1  6  0  0  0
  1 13  1  0  0  0  0
  4  9  2  0  0  0  0
  5 12  1  0  0  0  0
  7  6  1  1  0  0  0
  7 11  1  0  0  0  0
  8  7  1  0  0  0  0
  9  2  1  0  0  0  0
 11  5  2  0  0  0  0
 11  4  1  0  0  0  0
 12 23  1  0  0  0  0
 12  2  2  0  0  0  0
 13  5  1  0  0  0  0
 14 10  1  6  0  0  0
 14  8  1  0  0  0  0
 14  1  1  0  0  0  0
 16 21  1  0  0  0  0
 17 19  2  0  0  0  0
 18 17  1  0  0  0  0
 18 16  1  0  0  0  0
 19 21  1  0  0  0  0
 20 15  2  0  0  0  0
 20 14  1  0  0  0  0
 21 20  1  0  0  0  0
 22 18  2  0  0  0  0
 24 23  1  0  0  0  0
 25 32  1  0  0  0  0
 26 27  2  0  0  0  0
 26 29  1  0  0  0  0
 27 30  1  0  0  0  0
 28 27  1  0  0  0  0
 29 25  2  0  0  0  0
 30 32  2  0  0  0  0
 31 26  1  0  0  0  0
 33 24  1  6  0  0  0
 33 34  1  0  0  0  0
 33 31  1  0  0  0  0
 34 28  2  0  0  0  0
 35 38  1  0  0  0  0
 35 36  1  0  0  0  0
 37 33  1  0  0  0  0
 37 40  1  6  0  0  0
 39 35  1  0  0  0  0
 40 36  1  0  0  0  0
 41 42  1  0  0  0  0
 41 37  1  0  0  0  0
 42 35  1  0  0  0  0
M  END
>  <MODEL>
2

>  <REMARK>
 VINA RESULT:      -6.0      5.295      9.438
  Name = 
  5 active torsions:
  status: ('A' for Active; 'I' for Inactive)
    1  A    between atoms: N_7  and  C_37
    2  A    between atoms: N_7  and  C_38
    3  A    between atoms: C_16  and  C_30
    4  A    between atoms: C_26  and  C_41
    5  A    between atoms: C_30  and  C_37
                            x       y       z     vdW  Elec       q    Type
                         _______ _______ _______ _____ _____    ______ ____

>  <TORSDO>
F 5

$$$$
=
 OpenBabel11072410593D

 42 47  0  0  1  0  0  0  0  0999 V2000
  162.5920  211.8380  148.7560 P   0  0  2  0  0  0  0  0  0  0  0  0
  160.6600  209.8050  153.0500 C   0  0  0  0  0  3  0  0  0  0  0  0
  162.9450  211.0010  147.2740 O   0  0  0  0  0  1  0  0  0  0  0  0
  160.0870  212.0680  152.6030 N   0  0  0  0  0  0  0  0  0  0  0  0
  161.0670  210.7510  150.8480 C   0  0  0  0  0  0  0  0  0  0  0  0
  159.6350  214.2550  151.0550 N   0  0  0  0  0  1  0  0  0  0  0  0
  160.5070  213.2450  150.4750 C   0  0  2  0  0  3  0  0  0  0  0  0
  160.0930  212.9910  149.0960 N   0  0  0  0  0  2  0  0  0  0  0  0
  160.1340  211.0210  153.4630 C   0  0  0  0  0  3  0  0  0  0  0  0
  161.8040  214.4530  148.1560 C   0  0  0  0  0  1  0  0  0  0  0  0
  160.5140  211.9800  151.3110 C   0  0  0  0  0  0  0  0  0  0  0  0
  161.1460  209.6590  151.7510 C   0  0  0  0  0  0  0  0  0  0  0  0
  161.4230  210.5410  149.4000 C   0  0  0  0  0  2  0  0  0  0  0  0
  161.2420  213.0340  148.1720 C   0  0  1  0  0  0  0  0  0  0  0  0
  159.6940  211.9880  146.6660 O   0  0  0  0  0  0  0  0  0  0  0  0
  161.0180  212.6260  144.2630 C   0  0  0  0  0  2  0  0  0  0  0  0
  163.2120  213.7540  144.0970 C   0  0  0  0  0  3  0  0  0  0  0  0
  162.0920  213.1060  143.3720 C   0  0  0  0  0  0  0  0  0  0  0  0
  162.7930  213.6620  145.5580 C   0  0  0  0  0  3  0  0  0  0  0  0
  160.7560  212.6630  146.7790 C   0  0  0  0  0  0  0  0  0  0  0  0
  161.4850  213.0070  145.5840 N   0  0  0  0  0  0  0  0  0  0  0  0
  162.0570  212.9910  142.1580 O   0  0  0  0  0  0  0  0  0  0  0  0
  161.6910  208.3760  151.4010 N   0  0  0  0  0  2  0  0  0  0  0  0
  160.9360  207.1310  151.3420 C   0  0  0  0  0  2  0  0  0  0  0  0
  160.5150  206.0780  145.2140 C   0  0  0  0  0  3  0  0  0  0  0  0
  160.8920  206.5040  147.5530 C   0  0  0  0  0  0  0  0  0  0  0  0
  162.2540  206.2210  147.3670 C   0  0  0  0  0  0  0  0  0  0  0  0
  163.1800  206.3010  148.5050 C   0  0  0  0  0  3  0  0  0  0  0  0
  160.0170  206.4420  146.4680 C   0  0  0  0  0  3  0  0  0  0  0  0
  162.7120  205.8710  146.0960 C   0  0  0  0  0  3  0  0  0  0  0  0
  160.4080  206.9760  148.8940 C   0  0  0  0  0  2  0  0  0  0  0  0
  161.8390  205.8050  145.0530 N   0  0  0  0  0  0  0  0  0  0  0  0
  161.2180  206.3520  150.0540 C   0  0  1  0  0  0  0  0  0  0  0  0
  162.7060  206.4070  149.7510 C   0  0  0  0  0  3  0  0  0  0  0  0
  160.7800  201.8360  150.3050 C   0  0  0  0  0  0  0  0  0  0  0  0
  160.3860  202.6810  149.0910 C   0  0  0  0  0  2  0  0  0  0  0  0
  160.7930  204.8750  150.2410 C   0  0  1  0  0  3  0  0  0  0  0  0
  159.9150  200.5940  150.3110 C   0  0  0  0  0  1  0  0  0  0  0  0
  162.2340  201.3950  150.2060 C   0  0  0  0  0  1  0  0  0  0  0  0
  161.1280  204.0110  149.0250 C   0  0  0  0  0  2  0  0  0  0  0  0
  161.5260  204.1200  151.7410 S   0  0  0  0  0  0  0  0  0  0  0  0
  160.5270  202.5980  151.6080 C   0  0  0  0  0  2  0  0  0  0  0  0
  1  3  1  6  0  0  0
  1 13  1  0  0  0  0
  2  9  1  0  0  0  0
  4  9  2  0  0  0  0
  5 11  2  0  0  0  0
  5 12  1  0  0  0  0
  7  6  1  1  0  0  0
  7 11  1  0  0  0  0
  8  7  1  0  0  0  0
 11  4  1  0  0  0  0
 12  2  2  0  0  0  0
 13  5  1  0  0  0  0
 14 10  1  6  0  0  0
 14  1  1  0  0  0  0
 14  8  1  0  0  0  0
 15 20  2  0  0  0  0
 16 21  1  0  0  0  0
 17 19  2  0  0  0  0
 18 17  1  0  0  0  0
 18 16  1  0  0  0  0
 19 21  1  0  0  0  0
 20 14  1  0  0  0  0
 21 20  1  0  0  0  0
 22 18  2  0  0  0  0
 23 12  1  0  0  0  0
 24 23  1  0  0  0  0
 25 29  1  0  0  0  0
 26 31  1  0  0  0  0
 27 26  1  0  0  0  0
 27 28  1  0  0  0  0
 28 34  2  0  0  0  0
 29 26  2  0  0  0  0
 30 27  2  0  0  0  0
 31 33  1  0  0  0  0
 32 25  2  0  0  0  0
 32 30  1  0  0  0  0
 33 37  1  0  0  0  0
 33 24  1  1  0  0  0
 34 33  1  0  0  0  0
 35 38  1  0  0  0  0
 35 42  1  0  0  0  0
 36 35  1  0  0  0  0
 37 40  1  6  0  0  0
 37 41  1  0  0  0  0
 39 35  1  0  0  0  0
 40 36  1  0  0  0  0
 42 41  1  0  0  0  0
M  END
>  <MODEL>
3

>  <REMARK>
 VINA RESULT:      -5.3      4.100      6.066
  Name = 
  5 active torsions:
  status: ('A' for Active; 'I' for Inactive)
    1  A    between atoms: N_7  and  C_37
    2  A    between atoms: N_7  and  C_38
    3  A    between atoms: C_16  and  C_30
    4  A    between atoms: C_26  and  C_41
    5  A    between atoms: C_30  and  C_37
                            x       y       z     vdW  Elec       q    Type
                         _______ _______ _______ _____ _____    ______ ____

>  <TORSDO>
F 5

$$$$
=
 OpenBabel11072410593D

 42 47  0  0  1  0  0  0  0  0999 V2000
  160.1220  206.0430  148.9740 P   0  0  2  0  0  0  0  0  0  0  0  0
  161.2120  206.8560  153.9190 C   0  0  0  0  0  3  0  0  0  0  0  0
  160.4800  207.0990  147.6420 O   0  0  0  0  0  1  0  0  0  0  0  0
  161.2050  204.5920  153.1990 N   0  0  0  0  0  0  0  0  0  0  0  0
  161.2130  206.3350  151.5450 C   0  0  0  0  0  0  0  0  0  0  0  0
  161.4330  202.5520  151.4170 N   0  0  0  0  0  1  0  0  0  0  0  0
  161.1040  203.8500  150.8470 C   0  0  2  0  0  3  0  0  0  0  0  0
  161.9600  204.0930  149.6870 N   0  0  0  0  0  2  0  0  0  0  0  0
  161.2150  205.4980  154.2070 C   0  0  0  0  0  3  0  0  0  0  0  0
  160.2520  203.3930  148.0930 C   0  0  0  0  0  1  0  0  0  0  0  0
  161.2210  204.9510  151.8840 C   0  0  0  0  0  0  0  0  0  0  0  0
  161.1940  207.2900  152.5950 C   0  0  0  0  0  0  0  0  0  0  0  0
  161.3760  206.8010  150.1230 C   0  0  0  0  0  2  0  0  0  0  0  0
  161.1730  204.5330  148.5190 C   0  0  1  0  0  0  0  0  0  0  0  0
  163.3490  205.0660  147.6610 O   0  0  0  0  0  0  0  0  0  0  0  0
  162.6280  205.3400  144.9520 C   0  0  0  0  0  2  0  0  0  0  0  0
  160.3210  205.2150  144.0680 C   0  0  0  0  0  3  0  0  0  0  0  0
  161.7540  205.4540  143.7670 C   0  0  0  0  0  0  0  0  0  0  0  0
  160.3130  204.9350  145.5650 C   0  0  0  0  0  3  0  0  0  0  0  0
  162.1340  204.8630  147.3860 C   0  0  0  0  0  0  0  0  0  0  0  0
  161.7020  205.0030  146.0180 N   0  0  0  0  0  0  0  0  0  0  0  0
  162.1710  205.7080  142.6500 O   0  0  0  0  0  0  0  0  0  0  0  0
  161.1750  208.7100  152.3760 N   0  0  0  0  0  2  0  0  0  0  0  0
  159.9970  209.4890  152.0150 C   0  0  0  0  0  2  0  0  0  0  0  0
  157.4550  214.2470  155.1360 C   0  0  0  0  0  3  0  0  0  0  0  0
  158.5780  212.3900  154.0950 C   0  0  0  0  0  0  0  0  0  0  0  0
  159.6660  212.5850  154.9600 C   0  0  0  0  0  0  0  0  0  0  0  0
  160.8370  211.7020  154.8730 C   0  0  0  0  0  3  0  0  0  0  0  0
  157.4610  213.2200  154.1890 C   0  0  0  0  0  3  0  0  0  0  0  0
  159.6160  213.6160  155.8990 C   0  0  0  0  0  3  0  0  0  0  0  0
  158.5820  211.2240  153.1480 C   0  0  0  0  0  2  0  0  0  0  0  0
  158.5210  214.4220  155.9660 N   0  0  0  0  0  0  0  0  0  0  0  0
  160.0090  210.8760  152.6630 C   0  0  1  0  0  0  0  0  0  0  0  0
  160.9800  210.8750  153.8320 C   0  0  0  0  0  3  0  0  0  0  0  0
  160.9900  213.4160  149.0260 C   0  0  0  0  0  0  0  0  0  0  0  0
  161.9170  212.3520  149.6180 C   0  0  0  0  0  2  0  0  0  0  0  0
  160.4680  211.9270  151.6240 C   0  0  1  0  0  3  0  0  0  0  0  0
  161.8500  214.4530  148.3360 C   0  0  0  0  0  1  0  0  0  0  0  0
  160.0630  212.8060  147.9840 C   0  0  0  0  0  1  0  0  0  0  0  0
  161.1710  211.2930  150.4220 C   0  0  0  0  0  2  0  0  0  0  0  0
  159.0900  212.9790  151.0340 S   0  0  0  0  0  0  0  0  0  0  0  0
  160.1900  214.1190  150.1260 C   0  0  0  0  0  2  0  0  0  0  0  0
  1  3  1  6  0  0  0
  1 13  1  0  0  0  0
  2  9  1  0  0  0  0
  4  9  2  0  0  0  0
  5 11  2  0  0  0  0
  5 12  1  0  0  0  0
  7  6  1  1  0  0  0
  7 11  1  0  0  0  0
  8  7  1  0  0  0  0
 11  4  1  0  0  0  0
 12  2  2  0  0  0  0
 13  5  1  0  0  0  0
 14 10  1  6  0  0  0
 14  1  1  0  0  0  0
 14  8  1  0  0  0  0
 16 21  1  0  0  0  0
 17 19  2  0  0  0  0
 18 17  1  0  0  0  0
 18 16  1  0  0  0  0
 19 21  1  0  0  0  0
 20 15  2  0  0  0  0
 20 14  1  0  0  0  0
 21 20  1  0  0  0  0
 22 18  2  0  0  0  0
 23 12  1  0  0  0  0
 24 23  1  0  0  0  0
 25 32  1  0  0  0  0
 26 29  1  0  0  0  0
 26 27  2  0  0  0  0
 27 30  1  0  0  0  0
 28 27  1  0  0  0  0
 29 25  2  0  0  0  0
 30 32  2  0  0  0  0
 31 26  1  0  0  0  0
 33 24  1  6  0  0  0
 33 31  1  0  0  0  0
 33 34  1  0  0  0  0
 34 28  2  0  0  0  0
 35 36  1  0  0  0  0
 35 42  1  0  0  0  0
 36 40  1  0  0  0  0
 37 40  1  6  0  0  0
 37 33  1  0  0  0  0
 38 35  1  0  0  0  0
 39 35  1  0  0  0  0
 41 37  1  0  0  0  0
 42 41  1  0  0  0  0
M  END
>  <MODEL>
4

>  <REMARK>
 VINA RESULT:      -4.0      3.902     10.090
  Name = 
  5 active torsions:
  status: ('A' for Active; 'I' for Inactive)
    1  A    between atoms: N_7  and  C_37
    2  A    between atoms: N_7  and  C_38
    3  A    between atoms: C_16  and  C_30
    4  A    between atoms: C_26  and  C_41
    5  A    between atoms: C_30  and  C_37
                            x       y       z     vdW  Elec       q    Type
                         _______ _______ _______ _____ _____    ______ ____

>  <TORSDO>
F 5

$$$$
=
 OpenBabel11072410593D

 42 47  0  0  1  0  0  0  0  0999 V2000
  160.3380  206.4510  148.5450 P   0  0  2  0  0  0  0  0  0  0  0  0
  162.3450  210.8040  150.3700 C   0  0  0  0  0  3  0  0  0  0  0  0
  160.4830  205.8370  146.9250 O   0  0  0  0  0  1  0  0  0  0  0  0
  162.1260  209.0130  151.9160 N   0  0  0  0  0  0  0  0  0  0  0  0
  161.8920  208.5540  149.5690 C   0  0  0  0  0  0  0  0  0  0  0  0
  161.9520  206.4160  152.7000 N   0  0  0  0  0  1  0  0  0  0  0  0
  161.5700  206.6830  151.3210 C   0  0  2  0  0  3  0  0  0  0  0  0
  162.2070  205.6970  150.4490 N   0  0  0  0  0  2  0  0  0  0  0  0
  162.3530  210.3270  151.6740 C   0  0  0  0  0  3  0  0  0  0  0  0
  160.2110  204.2990  150.3250 C   0  0  0  0  0  1  0  0  0  0  0  0
  161.9140  208.1050  150.9220 C   0  0  0  0  0  0  0  0  0  0  0  0
  162.1000  209.9340  149.3090 C   0  0  0  0  0  0  0  0  0  0  0  0
  161.8070  207.5880  148.4180 C   0  0  0  0  0  2  0  0  0  0  0  0
  161.2340  205.0940  149.5180 C   0  0  1  0  0  0  0  0  0  0  0  0
  163.0280  204.5780  148.0100 O   0  0  0  0  0  0  0  0  0  0  0  0
  162.2290  201.9570  147.3590 C   0  0  0  0  0  2  0  0  0  0  0  0
  160.1390  200.8710  148.1140 C   0  0  0  0  0  3  0  0  0  0  0  0
  161.3670  200.7600  147.2890 C   0  0  0  0  0  0  0  0  0  0  0  0
  160.2550  202.2540  148.7430 C   0  0  0  0  0  3  0  0  0  0  0  0
  161.9820  204.1590  148.5790 C   0  0  0  0  0  0  0  0  0  0  0  0
  161.5150  202.8290  148.2740 N   0  0  0  0  0  0  0  0  0  0  0  0
  161.6420  199.7750  146.6250 O   0  0  0  0  0  0  0  0  0  0  0  0
  162.0910  210.5030  147.9900 N   0  0  0  0  0  2  0  0  0  0  0  0
  162.4310  211.8840  147.6690 C   0  0  0  0  0  2  0  0  0  0  0  0
  156.3730  212.6490  146.4170 C   0  0  0  0  0  3  0  0  0  0  0  0
  158.6930  212.5140  147.0460 C   0  0  0  0  0  0  0  0  0  0  0  0
  158.5880  213.7810  147.6410 C   0  0  0  0  0  0  0  0  0  0  0  0
  159.7590  214.3810  148.2950 C   0  0  0  0  0  3  0  0  0  0  0  0
  157.5770  211.9390  146.4380 C   0  0  0  0  0  3  0  0  0  0  0  0
  157.3650  214.4520  147.6070 C   0  0  0  0  0  3  0  0  0  0  0  0
  159.9780  211.7430  147.1620 C   0  0  0  0  0  2  0  0  0  0  0  0
  156.2910  213.8780  146.9980 N   0  0  0  0  0  0  0  0  0  0  0  0
  161.2110  212.6750  147.1860 C   0  0  1  0  0  0  0  0  0  0  0  0
  160.9720  213.8470  148.1240 C   0  0  0  0  0  3  0  0  0  0  0  0
  162.3630  213.4690  142.8630 C   0  0  0  0  0  0  0  0  0  0  0  0
  163.2370  213.8120  144.0720 C   0  0  0  0  0  2  0  0  0  0  0  0
  161.4770  213.2140  145.7600 C   0  0  1  0  0  3  0  0  0  0  0  0
  162.7100  214.4310  141.7480 C   0  0  0  0  0  1  0  0  0  0  0  0
  162.6500  212.0570  142.3730 C   0  0  0  0  0  1  0  0  0  0  0  0
  162.9140  212.9660  145.2990 C   0  0  0  0  0  2  0  0  0  0  0  0
  160.3160  212.5220  144.5220 S   0  0  0  0  0  0  0  0  0  0  0  0
  160.8780  213.6420  143.1940 C   0  0  0  0  0  2  0  0  0  0  0  0
  1  3  1  6  0  0  0
  1 14  1  0  0  0  0
  2  9  1  0  0  0  0
  5 11  2  0  0  0  0
  7  6  1  1  0  0  0
  8  7  1  0  0  0  0
  9  4  2  0  0  0  0
 11  7  1  0  0  0  0
 11  4  1  0  0  0  0
 12  5  1  0  0  0  0
 12  2  2  0  0  0  0
 13  1  1  0  0  0  0
 13  5  1  0  0  0  0
 14 10  1  1  0  0  0
 14  8  1  0  0  0  0
 15 20  2  0  0  0  0
 16 21  1  0  0  0  0
 17 19  2  0  0  0  0
 18 16  1  0  0  0  0
 18 17  1  0  0  0  0
 20 14  1  0  0  0  0
 21 20  1  0  0  0  0
 21 19  1  0  0  0  0
 22 18  2  0  0  0  0
 23 12  1  0  0  0  0
 24 23  1  0  0  0  0
 25 29  2  0  0  0  0
 25 32  1  0  0  0  0
 26 31  1  0  0  0  0
 26 27  2  0  0  0  0
 27 28  1  0  0  0  0
 29 26  1  0  0  0  0
 30 27  1  0  0  0  0
 31 33  1  0  0  0  0
 32 30  2  0  0  0  0
 33 24  1  1  0  0  0
 33 34  1  0  0  0  0
 34 28  2  0  0  0  0
 35 42  1  0  0  0  0
 35 36  1  0  0  0  0
 36 40  1  0  0  0  0
 37 40  1  6  0  0  0
 37 33  1  0  0  0  0
 38 35  1  0  0  0  0
 39 35  1  0  0  0  0
 41 37  1  0  0  0  0
 42 41  1  0  0  0  0
M  END
>  <MODEL>
5

>  <REMARK>
 VINA RESULT:      -4.0      5.824      9.910
  Name = 
  5 active torsions:
  status: ('A' for Active; 'I' for Inactive)
    1  A    between atoms: N_7  and  C_37
    2  A    between atoms: N_7  and  C_38
    3  A    between atoms: C_16  and  C_30
    4  A    between atoms: C_26  and  C_41
    5  A    between atoms: C_30  and  C_37
                            x       y       z     vdW  Elec       q    Type
                         _______ _______ _______ _____ _____    ______ ____

>  <TORSDO>
F 5

$$$$
=
 OpenBabel11072410593D

 42 47  0  0  1  0  0  0  0  0999 V2000
  160.0130  206.2340  149.3050 P   0  0  2  0  0  0  0  0  0  0  0  0
  161.0650  207.3970  154.1880 C   0  0  0  0  0  3  0  0  0  0  0  0
  160.1550  207.2870  147.9300 O   0  0  0  0  0  1  0  0  0  0  0  0
  161.4260  205.1400  153.5400 N   0  0  0  0  0  0  0  0  0  0  0  0
  161.0980  206.7990  151.8330 C   0  0  0  0  0  0  0  0  0  0  0  0
  161.9570  203.1060  151.8170 N   0  0  0  0  0  1  0  0  0  0  0  0
  161.3990  204.3080  151.2160 C   0  0  2  0  0  3  0  0  0  0  0  0
  162.1730  204.6510  150.0250 N   0  0  0  0  0  2  0  0  0  0  0  0
  161.3060  206.0710  154.5180 C   0  0  0  0  0  3  0  0  0  0  0  0
  160.5720  203.6140  148.5040 C   0  0  0  0  0  1  0  0  0  0  0  0
  161.3510  205.4490  152.2150 C   0  0  0  0  0  0  0  0  0  0  0  0
  160.9420  207.7750  152.8520 C   0  0  0  0  0  0  0  0  0  0  0  0
  161.1460  207.2340  150.3930 C   0  0  0  0  0  2  0  0  0  0  0  0
  161.2950  204.9080  148.8670 C   0  0  1  0  0  0  0  0  0  0  0  0
  163.2760  205.8920  147.9370 O   0  0  0  0  0  0  0  0  0  0  0  0
  162.5560  205.6900  145.2210 C   0  0  0  0  0  2  0  0  0  0  0  0
  160.3750  204.8860  144.3780 C   0  0  0  0  0  3  0  0  0  0  0  0
  161.7040  205.4530  144.0400 C   0  0  0  0  0  0  0  0  0  0  0  0
  160.4120  204.7690  145.8960 C   0  0  0  0  0  3  0  0  0  0  0  0
  162.1580  205.3560  147.6970 C   0  0  0  0  0  0  0  0  0  0  0  0
  161.7290  205.2380  146.3250 N   0  0  0  0  0  0  0  0  0  0  0  0
  162.0610  205.6890  142.8980 O   0  0  0  0  0  0  0  0  0  0  0  0
  160.6760  209.1620  152.5890 N   0  0  0  0  0  2  0  0  0  0  0  0
  161.2200  210.2800  153.3500 C   0  0  0  0  0  2  0  0  0  0  0  0
  155.8310  211.4440  156.2580 C   0  0  0  0  0  3  0  0  0  0  0  0
  158.0110  211.1080  155.2910 C   0  0  0  0  0  0  0  0  0  0  0  0
  158.5030  212.1590  156.0800 C   0  0  0  0  0  0  0  0  0  0  0  0
  159.9200  212.5380  155.9920 C   0  0  0  0  0  3  0  0  0  0  0  0
  156.6690  210.7410  155.3860 C   0  0  0  0  0  3  0  0  0  0  0  0
  157.6360  212.8290  156.9450 C   0  0  0  0  0  3  0  0  0  0  0  0
  158.9560  210.3190  154.4310 C   0  0  0  0  0  2  0  0  0  0  0  0
  156.3270  212.4620  157.0130 N   0  0  0  0  0  0  0  0  0  0  0  0
  160.1160  211.1900  153.8960 C   0  0  1  0  0  0  0  0  0  0  0  0
  160.6850  212.0560  155.0070 C   0  0  0  0  0  3  0  0  0  0  0  0
  157.8400  213.9000  151.0450 C   0  0  0  0  0  0  0  0  0  0  0  0
  157.8660  212.3720  150.9560 C   0  0  0  0  0  2  0  0  0  0  0  0
  159.5920  212.1030  152.7610 C   0  0  1  0  0  3  0  0  0  0  0  0
  157.6010  214.4440  149.6540 C   0  0  0  0  0  1  0  0  0  0  0  0
  156.6990  214.3690  151.9360 C   0  0  0  0  0  1  0  0  0  0  0  0
  158.1930  211.7040  152.2880 C   0  0  0  0  0  2  0  0  0  0  0  0
  159.5910  213.8740  153.2290 S   0  0  0  0  0  0  0  0  0  0  0  0
  159.1820  214.4430  151.5430 C   0  0  0  0  0  2  0  0  0  0  0  0
  1  3  1  6  0  0  0
  1 13  1  0  0  0  0
  2  9  1  0  0  0  0
  4  9  2  0  0  0  0
  5 11  2  0  0  0  0
  5 12  1  0  0  0  0
  7  6  1  1  0  0  0
  7 11  1  0  0  0  0
  8  7  1  0  0  0  0
 11  4  1  0  0  0  0
 12  2  2  0  0  0  0
 13  5  1  0  0  0  0
 14 10  1  6  0  0  0
 14  1  1  0  0  0  0
 14  8  1  0  0  0  0
 16 21  1  0  0  0  0
 17 19  2  0  0  0  0
 18 17  1  0  0  0  0
 18 16  1  0  0  0  0
 19 21  1  0  0  0  0
 20 15  2  0  0  0  0
 20 14  1  0  0  0  0
 21 20  1  0  0  0  0
 22 18  2  0  0  0  0
 23 12  1  0  0  0  0
 23 24  1  0  0  0  0
 25 32  1  0  0  0  0
 26 29  1  0  0  0  0
 26 27  2  0  0  0  0
 27 30  1  0  0  0  0
 28 27  1  0  0  0  0
 29 25  2  0  0  0  0
 30 32  2  0  0  0  0
 31 26  1  0  0  0  0
 33 24  1  6  0  0  0
 33 31  1  0  0  0  0
 33 34  1  0  0  0  0
 34 28  2  0  0  0  0
 35 42  1  0  0  0  0
 35 39  1  0  0  0  0
 36 35  1  0  0  0  0
 36 40  1  0  0  0  0
 37 40  1  1  0  0  0
 37 41  1  0  0  0  0
 37 33  1  0  0  0  0
 38 35  1  0  0  0  0
 42 41  1  0  0  0  0
M  END
>  <MODEL>
6

>  <REMARK>
 VINA RESULT:      -3.9      3.636     10.305
  Name = 
  5 active torsions:
  status: ('A' for Active; 'I' for Inactive)
    1  A    between atoms: N_7  and  C_37
    2  A    between atoms: N_7  and  C_38
    3  A    between atoms: C_16  and  C_30
    4  A    between atoms: C_26  and  C_41
    5  A    between atoms: C_30  and  C_37
                            x       y       z     vdW  Elec       q    Type
                         _______ _______ _______ _____ _____    ______ ____

>  <TORSDO>
F 5

$$$$
=
 OpenBabel11072410593D

 42 47  0  0  1  0  0  0  0  0999 V2000
  159.0700  210.6030  152.7580 P   0  0  2  0  0  0  0  0  0  0  0  0
  161.9630  210.4390  148.5260 C   0  0  0  0  0  3  0  0  0  0  0  0
  159.2700  209.6440  154.1940 O   0  0  0  0  0  1  0  0  0  0  0  0
  161.0000  212.5440  149.0660 N   0  0  0  0  0  0  0  0  0  0  0  0
  160.9970  210.8070  150.7260 C   0  0  0  0  0  0  0  0  0  0  0  0
  159.9580  214.4530  150.6950 N   0  0  0  0  0  1  0  0  0  0  0  0
  159.8830  213.0900  151.1980 C   0  0  2  0  0  3  0  0  0  0  0  0
  160.3270  213.0680  152.5910 N   0  0  0  0  0  2  0  0  0  0  0  0
  161.6350  211.7420  148.1760 C   0  0  0  0  0  3  0  0  0  0  0  0
  158.0530  213.1070  153.4720 C   0  0  0  0  0  1  0  0  0  0  0  0
  160.6840  212.1390  150.3280 C   0  0  0  0  0  0  0  0  0  0  0  0
  161.6370  209.9520  149.7910 C   0  0  0  0  0  0  0  0  0  0  0  0
  160.8080  210.3420  152.1450 C   0  0  0  0  0  2  0  0  0  0  0  0
  159.3730  212.3410  153.4490 C   0  0  1  0  0  0  0  0  0  0  0  0
  159.3450  212.8760  155.7880 O   0  0  0  0  0  0  0  0  0  0  0  0
  161.7210  211.5450  156.5070 C   0  0  0  0  0  2  0  0  0  0  0  0
  163.2650  210.4270  154.9310 C   0  0  0  0  0  3  0  0  0  0  0  0
  162.9960  210.8210  156.3350 C   0  0  0  0  0  0  0  0  0  0  0  0
  162.0530  210.9570  154.1730 C   0  0  0  0  0  3  0  0  0  0  0  0
  159.9460  212.2710  154.8570 C   0  0  0  0  0  0  0  0  0  0  0  0
  161.1760  211.5840  155.1610 N   0  0  0  0  0  0  0  0  0  0  0  0
  163.7490  210.5640  157.2590 O   0  0  0  0  0  0  0  0  0  0  0  0
  161.9930  208.5900  150.0750 N   0  0  0  0  0  2  0  0  0  0  0  0
  161.0570  207.4740  150.1460 C   0  0  0  0  0  2  0  0  0  0  0  0
  160.3550  205.4440  144.2950 C   0  0  0  0  0  3  0  0  0  0  0  0
  160.8400  206.2340  146.5170 C   0  0  0  0  0  0  0  0  0  0  0  0
  162.1830  205.8710  146.3340 C   0  0  0  0  0  0  0  0  0  0  0  0
  163.1560  206.1010  147.4110 C   0  0  0  0  0  3  0  0  0  0  0  0
  159.9210  206.0280  145.4890 C   0  0  0  0  0  3  0  0  0  0  0  0
  162.5780  205.2990  145.1240 C   0  0  0  0  0  3  0  0  0  0  0  0
  160.4260  206.9390  147.7780 C   0  0  0  0  0  2  0  0  0  0  0  0
  161.6620  205.0960  144.1380 N   0  0  0  0  0  0  0  0  0  0  0  0
  161.2610  206.4830  148.9960 C   0  0  1  0  0  0  0  0  0  0  0  0
  162.7370  206.4290  148.6370 C   0  0  0  0  0  3  0  0  0  0  0  0
  160.7570  202.1690  150.3310 C   0  0  0  0  0  0  0  0  0  0  0  0
  160.7790  202.6300  148.8720 C   0  0  0  0  0  2  0  0  0  0  0  0
  160.7960  205.0750  149.4410 C   0  0  1  0  0  3  0  0  0  0  0  0
  159.9340  200.9020  150.4080 C   0  0  0  0  0  1  0  0  0  0  0  0
  162.1630  201.8470  150.8180 C   0  0  0  0  0  1  0  0  0  0  0  0
  161.5060  203.9560  148.6770 C   0  0  0  0  0  2  0  0  0  0  0  0
  161.0000  204.8050  151.2410 S   0  0  0  0  0  0  0  0  0  0  0  0
  160.0950  203.2200  151.2270 C   0  0  0  0  0  2  0  0  0  0  0  0
  1 14  1  0  0  0  0
  1  3  1  1  0  0  0
  2 12  1  0  0  0  0
  4 11  2  0  0  0  0
  5 13  1  0  0  0  0
  7  6  1  6  0  0  0
  7  8  1  0  0  0  0
  8 14  1  0  0  0  0
  9  2  2  0  0  0  0
  9  4  1  0  0  0  0
 11  5  1  0  0  0  0
 11  7  1  0  0  0  0
 12 23  1  0  0  0  0
 12  5  2  0  0  0  0
 13  1  1  0  0  0  0
 14 10  1  1  0  0  0
 14 20  1  0  0  0  0
 17 18  1  0  0  0  0
 18 16  1  0  0  0  0
 18 22  2  0  0  0  0
 19 17  2  0  0  0  0
 19 21  1  0  0  0  0
 20 21  1  0  0  0  0
 20 15  2  0  0  0  0
 21 16  1  0  0  0  0
 23 24  1  0  0  0  0
 25 29  1  0  0  0  0
 26 31  1  0  0  0  0
 27 26  1  0  0  0  0
 27 28  1  0  0  0  0
 28 34  2  0  0  0  0
 29 26  2  0  0  0  0
 30 27  2  0  0  0  0
 31 33  1  0  0  0  0
 32 25  2  0  0  0  0
 32 30  1  0  0  0  0
 33 37  1  0  0  0  0
 33 24  1  1  0  0  0
 34 33  1  0  0  0  0
 35 38  1  0  0  0  0
 35 39  1  0  0  0  0
 35 42  1  0  0  0  0
 36 35  1  0  0  0  0
 37 40  1  6  0  0  0
 37 41  1  0  0  0  0
 40 36  1  0  0  0  0
 42 41  1  0  0  0  0
M  END
>  <MODEL>
7

>  <REMARK>
 VINA RESULT:      -3.5      2.600      4.295
  Name = 
  5 active torsions:
  status: ('A' for Active; 'I' for Inactive)
    1  A    between atoms: N_7  and  C_37
    2  A    between atoms: N_7  and  C_38
    3  A    between atoms: C_16  and  C_30
    4  A    between atoms: C_26  and  C_41
    5  A    between atoms: C_30  and  C_37
                            x       y       z     vdW  Elec       q    Type
                         _______ _______ _______ _____ _____    ______ ____

>  <TORSDO>
F 5

$$$$
