=
 OpenBabel11072415263D

 25 27  0  0  1  0  0  0  0  0999 V2000
  160.9800  205.7490  150.1750 C   0  0  0  0  0  0  0  0  0  0  0  0
  162.2560  205.8000  145.5760 C   0  0  0  0  0  3  0  0  0  0  0  0
  161.6190  206.2100  146.7430 C   0  0  0  0  0  3  0  0  0  0  0  0
  161.2170  207.0080  152.2650 C   0  0  0  0  0  0  0  0  0  0  0  0
  161.6290  203.9460  147.6040 C   0  0  0  0  0  0  0  0  0  0  0  0
  160.4370  202.6930  149.4150 C   0  0  0  0  0  0  0  0  0  0  0  0
  161.6100  205.8510  152.9230 C   0  0  0  0  0  3  0  0  0  0  0  0
  161.5960  204.6380  152.2410 C   0  0  0  0  0  3  0  0  0  0  0  0
  162.2780  203.5570  146.4210 C   0  0  0  0  0  3  0  0  0  0  0  0
  161.2500  204.5480  150.8840 C   0  0  0  0  0  0  0  0  0  0  0  0
  160.7810  203.3330  150.5450 N   0  0  0  0  0  2  0  0  0  0  0  0
  161.3430  205.3250  147.7980 C   0  0  0  0  0  0  0  0  0  0  0  0
  160.8890  205.9540  148.8710 O   0  0  0  0  0  0  0  0  0  0  0  0
  161.0020  202.9270  148.2200 N   0  0  0  0  0  2  0  0  0  0  0  0
  162.6150  204.4700  145.4270 C   0  0  0  0  0  3  0  0  0  0  0  0
  160.9060  206.9450  150.9050 C   0  0  0  0  0  3  0  0  0  0  0  0
  159.7410  201.6510  149.5310 O   0  0  0  0  0  0  0  0  0  0  0  0
  161.1700  208.3010  153.0120 C   0  0  1  0  0  3  0  0  0  0  0  0
  160.2920  209.1870  152.3860 O   0  0  0  0  0  1  0  0  0  0  0  0
  160.7430  208.0700  154.4520 C   0  0  0  0  0  2  0  0  0  0  0  0
  160.2330  209.2520  154.9920 O   0  0  0  0  0  0  0  0  0  0  0  0
  162.1740  208.4670  156.8080 O   0  0  0  0  0  1  0  0  0  0  0  0
  160.7550  210.6350  157.1480 O   0  0  0  0  0  1  0  0  0  0  0  0
  161.4130  209.7910  156.0800 P   0  0  0  0  0  0  0  0  0  0  0  0
  162.5650  210.7260  155.2650 O   0  0  0  0  0  0  0  0  0  0  0  0
  1 10  2  0  0  0  0
  1 16  1  0  0  0  0
  2  3  1  0  0  0  0
  3 12  2  0  0  0  0
  4  7  1  0  0  0  0
  4 18  1  0  0  0  0
  5 12  1  0  0  0  0
  5 14  1  0  0  0  0
  6 17  2  0  0  0  0
  6 11  1  0  0  0  0
  8  7  2  0  0  0  0
  9  5  2  0  0  0  0
 10  8  1  0  0  0  0
 11 10  1  0  0  0  0
 12 13  1  0  0  0  0
 13  1  1  0  0  0  0
 14  6  1  0  0  0  0
 15  2  2  0  0  0  0
 15  9  1  0  0  0  0
 16  4  2  0  0  0  0
 18 19  1  6  0  0  0
 18 20  1  0  0  0  0
 20 21  1  0  0  0  0
 21 24  1  0  0  0  0
 24 22  1  0  0  0  0
 24 23  1  0  0  0  0
 25 24  2  0  0  0  0
M  END
>  <MODEL>
1

>  <REMARK>
 VINA RESULT:      -8.8      0.000      0.000
  Name = 
  4 active torsions:
  status: ('A' for Active; 'I' for Inactive)
    1  A    between atoms: C_6  and  C_13
    2  A    between atoms: P_7  and  O_20
    3  A    between atoms: C_13  and  C_24
    4  A    between atoms: O_20  and  C_24
                            x       y       z     vdW  Elec       q    Type
                         _______ _______ _______ _____ _____    ______ ____

>  <TORSDO>
F 4

$$$$
=
 OpenBabel11072415263D

 25 27  0  0  1  0  0  0  0  0999 V2000
  160.8330  205.3940  150.2720 C   0  0  0  0  0  0  0  0  0  0  0  0
  162.2750  205.8870  145.7500 C   0  0  0  0  0  3  0  0  0  0  0  0
  161.5850  206.1760  146.9220 C   0  0  0  0  0  3  0  0  0  0  0  0
  160.9600  206.4650  152.4740 C   0  0  0  0  0  0  0  0  0  0  0  0
  161.6230  203.8440  147.5790 C   0  0  0  0  0  0  0  0  0  0  0  0
  160.3990  202.4070  149.2240 C   0  0  0  0  0  0  0  0  0  0  0  0
  161.3580  205.2640  153.0410 C   0  0  0  0  0  3  0  0  0  0  0  0
  161.4010  204.1160  152.2540 C   0  0  0  0  0  3  0  0  0  0  0  0
  162.3250  203.5780  146.3920 C   0  0  0  0  0  3  0  0  0  0  0  0
  161.1080  204.1410  150.8820 C   0  0  0  0  0  0  0  0  0  0  0  0
  160.6840  202.9500  150.4180 N   0  0  0  0  0  2  0  0  0  0  0  0
  161.2940  205.1930  147.8830 C   0  0  0  0  0  0  0  0  0  0  0  0
  160.7840  205.7130  148.9890 O   0  0  0  0  0  0  0  0  0  0  0  0
  161.0010  202.7600  148.0770 N   0  0  0  0  0  2  0  0  0  0  0  0
  162.6740  204.5840  145.4970 C   0  0  0  0  0  3  0  0  0  0  0  0
  160.7010  206.5170  151.1020 C   0  0  0  0  0  3  0  0  0  0  0  0
  159.7270  201.3440  149.2190 O   0  0  0  0  0  0  0  0  0  0  0  0
  160.8510  207.6850  153.3300 C   0  0  1  0  0  3  0  0  0  0  0  0
  161.5380  207.4960  154.5290 O   0  0  0  0  0  1  0  0  0  0  0  0
  161.3980  208.9000  152.5990 C   0  0  0  0  0  2  0  0  0  0  0  0
  160.3700  209.8140  152.3600 O   0  0  0  0  0  0  0  0  0  0  0  0
  159.2390  210.4960  154.7970 O   0  0  0  0  0  1  0  0  0  0  0  0
  160.1710  212.2980  153.1510 O   0  0  0  0  0  0  0  0  0  0  0  0
  160.4260  210.8970  153.6600 P   0  0  0  0  0  0  0  0  0  0  0  0
  161.9510  210.8420  154.3930 O   0  0  0  0  0  1  0  0  0  0  0  0
  1 10  2  0  0  0  0
  1 16  1  0  0  0  0
  2  3  1  0  0  0  0
  3 12  2  0  0  0  0
  4  7  1  0  0  0  0
  4 18  1  0  0  0  0
  5 12  1  0  0  0  0
  5 14  1  0  0  0  0
  6 11  1  0  0  0  0
  8  7  2  0  0  0  0
  9  5  2  0  0  0  0
 10  8  1  0  0  0  0
 11 10  1  0  0  0  0
 12 13  1  0  0  0  0
 13  1  1  0  0  0  0
 14  6  1  0  0  0  0
 15  2  2  0  0  0  0
 15  9  1  0  0  0  0
 16  4  2  0  0  0  0
 17  6  2  0  0  0  0
 18 19  1  1  0  0  0
 20 18  1  0  0  0  0
 21 20  1  0  0  0  0
 21 24  1  0  0  0  0
 23 24  2  0  0  0  0
 24 25  1  0  0  0  0
 24 22  1  0  0  0  0
M  END
>  <MODEL>
2

>  <REMARK>
 VINA RESULT:      -8.7      1.115      1.661
  Name = 
  4 active torsions:
  status: ('A' for Active; 'I' for Inactive)
    1  A    between atoms: C_6  and  C_13
    2  A    between atoms: P_7  and  O_20
    3  A    between atoms: C_13  and  C_24
    4  A    between atoms: O_20  and  C_24
                            x       y       z     vdW  Elec       q    Type
                         _______ _______ _______ _____ _____    ______ ____

>  <TORSDO>
F 4

$$$$
=
 OpenBabel11072415263D

 25 27  0  0  1  0  0  0  0  0999 V2000
  161.1010  207.8560  152.5140 C   0  0  0  0  0  0  0  0  0  0  0  0
  161.9220  208.6240  157.1520 C   0  0  0  0  0  3  0  0  0  0  0  0
  161.3680  208.0350  156.0200 C   0  0  0  0  0  3  0  0  0  0  0  0
  161.4330  206.2010  150.7360 C   0  0  0  0  0  0  0  0  0  0  0  0
  161.6470  210.0820  154.7560 C   0  0  0  0  0  0  0  0  0  0  0  0
  160.7400  211.0290  152.6220 C   0  0  0  0  0  0  0  0  0  0  0  0
  161.9810  207.1800  149.9200 C   0  0  0  0  0  3  0  0  0  0  0  0
  162.0010  208.5020  150.3560 C   0  0  0  0  0  3  0  0  0  0  0  0
  162.2090  210.6530  155.9090 C   0  0  0  0  0  3  0  0  0  0  0  0
  161.5350  208.8760  151.6250 C   0  0  0  0  0  0  0  0  0  0  0  0
  161.1370  210.1610  151.6770 N   0  0  0  0  0  2  0  0  0  0  0  0
  161.2680  208.7130  154.7940 C   0  0  0  0  0  0  0  0  0  0  0  0
  160.8690  207.9160  153.8150 O   0  0  0  0  0  0  0  0  0  0  0  0
  161.1670  210.9980  153.8950 N   0  0  0  0  0  2  0  0  0  0  0  0
  162.3730  209.9330  157.0870 C   0  0  0  0  0  3  0  0  0  0  0  0
  160.9990  206.5480  152.0170 C   0  0  0  0  0  3  0  0  0  0  0  0
  160.1460  212.0690  152.2370 O   0  0  0  0  0  0  0  0  0  0  0  0
  161.3510  204.7930  150.2440 C   0  0  1  0  0  3  0  0  0  0  0  0
  160.4710  204.0550  151.0380 O   0  0  0  0  0  1  0  0  0  0  0  0
  160.9010  204.7590  148.7930 C   0  0  0  0  0  2  0  0  0  0  0  0
  161.6930  203.8650  148.0700 O   0  0  0  0  0  0  0  0  0  0  0  0
  161.2980  203.5640  145.3430 O   0  0  0  0  0  0  0  0  0  0  0  0
  163.3760  204.8170  146.3120 O   0  0  0  0  0  1  0  0  0  0  0  0
  161.9020  204.5830  146.5510 P   0  0  0  0  0  0  0  0  0  0  0  0
  161.0890  206.0670  146.4970 O   0  0  0  0  0  1  0  0  0  0  0  0
  1 13  1  0  0  0  0
  3  2  2  0  0  0  0
  4 16  2  0  0  0  0
  5 12  2  0  0  0  0
  5  9  1  0  0  0  0
  6 14  1  0  0  0  0
  7  8  2  0  0  0  0
  7  4  1  0  0  0  0
  8 10  1  0  0  0  0
  9 15  2  0  0  0  0
 10 11  1  0  0  0  0
 10  1  2  0  0  0  0
 11  6  1  0  0  0  0
 12  3  1  0  0  0  0
 13 12  1  0  0  0  0
 14  5  1  0  0  0  0
 15  2  1  0  0  0  0
 16  1  1  0  0  0  0
 17  6  2  0  0  0  0
 18  4  1  0  0  0  0
 18 19  1  1  0  0  0
 20 18  1  0  0  0  0
 21 20  1  0  0  0  0
 22 24  2  0  0  0  0
 23 24  1  0  0  0  0
 24 21  1  0  0  0  0
 25 24  1  0  0  0  0
M  END
>  <MODEL>
3

>  <REMARK>
 VINA RESULT:      -8.1      3.804      8.540
  Name = 
  4 active torsions:
  status: ('A' for Active; 'I' for Inactive)
    1  A    between atoms: C_6  and  C_13
    2  A    between atoms: P_7  and  O_20
    3  A    between atoms: C_13  and  C_24
    4  A    between atoms: O_20  and  C_24
                            x       y       z     vdW  Elec       q    Type
                         _______ _______ _______ _____ _____    ______ ____

>  <TORSDO>
F 4

$$$$
=
 OpenBabel11072415263D

 25 27  0  0  1  0  0  0  0  0999 V2000
  161.1420  206.0740  149.8660 C   0  0  0  0  0  0  0  0  0  0  0  0
  161.7330  205.5720  145.1570 C   0  0  0  0  0  3  0  0  0  0  0  0
  161.2630  206.1170  146.3470 C   0  0  0  0  0  3  0  0  0  0  0  0
  161.6490  207.5810  151.7330 C   0  0  0  0  0  0  0  0  0  0  0  0
  161.4560  203.9750  147.4630 C   0  0  0  0  0  0  0  0  0  0  0  0
  160.5730  202.9440  149.5670 C   0  0  0  0  0  0  0  0  0  0  0  0
  162.1630  206.5170  152.4590 C   0  0  0  0  0  3  0  0  0  0  0  0
  162.0810  205.2290  151.9380 C   0  0  0  0  0  3  0  0  0  0  0  0
  161.9360  203.4490  146.2520 C   0  0  0  0  0  3  0  0  0  0  0  0
  161.5430  204.9710  150.6670 C   0  0  0  0  0  0  0  0  0  0  0  0
  161.0610  203.7200  150.5490 N   0  0  0  0  0  2  0  0  0  0  0  0
  161.1660  205.3650  147.5300 C   0  0  0  0  0  0  0  0  0  0  0  0
  160.8570  206.1170  148.5750 O   0  0  0  0  0  0  0  0  0  0  0  0
  160.9520  203.0340  148.2820 N   0  0  0  0  0  2  0  0  0  0  0  0
  162.1010  204.2360  145.1180 C   0  0  0  0  0  3  0  0  0  0  0  0
  161.1450  207.3490  150.4510 C   0  0  0  0  0  3  0  0  0  0  0  0
  159.9280  201.9190  149.9080 O   0  0  0  0  0  0  0  0  0  0  0  0
  161.6780  208.9550  152.3170 C   0  0  1  0  0  3  0  0  0  0  0  0
  162.0240  209.8890  151.3390 O   0  0  0  0  0  1  0  0  0  0  0  0
  160.3280  209.3070  152.9210 C   0  0  0  0  0  2  0  0  0  0  0  0
  160.3920  209.2170  154.3130 O   0  0  0  0  0  0  0  0  0  0  0  0
  162.4940  210.7940  155.1940 O   0  0  0  0  0  1  0  0  0  0  0  0
  160.0580  211.1110  156.0840 O   0  0  0  0  0  1  0  0  0  0  0  0
  160.8400  210.7630  154.8380 P   0  0  0  0  0  0  0  0  0  0  0  0
  160.5010  211.9030  153.6340 O   0  0  0  0  0  0  0  0  0  0  0  0
  1 16  2  0  0  0  0
  1 10  1  0  0  0  0
  2  3  1  0  0  0  0
  3 12  2  0  0  0  0
  4 18  1  0  0  0  0
  4  7  2  0  0  0  0
  5 12  1  0  0  0  0
  5 14  1  0  0  0  0
  6 17  2  0  0  0  0
  6 11  1  0  0  0  0
  8  7  1  0  0  0  0
  9  5  2  0  0  0  0
 10  8  2  0  0  0  0
 11 10  1  0  0  0  0
 12 13  1  0  0  0  0
 13  1  1  0  0  0  0
 14  6  1  0  0  0  0
 15  2  2  0  0  0  0
 15  9  1  0  0  0  0
 16  4  1  0  0  0  0
 18 19  1  6  0  0  0
 18 20  1  0  0  0  0
 20 21  1  0  0  0  0
 21 24  1  0  0  0  0
 24 22  1  0  0  0  0
 24 23  1  0  0  0  0
 25 24  2  0  0  0  0
M  END
>  <MODEL>
4

>  <REMARK>
 VINA RESULT:      -8.1      1.056      1.217
  Name = 
  4 active torsions:
  status: ('A' for Active; 'I' for Inactive)
    1  A    between atoms: C_6  and  C_13
    2  A    between atoms: P_7  and  O_20
    3  A    between atoms: C_13  and  C_24
    4  A    between atoms: O_20  and  C_24
                            x       y       z     vdW  Elec       q    Type
                         _______ _______ _______ _____ _____    ______ ____

>  <TORSDO>
F 4

$$$$
=
 OpenBabel11072415263D

 25 27  0  0  1  0  0  0  0  0999 V2000
  161.5280  206.8420  152.4380 C   0  0  0  0  0  0  0  0  0  0  0  0
  160.9540  202.3780  150.8500 C   0  0  0  0  0  3  0  0  0  0  0  0
  161.4270  203.4100  151.6530 C   0  0  0  0  0  3  0  0  0  0  0  0
  161.0370  208.2960  154.3500 C   0  0  0  0  0  0  0  0  0  0  0  0
  161.1920  204.9970  149.8370 C   0  0  0  0  0  0  0  0  0  0  0  0
  162.0470  207.2930  149.3180 C   0  0  0  0  0  0  0  0  0  0  0  0
  160.5020  209.2480  153.4940 C   0  0  0  0  0  3  0  0  0  0  0  0
  160.5650  209.0450  152.1190 C   0  0  0  0  0  3  0  0  0  0  0  0
  160.7110  203.9400  149.0490 C   0  0  0  0  0  3  0  0  0  0  0  0
  161.1050  207.8760  151.5610 C   0  0  0  0  0  0  0  0  0  0  0  0
  161.5670  208.0600  150.3100 N   0  0  0  0  0  2  0  0  0  0  0  0
  161.5050  204.7380  151.2000 C   0  0  0  0  0  0  0  0  0  0  0  0
  161.8210  205.5790  152.1720 O   0  0  0  0  0  0  0  0  0  0  0  0
  161.6770  206.0190  149.1090 N   0  0  0  0  0  2  0  0  0  0  0  0
  160.5640  202.6500  149.5480 C   0  0  0  0  0  3  0  0  0  0  0  0
  161.5440  207.1100  153.8160 C   0  0  0  0  0  3  0  0  0  0  0  0
  162.6730  207.8710  148.3930 O   0  0  0  0  0  0  0  0  0  0  0  0
  161.0280  208.5410  155.8240 C   0  0  1  0  0  3  0  0  0  0  0  0
  162.1260  209.3220  156.1900 O   0  0  0  0  0  1  0  0  0  0  0  0
  159.7370  209.2240  156.2430 C   0  0  0  0  0  2  0  0  0  0  0  0
  160.0250  210.3940  156.9470 O   0  0  0  0  0  0  0  0  0  0  0  0
  160.0020  212.4030  155.0360 O   0  0  0  0  0  0  0  0  0  0  0  0
  158.6420  212.5910  157.2590 O   0  0  0  0  0  1  0  0  0  0  0  0
  159.0880  211.5980  156.2100 P   0  0  0  0  0  0  0  0  0  0  0  0
  157.7230  210.9060  155.4870 O   0  0  0  0  0  1  0  0  0  0  0  0
  1 16  1  0  0  0  0
  2  3  1  0  0  0  0
  4 18  1  0  0  0  0
  5 12  1  0  0  0  0
  6 11  1  0  0  0  0
  7  4  1  0  0  0  0
  8  7  2  0  0  0  0
  9 15  1  0  0  0  0
  9  5  2  0  0  0  0
 10  8  1  0  0  0  0
 10  1  2  0  0  0  0
 11 10  1  0  0  0  0
 12  3  2  0  0  0  0
 12 13  1  0  0  0  0
 13  1  1  0  0  0  0
 14  6  1  0  0  0  0
 14  5  1  0  0  0  0
 15  2  2  0  0  0  0
 16  4  2  0  0  0  0
 17  6  2  0  0  0  0
 18 19  1  6  0  0  0
 18 20  1  0  0  0  0
 20 21  1  0  0  0  0
 22 24  2  0  0  0  0
 24 21  1  0  0  0  0
 24 23  1  0  0  0  0
 25 24  1  0  0  0  0
M  END
>  <MODEL>
5

>  <REMARK>
 VINA RESULT:      -8.0      2.471      4.053
  Name = 
  4 active torsions:
  status: ('A' for Active; 'I' for Inactive)
    1  A    between atoms: C_6  and  C_13
    2  A    between atoms: P_7  and  O_20
    3  A    between atoms: C_13  and  C_24
    4  A    between atoms: O_20  and  C_24
                            x       y       z     vdW  Elec       q    Type
                         _______ _______ _______ _____ _____    ______ ____

>  <TORSDO>
F 4

$$$$
=
 OpenBabel11072415263D

 25 27  0  0  1  0  0  0  0  0999 V2000
  161.0770  207.9450  152.8570 C   0  0  0  0  0  0  0  0  0  0  0  0
  158.6070  212.0290  152.8140 C   0  0  0  0  0  3  0  0  0  0  0  0
  159.5160  211.0660  152.3870 C   0  0  0  0  0  3  0  0  0  0  0  0
  161.3560  205.8370  151.6380 C   0  0  0  0  0  0  0  0  0  0  0  0
  159.8410  210.2920  154.6590 C   0  0  0  0  0  0  0  0  0  0  0  0
  161.5320  208.9000  155.8730 C   0  0  0  0  0  0  0  0  0  0  0  0
  161.2080  205.1270  152.8200 C   0  0  0  0  0  3  0  0  0  0  0  0
  161.0920  205.8180  154.0230 C   0  0  0  0  0  3  0  0  0  0  0  0
  158.9150  211.2660  155.0660 C   0  0  0  0  0  3  0  0  0  0  0  0
  161.0630  207.2200  154.0790 C   0  0  0  0  0  0  0  0  0  0  0  0
  161.4780  207.7040  155.2650 N   0  0  0  0  0  2  0  0  0  0  0  0
  160.1060  210.1470  153.2700 C   0  0  0  0  0  0  0  0  0  0  0  0
  160.8040  209.2200  152.6320 O   0  0  0  0  0  0  0  0  0  0  0  0
  160.6560  209.8930  155.6520 N   0  0  0  0  0  2  0  0  0  0  0  0
  158.2820  212.1090  154.1590 C   0  0  0  0  0  3  0  0  0  0  0  0
  161.2910  207.2320  151.6680 C   0  0  0  0  0  3  0  0  0  0  0  0
  162.2800  209.0020  156.8790 O   0  0  0  0  0  0  0  0  0  0  0  0
  161.5450  205.0980  150.3530 C   0  0  1  0  0  3  0  0  0  0  0  0
  161.0290  203.8050  150.4590 O   0  0  0  0  0  1  0  0  0  0  0  0
  160.8710  205.8380  149.2080 C   0  0  0  0  0  2  0  0  0  0  0  0
  160.8230  205.0210  148.0770 O   0  0  0  0  0  0  0  0  0  0  0  0
  163.0240  204.8200  146.4040 O   0  0  0  0  0  1  0  0  0  0  0  0
  162.3310  207.0810  147.5150 O   0  0  0  0  0  1  0  0  0  0  0  0
  161.7560  205.8190  146.9120 P   0  0  0  0  0  0  0  0  0  0  0  0
  160.7930  206.2290  145.5820 O   0  0  0  0  0  0  0  0  0  0  0  0
  1 10  1  0  0  0  0
  2 15  1  0  0  0  0
  3  2  2  0  0  0  0
  3 12  1  0  0  0  0
  4 16  1  0  0  0  0
  4  7  2  0  0  0  0
  5  9  1  0  0  0  0
  5 14  1  0  0  0  0
  6 17  2  0  0  0  0
  7  8  1  0  0  0  0
  8 10  2  0  0  0  0
 10 11  1  0  0  0  0
 11  6  1  0  0  0  0
 12  5  2  0  0  0  0
 13  1  1  0  0  0  0
 13 12  1  0  0  0  0
 14  6  1  0  0  0  0
 15  9  2  0  0  0  0
 16  1  2  0  0  0  0
 18 19  1  1  0  0  0
 18  4  1  0  0  0  0
 20 18  1  0  0  0  0
 21 20  1  0  0  0  0
 22 24  1  0  0  0  0
 24 23  1  0  0  0  0
 24 21  1  0  0  0  0
 25 24  2  0  0  0  0
M  END
>  <MODEL>
6

>  <REMARK>
 VINA RESULT:      -7.7      3.670      8.029
  Name = 
  4 active torsions:
  status: ('A' for Active; 'I' for Inactive)
    1  A    between atoms: C_6  and  C_13
    2  A    between atoms: P_7  and  O_20
    3  A    between atoms: C_13  and  C_24
    4  A    between atoms: O_20  and  C_24
                            x       y       z     vdW  Elec       q    Type
                         _______ _______ _______ _____ _____    ______ ____

>  <TORSDO>
F 4

$$$$
=
 OpenBabel11072415263D

 25 27  0  0  1  0  0  0  0  0999 V2000
  161.9440  206.1410  149.7500 C   0  0  0  0  0  0  0  0  0  0  0  0
  160.2220  201.7410  150.4220 C   0  0  0  0  0  3  0  0  0  0  0  0
  160.9360  202.9020  150.6970 C   0  0  0  0  0  3  0  0  0  0  0  0
  161.8160  208.4260  150.6280 C   0  0  0  0  0  0  0  0  0  0  0  0
  161.1880  203.3660  148.3320 C   0  0  0  0  0  0  0  0  0  0  0  0
  162.6470  204.8320  146.9210 C   0  0  0  0  0  0  0  0  0  0  0  0
  161.5810  208.9100  149.3490 C   0  0  0  0  0  3  0  0  0  0  0  0
  161.6240  208.0340  148.2680 C   0  0  0  0  0  3  0  0  0  0  0  0
  160.4590  202.1930  148.0800 C   0  0  0  0  0  3  0  0  0  0  0  0
  161.8400  206.6570  148.4310 C   0  0  0  0  0  0  0  0  0  0  0  0
  162.3670  206.0790  147.3360 N   0  0  0  0  0  2  0  0  0  0  0  0
  161.3840  203.7650  149.6830 C   0  0  0  0  0  0  0  0  0  0  0  0
  161.8900  204.8870  150.1700 O   0  0  0  0  0  0  0  0  0  0  0  0
  161.9510  203.7460  147.2910 N   0  0  0  0  0  2  0  0  0  0  0  0
  159.9550  201.4000  149.1060 C   0  0  0  0  0  3  0  0  0  0  0  0
  161.9960  207.0540  150.8150 C   0  0  0  0  0  3  0  0  0  0  0  0
  163.4310  204.7110  145.9440 O   0  0  0  0  0  0  0  0  0  0  0  0
  161.8350  209.3740  151.7830 C   0  0  1  0  0  3  0  0  0  0  0  0
  161.5560  210.6700  151.3490 O   0  0  0  0  0  1  0  0  0  0  0  0
  160.8290  208.9480  152.8400 C   0  0  0  0  0  2  0  0  0  0  0  0
  161.2410  209.3940  154.0960 O   0  0  0  0  0  0  0  0  0  0  0  0
  160.8180  206.6660  154.3490 O   0  0  0  0  0  0  0  0  0  0  0  0
  159.4590  208.4120  155.7380 O   0  0  0  0  0  1  0  0  0  0  0  0
  160.8340  208.1460  155.1670 P   0  0  0  0  0  0  0  0  0  0  0  0
  161.9560  208.0810  156.4320 O   0  0  0  0  0  1  0  0  0  0  0  0
  1 13  1  0  0  0  0
  1 16  1  0  0  0  0
  2  3  1  0  0  0  0
  4 16  2  0  0  0  0
  4 18  1  0  0  0  0
  5 12  1  0  0  0  0
  6 14  1  0  0  0  0
  6 11  1  0  0  0  0
  7  4  1  0  0  0  0
  8 10  1  0  0  0  0
  8  7  2  0  0  0  0
  9  5  2  0  0  0  0
  9 15  1  0  0  0  0
 10  1  2  0  0  0  0
 11 10  1  0  0  0  0
 12 13  1  0  0  0  0
 12  3  2  0  0  0  0
 14  5  1  0  0  0  0
 15  2  2  0  0  0  0
 17  6  2  0  0  0  0
 18 19  1  6  0  0  0
 18 20  1  0  0  0  0
 20 21  1  0  0  0  0
 21 24  1  0  0  0  0
 22 24  2  0  0  0  0
 24 23  1  0  0  0  0
 24 25  1  0  0  0  0
M  END
>  <MODEL>
7

>  <REMARK>
 VINA RESULT:      -7.7      1.959      3.508
  Name = 
  4 active torsions:
  status: ('A' for Active; 'I' for Inactive)
    1  A    between atoms: C_6  and  C_13
    2  A    between atoms: P_7  and  O_20
    3  A    between atoms: C_13  and  C_24
    4  A    between atoms: O_20  and  C_24
                            x       y       z     vdW  Elec       q    Type
                         _______ _______ _______ _____ _____    ______ ____

>  <TORSDO>
F 4

$$$$
=
 OpenBabel11072415263D

 25 27  0  0  1  0  0  0  0  0999 V2000
  160.8810  208.8040  152.3750 C   0  0  0  0  0  0  0  0  0  0  0  0
  158.2430  212.4180  154.0380 C   0  0  0  0  0  3  0  0  0  0  0  0
  159.1900  211.7650  153.2550 C   0  0  0  0  0  3  0  0  0  0  0  0
  161.2440  207.4300  150.3780 C   0  0  0  0  0  0  0  0  0  0  0  0
  159.5520  210.1090  154.9860 C   0  0  0  0  0  0  0  0  0  0  0  0
  161.3030  208.3990  155.5170 C   0  0  0  0  0  0  0  0  0  0  0  0
  161.1280  206.2790  151.1430 C   0  0  0  0  0  3  0  0  0  0  0  0
  160.9870  206.3850  152.5240 C   0  0  0  0  0  3  0  0  0  0  0  0
  158.5880  210.7810  155.7540 C   0  0  0  0  0  3  0  0  0  0  0  0
  160.9000  207.6280  153.1710 C   0  0  0  0  0  0  0  0  0  0  0  0
  161.2960  207.5750  154.4560 N   0  0  0  0  0  2  0  0  0  0  0  0
  159.8200  210.5810  153.6720 C   0  0  0  0  0  0  0  0  0  0  0  0
  160.5540  210.0420  152.7110 O   0  0  0  0  0  0  0  0  0  0  0  0
  160.3860  209.3570  155.7270 N   0  0  0  0  0  2  0  0  0  0  0  0
  157.9180  211.9050  155.2830 C   0  0  0  0  0  3  0  0  0  0  0  0
  161.1210  208.6750  150.9990 C   0  0  0  0  0  3  0  0  0  0  0  0
  162.0480  208.0920  156.4820 O   0  0  0  0  0  0  0  0  0  0  0  0
  161.4600  207.3170  148.9040 C   0  0  1  0  0  3  0  0  0  0  0  0
  162.8130  207.4730  148.6010 O   0  0  0  0  0  1  0  0  0  0  0  0
  160.9600  205.9760  148.3930 C   0  0  0  0  0  2  0  0  0  0  0  0
  161.0040  205.9530  146.9980 O   0  0  0  0  0  0  0  0  0  0  0  0
  161.7480  203.4400  147.9010 O   0  0  0  0  0  1  0  0  0  0  0  0
  163.2600  204.8370  146.2930 O   0  0  0  0  0  1  0  0  0  0  0  0
  161.8140  204.5200  146.6010 P   0  0  0  0  0  0  0  0  0  0  0  0
  161.1000  203.8100  145.2400 O   0  0  0  0  0  0  0  0  0  0  0  0
  1 13  1  0  0  0  0
  1 10  1  0  0  0  0
  2 15  1  0  0  0  0
  3 12  1  0  0  0  0
  3  2  2  0  0  0  0
  4 16  1  0  0  0  0
  4  7  2  0  0  0  0
  5 14  1  0  0  0  0
  5  9  1  0  0  0  0
  6 14  1  0  0  0  0
  6 17  2  0  0  0  0
  7  8  1  0  0  0  0
  8 10  2  0  0  0  0
 10 11  1  0  0  0  0
 11  6  1  0  0  0  0
 12  5  2  0  0  0  0
 13 12  1  0  0  0  0
 15  9  2  0  0  0  0
 16  1  2  0  0  0  0
 18 19  1  1  0  0  0
 18  4  1  0  0  0  0
 20 18  1  0  0  0  0
 21 20  1  0  0  0  0
 23 24  1  0  0  0  0
 24 21  1  0  0  0  0
 24 22  1  0  0  0  0
 25 24  2  0  0  0  0
M  END
>  <MODEL>
8

>  <REMARK>
 VINA RESULT:      -7.6      3.843      8.390
  Name = 
  4 active torsions:
  status: ('A' for Active; 'I' for Inactive)
    1  A    between atoms: C_6  and  C_13
    2  A    between atoms: P_7  and  O_20
    3  A    between atoms: C_13  and  C_24
    4  A    between atoms: O_20  and  C_24
                            x       y       z     vdW  Elec       q    Type
                         _______ _______ _______ _____ _____    ______ ____

>  <TORSDO>
F 4

$$$$
=
 OpenBabel11072415263D

 25 27  0  0  1  0  0  0  0  0999 V2000
  161.9520  206.1640  149.7720 C   0  0  0  0  0  0  0  0  0  0  0  0
  160.2550  201.7640  150.5060 C   0  0  0  0  0  3  0  0  0  0  0  0
  160.9670  202.9310  150.7610 C   0  0  0  0  0  3  0  0  0  0  0  0
  161.8240  208.4570  150.6280 C   0  0  0  0  0  0  0  0  0  0  0  0
  161.1930  203.3720  148.3900 C   0  0  0  0  0  0  0  0  0  0  0  0
  162.6320  204.8300  146.9490 C   0  0  0  0  0  0  0  0  0  0  0  0
  161.5750  208.9270  149.3470 C   0  0  0  0  0  3  0  0  0  0  0  0
  161.6090  208.0410  148.2740 C   0  0  0  0  0  3  0  0  0  0  0  0
  160.4660  202.1940  148.1570 C   0  0  0  0  0  3  0  0  0  0  0  0
  161.8330  206.6660  148.4490 C   0  0  0  0  0  0  0  0  0  0  0  0
  162.3510  206.0790  147.3540 N   0  0  0  0  0  2  0  0  0  0  0  0
  161.4010  203.7860  149.7340 C   0  0  0  0  0  0  0  0  0  0  0  0
  161.9080  204.9140  150.2050 O   0  0  0  0  0  0  0  0  0  0  0  0
  161.9440  203.7440  147.3370 N   0  0  0  0  0  2  0  0  0  0  0  0
  159.9760  201.4090  149.1960 C   0  0  0  0  0  3  0  0  0  0  0  0
  162.0110  207.0880  150.8270 C   0  0  0  0  0  3  0  0  0  0  0  0
  163.4060  204.7020  145.9660 O   0  0  0  0  0  0  0  0  0  0  0  0
  161.8520  209.4170  151.7740 C   0  0  1  0  0  3  0  0  0  0  0  0
  161.5670  210.7080  151.3280 O   0  0  0  0  0  1  0  0  0  0  0  0
  160.8540  209.0000  152.8420 C   0  0  0  0  0  2  0  0  0  0  0  0
  161.3550  209.3130  154.1070 O   0  0  0  0  0  0  0  0  0  0  0  0
  160.9360  211.5570  155.6800 O   0  0  0  0  0  1  0  0  0  0  0  0
  159.3350  209.4940  155.7580 O   0  0  0  0  0  1  0  0  0  0  0  0
  160.1850  210.3140  154.8130 P   0  0  0  0  0  0  0  0  0  0  0  0
  159.1950  210.9810  153.6130 O   0  0  0  0  0  0  0  0  0  0  0  0
  1 13  1  0  0  0  0
  1 16  1  0  0  0  0
  2  3  1  0  0  0  0
  4 16  2  0  0  0  0
  4 18  1  0  0  0  0
  5 12  1  0  0  0  0
  6 14  1  0  0  0  0
  6 11  1  0  0  0  0
  7  4  1  0  0  0  0
  8 10  1  0  0  0  0
  8  7  2  0  0  0  0
  9  5  2  0  0  0  0
  9 15  1  0  0  0  0
 10  1  2  0  0  0  0
 11 10  1  0  0  0  0
 12 13  1  0  0  0  0
 12  3  2  0  0  0  0
 14  5  1  0  0  0  0
 15  2  2  0  0  0  0
 17  6  2  0  0  0  0
 18 19  1  6  0  0  0
 18 20  1  0  0  0  0
 20 21  1  0  0  0  0
 21 24  1  0  0  0  0
 24 22  1  0  0  0  0
 24 23  1  0  0  0  0
 25 24  2  0  0  0  0
M  END
>  <MODEL>
9

>  <REMARK>
 VINA RESULT:      -7.4      1.967      3.534
  Name = 
  4 active torsions:
  status: ('A' for Active; 'I' for Inactive)
    1  A    between atoms: C_6  and  C_13
    2  A    between atoms: P_7  and  O_20
    3  A    between atoms: C_13  and  C_24
    4  A    between atoms: O_20  and  C_24
                            x       y       z     vdW  Elec       q    Type
                         _______ _______ _______ _____ _____    ______ ____

>  <TORSDO>
F 4

$$$$
