=
 OpenBabel11072415143D

 40 42  0  0  1  0  0  0  0  0999 V2000
  161.2290  210.0780  151.5850 C   0  0  2  0  0  3  0  0  0  0  0  0
  161.5420  210.8430  150.3390 C   0  0  0  0  0  0  0  0  0  0  0  0
  162.1410  210.1740  149.2350 N   0  0  0  0  0  1  0  0  0  0  0  0
  161.2770  212.0710  150.2560 O   0  0  0  0  0  0  0  0  0  0  0  0
  159.6490  211.0940  153.0610 C   0  0  1  0  0  3  0  0  0  0  0  0
  160.9970  211.0280  152.7570 C   0  0  1  0  0  3  0  0  0  0  0  0
  160.5180  210.2540  153.9410 N   0  0  0  0  0  0  0  0  0  0  0  0
  161.7550  209.6420  155.9590 C   0  0  0  0  0  3  0  0  0  0  0  0
  159.8670  208.2980  155.2570 C   0  0  0  0  0  3  0  0  0  0  0  0
  161.0920  207.7090  157.2610 C   0  0  0  0  0  3  0  0  0  0  0  0
  161.9440  208.8010  157.0600 C   0  0  0  0  0  3  0  0  0  0  0  0
  160.7130  209.3940  155.0590 C   0  0  0  0  0  0  0  0  0  0  0  0
  160.0550  207.4580  156.3590 C   0  0  0  0  0  3  0  0  0  0  0  0
  159.3270  212.3960  153.7330 C   0  0  0  0  0  0  0  0  0  0  0  0
  159.2470  213.4510  153.0450 O   0  0  0  0  0  0  0  0  0  0  0  0
  157.9730  211.8240  155.8160 N   0  0  0  0  0  2  0  0  0  0  0  0
  159.9620  213.0040  155.9280 O   0  0  0  0  0  0  0  0  0  0  0  0
  159.1060  212.4450  155.1940 C   0  0  0  0  0  0  0  0  0  0  0  0
  156.6700  211.6940  155.2380 C   0  0  0  0  0  0  0  0  0  0  0  0
  156.3330  212.3800  154.2370 O   0  0  0  0  0  0  0  0  0  0  0  0
  155.6650  210.8150  155.8950 C   0  0  0  0  0  2  0  0  0  0  0  0
  155.0620  209.9990  154.9390 O   0  0  0  0  0  1  0  0  0  0  0  0
  162.3200  209.1550  151.8780 N   0  0  0  0  0  2  0  0  0  0  0  0
  161.9460  206.7050  151.9010 C   0  0  0  0  0  0  0  0  0  0  0  0
  162.0570  207.9490  151.2090 N   0  0  0  0  0  2  0  0  0  0  0  0
  162.0280  206.6670  153.1590 O   0  0  0  0  0  0  0  0  0  0  0  0
  161.7920  205.4390  151.1090 C   0  0  1  0  0  3  0  0  0  0  0  0
  162.0210  204.2710  151.8730 O   0  0  0  0  0  0  0  0  0  0  0  0
  160.7990  203.6130  152.0900 C   0  0  0  0  0  1  0  0  0  0  0  0
  160.5120  205.3900  150.2710 C   0  0  0  0  0  2  0  0  0  0  0  0
  160.7240  206.1130  148.9560 C   0  0  0  0  0  2  0  0  0  0  0  0
  161.4280  205.2850  148.0830 O   0  0  0  0  0  0  0  0  0  0  0  0
  160.9540  204.0000  148.3560 C   0  0  0  0  0  2  0  0  0  0  0  0
  160.6210  201.3940  145.9100 C   0  0  0  0  0  2  0  0  0  0  0  0
  161.5610  203.5680  146.0770 O   0  0  0  0  0  0  0  0  0  0  0  0
  160.7690  202.7420  145.2580 C   0  0  0  0  0  2  0  0  0  0  0  0
  161.5510  203.0100  147.3710 C   0  0  2  0  0  3  0  0  0  0  0  0
  160.7540  201.7210  147.3600 C   0  0  2  0  0  3  0  0  0  0  0  0
  161.0690  200.5900  149.4670 O   0  0  0  0  0  1  0  0  0  0  0  0
  161.4600  200.6060  148.1270 C   0  0  0  0  0  2  0  0  0  0  0  0
  1  2  1  6  0  0  0
  1 23  1  0  0  0  0
  3  2  1  0  0  0  0
  4  2  2  0  0  0  0
  5 14  1  1  0  0  0
  5  7  1  0  0  0  0
  6  1  1  6  0  0  0
  6  5  1  0  0  0  0
  6  7  1  0  0  0  0
  7 12  1  0  0  0  0
  8 11  1  0  0  0  0
  9 13  2  0  0  0  0
 11 10  2  0  0  0  0
 12  9  1  0  0  0  0
 12  8  2  0  0  0  0
 13 10  1  0  0  0  0
 14 18  1  0  0  0  0
 15 14  2  0  0  0  0
 18 16  1  0  0  0  0
 18 17  2  0  0  0  0
 19 16  1  0  0  0  0
 19 21  1  0  0  0  0
 20 19  2  0  0  0  0
 22 21  1  0  0  0  0
 24 26  2  0  0  0  0
 25 23  1  0  0  0  0
 25 24  1  0  0  0  0
 27 30  1  1  0  0  0
 27 28  1  0  0  0  0
 27 24  1  0  0  0  0
 28 29  1  0  0  0  0
 31 30  1  0  0  0  0
 32 33  1  0  0  0  0
 32 31  1  0  0  0  0
 34 38  1  0  0  0  0
 35 37  1  0  0  0  0
 36 34  1  0  0  0  0
 36 35  1  0  0  0  0
 37 33  1  1  0  0  0
 38 37  1  0  0  0  0
 38 40  1  1  0  0  0
 40 39  1  0  0  0  0
M  END
>  <MODEL>
1

>  <REMARK>
 VINA RESULT:      -6.5      0.000      0.000
  Name = 
  16 active torsions:
  status: ('A' for Active; 'I' for Inactive)
    1  A    between atoms: C_2  and  C_12
    2  A    between atoms: C_2  and  C_34
    3  A    between atoms: C_3  and  C_12
    4  A    between atoms: C_5  and  C_13
    5  A    between atoms: C_6  and  C_33
    6  A    between atoms: C_9  and  C_11
    7  A    between atoms: C_9  and  C_20
    8  A    between atoms: C_12  and  O_27
    9  A    between atoms: C_13  and  C_17
   10  A    between atoms: C_13  and  N_29
   11  A    between atoms: N_21  and  N_29
   12  A    between atoms: C_24  and  N_37
   13  A    between atoms: C_25  and  C_36
   14  A    between atoms: C_28  and  C_38
   15  A    between atoms: C_34  and  O_40
   16  A    between atoms: C_38  and  O_40
                            x       y       z     vdW  Elec       q    Type
                         _______ _______ _______ _____ _____    ______ ____

>  <TORSDO>
F 16

$$$$
=
 OpenBabel11072415143D

 40 42  0  0  1  0  0  0  0  0999 V2000
  162.4050  209.3980  149.1580 C   0  0  2  0  0  3  0  0  0  0  0  0
  162.0430  210.6590  148.4400 C   0  0  0  0  0  0  0  0  0  0  0  0
  162.8610  211.8140  148.5920 N   0  0  0  0  0  1  0  0  0  0  0  0
  161.0260  210.7070  147.7000 O   0  0  0  0  0  0  0  0  0  0  0  0
  162.1850  207.1890  148.2760 C   0  0  1  0  0  3  0  0  0  0  0  0
  161.4630  208.2640  148.7650 C   0  0  1  0  0  3  0  0  0  0  0  0
  161.6710  207.1000  149.6770 N   0  0  0  0  0  0  0  0  0  0  0  0
  161.7080  207.0870  152.1210 C   0  0  0  0  0  3  0  0  0  0  0  0
  161.1560  205.0580  150.9200 C   0  0  0  0  0  3  0  0  0  0  0  0
  161.1850  205.0600  153.3410 C   0  0  0  0  0  3  0  0  0  0  0  0
  161.5450  206.4120  153.3350 C   0  0  0  0  0  3  0  0  0  0  0  0
  161.5100  206.4110  150.9130 C   0  0  0  0  0  0  0  0  0  0  0  0
  160.9920  204.3840  152.1340 C   0  0  0  0  0  3  0  0  0  0  0  0
  161.3350  206.3650  147.3540 C   0  0  0  0  0  0  0  0  0  0  0  0
  160.0810  206.3590  147.4980 O   0  0  0  0  0  0  0  0  0  0  0  0
  161.6670  204.1710  146.0980 N   0  0  0  0  0  2  0  0  0  0  0  0
  162.7450  206.1220  145.4720 O   0  0  0  0  0  0  0  0  0  0  0  0
  161.9620  205.5610  146.2830 C   0  0  0  0  0  0  0  0  0  0  0  0
  161.3500  203.2380  147.1370 C   0  0  0  0  0  0  0  0  0  0  0  0
  161.5920  203.5050  148.3440 O   0  0  0  0  0  0  0  0  0  0  0  0
  160.8280  201.8930  146.7750 C   0  0  0  0  0  2  0  0  0  0  0  0
  160.5700  201.8440  145.4060 O   0  0  0  0  0  1  0  0  0  0  0  0
  162.3620  209.6270  150.5980 N   0  0  0  0  0  2  0  0  0  0  0  0
  160.9380  210.8870  152.1880 C   0  0  0  0  0  0  0  0  0  0  0  0
  161.3370  210.5500  150.8580 N   0  0  0  0  0  2  0  0  0  0  0  0
  161.5440  210.3950  153.1780 O   0  0  0  0  0  0  0  0  0  0  0  0
  159.7510  211.7850  152.3900 C   0  0  1  0  0  3  0  0  0  0  0  0
  159.3970  211.9440  153.7490 O   0  0  0  0  0  0  0  0  0  0  0  0
  158.0570  211.5610  153.9260 C   0  0  0  0  0  1  0  0  0  0  0  0
  159.8350  213.0990  151.6120 C   0  0  0  0  0  2  0  0  0  0  0  0
  158.6400  213.2370  150.6900 C   0  0  0  0  0  2  0  0  0  0  0  0
  159.0760  213.6240  149.4240 O   0  0  0  0  0  0  0  0  0  0  0  0
  158.0080  214.3470  148.8890 C   0  0  0  0  0  2  0  0  0  0  0  0
  158.5910  212.5530  145.8350 C   0  0  0  0  0  2  0  0  0  0  0  0
  156.8260  213.7340  146.8960 O   0  0  0  0  0  0  0  0  0  0  0  0
  157.1320  212.5480  146.2040 C   0  0  0  0  0  2  0  0  0  0  0  0
  158.0400  214.2680  147.3730 C   0  0  2  0  0  3  0  0  0  0  0  0
  159.1920  213.4020  146.9070 C   0  0  2  0  0  3  0  0  0  0  0  0
  161.2070  213.4650  145.5830 O   0  0  0  0  0  1  0  0  0  0  0  0
  160.3560  214.2350  146.3790 C   0  0  0  0  0  2  0  0  0  0  0  0
  1  2  1  6  0  0  0
  1 23  1  0  0  0  0
  2  3  1  0  0  0  0
  4  2  2  0  0  0  0
  5 14  1  6  0  0  0
  5  6  1  0  0  0  0
  5  7  1  0  0  0  0
  6  1  1  1  0  0  0
  6  7  1  0  0  0  0
  7 12  1  0  0  0  0
  8 11  1  0  0  0  0
  9 13  2  0  0  0  0
 11 10  2  0  0  0  0
 12  9  1  0  0  0  0
 12  8  2  0  0  0  0
 13 10  1  0  0  0  0
 14 15  2  0  0  0  0
 16 18  1  0  0  0  0
 16 19  1  0  0  0  0
 17 18  2  0  0  0  0
 18 14  1  0  0  0  0
 19 20  2  0  0  0  0
 21 19  1  0  0  0  0
 22 21  1  0  0  0  0
 23 25  1  0  0  0  0
 24 27  1  0  0  0  0
 24 26  2  0  0  0  0
 25 24  1  0  0  0  0
 27 30  1  1  0  0  0
 27 28  1  0  0  0  0
 28 29  1  0  0  0  0
 31 30  1  0  0  0  0
 32 31  1  0  0  0  0
 33 32  1  0  0  0  0
 34 36  1  0  0  0  0
 34 38  1  0  0  0  0
 35 37  1  0  0  0  0
 36 35  1  0  0  0  0
 37 33  1  1  0  0  0
 38 40  1  6  0  0  0
 38 37  1  0  0  0  0
 39 40  1  0  0  0  0
M  END
>  <MODEL>
2

>  <REMARK>
 VINA RESULT:      -6.4      3.162      8.854
  Name = 
  16 active torsions:
  status: ('A' for Active; 'I' for Inactive)
    1  A    between atoms: C_2  and  C_12
    2  A    between atoms: C_2  and  C_34
    3  A    between atoms: C_3  and  C_12
    4  A    between atoms: C_5  and  C_13
    5  A    between atoms: C_6  and  C_33
    6  A    between atoms: C_9  and  C_11
    7  A    between atoms: C_9  and  C_20
    8  A    between atoms: C_12  and  O_27
    9  A    between atoms: C_13  and  C_17
   10  A    between atoms: C_13  and  N_29
   11  A    between atoms: N_21  and  N_29
   12  A    between atoms: C_24  and  N_37
   13  A    between atoms: C_25  and  C_36
   14  A    between atoms: C_28  and  C_38
   15  A    between atoms: C_34  and  O_40
   16  A    between atoms: C_38  and  O_40
                            x       y       z     vdW  Elec       q    Type
                         _______ _______ _______ _____ _____    ______ ____

>  <TORSDO>
F 16

$$$$
=
 OpenBabel11072415143D

 40 42  0  0  1  0  0  0  0  0999 V2000
  161.4700  209.9460  151.0920 C   0  0  2  0  0  3  0  0  0  0  0  0
  161.8640  210.4510  149.7410 C   0  0  0  0  0  0  0  0  0  0  0  0
  161.8760  209.5590  148.6330 N   0  0  0  0  0  1  0  0  0  0  0  0
  162.1800  211.6580  149.5750 O   0  0  0  0  0  0  0  0  0  0  0  0
  159.7980  211.0200  152.4170 C   0  0  1  0  0  3  0  0  0  0  0  0
  161.1210  211.1050  152.0210 C   0  0  1  0  0  3  0  0  0  0  0  0
  160.8440  210.5820  153.3920 N   0  0  0  0  0  0  0  0  0  0  0  0
  162.3110  210.6560  155.3460 C   0  0  0  0  0  3  0  0  0  0  0  0
  160.5650  208.9830  155.2220 C   0  0  0  0  0  3  0  0  0  0  0  0
  162.0170  209.0740  157.1580 C   0  0  0  0  0  3  0  0  0  0  0  0
  162.6980  210.1580  156.5940 C   0  0  0  0  0  3  0  0  0  0  0  0
  161.2410  210.0710  154.6610 C   0  0  0  0  0  0  0  0  0  0  0  0
  160.9510  208.4860  156.4710 C   0  0  0  0  0  3  0  0  0  0  0  0
  159.2750  212.3770  152.7870 C   0  0  0  0  0  0  0  0  0  0  0  0
  159.8450  213.0410  153.6950 O   0  0  0  0  0  0  0  0  0  0  0  0
  158.1380  213.3300  150.7130 N   0  0  0  0  0  2  0  0  0  0  0  0
  157.0000  213.0190  152.7050 O   0  0  0  0  0  0  0  0  0  0  0  0
  158.0950  212.9340  152.0900 C   0  0  0  0  0  0  0  0  0  0  0  0
  159.2740  213.8800  150.0360 C   0  0  0  0  0  0  0  0  0  0  0  0
  160.2560  214.3330  150.6820 O   0  0  0  0  0  0  0  0  0  0  0  0
  159.2460  214.0140  148.5550 C   0  0  0  0  0  2  0  0  0  0  0  0
  159.7010  212.8330  147.9700 O   0  0  0  0  0  1  0  0  0  0  0  0
  162.5560  209.1470  151.6510 N   0  0  0  0  0  2  0  0  0  0  0  0
  161.4920  206.9090  151.6130 C   0  0  0  0  0  0  0  0  0  0  0  0
  162.4520  207.8490  151.1270 N   0  0  0  0  0  2  0  0  0  0  0  0
  160.6650  207.2470  152.5020 O   0  0  0  0  0  0  0  0  0  0  0  0
  161.5220  205.5000  151.0950 C   0  0  1  0  0  3  0  0  0  0  0  0
  161.6770  204.5330  152.1150 O   0  0  0  0  0  0  0  0  0  0  0  0
  161.2820  203.2770  151.6260 C   0  0  0  0  0  1  0  0  0  0  0  0
  160.3960  205.1840  150.1080 C   0  0  0  0  0  2  0  0  0  0  0  0
  160.5020  206.0840  148.8930 C   0  0  0  0  0  2  0  0  0  0  0  0
  161.7260  205.8650  148.2620 O   0  0  0  0  0  0  0  0  0  0  0  0
  161.7170  204.5080  147.9360 C   0  0  0  0  0  2  0  0  0  0  0  0
  160.6810  204.5490  144.4990 C   0  0  0  0  0  2  0  0  0  0  0  0
  162.3210  205.5750  145.8760 O   0  0  0  0  0  0  0  0  0  0  0  0
  161.3580  205.8370  144.8840 C   0  0  0  0  0  2  0  0  0  0  0  0
  162.0010  204.3310  146.4540 C   0  0  2  0  0  3  0  0  0  0  0  0
  160.7980  203.7380  145.7480 C   0  0  2  0  0  3  0  0  0  0  0  0
  160.3670  201.4570  146.4030 O   0  0  0  0  0  1  0  0  0  0  0  0
  160.9890  202.2560  145.4400 C   0  0  0  0  0  2  0  0  0  0  0  0
  1  2  1  6  0  0  0
  1 23  1  0  0  0  0
  3  2  1  0  0  0  0
  4  2  2  0  0  0  0
  5 14  1  1  0  0  0
  5  7  1  0  0  0  0
  6  1  1  6  0  0  0
  6  5  1  0  0  0  0
  6  7  1  0  0  0  0
  7 12  1  0  0  0  0
  8 11  1  0  0  0  0
  9 13  2  0  0  0  0
 11 10  2  0  0  0  0
 12  9  1  0  0  0  0
 12  8  2  0  0  0  0
 13 10  1  0  0  0  0
 14 15  2  0  0  0  0
 16 18  1  0  0  0  0
 18 17  2  0  0  0  0
 18 14  1  0  0  0  0
 19 20  2  0  0  0  0
 19 16  1  0  0  0  0
 21 19  1  0  0  0  0
 22 21  1  0  0  0  0
 24 26  2  0  0  0  0
 25 24  1  0  0  0  0
 25 23  1  0  0  0  0
 27 30  1  1  0  0  0
 27 24  1  0  0  0  0
 27 28  1  0  0  0  0
 29 28  1  0  0  0  0
 31 30  1  0  0  0  0
 32 31  1  0  0  0  0
 33 32  1  0  0  0  0
 34 36  1  0  0  0  0
 34 38  1  0  0  0  0
 35 37  1  0  0  0  0
 36 35  1  0  0  0  0
 37 33  1  1  0  0  0
 38 40  1  6  0  0  0
 38 37  1  0  0  0  0
 40 39  1  0  0  0  0
M  END
>  <MODEL>
3

>  <REMARK>
 VINA RESULT:      -6.3      1.853      3.016
  Name = 
  16 active torsions:
  status: ('A' for Active; 'I' for Inactive)
    1  A    between atoms: C_2  and  C_12
    2  A    between atoms: C_2  and  C_34
    3  A    between atoms: C_3  and  C_12
    4  A    between atoms: C_5  and  C_13
    5  A    between atoms: C_6  and  C_33
    6  A    between atoms: C_9  and  C_11
    7  A    between atoms: C_9  and  C_20
    8  A    between atoms: C_12  and  O_27
    9  A    between atoms: C_13  and  C_17
   10  A    between atoms: C_13  and  N_29
   11  A    between atoms: N_21  and  N_29
   12  A    between atoms: C_24  and  N_37
   13  A    between atoms: C_25  and  C_36
   14  A    between atoms: C_28  and  C_38
   15  A    between atoms: C_34  and  O_40
   16  A    between atoms: C_38  and  O_40
                            x       y       z     vdW  Elec       q    Type
                         _______ _______ _______ _____ _____    ______ ____

>  <TORSDO>
F 16

$$$$
=
 OpenBabel11072415143D

 40 42  0  0  1  0  0  0  0  0999 V2000
  161.0190  204.9950  150.1950 C   0  0  2  0  0  3  0  0  0  0  0  0
  160.7810  203.5260  150.0510 C   0  0  0  0  0  0  0  0  0  0  0  0
  160.8550  202.6860  151.1970 N   0  0  0  0  0  1  0  0  0  0  0  0
  160.5120  203.0270  148.9270 O   0  0  0  0  0  0  0  0  0  0  0  0
  160.8590  205.9680  148.0200 C   0  0  1  0  0  3  0  0  0  0  0  0
  161.7610  205.5440  148.9800 C   0  0  1  0  0  3  0  0  0  0  0  0
  161.5170  207.0120  148.8640 N   0  0  0  0  0  0  0  0  0  0  0  0
  161.8850  208.7050  150.5890 C   0  0  0  0  0  3  0  0  0  0  0  0
  161.7900  209.3670  148.2610 C   0  0  0  0  0  3  0  0  0  0  0  0
  162.1670  211.0330  149.9780 C   0  0  0  0  0  3  0  0  0  0  0  0
  162.1030  210.0370  150.9580 C   0  0  0  0  0  3  0  0  0  0  0  0
  161.7330  208.3690  149.2390 C   0  0  0  0  0  0  0  0  0  0  0  0
  162.0090  210.6980  148.6300 C   0  0  0  0  0  3  0  0  0  0  0  0
  161.4870  205.9260  146.6570 C   0  0  0  0  0  0  0  0  0  0  0  0
  162.7230  206.1460  146.5320 O   0  0  0  0  0  0  0  0  0  0  0  0
  160.2430  204.2960  145.1420 N   0  0  0  0  0  2  0  0  0  0  0  0
  160.2690  206.5760  144.7380 O   0  0  0  0  0  0  0  0  0  0  0  0
  160.6620  205.6280  145.4670 C   0  0  0  0  0  0  0  0  0  0  0  0
  160.9860  203.1000  145.3980 C   0  0  0  0  0  0  0  0  0  0  0  0
  162.2150  203.1470  145.6740 O   0  0  0  0  0  0  0  0  0  0  0  0
  160.3240  201.7780  145.2310 C   0  0  0  0  0  2  0  0  0  0  0  0
  160.8360  200.8770  146.1630 O   0  0  0  0  0  1  0  0  0  0  0  0
  161.7750  205.2500  151.4170 N   0  0  0  0  0  2  0  0  0  0  0  0
  161.4870  206.5830  153.4870 C   0  0  0  0  0  0  0  0  0  0  0  0
  161.0290  206.1370  152.2100 N   0  0  0  0  0  2  0  0  0  0  0  0
  162.6180  206.2270  153.9170 O   0  0  0  0  0  0  0  0  0  0  0  0
  160.5810  207.4290  154.3340 C   0  0  1  0  0  3  0  0  0  0  0  0
  160.8800  207.3580  155.7140 O   0  0  0  0  0  0  0  0  0  0  0  0
  159.7170  207.0120  156.4220 C   0  0  0  0  0  1  0  0  0  0  0  0
  160.4050  208.8560  153.8100 C   0  0  0  0  0  2  0  0  0  0  0  0
  161.2880  209.8090  154.5910 C   0  0  0  0  0  2  0  0  0  0  0  0
  160.9590  211.1220  154.2570 O   0  0  0  0  0  0  0  0  0  0  0  0
  160.6760  211.7360  155.4780 C   0  0  0  0  0  2  0  0  0  0  0  0
  157.3110  211.8010  154.2300 C   0  0  0  0  0  2  0  0  0  0  0  0
  158.4330  211.5870  156.3110 O   0  0  0  0  0  0  0  0  0  0  0  0
  157.4010  211.0410  155.5270 C   0  0  0  0  0  2  0  0  0  0  0  0
  159.2740  212.3200  155.4500 C   0  0  2  0  0  3  0  0  0  0  0  0
  158.7100  212.2870  154.0440 C   0  0  2  0  0  3  0  0  0  0  0  0
  159.4060  213.6130  152.1530 O   0  0  0  0  0  1  0  0  0  0  0  0
  158.7450  213.6620  153.3820 C   0  0  0  0  0  2  0  0  0  0  0  0
  1  2  1  6  0  0  0
  1 23  1  0  0  0  0
  2  3  1  0  0  0  0
  4  2  2  0  0  0  0
  5 14  1  6  0  0  0
  5  7  1  0  0  0  0
  5  6  1  0  0  0  0
  6  1  1  1  0  0  0
  7  6  1  0  0  0  0
  7 12  1  0  0  0  0
  8 11  1  0  0  0  0
  9 13  2  0  0  0  0
  9 12  1  0  0  0  0
 10 11  2  0  0  0  0
 12  8  2  0  0  0  0
 13 10  1  0  0  0  0
 15 14  2  0  0  0  0
 16 19  1  0  0  0  0
 16 18  1  0  0  0  0
 17 18  2  0  0  0  0
 18 14  1  0  0  0  0
 19 20  2  0  0  0  0
 21 19  1  0  0  0  0
 21 22  1  0  0  0  0
 23 25  1  0  0  0  0
 24 26  2  0  0  0  0
 24 27  1  0  0  0  0
 25 24  1  0  0  0  0
 27 30  1  6  0  0  0
 27 28  1  0  0  0  0
 28 29  1  0  0  0  0
 30 31  1  0  0  0  0
 32 31  1  0  0  0  0
 32 33  1  0  0  0  0
 34 36  1  0  0  0  0
 36 35  1  0  0  0  0
 37 33  1  6  0  0  0
 37 35  1  0  0  0  0
 38 40  1  1  0  0  0
 38 34  1  0  0  0  0
 38 37  1  0  0  0  0
 39 40  1  0  0  0  0
M  END
>  <MODEL>
4

>  <REMARK>
 VINA RESULT:      -6.2      2.386      9.684
  Name = 
  16 active torsions:
  status: ('A' for Active; 'I' for Inactive)
    1  A    between atoms: C_2  and  C_12
    2  A    between atoms: C_2  and  C_34
    3  A    between atoms: C_3  and  C_12
    4  A    between atoms: C_5  and  C_13
    5  A    between atoms: C_6  and  C_33
    6  A    between atoms: C_9  and  C_11
    7  A    between atoms: C_9  and  C_20
    8  A    between atoms: C_12  and  O_27
    9  A    between atoms: C_13  and  C_17
   10  A    between atoms: C_13  and  N_29
   11  A    between atoms: N_21  and  N_29
   12  A    between atoms: C_24  and  N_37
   13  A    between atoms: C_25  and  C_36
   14  A    between atoms: C_28  and  C_38
   15  A    between atoms: C_34  and  O_40
   16  A    between atoms: C_38  and  O_40
                            x       y       z     vdW  Elec       q    Type
                         _______ _______ _______ _____ _____    ______ ____

>  <TORSDO>
F 16

$$$$
=
 OpenBabel11072415143D

 40 42  0  0  1  0  0  0  0  0999 V2000
  160.5980  210.9000  153.3810 C   0  0  2  0  0  3  0  0  0  0  0  0
  160.7610  210.5860  154.8340 C   0  0  0  0  0  0  0  0  0  0  0  0
  161.9110  211.0520  155.5290 N   0  0  0  0  0  1  0  0  0  0  0  0
  159.8870  209.9190  155.4480 O   0  0  0  0  0  0  0  0  0  0  0  0
  158.9200  212.2090  152.2970 C   0  0  1  0  0  3  0  0  0  0  0  0
  159.9710  212.2790  153.1940 C   0  0  1  0  0  3  0  0  0  0  0  0
  158.5860  212.2800  153.7530 N   0  0  0  0  0  0  0  0  0  0  0  0
  156.6700  211.3330  154.9400 C   0  0  0  0  0  3  0  0  0  0  0  0
  157.7040  213.3630  155.7610 C   0  0  0  0  0  3  0  0  0  0  0  0
  155.8140  212.4080  156.9340 C   0  0  0  0  0  3  0  0  0  0  0  0
  155.7530  211.3740  155.9950 C   0  0  0  0  0  3  0  0  0  0  0  0
  157.6490  212.3260  154.8250 C   0  0  0  0  0  0  0  0  0  0  0  0
  156.7880  213.4030  156.8160 C   0  0  0  0  0  3  0  0  0  0  0  0
  158.7000  213.5430  151.6450 C   0  0  0  0  0  0  0  0  0  0  0  0
  159.6360  214.3880  151.6180 O   0  0  0  0  0  0  0  0  0  0  0  0
  157.0640  213.5000  149.6890 N   0  0  0  0  0  2  0  0  0  0  0  0
  156.5120  214.4360  151.7340 O   0  0  0  0  0  0  0  0  0  0  0  0
  157.3910  213.8660  151.0360 C   0  0  0  0  0  0  0  0  0  0  0  0
  157.9850  213.4290  148.5950 C   0  0  0  0  0  0  0  0  0  0  0  0
  159.1210  213.9690  148.6680 O   0  0  0  0  0  0  0  0  0  0  0  0
  157.5530  212.8020  147.3170 C   0  0  0  0  0  2  0  0  0  0  0  0
  158.1680  213.4500  146.2470 O   0  0  0  0  0  1  0  0  0  0  0  0
  159.7780  209.8720  152.7490 N   0  0  0  0  0  2  0  0  0  0  0  0
  161.4890  208.4500  151.6560 C   0  0  0  0  0  0  0  0  0  0  0  0
  160.5350  208.6910  152.6910 N   0  0  0  0  0  2  0  0  0  0  0  0
  161.7170  209.3310  150.7830 O   0  0  0  0  0  0  0  0  0  0  0  0
  162.1690  207.1130  151.5850 C   0  0  1  0  0  3  0  0  0  0  0  0
  162.3310  206.5010  152.8490 O   0  0  0  0  0  0  0  0  0  0  0  0
  161.6070  205.2980  152.8770 C   0  0  0  0  0  1  0  0  0  0  0  0
  161.5900  206.1840  150.5160 C   0  0  0  0  0  2  0  0  0  0  0  0
  161.1580  206.9890  149.3060 C   0  0  0  0  0  2  0  0  0  0  0  0
  162.2210  207.0800  148.4090 O   0  0  0  0  0  0  0  0  0  0  0  0
  161.6650  206.7590  147.1690 C   0  0  0  0  0  2  0  0  0  0  0  0
  161.2130  203.5550  145.6150 C   0  0  0  0  0  2  0  0  0  0  0  0
  162.5500  205.4970  145.3340 O   0  0  0  0  0  0  0  0  0  0  0  0
  161.7540  204.5660  144.6400 C   0  0  0  0  0  2  0  0  0  0  0  0
  162.1990  205.4180  146.6960 C   0  0  2  0  0  3  0  0  0  0  0  0
  161.1610  204.3320  146.8890 C   0  0  2  0  0  3  0  0  0  0  0  0
  161.4020  202.0970  147.7670 O   0  0  0  0  0  1  0  0  0  0  0  0
  161.4720  203.4530  148.0980 C   0  0  0  0  0  2  0  0  0  0  0  0
  1 23  1  1  0  0  0
  1  2  1  0  0  0  0
  2  4  2  0  0  0  0
  2  3  1  0  0  0  0
  5 14  1  6  0  0  0
  5  6  1  0  0  0  0
  5  7  1  0  0  0  0
  6  1  1  1  0  0  0
  6  7  1  0  0  0  0
  7 12  1  0  0  0  0
  8 11  1  0  0  0  0
  9 13  2  0  0  0  0
 11 10  2  0  0  0  0
 12  8  2  0  0  0  0
 12  9  1  0  0  0  0
 13 10  1  0  0  0  0
 15 14  2  0  0  0  0
 16 18  1  0  0  0  0
 18 14  1  0  0  0  0
 18 17  2  0  0  0  0
 19 20  2  0  0  0  0
 19 16  1  0  0  0  0
 21 19  1  0  0  0  0
 22 21  1  0  0  0  0
 24 25  1  0  0  0  0
 25 23  1  0  0  0  0
 26 24  2  0  0  0  0
 27 30  1  6  0  0  0
 27 24  1  0  0  0  0
 27 28  1  0  0  0  0
 28 29  1  0  0  0  0
 31 30  1  0  0  0  0
 32 31  1  0  0  0  0
 33 32  1  0  0  0  0
 34 38  1  0  0  0  0
 35 37  1  0  0  0  0
 36 35  1  0  0  0  0
 36 34  1  0  0  0  0
 37 38  1  0  0  0  0
 37 33  1  6  0  0  0
 38 40  1  1  0  0  0
 39 40  1  0  0  0  0
M  END
>  <MODEL>
5

>  <REMARK>
 VINA RESULT:      -6.1      2.520      4.490
  Name = 
  16 active torsions:
  status: ('A' for Active; 'I' for Inactive)
    1  A    between atoms: C_2  and  C_12
    2  A    between atoms: C_2  and  C_34
    3  A    between atoms: C_3  and  C_12
    4  A    between atoms: C_5  and  C_13
    5  A    between atoms: C_6  and  C_33
    6  A    between atoms: C_9  and  C_11
    7  A    between atoms: C_9  and  C_20
    8  A    between atoms: C_12  and  O_27
    9  A    between atoms: C_13  and  C_17
   10  A    between atoms: C_13  and  N_29
   11  A    between atoms: N_21  and  N_29
   12  A    between atoms: C_24  and  N_37
   13  A    between atoms: C_25  and  C_36
   14  A    between atoms: C_28  and  C_38
   15  A    between atoms: C_34  and  O_40
   16  A    between atoms: C_38  and  O_40
                            x       y       z     vdW  Elec       q    Type
                         _______ _______ _______ _____ _____    ______ ____

>  <TORSDO>
F 16

$$$$
=
 OpenBabel11072415143D

 40 42  0  0  1  0  0  0  0  0999 V2000
  160.5160  211.7470  151.2190 C   0  0  2  0  0  3  0  0  0  0  0  0
  160.3810  212.8740  150.2450 C   0  0  0  0  0  0  0  0  0  0  0  0
  159.9900  214.1610  150.7080 N   0  0  0  0  0  1  0  0  0  0  0  0
  160.6150  212.6950  149.0210 O   0  0  0  0  0  0  0  0  0  0  0  0
  158.9310  211.8090  153.0050 C   0  0  1  0  0  3  0  0  0  0  0  0
  160.2000  212.2180  152.6360 C   0  0  1  0  0  3  0  0  0  0  0  0
  160.0930  211.0380  153.5440 N   0  0  0  0  0  0  0  0  0  0  0  0
  161.3360  210.2880  155.5110 C   0  0  0  0  0  3  0  0  0  0  0  0
  160.5010  208.6570  153.9280 C   0  0  0  0  0  3  0  0  0  0  0  0
  161.7230  207.9260  155.8860 C   0  0  0  0  0  3  0  0  0  0  0  0
  161.8740  209.2570  156.2880 C   0  0  0  0  0  3  0  0  0  0  0  0
  160.6450  209.9880  154.3320 C   0  0  0  0  0  0  0  0  0  0  0  0
  161.0370  207.6260  154.7060 C   0  0  0  0  0  3  0  0  0  0  0  0
  158.3750  212.7200  154.0600 C   0  0  0  0  0  0  0  0  0  0  0  0
  158.0860  213.9130  153.7670 O   0  0  0  0  0  0  0  0  0  0  0  0
  157.1680  211.2440  155.7530 N   0  0  0  0  0  2  0  0  0  0  0  0
  158.9190  212.6320  156.3590 O   0  0  0  0  0  0  0  0  0  0  0  0
  158.1660  212.2230  155.4370 C   0  0  0  0  0  0  0  0  0  0  0  0
  155.9010  211.1020  155.1010 C   0  0  0  0  0  0  0  0  0  0  0  0
  155.4360  212.0230  154.3790 O   0  0  0  0  0  0  0  0  0  0  0  0
  155.0750  209.8940  155.3680 C   0  0  0  0  0  2  0  0  0  0  0  0
  154.2360  210.1320  156.4560 O   0  0  0  0  0  1  0  0  0  0  0  0
  161.8660  211.2000  151.1470 N   0  0  0  0  0  2  0  0  0  0  0  0
  161.9660  209.2720  149.5920 C   0  0  0  0  0  0  0  0  0  0  0  0
  161.7600  209.8230  150.8940 N   0  0  0  0  0  2  0  0  0  0  0  0
  162.3070  210.0170  148.6330 O   0  0  0  0  0  0  0  0  0  0  0  0
  161.7120  207.8090  149.3680 C   0  0  1  0  0  3  0  0  0  0  0  0
  162.1030  207.3650  148.0840 O   0  0  0  0  0  0  0  0  0  0  0  0
  160.9580  207.0330  147.3410 C   0  0  0  0  0  1  0  0  0  0  0  0
  162.2060  206.9180  150.5090 C   0  0  0  0  0  2  0  0  0  0  0  0
  161.0390  206.1800  151.1350 C   0  0  0  0  0  2  0  0  0  0  0  0
  160.4140  205.3970  150.1660 O   0  0  0  0  0  0  0  0  0  0  0  0
  161.3050  204.3490  149.9300 C   0  0  0  0  0  2  0  0  0  0  0  0
  161.2620  201.0640  148.4840 C   0  0  0  0  0  2  0  0  0  0  0  0
  160.1830  202.2520  150.2330 O   0  0  0  0  0  0  0  0  0  0  0  0
  160.8190  201.0360  149.9220 C   0  0  0  0  0  2  0  0  0  0  0  0
  160.5790  203.1940  149.2620 C   0  0  2  0  0  3  0  0  0  0  0  0
  161.4720  202.5220  148.2390 C   0  0  2  0  0  3  0  0  0  0  0  0
  161.8470  204.0110  146.3790 O   0  0  0  0  0  1  0  0  0  0  0  0
  161.1000  202.9130  146.8120 C   0  0  0  0  0  2  0  0  0  0  0  0
  1  2  1  6  0  0  0
  2  3  1  0  0  0  0
  4  2  2  0  0  0  0
  5  7  1  0  0  0  0
  5 14  1  1  0  0  0
  6  1  1  6  0  0  0
  6  5  1  0  0  0  0
  6  7  1  0  0  0  0
  7 12  1  0  0  0  0
  8 11  1  0  0  0  0
  9 12  1  0  0  0  0
  9 13  2  0  0  0  0
 10 11  2  0  0  0  0
 12  8  2  0  0  0  0
 13 10  1  0  0  0  0
 14 18  1  0  0  0  0
 15 14  2  0  0  0  0
 18 16  1  0  0  0  0
 18 17  2  0  0  0  0
 19 21  1  0  0  0  0
 19 16  1  0  0  0  0
 20 19  2  0  0  0  0
 21 22  1  0  0  0  0
 23  1  1  0  0  0  0
 24 25  1  0  0  0  0
 25 23  1  0  0  0  0
 26 24  2  0  0  0  0
 27 24  1  0  0  0  0
 27 30  1  1  0  0  0
 28 27  1  0  0  0  0
 29 28  1  0  0  0  0
 30 31  1  0  0  0  0
 32 31  1  0  0  0  0
 33 32  1  0  0  0  0
 34 36  1  0  0  0  0
 36 35  1  0  0  0  0
 37 33  1  1  0  0  0
 37 35  1  0  0  0  0
 38 40  1  6  0  0  0
 38 34  1  0  0  0  0
 38 37  1  0  0  0  0
 39 40  1  0  0  0  0
M  END
>  <MODEL>
6

>  <REMARK>
 VINA RESULT:      -6.0      1.658      2.681
  Name = 
  16 active torsions:
  status: ('A' for Active; 'I' for Inactive)
    1  A    between atoms: C_2  and  C_12
    2  A    between atoms: C_2  and  C_34
    3  A    between atoms: C_3  and  C_12
    4  A    between atoms: C_5  and  C_13
    5  A    between atoms: C_6  and  C_33
    6  A    between atoms: C_9  and  C_11
    7  A    between atoms: C_9  and  C_20
    8  A    between atoms: C_12  and  O_27
    9  A    between atoms: C_13  and  C_17
   10  A    between atoms: C_13  and  N_29
   11  A    between atoms: N_21  and  N_29
   12  A    between atoms: C_24  and  N_37
   13  A    between atoms: C_25  and  C_36
   14  A    between atoms: C_28  and  C_38
   15  A    between atoms: C_34  and  O_40
   16  A    between atoms: C_38  and  O_40
                            x       y       z     vdW  Elec       q    Type
                         _______ _______ _______ _____ _____    ______ ____

>  <TORSDO>
F 16

$$$$
=
 OpenBabel11072415143D

 40 42  0  0  1  0  0  0  0  0999 V2000
  161.4010  207.9550  152.8580 C   0  0  2  0  0  3  0  0  0  0  0  0
  161.6680  206.5460  153.2810 C   0  0  0  0  0  0  0  0  0  0  0  0
  162.5910  205.7530  152.5450 N   0  0  0  0  0  1  0  0  0  0  0  0
  161.0870  206.0580  154.2860 O   0  0  0  0  0  0  0  0  0  0  0  0
  161.9130  209.7480  154.3510 C   0  0  1  0  0  3  0  0  0  0  0  0
  160.9520  208.8000  154.0460 C   0  0  1  0  0  3  0  0  0  0  0  0
  160.7040  210.2030  153.5990 N   0  0  0  0  0  0  0  0  0  0  0  0
  158.6270  211.4790  153.4040 C   0  0  0  0  0  3  0  0  0  0  0  0
  160.4640  211.9430  151.8970 C   0  0  0  0  0  3  0  0  0  0  0  0
  158.4070  213.2080  151.7220 C   0  0  0  0  0  3  0  0  0  0  0  0
  157.8670  212.4760  152.7840 C   0  0  0  0  0  3  0  0  0  0  0  0
  159.9280  211.2150  152.9630 C   0  0  0  0  0  0  0  0  0  0  0  0
  159.7050  212.9410  151.2780 C   0  0  0  0  0  3  0  0  0  0  0  0
  161.8130  210.1490  155.7940 C   0  0  0  0  0  0  0  0  0  0  0  0
  162.6650  210.9410  156.2830 O   0  0  0  0  0  0  0  0  0  0  0  0
  159.5040  210.3440  156.8580 N   0  0  0  0  0  2  0  0  0  0  0  0
  160.8370  208.4730  157.1450 O   0  0  0  0  0  0  0  0  0  0  0  0
  160.7210  209.6190  156.6390 C   0  0  0  0  0  0  0  0  0  0  0  0
  159.3800  211.7690  156.9270 C   0  0  0  0  0  0  0  0  0  0  0  0
  160.3930  212.5000  157.0890 O   0  0  0  0  0  0  0  0  0  0  0  0
  158.0270  212.3850  156.9130 C   0  0  0  0  0  2  0  0  0  0  0  0
  157.0950  211.4580  156.4490 O   0  0  0  0  0  1  0  0  0  0  0  0
  160.3890  207.9660  151.8070 N   0  0  0  0  0  2  0  0  0  0  0  0
  160.8830  207.2950  149.4730 C   0  0  0  0  0  0  0  0  0  0  0  0
  161.0410  208.1800  150.5820 N   0  0  0  0  0  2  0  0  0  0  0  0
  160.0970  206.3120  149.5500 O   0  0  0  0  0  0  0  0  0  0  0  0
  161.7080  207.5150  148.2370 C   0  0  1  0  0  3  0  0  0  0  0  0
  162.6650  208.5460  148.3820 O   0  0  0  0  0  0  0  0  0  0  0  0
  162.0200  209.7910  148.2920 C   0  0  0  0  0  1  0  0  0  0  0  0
  162.2720  206.2260  147.6370 C   0  0  0  0  0  2  0  0  0  0  0  0
  161.4850  205.8390  146.4010 C   0  0  0  0  0  2  0  0  0  0  0  0
  161.5630  204.4600  146.2160 O   0  0  0  0  0  0  0  0  0  0  0  0
  161.9440  203.9590  147.4620 C   0  0  0  0  0  2  0  0  0  0  0  0
  161.1000  200.9660  149.2550 C   0  0  0  0  0  2  0  0  0  0  0  0
  160.4730  203.2550  149.2190 O   0  0  0  0  0  0  0  0  0  0  0  0
  160.8190  202.1950  150.0770 C   0  0  0  0  0  2  0  0  0  0  0  0
  160.9370  202.9230  147.9310 C   0  0  2  0  0  3  0  0  0  0  0  0
  161.5630  201.5440  147.9590 C   0  0  2  0  0  3  0  0  0  0  0  0
  160.5200  201.4750  145.7850 O   0  0  0  0  0  1  0  0  0  0  0  0
  161.1200  200.6910  146.7730 C   0  0  0  0  0  2  0  0  0  0  0  0
  1 23  1  6  0  0  0
  1  2  1  0  0  0  0
  2  4  2  0  0  0  0
  3  2  1  0  0  0  0
  5 14  1  1  0  0  0
  6  1  1  6  0  0  0
  6  5  1  0  0  0  0
  7  6  1  0  0  0  0
  7  5  1  0  0  0  0
  9 12  2  0  0  0  0
 10 11  1  0  0  0  0
 11  8  2  0  0  0  0
 12  8  1  0  0  0  0
 12  7  1  0  0  0  0
 13 10  2  0  0  0  0
 13  9  1  0  0  0  0
 14 15  2  0  0  0  0
 14 18  1  0  0  0  0
 16 19  1  0  0  0  0
 18 16  1  0  0  0  0
 18 17  2  0  0  0  0
 19 20  2  0  0  0  0
 21 19  1  0  0  0  0
 22 21  1  0  0  0  0
 24 26  2  0  0  0  0
 24 25  1  0  0  0  0
 25 23  1  0  0  0  0
 27 30  1  1  0  0  0
 27 28  1  0  0  0  0
 27 24  1  0  0  0  0
 29 28  1  0  0  0  0
 31 30  1  0  0  0  0
 32 31  1  0  0  0  0
 32 33  1  0  0  0  0
 34 36  1  0  0  0  0
 35 36  1  0  0  0  0
 37 33  1  1  0  0  0
 37 38  1  0  0  0  0
 37 35  1  0  0  0  0
 38 40  1  6  0  0  0
 38 34  1  0  0  0  0
 39 40  1  0  0  0  0
M  END
>  <MODEL>
7

>  <REMARK>
 VINA RESULT:      -5.8      2.089      4.218
  Name = 
  16 active torsions:
  status: ('A' for Active; 'I' for Inactive)
    1  A    between atoms: C_2  and  C_12
    2  A    between atoms: C_2  and  C_34
    3  A    between atoms: C_3  and  C_12
    4  A    between atoms: C_5  and  C_13
    5  A    between atoms: C_6  and  C_33
    6  A    between atoms: C_9  and  C_11
    7  A    between atoms: C_9  and  C_20
    8  A    between atoms: C_12  and  O_27
    9  A    between atoms: C_13  and  C_17
   10  A    between atoms: C_13  and  N_29
   11  A    between atoms: N_21  and  N_29
   12  A    between atoms: C_24  and  N_37
   13  A    between atoms: C_25  and  C_36
   14  A    between atoms: C_28  and  C_38
   15  A    between atoms: C_34  and  O_40
   16  A    between atoms: C_38  and  O_40
                            x       y       z     vdW  Elec       q    Type
                         _______ _______ _______ _____ _____    ______ ____

>  <TORSDO>
F 16

$$$$
=
 OpenBabel11072415143D

 40 42  0  0  1  0  0  0  0  0999 V2000
  162.2010  209.1770  151.4950 C   0  0  2  0  0  3  0  0  0  0  0  0
  162.0510  209.7070  150.1050 C   0  0  0  0  0  0  0  0  0  0  0  0
  161.5890  208.8460  149.0710 N   0  0  0  0  0  1  0  0  0  0  0  0
  162.3230  210.9080  149.8430 O   0  0  0  0  0  0  0  0  0  0  0  0
  161.9980  206.8550  152.0170 C   0  0  1  0  0  3  0  0  0  0  0  0
  161.2670  207.9940  151.7260 C   0  0  1  0  0  3  0  0  0  0  0  0
  161.3410  207.5680  153.1560 N   0  0  0  0  0  0  0  0  0  0  0  0
  160.1190  206.8290  155.1410 C   0  0  0  0  0  3  0  0  0  0  0  0
  161.6310  208.7150  155.2970 C   0  0  0  0  0  3  0  0  0  0  0  0
  160.4250  207.9660  157.2580 C   0  0  0  0  0  3  0  0  0  0  0  0
  159.8180  206.9600  156.5000 C   0  0  0  0  0  3  0  0  0  0  0  0
  161.0300  207.7050  154.5390 C   0  0  0  0  0  0  0  0  0  0  0  0
  161.3310  208.8440  156.6560 C   0  0  0  0  0  3  0  0  0  0  0  0
  161.2190  205.6260  151.6510 C   0  0  0  0  0  0  0  0  0  0  0  0
  160.6230  204.9730  152.5510 O   0  0  0  0  0  0  0  0  0  0  0  0
  160.7880  203.8420  149.8810 N   0  0  0  0  0  2  0  0  0  0  0  0
  161.3700  206.0130  149.3240 O   0  0  0  0  0  0  0  0  0  0  0  0
  161.1510  205.1810  150.2430 C   0  0  0  0  0  0  0  0  0  0  0  0
  161.0810  202.6630  150.6390 C   0  0  0  0  0  0  0  0  0  0  0  0
  161.9460  202.6790  151.5540 O   0  0  0  0  0  0  0  0  0  0  0  0
  160.4330  201.3770  150.2670 C   0  0  0  0  0  2  0  0  0  0  0  0
  160.2580  201.3240  148.8850 O   0  0  0  0  0  1  0  0  0  0  0  0
  161.9300  210.2420  152.4550 N   0  0  0  0  0  2  0  0  0  0  0  0
  159.9100  211.3890  153.3200 C   0  0  0  0  0  0  0  0  0  0  0  0
  160.5760  210.5960  152.3370 N   0  0  0  0  0  2  0  0  0  0  0  0
  160.5470  211.8450  154.3080 O   0  0  0  0  0  0  0  0  0  0  0  0
  158.4310  211.6210  153.1930 C   0  0  1  0  0  3  0  0  0  0  0  0
  157.7030  211.2190  154.3360 O   0  0  0  0  0  0  0  0  0  0  0  0
  156.7010  212.1670  154.6030 C   0  0  0  0  0  1  0  0  0  0  0  0
  158.0710  213.0190  152.6870 C   0  0  0  0  0  2  0  0  0  0  0  0
  158.0340  213.0310  151.1720 C   0  0  0  0  0  2  0  0  0  0  0  0
  158.7620  214.1220  150.7010 O   0  0  0  0  0  0  0  0  0  0  0  0
  159.8910  213.5600  150.1020 C   0  0  0  0  0  2  0  0  0  0  0  0
  160.0500  212.7480  146.6090 C   0  0  0  0  0  2  0  0  0  0  0  0
  158.6580  213.9760  148.0890 O   0  0  0  0  0  0  0  0  0  0  0  0
  158.6370  213.0370  147.0410 C   0  0  0  0  0  2  0  0  0  0  0  0
  159.9550  213.9640  148.6390 C   0  0  2  0  0  3  0  0  0  0  0  0
  160.8280  213.0040  147.8570 C   0  0  2  0  0  3  0  0  0  0  0  0
  163.0760  212.6220  147.0720 O   0  0  0  0  0  1  0  0  0  0  0  0
  162.2010  213.5970  147.5540 C   0  0  0  0  0  2  0  0  0  0  0  0
  1  2  1  6  0  0  0
  1 23  1  0  0  0  0
  3  2  1  0  0  0  0
  4  2  2  0  0  0  0
  5 14  1  6  0  0  0
  5  7  1  0  0  0  0
  6  1  1  1  0  0  0
  6  5  1  0  0  0  0
  6  7  1  0  0  0  0
  7 12  1  0  0  0  0
  8 11  1  0  0  0  0
  9 13  2  0  0  0  0
 11 10  2  0  0  0  0
 12  8  2  0  0  0  0
 12  9  1  0  0  0  0
 13 10  1  0  0  0  0
 14 15  2  0  0  0  0
 16 18  1  0  0  0  0
 16 19  1  0  0  0  0
 17 18  2  0  0  0  0
 18 14  1  0  0  0  0
 19 20  2  0  0  0  0
 21 19  1  0  0  0  0
 22 21  1  0  0  0  0
 24 26  2  0  0  0  0
 25 23  1  0  0  0  0
 25 24  1  0  0  0  0
 27 30  1  1  0  0  0
 27 24  1  0  0  0  0
 27 28  1  0  0  0  0
 28 29  1  0  0  0  0
 31 30  1  0  0  0  0
 32 31  1  0  0  0  0
 33 32  1  0  0  0  0
 34 36  1  0  0  0  0
 34 38  1  0  0  0  0
 35 37  1  0  0  0  0
 36 35  1  0  0  0  0
 37 33  1  1  0  0  0
 38 40  1  6  0  0  0
 38 37  1  0  0  0  0
 39 40  1  0  0  0  0
M  END
>  <MODEL>
8

>  <REMARK>
 VINA RESULT:      -5.8      2.339      8.033
  Name = 
  16 active torsions:
  status: ('A' for Active; 'I' for Inactive)
    1  A    between atoms: C_2  and  C_12
    2  A    between atoms: C_2  and  C_34
    3  A    between atoms: C_3  and  C_12
    4  A    between atoms: C_5  and  C_13
    5  A    between atoms: C_6  and  C_33
    6  A    between atoms: C_9  and  C_11
    7  A    between atoms: C_9  and  C_20
    8  A    between atoms: C_12  and  O_27
    9  A    between atoms: C_13  and  C_17
   10  A    between atoms: C_13  and  N_29
   11  A    between atoms: N_21  and  N_29
   12  A    between atoms: C_24  and  N_37
   13  A    between atoms: C_25  and  C_36
   14  A    between atoms: C_28  and  C_38
   15  A    between atoms: C_34  and  O_40
   16  A    between atoms: C_38  and  O_40
                            x       y       z     vdW  Elec       q    Type
                         _______ _______ _______ _____ _____    ______ ____

>  <TORSDO>
F 16

$$$$
=
 OpenBabel11072415143D

 40 42  0  0  1  0  0  0  0  0999 V2000
  160.3710  203.4860  149.9660 C   0  0  2  0  0  3  0  0  0  0  0  0
  160.3990  201.9910  149.9880 C   0  0  0  0  0  0  0  0  0  0  0  0
  161.5540  201.3170  150.4740 N   0  0  0  0  0  1  0  0  0  0  0  0
  159.4090  201.3250  149.5860 O   0  0  0  0  0  0  0  0  0  0  0  0
  161.9530  204.0320  148.2620 C   0  0  1  0  0  3  0  0  0  0  0  0
  160.6000  204.0090  148.5510 C   0  0  1  0  0  3  0  0  0  0  0  0
  161.1410  202.9130  147.6920 N   0  0  0  0  0  0  0  0  0  0  0  0
  160.2400  201.7370  145.7480 C   0  0  0  0  0  3  0  0  0  0  0  0
  161.6480  200.5490  147.3200 C   0  0  0  0  0  3  0  0  0  0  0  0
  160.7590  199.3990  145.3840 C   0  0  0  0  0  3  0  0  0  0  0  0
  160.1150  200.5740  144.9820 C   0  0  0  0  0  3  0  0  0  0  0  0
  161.0100  201.7260  146.9160 C   0  0  0  0  0  0  0  0  0  0  0  0
  161.5240  199.3870  146.5530 C   0  0  0  0  0  3  0  0  0  0  0  0
  162.2450  205.0560  147.2050 C   0  0  0  0  0  0  0  0  0  0  0  0
  163.3490  205.0290  146.5950 O   0  0  0  0  0  0  0  0  0  0  0  0
  161.3980  207.4600  147.2850 N   0  0  0  0  0  2  0  0  0  0  0  0
  160.2440  205.7860  146.1780 O   0  0  0  0  0  0  0  0  0  0  0  0
  161.2430  206.0940  146.8780 C   0  0  0  0  0  0  0  0  0  0  0  0
  162.0300  207.9070  148.4900 C   0  0  0  0  0  0  0  0  0  0  0  0
  162.2490  207.1100  149.4410 O   0  0  0  0  0  0  0  0  0  0  0  0
  162.3350  209.3530  148.6610 C   0  0  0  0  0  2  0  0  0  0  0  0
  162.0370  209.7420  149.9660 O   0  0  0  0  0  1  0  0  0  0  0  0
  161.3840  204.0070  150.8770 N   0  0  0  0  0  2  0  0  0  0  0  0
  161.5940  206.0220  152.3060 C   0  0  0  0  0  0  0  0  0  0  0  0
  160.8050  205.0530  151.6140 N   0  0  0  0  0  2  0  0  0  0  0  0
  162.8520  205.9930  152.2250 O   0  0  0  0  0  0  0  0  0  0  0  0
  160.9090  207.0350  153.1780 C   0  0  1  0  0  3  0  0  0  0  0  0
  161.3100  206.9680  154.5320 O   0  0  0  0  0  0  0  0  0  0  0  0
  160.1700  206.8840  155.3480 C   0  0  0  0  0  1  0  0  0  0  0  0
  160.9170  208.4500  152.5980 C   0  0  0  0  0  2  0  0  0  0  0  0
  161.3900  209.4390  153.6440 C   0  0  0  0  0  2  0  0  0  0  0  0
  160.9510  210.7170  153.3040 O   0  0  0  0  0  0  0  0  0  0  0  0
  159.7120  210.5130  152.6940 C   0  0  0  0  0  2  0  0  0  0  0  0
  158.8530  213.5280  154.4440 C   0  0  0  0  0  2  0  0  0  0  0  0
  158.4290  212.5070  152.3420 O   0  0  0  0  0  0  0  0  0  0  0  0
  158.7920  213.7230  152.9530 C   0  0  0  0  0  2  0  0  0  0  0  0
  158.6880  211.4780  153.2680 C   0  0  2  0  0  3  0  0  0  0  0  0
  159.1900  212.0780  154.5660 C   0  0  2  0  0  3  0  0  0  0  0  0
  159.2540  210.3500  156.2470 O   0  0  0  0  0  1  0  0  0  0  0  0
  158.5230  211.4460  155.7840 C   0  0  0  0  0  2  0  0  0  0  0  0
  1  2  1  6  0  0  0
  1 23  1  0  0  0  0
  2  3  1  0  0  0  0
  4  2  2  0  0  0  0
  5 14  1  6  0  0  0
  5  6  1  0  0  0  0
  6  1  1  1  0  0  0
  7  5  1  0  0  0  0
  7  6  1  0  0  0  0
  8 12  1  0  0  0  0
 10 13  2  0  0  0  0
 11 10  1  0  0  0  0
 11  8  2  0  0  0  0
 12  9  2  0  0  0  0
 12  7  1  0  0  0  0
 13  9  1  0  0  0  0
 15 14  2  0  0  0  0
 16 19  1  0  0  0  0
 17 18  2  0  0  0  0
 18 14  1  0  0  0  0
 18 16  1  0  0  0  0
 19 21  1  0  0  0  0
 19 20  2  0  0  0  0
 21 22  1  0  0  0  0
 23 25  1  0  0  0  0
 24 27  1  0  0  0  0
 25 24  1  0  0  0  0
 26 24  2  0  0  0  0
 27 30  1  6  0  0  0
 27 28  1  0  0  0  0
 28 29  1  0  0  0  0
 30 31  1  0  0  0  0
 32 31  1  0  0  0  0
 33 32  1  0  0  0  0
 34 38  1  0  0  0  0
 35 36  1  0  0  0  0
 35 37  1  0  0  0  0
 36 34  1  0  0  0  0
 37 33  1  6  0  0  0
 37 38  1  0  0  0  0
 38 40  1  1  0  0  0
 40 39  1  0  0  0  0
M  END
>  <MODEL>
9

>  <REMARK>
 VINA RESULT:      -5.7      2.649      9.896
  Name = 
  16 active torsions:
  status: ('A' for Active; 'I' for Inactive)
    1  A    between atoms: C_2  and  C_12
    2  A    between atoms: C_2  and  C_34
    3  A    between atoms: C_3  and  C_12
    4  A    between atoms: C_5  and  C_13
    5  A    between atoms: C_6  and  C_33
    6  A    between atoms: C_9  and  C_11
    7  A    between atoms: C_9  and  C_20
    8  A    between atoms: C_12  and  O_27
    9  A    between atoms: C_13  and  C_17
   10  A    between atoms: C_13  and  N_29
   11  A    between atoms: N_21  and  N_29
   12  A    between atoms: C_24  and  N_37
   13  A    between atoms: C_25  and  C_36
   14  A    between atoms: C_28  and  C_38
   15  A    between atoms: C_34  and  O_40
   16  A    between atoms: C_38  and  O_40
                            x       y       z     vdW  Elec       q    Type
                         _______ _______ _______ _____ _____    ______ ____

>  <TORSDO>
F 16

$$$$
