=
 OpenBabel11072411013D

 30 33  0  0  1  0  0  0  0  0999 V2000
  160.8260  201.2900  150.2490 N   0  0  0  0  0  2  0  0  0  0  0  0
  161.3200  209.1340  152.2560 C   0  0  0  0  0  0  0  0  0  0  0  0
  160.7020  211.4720  152.8410 N   0  0  0  0  0  1  0  0  0  0  0  0
  162.8040  206.1440  149.5530 C   0  0  0  0  0  2  0  0  0  0  0  0
  161.8240  201.7110  151.2240 C   0  0  0  0  0  2  0  0  0  0  0  0
  161.6660  205.2790  148.9900 C   0  0  1  0  0  3  0  0  0  0  0  0
  161.3300  202.9180  152.0100 C   0  0  0  0  0  2  0  0  0  0  0  0
  160.8410  202.2220  149.1290 C   0  0  0  0  0  2  0  0  0  0  0  0
  161.3160  207.7770  152.6620 C   0  0  0  0  0  0  0  0  0  0  0  0
  161.8030  206.7690  151.8100 C   0  0  0  0  0  0  0  0  0  0  0  0
  160.7860  210.0860  153.1620 C   0  0  0  0  0  0  0  0  0  0  0  0
  162.3050  208.4520  150.1790 N   0  0  0  0  0  0  0  0  0  0  0  0
  161.7150  204.2050  151.2900 C   0  0  1  0  0  3  0  0  0  0  0  0
  160.8310  207.4410  153.8890 N   0  0  0  0  0  0  0  0  0  0  0  0
  160.3170  209.6800  154.3690 N   0  0  0  0  0  0  0  0  0  0  0  0
  160.3390  208.3760  154.7360 C   0  0  0  0  0  3  0  0  0  0  0  0
  162.3080  207.1470  150.5460 C   0  0  0  0  0  0  0  0  0  0  0  0
  159.9980  203.4430  149.4720 C   0  0  0  0  0  2  0  0  0  0  0  0
  160.8310  204.5810  150.0770 C   0  0  2  0  0  3  0  0  0  0  0  0
  161.8460  209.4490  150.9770 C   0  0  0  0  0  0  0  0  0  0  0  0
  161.8120  205.3380  152.3190 C   0  0  0  0  0  2  0  0  0  0  0  0
  160.8080  206.0620  148.0450 C   0  0  0  0  0  0  0  0  0  0  0  0
  161.1730  206.2040  146.7110 O   0  0  0  0  0  0  0  0  0  0  0  0
  159.7380  206.5780  148.4570 O   0  0  0  0  0  1  0  0  0  0  0  0
  161.9500  210.8450  150.4480 C   0  0  0  0  0  2  0  0  0  0  0  0
  162.0890  210.8600  148.9300 C   0  0  0  0  0  2  0  0  0  0  0  0
  160.7930  212.2320  146.9530 O   0  0  0  0  0  0  0  0  0  0  0  0
  160.5410  213.3280  149.4270 C   0  0  0  0  0  1  0  0  0  0  0  0
  161.5820  212.4590  148.2240 P   0  0  1  0  0  0  0  0  0  0  0  0
  162.9410  213.4060  147.8860 O   0  0  0  0  0  1  0  0  0  0  0  0
  1  5  1  0  0  0  0
  2  9  2  0  0  0  0
  2 11  1  0  0  0  0
  3 11  1  0  0  0  0
  4 17  1  0  0  0  0
  5  7  1  0  0  0  0
  6 22  1  1  0  0  0
  6  4  1  0  0  0  0
  6 19  1  0  0  0  0
  8 18  1  0  0  0  0
  8  1  1  0  0  0  0
  9 14  1  0  0  0  0
 10 21  1  0  0  0  0
 10  9  1  0  0  0  0
 11 15  2  0  0  0  0
 12 17  1  0  0  0  0
 12 20  2  0  0  0  0
 13  7  1  1  0  0  0
 13 21  1  0  0  0  0
 14 16  2  0  0  0  0
 15 16  1  0  0  0  0
 17 10  2  0  0  0  0
 19 18  1  6  0  0  0
 19 13  1  0  0  0  0
 20  2  1  0  0  0  0
 22 24  1  0  0  0  0
 23 22  2  0  0  0  0
 25 20  1  0  0  0  0
 26 25  1  0  0  0  0
 27 29  2  0  0  0  0
 29 26  1  0  0  0  0
 29 28  1  1  0  0  0
 30 29  1  0  0  0  0
M  END
>  <MODEL>
1

>  <REMARK>
 VINA RESULT:      -7.0      0.000      0.000
  Name = 
  4 active torsions:
  status: ('A' for Active; 'I' for Inactive)
    1  A    between atoms: C_6  and  C_16
    2  A    between atoms: C_6  and  P_27
    3  A    between atoms: C_7  and  C_18
    4  A    between atoms: C_16  and  C_26
                            x       y       z     vdW  Elec       q    Type
                         _______ _______ _______ _____ _____    ______ ____

>  <TORSDO>
F 4

$$$$
=
 OpenBabel11072411013D

 30 33  0  0  1  0  0  0  0  0999 V2000
  160.8340  202.0680  150.9400 N   0  0  0  0  0  2  0  0  0  0  0  0
  161.0480  210.1290  151.8250 C   0  0  0  0  0  0  0  0  0  0  0  0
  160.3560  212.5130  151.9760 N   0  0  0  0  0  1  0  0  0  0  0  0
  162.8830  206.8090  149.8080 C   0  0  0  0  0  2  0  0  0  0  0  0
  161.6930  202.6460  151.9650 C   0  0  0  0  0  2  0  0  0  0  0  0
  161.8320  205.8490  149.2330 C   0  0  1  0  0  3  0  0  0  0  0  0
  161.0970  203.9440  152.4950 C   0  0  0  0  0  2  0  0  0  0  0  0
  160.9980  202.8280  149.7070 C   0  0  0  0  0  2  0  0  0  0  0  0
  160.9910  208.8440  152.4220 C   0  0  0  0  0  0  0  0  0  0  0  0
  161.5890  207.7340  151.7980 C   0  0  0  0  0  0  0  0  0  0  0  0
  160.3970  211.1900  152.5040 C   0  0  0  0  0  0  0  0  0  0  0  0
  162.3030  209.1740  150.0200 N   0  0  0  0  0  0  0  0  0  0  0  0
  161.5730  205.1210  151.6510 C   0  0  1  0  0  3  0  0  0  0  0  0
  160.3470  208.6800  153.6100 N   0  0  0  0  0  0  0  0  0  0  0  0
  159.7720  210.9540  153.6850 N   0  0  0  0  0  0  0  0  0  0  0  0
  159.7450  209.7180  154.2390 C   0  0  0  0  0  3  0  0  0  0  0  0
  162.2580  207.9350  150.5700 C   0  0  0  0  0  0  0  0  0  0  0  0
  160.1160  204.0680  149.7530 C   0  0  0  0  0  2  0  0  0  0  0  0
  160.8600  205.2990  150.2910 C   0  0  2  0  0  3  0  0  0  0  0  0
  161.7410  210.2650  150.5960 C   0  0  0  0  0  0  0  0  0  0  0  0
  161.5310  206.3930  152.5070 C   0  0  0  0  0  2  0  0  0  0  0  0
  161.1070  206.4700  148.0790 C   0  0  0  0  0  0  0  0  0  0  0  0
  159.7200  206.5550  148.0790 O   0  0  0  0  0  1  0  0  0  0  0  0
  161.7610  206.9370  147.1110 O   0  0  0  0  0  0  0  0  0  0  0  0
  161.9130  211.5730  149.8860 C   0  0  0  0  0  2  0  0  0  0  0  0
  161.8710  211.3980  148.3730 C   0  0  0  0  0  2  0  0  0  0  0  0
  160.0240  213.4000  148.1370 O   0  0  0  0  0  1  0  0  0  0  0  0
  162.5940  214.1960  147.7550 C   0  0  0  0  0  1  0  0  0  0  0  0
  161.3260  212.9190  147.5360 P   0  0  1  0  0  0  0  0  0  0  0  0
  161.1140  212.6330  145.8820 O   0  0  0  0  0  0  0  0  0  0  0  0
  1  5  1  0  0  0  0
  2  9  2  0  0  0  0
  2 11  1  0  0  0  0
  3 11  1  0  0  0  0
  4 17  1  0  0  0  0
  5  7  1  0  0  0  0
  6 22  1  6  0  0  0
  6  4  1  0  0  0  0
  6 19  1  0  0  0  0
  8 18  1  0  0  0  0
  8  1  1  0  0  0  0
  9 14  1  0  0  0  0
 10  9  1  0  0  0  0
 10 21  1  0  0  0  0
 11 15  2  0  0  0  0
 12 17  1  0  0  0  0
 12 20  2  0  0  0  0
 13  7  1  1  0  0  0
 13 21  1  0  0  0  0
 14 16  2  0  0  0  0
 15 16  1  0  0  0  0
 17 10  2  0  0  0  0
 19 18  1  6  0  0  0
 19 13  1  0  0  0  0
 20  2  1  0  0  0  0
 22 23  1  0  0  0  0
 24 22  2  0  0  0  0
 25 20  1  0  0  0  0
 26 25  1  0  0  0  0
 29 28  1  1  0  0  0
 29 27  1  0  0  0  0
 29 26  1  0  0  0  0
 30 29  2  0  0  0  0
M  END
>  <MODEL>
2

>  <REMARK>
 VINA RESULT:      -6.3      1.125      1.371
  Name = 
  4 active torsions:
  status: ('A' for Active; 'I' for Inactive)
    1  A    between atoms: C_6  and  C_16
    2  A    between atoms: C_6  and  P_27
    3  A    between atoms: C_7  and  C_18
    4  A    between atoms: C_16  and  C_26
                            x       y       z     vdW  Elec       q    Type
                         _______ _______ _______ _____ _____    ______ ____

>  <TORSDO>
F 4

$$$$
=
 OpenBabel11072411013D

 30 33  0  0  1  0  0  0  0  0999 V2000
  161.0060  201.7820  149.9310 N   0  0  0  0  0  2  0  0  0  0  0  0
  160.7210  208.7510  154.0730 C   0  0  0  0  0  0  0  0  0  0  0  0
  159.8800  210.8050  155.1970 N   0  0  0  0  0  1  0  0  0  0  0  0
  162.7070  206.7000  150.8630 C   0  0  0  0  0  2  0  0  0  0  0  0
  161.8560  201.9450  151.1040 C   0  0  0  0  0  2  0  0  0  0  0  0
  161.7040  205.9910  149.9420 C   0  0  1  0  0  3  0  0  0  0  0  0
  161.1920  202.8620  152.1230 C   0  0  0  0  0  2  0  0  0  0  0  0
  161.0840  202.9920  149.1240 C   0  0  0  0  0  2  0  0  0  0  0  0
  160.7650  207.3350  154.0840 C   0  0  0  0  0  0  0  0  0  0  0  0
  161.4150  206.6270  153.0570 C   0  0  0  0  0  0  0  0  0  0  0  0
  160.0230  209.3880  155.1300 C   0  0  0  0  0  0  0  0  0  0  0  0
  161.9810  208.7190  152.0330 N   0  0  0  0  0  0  0  0  0  0  0  0
  161.5660  204.3130  151.8420 C   0  0  1  0  0  3  0  0  0  0  0  0
  160.1690  206.6490  155.0980 N   0  0  0  0  0  0  0  0  0  0  0  0
  159.4490  208.6420  156.1070 N   0  0  0  0  0  0  0  0  0  0  0  0
  159.5200  207.2890  156.1000 C   0  0  0  0  0  3  0  0  0  0  0  0
  162.0330  207.3640  152.0220 C   0  0  0  0  0  0  0  0  0  0  0  0
  160.1240  204.0360  149.6790 C   0  0  0  0  0  2  0  0  0  0  0  0
  160.8020  204.9850  150.6770 C   0  0  2  0  0  3  0  0  0  0  0  0
  161.3660  209.4320  153.0090 C   0  0  0  0  0  0  0  0  0  0  0  0
  161.4660  205.1120  153.1480 C   0  0  0  0  0  2  0  0  0  0  0  0
  160.9070  206.9790  149.1480 C   0  0  0  0  0  0  0  0  0  0  0  0
  159.7740  206.5760  148.4510 O   0  0  0  0  0  0  0  0  0  0  0  0
  161.2530  208.1880  149.1290 O   0  0  0  0  0  1  0  0  0  0  0  0
  161.4320  210.9250  152.9040 C   0  0  0  0  0  2  0  0  0  0  0  0
  160.7760  211.4250  151.6230 C   0  0  0  0  0  2  0  0  0  0  0  0
  159.7630  213.2590  153.3780 O   0  0  0  0  0  1  0  0  0  0  0  0
  159.9690  214.1520  150.8200 C   0  0  0  0  0  1  0  0  0  0  0  0
  159.6090  212.7820  151.9510 P   0  0  1  0  0  0  0  0  0  0  0  0
  158.0200  212.2620  151.6960 O   0  0  0  0  0  0  0  0  0  0  0  0
  1  5  1  0  0  0  0
  2  9  2  0  0  0  0
  2 11  1  0  0  0  0
  4 17  1  0  0  0  0
  5  7  1  0  0  0  0
  6 22  1  1  0  0  0
  6 19  1  0  0  0  0
  6  4  1  0  0  0  0
  8 18  1  0  0  0  0
  8  1  1  0  0  0  0
  9 14  1  0  0  0  0
 10 21  1  0  0  0  0
 10  9  1  0  0  0  0
 11  3  1  0  0  0  0
 11 15  2  0  0  0  0
 12 20  2  0  0  0  0
 13  7  1  1  0  0  0
 13 21  1  0  0  0  0
 14 16  2  0  0  0  0
 16 15  1  0  0  0  0
 17 12  1  0  0  0  0
 17 10  2  0  0  0  0
 19 18  1  6  0  0  0
 19 13  1  0  0  0  0
 20  2  1  0  0  0  0
 23 22  2  0  0  0  0
 24 22  1  0  0  0  0
 25 20  1  0  0  0  0
 26 29  1  0  0  0  0
 26 25  1  0  0  0  0
 29 28  1  6  0  0  0
 29 27  1  0  0  0  0
 30 29  2  0  0  0  0
M  END
>  <MODEL>
3

>  <REMARK>
 VINA RESULT:      -5.9      2.092      2.450
  Name = 
  4 active torsions:
  status: ('A' for Active; 'I' for Inactive)
    1  A    between atoms: C_6  and  C_16
    2  A    between atoms: C_6  and  P_27
    3  A    between atoms: C_7  and  C_18
    4  A    between atoms: C_16  and  C_26
                            x       y       z     vdW  Elec       q    Type
                         _______ _______ _______ _____ _____    ______ ____

>  <TORSDO>
F 4

$$$$
=
 OpenBabel11072411013D

 30 33  0  0  1  0  0  0  0  0999 V2000
  161.1660  214.3090  148.1850 N   0  0  0  0  0  2  0  0  0  0  0  0
  161.3440  206.7230  151.0540 C   0  0  0  0  0  0  0  0  0  0  0  0
  160.6580  204.4250  151.7150 N   0  0  0  0  0  1  0  0  0  0  0  0
  162.3990  210.7920  151.9370 C   0  0  0  0  0  2  0  0  0  0  0  0
  162.3290  213.4740  147.9110 C   0  0  0  0  0  2  0  0  0  0  0  0
  161.2510  211.7560  151.6040 C   0  0  1  0  0  3  0  0  0  0  0  0
  161.9280  212.0070  147.8230 C   0  0  0  0  0  2  0  0  0  0  0  0
  160.8040  214.1620  149.5890 C   0  0  0  0  0  2  0  0  0  0  0  0
  161.5810  207.6200  149.9830 C   0  0  0  0  0  0  0  0  0  0  0  0
  161.9390  208.9570  150.2310 C   0  0  0  0  0  0  0  0  0  0  0  0
  160.9610  205.3980  150.7200 C   0  0  0  0  0  0  0  0  0  0  0  0
  161.8410  208.5020  152.5810 N   0  0  0  0  0  0  0  0  0  0  0  0
  161.9850  211.3650  149.2050 C   0  0  1  0  0  3  0  0  0  0  0  0
  161.4580  207.1850  148.6980 N   0  0  0  0  0  0  0  0  0  0  0  0
  160.8550  205.0340  149.4170 N   0  0  0  0  0  0  0  0  0  0  0  0
  161.1010  205.9100  148.4140 C   0  0  0  0  0  3  0  0  0  0  0  0
  162.0680  209.3790  151.5720 C   0  0  0  0  0  0  0  0  0  0  0  0
  159.9540  212.9110  149.7680 C   0  0  0  0  0  2  0  0  0  0  0  0
  160.7920  211.6800  150.1370 C   0  0  2  0  0  3  0  0  0  0  0  0
  161.4980  207.2060  152.3780 C   0  0  0  0  0  0  0  0  0  0  0  0
  162.2220  209.8590  149.0410 C   0  0  0  0  0  2  0  0  0  0  0  0
  160.1080  211.5850  152.5560 C   0  0  0  0  0  0  0  0  0  0  0  0
  159.9290  212.4700  153.6130 O   0  0  0  0  0  1  0  0  0  0  0  0
  159.2890  210.6460  152.3840 O   0  0  0  0  0  0  0  0  0  0  0  0
  161.3220  206.3510  153.5940 C   0  0  0  0  0  2  0  0  0  0  0  0
  160.0850  206.7530  154.3870 C   0  0  0  0  0  2  0  0  0  0  0  0
  162.0130  207.9730  155.8930 O   0  0  0  0  0  0  0  0  0  0  0  0
  159.6790  209.3550  155.7310 C   0  0  0  0  0  1  0  0  0  0  0  0
  160.5170  207.7510  155.8470 P   0  0  1  0  0  0  0  0  0  0  0  0
  160.0160  206.9690  157.2600 O   0  0  0  0  0  1  0  0  0  0  0  0
  1  8  1  0  0  0  0
  2 20  2  0  0  0  0
  5  1  1  0  0  0  0
  6  4  1  0  0  0  0
  6 22  1  1  0  0  0
  7  5  1  0  0  0  0
  8 18  1  0  0  0  0
  9 10  2  0  0  0  0
  9  2  1  0  0  0  0
 10 17  1  0  0  0  0
 11  2  1  0  0  0  0
 11  3  1  0  0  0  0
 13  7  1  6  0  0  0
 13 19  1  0  0  0  0
 14  9  1  0  0  0  0
 15 11  2  0  0  0  0
 16 14  2  0  0  0  0
 16 15  1  0  0  0  0
 17  4  1  0  0  0  0
 17 12  2  0  0  0  0
 19 18  1  6  0  0  0
 19  6  1  0  0  0  0
 20 12  1  0  0  0  0
 20 25  1  0  0  0  0
 21 13  1  0  0  0  0
 21 10  1  0  0  0  0
 22 23  1  0  0  0  0
 24 22  2  0  0  0  0
 25 26  1  0  0  0  0
 26 29  1  0  0  0  0
 29 28  1  6  0  0  0
 29 27  2  0  0  0  0
 29 30  1  0  0  0  0
M  END
>  <MODEL>
4

>  <REMARK>
 VINA RESULT:      -5.1      3.630      7.613
  Name = 
  4 active torsions:
  status: ('A' for Active; 'I' for Inactive)
    1  A    between atoms: C_6  and  C_16
    2  A    between atoms: C_6  and  P_27
    3  A    between atoms: C_7  and  C_18
    4  A    between atoms: C_16  and  C_26
                            x       y       z     vdW  Elec       q    Type
                         _______ _______ _______ _____ _____    ______ ____

>  <TORSDO>
F 4

$$$$
=
 OpenBabel11072411013D

 30 33  0  0  1  0  0  0  0  0999 V2000
  160.3930  200.4170  146.1240 N   0  0  0  0  0  2  0  0  0  0  0  0
  161.7440  207.3670  150.0840 C   0  0  0  0  0  0  0  0  0  0  0  0
  161.3870  209.5280  151.2640 N   0  0  0  0  0  1  0  0  0  0  0  0
  162.9190  205.0290  146.6770 C   0  0  0  0  0  2  0  0  0  0  0  0
  161.4190  200.4560  147.1590 C   0  0  0  0  0  2  0  0  0  0  0  0
  161.7000  204.4750  145.9270 C   0  0  1  0  0  3  0  0  0  0  0  0
  161.0530  201.4660  148.2380 C   0  0  0  0  0  2  0  0  0  0  0  0
  160.5310  201.5990  145.2830 C   0  0  0  0  0  2  0  0  0  0  0  0
  161.5800  205.9600  150.1250 C   0  0  0  0  0  0  0  0  0  0  0  0
  161.9620  205.1590  149.0340 C   0  0  0  0  0  0  0  0  0  0  0  0
  161.3080  208.1060  151.2140 C   0  0  0  0  0  0  0  0  0  0  0  0
  162.6770  207.1380  147.8870 N   0  0  0  0  0  0  0  0  0  0  0  0
  161.5920  202.8440  147.8700 C   0  0  1  0  0  3  0  0  0  0  0  0
  161.0420  205.3750  151.2310 N   0  0  0  0  0  0  0  0  0  0  0  0
  160.7790  207.4570  152.2810 N   0  0  0  0  0  0  0  0  0  0  0  0
  160.6470  206.1090  152.2980 C   0  0  0  0  0  3  0  0  0  0  0  0
  162.5250  205.7910  147.9040 C   0  0  0  0  0  0  0  0  0  0  0  0
  159.8270  202.7780  145.9420 C   0  0  0  0  0  2  0  0  0  0  0  0
  160.7750  203.6180  146.8090 C   0  0  2  0  0  3  0  0  0  0  0  0
  162.3220  207.9400  148.9230 C   0  0  0  0  0  0  0  0  0  0  0  0
  161.8020  203.6530  149.1550 C   0  0  0  0  0  2  0  0  0  0  0  0
  160.9500  205.5680  145.2300 C   0  0  0  0  0  0  0  0  0  0  0  0
  161.2010  205.8560  143.8930 O   0  0  0  0  0  0  0  0  0  0  0  0
  160.0710  206.2160  145.8530 O   0  0  0  0  0  1  0  0  0  0  0  0
  162.5910  209.4050  148.7710 C   0  0  0  0  0  2  0  0  0  0  0  0
  161.4870  210.0980  147.9820 C   0  0  0  0  0  2  0  0  0  0  0  0
  163.1730  212.2430  147.8170 O   0  0  0  0  0  0  0  0  0  0  0  0
  160.7900  212.5940  146.5600 C   0  0  0  0  0  1  0  0  0  0  0  0
  161.7070  211.9050  147.9640 P   0  0  1  0  0  0  0  0  0  0  0  0
  161.1100  212.5800  149.3960 O   0  0  0  0  0  1  0  0  0  0  0  0
  1  5  1  0  0  0  0
  2  9  2  0  0  0  0
  2 11  1  0  0  0  0
  4 17  1  0  0  0  0
  5  7  1  0  0  0  0
  6 22  1  1  0  0  0
  6  4  1  0  0  0  0
  6 19  1  0  0  0  0
  8 18  1  0  0  0  0
  8  1  1  0  0  0  0
  9 14  1  0  0  0  0
 10 21  1  0  0  0  0
 10  9  1  0  0  0  0
 11  3  1  0  0  0  0
 11 15  2  0  0  0  0
 12 17  1  0  0  0  0
 12 20  2  0  0  0  0
 13  7  1  1  0  0  0
 13 21  1  0  0  0  0
 14 16  2  0  0  0  0
 15 16  1  0  0  0  0
 17 10  2  0  0  0  0
 19 18  1  6  0  0  0
 19 13  1  0  0  0  0
 20  2  1  0  0  0  0
 22 24  1  0  0  0  0
 23 22  2  0  0  0  0
 25 20  1  0  0  0  0
 26 25  1  0  0  0  0
 27 29  2  0  0  0  0
 29 28  1  6  0  0  0
 29 26  1  0  0  0  0
 29 30  1  0  0  0  0
M  END
>  <MODEL>
5

>  <REMARK>
 VINA RESULT:      -5.1      2.282      3.101
  Name = 
  4 active torsions:
  status: ('A' for Active; 'I' for Inactive)
    1  A    between atoms: C_6  and  C_16
    2  A    between atoms: C_6  and  P_27
    3  A    between atoms: C_7  and  C_18
    4  A    between atoms: C_16  and  C_26
                            x       y       z     vdW  Elec       q    Type
                         _______ _______ _______ _____ _____    ______ ____

>  <TORSDO>
F 4

$$$$
=
 OpenBabel11072411013D

 30 33  0  0  1  0  0  0  0  0999 V2000
  160.0590  214.0800  144.9470 N   0  0  0  0  0  2  0  0  0  0  0  0
  160.6380  210.7400  152.3170 C   0  0  0  0  0  0  0  0  0  0  0  0
  160.3990  209.1660  154.2280 N   0  0  0  0  0  1  0  0  0  0  0  0
  159.6770  214.3600  150.2130 C   0  0  0  0  0  2  0  0  0  0  0  0
  161.3220  214.1680  145.6680 C   0  0  0  0  0  2  0  0  0  0  0  0
  158.7600  214.0870  149.0110 C   0  0  1  0  0  3  0  0  0  0  0  0
  161.5110  212.9550  146.5690 C   0  0  0  0  0  2  0  0  0  0  0  0
  158.9720  214.3970  145.8640 C   0  0  0  0  0  2  0  0  0  0  0  0
  161.2090  210.9660  151.0400 C   0  0  0  0  0  0  0  0  0  0  0  0
  160.9270  212.1430  150.3240 C   0  0  0  0  0  0  0  0  0  0  0  0
  160.9500  209.5150  152.9610 C   0  0  0  0  0  0  0  0  0  0  0  0
  159.5400  212.8640  152.1400 N   0  0  0  0  0  0  0  0  0  0  0  0
  160.8900  213.2160  147.9360 C   0  0  1  0  0  3  0  0  0  0  0  0
  162.0360  210.0310  150.4960 N   0  0  0  0  0  0  0  0  0  0  0  0
  161.7810  208.6280  152.3590 N   0  0  0  0  0  0  0  0  0  0  0  0
  162.3240  208.8770  151.1430 C   0  0  0  0  0  3  0  0  0  0  0  0
  160.0720  213.0990  150.9150 C   0  0  0  0  0  0  0  0  0  0  0  0
  158.6050  213.1560  146.6670 C   0  0  0  0  0  2  0  0  0  0  0  0
  159.3500  213.0810  148.0070 C   0  0  2  0  0  3  0  0  0  0  0  0
  159.7930  211.7420  152.8590 C   0  0  0  0  0  0  0  0  0  0  0  0
  161.6040  212.3470  148.9790 C   0  0  0  0  0  2  0  0  0  0  0  0
  157.3880  213.6880  149.4580 C   0  0  0  0  0  0  0  0  0  0  0  0
  156.7560  212.5820  148.9000 O   0  0  0  0  0  0  0  0  0  0  0  0
  156.8100  214.3470  150.3600 O   0  0  0  0  0  1  0  0  0  0  0  0
  159.1650  211.6470  154.2150 C   0  0  0  0  0  2  0  0  0  0  0  0
  158.4190  212.9250  154.5770 C   0  0  0  0  0  2  0  0  0  0  0  0
  156.3420  211.1490  154.6370 O   0  0  0  0  0  1  0  0  0  0  0  0
  156.2200  213.0790  156.5460 C   0  0  0  0  0  1  0  0  0  0  0  0
  156.6460  212.6160  154.8460 P   0  0  1  0  0  0  0  0  0  0  0  0
  155.7220  213.5430  153.7750 O   0  0  0  0  0  0  0  0  0  0  0  0
  1  5  1  0  0  0  0
  1  8  1  0  0  0  0
  2 20  1  0  0  0  0
  2 11  1  0  0  0  0
  4 17  1  0  0  0  0
  5  7  1  0  0  0  0
  6 22  1  1  0  0  0
  6  4  1  0  0  0  0
  8 18  1  0  0  0  0
  9  2  2  0  0  0  0
 10 17  2  0  0  0  0
 10  9  1  0  0  0  0
 11  3  1  0  0  0  0
 12 20  2  0  0  0  0
 13  7  1  6  0  0  0
 13 19  1  0  0  0  0
 13 21  1  0  0  0  0
 14  9  1  0  0  0  0
 14 16  2  0  0  0  0
 15 11  2  0  0  0  0
 16 15  1  0  0  0  0
 17 12  1  0  0  0  0
 19 18  1  6  0  0  0
 19  6  1  0  0  0  0
 20 25  1  0  0  0  0
 21 10  1  0  0  0  0
 22 24  1  0  0  0  0
 23 22  2  0  0  0  0
 25 26  1  0  0  0  0
 26 29  1  0  0  0  0
 27 29  1  0  0  0  0
 29 28  1  1  0  0  0
 30 29  2  0  0  0  0
M  END
>  <MODEL>
6

>  <REMARK>
 VINA RESULT:      -4.7      4.528      8.045
  Name = 
  4 active torsions:
  status: ('A' for Active; 'I' for Inactive)
    1  A    between atoms: C_6  and  C_16
    2  A    between atoms: C_6  and  P_27
    3  A    between atoms: C_7  and  C_18
    4  A    between atoms: C_16  and  C_26
                            x       y       z     vdW  Elec       q    Type
                         _______ _______ _______ _____ _____    ______ ____

>  <TORSDO>
F 4

$$$$
=
 OpenBabel11072411013D

 30 33  0  0  1  0  0  0  0  0999 V2000
  161.6210  209.7670  153.5160 N   0  0  0  0  0  2  0  0  0  0  0  0
  161.2060  202.8950  149.2250 C   0  0  0  0  0  0  0  0  0  0  0  0
  161.8280  200.7690  148.0950 N   0  0  0  0  0  1  0  0  0  0  0  0
  160.1720  207.0650  149.2080 C   0  0  0  0  0  2  0  0  0  0  0  0
  160.4600  208.9020  153.6740 C   0  0  0  0  0  2  0  0  0  0  0  0
  161.3480  207.9380  149.6700 C   0  0  1  0  0  3  0  0  0  0  0  0
  160.8430  207.4440  153.4540 C   0  0  0  0  0  2  0  0  0  0  0  0
  161.9190  209.8980  152.0950 C   0  0  0  0  0  2  0  0  0  0  0  0
  161.0290  203.5650  150.4620 C   0  0  0  0  0  0  0  0  0  0  0  0
  160.6810  204.9280  150.4970 C   0  0  0  0  0  0  0  0  0  0  0  0
  161.5840  201.5290  149.2750 C   0  0  0  0  0  0  0  0  0  0  0  0
  160.6680  204.9430  148.1010 N   0  0  0  0  0  0  0  0  0  0  0  0
  160.7150  207.0870  151.9770 C   0  0  1  0  0  3  0  0  0  0  0  0
  161.2040  202.8860  151.6280 N   0  0  0  0  0  0  0  0  0  0  0  0
  161.7430  200.9150  150.4740 N   0  0  0  0  0  0  0  0  0  0  0  0
  161.5540  201.5780  151.6400 C   0  0  0  0  0  3  0  0  0  0  0  0
  160.4980  205.6050  149.2720 C   0  0  0  0  0  0  0  0  0  0  0  0
  162.7420  208.7020  151.6350 C   0  0  0  0  0  2  0  0  0  0  0  0
  161.8700  207.5720  151.0700 C   0  0  2  0  0  3  0  0  0  0  0  0
  161.0010  203.6300  148.0300 C   0  0  0  0  0  0  0  0  0  0  0  0
  160.4640  205.5790  151.8530 C   0  0  0  0  0  2  0  0  0  0  0  0
  162.4450  207.9510  148.6510 C   0  0  0  0  0  0  0  0  0  0  0  0
  163.0780  206.7710  148.2790 O   0  0  0  0  0  1  0  0  0  0  0  0
  162.7820  209.0360  148.1120 O   0  0  0  0  0  0  0  0  0  0  0  0
  161.1100  203.0300  146.6630 C   0  0  0  0  0  2  0  0  0  0  0  0
  161.9030  203.9260  145.7200 C   0  0  0  0  0  2  0  0  0  0  0  0
  159.7080  203.9500  144.0920 O   0  0  0  0  0  1  0  0  0  0  0  0
  160.0810  206.2430  145.5010 C   0  0  0  0  0  1  0  0  0  0  0  0
  160.8120  204.8530  144.5960 P   0  0  1  0  0  0  0  0  0  0  0  0
  161.6960  205.4530  143.2850 O   0  0  0  0  0  0  0  0  0  0  0  0
  1  5  1  0  0  0  0
  2 11  2  0  0  0  0
  2  9  1  0  0  0  0
  3 11  1  0  0  0  0
  4 17  1  0  0  0  0
  4  6  1  0  0  0  0
  6 22  1  6  0  0  0
  6 19  1  0  0  0  0
  7  5  1  0  0  0  0
  8  1  1  0  0  0  0
  9 10  1  0  0  0  0
  9 14  2  0  0  0  0
 10 21  1  0  0  0  0
 11 15  1  0  0  0  0
 12 17  1  0  0  0  0
 13 21  1  1  0  0  0
 13  7  1  0  0  0  0
 14 16  1  0  0  0  0
 15 16  2  0  0  0  0
 17 10  2  0  0  0  0
 18  8  1  0  0  0  0
 19 18  1  1  0  0  0
 19 13  1  0  0  0  0
 20 12  2  0  0  0  0
 20  2  1  0  0  0  0
 23 22  1  0  0  0  0
 24 22  2  0  0  0  0
 25 20  1  0  0  0  0
 26 25  1  0  0  0  0
 27 29  1  0  0  0  0
 29 28  1  1  0  0  0
 29 26  1  0  0  0  0
 30 29  2  0  0  0  0
M  END
>  <MODEL>
7

>  <REMARK>
 VINA RESULT:      -4.6      2.638      6.655
  Name = 
  4 active torsions:
  status: ('A' for Active; 'I' for Inactive)
    1  A    between atoms: C_6  and  C_16
    2  A    between atoms: C_6  and  P_27
    3  A    between atoms: C_7  and  C_18
    4  A    between atoms: C_16  and  C_26
                            x       y       z     vdW  Elec       q    Type
                         _______ _______ _______ _____ _____    ______ ____

>  <TORSDO>
F 4

$$$$
=
 OpenBabel11072411013D

 30 33  0  0  1  0  0  0  0  0999 V2000
  160.5520  214.1700  145.3420 N   0  0  0  0  0  2  0  0  0  0  0  0
  160.9010  209.8440  152.1960 C   0  0  0  0  0  0  0  0  0  0  0  0
  160.5450  208.0550  153.8870 N   0  0  0  0  0  1  0  0  0  0  0  0
  160.2320  213.7780  150.6050 C   0  0  0  0  0  2  0  0  0  0  0  0
  161.8240  214.0570  146.0450 C   0  0  0  0  0  2  0  0  0  0  0  0
  159.2880  213.7430  149.3950 C   0  0  1  0  0  3  0  0  0  0  0  0
  161.9160  212.7230  146.7750 C   0  0  0  0  0  2  0  0  0  0  0  0
  159.5020  214.4500  146.3120 C   0  0  0  0  0  2  0  0  0  0  0  0
  161.4800  210.1900  150.9490 C   0  0  0  0  0  0  0  0  0  0  0  0
  161.2930  211.4710  150.4000 C   0  0  0  0  0  0  0  0  0  0  0  0
  161.1140  208.5240  152.6670 C   0  0  0  0  0  0  0  0  0  0  0  0
  159.9850  212.0560  152.3210 N   0  0  0  0  0  0  0  0  0  0  0  0
  161.3290  212.8510  148.1760 C   0  0  1  0  0  3  0  0  0  0  0  0
  162.2230  209.2710  150.2720 N   0  0  0  0  0  0  0  0  0  0  0  0
  161.8640  207.6590  151.9380 N   0  0  0  0  0  0  0  0  0  0  0  0
  162.4170  208.0220  150.7560 C   0  0  0  0  0  3  0  0  0  0  0  0
  160.5260  212.4070  151.1280 C   0  0  0  0  0  0  0  0  0  0  0  0
  159.0380  213.1480  146.9510 C   0  0  0  0  0  2  0  0  0  0  0  0
  159.7840  212.8350  148.2560 C   0  0  2  0  0  3  0  0  0  0  0  0
  160.1480  210.8310  152.8800 C   0  0  0  0  0  0  0  0  0  0  0  0
  161.9750  211.7960  149.0820 C   0  0  0  0  0  2  0  0  0  0  0  0
  157.8900  213.4030  149.8090 C   0  0  0  0  0  0  0  0  0  0  0  0
  157.4390  213.7060  151.0890 O   0  0  0  0  0  1  0  0  0  0  0  0
  157.1100  212.8600  148.9860 O   0  0  0  0  0  0  0  0  0  0  0  0
  159.5230  210.6090  154.2230 C   0  0  0  0  0  2  0  0  0  0  0  0
  160.1320  211.5210  155.2810 C   0  0  0  0  0  2  0  0  0  0  0  0
  162.1360  211.6820  157.1320 O   0  0  0  0  0  1  0  0  0  0  0  0
  160.9090  209.2610  157.0190 C   0  0  0  0  0  1  0  0  0  0  0  0
  161.5230  210.7210  156.1380 P   0  0  1  0  0  0  0  0  0  0  0  0
  162.6980  210.2360  155.0210 O   0  0  0  0  0  0  0  0  0  0  0  0
  1  5  1  0  0  0  0
  1  8  1  0  0  0  0
  2 11  1  0  0  0  0
  2 20  2  0  0  0  0
  4 17  1  0  0  0  0
  5  7  1  0  0  0  0
  6 22  1  1  0  0  0
  6  4  1  0  0  0  0
  8 18  1  0  0  0  0
  9  2  1  0  0  0  0
 10  9  2  0  0  0  0
 10 17  1  0  0  0  0
 11  3  1  0  0  0  0
 12 20  1  0  0  0  0
 13  7  1  6  0  0  0
 13 19  1  0  0  0  0
 13 21  1  0  0  0  0
 14 16  2  0  0  0  0
 14  9  1  0  0  0  0
 15 11  2  0  0  0  0
 16 15  1  0  0  0  0
 17 12  2  0  0  0  0
 19 18  1  6  0  0  0
 19  6  1  0  0  0  0
 20 25  1  0  0  0  0
 21 10  1  0  0  0  0
 22 23  1  0  0  0  0
 24 22  2  0  0  0  0
 25 26  1  0  0  0  0
 26 29  1  0  0  0  0
 29 28  1  1  0  0  0
 29 27  1  0  0  0  0
 30 29  2  0  0  0  0
M  END
>  <MODEL>
8

>  <REMARK>
 VINA RESULT:      -4.4      4.096      7.838
  Name = 
  4 active torsions:
  status: ('A' for Active; 'I' for Inactive)
    1  A    between atoms: C_6  and  C_16
    2  A    between atoms: C_6  and  P_27
    3  A    between atoms: C_7  and  C_18
    4  A    between atoms: C_16  and  C_26
                            x       y       z     vdW  Elec       q    Type
                         _______ _______ _______ _____ _____    ______ ____

>  <TORSDO>
F 4

$$$$
=
 OpenBabel11072411013D

 30 33  0  0  1  0  0  0  0  0999 V2000
  161.2820  200.9700  146.6050 N   0  0  0  0  0  2  0  0  0  0  0  0
  161.4780  208.0050  150.6390 C   0  0  0  0  0  0  0  0  0  0  0  0
  162.2970  210.0510  151.7920 N   0  0  0  0  0  1  0  0  0  0  0  0
  159.7690  204.0640  150.6160 C   0  0  0  0  0  2  0  0  0  0  0  0
  160.3110  202.0050  146.2730 C   0  0  0  0  0  2  0  0  0  0  0  0
  160.8310  202.9910  150.3350 C   0  0  1  0  0  3  0  0  0  0  0  0
  160.9020  203.3890  146.5080 C   0  0  0  0  0  2  0  0  0  0  0  0
  161.3700  200.8570  148.0550 C   0  0  0  0  0  2  0  0  0  0  0  0
  161.3510  207.3170  149.4060 C   0  0  0  0  0  0  0  0  0  0  0  0
  160.7870  206.0300  149.3560 C   0  0  0  0  0  0  0  0  0  0  0  0
  162.0820  209.2880  150.6080 C   0  0  0  0  0  0  0  0  0  0  0  0
  160.4660  206.1250  151.7290 N   0  0  0  0  0  0  0  0  0  0  0  0
  160.6480  203.8290  147.9450 C   0  0  1  0  0  3  0  0  0  0  0  0
  161.7830  207.9060  148.2570 N   0  0  0  0  0  0  0  0  0  0  0  0
  162.4920  209.8130  149.4260 N   0  0  0  0  0  0  0  0  0  0  0  0
  162.3450  209.1380  148.2610 C   0  0  0  0  0  3  0  0  0  0  0  0
  160.3390  205.4470  150.5620 C   0  0  0  0  0  0  0  0  0  0  0  0
  162.3160  201.9230  148.5920 C   0  0  0  0  0  2  0  0  0  0  0  0
  161.5810  203.2040  149.0090 C   0  0  2  0  0  3  0  0  0  0  0  0
  161.0020  207.3680  151.8130 C   0  0  0  0  0  0  0  0  0  0  0  0
  160.6380  205.3610  148.0000 C   0  0  0  0  0  2  0  0  0  0  0  0
  161.7720  202.8460  151.4910 C   0  0  0  0  0  0  0  0  0  0  0  0
  162.4300  203.9550  152.0100 O   0  0  0  0  0  0  0  0  0  0  0  0
  161.9510  201.7150  152.0110 O   0  0  0  0  0  1  0  0  0  0  0  0
  161.0350  208.0040  153.1680 C   0  0  0  0  0  2  0  0  0  0  0  0
  160.8330  206.9750  154.2740 C   0  0  0  0  0  2  0  0  0  0  0  0
  161.9560  208.0570  156.5190 O   0  0  0  0  0  0  0  0  0  0  0  0
  159.7070  209.3240  155.6700 C   0  0  0  0  0  1  0  0  0  0  0  0
  160.6080  207.7680  155.8970 P   0  0  1  0  0  0  0  0  0  0  0  0
  159.7160  206.7600  156.9210 O   0  0  0  0  0  1  0  0  0  0  0  0
  1  8  1  0  0  0  0
  2 20  2  0  0  0  0
  5  7  1  0  0  0  0
  5  1  1  0  0  0  0
  6  4  1  0  0  0  0
  6 22  1  1  0  0  0
  8 18  1  0  0  0  0
  9  2  1  0  0  0  0
 10  9  2  0  0  0  0
 10 17  1  0  0  0  0
 11  2  1  0  0  0  0
 11  3  1  0  0  0  0
 12 20  1  0  0  0  0
 13  7  1  6  0  0  0
 13 21  1  0  0  0  0
 13 19  1  0  0  0  0
 14 16  2  0  0  0  0
 14  9  1  0  0  0  0
 15 11  2  0  0  0  0
 16 15  1  0  0  0  0
 17  4  1  0  0  0  0
 17 12  2  0  0  0  0
 19 18  1  6  0  0  0
 19  6  1  0  0  0  0
 20 25  1  0  0  0  0
 21 10  1  0  0  0  0
 22 23  2  0  0  0  0
 22 24  1  0  0  0  0
 25 26  1  0  0  0  0
 26 29  1  0  0  0  0
 29 28  1  6  0  0  0
 29 27  2  0  0  0  0
 29 30  1  0  0  0  0
M  END
>  <MODEL>
9

>  <REMARK>
 VINA RESULT:      -4.4      3.828      5.339
  Name = 
  4 active torsions:
  status: ('A' for Active; 'I' for Inactive)
    1  A    between atoms: C_6  and  C_16
    2  A    between atoms: C_6  and  P_27
    3  A    between atoms: C_7  and  C_18
    4  A    between atoms: C_16  and  C_26
                            x       y       z     vdW  Elec       q    Type
                         _______ _______ _______ _____ _____    ______ ____

>  <TORSDO>
F 4

$$$$
