=
 OpenBabel11072412373D

 31 35  0  0  1  0  0  0  0  0999 V2000
  160.4560  207.0070  149.5700 C   0  0  0  0  0  2  0  0  0  0  0  0
  161.0830  204.7930  151.5310 C   0  0  0  0  0  0  0  0  0  0  0  0
  161.0750  206.4910  153.3010 C   0  0  0  0  0  3  0  0  0  0  0  0
  161.0770  203.7280  152.3500 C   0  0  0  0  0  3  0  0  0  0  0  0
  161.4090  203.0500  148.1860 N   0  0  0  0  0  2  0  0  0  0  0  0
  161.2020  204.1170  147.2560 C   0  0  0  0  0  3  0  0  0  0  0  0
  160.7750  205.5970  149.1580 C   0  0  1  0  0  3  0  0  0  0  0  0
  160.8360  202.3330  151.8510 C   0  0  0  0  0  2  0  0  0  0  0  0
  161.4780  202.1520  150.4810 C   0  0  0  0  0  2  0  0  0  0  0  0
  161.6220  207.7620  150.2200 C   0  0  1  0  0  3  0  0  0  0  0  0
  162.3990  206.9620  151.2650 C   0  0  0  0  0  2  0  0  0  0  0  0
  160.9410  204.5860  150.0510 C   0  0  2  0  0  3  0  0  0  0  0  0
  161.4940  206.1000  152.0900 C   0  0  0  0  0  0  0  0  0  0  0  0
  160.8500  203.1620  149.5290 C   0  0  1  0  0  3  0  0  0  0  0  0
  160.8630  205.3260  147.7060 C   0  0  0  0  0  3  0  0  0  0  0  0
  159.6560  209.2890  154.5450 C   0  0  1  0  0  3  0  0  0  0  0  0
  160.0020  207.2800  155.8710 N   0  0  0  0  0  0  0  0  0  0  0  0
  160.1400  206.8840  157.2610 C   0  0  0  0  0  1  0  0  0  0  0  0
  159.4690  210.6690  154.6670 O   0  0  0  0  0  1  0  0  0  0  0  0
  160.5850  208.9160  153.3900 C   0  0  2  0  0  3  0  0  0  0  0  0
  161.4540  207.8020  153.9260 C   0  0  1  0  0  3  0  0  0  0  0  0
  161.3200  207.7880  155.4510 C   0  0  1  0  0  3  0  0  0  0  0  0
  160.2570  208.7260  155.8210 C   0  0  1  0  0  3  0  0  0  0  0  0
  160.8260  210.8100  151.9530 O   0  0  0  0  0  1  0  0  0  0  0  0
  161.4830  210.0570  152.9260 C   0  0  0  0  0  2  0  0  0  0  0  0
  163.3370  207.5450  148.5520 O   0  0  0  0  0  1  0  0  0  0  0  0
  162.5300  208.4750  149.2100 C   0  0  1  0  0  3  0  0  0  0  0  0
  161.7680  210.6460  148.2760 C   0  0  0  0  0  3  0  0  0  0  0  0
  161.1780  208.7110  147.1470 F   0  0  0  0  0  0  0  0  0  0  0  0
  162.4460  211.4090  149.3690 C   0  0  0  0  0  1  0  0  0  0  0  0
  161.7870  209.3100  148.2030 C   0  0  0  0  0  0  0  0  0  0  0  0
  1 10  1  0  0  0  0
  2 13  1  0  0  0  0
  2  4  2  0  0  0  0
  5 14  1  0  0  0  0
  6 15  2  0  0  0  0
  6  5  1  0  0  0  0
  7 15  1  6  0  0  0
  7  1  1  0  0  0  0
  7 12  1  0  0  0  0
  8  4  1  0  0  0  0
  9  8  1  0  0  0  0
 10 27  1  6  0  0  0
 10 11  1  0  0  0  0
 11 13  1  0  0  0  0
 12  2  1  1  0  0  0
 13  3  2  0  0  0  0
 14 12  1  0  0  0  0
 14  9  1  1  0  0  0
 16 19  1  1  0  0  0
 16 23  1  0  0  0  0
 17 18  1  0  0  0  0
 20 25  1  1  0  0  0
 20 21  1  0  0  0  0
 20 16  1  0  0  0  0
 21  3  1  6  0  0  0
 21 22  1  0  0  0  0
 22 23  1  0  0  0  0
 22 17  1  6  0  0  0
 23 17  1  6  0  0  0
 24 25  1  0  0  0  0
 27 26  1  6  0  0  0
 28 30  1  0  0  0  0
 29 31  1  0  0  0  0
 31 28  2  0  0  0  0
 31 27  1  0  0  0  0
M  END
>  <MODEL>
1

>  <REMARK>
 VINA RESULT:      -7.5      0.000      0.000
  Name = 
  4 active torsions:
  status: ('A' for Active; 'I' for Inactive)
    1  A    between atoms: C_6  and  C_19
    2  A    between atoms: C_15  and  C_30
    3  A    between atoms: C_20  and  C_28
    4  A    between atoms: C_25  and  C_28
                            x       y       z     vdW  Elec       q    Type
                         _______ _______ _______ _____ _____    ______ ____

>  <TORSDO>
F 4

$$$$
=
 OpenBabel11072412373D

 31 35  0  0  1  0  0  0  0  0999 V2000
  158.4550  210.0400  155.0230 C   0  0  0  0  0  2  0  0  0  0  0  0
  159.4340  211.6910  152.6870 C   0  0  0  0  0  0  0  0  0  0  0  0
  160.6880  209.7190  151.9440 C   0  0  0  0  0  3  0  0  0  0  0  0
  159.5850  212.3960  151.5530 C   0  0  0  0  0  3  0  0  0  0  0  0
  157.6630  214.2610  154.8290 N   0  0  0  0  0  2  0  0  0  0  0  0
  157.2790  213.5000  155.9780 C   0  0  0  0  0  3  0  0  0  0  0  0
  158.1960  211.5150  154.8790 C   0  0  1  0  0  3  0  0  0  0  0  0
  158.8150  213.6560  151.2820 C   0  0  0  0  0  2  0  0  0  0  0  0
  158.6400  214.4460  152.5740 C   0  0  0  0  0  2  0  0  0  0  0  0
  159.9290  209.6690  155.2340 C   0  0  1  0  0  3  0  0  0  0  0  0
  160.9100  210.3930  154.3130 C   0  0  0  0  0  2  0  0  0  0  0  0
  158.5410  212.2200  153.7700 C   0  0  2  0  0  3  0  0  0  0  0  0
  160.3550  210.5600  152.9320 C   0  0  0  0  0  0  0  0  0  0  0  0
  157.8790  213.5720  153.5610 C   0  0  1  0  0  3  0  0  0  0  0  0
  157.4940  212.1840  155.9970 C   0  0  0  0  0  3  0  0  0  0  0  0
  160.8660  206.4090  151.3060 C   0  0  1  0  0  3  0  0  0  0  0  0
  161.5080  208.1040  149.6840 N   0  0  0  0  0  0  0  0  0  0  0  0
  162.3490  208.2480  148.5100 C   0  0  0  0  0  1  0  0  0  0  0  0
  161.0680  205.0650  151.6310 O   0  0  0  0  0  1  0  0  0  0  0  0
  160.8440  207.3190  152.5330 C   0  0  2  0  0  3  0  0  0  0  0  0
  161.6160  208.5530  152.1240 C   0  0  1  0  0  3  0  0  0  0  0  0
  162.3990  208.2210  150.8520 C   0  0  1  0  0  3  0  0  0  0  0  0
  161.9700  206.8990  150.3860 C   0  0  1  0  0  3  0  0  0  0  0  0
  160.5460  206.4390  154.7350 O   0  0  0  0  0  1  0  0  0  0  0  0
  161.5090  206.7130  153.7640 C   0  0  0  0  0  2  0  0  0  0  0  0
  160.2140  208.4130  157.2610 O   0  0  0  0  0  1  0  0  0  0  0  0
  160.3600  209.6850  156.7060 C   0  0  1  0  0  3  0  0  0  0  0  0
  162.0170  211.4680  157.1940 C   0  0  0  0  0  3  0  0  0  0  0  0
  162.7980  209.3030  156.9320 F   0  0  0  0  0  0  0  0  0  0  0  0
  160.9480  212.5120  157.2610 C   0  0  0  0  0  1  0  0  0  0  0  0
  161.7630  210.1830  156.9270 C   0  0  0  0  0  0  0  0  0  0  0  0
  1 10  1  0  0  0  0
  2 13  1  0  0  0  0
  3 13  2  0  0  0  0
  4  2  2  0  0  0  0
  5  6  1  0  0  0  0
  6 15  2  0  0  0  0
  7  1  1  6  0  0  0
  7 15  1  0  0  0  0
  8  4  1  0  0  0  0
  8  9  1  0  0  0  0
 10 27  1  1  0  0  0
 11 10  1  0  0  0  0
 12  2  1  6  0  0  0
 12  7  1  0  0  0  0
 13 11  1  0  0  0  0
 14  9  1  6  0  0  0
 14 12  1  0  0  0  0
 14  5  1  0  0  0  0
 16 19  1  1  0  0  0
 16 20  1  0  0  0  0
 18 17  1  0  0  0  0
 20 25  1  1  0  0  0
 21  3  1  6  0  0  0
 21 20  1  0  0  0  0
 22 17  1  6  0  0  0
 22 21  1  0  0  0  0
 23 17  1  6  0  0  0
 23 22  1  0  0  0  0
 23 16  1  0  0  0  0
 25 24  1  0  0  0  0
 27 31  1  0  0  0  0
 27 26  1  6  0  0  0
 28 30  1  0  0  0  0
 31 29  1  0  0  0  0
 31 28  2  0  0  0  0
M  END
>  <MODEL>
2

>  <REMARK>
 VINA RESULT:      -6.8      3.748      8.224
  Name = 
  4 active torsions:
  status: ('A' for Active; 'I' for Inactive)
    1  A    between atoms: C_6  and  C_19
    2  A    between atoms: C_15  and  C_30
    3  A    between atoms: C_20  and  C_28
    4  A    between atoms: C_25  and  C_28
                            x       y       z     vdW  Elec       q    Type
                         _______ _______ _______ _____ _____    ______ ____

>  <TORSDO>
F 4

$$$$
=
 OpenBabel11072412373D

 31 35  0  0  1  0  0  0  0  0999 V2000
  160.1970  206.0940  148.8950 C   0  0  0  0  0  2  0  0  0  0  0  0
  161.1290  204.7520  151.4400 C   0  0  0  0  0  0  0  0  0  0  0  0
  161.2090  206.9770  152.4680 C   0  0  0  0  0  3  0  0  0  0  0  0
  161.2590  204.0580  152.5830 C   0  0  0  0  0  3  0  0  0  0  0  0
  161.2110  201.9160  148.9340 N   0  0  0  0  0  2  0  0  0  0  0  0
  160.8580  202.5690  147.7100 C   0  0  0  0  0  3  0  0  0  0  0  0
  160.5470  204.6340  148.9870 C   0  0  1  0  0  3  0  0  0  0  0  0
  161.0420  202.5740  152.6500 C   0  0  0  0  0  2  0  0  0  0  0  0
  161.5540  201.9160  151.3740 C   0  0  0  0  0  2  0  0  0  0  0  0
  161.3810  207.0470  149.0960 C   0  0  1  0  0  3  0  0  0  0  0  0
  162.2980  206.6930  150.2660 C   0  0  0  0  0  2  0  0  0  0  0  0
  160.8520  204.0200  150.1590 C   0  0  2  0  0  3  0  0  0  0  0  0
  161.5250  206.1770  151.4410 C   0  0  0  0  0  0  0  0  0  0  0  0
  160.7830  202.5020  150.1990 C   0  0  1  0  0  3  0  0  0  0  0  0
  160.5040  203.8540  147.7290 C   0  0  0  0  0  3  0  0  0  0  0  0
  159.7860  210.0120  152.8670 C   0  0  1  0  0  3  0  0  0  0  0  0
  160.4500  208.6080  154.7380 N   0  0  0  0  0  0  0  0  0  0  0  0
  160.8070  208.7300  156.1390 C   0  0  0  0  0  1  0  0  0  0  0  0
  159.5230  211.3430  152.5290 O   0  0  0  0  0  1  0  0  0  0  0  0
  160.5690  209.2690  151.7850 C   0  0  2  0  0  3  0  0  0  0  0  0
  161.5790  208.4300  152.5330 C   0  0  1  0  0  3  0  0  0  0  0  0
  161.6580  208.9550  153.9690 C   0  0  1  0  0  3  0  0  0  0  0  0
  160.5950  209.9460  154.1500 C   0  0  1  0  0  3  0  0  0  0  0  0
  162.6880  210.0830  151.0360 O   0  0  0  0  0  1  0  0  0  0  0  0
  161.3130  210.1860  150.8210 C   0  0  0  0  0  2  0  0  0  0  0  0
  163.3010  208.0840  148.0930 O   0  0  0  0  0  1  0  0  0  0  0  0
  162.1460  207.3550  147.8030 C   0  0  1  0  0  3  0  0  0  0  0  0
  161.8390  205.8210  145.8760 C   0  0  0  0  0  3  0  0  0  0  0  0
  163.5590  205.3680  147.3610 F   0  0  0  0  0  0  0  0  0  0  0  0
  160.6890  206.6230  145.3580 C   0  0  0  0  0  1  0  0  0  0  0  0
  162.4990  206.1360  146.9950 C   0  0  0  0  0  0  0  0  0  0  0  0
  1  7  1  0  0  0  0
  1 10  1  0  0  0  0
  2 13  1  0  0  0  0
  2  4  2  0  0  0  0
  4  8  1  0  0  0  0
  5 14  1  0  0  0  0
  6 15  2  0  0  0  0
  6  5  1  0  0  0  0
  7 15  1  1  0  0  0
  7 12  1  0  0  0  0
  9  8  1  0  0  0  0
 10 27  1  6  0  0  0
 10 11  1  0  0  0  0
 11 13  1  0  0  0  0
 12 14  1  0  0  0  0
 12  2  1  1  0  0  0
 13  3  2  0  0  0  0
 14  9  1  1  0  0  0
 16 19  1  6  0  0  0
 16 23  1  0  0  0  0
 17 18  1  0  0  0  0
 20 25  1  6  0  0  0
 20 21  1  0  0  0  0
 20 16  1  0  0  0  0
 21  3  1  1  0  0  0
 21 22  1  0  0  0  0
 22 23  1  0  0  0  0
 22 17  1  1  0  0  0
 23 17  1  1  0  0  0
 25 24  1  0  0  0  0
 27 26  1  1  0  0  0
 28 31  2  0  0  0  0
 30 28  1  0  0  0  0
 31 29  1  0  0  0  0
 31 27  1  0  0  0  0
M  END
>  <MODEL>
3

>  <REMARK>
 VINA RESULT:      -5.8      1.552      2.270
  Name = 
  4 active torsions:
  status: ('A' for Active; 'I' for Inactive)
    1  A    between atoms: C_6  and  C_19
    2  A    between atoms: C_15  and  C_30
    3  A    between atoms: C_20  and  C_28
    4  A    between atoms: C_25  and  C_28
                            x       y       z     vdW  Elec       q    Type
                         _______ _______ _______ _____ _____    ______ ____

>  <TORSDO>
F 4

$$$$
=
 OpenBabel11072412373D

 31 35  0  0  1  0  0  0  0  0999 V2000
  160.4780  207.8760  149.3930 C   0  0  0  0  0  2  0  0  0  0  0  0
  161.0870  206.0180  151.6990 C   0  0  0  0  0  0  0  0  0  0  0  0
  160.8570  207.9510  153.1910 C   0  0  0  0  0  3  0  0  0  0  0  0
  161.0820  205.0850  152.6670 C   0  0  0  0  0  3  0  0  0  0  0  0
  161.7480  203.8310  148.6810 N   0  0  0  0  0  2  0  0  0  0  0  0
  161.5490  204.7350  147.5900 C   0  0  0  0  0  3  0  0  0  0  0  0
  160.9050  206.4440  149.2180 C   0  0  1  0  0  3  0  0  0  0  0  0
  160.9550  203.6190  152.3680 C   0  0  0  0  0  2  0  0  0  0  0  0
  161.7030  203.2840  151.0840 C   0  0  0  0  0  2  0  0  0  0  0  0
  161.5510  208.7920  149.9940 C   0  0  1  0  0  3  0  0  0  0  0  0
  162.2940  208.2070  151.1940 C   0  0  0  0  0  2  0  0  0  0  0  0
  161.0630  205.5880  150.2610 C   0  0  2  0  0  3  0  0  0  0  0  0
  161.3820  207.4160  152.0800 C   0  0  0  0  0  0  0  0  0  0  0  0
  161.0890  204.1000  149.9540 C   0  0  1  0  0  3  0  0  0  0  0  0
  161.1110  205.9710  147.8310 C   0  0  0  0  0  3  0  0  0  0  0  0
  159.5340  210.3420  155.1730 C   0  0  1  0  0  3  0  0  0  0  0  0
  161.0350  208.6170  156.0030 N   0  0  0  0  0  0  0  0  0  0  0  0
  161.9500  208.3870  157.1050 C   0  0  0  0  0  1  0  0  0  0  0  0
  159.0580  211.6220  155.4690 O   0  0  0  0  0  1  0  0  0  0  0  0
  159.8260  210.1470  153.6850 C   0  0  2  0  0  3  0  0  0  0  0  0
  161.1160  209.3610  153.6350 C   0  0  1  0  0  3  0  0  0  0  0  0
  161.7680  209.4330  155.0180 C   0  0  1  0  0  3  0  0  0  0  0  0
  160.8190  210.0690  155.9350 C   0  0  1  0  0  3  0  0  0  0  0  0
  161.0750  211.3180  152.0180 O   0  0  0  0  0  1  0  0  0  0  0  0
  160.0160  211.4500  152.9170 C   0  0  0  0  0  2  0  0  0  0  0  0
  162.8920  208.4340  148.0340 O   0  0  0  0  0  1  0  0  0  0  0  0
  162.4870  209.4090  148.9480 C   0  0  1  0  0  3  0  0  0  0  0  0
  162.6040  211.6950  147.9870 C   0  0  0  0  0  3  0  0  0  0  0  0
  160.6420  210.4970  147.7020 F   0  0  0  0  0  0  0  0  0  0  0  0
  164.0090  211.8770  148.4650 C   0  0  0  0  0  1  0  0  0  0  0  0
  161.8970  210.5830  148.2150 C   0  0  0  0  0  0  0  0  0  0  0  0
  1 10  1  0  0  0  0
  2 13  1  0  0  0  0
  2  4  2  0  0  0  0
  5 14  1  0  0  0  0
  6 15  2  0  0  0  0
  6  5  1  0  0  0  0
  7 15  1  6  0  0  0
  7  1  1  0  0  0  0
  7 12  1  0  0  0  0
  8  4  1  0  0  0  0
  9  8  1  0  0  0  0
 10 27  1  6  0  0  0
 10 11  1  0  0  0  0
 11 13  1  0  0  0  0
 12  2  1  1  0  0  0
 13  3  2  0  0  0  0
 14 12  1  0  0  0  0
 14  9  1  1  0  0  0
 16 19  1  6  0  0  0
 16 23  1  0  0  0  0
 17 18  1  0  0  0  0
 20 25  1  6  0  0  0
 20 16  1  0  0  0  0
 21  3  1  1  0  0  0
 21 20  1  0  0  0  0
 21 22  1  0  0  0  0
 22 23  1  0  0  0  0
 22 17  1  1  0  0  0
 23 17  1  1  0  0  0
 24 25  1  0  0  0  0
 27 26  1  6  0  0  0
 28 31  2  0  0  0  0
 28 30  1  0  0  0  0
 29 31  1  0  0  0  0
 31 27  1  0  0  0  0
M  END
>  <MODEL>
4

>  <REMARK>
 VINA RESULT:      -5.4      1.222      1.375
  Name = 
  4 active torsions:
  status: ('A' for Active; 'I' for Inactive)
    1  A    between atoms: C_6  and  C_19
    2  A    between atoms: C_15  and  C_30
    3  A    between atoms: C_20  and  C_28
    4  A    between atoms: C_25  and  C_28
                            x       y       z     vdW  Elec       q    Type
                         _______ _______ _______ _____ _____    ______ ____

>  <TORSDO>
F 4

$$$$
=
 OpenBabel11072412373D

 31 35  0  0  1  0  0  0  0  0999 V2000
  161.1520  211.4540  153.1670 C   0  0  0  0  0  2  0  0  0  0  0  0
  160.9880  208.6260  154.2240 C   0  0  0  0  0  0  0  0  0  0  0  0
  161.2880  207.8500  151.9170 C   0  0  0  0  0  3  0  0  0  0  0  0
  161.1870  207.4310  154.8070 C   0  0  0  0  0  3  0  0  0  0  0  0
  160.0720  210.6950  157.2590 N   0  0  0  0  0  2  0  0  0  0  0  0
  160.0600  212.0280  156.7370 C   0  0  0  0  0  3  0  0  0  0  0  0
  160.8020  211.1160  154.5900 C   0  0  1  0  0  3  0  0  0  0  0  0
  161.3700  207.2820  156.2890 C   0  0  0  0  0  2  0  0  0  0  0  0
  160.4790  208.2750  157.0260 C   0  0  0  0  0  2  0  0  0  0  0  0
  160.1110  211.0080  152.1320 C   0  0  1  0  0  3  0  0  0  0  0  0
  159.5790  209.5890  152.3280 C   0  0  0  0  0  2  0  0  0  0  0  0
  160.8450  209.8500  155.0800 C   0  0  2  0  0  3  0  0  0  0  0  0
  160.6540  208.6510  152.7830 C   0  0  0  0  0  0  0  0  0  0  0  0
  160.8780  209.6790  156.5910 C   0  0  1  0  0  3  0  0  0  0  0  0
  160.4420  212.2440  155.4780 C   0  0  0  0  0  3  0  0  0  0  0  0
  162.6320  206.7690  149.0150 C   0  0  1  0  0  3  0  0  0  0  0  0
  161.2640  205.3560  150.4450 N   0  0  0  0  0  0  0  0  0  0  0  0
  160.4330  204.1690  150.3570 C   0  0  0  0  0  1  0  0  0  0  0  0
  163.0700  206.9010  147.6940 O   0  0  0  0  0  1  0  0  0  0  0  0
  162.2530  208.1060  149.6510 C   0  0  2  0  0  3  0  0  0  0  0  0
  160.9970  207.8250  150.4440 C   0  0  1  0  0  3  0  0  0  0  0  0
  160.4340  206.4800  149.9770 C   0  0  1  0  0  3  0  0  0  0  0  0
  161.4120  205.8670  149.0760 C   0  0  1  0  0  3  0  0  0  0  0  0
  162.0170  210.4540  149.2680 O   0  0  0  0  0  1  0  0  0  0  0  0
  161.9560  209.2090  148.6410 C   0  0  0  0  0  2  0  0  0  0  0  0
  157.9730  211.8580  152.8190 O   0  0  0  0  0  1  0  0  0  0  0  0
  159.0030  212.0400  151.8940 C   0  0  1  0  0  3  0  0  0  0  0  0
  159.9880  214.0660  150.8490 C   0  0  0  0  0  3  0  0  0  0  0  0
  159.3200  214.2020  153.0630 F   0  0  0  0  0  0  0  0  0  0  0  0
  160.1610  213.3660  149.5390 C   0  0  0  0  0  1  0  0  0  0  0  0
  159.4770  213.4680  151.9310 C   0  0  0  0  0  0  0  0  0  0  0  0
  2  4  2  0  0  0  0
  3 13  2  0  0  0  0
  4  8  1  0  0  0  0
  6  5  1  0  0  0  0
  7  1  1  1  0  0  0
  7 12  1  0  0  0  0
  7 15  1  0  0  0  0
  8  9  1  0  0  0  0
 10 27  1  1  0  0  0
 10 11  1  0  0  0  0
 10  1  1  0  0  0  0
 11 13  1  0  0  0  0
 12  2  1  6  0  0  0
 12 14  1  0  0  0  0
 13  2  1  0  0  0  0
 14  9  1  6  0  0  0
 14  5  1  0  0  0  0
 15  6  2  0  0  0  0
 16 19  1  6  0  0  0
 16 23  1  0  0  0  0
 16 20  1  0  0  0  0
 18 17  1  0  0  0  0
 20 25  1  6  0  0  0
 20 21  1  0  0  0  0
 21  3  1  1  0  0  0
 22 21  1  0  0  0  0
 22 17  1  1  0  0  0
 23 22  1  0  0  0  0
 23 17  1  1  0  0  0
 25 24  1  0  0  0  0
 27 31  1  0  0  0  0
 27 26  1  1  0  0  0
 28 31  2  0  0  0  0
 30 28  1  0  0  0  0
 31 29  1  0  0  0  0
M  END
>  <MODEL>
5

>  <REMARK>
 VINA RESULT:      -5.2      2.620      6.828
  Name = 
  4 active torsions:
  status: ('A' for Active; 'I' for Inactive)
    1  A    between atoms: C_6  and  C_19
    2  A    between atoms: C_15  and  C_30
    3  A    between atoms: C_20  and  C_28
    4  A    between atoms: C_25  and  C_28
                            x       y       z     vdW  Elec       q    Type
                         _______ _______ _______ _____ _____    ______ ____

>  <TORSDO>
F 4

$$$$
=
 OpenBabel11072412373D

 31 35  0  0  1  0  0  0  0  0999 V2000
  162.5520  210.3380  150.7450 C   0  0  0  0  0  2  0  0  0  0  0  0
  160.2440  212.1760  151.4030 C   0  0  0  0  0  0  0  0  0  0  0  0
  160.1220  211.0800  153.5930 C   0  0  0  0  0  3  0  0  0  0  0  0
  159.4330  213.2040  151.7090 C   0  0  0  0  0  3  0  0  0  0  0  0
  160.8290  212.8700  147.7280 N   0  0  0  0  0  2  0  0  0  0  0  0
  161.8600  211.9350  147.3930 C   0  0  0  0  0  3  0  0  0  0  0  0
  161.9150  211.2650  149.7460 C   0  0  1  0  0  3  0  0  0  0  0  0
  159.2850  214.4020  150.8170 C   0  0  0  0  0  2  0  0  0  0  0  0
  159.3420  213.9730  149.3560 C   0  0  0  0  0  2  0  0  0  0  0  0
  161.6410  209.2030  151.2320 C   0  0  1  0  0  3  0  0  0  0  0  0
  160.2190  209.6320  151.5900 C   0  0  0  0  0  2  0  0  0  0  0  0
  160.9580  212.1680  150.0830 C   0  0  2  0  0  3  0  0  0  0  0  0
  160.1950  210.9720  152.2600 C   0  0  0  0  0  0  0  0  0  0  0  0
  160.6900  213.3070  149.1130 C   0  0  1  0  0  3  0  0  0  0  0  0
  162.4100  211.1920  148.3540 C   0  0  0  0  0  3  0  0  0  0  0  0
  161.5170  209.9480  156.4510 C   0  0  1  0  0  3  0  0  0  0  0  0
  159.5850  211.4260  156.4180 N   0  0  0  0  0  0  0  0  0  0  0  0
  158.4630  211.7970  157.2600 C   0  0  0  0  0  1  0  0  0  0  0  0
  162.1740  209.0150  157.2580 O   0  0  0  0  0  1  0  0  0  0  0  0
  161.4590  209.5270  154.9840 C   0  0  2  0  0  3  0  0  0  0  0  0
  160.0690  209.8990  154.5200 C   0  0  1  0  0  3  0  0  0  0  0  0
  159.2110  210.1610  155.7600 C   0  0  1  0  0  3  0  0  0  0  0  0
  160.0900  210.1450  156.9320 C   0  0  1  0  0  3  0  0  0  0  0  0
  160.5050  207.4700  154.2270 O   0  0  0  0  0  1  0  0  0  0  0  0
  161.6640  208.0330  154.7610 C   0  0  0  0  0  2  0  0  0  0  0  0
  162.7090  208.0780  149.3980 O   0  0  0  0  0  1  0  0  0  0  0  0
  161.6880  207.9550  150.3430 C   0  0  1  0  0  3  0  0  0  0  0  0
  161.2210  205.5470  150.7270 C   0  0  0  0  0  3  0  0  0  0  0  0
  162.7050  206.6070  152.1560 F   0  0  0  0  0  0  0  0  0  0  0  0
  160.2940  205.4890  149.5560 C   0  0  0  0  0  1  0  0  0  0  0  0
  161.8490  206.6670  151.1040 C   0  0  0  0  0  0  0  0  0  0  0  0
  1 10  1  0  0  0  0
  2  4  2  0  0  0  0
  2 13  1  0  0  0  0
  5 14  1  0  0  0  0
  6  5  1  0  0  0  0
  6 15  2  0  0  0  0
  7 15  1  1  0  0  0
  7 12  1  0  0  0  0
  7  1  1  0  0  0  0
  8  4  1  0  0  0  0
  9  8  1  0  0  0  0
 10 27  1  6  0  0  0
 10 11  1  0  0  0  0
 11 13  1  0  0  0  0
 12  2  1  1  0  0  0
 13  3  2  0  0  0  0
 14  9  1  6  0  0  0
 14 12  1  0  0  0  0
 16 23  1  0  0  0  0
 16 19  1  1  0  0  0
 17 18  1  0  0  0  0
 20 25  1  1  0  0  0
 20 16  1  0  0  0  0
 21  3  1  6  0  0  0
 21 20  1  0  0  0  0
 21 22  1  0  0  0  0
 22 17  1  6  0  0  0
 22 23  1  0  0  0  0
 23 17  1  6  0  0  0
 24 25  1  0  0  0  0
 27 26  1  6  0  0  0
 27 31  1  0  0  0  0
 28 31  2  0  0  0  0
 30 28  1  0  0  0  0
 31 29  1  0  0  0  0
M  END
>  <MODEL>
6

>  <REMARK>
 VINA RESULT:      -5.2      3.095      6.096
  Name = 
  4 active torsions:
  status: ('A' for Active; 'I' for Inactive)
    1  A    between atoms: C_6  and  C_19
    2  A    between atoms: C_15  and  C_30
    3  A    between atoms: C_20  and  C_28
    4  A    between atoms: C_25  and  C_28
                            x       y       z     vdW  Elec       q    Type
                         _______ _______ _______ _____ _____    ______ ____

>  <TORSDO>
F 4

$$$$
