=
 OpenBabel11072412523D

 41 45  0  0  1  0  0  0  0  0999 V2000
  160.6470  204.7490  149.3220 C   0  0  0  0  0  0  0  0  0  0  0  0
  161.8080  201.2420  147.2880 O   0  0  0  0  0  1  0  0  0  0  0  0
  160.3980  201.8060  151.4630 N   0  0  0  0  0  0  0  0  0  0  0  0
  160.6380  203.4890  149.9190 C   0  0  0  0  0  0  0  0  0  0  0  0
  160.8740  201.2210  150.1930 C   0  0  0  0  0  3  0  0  0  0  0  0
  162.7690  207.0890  148.5380 N   0  0  0  0  0  2  0  0  0  0  0  0
  161.0670  204.8420  147.9630 C   0  0  0  0  0  0  0  0  0  0  0  0
  160.2870  203.1630  151.2070 O   0  0  0  0  0  0  0  0  0  0  0  0
  163.9220  207.4270  150.8770 O   0  0  0  0  0  0  0  0  0  0  0  0
  160.2840  205.9440  150.1470 C   0  0  0  0  0  2  0  0  0  0  0  0
  160.9990  202.3710  149.2600 C   0  0  0  0  0  0  0  0  0  0  0  0
  161.4300  202.4110  147.9390 C   0  0  0  0  0  0  0  0  0  0  0  0
  162.5770  207.4970  150.2110 S   0  0  0  0  0  0  0  0  0  0  0  0
  161.4840  203.6540  147.2770 C   0  0  0  0  0  0  0  0  0  0  0  0
  160.9340  206.1390  147.1910 C   0  0  2  0  0  3  0  0  0  0  0  0
  161.5030  207.3780  147.8830 C   0  0  0  0  0  2  0  0  0  0  0  0
  161.4660  206.3350  151.0280 C   0  0  1  0  0  3  0  0  0  0  0  0
  162.0540  208.9030  150.3250 O   0  0  0  0  0  0  0  0  0  0  0  0
  160.5590  207.9630  154.9560 C   0  0  2  0  0  0  0  0  0  0  0  0
  161.0000  206.7890  152.4130 C   0  0  1  0  0  3  0  0  0  0  0  0
  160.2830  210.2790  155.6710 C   0  0  1  0  0  3  0  0  0  0  0  0
  162.0300  206.4340  153.5080 C   0  0  0  0  0  2  0  0  0  0  0  0
  161.5650  206.8090  154.9350 C   0  0  0  0  0  2  0  0  0  0  0  0
  159.1390  207.3990  154.9340 C   0  0  0  0  0  1  0  0  0  0  0  0
  160.8340  208.8920  153.7970 C   0  0  1  0  0  3  0  0  0  0  0  0
  160.6980  208.8790  156.1580 C   0  0  0  0  0  2  0  0  0  0  0  0
  160.5230  208.2620  152.4430 C   0  0  0  0  0  2  0  0  0  0  0  0
  160.1710  210.2030  154.1460 C   0  0  2  0  0  3  0  0  0  0  0  0
  157.9700  210.6980  155.2610 O   0  0  0  0  0  1  0  0  0  0  0  0
  158.9410  210.6730  156.2620 C   0  0  0  0  0  2  0  0  0  0  0  0
  160.8430  211.3920  153.4580 C   0  0  0  0  0  2  0  0  0  0  0  0
  160.1140  211.8280  152.1860 C   0  0  0  0  0  2  0  0  0  0  0  0
  158.9930  213.4790  153.5490 O   0  0  0  0  0  1  0  0  0  0  0  0
  158.8230  212.5880  152.4860 C   0  0  1  0  0  3  0  0  0  0  0  0
  159.2390  213.4690  150.2820 O   0  0  0  0  0  1  0  0  0  0  0  0
  158.2580  213.2960  151.2600 C   0  0  0  0  0  2  0  0  0  0  0  0
  161.9440  203.6520  145.9500 O   0  0  0  0  0  0  0  0  0  0  0  0
  163.2150  204.1380  145.5440 C   0  0  0  0  0  1  0  0  0  0  0  0
  159.5970  206.3600  146.8510 O   0  0  0  0  0  0  0  0  0  0  0  0
  159.4770  205.8990  145.5380 C   0  0  0  0  0  2  0  0  0  0  0  0
  160.6670  206.3680  144.7270 C   0  0  0  0  0  1  0  0  0  0  0  0
  1  4  1  0  0  0  0
  1 10  1  0  0  0  0
  2 12  1  0  0  0  0
  4  8  1  0  0  0  0
  5  3  2  0  0  0  0
  6 13  1  0  0  0  0
  7  1  2  0  0  0  0
  8  3  1  0  0  0  0
 11  4  2  0  0  0  0
 11  5  1  0  0  0  0
 12 11  1  0  0  0  0
 13 18  2  0  0  0  0
 13  9  2  0  0  0  0
 13 17  1  0  0  0  0
 14 12  2  0  0  0  0
 14  7  1  0  0  0  0
 15 39  1  1  0  0  0
 15 16  1  0  0  0  0
 15  7  1  0  0  0  0
 16  6  1  0  0  0  0
 17 10  1  6  0  0  0
 17 20  1  0  0  0  0
 19 24  1  6  0  0  0
 19 26  1  0  0  0  0
 20 27  1  6  0  0  0
 20 22  1  0  0  0  0
 21 26  1  0  0  0  0
 21 30  1  1  0  0  0
 22 23  1  0  0  0  0
 23 19  1  0  0  0  0
 25 27  1  6  0  0  0
 25 28  1  0  0  0  0
 25 19  1  0  0  0  0
 28 31  1  6  0  0  0
 28 21  1  0  0  0  0
 29 30  1  0  0  0  0
 32 34  1  0  0  0  0
 32 31  1  0  0  0  0
 34 33  1  1  0  0  0
 35 36  1  0  0  0  0
 36 34  1  0  0  0  0
 37 14  1  0  0  0  0
 38 37  1  0  0  0  0
 40 39  1  0  0  0  0
 41 40  1  0  0  0  0
M  END
>  <MODEL>
1

>  <REMARK>
 VINA RESULT:      -4.0      0.000      0.000
  Name = 
  9 active torsions:
  status: ('A' for Active; 'I' for Inactive)
    1  A    between atoms: C_11  and  C_16
    2  A    between atoms: C_11  and  C_31
    3  A    between atoms: C_16  and  C_41
    4  A    between atoms: C_18  and  C_35
    5  A    between atoms: O_19  and  C_21
    6  A    between atoms: C_22  and  C_28
    7  A    between atoms: C_27  and  O_34
    8  A    between atoms: C_30  and  C_31
    9  A    between atoms: O_34  and  C_37
                            x       y       z     vdW  Elec       q    Type
                         _______ _______ _______ _____ _____    ______ ____

>  <TORSDO>
F 9

$$$$
=
 OpenBabel11072412523D

 41 45  0  0  1  0  0  0  0  0999 V2000
  160.5860  208.6010  152.7910 C   0  0  0  0  0  0  0  0  0  0  0  0
  161.3180  211.8670  155.3570 O   0  0  0  0  0  1  0  0  0  0  0  0
  160.5290  211.7690  150.9850 N   0  0  0  0  0  0  0  0  0  0  0  0
  160.6140  209.9220  152.3460 C   0  0  0  0  0  0  0  0  0  0  0  0
  160.8000  212.2100  152.3700 C   0  0  0  0  0  3  0  0  0  0  0  0
  162.6640  206.2300  153.6010 N   0  0  0  0  0  2  0  0  0  0  0  0
  160.8150  208.3560  154.1770 C   0  0  0  0  0  0  0  0  0  0  0  0
  160.4350  210.3890  151.0670 O   0  0  0  0  0  0  0  0  0  0  0  0
  164.1460  206.1940  151.4280 O   0  0  0  0  0  0  0  0  0  0  0  0
  160.3880  207.5040  151.7920 C   0  0  0  0  0  2  0  0  0  0  0  0
  160.8360  210.9610  153.1740 C   0  0  0  0  0  0  0  0  0  0  0  0
  161.0790  210.7740  154.5290 C   0  0  0  0  0  0  0  0  0  0  0  0
  162.7250  206.0170  151.8820 S   0  0  0  0  0  0  0  0  0  0  0  0
  161.0870  209.4630  155.0470 C   0  0  0  0  0  0  0  0  0  0  0  0
  160.6240  206.9740  154.7700 C   0  0  2  0  0  3  0  0  0  0  0  0
  161.3310  205.8380  154.0290 C   0  0  0  0  0  2  0  0  0  0  0  0
  161.6960  207.2440  151.0520 C   0  0  1  0  0  3  0  0  0  0  0  0
  162.2750  204.6250  151.5350 O   0  0  0  0  0  0  0  0  0  0  0  0
  161.4370  206.1090  146.8620 C   0  0  2  0  0  0  0  0  0  0  0  0
  161.4460  206.9470  149.5710 C   0  0  1  0  0  3  0  0  0  0  0  0
  161.5240  203.9040  145.8250 C   0  0  1  0  0  3  0  0  0  0  0  0
  162.5430  207.5590  148.6720 C   0  0  0  0  0  2  0  0  0  0  0  0
  162.2900  207.3460  147.1610 C   0  0  0  0  0  2  0  0  0  0  0  0
  159.9670  206.5150  146.7760 C   0  0  0  0  0  1  0  0  0  0  0  0
  161.6900  205.0580  147.9170 C   0  0  1  0  0  3  0  0  0  0  0  0
  161.8200  205.3940  145.5800 C   0  0  0  0  0  2  0  0  0  0  0  0
  161.1560  205.4520  149.2900 C   0  0  0  0  0  2  0  0  0  0  0  0
  161.2330  203.7490  147.3190 C   0  0  2  0  0  3  0  0  0  0  0  0
  160.2780  202.0690  144.9430 O   0  0  0  0  0  1  0  0  0  0  0  0
  160.3140  203.4620  145.0200 C   0  0  0  0  0  2  0  0  0  0  0  0
  161.9610  202.5500  147.9270 C   0  0  0  0  0  2  0  0  0  0  0  0
  161.0140  201.4040  148.2870 C   0  0  0  0  0  2  0  0  0  0  0  0
  158.9590  201.0690  149.5140 O   0  0  0  0  0  1  0  0  0  0  0  0
  160.2110  201.6890  149.5550 C   0  0  1  0  0  3  0  0  0  0  0  0
  160.8770  202.3340  151.7790 O   0  0  0  0  0  1  0  0  0  0  0  0
  160.9660  201.3180  150.8270 C   0  0  0  0  0  2  0  0  0  0  0  0
  161.3550  209.3190  156.4170 O   0  0  0  0  0  0  0  0  0  0  0  0
  162.6500  209.4140  156.9920 C   0  0  0  0  0  1  0  0  0  0  0  0
  159.2610  206.6870  154.8860 O   0  0  0  0  0  0  0  0  0  0  0  0
  158.9160  207.0940  156.1760 C   0  0  0  0  0  2  0  0  0  0  0  0
  160.0090  206.6910  157.1440 C   0  0  0  0  0  1  0  0  0  0  0  0
  1  7  1  0  0  0  0
  3  8  1  0  0  0  0
  3  5  2  0  0  0  0
  4  1  2  0  0  0  0
  4 11  1  0  0  0  0
  5 11  1  0  0  0  0
  6 16  1  0  0  0  0
  7 15  1  0  0  0  0
  7 14  2  0  0  0  0
  8  4  1  0  0  0  0
  9 13  2  0  0  0  0
 10  1  1  0  0  0  0
 11 12  2  0  0  0  0
 12 14  1  0  0  0  0
 12  2  1  0  0  0  0
 13  6  1  0  0  0  0
 14 37  1  0  0  0  0
 15 39  1  6  0  0  0
 16 15  1  0  0  0  0
 17 10  1  1  0  0  0
 17 13  1  0  0  0  0
 18 13  2  0  0  0  0
 19 24  1  6  0  0  0
 19 23  1  0  0  0  0
 19 25  1  0  0  0  0
 20 22  1  6  0  0  0
 20 17  1  0  0  0  0
 21 30  1  6  0  0  0
 21 28  1  0  0  0  0
 23 22  1  0  0  0  0
 25 27  1  1  0  0  0
 26 21  1  0  0  0  0
 26 19  1  0  0  0  0
 27 20  1  0  0  0  0
 28 25  1  0  0  0  0
 28 31  1  1  0  0  0
 29 30  1  0  0  0  0
 31 32  1  0  0  0  0
 32 34  1  0  0  0  0
 34 33  1  6  0  0  0
 34 36  1  0  0  0  0
 36 35  1  0  0  0  0
 37 38  1  0  0  0  0
 39 40  1  0  0  0  0
 40 41  1  0  0  0  0
M  END
>  <MODEL>
2

>  <REMARK>
 VINA RESULT:      -2.3      2.173      9.247
  Name = 
  9 active torsions:
  status: ('A' for Active; 'I' for Inactive)
    1  A    between atoms: C_11  and  C_16
    2  A    between atoms: C_11  and  C_31
    3  A    between atoms: C_16  and  C_41
    4  A    between atoms: C_18  and  C_35
    5  A    between atoms: O_19  and  C_21
    6  A    between atoms: C_22  and  C_28
    7  A    between atoms: C_27  and  O_34
    8  A    between atoms: C_30  and  C_31
    9  A    between atoms: O_34  and  C_37
                            x       y       z     vdW  Elec       q    Type
                         _______ _______ _______ _____ _____    ______ ____

>  <TORSDO>
F 9

$$$$
=
 OpenBabel11072412523D

 41 45  0  0  1  0  0  0  0  0999 V2000
  160.6100  205.2110  149.6730 C   0  0  0  0  0  0  0  0  0  0  0  0
  161.7440  201.3640  148.3680 O   0  0  0  0  0  1  0  0  0  0  0  0
  160.4010  202.7600  152.3670 N   0  0  0  0  0  0  0  0  0  0  0  0
  160.6130  204.0970  150.5120 C   0  0  0  0  0  0  0  0  0  0  0  0
  160.8570  201.9300  151.2320 C   0  0  0  0  0  3  0  0  0  0  0  0
  162.7160  207.3410  148.4000 N   0  0  0  0  0  2  0  0  0  0  0  0
  161.0080  205.0280  148.3160 C   0  0  0  0  0  0  0  0  0  0  0  0
  160.2840  204.0380  151.8440 O   0  0  0  0  0  0  0  0  0  0  0  0
  163.9070  208.1410  150.6040 O   0  0  0  0  0  0  0  0  0  0  0  0
  160.2590  206.5480  150.2460 C   0  0  0  0  0  2  0  0  0  0  0  0
  160.9650  202.8680  150.0850 C   0  0  0  0  0  0  0  0  0  0  0  0
  161.3740  202.6410  148.7760 C   0  0  0  0  0  0  0  0  0  0  0  0
  162.5510  208.0790  149.9590 S   0  0  0  0  0  0  0  0  0  0  0  0
  161.4160  203.7250  147.8770 C   0  0  0  0  0  0  0  0  0  0  0  0
  160.8610  206.1430  147.3010 C   0  0  2  0  0  3  0  0  0  0  0  0
  161.4390  207.4950  147.7210 C   0  0  0  0  0  2  0  0  0  0  0  0
  161.4550  207.1070  151.0110 C   0  0  1  0  0  3  0  0  0  0  0  0
  162.0270  209.4790  149.7960 O   0  0  0  0  0  0  0  0  0  0  0  0
  160.3990  209.6090  154.4070 C   0  0  2  0  0  0  0  0  0  0  0  0
  161.0100  207.8310  152.2840 C   0  0  1  0  0  3  0  0  0  0  0  0
  159.1710  211.7140  154.4840 C   0  0  1  0  0  3  0  0  0  0  0  0
  162.2170  208.3520  153.0960 C   0  0  0  0  0  2  0  0  0  0  0  0
  161.8150  209.0260  154.4290 C   0  0  0  0  0  2  0  0  0  0  0  0
  159.4150  208.5720  154.9470 C   0  0  0  0  0  1  0  0  0  0  0  0
  160.0610  210.0550  153.0030 C   0  0  1  0  0  3  0  0  0  0  0  0
  160.2470  210.8870  155.2090 C   0  0  0  0  0  2  0  0  0  0  0  0
  159.9110  208.8910  152.0290 C   0  0  0  0  0  2  0  0  0  0  0  0
  158.9150  211.0270  153.1400 C   0  0  2  0  0  3  0  0  0  0  0  0
  158.1460  211.3620  156.6110 O   0  0  0  0  0  1  0  0  0  0  0  0
  157.8860  211.7450  155.2940 C   0  0  0  0  0  2  0  0  0  0  0  0
  158.8620  212.0260  151.9830 C   0  0  0  0  0  2  0  0  0  0  0  0
  160.2500  212.5010  151.5490 C   0  0  0  0  0  2  0  0  0  0  0  0
  160.9670  212.9540  149.2860 O   0  0  0  0  0  1  0  0  0  0  0  0
  160.1940  213.4390  150.3450 C   0  0  1  0  0  3  0  0  0  0  0  0
  158.5880  213.4050  148.5490 O   0  0  0  0  0  1  0  0  0  0  0  0
  158.7680  213.7340  149.8940 C   0  0  0  0  0  2  0  0  0  0  0  0
  161.8540  203.4550  146.5700 O   0  0  0  0  0  0  0  0  0  0  0  0
  161.1010  202.7320  145.6080 C   0  0  0  0  0  1  0  0  0  0  0  0
  159.5180  206.2930  146.9460 O   0  0  0  0  0  0  0  0  0  0  0  0
  159.4440  205.8580  145.6210 C   0  0  0  0  0  2  0  0  0  0  0  0
  160.7190  206.2320  144.8940 C   0  0  0  0  0  1  0  0  0  0  0  0
  1 10  1  0  0  0  0
  1  4  1  0  0  0  0
  2 12  1  0  0  0  0
  4  8  1  0  0  0  0
  5  3  2  0  0  0  0
  6 13  1  0  0  0  0
  7  1  2  0  0  0  0
  8  3  1  0  0  0  0
 11  4  2  0  0  0  0
 11  5  1  0  0  0  0
 12 11  1  0  0  0  0
 13  9  2  0  0  0  0
 13 17  1  0  0  0  0
 14  7  1  0  0  0  0
 14 12  2  0  0  0  0
 15 39  1  1  0  0  0
 15 16  1  0  0  0  0
 15  7  1  0  0  0  0
 16  6  1  0  0  0  0
 17 10  1  6  0  0  0
 17 20  1  0  0  0  0
 18 13  2  0  0  0  0
 19 23  1  0  0  0  0
 19 24  1  1  0  0  0
 19 26  1  0  0  0  0
 20 27  1  6  0  0  0
 20 22  1  0  0  0  0
 21 26  1  0  0  0  0
 21 30  1  1  0  0  0
 22 23  1  0  0  0  0
 25 27  1  6  0  0  0
 25 28  1  0  0  0  0
 25 19  1  0  0  0  0
 28 31  1  6  0  0  0
 28 21  1  0  0  0  0
 30 29  1  0  0  0  0
 32 31  1  0  0  0  0
 34 33  1  6  0  0  0
 34 32  1  0  0  0  0
 35 36  1  0  0  0  0
 36 34  1  0  0  0  0
 37 14  1  0  0  0  0
 38 37  1  0  0  0  0
 40 39  1  0  0  0  0
 41 40  1  0  0  0  0
M  END
>  <MODEL>
3

>  <REMARK>
 VINA RESULT:      -1.9      1.274      1.547
  Name = 
  9 active torsions:
  status: ('A' for Active; 'I' for Inactive)
    1  A    between atoms: C_11  and  C_16
    2  A    between atoms: C_11  and  C_31
    3  A    between atoms: C_16  and  C_41
    4  A    between atoms: C_18  and  C_35
    5  A    between atoms: O_19  and  C_21
    6  A    between atoms: C_22  and  C_28
    7  A    between atoms: C_27  and  O_34
    8  A    between atoms: C_30  and  C_31
    9  A    between atoms: O_34  and  C_37
                            x       y       z     vdW  Elec       q    Type
                         _______ _______ _______ _____ _____    ______ ____

>  <TORSDO>
F 9

$$$$
