=
 OpenBabel11072413103D

 35 42  0  0  1  0  0  0  0  0999 V2000
  162.3840  207.6280  148.5320 C   0  0  0  0  0  0  0  0  0  0  0  0
  160.5490  208.1170  152.5980 O   0  0  0  0  0  0  0  0  0  0  0  0
  159.7070  211.4030  153.5180 C   0  0  1  0  0  3  0  0  0  0  0  0
  162.0440  206.3530  148.0930 C   0  0  0  0  0  3  0  0  0  0  0  0
  162.2410  207.9980  149.8280 C   0  0  0  0  0  0  0  0  0  0  0  0
  158.4880  213.4850  152.8140 C   0  0  0  0  0  2  0  0  0  0  0  0
  162.1950  210.3510  150.8840 C   0  0  0  0  0  2  0  0  0  0  0  0
  159.0870  213.1640  155.3000 C   0  0  0  0  0  2  0  0  0  0  0  0
  160.8300  210.5910  151.5200 C   0  0  1  0  0  3  0  0  0  0  0  0
  159.3670  210.8400  155.8720 O   0  0  0  0  0  0  0  0  0  0  0  0
  162.5660  208.7660  147.7180 N   0  0  0  0  0  2  0  0  0  0  0  0
  160.8970  204.8690  151.3010 C   0  0  0  0  0  3  0  0  0  0  0  0
  162.5640  209.8980  148.4810 O   0  0  0  0  0  0  0  0  0  0  0  0
  160.4130  209.9160  155.8950 C   0  0  1  0  0  3  0  0  0  0  0  0
  161.9430  209.4620  149.6770 C   0  0  1  0  0  3  0  0  0  0  0  0
  159.7710  212.6580  152.6660 C   0  0  2  0  0  3  0  0  0  0  0  0
  160.6090  203.2430  149.5170 C   0  0  0  0  0  0  0  0  0  0  0  0
  160.8980  209.0700  153.5750 C   0  0  1  0  0  3  0  0  0  0  0  0
  160.8740  210.5410  153.0450 C   0  0  2  0  0  3  0  0  0  0  0  0
  161.5720  205.4280  149.0320 C   0  0  0  0  0  0  0  0  0  0  0  0
  160.5500  209.2320  157.2610 C   0  0  0  0  0  2  0  0  0  0  0  0
  161.4560  205.7870  150.4040 C   0  0  0  0  0  0  0  0  0  0  0  0
  160.1280  212.1800  150.9520 S   0  0  0  0  0  0  0  0  0  0  0  0
  160.4760  203.6040  150.8640 C   0  0  0  0  0  3  0  0  0  0  0  0
  157.9810  213.4880  154.2720 C   0  0  0  0  0  2  0  0  0  0  0  0
  161.1480  204.1630  148.6090 C   0  0  0  0  0  3  0  0  0  0  0  0
  160.1360  208.8080  154.8800 C   0  0  1  0  0  3  0  0  0  0  0  0
  160.8240  207.8720  156.9610 O   0  0  0  0  0  0  0  0  0  0  0  0
  160.7300  206.4570  155.1210 O   0  0  0  0  0  0  0  0  0  0  0  0
  161.7650  207.5120  152.2570 C   0  0  0  0  0  2  0  0  0  0  0  0
  161.7880  207.1020  150.8130 C   0  0  0  0  0  0  0  0  0  0  0  0
  160.6020  207.6100  155.6240 C   0  0  0  0  0  0  0  0  0  0  0  0
  159.8230  211.8420  154.9950 C   0  0  1  0  0  3  0  0  0  0  0  0
  161.0940  200.9620  148.6990 C   0  0  0  0  0  1  0  0  0  0  0  0
  160.1850  201.9730  149.1120 O   0  0  0  0  0  0  0  0  0  0  0  0
  1  5  1  0  0  0  0
  2 18  1  0  0  0  0
  3 33  1  0  0  0  0
  4  1  2  0  0  0  0
  4 20  1  0  0  0  0
  5 31  2  0  0  0  0
  6 25  1  0  0  0  0
  7  9  1  0  0  0  0
  9 19  1  0  0  0  0
 10 14  1  0  0  0  0
 11 13  1  0  0  0  0
 11  1  1  0  0  0  0
 13 15  1  0  0  0  0
 14 21  1  0  0  0  0
 15  5  1  0  0  0  0
 15  7  1  0  0  0  0
 16  6  1  0  0  0  0
 16  3  1  0  0  0  0
 17 24  2  0  0  0  0
 18 27  1  0  0  0  0
 19  3  1  0  0  0  0
 19 18  1  0  0  0  0
 20 22  1  0  0  0  0
 22 31  1  0  0  0  0
 22 12  2  0  0  0  0
 23  9  1  0  0  0  0
 23 16  1  0  0  0  0
 24 12  1  0  0  0  0
 25  8  1  0  0  0  0
 26 20  2  0  0  0  0
 26 17  1  0  0  0  0
 27 32  1  0  0  0  0
 27 14  1  0  0  0  0
 28 21  1  0  0  0  0
 29 32  2  0  0  0  0
 30  2  1  0  0  0  0
 31 30  1  0  0  0  0
 32 28  1  0  0  0  0
 33  8  1  0  0  0  0
 33 10  1  0  0  0  0
 34 35  1  0  0  0  0
 35 17  1  0  0  0  0
M  END
>  <MODEL>
1

>  <REMARK>
 VINA RESULT:      -9.2      0.000      0.000
  Name = 
  1 active torsions:
  status: ('A' for Active; 'I' for Inactive)
    1  A    between atoms: C_18  and  O_26
                            x       y       z     vdW  Elec       q    Type
                         _______ _______ _______ _____ _____    ______ ____

>  <TORSDO>
F 1

$$$$
=
 OpenBabel11072413103D

 35 42  0  0  1  0  0  0  0  0999 V2000
  160.7390  208.5080  155.3800 C   0  0  0  0  0  0  0  0  0  0  0  0
  160.6140  207.5380  151.0010 O   0  0  0  0  0  0  0  0  0  0  0  0
  160.7940  204.1250  150.1790 C   0  0  1  0  0  3  0  0  0  0  0  0
  160.0310  209.6930  155.5450 C   0  0  0  0  0  3  0  0  0  0  0  0
  161.1440  208.0840  154.1580 C   0  0  0  0  0  0  0  0  0  0  0  0
  159.8190  201.8510  150.6210 C   0  0  0  0  0  2  0  0  0  0  0  0
  161.9240  205.7470  153.3920 C   0  0  0  0  0  2  0  0  0  0  0  0
  161.1980  202.2270  148.4770 C   0  0  0  0  0  2  0  0  0  0  0  0
  160.9500  205.2070  152.3500 C   0  0  1  0  0  3  0  0  0  0  0  0
  161.2230  204.5420  147.8080 O   0  0  0  0  0  0  0  0  0  0  0  0
  160.8280  207.4570  156.3160 N   0  0  0  0  0  2  0  0  0  0  0  0
  159.8550  210.8190  152.0070 C   0  0  0  0  0  3  0  0  0  0  0  0
  161.3130  206.3300  155.7160 O   0  0  0  0  0  0  0  0  0  0  0  0
  162.0130  205.6650  148.0570 C   0  0  1  0  0  3  0  0  0  0  0  0
  161.0920  206.5940  154.3410 C   0  0  1  0  0  3  0  0  0  0  0  0
  160.7830  202.9340  151.1200 C   0  0  2  0  0  3  0  0  0  0  0  0
  158.6450  212.3930  153.4100 C   0  0  0  0  0  0  0  0  0  0  0  0
  161.4640  206.6540  150.3050 C   0  0  1  0  0  3  0  0  0  0  0  0
  161.5290  205.2260  150.9380 C   0  0  2  0  0  3  0  0  0  0  0  0
  159.7630  210.4740  154.4140 C   0  0  0  0  0  0  0  0  0  0  0  0
  162.4990  206.3270  146.7620 C   0  0  0  0  0  2  0  0  0  0  0  0
  160.2170  210.0630  153.1280 C   0  0  0  0  0  0  0  0  0  0  0  0
  160.4040  203.5210  152.7950 S   0  0  0  0  0  0  0  0  0  0  0  0
  159.0750  211.9760  152.1440 C   0  0  0  0  0  3  0  0  0  0  0  0
  159.8790  201.7030  149.0850 C   0  0  0  0  0  2  0  0  0  0  0  0
  158.9850  211.6310  154.5360 C   0  0  0  0  0  3  0  0  0  0  0  0
  161.1860  206.7160  148.7970 C   0  0  1  0  0  3  0  0  0  0  0  0
  162.3860  207.7220  147.0010 O   0  0  0  0  0  0  0  0  0  0  0  0
  161.3740  209.1320  148.5440 O   0  0  0  0  0  0  0  0  0  0  0  0
  161.4900  208.3950  151.6790 C   0  0  0  0  0  2  0  0  0  0  0  0
  160.9140  208.8370  152.9930 C   0  0  0  0  0  0  0  0  0  0  0  0
  161.6540  207.9660  148.1460 C   0  0  0  0  0  0  0  0  0  0  0  0
  161.5130  203.6820  148.8850 C   0  0  1  0  0  3  0  0  0  0  0  0
  157.2040  214.1270  152.3990 C   0  0  0  0  0  1  0  0  0  0  0  0
  157.8730  213.5540  153.5140 O   0  0  0  0  0  0  0  0  0  0  0  0
  1  4  1  0  0  0  0
  1 11  1  0  0  0  0
  2 30  1  0  0  0  0
  3 19  1  0  0  0  0
  3 16  1  0  0  0  0
  5 15  1  0  0  0  0
  5  1  2  0  0  0  0
  6 16  1  0  0  0  0
  7 15  1  0  0  0  0
  8 33  1  0  0  0  0
  8 25  1  0  0  0  0
  9 23  1  0  0  0  0
  9  7  1  0  0  0  0
 10 14  1  0  0  0  0
 10 33  1  0  0  0  0
 12 24  2  0  0  0  0
 12 22  1  0  0  0  0
 13 11  1  0  0  0  0
 14 27  1  0  0  0  0
 15 13  1  0  0  0  0
 16 23  1  0  0  0  0
 17 35  1  0  0  0  0
 17 26  2  0  0  0  0
 18 19  1  0  0  0  0
 18  2  1  0  0  0  0
 19  9  1  0  0  0  0
 20 26  1  0  0  0  0
 20  4  2  0  0  0  0
 21 28  1  0  0  0  0
 21 14  1  0  0  0  0
 22 20  1  0  0  0  0
 24 17  1  0  0  0  0
 25  6  1  0  0  0  0
 27 18  1  0  0  0  0
 28 32  1  0  0  0  0
 30 31  1  0  0  0  0
 31 22  2  0  0  0  0
 31  5  1  0  0  0  0
 32 29  2  0  0  0  0
 32 27  1  0  0  0  0
 33  3  1  0  0  0  0
 34 35  1  0  0  0  0
M  END
>  <MODEL>
2

>  <REMARK>
 VINA RESULT:      -7.2      2.572      8.598
  Name = 
  1 active torsions:
  status: ('A' for Active; 'I' for Inactive)
    1  A    between atoms: C_18  and  O_26
                            x       y       z     vdW  Elec       q    Type
                         _______ _______ _______ _____ _____    ______ ____

>  <TORSDO>
F 1

$$$$
=
 OpenBabel11072413103D

 35 42  0  0  1  0  0  0  0  0999 V2000
  162.0470  210.0310  148.7180 C   0  0  0  0  0  0  0  0  0  0  0  0
  159.8190  209.9040  152.6110 O   0  0  0  0  0  0  0  0  0  0  0  0
  157.9930  212.7930  153.4310 C   0  0  1  0  0  3  0  0  0  0  0  0
  162.1270  208.7200  148.2620 C   0  0  0  0  0  3  0  0  0  0  0  0
  161.6970  210.3220  149.9950 C   0  0  0  0  0  0  0  0  0  0  0  0
  156.2890  214.4480  152.6100 C   0  0  0  0  0  2  0  0  0  0  0  0
  160.8880  212.5450  151.0240 C   0  0  0  0  0  2  0  0  0  0  0  0
  156.7460  214.2720  155.1400 C   0  0  0  0  0  2  0  0  0  0  0  0
  159.4640  212.3720  151.5410 C   0  0  1  0  0  3  0  0  0  0  0  0
  157.6360  212.1170  155.7520 O   0  0  0  0  0  0  0  0  0  0  0  0
  161.9610  211.1860  147.9130 N   0  0  0  0  0  2  0  0  0  0  0  0
  161.1940  206.9150  151.3740 C   0  0  0  0  0  3  0  0  0  0  0  0
  161.5700  212.2580  148.6640 O   0  0  0  0  0  0  0  0  0  0  0  0
  158.8980  211.5330  155.8710 C   0  0  1  0  0  3  0  0  0  0  0  0
  161.0030  211.6410  149.8080 C   0  0  1  0  0  3  0  0  0  0  0  0
  157.7630  214.0270  152.5780 C   0  0  2  0  0  3  0  0  0  0  0  0
  161.5360  205.3050  149.5850 C   0  0  0  0  0  0  0  0  0  0  0  0
  159.7970  210.9010  153.6060 C   0  0  1  0  0  3  0  0  0  0  0  0
  159.3940  212.3110  153.0650 C   0  0  2  0  0  3  0  0  0  0  0  0
  161.8660  207.6820  149.1650 C   0  0  0  0  0  0  0  0  0  0  0  0
  159.1120  210.8940  157.2480 C   0  0  0  0  0  2  0  0  0  0  0  0
  161.5370  207.9700  150.5200 C   0  0  0  0  0  0  0  0  0  0  0  0
  158.3840  213.7010  150.9030 S   0  0  0  0  0  0  0  0  0  0  0  0
  161.1930  205.5900  150.9130 C   0  0  0  0  0  3  0  0  0  0  0  0
  155.6830  214.2810  154.0200 C   0  0  0  0  0  2  0  0  0  0  0  0
  161.8600  206.3560  148.7180 C   0  0  0  0  0  3  0  0  0  0  0  0
  159.0360  210.4090  154.8450 C   0  0  1  0  0  3  0  0  0  0  0  0
  159.7900  209.6760  156.9840 O   0  0  0  0  0  0  0  0  0  0  0  0
  160.2610  208.3250  155.1540 O   0  0  0  0  0  0  0  0  0  0  0  0
  161.1820  209.6800  152.3790 C   0  0  0  0  0  2  0  0  0  0  0  0
  161.4410  209.3180  150.9450 C   0  0  0  0  0  0  0  0  0  0  0  0
  159.7650  209.3830  155.6340 C   0  0  0  0  0  0  0  0  0  0  0  0
  157.8550  213.2220  154.9080 C   0  0  1  0  0  3  0  0  0  0  0  0
  161.5040  203.6150  147.7810 C   0  0  0  0  0  1  0  0  0  0  0  0
  161.5300  203.9740  149.1560 O   0  0  0  0  0  0  0  0  0  0  0  0
  1  5  1  0  0  0  0
  2 18  1  0  0  0  0
  3 33  1  0  0  0  0
  4  1  2  0  0  0  0
  4 20  1  0  0  0  0
  5 31  2  0  0  0  0
  6 25  1  0  0  0  0
  7  9  1  0  0  0  0
  9 19  1  0  0  0  0
 10 14  1  0  0  0  0
 11 13  1  0  0  0  0
 11  1  1  0  0  0  0
 13 15  1  0  0  0  0
 14 21  1  0  0  0  0
 15  5  1  0  0  0  0
 15  7  1  0  0  0  0
 16  6  1  0  0  0  0
 16  3  1  0  0  0  0
 17 24  2  0  0  0  0
 18 27  1  0  0  0  0
 19  3  1  0  0  0  0
 19 18  1  0  0  0  0
 20 22  1  0  0  0  0
 22 31  1  0  0  0  0
 22 12  2  0  0  0  0
 23  9  1  0  0  0  0
 23 16  1  0  0  0  0
 24 12  1  0  0  0  0
 25  8  1  0  0  0  0
 26 20  2  0  0  0  0
 26 17  1  0  0  0  0
 27 32  1  0  0  0  0
 27 14  1  0  0  0  0
 28 21  1  0  0  0  0
 29 32  2  0  0  0  0
 30  2  1  0  0  0  0
 31 30  1  0  0  0  0
 32 28  1  0  0  0  0
 33  8  1  0  0  0  0
 33 10  1  0  0  0  0
 34 35  1  0  0  0  0
 35 17  1  0  0  0  0
M  END
>  <MODEL>
3

>  <REMARK>
 VINA RESULT:      -7.0      1.574      2.296
  Name = 
  1 active torsions:
  status: ('A' for Active; 'I' for Inactive)
    1  A    between atoms: C_18  and  O_26
                            x       y       z     vdW  Elec       q    Type
                         _______ _______ _______ _____ _____    ______ ____

>  <TORSDO>
F 1

$$$$
=
 OpenBabel11072413103D

 35 42  0  0  1  0  0  0  0  0999 V2000
  159.9980  209.9510  156.7580 C   0  0  0  0  0  0  0  0  0  0  0  0
  160.1950  210.7450  152.3460 O   0  0  0  0  0  0  0  0  0  0  0  0
  161.3580  208.0890  150.3580 C   0  0  1  0  0  3  0  0  0  0  0  0
  158.9770  210.7500  157.2610 C   0  0  0  0  0  3  0  0  0  0  0  0
  160.5180  210.1520  155.5220 C   0  0  0  0  0  0  0  0  0  0  0  0
  161.0760  205.6510  149.8180 C   0  0  0  0  0  2  0  0  0  0  0  0
  161.9450  208.5850  154.0520 C   0  0  0  0  0  2  0  0  0  0  0  0
  162.3060  207.1710  148.1400 C   0  0  0  0  0  2  0  0  0  0  0  0
  161.1770  208.2530  152.7770 C   0  0  1  0  0  3  0  0  0  0  0  0
  161.6680  209.4830  148.3740 O   0  0  0  0  0  0  0  0  0  0  0  0
  160.3780  208.6850  157.2470 N   0  0  0  0  0  2  0  0  0  0  0  0
  158.5140  213.0610  154.3870 C   0  0  0  0  0  3  0  0  0  0  0  0
  161.1730  208.0460  156.3390 O   0  0  0  0  0  0  0  0  0  0  0  0
  162.0990  210.5890  149.1080 C   0  0  1  0  0  3  0  0  0  0  0  0
  160.8970  208.7500  155.1400 C   0  0  1  0  0  3  0  0  0  0  0  0
  161.6820  206.6700  150.7900 C   0  0  2  0  0  3  0  0  0  0  0  0
  156.8900  213.5950  156.1150 C   0  0  0  0  0  0  0  0  0  0  0  0
  161.2690  210.4540  151.4810 C   0  0  1  0  0  3  0  0  0  0  0  0
  161.7370  208.9650  151.5490 C   0  0  2  0  0  3  0  0  0  0  0  0
  158.5050  211.8060  156.4700 C   0  0  0  0  0  0  0  0  0  0  0  0
  162.3850  211.8000  148.2130 C   0  0  0  0  0  2  0  0  0  0  0  0
  159.0690  212.0560  155.1870 C   0  0  0  0  0  0  0  0  0  0  0  0
  161.1360  206.4450  152.5060 S   0  0  0  0  0  0  0  0  0  0  0  0
  157.4330  213.8280  154.8440 C   0  0  0  0  0  3  0  0  0  0  0  0
  161.1890  206.1260  148.3540 C   0  0  0  0  0  2  0  0  0  0  0  0
  157.4260  212.5780  156.9150 C   0  0  0  0  0  3  0  0  0  0  0  0
  160.9980  211.0160  150.0790 C   0  0  1  0  0  3  0  0  0  0  0  0
  161.8720  212.9130  148.9310 O   0  0  0  0  0  0  0  0  0  0  0  0
  160.4830  213.3000  150.7520 O   0  0  0  0  0  0  0  0  0  0  0  0
  160.7810  211.4730  153.3890 C   0  0  0  0  0  2  0  0  0  0  0  0
  160.0910  211.2070  154.6960 C   0  0  0  0  0  0  0  0  0  0  0  0
  161.0910  212.4960  149.9900 C   0  0  0  0  0  0  0  0  0  0  0  0
  162.1850  208.3850  149.0870 C   0  0  1  0  0  3  0  0  0  0  0  0
  154.6360  213.8170  157.1030 C   0  0  0  0  0  1  0  0  0  0  0  0
  155.8150  214.3800  156.5450 O   0  0  0  0  0  0  0  0  0  0  0  0
  1 11  1  0  0  0  0
  1  4  1  0  0  0  0
  2 30  1  0  0  0  0
  3 16  1  0  0  0  0
  3 19  1  0  0  0  0
  5  1  2  0  0  0  0
  6 16  1  0  0  0  0
  7 15  1  0  0  0  0
  8 25  1  0  0  0  0
  8 33  1  0  0  0  0
  9  7  1  0  0  0  0
 10 33  1  0  0  0  0
 10 14  1  0  0  0  0
 12 24  2  0  0  0  0
 12 22  1  0  0  0  0
 13 11  1  0  0  0  0
 14 27  1  0  0  0  0
 15  5  1  0  0  0  0
 15 13  1  0  0  0  0
 16 23  1  0  0  0  0
 17 35  1  0  0  0  0
 17 26  2  0  0  0  0
 18 19  1  0  0  0  0
 18  2  1  0  0  0  0
 19  9  1  0  0  0  0
 20 26  1  0  0  0  0
 20  4  2  0  0  0  0
 21 28  1  0  0  0  0
 21 14  1  0  0  0  0
 22 20  1  0  0  0  0
 23  9  1  0  0  0  0
 24 17  1  0  0  0  0
 25  6  1  0  0  0  0
 27 18  1  0  0  0  0
 28 32  1  0  0  0  0
 30 31  1  0  0  0  0
 31 22  2  0  0  0  0
 31  5  1  0  0  0  0
 32 27  1  0  0  0  0
 32 29  2  0  0  0  0
 33  3  1  0  0  0  0
 35 34  1  0  0  0  0
M  END
>  <MODEL>
4

>  <REMARK>
 VINA RESULT:      -6.7      2.824      8.623
  Name = 
  1 active torsions:
  status: ('A' for Active; 'I' for Inactive)
    1  A    between atoms: C_18  and  O_26
                            x       y       z     vdW  Elec       q    Type
                         _______ _______ _______ _____ _____    ______ ____

>  <TORSDO>
F 1

$$$$
