=
 OpenBabel11072411263D

 35 37  0  0  1  0  0  0  0  0999 V2000
  160.2030  206.8450  149.9010 C   0  0  0  0  0  2  0  0  0  0  0  0
  161.8020  208.6240  149.6970 O   0  0  0  0  0  0  0  0  0  0  0  0
  160.9470  206.7850  147.4970 C   0  0  0  0  0  0  0  0  0  0  0  0
  160.5840  205.9690  148.7020 C   0  0  1  0  0  3  0  0  0  0  0  0
  161.4260  207.5460  150.5100 C   0  0  1  0  0  3  0  0  0  0  0  0
  160.3370  206.5740  146.4160 O   0  0  0  0  0  0  0  0  0  0  0  0
  161.9870  207.7700  147.5350 N   0  0  0  0  0  2  0  0  0  0  0  0
  162.7010  208.1040  148.7610 C   0  0  0  0  0  2  0  0  0  0  0  0
  161.1340  208.0500  151.9250 C   0  0  2  0  0  3  0  0  0  0  0  0
  161.5590  209.4380  152.0510 N   0  0  0  0  0  2  0  0  0  0  0  0
  161.8810  210.4180  154.6540 C   0  0  0  0  0  1  0  0  0  0  0  0
  160.3790  211.5760  151.8740 C   0  0  0  0  0  2  0  0  0  0  0  0
  158.2950  212.9190  151.4320 N   0  0  0  0  0  1  0  0  0  0  0  0
  158.7290  211.1330  156.0570 Cl  0  0  0  0  0  0  0  0  0  0  0  0
  159.6860  211.5750  154.6250 C   0  0  1  0  0  3  0  0  0  0  0  0
  160.4660  210.3510  154.1010 C   0  0  1  0  0  3  0  0  0  0  0  0
  160.4360  210.2160  152.5600 C   0  0  2  0  0  3  0  0  0  0  0  0
  159.1540  212.2690  152.3610 C   0  0  0  0  0  0  0  0  0  0  0  0
  158.8270  212.2060  153.6170 N   0  0  0  0  0  0  0  0  0  0  0  0
  161.8700  207.2180  152.9640 C   0  0  0  0  0  2  0  0  0  0  0  0
  160.8730  206.5420  153.8830 C   0  0  0  0  0  2  0  0  0  0  0  0
  161.1370  206.9140  155.2260 O   0  0  0  0  0  0  0  0  0  0  0  0
  158.9260  206.9840  155.8870 O   0  0  0  0  0  0  0  0  0  0  0  0
  160.1210  207.3260  156.0860 C   0  0  0  0  0  0  0  0  0  0  0  0
  160.4540  208.1680  157.2610 C   0  0  0  0  0  1  0  0  0  0  0  0
  161.6490  205.0860  149.0290 O   0  0  0  0  0  0  0  0  0  0  0  0
  161.2510  202.8540  148.3200 C   0  0  0  0  0  0  0  0  0  0  0  0
  160.8280  200.9270  150.0090 C   0  0  0  0  0  1  0  0  0  0  0  0
  160.7500  200.2320  145.2610 O   0  0  0  0  0  0  0  0  0  0  0  0
  160.7630  200.5800  147.6030 C   0  0  0  0  0  3  0  0  0  0  0  0
  160.8690  201.0490  146.2110 C   0  0  0  0  0  0  0  0  0  0  0  0
  161.1480  202.4310  145.9440 N   0  0  0  0  0  0  0  0  0  0  0  0
  160.9500  201.4320  148.6100 C   0  0  0  0  0  0  0  0  0  0  0  0
  161.3370  203.2810  146.9070 C   0  0  0  0  0  3  0  0  0  0  0  0
  161.4080  203.7440  149.3030 C   0  0  0  0  0  3  0  0  0  0  0  0
  1  5  1  0  0  0  0
  2  5  1  0  0  0  0
  3  7  1  0  0  0  0
  3  4  1  0  0  0  0
  4 26  1  1  0  0  0
  4  1  1  0  0  0  0
  5  9  1  1  0  0  0
  6  3  2  0  0  0  0
  7  8  1  0  0  0  0
  8  2  1  0  0  0  0
  9 10  1  0  0  0  0
  9 20  1  1  0  0  0
 12 18  1  0  0  0  0
 12 17  1  0  0  0  0
 13 18  1  0  0  0  0
 15 14  1  1  0  0  0
 16 15  1  0  0  0  0
 16 11  1  6  0  0  0
 17 10  1  6  0  0  0
 17 16  1  0  0  0  0
 18 19  2  0  0  0  0
 19 15  1  0  0  0  0
 20 21  1  0  0  0  0
 21 22  1  0  0  0  0
 22 24  1  0  0  0  0
 23 24  2  0  0  0  0
 24 25  1  0  0  0  0
 26 35  1  0  0  0  0
 27 33  1  0  0  0  0
 27 35  2  0  0  0  0
 29 31  2  0  0  0  0
 30 33  2  0  0  0  0
 31 30  1  0  0  0  0
 32 31  1  0  0  0  0
 32 34  2  0  0  0  0
 33 28  1  0  0  0  0
 34 27  1  0  0  0  0
M  END
>  <MODEL>
1

>  <REMARK>
 VINA RESULT:      -7.1      0.000      0.000
  Name = 
  9 active torsions:
  status: ('A' for Active; 'I' for Inactive)
    1  A    between atoms: N_6  and  C_23
    2  A    between atoms: N_6  and  C_24
    3  A    between atoms: C_10  and  O_30
    4  A    between atoms: C_15  and  O_35
    5  A    between atoms: C_16  and  C_24
    6  A    between atoms: C_22  and  C_24
    7  A    between atoms: C_22  and  C_28
    8  A    between atoms: C_28  and  O_30
    9  A    between atoms: C_34  and  O_35
                            x       y       z     vdW  Elec       q    Type
                         _______ _______ _______ _____ _____    ______ ____

>  <TORSDO>
F 9

$$$$
=
 OpenBabel11072411263D

 35 37  0  0  1  0  0  0  0  0999 V2000
  160.2990  206.6460  149.5690 C   0  0  0  0  0  2  0  0  0  0  0  0
  161.8510  208.4760  149.4860 O   0  0  0  0  0  0  0  0  0  0  0  0
  161.0210  206.7850  147.1610 C   0  0  0  0  0  0  0  0  0  0  0  0
  160.6910  205.8720  148.3050 C   0  0  1  0  0  3  0  0  0  0  0  0
  161.5100  207.3310  150.2190 C   0  0  1  0  0  3  0  0  0  0  0  0
  160.4060  206.6390  146.0730 O   0  0  0  0  0  0  0  0  0  0  0  0
  162.0360  207.7910  147.2650 N   0  0  0  0  0  2  0  0  0  0  0  0
  162.7540  208.0500  148.5060 C   0  0  0  0  0  2  0  0  0  0  0  0
  161.2190  207.7200  151.6700 C   0  0  2  0  0  3  0  0  0  0  0  0
  161.6440  209.0940  151.9060 N   0  0  0  0  0  2  0  0  0  0  0  0
  161.8130  209.8130  154.6070 C   0  0  0  0  0  1  0  0  0  0  0  0
  160.5120  211.2640  151.8630 C   0  0  0  0  0  2  0  0  0  0  0  0
  158.4830  212.6890  151.4230 N   0  0  0  0  0  1  0  0  0  0  0  0
  158.5880  210.4610  155.8720 Cl  0  0  0  0  0  0  0  0  0  0  0  0
  159.6430  211.0160  154.5520 C   0  0  1  0  0  3  0  0  0  0  0  0
  160.4360  209.8310  153.9620 C   0  0  1  0  0  3  0  0  0  0  0  0
  160.5030  209.8440  152.4160 C   0  0  2  0  0  3  0  0  0  0  0  0
  159.2700  211.9350  152.3370 C   0  0  0  0  0  0  0  0  0  0  0  0
  158.8610  211.7590  153.5580 N   0  0  0  0  0  0  0  0  0  0  0  0
  161.9560  206.8070  152.6390 C   0  0  0  0  0  2  0  0  0  0  0  0
  160.9590  206.0400  153.4820 C   0  0  0  0  0  2  0  0  0  0  0  0
  161.2470  204.6520  153.4130 O   0  0  0  0  0  0  0  0  0  0  0  0
  159.9620  204.2420  151.5390 O   0  0  0  0  0  0  0  0  0  0  0  0
  160.8970  203.8860  152.3030 C   0  0  0  0  0  0  0  0  0  0  0  0
  161.6460  202.6400  152.0100 C   0  0  0  0  0  1  0  0  0  0  0  0
  161.7810  204.9950  148.5570 O   0  0  0  0  0  0  0  0  0  0  0  0
  161.2540  202.8310  147.7290 C   0  0  0  0  0  0  0  0  0  0  0  0
  161.0900  200.7620  149.2880 C   0  0  0  0  0  1  0  0  0  0  0  0
  160.2450  200.4850  144.5730 O   0  0  0  0  0  0  0  0  0  0  0  0
  160.6380  200.6260  146.9030 C   0  0  0  0  0  3  0  0  0  0  0  0
  160.5230  201.2160  145.5590 C   0  0  0  0  0  0  0  0  0  0  0  0
  160.7680  202.6180  145.3720 N   0  0  0  0  0  0  0  0  0  0  0  0
  160.9910  201.3880  147.9380 C   0  0  0  0  0  0  0  0  0  0  0  0
  161.1160  203.3810  146.3630 C   0  0  0  0  0  3  0  0  0  0  0  0
  161.5750  203.6320  148.7480 C   0  0  0  0  0  3  0  0  0  0  0  0
  1  5  1  0  0  0  0
  2  5  1  0  0  0  0
  3  7  1  0  0  0  0
  3  4  1  0  0  0  0
  4 26  1  1  0  0  0
  4  1  1  0  0  0  0
  5  9  1  1  0  0  0
  6  3  2  0  0  0  0
  7  8  1  0  0  0  0
  8  2  1  0  0  0  0
  9 10  1  0  0  0  0
  9 20  1  1  0  0  0
 12 18  1  0  0  0  0
 12 17  1  0  0  0  0
 13 18  1  0  0  0  0
 15 14  1  1  0  0  0
 16 15  1  0  0  0  0
 16 11  1  1  0  0  0
 17 10  1  1  0  0  0
 17 16  1  0  0  0  0
 18 19  2  0  0  0  0
 19 15  1  0  0  0  0
 20 21  1  0  0  0  0
 22 21  1  0  0  0  0
 23 24  2  0  0  0  0
 24 22  1  0  0  0  0
 25 24  1  0  0  0  0
 26 35  1  0  0  0  0
 27 33  1  0  0  0  0
 27 35  2  0  0  0  0
 29 31  2  0  0  0  0
 30 33  2  0  0  0  0
 31 30  1  0  0  0  0
 32 31  1  0  0  0  0
 32 34  2  0  0  0  0
 33 28  1  0  0  0  0
 34 27  1  0  0  0  0
M  END
>  <MODEL>
2

>  <REMARK>
 VINA RESULT:      -6.7      1.253      1.936
  Name = 
  9 active torsions:
  status: ('A' for Active; 'I' for Inactive)
    1  A    between atoms: N_6  and  C_23
    2  A    between atoms: N_6  and  C_24
    3  A    between atoms: C_10  and  O_30
    4  A    between atoms: C_15  and  O_35
    5  A    between atoms: C_16  and  C_24
    6  A    between atoms: C_22  and  C_24
    7  A    between atoms: C_22  and  C_28
    8  A    between atoms: C_28  and  O_30
    9  A    between atoms: C_34  and  O_35
                            x       y       z     vdW  Elec       q    Type
                         _______ _______ _______ _____ _____    ______ ____

>  <TORSDO>
F 9

$$$$
=
 OpenBabel11072411263D

 35 37  0  0  1  0  0  0  0  0999 V2000
  162.3440  209.1650  151.5710 C   0  0  0  0  0  2  0  0  0  0  0  0
  161.0700  208.9790  153.5970 O   0  0  0  0  0  0  0  0  0  0  0  0
  162.3840  206.7150  152.1470 C   0  0  0  0  0  0  0  0  0  0  0  0
  162.2710  207.7270  151.0450 C   0  0  1  0  0  3  0  0  0  0  0  0
  161.0660  209.5640  152.3240 C   0  0  1  0  0  3  0  0  0  0  0  0
  163.2760  205.8310  152.0680 O   0  0  0  0  0  0  0  0  0  0  0  0
  161.4860  206.7080  153.2630 N   0  0  0  0  0  2  0  0  0  0  0  0
  160.4610  207.7280  153.4470 C   0  0  0  0  0  2  0  0  0  0  0  0
  160.9520  211.0840  152.4610 C   0  0  2  0  0  3  0  0  0  0  0  0
  160.4790  211.4240  153.7970 N   0  0  0  0  0  2  0  0  0  0  0  0
  159.0070  210.7250  156.0750 C   0  0  0  0  0  1  0  0  0  0  0  0
  158.8000  213.2060  153.8100 C   0  0  0  0  0  2  0  0  0  0  0  0
  156.8930  214.4530  152.7370 N   0  0  0  0  0  1  0  0  0  0  0  0
  155.6090  210.3380  155.2250 Cl  0  0  0  0  0  0  0  0  0  0  0  0
  156.8820  211.5750  155.1160 C   0  0  1  0  0  3  0  0  0  0  0  0
  158.2380  210.9230  154.7770 C   0  0  1  0  0  3  0  0  0  0  0  0
  159.0510  211.7060  153.7180 C   0  0  2  0  0  3  0  0  0  0  0  0
  157.3410  213.4270  153.6160 C   0  0  0  0  0  0  0  0  0  0  0  0
  156.4820  212.6310  154.1790 N   0  0  0  0  0  0  0  0  0  0  0  0
  159.9770  211.6520  151.4400 C   0  0  0  0  0  2  0  0  0  0  0  0
  160.7140  212.5590  150.4750 C   0  0  0  0  0  2  0  0  0  0  0  0
  161.4930  211.7740  149.5870 O   0  0  0  0  0  0  0  0  0  0  0  0
  160.7940  212.1230  147.4150 O   0  0  0  0  0  0  0  0  0  0  0  0
  161.7170  212.1640  148.2680 C   0  0  0  0  0  0  0  0  0  0  0  0
  163.0610  212.6510  147.8690 C   0  0  0  0  0  1  0  0  0  0  0  0
  161.0760  207.5100  150.3070 O   0  0  0  0  0  0  0  0  0  0  0  0
  161.0970  205.7270  148.7360 C   0  0  0  0  0  0  0  0  0  0  0  0
  161.2830  206.1460  146.1800 C   0  0  0  0  0  1  0  0  0  0  0  0
  161.0680  201.7280  148.0400 O   0  0  0  0  0  0  0  0  0  0  0  0
  161.1990  203.9070  147.1240 C   0  0  0  0  0  3  0  0  0  0  0  0
  161.1130  202.9670  148.2540 C   0  0  0  0  0  0  0  0  0  0  0  0
  161.0400  203.4710  149.5960 N   0  0  0  0  0  0  0  0  0  0  0  0
  161.1860  205.2200  147.3460 C   0  0  0  0  0  0  0  0  0  0  0  0
  161.0230  204.7460  149.8390 C   0  0  0  0  0  3  0  0  0  0  0  0
  161.1170  207.0360  148.9990 C   0  0  0  0  0  3  0  0  0  0  0  0
  1  5  1  0  0  0  0
  3  7  1  0  0  0  0
  4 26  1  1  0  0  0
  4  1  1  0  0  0  0
  4  3  1  0  0  0  0
  5  9  1  1  0  0  0
  5  2  1  0  0  0  0
  6  3  2  0  0  0  0
  7  8  1  0  0  0  0
  8  2  1  0  0  0  0
  9 20  1  6  0  0  0
  9 10  1  0  0  0  0
 13 18  1  0  0  0  0
 15 14  1  6  0  0  0
 16 15  1  0  0  0  0
 16 11  1  1  0  0  0
 17 10  1  1  0  0  0
 17 12  1  0  0  0  0
 17 16  1  0  0  0  0
 18 12  1  0  0  0  0
 18 19  2  0  0  0  0
 19 15  1  0  0  0  0
 21 20  1  0  0  0  0
 22 21  1  0  0  0  0
 23 24  2  0  0  0  0
 24 22  1  0  0  0  0
 25 24  1  0  0  0  0
 27 35  2  0  0  0  0
 27 34  1  0  0  0  0
 28 33  1  0  0  0  0
 29 31  2  0  0  0  0
 30 33  2  0  0  0  0
 30 31  1  0  0  0  0
 31 32  1  0  0  0  0
 32 34  2  0  0  0  0
 33 27  1  0  0  0  0
 35 26  1  0  0  0  0
M  END
>  <MODEL>
3

>  <REMARK>
 VINA RESULT:      -6.5      2.362      4.876
  Name = 
  9 active torsions:
  status: ('A' for Active; 'I' for Inactive)
    1  A    between atoms: N_6  and  C_23
    2  A    between atoms: N_6  and  C_24
    3  A    between atoms: C_10  and  O_30
    4  A    between atoms: C_15  and  O_35
    5  A    between atoms: C_16  and  C_24
    6  A    between atoms: C_22  and  C_24
    7  A    between atoms: C_22  and  C_28
    8  A    between atoms: C_28  and  O_30
    9  A    between atoms: C_34  and  O_35
                            x       y       z     vdW  Elec       q    Type
                         _______ _______ _______ _____ _____    ______ ____

>  <TORSDO>
F 9

$$$$
=
 OpenBabel11072411263D

 35 37  0  0  1  0  0  0  0  0999 V2000
  162.2210  209.4340  151.6520 C   0  0  0  0  0  2  0  0  0  0  0  0
  160.9140  209.1150  153.6400 O   0  0  0  0  0  0  0  0  0  0  0  0
  162.3640  206.9690  152.1420 C   0  0  0  0  0  0  0  0  0  0  0  0
  162.2280  208.0140  151.0740 C   0  0  1  0  0  3  0  0  0  0  0  0
  160.9100  209.7460  152.3890 C   0  0  1  0  0  3  0  0  0  0  0  0
  163.2990  206.1310  152.0530 O   0  0  0  0  0  0  0  0  0  0  0  0
  161.4440  206.8800  153.2360 N   0  0  0  0  0  2  0  0  0  0  0  0
  160.3690  207.8440  153.4320 C   0  0  0  0  0  2  0  0  0  0  0  0
  160.7210  211.2530  152.5770 C   0  0  2  0  0  3  0  0  0  0  0  0
  160.2460  211.5250  153.9280 N   0  0  0  0  0  2  0  0  0  0  0  0
  158.8220  210.6800  156.1860 C   0  0  0  0  0  1  0  0  0  0  0  0
  158.5000  213.2380  154.0220 C   0  0  0  0  0  2  0  0  0  0  0  0
  156.5370  214.4490  153.0110 N   0  0  0  0  0  1  0  0  0  0  0  0
  155.4340  210.1930  155.3440 Cl  0  0  0  0  0  0  0  0  0  0  0  0
  156.6570  211.4830  155.2750 C   0  0  1  0  0  3  0  0  0  0  0  0
  158.0350  210.8980  154.9020 C   0  0  1  0  0  3  0  0  0  0  0  0
  158.8080  211.7530  153.8690 C   0  0  2  0  0  3  0  0  0  0  0  0
  157.0310  213.4090  153.8470 C   0  0  0  0  0  0  0  0  0  0  0  0
  156.2090  212.5580  154.3830 N   0  0  0  0  0  0  0  0  0  0  0  0
  159.7070  211.8040  151.5840 C   0  0  0  0  0  2  0  0  0  0  0  0
  160.1620  213.1600  151.0850 C   0  0  0  0  0  2  0  0  0  0  0  0
  159.0510  213.8680  150.5560 O   0  0  0  0  0  0  0  0  0  0  0  0
  158.9490  213.0940  148.3840 O   0  0  0  0  0  0  0  0  0  0  0  0
  158.3490  213.4050  149.4450 C   0  0  0  0  0  0  0  0  0  0  0  0
  156.8740  213.2640  149.5200 C   0  0  0  0  0  1  0  0  0  0  0  0
  161.0610  207.7690  150.3010 O   0  0  0  0  0  0  0  0  0  0  0  0
  161.1080  205.9320  148.7950 C   0  0  0  0  0  0  0  0  0  0  0  0
  161.4220  206.2550  146.2380 C   0  0  0  0  0  1  0  0  0  0  0  0
  161.0090  201.9120  148.2360 O   0  0  0  0  0  0  0  0  0  0  0  0
  161.2380  204.0540  147.2530 C   0  0  0  0  0  3  0  0  0  0  0  0
  161.0760  203.1570  148.4090 C   0  0  0  0  0  0  0  0  0  0  0  0
  160.9540  203.7100  149.7290 N   0  0  0  0  0  0  0  0  0  0  0  0
  161.2480  205.3740  147.4290 C   0  0  0  0  0  0  0  0  0  0  0  0
  160.9580  204.9920  149.9270 C   0  0  0  0  0  3  0  0  0  0  0  0
  161.1500  207.2490  149.0140 C   0  0  0  0  0  3  0  0  0  0  0  0
  1  5  1  0  0  0  0
  3  7  1  0  0  0  0
  4 26  1  1  0  0  0
  4  1  1  0  0  0  0
  4  3  1  0  0  0  0
  5  9  1  1  0  0  0
  5  2  1  0  0  0  0
  6  3  2  0  0  0  0
  7  8  1  0  0  0  0
  8  2  1  0  0  0  0
  9 20  1  6  0  0  0
  9 10  1  0  0  0  0
 13 18  1  0  0  0  0
 15 14  1  6  0  0  0
 16 15  1  0  0  0  0
 16 11  1  1  0  0  0
 17 10  1  1  0  0  0
 17 12  1  0  0  0  0
 17 16  1  0  0  0  0
 18 12  1  0  0  0  0
 18 19  2  0  0  0  0
 19 15  1  0  0  0  0
 21 20  1  0  0  0  0
 22 21  1  0  0  0  0
 23 24  2  0  0  0  0
 24 25  1  0  0  0  0
 24 22  1  0  0  0  0
 27 35  2  0  0  0  0
 27 34  1  0  0  0  0
 28 33  1  0  0  0  0
 29 31  2  0  0  0  0
 30 33  2  0  0  0  0
 30 31  1  0  0  0  0
 31 32  1  0  0  0  0
 32 34  2  0  0  0  0
 33 27  1  0  0  0  0
 35 26  1  0  0  0  0
M  END
>  <MODEL>
4

>  <REMARK>
 VINA RESULT:      -6.2      2.563      4.965
  Name = 
  9 active torsions:
  status: ('A' for Active; 'I' for Inactive)
    1  A    between atoms: N_6  and  C_23
    2  A    between atoms: N_6  and  C_24
    3  A    between atoms: C_10  and  O_30
    4  A    between atoms: C_15  and  O_35
    5  A    between atoms: C_16  and  C_24
    6  A    between atoms: C_22  and  C_24
    7  A    between atoms: C_22  and  C_28
    8  A    between atoms: C_28  and  O_30
    9  A    between atoms: C_34  and  O_35
                            x       y       z     vdW  Elec       q    Type
                         _______ _______ _______ _____ _____    ______ ____

>  <TORSDO>
F 9

$$$$
=
 OpenBabel11072411263D

 35 37  0  0  1  0  0  0  0  0999 V2000
  162.7060  207.1360  151.3980 C   0  0  0  0  0  2  0  0  0  0  0  0
  161.2770  207.2870  153.3210 O   0  0  0  0  0  0  0  0  0  0  0  0
  161.9650  204.7730  151.8520 C   0  0  0  0  0  0  0  0  0  0  0  0
  162.2490  205.8020  150.7970 C   0  0  1  0  0  3  0  0  0  0  0  0
  161.5510  207.8820  152.0820 C   0  0  1  0  0  3  0  0  0  0  0  0
  162.5560  203.6630  151.7890 O   0  0  0  0  0  0  0  0  0  0  0  0
  161.0200  205.0080  152.9020 N   0  0  0  0  0  2  0  0  0  0  0  0
  160.3370  206.2840  153.0670 C   0  0  0  0  0  2  0  0  0  0  0  0
  161.8860  209.3610  152.2870 C   0  0  2  0  0  3  0  0  0  0  0  0
  160.6570  210.1210  152.4830 N   0  0  0  0  0  2  0  0  0  0  0  0
  158.3450  211.4560  153.3280 C   0  0  0  0  0  1  0  0  0  0  0  0
  161.0070  210.1340  154.9070 C   0  0  0  0  0  2  0  0  0  0  0  0
  162.3430  210.7790  156.9420 N   0  0  0  0  0  1  0  0  0  0  0  0
  159.2310  214.2750  155.2480 Cl  0  0  0  0  0  0  0  0  0  0  0  0
  159.5080  212.5180  155.2460 C   0  0  1  0  0  3  0  0  0  0  0  0
  159.6830  212.0030  153.8020 C   0  0  1  0  0  3  0  0  0  0  0  0
  160.8320  210.9780  153.6500 C   0  0  2  0  0  3  0  0  0  0  0  0
  161.2860  211.0660  156.0340 C   0  0  0  0  0  0  0  0  0  0  0  0
  160.6250  212.1800  156.1350 N   0  0  0  0  0  0  0  0  0  0  0  0
  162.6220  209.9260  151.0810 C   0  0  0  0  0  2  0  0  0  0  0  0
  161.6240  210.4760  150.0820 C   0  0  0  0  0  2  0  0  0  0  0  0
  162.2860  210.7610  148.8590 O   0  0  0  0  0  0  0  0  0  0  0  0
  163.4590  212.4920  147.8800 O   0  0  0  0  0  0  0  0  0  0  0  0
  162.3790  212.0590  148.3620 C   0  0  0  0  0  0  0  0  0  0  0  0
  161.1850  212.9390  148.3870 C   0  0  0  0  0  1  0  0  0  0  0  0
  161.1070  205.9770  149.9690 O   0  0  0  0  0  0  0  0  0  0  0  0
  161.1170  204.7200  147.9530 C   0  0  0  0  0  0  0  0  0  0  0  0
  161.5060  205.8320  145.6390 C   0  0  0  0  0  1  0  0  0  0  0  0
  160.8700  201.1010  146.1300 O   0  0  0  0  0  0  0  0  0  0  0  0
  161.2090  203.4320  145.8900 C   0  0  0  0  0  3  0  0  0  0  0  0
  160.9830  202.2200  146.6950 C   0  0  0  0  0  0  0  0  0  0  0  0
  160.8510  202.3250  148.1200 N   0  0  0  0  0  0  0  0  0  0  0  0
  161.2680  204.6240  146.4810 C   0  0  0  0  0  0  0  0  0  0  0  0
  160.9020  203.4750  148.7210 C   0  0  0  0  0  3  0  0  0  0  0  0
  161.2060  205.8930  148.5840 C   0  0  0  0  0  3  0  0  0  0  0  0
  1  5  1  0  0  0  0
  3  7  1  0  0  0  0
  4 26  1  1  0  0  0
  4  1  1  0  0  0  0
  4  3  1  0  0  0  0
  5  9  1  1  0  0  0
  5  2  1  0  0  0  0
  6  3  2  0  0  0  0
  7  8  1  0  0  0  0
  8  2  1  0  0  0  0
  9 20  1  6  0  0  0
  9 10  1  0  0  0  0
 12 18  1  0  0  0  0
 15 14  1  6  0  0  0
 15 19  1  0  0  0  0
 16 11  1  1  0  0  0
 16 15  1  0  0  0  0
 17 10  1  6  0  0  0
 17 16  1  0  0  0  0
 17 12  1  0  0  0  0
 18 19  2  0  0  0  0
 18 13  1  0  0  0  0
 21 20  1  0  0  0  0
 22 21  1  0  0  0  0
 23 24  2  0  0  0  0
 24 25  1  0  0  0  0
 24 22  1  0  0  0  0
 27 35  2  0  0  0  0
 27 34  1  0  0  0  0
 28 33  1  0  0  0  0
 29 31  2  0  0  0  0
 30 33  2  0  0  0  0
 30 31  1  0  0  0  0
 31 32  1  0  0  0  0
 32 34  2  0  0  0  0
 33 27  1  0  0  0  0
 35 26  1  0  0  0  0
M  END
>  <MODEL>
5

>  <REMARK>
 VINA RESULT:      -6.2      2.382      4.745
  Name = 
  9 active torsions:
  status: ('A' for Active; 'I' for Inactive)
    1  A    between atoms: N_6  and  C_23
    2  A    between atoms: N_6  and  C_24
    3  A    between atoms: C_10  and  O_30
    4  A    between atoms: C_15  and  O_35
    5  A    between atoms: C_16  and  C_24
    6  A    between atoms: C_22  and  C_24
    7  A    between atoms: C_22  and  C_28
    8  A    between atoms: C_28  and  O_30
    9  A    between atoms: C_34  and  O_35
                            x       y       z     vdW  Elec       q    Type
                         _______ _______ _______ _____ _____    ______ ____

>  <TORSDO>
F 9

$$$$
=
 OpenBabel11072411263D

 35 37  0  0  1  0  0  0  0  0999 V2000
  160.5990  207.3510  150.1560 C   0  0  0  0  0  2  0  0  0  0  0  0
  162.3290  208.6890  149.1670 O   0  0  0  0  0  0  0  0  0  0  0  0
  160.7630  206.5540  147.7730 C   0  0  0  0  0  0  0  0  0  0  0  0
  160.5790  206.1480  149.2060 C   0  0  1  0  0  3  0  0  0  0  0  0
  162.0090  207.9380  150.3070 C   0  0  1  0  0  3  0  0  0  0  0  0
  159.9010  206.1980  146.9270 O   0  0  0  0  0  0  0  0  0  0  0  0
  161.9050  207.3030  147.3400 N   0  0  0  0  0  2  0  0  0  0  0  0
  162.9160  207.7920  148.2690 C   0  0  0  0  0  2  0  0  0  0  0  0
  162.1140  208.8250  151.5490 C   0  0  2  0  0  3  0  0  0  0  0  0
  160.7980  208.9820  152.1540 N   0  0  0  0  0  2  0  0  0  0  0  0
  158.9390  210.8610  153.0780 C   0  0  0  0  0  1  0  0  0  0  0  0
  160.5690  208.2760  154.4880 C   0  0  0  0  0  2  0  0  0  0  0  0
  161.5410  207.8450  156.7700 N   0  0  0  0  0  1  0  0  0  0  0  0
  160.2550  212.5670  155.8670 Cl  0  0  0  0  0  0  0  0  0  0  0  0
  159.9190  210.8960  155.3580 C   0  0  1  0  0  3  0  0  0  0  0  0
  160.2360  210.7170  153.8590 C   0  0  1  0  0  3  0  0  0  0  0  0
  160.9780  209.3970  153.5400 C   0  0  2  0  0  3  0  0  0  0  0  0
  160.8790  208.7270  155.8720 C   0  0  0  0  0  0  0  0  0  0  0  0
  160.6240  209.9500  156.2300 N   0  0  0  0  0  0  0  0  0  0  0  0
  162.6540  210.2030  151.1930 C   0  0  0  0  0  2  0  0  0  0  0  0
  161.5840  211.0050  150.4800 C   0  0  0  0  0  2  0  0  0  0  0  0
  162.1510  211.6540  149.3520 O   0  0  0  0  0  0  0  0  0  0  0  0
  161.4650  212.4430  147.2940 O   0  0  0  0  0  0  0  0  0  0  0  0
  161.4030  212.5130  148.5490 C   0  0  0  0  0  0  0  0  0  0  0  0
  160.5090  213.5130  149.1820 C   0  0  0  0  0  1  0  0  0  0  0  0
  161.5650  205.1900  149.5700 O   0  0  0  0  0  0  0  0  0  0  0  0
  161.1460  203.0030  148.7430 C   0  0  0  0  0  0  0  0  0  0  0  0
  160.4340  201.0540  150.3040 C   0  0  0  0  0  1  0  0  0  0  0  0
  160.8830  200.4980  145.5590 O   0  0  0  0  0  0  0  0  0  0  0  0
  160.6370  200.7780  147.8970 C   0  0  0  0  0  3  0  0  0  0  0  0
  160.9290  201.2800  146.5440 C   0  0  0  0  0  0  0  0  0  0  0  0
  161.3040  202.6530  146.3590 N   0  0  0  0  0  0  0  0  0  0  0  0
  160.7440  201.5910  148.9470 C   0  0  0  0  0  0  0  0  0  0  0  0
  161.4190  203.4640  147.3650 C   0  0  0  0  0  3  0  0  0  0  0  0
  161.2290  203.8550  149.7680 C   0  0  0  0  0  3  0  0  0  0  0  0
  1  5  1  0  0  0  0
  2  5  1  0  0  0  0
  3  4  1  0  0  0  0
  4 26  1  1  0  0  0
  4  1  1  0  0  0  0
  5  9  1  1  0  0  0
  6  3  2  0  0  0  0
  7  3  1  0  0  0  0
  7  8  1  0  0  0  0
  8  2  1  0  0  0  0
  9 20  1  6  0  0  0
  9 10  1  0  0  0  0
 12 18  1  0  0  0  0
 15 14  1  1  0  0  0
 15 19  1  0  0  0  0
 16 11  1  6  0  0  0
 16 15  1  0  0  0  0
 17 10  1  6  0  0  0
 17 16  1  0  0  0  0
 17 12  1  0  0  0  0
 18 19  2  0  0  0  0
 18 13  1  0  0  0  0
 21 20  1  0  0  0  0
 22 21  1  0  0  0  0
 23 24  2  0  0  0  0
 24 25  1  0  0  0  0
 24 22  1  0  0  0  0
 26 35  1  0  0  0  0
 27 33  1  0  0  0  0
 27 35  2  0  0  0  0
 29 31  2  0  0  0  0
 30 33  2  0  0  0  0
 31 30  1  0  0  0  0
 32 31  1  0  0  0  0
 32 34  2  0  0  0  0
 33 28  1  0  0  0  0
 34 27  1  0  0  0  0
M  END
>  <MODEL>
6

>  <REMARK>
 VINA RESULT:      -6.0      2.143      3.944
  Name = 
  9 active torsions:
  status: ('A' for Active; 'I' for Inactive)
    1  A    between atoms: N_6  and  C_23
    2  A    between atoms: N_6  and  C_24
    3  A    between atoms: C_10  and  O_30
    4  A    between atoms: C_15  and  O_35
    5  A    between atoms: C_16  and  C_24
    6  A    between atoms: C_22  and  C_24
    7  A    between atoms: C_22  and  C_28
    8  A    between atoms: C_28  and  O_30
    9  A    between atoms: C_34  and  O_35
                            x       y       z     vdW  Elec       q    Type
                         _______ _______ _______ _____ _____    ______ ____

>  <TORSDO>
F 9

$$$$
=
 OpenBabel11072411263D

 35 37  0  0  1  0  0  0  0  0999 V2000
  159.6900  209.9320  152.9890 C   0  0  0  0  0  2  0  0  0  0  0  0
  161.9070  209.5440  153.8240 O   0  0  0  0  0  0  0  0  0  0  0  0
  159.7170  210.9670  155.2840 C   0  0  0  0  0  0  0  0  0  0  0  0
  159.2480  211.1100  153.8660 C   0  0  1  0  0  3  0  0  0  0  0  0
  161.1970  209.9720  152.6940 C   0  0  1  0  0  3  0  0  0  0  0  0
  158.8670  211.0180  156.2110 O   0  0  0  0  0  0  0  0  0  0  0  0
  161.1030  210.8090  155.6100 N   0  0  0  0  0  2  0  0  0  0  0  0
  162.1370  210.6920  154.5900 C   0  0  0  0  0  2  0  0  0  0  0  0
  161.5540  209.0850  151.4990 C   0  0  2  0  0  3  0  0  0  0  0  0
  162.3410  207.9440  151.9510 N   0  0  0  0  0  2  0  0  0  0  0  0
  161.0800  205.8240  153.2770 C   0  0  0  0  0  1  0  0  0  0  0  0
  160.8460  207.1390  150.1870 C   0  0  0  0  0  2  0  0  0  0  0  0
  160.4520  206.1780  147.8930 N   0  0  0  0  0  1  0  0  0  0  0  0
  161.5050  202.8480  151.4390 Cl  0  0  0  0  0  0  0  0  0  0  0  0
  160.8620  204.4880  151.1970 C   0  0  1  0  0  3  0  0  0  0  0  0
  161.7340  205.5230  151.9370 C   0  0  1  0  0  3  0  0  0  0  0  0
  162.0110  206.8000  151.1090 C   0  0  2  0  0  3  0  0  0  0  0  0
  160.6350  205.9710  149.2890 C   0  0  0  0  0  0  0  0  0  0  0  0
  160.7040  204.7640  149.7640 N   0  0  0  0  0  0  0  0  0  0  0  0
  162.3630  209.8580  150.4680 C   0  0  0  0  0  2  0  0  0  0  0  0
  161.6730  211.1690  150.1510 C   0  0  0  0  0  2  0  0  0  0  0  0
  162.3070  211.7820  149.0390 O   0  0  0  0  0  0  0  0  0  0  0  0
  162.5270  213.9180  148.1930 O   0  0  0  0  0  0  0  0  0  0  0  0
  161.7890  212.9290  148.4420 C   0  0  0  0  0  0  0  0  0  0  0  0
  160.3520  212.9800  148.0800 C   0  0  0  0  0  1  0  0  0  0  0  0
  159.6970  212.3470  153.3280 O   0  0  0  0  0  0  0  0  0  0  0  0
  157.6920  213.3950  152.6020 C   0  0  0  0  0  0  0  0  0  0  0  0
  157.4440  214.3890  150.2160 C   0  0  0  0  0  1  0  0  0  0  0  0
  153.8550  214.4530  153.4000 O   0  0  0  0  0  0  0  0  0  0  0  0
  155.6180  214.3990  151.8200 C   0  0  0  0  0  3  0  0  0  0  0  0
  155.0320  214.0950  153.1370 C   0  0  0  0  0  0  0  0  0  0  0  0
  155.8220  213.4250  154.1300 N   0  0  0  0  0  0  0  0  0  0  0  0
  156.8830  214.0740  151.5620 C   0  0  0  0  0  0  0  0  0  0  0  0
  157.0590  213.1000  153.9050 C   0  0  0  0  0  3  0  0  0  0  0  0
  158.9530  213.0220  152.3660 C   0  0  0  0  0  3  0  0  0  0  0  0
  1  4  1  0  0  0  0
  2  8  1  0  0  0  0
  3  7  1  0  0  0  0
  3  6  2  0  0  0  0
  4 26  1  6  0  0  0
  4  3  1  0  0  0  0
  5  9  1  6  0  0  0
  5  1  1  0  0  0  0
  5  2  1  0  0  0  0
  8  7  1  0  0  0  0
  9 20  1  6  0  0  0
  9 10  1  0  0  0  0
 12 17  1  0  0  0  0
 13 18  1  0  0  0  0
 15 14  1  6  0  0  0
 15 16  1  0  0  0  0
 16 11  1  1  0  0  0
 17 16  1  0  0  0  0
 17 10  1  1  0  0  0
 18 19  2  0  0  0  0
 18 12  1  0  0  0  0
 19 15  1  0  0  0  0
 21 20  1  0  0  0  0
 22 21  1  0  0  0  0
 23 24  2  0  0  0  0
 24 22  1  0  0  0  0
 25 24  1  0  0  0  0
 27 34  1  0  0  0  0
 28 33  1  0  0  0  0
 30 31  1  0  0  0  0
 31 29  2  0  0  0  0
 31 32  1  0  0  0  0
 33 30  2  0  0  0  0
 33 27  1  0  0  0  0
 34 32  2  0  0  0  0
 35 27  2  0  0  0  0
 35 26  1  0  0  0  0
M  END
>  <MODEL>
7

>  <REMARK>
 VINA RESULT:      -6.0      4.088      9.524
  Name = 
  9 active torsions:
  status: ('A' for Active; 'I' for Inactive)
    1  A    between atoms: N_6  and  C_23
    2  A    between atoms: N_6  and  C_24
    3  A    between atoms: C_10  and  O_30
    4  A    between atoms: C_15  and  O_35
    5  A    between atoms: C_16  and  C_24
    6  A    between atoms: C_22  and  C_24
    7  A    between atoms: C_22  and  C_28
    8  A    between atoms: C_28  and  O_30
    9  A    between atoms: C_34  and  O_35
                            x       y       z     vdW  Elec       q    Type
                         _______ _______ _______ _____ _____    ______ ____

>  <TORSDO>
F 9

$$$$
=
 OpenBabel11072411263D

 35 37  0  0  1  0  0  0  0  0999 V2000
  162.6120  208.6750  151.3690 C   0  0  0  0  0  2  0  0  0  0  0  0
  162.3020  207.7170  149.1900 O   0  0  0  0  0  0  0  0  0  0  0  0
  162.2590  210.6390  149.8340 C   0  0  0  0  0  0  0  0  0  0  0  0
  161.9600  210.0500  151.1810 C   0  0  1  0  0  3  0  0  0  0  0  0
  161.9170  207.5920  150.5310 C   0  0  1  0  0  3  0  0  0  0  0  0
  162.7770  211.7850  149.7750 O   0  0  0  0  0  0  0  0  0  0  0  0
  161.9420  209.9500  148.6190 N   0  0  0  0  0  2  0  0  0  0  0  0
  161.3880  208.6020  148.6090 C   0  0  0  0  0  2  0  0  0  0  0  0
  162.2640  206.1890  151.0350 C   0  0  2  0  0  3  0  0  0  0  0  0
  161.1440  205.2890  150.7940 N   0  0  0  0  0  2  0  0  0  0  0  0
  159.8070  202.8300  150.6960 C   0  0  0  0  0  1  0  0  0  0  0  0
  160.8400  205.0400  148.3770 C   0  0  0  0  0  2  0  0  0  0  0  0
  161.7650  204.8360  146.0440 N   0  0  0  0  0  1  0  0  0  0  0  0
  161.5810  200.5900  148.6340 Cl  0  0  0  0  0  0  0  0  0  0  0  0
  160.8480  202.2080  148.5310 C   0  0  1  0  0  3  0  0  0  0  0  0
  161.0620  202.9790  149.8500 C   0  0  1  0  0  3  0  0  0  0  0  0
  161.4650  204.4580  149.6400 C   0  0  2  0  0  3  0  0  0  0  0  0
  161.2950  204.2070  147.2300 C   0  0  0  0  0  0  0  0  0  0  0  0
  161.3440  202.9140  147.3450 N   0  0  0  0  0  0  0  0  0  0  0  0
  162.5670  206.2040  152.5260 C   0  0  0  0  0  2  0  0  0  0  0  0
  161.3540  205.7310  153.3010 C   0  0  0  0  0  2  0  0  0  0  0  0
  160.5890  206.8510  153.7160 O   0  0  0  0  0  0  0  0  0  0  0  0
  161.5980  208.2010  155.2940 O   0  0  0  0  0  0  0  0  0  0  0  0
  160.6950  207.3740  155.0030 C   0  0  0  0  0  0  0  0  0  0  0  0
  159.7190  206.9620  156.0410 C   0  0  0  0  0  1  0  0  0  0  0  0
  160.5550  209.9830  151.3800 O   0  0  0  0  0  0  0  0  0  0  0  0
  159.1850  211.2040  152.8890 C   0  0  0  0  0  0  0  0  0  0  0  0
  158.9370  210.5240  155.3830 C   0  0  0  0  0  1  0  0  0  0  0  0
  156.7490  214.3830  153.5540 O   0  0  0  0  0  0  0  0  0  0  0  0
  157.8480  212.4940  154.4620 C   0  0  0  0  0  3  0  0  0  0  0  0
  157.5320  213.4180  153.3600 C   0  0  0  0  0  0  0  0  0  0  0  0
  158.0880  213.1880  152.0560 N   0  0  0  0  0  0  0  0  0  0  0  0
  158.6290  211.4370  154.2430 C   0  0  0  0  0  0  0  0  0  0  0  0
  158.8490  212.1640  151.8160 C   0  0  0  0  0  3  0  0  0  0  0  0
  160.0000  210.1760  152.6410 C   0  0  0  0  0  3  0  0  0  0  0  0
  2  5  1  0  0  0  0
  3  4  1  0  0  0  0
  4  1  1  0  0  0  0
  4 26  1  6  0  0  0
  5  9  1  1  0  0  0
  5  1  1  0  0  0  0
  6  3  2  0  0  0  0
  7  3  1  0  0  0  0
  8  7  1  0  0  0  0
  8  2  1  0  0  0  0
  9 20  1  1  0  0  0
 10  9  1  0  0  0  0
 12 17  1  0  0  0  0
 13 18  1  0  0  0  0
 15 14  1  1  0  0  0
 15 16  1  0  0  0  0
 16 11  1  1  0  0  0
 17 16  1  0  0  0  0
 17 10  1  1  0  0  0
 18 19  2  0  0  0  0
 18 12  1  0  0  0  0
 19 15  1  0  0  0  0
 20 21  1  0  0  0  0
 21 22  1  0  0  0  0
 22 24  1  0  0  0  0
 24 23  2  0  0  0  0
 24 25  1  0  0  0  0
 26 35  1  0  0  0  0
 27 33  1  0  0  0  0
 31 29  2  0  0  0  0
 31 30  1  0  0  0  0
 32 31  1  0  0  0  0
 33 30  2  0  0  0  0
 33 28  1  0  0  0  0
 34 32  2  0  0  0  0
 34 27  1  0  0  0  0
 35 27  2  0  0  0  0
M  END
>  <MODEL>
8

>  <REMARK>
 VINA RESULT:      -6.0      3.189      8.367
  Name = 
  9 active torsions:
  status: ('A' for Active; 'I' for Inactive)
    1  A    between atoms: N_6  and  C_23
    2  A    between atoms: N_6  and  C_24
    3  A    between atoms: C_10  and  O_30
    4  A    between atoms: C_15  and  O_35
    5  A    between atoms: C_16  and  C_24
    6  A    between atoms: C_22  and  C_24
    7  A    between atoms: C_22  and  C_28
    8  A    between atoms: C_28  and  O_30
    9  A    between atoms: C_34  and  O_35
                            x       y       z     vdW  Elec       q    Type
                         _______ _______ _______ _____ _____    ______ ____

>  <TORSDO>
F 9

$$$$
=
 OpenBabel11072411263D

 35 37  0  0  1  0  0  0  0  0999 V2000
  162.1040  209.3770  151.3830 C   0  0  0  0  0  2  0  0  0  0  0  0
  160.8560  208.7960  153.3510 O   0  0  0  0  0  0  0  0  0  0  0  0
  162.5430  206.9240  151.7380 C   0  0  0  0  0  0  0  0  0  0  0  0
  162.2770  208.0010  150.7290 C   0  0  1  0  0  3  0  0  0  0  0  0
  160.7690  209.4890  152.1360 C   0  0  1  0  0  3  0  0  0  0  0  0
  163.5710  206.2090  151.6040 O   0  0  0  0  0  0  0  0  0  0  0  0
  161.6460  206.6660  152.8250 N   0  0  0  0  0  2  0  0  0  0  0  0
  160.4650  207.4830  153.0720 C   0  0  0  0  0  2  0  0  0  0  0  0
  160.4030  210.9500  152.4050 C   0  0  2  0  0  3  0  0  0  0  0  0
  161.1450  211.8190  151.5000 N   0  0  0  0  0  2  0  0  0  0  0  0
  159.6860  214.1930  151.7830 C   0  0  0  0  0  1  0  0  0  0  0  0
  161.1150  212.6050  149.1810 C   0  0  0  0  0  2  0  0  0  0  0  0
  160.5080  212.3060  146.7560 N   0  0  0  0  0  1  0  0  0  0  0  0
  156.8880  214.1330  149.6410 Cl  0  0  0  0  0  0  0  0  0  0  0  0
  158.6560  213.9740  149.5350 C   0  0  1  0  0  3  0  0  0  0  0  0
  159.1990  213.1900  150.7480 C   0  0  1  0  0  3  0  0  0  0  0  0
  160.2810  212.1490  150.3730 C   0  0  2  0  0  3  0  0  0  0  0  0
  160.1820  212.8200  148.0410 C   0  0  0  0  0  0  0  0  0  0  0  0
  159.0350  213.3990  148.2400 N   0  0  0  0  0  0  0  0  0  0  0  0
  160.7350  211.3410  153.8380 C   0  0  0  0  0  2  0  0  0  0  0  0
  159.5200  211.9640  154.4950 C   0  0  0  0  0  2  0  0  0  0  0  0
  158.3440  211.5200  153.8370 O   0  0  0  0  0  0  0  0  0  0  0  0
  156.4360  211.0050  155.0290 O   0  0  0  0  0  0  0  0  0  0  0  0
  157.0740  211.8260  154.3200 C   0  0  0  0  0  0  0  0  0  0  0  0
  156.4710  213.1450  154.0070 C   0  0  0  0  0  1  0  0  0  0  0  0
  161.1420  207.6610  149.9430 O   0  0  0  0  0  0  0  0  0  0  0  0
  161.2100  205.7390  148.5470 C   0  0  0  0  0  0  0  0  0  0  0  0
  161.6890  205.9030  146.0000 C   0  0  0  0  0  1  0  0  0  0  0  0
  160.9910  201.7000  148.2070 O   0  0  0  0  0  0  0  0  0  0  0  0
  161.3600  203.7720  147.1220 C   0  0  0  0  0  3  0  0  0  0  0  0
  161.0950  202.9490  148.3150 C   0  0  0  0  0  0  0  0  0  0  0  0
  160.9160  203.5810  149.5910 N   0  0  0  0  0  0  0  0  0  0  0  0
  161.4100  205.0990  147.2260 C   0  0  0  0  0  0  0  0  0  0  0  0
  160.9570  204.8720  149.7180 C   0  0  0  0  0  3  0  0  0  0  0  0
  161.2890  207.0640  148.6950 C   0  0  0  0  0  3  0  0  0  0  0  0
  1  5  1  0  0  0  0
  3  7  1  0  0  0  0
  4 26  1  1  0  0  0
  4  1  1  0  0  0  0
  4  3  1  0  0  0  0
  5  9  1  1  0  0  0
  5  2  1  0  0  0  0
  6  3  2  0  0  0  0
  7  8  1  0  0  0  0
  8  2  1  0  0  0  0
  9 20  1  1  0  0  0
 10  9  1  0  0  0  0
 12 17  1  0  0  0  0
 13 18  1  0  0  0  0
 15 14  1  1  0  0  0
 15 16  1  0  0  0  0
 16 11  1  1  0  0  0
 17 16  1  0  0  0  0
 17 10  1  1  0  0  0
 18 19  2  0  0  0  0
 18 12  1  0  0  0  0
 19 15  1  0  0  0  0
 20 21  1  0  0  0  0
 22 24  1  0  0  0  0
 22 21  1  0  0  0  0
 24 23  2  0  0  0  0
 25 24  1  0  0  0  0
 27 35  2  0  0  0  0
 27 34  1  0  0  0  0
 28 33  1  0  0  0  0
 29 31  2  0  0  0  0
 30 33  2  0  0  0  0
 30 31  1  0  0  0  0
 31 32  1  0  0  0  0
 32 34  2  0  0  0  0
 33 27  1  0  0  0  0
 35 26  1  0  0  0  0
M  END
>  <MODEL>
9

>  <REMARK>
 VINA RESULT:      -6.0      2.837      4.563
  Name = 
  9 active torsions:
  status: ('A' for Active; 'I' for Inactive)
    1  A    between atoms: N_6  and  C_23
    2  A    between atoms: N_6  and  C_24
    3  A    between atoms: C_10  and  O_30
    4  A    between atoms: C_15  and  O_35
    5  A    between atoms: C_16  and  C_24
    6  A    between atoms: C_22  and  C_24
    7  A    between atoms: C_22  and  C_28
    8  A    between atoms: C_28  and  O_30
    9  A    between atoms: C_34  and  O_35
                            x       y       z     vdW  Elec       q    Type
                         _______ _______ _______ _____ _____    ______ ____

>  <TORSDO>
F 9

$$$$
