=
 OpenBabel11072413063D

 35 38  0  0  1  0  0  0  0  0999 V2000
  161.5960  209.1840  151.3250 C   0  0  0  0  0  0  0  0  0  0  0  0
  161.7760  210.4250  152.1420 C   0  0  2  0  0  3  0  0  0  0  0  0
  161.0850  206.6230  153.6590 C   0  0  0  0  0  2  0  0  0  0  0  0
  161.0410  208.0720  152.0050 N   0  0  0  0  0  0  0  0  0  0  0  0
  160.6690  208.0330  153.4220 C   0  0  2  0  0  3  0  0  0  0  0  0
  161.9490  209.1120  150.1200 O   0  0  0  0  0  0  0  0  0  0  0  0
  161.9980  210.0490  153.6050 C   0  0  0  0  0  3  0  0  0  0  0  0
  161.4020  206.6580  152.2010 C   0  0  2  0  0  3  0  0  0  0  0  0
  161.5050  208.9760  154.1500 N   0  0  0  0  0  0  0  0  0  0  0  0
  161.4170  212.2060  149.9080 O   0  0  0  0  0  1  0  0  0  0  0  0
  160.4420  212.1680  150.8990 C   0  0  0  0  0  0  0  0  0  0  0  0
  157.4890  212.0240  153.9000 N   0  0  0  0  0  2  0  0  0  0  0  0
  158.4980  212.0820  152.8840 C   0  0  0  0  0  0  0  0  0  0  0  0
  160.5770  211.3170  152.0050 C   0  0  0  0  0  0  0  0  0  0  0  0
  159.3110  212.9850  150.8020 C   0  0  0  0  0  0  0  0  0  0  0  0
  158.3310  212.9400  151.7960 C   0  0  0  0  0  3  0  0  0  0  0  0
  159.6090  211.3000  152.9610 N   0  0  0  0  0  0  0  0  0  0  0  0
  159.1560  213.8180  149.7440 F   0  0  0  0  0  0  0  0  0  0  0  0
  157.5300  211.1670  155.0860 C   0  0  2  0  0  3  0  0  0  0  0  0
  155.3090  210.2530  155.0880 O   0  0  0  0  0  0  0  0  0  0  0  0
  156.1670  210.9670  155.6770 C   0  0  0  0  0  0  0  0  0  0  0  0
  155.8500  211.6260  156.8660 O   0  0  0  0  0  0  0  0  0  0  0  0
  155.2890  212.9300  156.8730 C   0  0  0  0  0  1  0  0  0  0  0  0
  158.5390  211.6750  156.1110 C   0  0  0  0  0  2  0  0  0  0  0  0
  159.4480  210.5500  156.5720 C   0  0  0  0  0  1  0  0  0  0  0  0
  160.4460  205.7520  151.4290 C   0  0  0  0  0  2  0  0  0  0  0  0
  161.8120  203.8410  151.0900 O   0  0  0  0  0  0  0  0  0  0  0  0
  161.1980  204.8020  150.5530 C   0  0  0  0  0  0  0  0  0  0  0  0
  160.8570  206.1870  148.5060 C   0  0  0  0  0  3  0  0  0  0  0  0
  161.5840  204.0470  146.8630 C   0  0  0  0  0  3  0  0  0  0  0  0
  161.5710  203.8890  148.2520 C   0  0  0  0  0  3  0  0  0  0  0  0
  160.8670  206.3440  147.1160 C   0  0  0  0  0  3  0  0  0  0  0  0
  161.2320  205.2740  146.2960 C   0  0  0  0  0  0  0  0  0  0  0  0
  161.2480  205.4710  144.5560 Cl  0  0  0  0  0  0  0  0  0  0  0  0
  161.2060  204.9570  149.0840 C   0  0  0  0  0  0  0  0  0  0  0  0
  1  4  1  0  0  0  0
  1  2  1  0  0  0  0
  2 14  1  1  0  0  0
  2  7  1  0  0  0  0
  4  8  1  0  0  0  0
  4  5  1  0  0  0  0
  5  3  1  1  0  0  0
  5  9  1  0  0  0  0
  6  1  2  0  0  0  0
  7  9  2  0  0  0  0
  8 26  1  6  0  0  0
  8  3  1  0  0  0  0
 10 11  1  0  0  0  0
 11 14  2  0  0  0  0
 12 19  1  0  0  0  0
 13 17  2  0  0  0  0
 13 12  1  0  0  0  0
 14 17  1  0  0  0  0
 15 11  1  0  0  0  0
 15 16  2  0  0  0  0
 16 13  1  0  0  0  0
 18 15  1  0  0  0  0
 19 21  1  0  0  0  0
 19 24  1  1  0  0  0
 20 21  2  0  0  0  0
 21 22  1  0  0  0  0
 22 23  1  0  0  0  0
 24 25  1  0  0  0  0
 28 27  2  0  0  0  0
 28 26  1  0  0  0  0
 29 35  1  0  0  0  0
 30 31  1  0  0  0  0
 31 35  2  0  0  0  0
 32 29  2  0  0  0  0
 33 30  2  0  0  0  0
 33 32  1  0  0  0  0
 34 33  1  0  0  0  0
 35 28  1  0  0  0  0
M  END
>  <MODEL>
1

>  <REMARK>
 VINA RESULT:      -7.4      0.000      0.000
  Name = 
  8 active torsions:
  status: ('A' for Active; 'I' for Inactive)
    1  A    between atoms: O_1  and  C_19
    2  A    between atoms: C_9  and  C_18
    3  A    between atoms: N_11  and  C_12
    4  A    between atoms: C_12  and  C_19
    5  A    between atoms: C_12  and  C_30
    6  A    between atoms: C_16  and  C_27
    7  A    between atoms: C_16  and  C_34
    8  A    between atoms: C_27  and  C_32
                            x       y       z     vdW  Elec       q    Type
                         _______ _______ _______ _____ _____    ______ ____

>  <TORSDO>
F 8

$$$$
=
 OpenBabel11072413063D

 35 38  0  0  1  0  0  0  0  0999 V2000
  161.9850  209.4420  149.8980 C   0  0  0  0  0  0  0  0  0  0  0  0
  162.2510  210.5380  150.8830 C   0  0  2  0  0  3  0  0  0  0  0  0
  161.0970  206.6670  151.8400 C   0  0  0  0  0  2  0  0  0  0  0  0
  161.2860  208.3180  150.3990 N   0  0  0  0  0  0  0  0  0  0  0  0
  160.8410  208.1330  151.7830 C   0  0  2  0  0  3  0  0  0  0  0  0
  162.3890  209.4930  148.7080 O   0  0  0  0  0  0  0  0  0  0  0  0
  162.3600  209.9500  152.2870 C   0  0  0  0  0  3  0  0  0  0  0  0
  161.4890  206.8600  150.4120 C   0  0  2  0  0  3  0  0  0  0  0  0
  161.7320  208.8750  152.6630 N   0  0  0  0  0  0  0  0  0  0  0  0
  162.0310  212.4480  148.7390 O   0  0  0  0  0  1  0  0  0  0  0  0
  161.0890  212.4750  149.7620 C   0  0  0  0  0  0  0  0  0  0  0  0
  158.2340  212.5310  152.8590 N   0  0  0  0  0  2  0  0  0  0  0  0
  159.2100  212.5210  151.8100 C   0  0  0  0  0  0  0  0  0  0  0  0
  161.1590  211.5650  150.8260 C   0  0  0  0  0  0  0  0  0  0  0  0
  160.0570  213.4190  149.7400 C   0  0  0  0  0  0  0  0  0  0  0  0
  159.1100  213.4410  150.7650 C   0  0  0  0  0  3  0  0  0  0  0  0
  160.2260  211.6150  151.8150 N   0  0  0  0  0  0  0  0  0  0  0  0
  159.9660  214.3120  148.7240 F   0  0  0  0  0  0  0  0  0  0  0  0
  158.2120  211.6230  154.0060 C   0  0  2  0  0  3  0  0  0  0  0  0
  156.5290  210.6180  155.3930 O   0  0  0  0  0  0  0  0  0  0  0  0
  156.8690  211.5940  154.6700 C   0  0  0  0  0  0  0  0  0  0  0  0
  155.9820  212.6460  154.4330 O   0  0  0  0  0  0  0  0  0  0  0  0
  155.4610  213.4400  155.4890 C   0  0  0  0  0  1  0  0  0  0  0  0
  159.3390  211.9300  154.9870 C   0  0  0  0  0  2  0  0  0  0  0  0
  160.1060  210.6680  155.3360 C   0  0  0  0  0  1  0  0  0  0  0  0
  160.4840  206.1730  149.4900 C   0  0  0  0  0  2  0  0  0  0  0  0
  161.7000  206.5830  147.4940 O   0  0  0  0  0  0  0  0  0  0  0  0
  161.1390  205.7220  148.2240 C   0  0  0  0  0  0  0  0  0  0  0  0
  160.9970  203.3020  148.8160 C   0  0  0  0  0  3  0  0  0  0  0  0
  161.3500  202.5650  146.1440 C   0  0  0  0  0  3  0  0  0  0  0  0
  161.3380  203.9170  146.5010 C   0  0  0  0  0  3  0  0  0  0  0  0
  161.0130  201.9500  148.4590 C   0  0  0  0  0  3  0  0  0  0  0  0
  161.1880  201.5830  147.1230 C   0  0  0  0  0  0  0  0  0  0  0  0
  161.2040  199.8900  146.6760 Cl  0  0  0  0  0  0  0  0  0  0  0  0
  161.1620  204.2960  147.8400 C   0  0  0  0  0  0  0  0  0  0  0  0
  1  4  1  0  0  0  0
  1  2  1  0  0  0  0
  2 14  1  1  0  0  0
  2  7  1  0  0  0  0
  4  8  1  0  0  0  0
  4  5  1  0  0  0  0
  5  3  1  1  0  0  0
  5  9  1  0  0  0  0
  6  1  2  0  0  0  0
  7  9  2  0  0  0  0
  8 26  1  6  0  0  0
  8  3  1  0  0  0  0
 10 11  1  0  0  0  0
 11 14  2  0  0  0  0
 12 19  1  0  0  0  0
 13 17  2  0  0  0  0
 13 12  1  0  0  0  0
 14 17  1  0  0  0  0
 15 11  1  0  0  0  0
 15 16  2  0  0  0  0
 16 13  1  0  0  0  0
 18 15  1  0  0  0  0
 19 21  1  0  0  0  0
 19 24  1  1  0  0  0
 21 20  2  0  0  0  0
 22 21  1  0  0  0  0
 22 23  1  0  0  0  0
 24 25  1  0  0  0  0
 27 28  2  0  0  0  0
 28 26  1  0  0  0  0
 30 31  2  0  0  0  0
 30 33  1  0  0  0  0
 31 35  1  0  0  0  0
 32 29  1  0  0  0  0
 33 32  2  0  0  0  0
 34 33  1  0  0  0  0
 35 28  1  0  0  0  0
 35 29  2  0  0  0  0
M  END
>  <MODEL>
2

>  <REMARK>
 VINA RESULT:      -7.1      1.789      2.242
  Name = 
  8 active torsions:
  status: ('A' for Active; 'I' for Inactive)
    1  A    between atoms: O_1  and  C_19
    2  A    between atoms: C_9  and  C_18
    3  A    between atoms: N_11  and  C_12
    4  A    between atoms: C_12  and  C_19
    5  A    between atoms: C_12  and  C_30
    6  A    between atoms: C_16  and  C_27
    7  A    between atoms: C_16  and  C_34
    8  A    between atoms: C_27  and  C_32
                            x       y       z     vdW  Elec       q    Type
                         _______ _______ _______ _____ _____    ______ ____

>  <TORSDO>
F 8

$$$$
=
 OpenBabel11072413063D

 35 38  0  0  1  0  0  0  0  0999 V2000
  161.5350  210.0070  152.2530 C   0  0  0  0  0  0  0  0  0  0  0  0
  161.5670  210.5970  153.6290 C   0  0  2  0  0  3  0  0  0  0  0  0
  160.9600  206.5860  152.7400 C   0  0  0  0  0  2  0  0  0  0  0  0
  160.9850  208.7060  152.1510 N   0  0  0  0  0  0  0  0  0  0  0  0
  160.4870  207.8970  153.2670 C   0  0  2  0  0  3  0  0  0  0  0  0
  162.0010  210.6070  151.2510 O   0  0  0  0  0  0  0  0  0  0  0  0
  161.6750  209.4790  154.6630 C   0  0  0  0  0  3  0  0  0  0  0  0
  161.4080  207.4160  151.5810 C   0  0  2  0  0  3  0  0  0  0  0  0
  161.1970  208.2840  154.4770 N   0  0  0  0  0  0  0  0  0  0  0  0
  160.6030  211.2010  156.2740 O   0  0  0  0  0  1  0  0  0  0  0  0
  159.9030  211.6910  155.1760 C   0  0  0  0  0  0  0  0  0  0  0  0
  157.8080  213.1820  151.8400 N   0  0  0  0  0  2  0  0  0  0  0  0
  158.5130  212.6670  152.9750 C   0  0  0  0  0  0  0  0  0  0  0  0
  160.3360  211.4200  153.8710 C   0  0  1  0  0  3  0  0  0  0  0  0
  158.7520  212.4620  155.3650 C   0  0  0  0  0  0  0  0  0  0  0  0
  158.0550  212.9570  154.2610 C   0  0  0  0  0  2  0  0  0  0  0  0
  159.6320  211.9090  152.8140 N   0  0  0  0  0  0  0  0  0  0  0  0
  158.3100  212.7390  156.6170 F   0  0  0  0  0  0  0  0  0  0  0  0
  158.1790  212.9640  150.4410 C   0  0  2  0  0  3  0  0  0  0  0  0
  160.0100  214.4520  150.8920 O   0  0  0  0  0  0  0  0  0  0  0  0
  159.4790  213.6260  150.0990 C   0  0  0  0  0  0  0  0  0  0  0  0
  160.0670  213.3480  148.8640 O   0  0  0  0  0  0  0  0  0  0  0  0
  161.2010  214.0630  148.3950 C   0  0  0  0  0  1  0  0  0  0  0  0
  157.0550  213.3660  149.4920 C   0  0  0  0  0  2  0  0  0  0  0  0
  155.9080  214.0010  150.2570 C   0  0  0  0  0  1  0  0  0  0  0  0
  160.5800  207.0840  150.3420 C   0  0  0  0  0  2  0  0  0  0  0  0
  162.2670  207.1750  148.6750 O   0  0  0  0  0  0  0  0  0  0  0  0
  161.4300  206.4560  149.2830 C   0  0  0  0  0  0  0  0  0  0  0  0
  161.5830  204.5630  147.6650 C   0  0  0  0  0  3  0  0  0  0  0  0
  160.8680  202.7290  149.6490 C   0  0  0  0  0  3  0  0  0  0  0  0
  160.9620  204.0900  149.9560 C   0  0  0  0  0  3  0  0  0  0  0  0
  161.4850  203.2020  147.3580 C   0  0  0  0  0  3  0  0  0  0  0  0
  161.1290  202.2860  148.3500 C   0  0  0  0  0  0  0  0  0  0  0  0
  161.0100  200.5820  147.9670 Cl  0  0  0  0  0  0  0  0  0  0  0  0
  161.3190  205.0180  148.9660 C   0  0  0  0  0  0  0  0  0  0  0  0
  1  2  1  0  0  0  0
  2 14  1  0  0  0  0
  2  7  1  1  0  0  0
  4  1  1  0  0  0  0
  4  5  1  0  0  0  0
  5  3  1  6  0  0  0
  5  9  1  0  0  0  0
  6  1  2  0  0  0  0
  8 26  1  6  0  0  0
  8  4  1  0  0  0  0
  8  3  1  0  0  0  0
  9  7  2  0  0  0  0
 11 15  2  0  0  0  0
 11 10  1  0  0  0  0
 12 13  1  0  0  0  0
 13 16  1  0  0  0  0
 14 17  1  1  0  0  0
 14 11  1  0  0  0  0
 15 18  1  0  0  0  0
 16 15  1  0  0  0  0
 17 13  2  0  0  0  0
 19 24  1  6  0  0  0
 19 12  1  0  0  0  0
 21 19  1  0  0  0  0
 21 20  2  0  0  0  0
 22 21  1  0  0  0  0
 23 22  1  0  0  0  0
 24 25  1  0  0  0  0
 27 28  2  0  0  0  0
 28 26  1  0  0  0  0
 29 35  1  0  0  0  0
 30 31  1  0  0  0  0
 32 29  2  0  0  0  0
 32 33  1  0  0  0  0
 33 30  2  0  0  0  0
 34 33  1  0  0  0  0
 35 28  1  0  0  0  0
 35 31  2  0  0  0  0
M  END
>  <MODEL>
3

>  <REMARK>
 VINA RESULT:      -6.9      2.549      4.466
  Name = 
  8 active torsions:
  status: ('A' for Active; 'I' for Inactive)
    1  A    between atoms: O_1  and  C_19
    2  A    between atoms: C_9  and  C_18
    3  A    between atoms: N_11  and  C_12
    4  A    between atoms: C_12  and  C_19
    5  A    between atoms: C_12  and  C_30
    6  A    between atoms: C_16  and  C_27
    7  A    between atoms: C_16  and  C_34
    8  A    between atoms: C_27  and  C_32
                            x       y       z     vdW  Elec       q    Type
                         _______ _______ _______ _____ _____    ______ ____

>  <TORSDO>
F 8

$$$$
=
 OpenBabel11072413063D

 35 38  0  0  1  0  0  0  0  0999 V2000
  161.7830  209.6030  151.1670 C   0  0  0  0  0  0  0  0  0  0  0  0
  161.8610  210.2030  152.5370 C   0  0  2  0  0  3  0  0  0  0  0  0
  161.1110  206.2070  151.6960 C   0  0  0  0  0  2  0  0  0  0  0  0
  161.1910  208.3200  151.0880 N   0  0  0  0  0  0  0  0  0  0  0  0
  160.6910  207.5360  152.2210 C   0  0  2  0  0  3  0  0  0  0  0  0
  162.2480  210.1810  150.1510 O   0  0  0  0  0  0  0  0  0  0  0  0
  161.9550  209.0920  153.5790 C   0  0  0  0  0  3  0  0  0  0  0  0
  161.5610  207.0120  150.5220 C   0  0  2  0  0  3  0  0  0  0  0  0
  161.4360  207.9110  153.4130 N   0  0  0  0  0  0  0  0  0  0  0  0
  160.7360  210.5440  155.1650 O   0  0  0  0  0  1  0  0  0  0  0  0
  160.1480  211.2050  154.0920 C   0  0  0  0  0  0  0  0  0  0  0  0
  158.3920  213.2160  150.8340 N   0  0  0  0  0  2  0  0  0  0  0  0
  158.9810  212.5250  151.9410 C   0  0  0  0  0  0  0  0  0  0  0  0
  160.6620  211.0670  152.7950 C   0  0  1  0  0  3  0  0  0  0  0  0
  159.0290  212.0190  154.2970 C   0  0  0  0  0  0  0  0  0  0  0  0
  158.4440  212.6860  153.2200 C   0  0  0  0  0  2  0  0  0  0  0  0
  160.0670  211.7230  151.7630 N   0  0  0  0  0  0  0  0  0  0  0  0
  158.5100  212.1700  155.5410 F   0  0  0  0  0  0  0  0  0  0  0  0
  158.8540  213.1460  149.4470 C   0  0  2  0  0  3  0  0  0  0  0  0
  160.7350  214.4530  150.1700 O   0  0  0  0  0  0  0  0  0  0  0  0
  160.2420  213.6910  149.2930 C   0  0  0  0  0  0  0  0  0  0  0  0
  160.9590  213.3790  148.1370 O   0  0  0  0  0  0  0  0  0  0  0  0
  160.9140  212.0850  147.5530 C   0  0  0  0  0  1  0  0  0  0  0  0
  157.8630  213.8000  148.4900 C   0  0  0  0  0  2  0  0  0  0  0  0
  157.3270  212.7860  147.4960 C   0  0  0  0  0  1  0  0  0  0  0  0
  160.6990  206.6960  149.3020 C   0  0  0  0  0  2  0  0  0  0  0  0
  162.3400  206.8690  147.5960 O   0  0  0  0  0  0  0  0  0  0  0  0
  161.5250  206.1190  148.1970 C   0  0  0  0  0  0  0  0  0  0  0  0
  161.0940  203.7360  148.7990 C   0  0  0  0  0  3  0  0  0  0  0  0
  161.5220  202.9270  146.1590 C   0  0  0  0  0  3  0  0  0  0  0  0
  161.6320  204.2780  146.5030 C   0  0  0  0  0  3  0  0  0  0  0  0
  160.9870  202.3850  148.4550 C   0  0  0  0  0  3  0  0  0  0  0  0
  161.2000  201.9820  147.1350 C   0  0  0  0  0  0  0  0  0  0  0  0
  161.0630  200.2900  146.7040 Cl  0  0  0  0  0  0  0  0  0  0  0  0
  161.4190  204.6930  147.8270 C   0  0  0  0  0  0  0  0  0  0  0  0
  1  2  1  0  0  0  0
  2 14  1  0  0  0  0
  2  7  1  1  0  0  0
  4  1  1  0  0  0  0
  4  5  1  0  0  0  0
  5  3  1  6  0  0  0
  5  9  1  0  0  0  0
  6  1  2  0  0  0  0
  8 26  1  6  0  0  0
  8  4  1  0  0  0  0
  8  3  1  0  0  0  0
  9  7  2  0  0  0  0
 11 15  2  0  0  0  0
 11 10  1  0  0  0  0
 12 13  1  0  0  0  0
 13 16  1  0  0  0  0
 14 17  1  1  0  0  0
 14 11  1  0  0  0  0
 15 18  1  0  0  0  0
 16 15  1  0  0  0  0
 17 13  2  0  0  0  0
 19 24  1  6  0  0  0
 19 12  1  0  0  0  0
 21 19  1  0  0  0  0
 21 20  2  0  0  0  0
 22 21  1  0  0  0  0
 23 22  1  0  0  0  0
 25 24  1  0  0  0  0
 27 28  2  0  0  0  0
 28 26  1  0  0  0  0
 30 31  2  0  0  0  0
 30 33  1  0  0  0  0
 31 35  1  0  0  0  0
 32 29  1  0  0  0  0
 33 32  2  0  0  0  0
 34 33  1  0  0  0  0
 35 28  1  0  0  0  0
 35 29  2  0  0  0  0
M  END
>  <MODEL>
4

>  <REMARK>
 VINA RESULT:      -6.8      2.614      4.734
  Name = 
  8 active torsions:
  status: ('A' for Active; 'I' for Inactive)
    1  A    between atoms: O_1  and  C_19
    2  A    between atoms: C_9  and  C_18
    3  A    between atoms: N_11  and  C_12
    4  A    between atoms: C_12  and  C_19
    5  A    between atoms: C_12  and  C_30
    6  A    between atoms: C_16  and  C_27
    7  A    between atoms: C_16  and  C_34
    8  A    between atoms: C_27  and  C_32
                            x       y       z     vdW  Elec       q    Type
                         _______ _______ _______ _____ _____    ______ ____

>  <TORSDO>
F 8

$$$$
=
 OpenBabel11072413063D

 35 38  0  0  1  0  0  0  0  0999 V2000
  161.7920  209.4190  151.0350 C   0  0  0  0  0  0  0  0  0  0  0  0
  161.9920  210.6650  151.8400 C   0  0  2  0  0  3  0  0  0  0  0  0
  160.9570  206.9460  153.3700 C   0  0  0  0  0  2  0  0  0  0  0  0
  161.1220  208.3580  151.6920 N   0  0  0  0  0  0  0  0  0  0  0  0
  160.6490  208.3740  153.0790 C   0  0  2  0  0  3  0  0  0  0  0  0
  162.2250  209.2990  149.8590 O   0  0  0  0  0  0  0  0  0  0  0  0
  162.0870  210.3080  153.3210 C   0  0  0  0  0  3  0  0  0  0  0  0
  161.3790  206.9300  151.9380 C   0  0  2  0  0  3  0  0  0  0  0  0
  161.4890  209.2800  153.8490 N   0  0  0  0  0  0  0  0  0  0  0  0
  161.5830  211.9750  149.3090 O   0  0  0  0  0  1  0  0  0  0  0  0
  160.7020  212.2390  150.3520 C   0  0  0  0  0  0  0  0  0  0  0  0
  158.0320  213.0150  153.5160 N   0  0  0  0  0  2  0  0  0  0  0  0
  158.9450  212.7600  152.4430 C   0  0  0  0  0  0  0  0  0  0  0  0
  160.8640  211.6250  151.6010 C   0  0  0  0  0  0  0  0  0  0  0  0
  159.6390  213.1290  150.1640 C   0  0  0  0  0  0  0  0  0  0  0  0
  158.7530  213.3890  151.2110 C   0  0  0  0  0  3  0  0  0  0  0  0
  159.9890  211.9030  152.6060 N   0  0  0  0  0  0  0  0  0  0  0  0
  159.4590  213.7380  148.9660 F   0  0  0  0  0  0  0  0  0  0  0  0
  158.1080  212.4210  154.8520 C   0  0  2  0  0  3  0  0  0  0  0  0
  159.7640  213.8950  155.7750 O   0  0  0  0  0  0  0  0  0  0  0  0
  159.4190  212.7090  155.5170 C   0  0  0  0  0  0  0  0  0  0  0  0
  160.2740  211.6430  155.8010 O   0  0  0  0  0  0  0  0  0  0  0  0
  161.0770  211.6170  156.9720 C   0  0  0  0  0  1  0  0  0  0  0  0
  157.7850  210.9310  154.8240 C   0  0  0  0  0  2  0  0  0  0  0  0
  156.3020  210.6980  155.0460 C   0  0  0  0  0  1  0  0  0  0  0  0
  160.4240  206.0670  151.1150 C   0  0  0  0  0  2  0  0  0  0  0  0
  161.7760  204.1240  150.9540 O   0  0  0  0  0  0  0  0  0  0  0  0
  161.1730  205.0390  150.3310 C   0  0  0  0  0  0  0  0  0  0  0  0
  161.6070  203.9340  148.1360 C   0  0  0  0  0  3  0  0  0  0  0  0
  160.7960  206.2230  146.7540 C   0  0  0  0  0  3  0  0  0  0  0  0
  160.7840  206.2090  148.1520 C   0  0  0  0  0  3  0  0  0  0  0  0
  161.6210  203.9490  146.7370 C   0  0  0  0  0  3  0  0  0  0  0  0
  161.2150  205.0930  146.0480 C   0  0  0  0  0  0  0  0  0  0  0  0
  161.2300  205.1110  144.2970 Cl  0  0  0  0  0  0  0  0  0  0  0  0
  161.1900  205.0650  148.8540 C   0  0  0  0  0  0  0  0  0  0  0  0
  1  4  1  0  0  0  0
  1  2  1  0  0  0  0
  2 14  1  1  0  0  0
  2  7  1  0  0  0  0
  4  8  1  0  0  0  0
  4  5  1  0  0  0  0
  5  3  1  1  0  0  0
  5  9  1  0  0  0  0
  6  1  2  0  0  0  0
  7  9  2  0  0  0  0
  8 26  1  6  0  0  0
  8  3  1  0  0  0  0
 10 11  1  0  0  0  0
 11 14  2  0  0  0  0
 12 19  1  0  0  0  0
 13 17  2  0  0  0  0
 13 12  1  0  0  0  0
 14 17  1  0  0  0  0
 15 11  1  0  0  0  0
 15 16  2  0  0  0  0
 16 13  1  0  0  0  0
 18 15  1  0  0  0  0
 19 24  1  6  0  0  0
 19 21  1  0  0  0  0
 21 20  2  0  0  0  0
 21 22  1  0  0  0  0
 22 23  1  0  0  0  0
 24 25  1  0  0  0  0
 28 27  2  0  0  0  0
 28 26  1  0  0  0  0
 29 35  1  0  0  0  0
 30 31  1  0  0  0  0
 31 35  2  0  0  0  0
 32 29  2  0  0  0  0
 33 32  1  0  0  0  0
 33 30  2  0  0  0  0
 34 33  1  0  0  0  0
 35 28  1  0  0  0  0
M  END
>  <MODEL>
5

>  <REMARK>
 VINA RESULT:      -6.1      1.442      2.085
  Name = 
  8 active torsions:
  status: ('A' for Active; 'I' for Inactive)
    1  A    between atoms: O_1  and  C_19
    2  A    between atoms: C_9  and  C_18
    3  A    between atoms: N_11  and  C_12
    4  A    between atoms: C_12  and  C_19
    5  A    between atoms: C_12  and  C_30
    6  A    between atoms: C_16  and  C_27
    7  A    between atoms: C_16  and  C_34
    8  A    between atoms: C_27  and  C_32
                            x       y       z     vdW  Elec       q    Type
                         _______ _______ _______ _____ _____    ______ ____

>  <TORSDO>
F 8

$$$$
=
 OpenBabel11072413063D

 35 38  0  0  1  0  0  0  0  0999 V2000
  161.7860  209.2650  151.9850 C   0  0  0  0  0  0  0  0  0  0  0  0
  161.7280  210.3300  153.0370 C   0  0  2  0  0  3  0  0  0  0  0  0
  160.8630  206.3110  153.6250 C   0  0  0  0  0  2  0  0  0  0  0  0
  161.1370  208.0470  152.3020 N   0  0  0  0  0  0  0  0  0  0  0  0
  160.4560  207.7430  153.5640 C   0  0  2  0  0  3  0  0  0  0  0  0
  162.4060  209.4220  150.9010 O   0  0  0  0  0  0  0  0  0  0  0  0
  161.6290  209.6830  154.4160 C   0  0  0  0  0  3  0  0  0  0  0  0
  161.5000  206.6210  152.3100 C   0  0  2  0  0  3  0  0  0  0  0  0
  161.0680  208.5280  154.6260 N   0  0  0  0  0  0  0  0  0  0  0  0
  159.6410  210.7160  154.9830 O   0  0  0  0  0  1  0  0  0  0  0  0
  159.5640  211.3950  153.7720 C   0  0  0  0  0  0  0  0  0  0  0  0
  159.3550  213.4590  150.1060 N   0  0  0  0  0  2  0  0  0  0  0  0
  159.4190  212.7500  151.3480 C   0  0  0  0  0  0  0  0  0  0  0  0
  160.5570  211.2360  152.7950 C   0  0  1  0  0  3  0  0  0  0  0  0
  158.4850  212.2480  153.5130 C   0  0  0  0  0  0  0  0  0  0  0  0
  158.4130  212.9320  152.2990 C   0  0  0  0  0  2  0  0  0  0  0  0
  160.4560  211.9100  151.6180 N   0  0  0  0  0  0  0  0  0  0  0  0
  157.5100  212.4200  154.4400 F   0  0  0  0  0  0  0  0  0  0  0  0
  160.3400  213.3690  149.0270 C   0  0  2  0  0  3  0  0  0  0  0  0
  160.0620  214.3820  146.8670 O   0  0  0  0  0  0  0  0  0  0  0  0
  159.7010  213.4840  147.6770 C   0  0  0  0  0  0  0  0  0  0  0  0
  158.6640  212.6080  147.3500 O   0  0  0  0  0  0  0  0  0  0  0  0
  157.6880  212.9330  146.3710 C   0  0  0  0  0  1  0  0  0  0  0  0
  161.2040  212.1190  149.1580 C   0  0  0  0  0  2  0  0  0  0  0  0
  162.4390  212.2250  148.2820 C   0  0  0  0  0  1  0  0  0  0  0  0
  160.7790  205.8810  151.1860 C   0  0  0  0  0  2  0  0  0  0  0  0
  162.0140  203.9840  151.8980 O   0  0  0  0  0  0  0  0  0  0  0  0
  161.3890  204.5350  150.9540 C   0  0  0  0  0  0  0  0  0  0  0  0
  161.5700  204.5060  148.4650 C   0  0  0  0  0  3  0  0  0  0  0  0
  160.6640  201.8650  148.3690 C   0  0  0  0  0  3  0  0  0  0  0  0
  160.7910  202.5160  149.5990 C   0  0  0  0  0  3  0  0  0  0  0  0
  161.4400  203.8560  147.2340 C   0  0  0  0  0  3  0  0  0  0  0  0
  160.9880  202.5350  147.1870 C   0  0  0  0  0  0  0  0  0  0  0  0
  160.8290  201.7200  145.6460 Cl  0  0  0  0  0  0  0  0  0  0  0  0
  161.2440  203.8430  149.6570 C   0  0  0  0  0  0  0  0  0  0  0  0
  1  4  1  0  0  0  0
  1  2  1  0  0  0  0
  2  7  1  1  0  0  0
  4  8  1  0  0  0  0
  4  5  1  0  0  0  0
  5  3  1  1  0  0  0
  5  9  1  0  0  0  0
  6  1  2  0  0  0  0
  7  9  2  0  0  0  0
  8 26  1  6  0  0  0
  8  3  1  0  0  0  0
 11 10  1  0  0  0  0
 12 13  1  0  0  0  0
 13 17  2  0  0  0  0
 13 16  1  0  0  0  0
 14 17  1  1  0  0  0
 14  2  1  0  0  0  0
 14 11  1  0  0  0  0
 15 11  2  0  0  0  0
 15 18  1  0  0  0  0
 16 15  1  0  0  0  0
 19 24  1  6  0  0  0
 19 12  1  0  0  0  0
 20 21  2  0  0  0  0
 21 19  1  0  0  0  0
 22 21  1  0  0  0  0
 23 22  1  0  0  0  0
 25 24  1  0  0  0  0
 28 26  1  0  0  0  0
 28 27  2  0  0  0  0
 29 35  1  0  0  0  0
 30 31  1  0  0  0  0
 31 35  2  0  0  0  0
 32 29  2  0  0  0  0
 33 32  1  0  0  0  0
 33 30  2  0  0  0  0
 34 33  1  0  0  0  0
 35 28  1  0  0  0  0
M  END
>  <MODEL>
6

>  <REMARK>
 VINA RESULT:      -5.7      2.276      4.621
  Name = 
  8 active torsions:
  status: ('A' for Active; 'I' for Inactive)
    1  A    between atoms: O_1  and  C_19
    2  A    between atoms: C_9  and  C_18
    3  A    between atoms: N_11  and  C_12
    4  A    between atoms: C_12  and  C_19
    5  A    between atoms: C_12  and  C_30
    6  A    between atoms: C_16  and  C_27
    7  A    between atoms: C_16  and  C_34
    8  A    between atoms: C_27  and  C_32
                            x       y       z     vdW  Elec       q    Type
                         _______ _______ _______ _____ _____    ______ ____

>  <TORSDO>
F 8

$$$$
=
 OpenBabel11072413063D

 35 38  0  0  1  0  0  0  0  0999 V2000
  161.5430  209.8510  153.2980 C   0  0  0  0  0  0  0  0  0  0  0  0
  161.2440  211.0180  154.1870 C   0  0  2  0  0  3  0  0  0  0  0  0
  160.4250  207.0440  155.0700 C   0  0  0  0  0  2  0  0  0  0  0  0
  160.8880  208.6390  153.6280 N   0  0  0  0  0  0  0  0  0  0  0  0
  159.9880  208.4350  154.7660 C   0  0  2  0  0  3  0  0  0  0  0  0
  162.3540  209.9240  152.3390 O   0  0  0  0  0  0  0  0  0  0  0  0
  160.9040  210.5200  155.5900 C   0  0  0  0  0  3  0  0  0  0  0  0
  161.2930  207.2450  153.8720 C   0  0  2  0  0  3  0  0  0  0  0  0
  160.3540  209.3650  155.8240 N   0  0  0  0  0  0  0  0  0  0  0  0
  158.8740  211.6260  155.7050 O   0  0  0  0  0  1  0  0  0  0  0  0
  158.9750  212.0970  154.4010 C   0  0  0  0  0  0  0  0  0  0  0  0
  159.3060  213.5320  150.4540 N   0  0  0  0  0  2  0  0  0  0  0  0
  159.1880  213.0360  151.7920 C   0  0  0  0  0  0  0  0  0  0  0  0
  160.1110  211.8230  153.6250 C   0  0  1  0  0  3  0  0  0  0  0  0
  157.9370  212.8520  153.8450 C   0  0  0  0  0  0  0  0  0  0  0  0
  158.0430  213.3280  152.5370 C   0  0  0  0  0  2  0  0  0  0  0  0
  160.1830  212.2950  152.3510 N   0  0  0  0  0  0  0  0  0  0  0  0
  156.8270  213.1310  154.5720 F   0  0  0  0  0  0  0  0  0  0  0  0
  160.4480  213.3100  149.5660 C   0  0  2  0  0  3  0  0  0  0  0  0
  160.8670  214.4530  147.4960 O   0  0  0  0  0  0  0  0  0  0  0  0
  160.1280  213.6630  148.1460 C   0  0  0  0  0  0  0  0  0  0  0  0
  158.9690  213.1400  147.5710 O   0  0  0  0  0  0  0  0  0  0  0  0
  158.3510  213.7450  146.4440 C   0  0  0  0  0  1  0  0  0  0  0  0
  161.0000  211.8950  149.7030 C   0  0  0  0  0  2  0  0  0  0  0  0
  162.0480  211.6210  148.6400 C   0  0  0  0  0  1  0  0  0  0  0  0
  160.8300  206.3470  152.7270 C   0  0  0  0  0  2  0  0  0  0  0  0
  163.0890  206.1030  152.0420 O   0  0  0  0  0  0  0  0  0  0  0  0
  161.8880  206.2280  151.6780 C   0  0  0  0  0  0  0  0  0  0  0  0
  161.2060  205.0260  149.6010 C   0  0  0  0  0  3  0  0  0  0  0  0
  161.2140  207.4120  148.1450 C   0  0  0  0  0  3  0  0  0  0  0  0
  161.5460  207.4200  149.5030 C   0  0  0  0  0  3  0  0  0  0  0  0
  160.8750  205.0180  148.2420 C   0  0  0  0  0  3  0  0  0  0  0  0
  160.8790  206.2100  147.5150 C   0  0  0  0  0  0  0  0  0  0  0  0
  160.4620  206.2000  145.8150 Cl  0  0  0  0  0  0  0  0  0  0  0  0
  161.5460  206.2270  150.2410 C   0  0  0  0  0  0  0  0  0  0  0  0
  1  4  1  0  0  0  0
  1  2  1  0  0  0  0
  2  7  1  1  0  0  0
  4  8  1  0  0  0  0
  4  5  1  0  0  0  0
  5  3  1  1  0  0  0
  5  9  1  0  0  0  0
  6  1  2  0  0  0  0
  7  9  2  0  0  0  0
  8 26  1  6  0  0  0
  8  3  1  0  0  0  0
 11 10  1  0  0  0  0
 12 13  1  0  0  0  0
 13 17  2  0  0  0  0
 13 16  1  0  0  0  0
 14 17  1  1  0  0  0
 14  2  1  0  0  0  0
 14 11  1  0  0  0  0
 15 11  2  0  0  0  0
 15 18  1  0  0  0  0
 16 15  1  0  0  0  0
 19 24  1  6  0  0  0
 19 12  1  0  0  0  0
 20 21  2  0  0  0  0
 21 19  1  0  0  0  0
 22 21  1  0  0  0  0
 23 22  1  0  0  0  0
 25 24  1  0  0  0  0
 28 27  2  0  0  0  0
 28 26  1  0  0  0  0
 29 35  1  0  0  0  0
 30 31  1  0  0  0  0
 31 35  2  0  0  0  0
 32 29  2  0  0  0  0
 33 30  2  0  0  0  0
 33 32  1  0  0  0  0
 34 33  1  0  0  0  0
 35 28  1  0  0  0  0
M  END
>  <MODEL>
7

>  <REMARK>
 VINA RESULT:      -5.4      2.193      4.708
  Name = 
  8 active torsions:
  status: ('A' for Active; 'I' for Inactive)
    1  A    between atoms: O_1  and  C_19
    2  A    between atoms: C_9  and  C_18
    3  A    between atoms: N_11  and  C_12
    4  A    between atoms: C_12  and  C_19
    5  A    between atoms: C_12  and  C_30
    6  A    between atoms: C_16  and  C_27
    7  A    between atoms: C_16  and  C_34
    8  A    between atoms: C_27  and  C_32
                            x       y       z     vdW  Elec       q    Type
                         _______ _______ _______ _____ _____    ______ ____

>  <TORSDO>
F 8

$$$$
=
 OpenBabel11072413063D

 35 38  0  0  1  0  0  0  0  0999 V2000
  161.1730  208.1270  153.4440 C   0  0  0  0  0  0  0  0  0  0  0  0
  162.1860  207.4880  152.5450 C   0  0  2  0  0  3  0  0  0  0  0  0
  160.3810  211.1720  151.9070 C   0  0  0  0  0  2  0  0  0  0  0  0
  160.4420  209.2030  152.8850 N   0  0  0  0  0  0  0  0  0  0  0  0
  160.6190  209.7490  151.5370 C   0  0  2  0  0  3  0  0  0  0  0  0
  161.0040  207.7610  154.6360 O   0  0  0  0  0  0  0  0  0  0  0  0
  162.7040  208.5170  151.5440 C   0  0  0  0  0  3  0  0  0  0  0  0
  160.1430  210.5940  153.2630 C   0  0  2  0  0  3  0  0  0  0  0  0
  161.9940  209.5200  151.1170 N   0  0  0  0  0  0  0  0  0  0  0  0
  161.3530  205.0970  153.9170 O   0  0  0  0  0  1  0  0  0  0  0  0
  161.1890  205.1720  152.5380 C   0  0  0  0  0  0  0  0  0  0  0  0
  160.6800  205.4220  148.3640 N   0  0  0  0  0  2  0  0  0  0  0  0
  160.8620  205.3310  149.7820 C   0  0  0  0  0  0  0  0  0  0  0  0
  161.5810  206.3160  151.8300 C   0  0  2  0  0  3  0  0  0  0  0  0
  160.6280  204.0980  151.8400 C   0  0  0  0  0  0  0  0  0  0  0  0
  160.4590  204.1770  150.4560 C   0  0  0  0  0  2  0  0  0  0  0  0
  161.4110  206.3620  150.4800 N   0  0  0  0  0  0  0  0  0  0  0  0
  160.2400  202.9790  152.5000 F   0  0  0  0  0  0  0  0  0  0  0  0
  161.0470  206.5700  147.5340 C   0  0  2  0  0  3  0  0  0  0  0  0
  160.0530  206.2030  145.3790 O   0  0  0  0  0  0  0  0  0  0  0  0
  161.1020  206.2140  146.0800 C   0  0  0  0  0  0  0  0  0  0  0  0
  162.3300  205.8450  145.5270 O   0  0  0  0  0  0  0  0  0  0  0  0
  162.7500  204.4890  145.4720 C   0  0  0  0  0  1  0  0  0  0  0  0
  162.3360  207.2250  148.0210 C   0  0  0  0  0  2  0  0  0  0  0  0
  162.1740  208.7320  148.1060 C   0  0  0  0  0  1  0  0  0  0  0  0
  158.6720  210.7370  153.6490 C   0  0  0  0  0  2  0  0  0  0  0  0
  159.4340  210.8270  155.8950 O   0  0  0  0  0  0  0  0  0  0  0  0
  158.5320  211.1550  155.0770 C   0  0  0  0  0  0  0  0  0  0  0  0
  157.1080  213.1980  154.9290 C   0  0  0  0  0  3  0  0  0  0  0  0
  155.4460  212.2630  156.9720 C   0  0  0  0  0  3  0  0  0  0  0  0
  156.5400  211.4980  156.5540 C   0  0  0  0  0  3  0  0  0  0  0  0
  156.0160  213.9640  155.3480 C   0  0  0  0  0  3  0  0  0  0  0  0
  155.1850  213.4960  156.3690 C   0  0  0  0  0  0  0  0  0  0  0  0
  153.8160  214.4530  156.8920 Cl  0  0  0  0  0  0  0  0  0  0  0  0
  157.3800  211.9600  155.5300 C   0  0  0  0  0  0  0  0  0  0  0  0
  1  6  2  0  0  0  0
  2  7  1  6  0  0  0
  2  1  1  0  0  0  0
  3  8  1  0  0  0  0
  4  8  1  0  0  0  0
  4  1  1  0  0  0  0
  5  3  1  1  0  0  0
  5  4  1  0  0  0  0
  8 26  1  6  0  0  0
  9  5  1  0  0  0  0
  9  7  2  0  0  0  0
 11 10  1  0  0  0  0
 12 13  1  0  0  0  0
 13 16  1  0  0  0  0
 13 17  2  0  0  0  0
 14 17  1  6  0  0  0
 14 11  1  0  0  0  0
 14  2  1  0  0  0  0
 15 18  1  0  0  0  0
 15 11  2  0  0  0  0
 16 15  1  0  0  0  0
 19 24  1  1  0  0  0
 19 12  1  0  0  0  0
 20 21  2  0  0  0  0
 21 19  1  0  0  0  0
 22 21  1  0  0  0  0
 23 22  1  0  0  0  0
 24 25  1  0  0  0  0
 26 28  1  0  0  0  0
 28 35  1  0  0  0  0
 28 27  2  0  0  0  0
 29 32  2  0  0  0  0
 29 35  1  0  0  0  0
 31 30  1  0  0  0  0
 32 33  1  0  0  0  0
 33 34  1  0  0  0  0
 33 30  2  0  0  0  0
 35 31  2  0  0  0  0
M  END
>  <MODEL>
8

>  <REMARK>
 VINA RESULT:      -5.2      4.158      9.438
  Name = 
  8 active torsions:
  status: ('A' for Active; 'I' for Inactive)
    1  A    between atoms: O_1  and  C_19
    2  A    between atoms: C_9  and  C_18
    3  A    between atoms: N_11  and  C_12
    4  A    between atoms: C_12  and  C_19
    5  A    between atoms: C_12  and  C_30
    6  A    between atoms: C_16  and  C_27
    7  A    between atoms: C_16  and  C_34
    8  A    between atoms: C_27  and  C_32
                            x       y       z     vdW  Elec       q    Type
                         _______ _______ _______ _____ _____    ______ ____

>  <TORSDO>
F 8

$$$$
=
 OpenBabel11072413063D

 35 38  0  0  1  0  0  0  0  0999 V2000
  161.2340  206.9700  153.0770 C   0  0  0  0  0  0  0  0  0  0  0  0
  162.2480  206.2240  152.2670 C   0  0  2  0  0  3  0  0  0  0  0  0
  161.2100  210.2100  151.7480 C   0  0  0  0  0  2  0  0  0  0  0  0
  160.7880  208.1980  152.5300 N   0  0  0  0  0  0  0  0  0  0  0  0
  161.2580  208.7970  151.2780 C   0  0  2  0  0  3  0  0  0  0  0  0
  160.8260  206.5570  154.1930 O   0  0  0  0  0  0  0  0  0  0  0  0
  163.0780  207.2100  151.4500 C   0  0  0  0  0  3  0  0  0  0  0  0
  160.6750  209.5890  152.9970 C   0  0  2  0  0  3  0  0  0  0  0  0
  162.6210  208.3530  151.0290 N   0  0  0  0  0  0  0  0  0  0  0  0
  161.2380  203.7000  153.2180 O   0  0  0  0  0  1  0  0  0  0  0  0
  161.0920  204.0180  151.8720 C   0  0  0  0  0  0  0  0  0  0  0  0
  160.6370  205.0050  147.8020 N   0  0  0  0  0  2  0  0  0  0  0  0
  160.8000  204.6630  149.1830 C   0  0  0  0  0  0  0  0  0  0  0  0
  161.5690  205.2350  151.3660 C   0  0  2  0  0  3  0  0  0  0  0  0
  160.4630  203.1190  151.0040 C   0  0  0  0  0  0  0  0  0  0  0  0
  160.3120  203.4430  149.6540 C   0  0  0  0  0  2  0  0  0  0  0  0
  161.4140  205.5200  150.0440 N   0  0  0  0  0  0  0  0  0  0  0  0
  159.9920  201.9350  151.4660 F   0  0  0  0  0  0  0  0  0  0  0  0
  161.0910  206.2480  147.1770 C   0  0  2  0  0  3  0  0  0  0  0  0
  160.3570  206.2250  144.8910 O   0  0  0  0  0  0  0  0  0  0  0  0
  161.3120  206.0850  145.7040 C   0  0  0  0  0  0  0  0  0  0  0  0
  162.5830  205.7260  145.2530 O   0  0  0  0  0  0  0  0  0  0  0  0
  163.0560  204.3890  145.3300 C   0  0  0  0  0  1  0  0  0  0  0  0
  162.3140  206.8200  147.8880 C   0  0  0  0  0  2  0  0  0  0  0  0
  162.2210  208.3320  147.9850 C   0  0  0  0  0  1  0  0  0  0  0  0
  159.2090  209.9690  153.1900 C   0  0  0  0  0  2  0  0  0  0  0  0
  159.8290  210.4330  155.4340 O   0  0  0  0  0  0  0  0  0  0  0  0
  159.0010  210.6450  154.5080 C   0  0  0  0  0  0  0  0  0  0  0  0
  157.0770  211.4510  155.8770 C   0  0  0  0  0  3  0  0  0  0  0  0
  156.5040  213.4480  154.0080 C   0  0  0  0  0  3  0  0  0  0  0  0
  157.5740  212.5740  153.7920 C   0  0  0  0  0  3  0  0  0  0  0  0
  156.0050  212.3240  156.0920 C   0  0  0  0  0  3  0  0  0  0  0  0
  155.7210  213.3220  155.1580 C   0  0  0  0  0  0  0  0  0  0  0  0
  154.3810  214.4170  155.4280 Cl  0  0  0  0  0  0  0  0  0  0  0  0
  157.8680  211.5680  154.7240 C   0  0  0  0  0  0  0  0  0  0  0  0
  1  6  2  0  0  0  0
  2  7  1  6  0  0  0
  2  1  1  0  0  0  0
  3  8  1  0  0  0  0
  4  8  1  0  0  0  0
  4  1  1  0  0  0  0
  5  3  1  1  0  0  0
  5  4  1  0  0  0  0
  8 26  1  6  0  0  0
  9  5  1  0  0  0  0
  9  7  2  0  0  0  0
 11 10  1  0  0  0  0
 12 13  1  0  0  0  0
 13 16  1  0  0  0  0
 13 17  2  0  0  0  0
 14 17  1  6  0  0  0
 14 11  1  0  0  0  0
 14  2  1  0  0  0  0
 15 18  1  0  0  0  0
 15 11  2  0  0  0  0
 16 15  1  0  0  0  0
 19 12  1  0  0  0  0
 19 24  1  1  0  0  0
 20 21  2  0  0  0  0
 21 19  1  0  0  0  0
 22 23  1  0  0  0  0
 22 21  1  0  0  0  0
 24 25  1  0  0  0  0
 26 28  1  0  0  0  0
 28 35  1  0  0  0  0
 28 27  2  0  0  0  0
 29 32  1  0  0  0  0
 30 33  1  0  0  0  0
 31 30  2  0  0  0  0
 31 35  1  0  0  0  0
 33 34  1  0  0  0  0
 33 32  2  0  0  0  0
 35 29  2  0  0  0  0
M  END
>  <MODEL>
9

>  <REMARK>
 VINA RESULT:      -4.6      4.157      9.405
  Name = 
  8 active torsions:
  status: ('A' for Active; 'I' for Inactive)
    1  A    between atoms: O_1  and  C_19
    2  A    between atoms: C_9  and  C_18
    3  A    between atoms: N_11  and  C_12
    4  A    between atoms: C_12  and  C_19
    5  A    between atoms: C_12  and  C_30
    6  A    between atoms: C_16  and  C_27
    7  A    between atoms: C_16  and  C_34
    8  A    between atoms: C_27  and  C_32
                            x       y       z     vdW  Elec       q    Type
                         _______ _______ _______ _____ _____    ______ ____

>  <TORSDO>
F 8

$$$$
