=
 OpenBabel11072415143D

 40 43  0  0  1  0  0  0  0  0999 V2000
  161.8100  213.1680  141.9360 O   0  0  0  0  0  0  0  0  0  0  0  0
  159.7420  214.0390  138.4930 N   0  0  0  0  0  2  0  0  0  0  0  0
  161.2130  212.8240  144.4630 O   0  0  0  0  0  0  0  0  0  0  0  0
  159.9650  211.0630  141.0770 C   0  0  2  0  0  3  0  0  0  0  0  0
  159.0350  213.7160  137.2670 C   0  0  0  0  0  2  0  0  0  0  0  0
  161.9590  214.1850  137.3750 N   0  0  0  0  0  2  0  0  0  0  0  0
  163.8590  213.5640  140.6560 N   0  0  0  0  0  2  0  0  0  0  0  0
  160.4060  213.2680  142.2140 C   0  0  2  0  0  3  0  0  0  0  0  0
  159.6040  214.3040  145.2820 N   0  0  0  0  0  0  0  0  0  0  0  0
  160.8030  213.5140  145.6230 C   0  0  1  0  0  0  0  0  0  0  0  0
  162.4310  213.6130  140.7600 C   0  0  0  0  0  0  0  0  0  0  0  0
  159.0780  210.2910  138.7990 C   0  0  2  0  0  3  0  0  0  0  0  0
  164.6190  214.0920  139.5180 C   0  0  0  0  0  2  0  0  0  0  0  0
  158.6330  214.4520  146.3610 C   0  0  0  0  0  1  0  0  0  0  0  0
  159.6090  211.2460  143.5970 C   0  0  0  0  0  2  0  0  0  0  0  0
  160.2420  210.4430  142.4570 C   0  0  0  0  0  2  0  0  0  0  0  0
  164.1940  213.4480  138.1960 C   0  0  0  0  0  2  0  0  0  0  0  0
  158.3520  211.4130  138.0900 C   0  0  0  0  0  0  0  0  0  0  0  0
  159.0530  212.2110  137.0110 C   0  0  0  0  0  2  0  0  0  0  0  0
  161.1600  214.1600  138.5670 C   0  0  0  0  0  0  0  0  0  0  0  0
  161.7390  213.9460  139.7090 C   0  0  0  0  0  0  0  0  0  0  0  0
  157.0810  211.5610  138.3520 N   0  0  0  0  0  0  0  0  0  0  0  0
  163.4020  214.4520  137.3540 C   0  0  0  0  0  2  0  0  0  0  0  0
  158.9830  213.5500  144.2230 C   0  0  0  0  0  2  0  0  0  0  0  0
  160.0840  212.7130  143.6240 C   0  0  1  0  0  0  0  0  0  0  0  0
  159.5670  212.5380  141.1560 C   0  0  0  0  0  2  0  0  0  0  0  0
  158.9150  210.2570  140.3260 C   0  0  0  0  0  2  0  0  0  0  0  0
  160.6160  209.2750  137.2820 O   0  0  0  0  0  0  0  0  0  0  0  0
  161.5770  210.4280  139.0110 O   0  0  0  0  0  1  0  0  0  0  0  0
  160.4630  209.9760  138.3150 C   0  0  0  0  0  0  0  0  0  0  0  0
  155.1520  211.9460  137.0140 N   0  0  0  0  0  2  0  0  0  0  0  0
  156.1030  213.8610  138.0890 C   0  0  0  0  0  1  0  0  0  0  0  0
  156.1350  212.4250  137.7040 C   0  0  0  0  0  0  0  0  0  0  0  0
  160.5630  212.4360  146.7130 C   0  0  0  0  0  2  0  0  0  0  0  0
  160.7110  212.9340  148.1460 C   0  0  0  0  0  1  0  0  0  0  0  0
  161.9410  214.4530  146.0710 C   0  0  0  0  0  2  0  0  0  0  0  0
  163.1420  212.4440  146.4300 F   0  0  0  0  0  0  0  0  0  0  0  0
  163.3170  213.8020  146.2410 C   0  0  0  0  0  0  0  0  0  0  0  0
  164.0840  213.9900  145.1070 F   0  0  0  0  0  0  0  0  0  0  0  0
  163.9770  214.3230  147.3380 F   0  0  0  0  0  0  0  0  0  0  0  0
  1  8  1  0  0  0  0
  2 20  1  0  0  0  0
  3 10  1  0  0  0  0
  4 27  1  1  0  0  0
  4 26  1  0  0  0  0
  4 16  1  0  0  0  0
  5  2  1  0  0  0  0
  6 20  1  0  0  0  0
  7 11  1  0  0  0  0
  8 26  1  6  0  0  0
  8 25  1  0  0  0  0
  9 10  1  0  0  0  0
  9 14  1  0  0  0  0
 10 36  1  1  0  0  0
 10 34  1  0  0  0  0
 11  1  1  0  0  0  0
 12 30  1  1  0  0  0
 12 27  1  0  0  0  0
 13  7  1  0  0  0  0
 16 15  1  0  0  0  0
 17 13  1  0  0  0  0
 18 22  2  0  0  0  0
 18 12  1  0  0  0  0
 19  5  1  0  0  0  0
 19 18  1  0  0  0  0
 20 21  2  0  0  0  0
 21 11  2  0  0  0  0
 23  6  1  0  0  0  0
 23 17  1  0  0  0  0
 24  9  1  0  0  0  0
 25 15  1  6  0  0  0
 25 24  1  0  0  0  0
 25  3  1  0  0  0  0
 28 30  2  0  0  0  0
 30 29  1  0  0  0  0
 31 33  2  0  0  0  0
 33 32  1  0  0  0  0
 33 22  1  0  0  0  0
 34 35  1  0  0  0  0
 36 38  1  0  0  0  0
 38 37  1  0  0  0  0
 38 40  1  0  0  0  0
 39 38  1  0  0  0  0
M  END
>  <MODEL>
1

>  <REMARK>
 VINA RESULT:       3.4      0.000      0.000
  Name = 
  5 active torsions:
  status: ('A' for Active; 'I' for Inactive)
    1  A    between atoms: C_4  and  C_13
    2  A    between atoms: C_4  and  C_32
    3  A    between atoms: C_13  and  C_22
    4  A    between atoms: C_15  and  C_36
    5  A    between atoms: C_30  and  N_31
                            x       y       z     vdW  Elec       q    Type
                         _______ _______ _______ _____ _____    ______ ____

>  <TORSDO>
F 5

$$$$
=
 OpenBabel11072415143D

 40 43  0  0  1  0  0  0  0  0999 V2000
  160.7220  210.2110  152.5310 O   0  0  0  0  0  0  0  0  0  0  0  0
  158.0590  212.4070  150.3010 N   0  0  0  0  0  2  0  0  0  0  0  0
  161.8560  207.8570  152.3410 O   0  0  0  0  0  0  0  0  0  0  0  0
  161.7520  211.0640  149.9270 C   0  0  2  0  0  3  0  0  0  0  0  0
  157.6760  213.3940  149.3070 C   0  0  0  0  0  2  0  0  0  0  0  0
  158.0790  214.0510  152.1680 N   0  0  0  0  0  2  0  0  0  0  0  0
  160.4130  211.8720  154.3030 N   0  0  0  0  0  2  0  0  0  0  0  0
  160.3700  209.4980  151.3360 C   0  0  2  0  0  3  0  0  0  0  0  0
  160.4460  206.1700  151.5560 N   0  0  0  0  0  0  0  0  0  0  0  0
  161.5930  206.4740  152.4340 C   0  0  1  0  0  0  0  0  0  0  0  0
  160.0330  211.3240  153.0360 C   0  0  0  0  0  0  0  0  0  0  0  0
  161.3060  213.0810  148.4070 C   0  0  2  0  0  3  0  0  0  0  0  0
  159.7040  212.9670  154.9720 C   0  0  0  0  0  2  0  0  0  0  0  0
  160.4800  204.8550  150.9270 C   0  0  0  0  0  1  0  0  0  0  0  0
  162.4830  208.6300  150.1450 C   0  0  0  0  0  2  0  0  0  0  0  0
  162.9110  210.0970  150.2190 C   0  0  0  0  0  2  0  0  0  0  0  0
  159.6420  214.2250  154.1020 C   0  0  0  0  0  2  0  0  0  0  0  0
  159.8480  213.1510  148.0120 C   0  0  0  0  0  0  0  0  0  0  0  0
  158.9080  214.0930  148.7340 C   0  0  0  0  0  2  0  0  0  0  0  0
  158.3570  212.7390  151.6550 C   0  0  0  0  0  0  0  0  0  0  0  0
  159.1450  211.9550  152.3230 C   0  0  0  0  0  0  0  0  0  0  0  0
  159.4830  212.4780  146.9530 N   0  0  0  0  0  0  0  0  0  0  0  0
  158.2180  214.4310  153.5780 C   0  0  0  0  0  2  0  0  0  0  0  0
  160.5310  207.1650  150.5180 C   0  0  0  0  0  2  0  0  0  0  0  0
  161.3260  208.3000  151.1100 C   0  0  1  0  0  0  0  0  0  0  0  0
  160.3780  210.4180  150.1070 C   0  0  0  0  0  2  0  0  0  0  0  0
  161.8910  211.6660  148.5360 C   0  0  0  0  0  2  0  0  0  0  0  0
  162.9490  214.4530  149.4650 O   0  0  0  0  0  0  0  0  0  0  0  0
  160.8920  214.4520  150.4710 O   0  0  0  0  0  1  0  0  0  0  0  0
  161.7610  214.0390  149.4690 C   0  0  0  0  0  0  0  0  0  0  0  0
  157.2180  211.8010  146.6940 N   0  0  0  0  0  2  0  0  0  0  0  0
  157.9640  213.5850  145.2860 C   0  0  0  0  0  1  0  0  0  0  0  0
  158.2170  212.5060  146.2760 C   0  0  0  0  0  0  0  0  0  0  0  0
  162.9060  205.7510  152.0340 C   0  0  0  0  0  2  0  0  0  0  0  0
  162.7430  204.2710  151.7050 C   0  0  0  0  0  1  0  0  0  0  0  0
  161.2420  206.1320  153.8960 C   0  0  0  0  0  2  0  0  0  0  0  0
  159.7480  207.9620  154.0480 F   0  0  0  0  0  0  0  0  0  0  0  0
  160.7340  207.2960  154.7510 C   0  0  0  0  0  0  0  0  0  0  0  0
  160.1890  206.8270  155.9310 F   0  0  0  0  0  0  0  0  0  0  0  0
  161.7570  208.1830  155.0330 F   0  0  0  0  0  0  0  0  0  0  0  0
  1 11  1  0  0  0  0
  2 20  1  0  0  0  0
  3 10  1  0  0  0  0
  4 27  1  6  0  0  0
  4 26  1  0  0  0  0
  4 16  1  0  0  0  0
  5  2  1  0  0  0  0
  6 23  1  0  0  0  0
  7 13  1  0  0  0  0
  8 26  1  6  0  0  0
  8  1  1  0  0  0  0
  9 10  1  0  0  0  0
 10 34  1  6  0  0  0
 10 36  1  0  0  0  0
 11  7  1  0  0  0  0
 12 27  1  0  0  0  0
 12 30  1  1  0  0  0
 14  9  1  0  0  0  0
 15 16  1  0  0  0  0
 17 13  1  0  0  0  0
 18 12  1  0  0  0  0
 18 19  1  0  0  0  0
 19  5  1  0  0  0  0
 20  6  1  0  0  0  0
 20 21  2  0  0  0  0
 21 11  2  0  0  0  0
 22 18  2  0  0  0  0
 23 17  1  0  0  0  0
 24 25  1  0  0  0  0
 24  9  1  0  0  0  0
 25 15  1  6  0  0  0
 25  8  1  0  0  0  0
 25  3  1  0  0  0  0
 28 30  2  0  0  0  0
 30 29  1  0  0  0  0
 32 33  1  0  0  0  0
 33 31  2  0  0  0  0
 33 22  1  0  0  0  0
 35 34  1  0  0  0  0
 36 38  1  0  0  0  0
 37 38  1  0  0  0  0
 38 40  1  0  0  0  0
 38 39  1  0  0  0  0
M  END
>  <MODEL>
2

>  <REMARK>
 VINA RESULT:       3.6      7.319     11.352
  Name = 
  5 active torsions:
  status: ('A' for Active; 'I' for Inactive)
    1  A    between atoms: C_4  and  C_13
    2  A    between atoms: C_4  and  C_32
    3  A    between atoms: C_13  and  C_22
    4  A    between atoms: C_15  and  C_36
    5  A    between atoms: C_30  and  N_31
                            x       y       z     vdW  Elec       q    Type
                         _______ _______ _______ _____ _____    ______ ____

>  <TORSDO>
F 5

$$$$
=
 OpenBabel11072415143D

 40 43  0  0  1  0  0  0  0  0999 V2000
  161.3200  206.5310  152.2820 O   0  0  0  0  0  0  0  0  0  0  0  0
  158.9310  209.4210  153.9640 N   0  0  0  0  0  2  0  0  0  0  0  0
  161.9930  205.8140  149.8540 O   0  0  0  0  0  0  0  0  0  0  0  0
  162.2800  209.2680  151.8810 C   0  0  2  0  0  3  0  0  0  0  0  0
  158.6550  210.7140  154.5630 C   0  0  0  0  0  2  0  0  0  0  0  0
  159.3930  208.3210  156.1470 N   0  0  0  0  0  2  0  0  0  0  0  0
  161.4560  205.5250  154.5090 N   0  0  0  0  0  2  0  0  0  0  0  0
  160.7540  207.3630  151.2580 C   0  0  2  0  0  3  0  0  0  0  0  0
  160.2450  205.8910  148.3080 N   0  0  0  0  0  0  0  0  0  0  0  0
  161.4930  205.2000  148.6860 C   0  0  1  0  0  0  0  0  0  0  0  0
  160.8850  206.4860  153.6140 C   0  0  0  0  0  0  0  0  0  0  0  0
  162.0870  211.4400  153.2310 C   0  0  2  0  0  3  0  0  0  0  0  0
  161.0100  205.3220  155.8920 C   0  0  0  0  0  2  0  0  0  0  0  0
  159.9930  205.9720  146.8730 C   0  0  0  0  0  1  0  0  0  0  0  0
  162.5750  208.1410  149.6120 C   0  0  0  0  0  2  0  0  0  0  0  0
  163.2660  208.6340  150.8860 C   0  0  0  0  0  2  0  0  0  0  0  0
  161.1070  206.6050  156.7200 C   0  0  0  0  0  2  0  0  0  0  0  0
  160.6390  211.8270  153.4330 C   0  0  0  0  0  0  0  0  0  0  0  0
  159.9440  211.5150  154.7410 C   0  0  0  0  0  2  0  0  0  0  0  0
  159.3880  208.2970  154.7120 C   0  0  0  0  0  0  0  0  0  0  0  0
  160.0720  207.3830  154.0950 C   0  0  0  0  0  0  0  0  0  0  0  0
  160.0780  212.5480  152.5000 N   0  0  0  0  0  0  0  0  0  0  0  0
  159.7070  207.1630  156.9910 C   0  0  0  0  0  2  0  0  0  0  0  0
  160.4270  207.2310  148.8050 C   0  0  0  0  0  2  0  0  0  0  0  0
  161.4570  207.1190  149.9000 C   0  0  1  0  0  0  0  0  0  0  0  0
  160.8310  208.8500  151.6320 C   0  0  0  0  0  2  0  0  0  0  0  0
  162.4160  210.7840  151.8810 C   0  0  0  0  0  2  0  0  0  0  0  0
  162.1460  210.0940  155.2020 O   0  0  0  0  0  1  0  0  0  0  0  0
  164.1350  211.0780  154.6400 O   0  0  0  0  0  0  0  0  0  0  0  0
  162.7890  210.8260  154.4060 C   0  0  0  0  0  0  0  0  0  0  0  0
  158.5220  214.1310  153.3540 N   0  0  0  0  0  2  0  0  0  0  0  0
  157.8690  212.9570  151.3750 C   0  0  0  0  0  1  0  0  0  0  0  0
  158.7890  213.1800  152.5210 C   0  0  0  0  0  0  0  0  0  0  0  0
  162.6190  205.2990  147.6230 C   0  0  0  0  0  2  0  0  0  0  0  0
  162.6440  204.1560  146.6140 C   0  0  0  0  0  1  0  0  0  0  0  0
  161.2020  203.7160  148.9900 C   0  0  0  0  0  2  0  0  0  0  0  0
  160.4970  202.0560  150.5230 F   0  0  0  0  0  0  0  0  0  0  0  0
  160.8580  203.3880  150.4450 C   0  0  0  0  0  0  0  0  0  0  0  0
  161.9560  203.5920  151.2590 F   0  0  0  0  0  0  0  0  0  0  0  0
  159.8020  204.1620  150.8890 F   0  0  0  0  0  0  0  0  0  0  0  0
  1 11  1  0  0  0  0
  2  5  1  0  0  0  0
  2 20  1  0  0  0  0
  3 25  1  0  0  0  0
  4 16  1  6  0  0  0
  4 27  1  0  0  0  0
  5 19  1  0  0  0  0
  6 23  1  0  0  0  0
  7 13  1  0  0  0  0
  8 26  1  1  0  0  0
  8  1  1  0  0  0  0
  9 10  1  0  0  0  0
  9 24  1  0  0  0  0
 10 34  1  6  0  0  0
 10 36  1  0  0  0  0
 10  3  1  0  0  0  0
 11 21  2  0  0  0  0
 11  7  1  0  0  0  0
 12 18  1  0  0  0  0
 12 30  1  1  0  0  0
 13 17  1  0  0  0  0
 14  9  1  0  0  0  0
 15 25  1  0  0  0  0
 15 16  1  0  0  0  0
 17 23  1  0  0  0  0
 18 19  1  0  0  0  0
 20  6  1  0  0  0  0
 21 20  2  0  0  0  0
 22 33  1  0  0  0  0
 22 18  2  0  0  0  0
 25 24  1  6  0  0  0
 25  8  1  0  0  0  0
 26  4  1  0  0  0  0
 27 12  1  0  0  0  0
 30 29  2  0  0  0  0
 30 28  1  0  0  0  0
 32 33  1  0  0  0  0
 33 31  2  0  0  0  0
 35 34  1  0  0  0  0
 36 38  1  0  0  0  0
 38 37  1  0  0  0  0
 38 40  1  0  0  0  0
 38 39  1  0  0  0  0
M  END
>  <MODEL>
3

>  <REMARK>
 VINA RESULT:       5.1     10.144     13.948
  Name = 
  5 active torsions:
  status: ('A' for Active; 'I' for Inactive)
    1  A    between atoms: C_4  and  C_13
    2  A    between atoms: C_4  and  C_32
    3  A    between atoms: C_13  and  C_22
    4  A    between atoms: C_15  and  C_36
    5  A    between atoms: C_30  and  N_31
                            x       y       z     vdW  Elec       q    Type
                         _______ _______ _______ _____ _____    ______ ____

>  <TORSDO>
F 5

$$$$
=
 OpenBabel11072415143D

 40 43  0  0  1  0  0  0  0  0999 V2000
  161.5520  206.4380  150.6910 O   0  0  0  0  0  0  0  0  0  0  0  0
  159.3500  209.4650  152.3860 N   0  0  0  0  0  2  0  0  0  0  0  0
  162.0330  205.5830  148.2620 O   0  0  0  0  0  0  0  0  0  0  0  0
  162.5370  209.1270  150.0810 C   0  0  2  0  0  3  0  0  0  0  0  0
  159.1450  210.7940  152.9350 C   0  0  0  0  0  2  0  0  0  0  0  0
  159.9460  208.4670  154.5850 N   0  0  0  0  0  2  0  0  0  0  0  0
  161.8270  205.5420  152.9530 N   0  0  0  0  0  2  0  0  0  0  0  0
  160.9300  207.2300  149.6690 C   0  0  2  0  0  3  0  0  0  0  0  0
  160.1800  205.6240  146.8420 N   0  0  0  0  0  0  0  0  0  0  0  0
  161.4370  204.9220  147.1660 C   0  0  1  0  0  0  0  0  0  0  0  0
  161.2130  206.4710  152.0510 C   0  0  0  0  0  0  0  0  0  0  0  0
  162.4860  211.3680  151.3260 C   0  0  2  0  0  3  0  0  0  0  0  0
  161.4790  205.4200  154.3720 C   0  0  0  0  0  2  0  0  0  0  0  0
  159.8260  205.6380  145.4270 C   0  0  0  0  0  1  0  0  0  0  0  0
  162.6440  207.8790  147.8580 C   0  0  0  0  0  2  0  0  0  0  0  0
  163.4350  208.4190  149.0530 C   0  0  0  0  0  2  0  0  0  0  0  0
  161.6620  206.7410  155.1230 C   0  0  0  0  0  2  0  0  0  0  0  0
  161.0650  211.8000  151.6100 C   0  0  0  0  0  0  0  0  0  0  0  0
  160.4600  211.5710  152.9790 C   0  0  0  0  0  2  0  0  0  0  0  0
  159.8370  208.3700  153.1570 C   0  0  0  0  0  0  0  0  0  0  0  0
  160.4560  207.4090  152.5410 C   0  0  0  0  0  0  0  0  0  0  0  0
  160.4530  212.4860  150.6830 N   0  0  0  0  0  0  0  0  0  0  0  0
  160.2970  207.3450  155.4630 C   0  0  0  0  0  2  0  0  0  0  0  0
  160.4250  206.9820  147.2550 C   0  0  0  0  0  2  0  0  0  0  0  0
  161.5290  206.9010  148.2780 C   0  0  1  0  0  0  0  0  0  0  0  0
  161.0650  208.7310  149.9580 C   0  0  0  0  0  2  0  0  0  0  0  0
  162.7030  210.6360  149.9920 C   0  0  0  0  0  2  0  0  0  0  0  0
  164.5120  210.7200  152.4100 O   0  0  0  0  0  0  0  0  0  0  0  0
  162.6020  210.3280  153.6090 O   0  0  0  0  0  1  0  0  0  0  0  0
  163.2590  210.7970  152.4780 C   0  0  0  0  0  0  0  0  0  0  0  0
  158.9750  214.1030  151.6100 N   0  0  0  0  0  2  0  0  0  0  0  0
  158.2080  212.9550  149.6560 C   0  0  0  0  0  1  0  0  0  0  0  0
  159.1820  213.1490  150.7620 C   0  0  0  0  0  0  0  0  0  0  0  0
  162.4860  204.9400  146.0220 C   0  0  0  0  0  2  0  0  0  0  0  0
  163.8340  204.3280  146.3840 C   0  0  0  0  0  1  0  0  0  0  0  0
  161.1380  203.4640  147.5670 C   0  0  0  0  0  2  0  0  0  0  0  0
  160.2160  201.9880  149.1720 F   0  0  0  0  0  0  0  0  0  0  0  0
  160.8050  203.2320  149.0430 C   0  0  0  0  0  0  0  0  0  0  0  0
  161.9560  203.2520  149.8080 F   0  0  0  0  0  0  0  0  0  0  0  0
  159.9240  204.1910  149.5060 F   0  0  0  0  0  0  0  0  0  0  0  0
  1 11  1  0  0  0  0
  2  5  1  0  0  0  0
  2 20  1  0  0  0  0
  3 25  1  0  0  0  0
  4 16  1  6  0  0  0
  5 19  1  0  0  0  0
  6 23  1  0  0  0  0
  7 13  1  0  0  0  0
  8 26  1  1  0  0  0
  8  1  1  0  0  0  0
  9 10  1  0  0  0  0
  9 24  1  0  0  0  0
 10 34  1  6  0  0  0
 10 36  1  0  0  0  0
 10  3  1  0  0  0  0
 11 21  2  0  0  0  0
 11  7  1  0  0  0  0
 12 18  1  0  0  0  0
 12 30  1  1  0  0  0
 13 17  1  0  0  0  0
 14  9  1  0  0  0  0
 15 25  1  0  0  0  0
 15 16  1  0  0  0  0
 17 23  1  0  0  0  0
 18 19  1  0  0  0  0
 20  6  1  0  0  0  0
 21 20  2  0  0  0  0
 22 33  1  0  0  0  0
 22 18  2  0  0  0  0
 25 24  1  6  0  0  0
 25  8  1  0  0  0  0
 26  4  1  0  0  0  0
 27  4  1  0  0  0  0
 27 12  1  0  0  0  0
 28 30  2  0  0  0  0
 30 29  1  0  0  0  0
 32 33  1  0  0  0  0
 33 31  2  0  0  0  0
 34 35  1  0  0  0  0
 36 38  1  0  0  0  0
 38 37  1  0  0  0  0
 38 40  1  0  0  0  0
 38 39  1  0  0  0  0
M  END
>  <MODEL>
4

>  <REMARK>
 VINA RESULT:       5.5      9.201     12.746
  Name = 
  5 active torsions:
  status: ('A' for Active; 'I' for Inactive)
    1  A    between atoms: C_4  and  C_13
    2  A    between atoms: C_4  and  C_32
    3  A    between atoms: C_13  and  C_22
    4  A    between atoms: C_15  and  C_36
    5  A    between atoms: C_30  and  N_31
                            x       y       z     vdW  Elec       q    Type
                         _______ _______ _______ _____ _____    ______ ____

>  <TORSDO>
F 5

$$$$
