=
 OpenBabel11072411173D

 28 30  0  0  1  0  0  0  0  0999 V2000
  160.5550  212.5430  156.5330 O   0  0  0  0  0  0  0  0  0  0  0  0
  158.6670  212.2220  155.2310 N   0  0  0  0  0  0  0  0  0  0  0  0
  158.8720  212.1790  152.7290 C   0  0  0  0  0  0  0  0  0  0  0  0
  158.1110  212.2460  153.9370 N   0  0  0  0  0  0  0  0  0  0  0  0
  158.2940  212.3360  151.6220 O   0  0  0  0  0  0  0  0  0  0  0  0
  160.5240  210.6320  153.4530 N   0  0  0  0  0  0  0  0  0  0  0  0
  160.8500  210.8670  154.8680 C   0  0  1  0  0  3  0  0  0  0  0  0
  160.3260  211.8940  152.7590 C   0  0  0  0  0  2  0  0  0  0  0  0
  160.0360  211.9460  155.5540 C   0  0  0  0  0  0  0  0  0  0  0  0
  160.7580  209.5850  155.6490 C   0  0  0  0  0  0  0  0  0  0  0  0
  161.8060  209.1990  156.5030 C   0  0  0  0  0  0  0  0  0  0  0  0
  159.6370  208.7520  155.5120 C   0  0  0  0  0  3  0  0  0  0  0  0
  161.7240  207.9950  157.2100 C   0  0  0  0  0  3  0  0  0  0  0  0
  160.6040  207.1720  157.0680 C   0  0  0  0  0  3  0  0  0  0  0  0
  159.5600  207.5510  156.2210 C   0  0  0  0  0  3  0  0  0  0  0  0
  162.9300  210.0030  156.6520 O   0  0  0  0  0  1  0  0  0  0  0  0
  161.6860  210.0120  152.8290 C   0  0  0  0  0  2  0  0  0  0  0  0
  161.2400  209.0490  151.7440 C   0  0  0  0  0  2  0  0  0  0  0  0
  162.0220  207.8810  151.7890 O   0  0  0  0  0  0  0  0  0  0  0  0
  161.6760  206.5850  153.7050 O   0  0  0  0  0  1  0  0  0  0  0  0
  161.2710  206.8430  152.3870 C   0  0  2  0  0  3  0  0  0  0  0  0
  160.8860  205.6510  150.0810 C   0  0  0  0  0  2  0  0  0  0  0  0
  161.1740  203.0760  151.4890 C   0  0  0  0  0  2  0  0  0  0  0  0
  161.0770  204.3220  149.3540 C   0  0  0  0  0  2  0  0  0  0  0  0
  161.2450  204.3990  152.2050 C   0  0  0  0  0  3  0  0  0  0  0  0
  160.4410  203.2000  150.1600 C   0  0  1  0  0  3  0  0  0  0  0  0
  160.5470  202.0010  149.4560 O   0  0  0  0  0  1  0  0  0  0  0  0
  161.2040  205.5800  151.5600 C   0  0  0  0  0  0  0  0  0  0  0  0
  2  9  1  0  0  0  0
  3  8  1  0  0  0  0
  3  4  1  0  0  0  0
  4  2  2  0  0  0  0
  5  3  2  0  0  0  0
  6  7  1  0  0  0  0
  7  9  1  0  0  0  0
  7 10  1  1  0  0  0
  8  6  1  0  0  0  0
  9  1  2  0  0  0  0
 10 11  1  0  0  0  0
 11 16  1  0  0  0  0
 11 13  2  0  0  0  0
 12 10  2  0  0  0  0
 12 15  1  0  0  0  0
 14 13  1  0  0  0  0
 15 14  2  0  0  0  0
 17  6  1  0  0  0  0
 18 19  1  0  0  0  0
 18 17  1  0  0  0  0
 19 21  1  0  0  0  0
 21 20  1  1  0  0  0
 22 28  1  0  0  0  0
 23 25  1  0  0  0  0
 24 22  1  0  0  0  0
 24 26  1  0  0  0  0
 26 27  1  6  0  0  0
 26 23  1  0  0  0  0
 28 25  2  0  0  0  0
 28 21  1  0  0  0  0
M  END
>  <MODEL>
1

>  <REMARK>
 VINA RESULT:      -7.5      0.000      0.000
  Name = 
  6 active torsions:
  status: ('A' for Active; 'I' for Inactive)
    1  A    between atoms: C_5  and  C_14
    2  A    between atoms: N_10  and  C_17
    3  A    between atoms: C_13  and  C_17
    4  A    between atoms: C_13  and  O_19
    5  A    between atoms: O_19  and  C_25
    6  A    between atoms: C_25  and  C_28
                            x       y       z     vdW  Elec       q    Type
                         _______ _______ _______ _____ _____    ______ ____

>  <TORSDO>
F 6

$$$$
=
 OpenBabel11072411173D

 28 30  0  0  1  0  0  0  0  0999 V2000
  163.5180  210.5920  152.1370 O   0  0  0  0  0  0  0  0  0  0  0  0
  162.3040  210.5460  150.1650 N   0  0  0  0  0  0  0  0  0  0  0  0
  161.8100  208.3470  149.0580 C   0  0  0  0  0  0  0  0  0  0  0  0
  161.8640  209.7760  149.0720 N   0  0  0  0  0  0  0  0  0  0  0  0
  161.5230  207.7480  147.9900 O   0  0  0  0  0  0  0  0  0  0  0  0
  161.1110  208.0130  151.3050 N   0  0  0  0  0  0  0  0  0  0  0  0
  161.7350  209.0150  152.1820 C   0  0  1  0  0  3  0  0  0  0  0  0
  162.0530  207.5640  150.2930 C   0  0  0  0  0  2  0  0  0  0  0  0
  162.5880  210.0530  151.4820 C   0  0  0  0  0  0  0  0  0  0  0  0
  160.6930  209.6970  153.0270 C   0  0  0  0  0  0  0  0  0  0  0  0
  160.6490  209.4740  154.4140 C   0  0  0  0  0  0  0  0  0  0  0  0
  159.7420  210.5400  152.4330 C   0  0  0  0  0  3  0  0  0  0  0  0
  159.6650  210.0930  155.1900 C   0  0  0  0  0  3  0  0  0  0  0  0
  158.7220  210.9320  154.5910 C   0  0  0  0  0  3  0  0  0  0  0  0
  158.7610  211.1560  153.2130 C   0  0  0  0  0  3  0  0  0  0  0  0
  161.5760  208.6380  155.0260 O   0  0  0  0  0  1  0  0  0  0  0  0
  160.8100  206.8410  152.1170 C   0  0  0  0  0  2  0  0  0  0  0  0
  162.0980  206.1580  152.5390 C   0  0  0  0  0  2  0  0  0  0  0  0
  162.2670  204.9660  151.8120 O   0  0  0  0  0  0  0  0  0  0  0  0
  160.6530  203.5120  152.6810 O   0  0  0  0  0  1  0  0  0  0  0  0
  161.0050  204.3580  151.6180 C   0  0  2  0  0  3  0  0  0  0  0  0
  160.5320  202.1940  150.2100 C   0  0  0  0  0  2  0  0  0  0  0  0
  161.1040  203.7790  147.7890 C   0  0  0  0  0  2  0  0  0  0  0  0
  160.1950  201.7120  148.8010 C   0  0  0  0  0  2  0  0  0  0  0  0
  161.1990  204.3600  149.1750 C   0  0  0  0  0  3  0  0  0  0  0  0
  161.2140  202.2600  147.8130 C   0  0  1  0  0  3  0  0  0  0  0  0
  160.9500  201.7540  146.5410 O   0  0  0  0  0  1  0  0  0  0  0  0
  160.8550  203.6730  150.2800 C   0  0  0  0  0  0  0  0  0  0  0  0
  2  9  1  0  0  0  0
  3  4  1  0  0  0  0
  3  8  1  0  0  0  0
  4  2  2  0  0  0  0
  5  3  2  0  0  0  0
  6 17  1  0  0  0  0
  6  7  1  0  0  0  0
  7 10  1  6  0  0  0
  8  6  1  0  0  0  0
  9  1  2  0  0  0  0
  9  7  1  0  0  0  0
 10 11  1  0  0  0  0
 11 16  1  0  0  0  0
 11 13  2  0  0  0  0
 12 10  2  0  0  0  0
 12 15  1  0  0  0  0
 14 13  1  0  0  0  0
 15 14  2  0  0  0  0
 17 18  1  0  0  0  0
 19 18  1  0  0  0  0
 21 19  1  0  0  0  0
 21 20  1  1  0  0  0
 22 28  1  0  0  0  0
 23 26  1  0  0  0  0
 23 25  1  0  0  0  0
 24 22  1  0  0  0  0
 25 28  2  0  0  0  0
 26 27  1  6  0  0  0
 26 24  1  0  0  0  0
 28 21  1  0  0  0  0
M  END
>  <MODEL>
2

>  <REMARK>
 VINA RESULT:      -7.2      2.814      4.141
  Name = 
  6 active torsions:
  status: ('A' for Active; 'I' for Inactive)
    1  A    between atoms: C_5  and  C_14
    2  A    between atoms: N_10  and  C_17
    3  A    between atoms: C_13  and  C_17
    4  A    between atoms: C_13  and  O_19
    5  A    between atoms: O_19  and  C_25
    6  A    between atoms: C_25  and  C_28
                            x       y       z     vdW  Elec       q    Type
                         _______ _______ _______ _____ _____    ______ ____

>  <TORSDO>
F 6

$$$$
=
 OpenBabel11072411173D

 28 30  0  0  1  0  0  0  0  0999 V2000
  158.1660  210.9270  157.2380 O   0  0  0  0  0  0  0  0  0  0  0  0
  160.2610  211.9150  157.2570 N   0  0  0  0  0  0  0  0  0  0  0  0
  162.1640  210.8220  156.0370 C   0  0  0  0  0  0  0  0  0  0  0  0
  161.6300  211.7770  156.9570 N   0  0  0  0  0  0  0  0  0  0  0  0
  163.4110  210.6920  155.9330 O   0  0  0  0  0  0  0  0  0  0  0  0
  160.4340  210.9120  154.4100 N   0  0  0  0  0  0  0  0  0  0  0  0
  159.1310  211.0960  155.0680 C   0  0  1  0  0  3  0  0  0  0  0  0
  161.2700  210.0060  155.1810 C   0  0  0  0  0  2  0  0  0  0  0  0
  159.1800  211.2660  156.5740 C   0  0  0  0  0  0  0  0  0  0  0  0
  158.3880  212.2480  154.4490 C   0  0  0  0  0  0  0  0  0  0  0  0
  156.9960  212.1770  154.2670 C   0  0  0  0  0  0  0  0  0  0  0  0
  159.0820  213.3920  154.0250 C   0  0  0  0  0  3  0  0  0  0  0  0
  156.3140  213.2420  153.6710 C   0  0  0  0  0  3  0  0  0  0  0  0
  157.0120  214.3770  153.2520 C   0  0  0  0  0  3  0  0  0  0  0  0
  158.3950  214.4530  153.4300 C   0  0  0  0  0  3  0  0  0  0  0  0
  156.2860  211.0530  154.6730 O   0  0  0  0  0  1  0  0  0  0  0  0
  160.1950  210.2470  153.1360 C   0  0  0  0  0  2  0  0  0  0  0  0
  160.8030  208.8560  153.1550 C   0  0  0  0  0  2  0  0  0  0  0  0
  160.4820  208.1780  151.9650 O   0  0  0  0  0  0  0  0  0  0  0  0
  162.2100  208.4050  150.4030 O   0  0  0  0  0  1  0  0  0  0  0  0
  161.6590  207.6120  151.4220 C   0  0  2  0  0  3  0  0  0  0  0  0
  161.0300  205.8370  149.5940 C   0  0  0  0  0  2  0  0  0  0  0  0
  161.4690  203.7490  151.6300 C   0  0  0  0  0  2  0  0  0  0  0  0
  161.1430  204.3530  149.2530 C   0  0  0  0  0  2  0  0  0  0  0  0
  161.6150  205.2160  151.9350 C   0  0  0  0  0  3  0  0  0  0  0  0
  160.5980  203.5190  150.4030 C   0  0  1  0  0  3  0  0  0  0  0  0
  160.6290  202.1690  150.0560 O   0  0  0  0  0  1  0  0  0  0  0  0
  161.5050  206.1720  150.9930 C   0  0  0  0  0  0  0  0  0  0  0  0
  3  4  1  0  0  0  0
  4  2  2  0  0  0  0
  5  3  2  0  0  0  0
  6  7  1  0  0  0  0
  6  8  1  0  0  0  0
  7 10  1  6  0  0  0
  7  9  1  0  0  0  0
  8  3  1  0  0  0  0
  9  1  2  0  0  0  0
  9  2  1  0  0  0  0
 11 10  1  0  0  0  0
 11 16  1  0  0  0  0
 12 10  2  0  0  0  0
 13 11  2  0  0  0  0
 14 15  2  0  0  0  0
 14 13  1  0  0  0  0
 15 12  1  0  0  0  0
 17 18  1  0  0  0  0
 17  6  1  0  0  0  0
 19 18  1  0  0  0  0
 21 20  1  6  0  0  0
 21 19  1  0  0  0  0
 22 28  1  0  0  0  0
 23 25  1  0  0  0  0
 24 22  1  0  0  0  0
 24 26  1  0  0  0  0
 26 27  1  6  0  0  0
 26 23  1  0  0  0  0
 28 21  1  0  0  0  0
 28 25  2  0  0  0  0
M  END
>  <MODEL>
3

>  <REMARK>
 VINA RESULT:      -6.1      1.927      4.146
  Name = 
  6 active torsions:
  status: ('A' for Active; 'I' for Inactive)
    1  A    between atoms: C_5  and  C_14
    2  A    between atoms: N_10  and  C_17
    3  A    between atoms: C_13  and  C_17
    4  A    between atoms: C_13  and  O_19
    5  A    between atoms: O_19  and  C_25
    6  A    between atoms: C_25  and  C_28
                            x       y       z     vdW  Elec       q    Type
                         _______ _______ _______ _____ _____    ______ ____

>  <TORSDO>
F 6

$$$$
=
 OpenBabel11072411173D

 28 30  0  0  1  0  0  0  0  0999 V2000
  160.4510  213.0220  156.7270 O   0  0  0  0  0  0  0  0  0  0  0  0
  158.1900  212.5450  156.8900 N   0  0  0  0  0  0  0  0  0  0  0  0
  156.7590  212.5730  154.8270 C   0  0  0  0  0  0  0  0  0  0  0  0
  156.9390  212.5410  156.2450 N   0  0  0  0  0  0  0  0  0  0  0  0
  155.6010  212.6950  154.3510 O   0  0  0  0  0  0  0  0  0  0  0  0
  158.5870  211.1800  154.2220 N   0  0  0  0  0  0  0  0  0  0  0  0
  159.7230  211.4170  155.1250 C   0  0  1  0  0  3  0  0  0  0  0  0
  157.9150  212.4300  153.9090 C   0  0  0  0  0  2  0  0  0  0  0  0
  159.4660  212.3970  156.2520 C   0  0  0  0  0  0  0  0  0  0  0  0
  160.2290  210.1160  155.6860 C   0  0  0  0  0  0  0  0  0  0  0  0
  161.6080  209.9080  155.8600 C   0  0  0  0  0  0  0  0  0  0  0  0
  159.3290  209.0900  156.0180 C   0  0  0  0  0  3  0  0  0  0  0  0
  162.0730  208.6880  156.3610 C   0  0  0  0  0  3  0  0  0  0  0  0
  161.1710  207.6730  156.6890 C   0  0  0  0  0  3  0  0  0  0  0  0
  159.8000  207.8750  156.5190 C   0  0  0  0  0  3  0  0  0  0  0  0
  162.5200  210.9050  155.5340 O   0  0  0  0  0  1  0  0  0  0  0  0
  159.1220  210.6880  152.9590 C   0  0  0  0  0  2  0  0  0  0  0  0
  160.2190  211.6140  152.4650 C   0  0  0  0  0  2  0  0  0  0  0  0
  161.0200  210.9450  151.5220 O   0  0  0  0  0  0  0  0  0  0  0  0
  163.1930  210.2510  152.0420 O   0  0  0  0  0  1  0  0  0  0  0  0
  161.8220  209.9900  152.1880 C   0  0  2  0  0  3  0  0  0  0  0  0
  161.3950  207.5120  152.9390 C   0  0  0  0  0  2  0  0  0  0  0  0
  161.1320  206.8110  150.0860 C   0  0  0  0  0  2  0  0  0  0  0  0
  160.8260  206.1790  152.4580 C   0  0  0  0  0  2  0  0  0  0  0  0
  161.4470  208.2090  150.5470 C   0  0  0  0  0  3  0  0  0  0  0  0
  161.4880  205.7800  151.1490 C   0  0  1  0  0  3  0  0  0  0  0  0
  161.0250  204.5250  150.7540 O   0  0  0  0  0  1  0  0  0  0  0  0
  161.4810  208.5590  151.8470 C   0  0  0  0  0  0  0  0  0  0  0  0
  3  4  1  0  0  0  0
  4  2  2  0  0  0  0
  5  3  2  0  0  0  0
  6  7  1  0  0  0  0
  7 10  1  1  0  0  0
  7  9  1  0  0  0  0
  8  6  1  0  0  0  0
  8  3  1  0  0  0  0
  9  1  2  0  0  0  0
  9  2  1  0  0  0  0
 10 11  2  0  0  0  0
 10 12  1  0  0  0  0
 11 13  1  0  0  0  0
 12 15  2  0  0  0  0
 13 14  2  0  0  0  0
 15 14  1  0  0  0  0
 16 11  1  0  0  0  0
 17  6  1  0  0  0  0
 18 17  1  0  0  0  0
 19 21  1  0  0  0  0
 19 18  1  0  0  0  0
 21 20  1  6  0  0  0
 23 25  1  0  0  0  0
 23 26  1  0  0  0  0
 24 22  1  0  0  0  0
 25 28  2  0  0  0  0
 26 27  1  6  0  0  0
 26 24  1  0  0  0  0
 28 21  1  0  0  0  0
 28 22  1  0  0  0  0
M  END
>  <MODEL>
4

>  <REMARK>
 VINA RESULT:      -5.7      1.735      2.632
  Name = 
  6 active torsions:
  status: ('A' for Active; 'I' for Inactive)
    1  A    between atoms: C_5  and  C_14
    2  A    between atoms: N_10  and  C_17
    3  A    between atoms: C_13  and  C_17
    4  A    between atoms: C_13  and  O_19
    5  A    between atoms: O_19  and  C_25
    6  A    between atoms: C_25  and  C_28
                            x       y       z     vdW  Elec       q    Type
                         _______ _______ _______ _____ _____    ______ ____

>  <TORSDO>
F 6

$$$$
=
 OpenBabel11072411173D

 28 30  0  0  1  0  0  0  0  0999 V2000
  163.5840  210.5710  152.9200 O   0  0  0  0  0  0  0  0  0  0  0  0
  162.4320  210.8740  150.9330 N   0  0  0  0  0  0  0  0  0  0  0  0
  161.9480  208.8980  149.4620 C   0  0  0  0  0  0  0  0  0  0  0  0
  162.0180  210.3030  149.7150 N   0  0  0  0  0  0  0  0  0  0  0  0
  161.6870  208.4890  148.3010 O   0  0  0  0  0  0  0  0  0  0  0  0
  161.1730  208.2070  151.6000 N   0  0  0  0  0  0  0  0  0  0  0  0
  161.7820  209.0390  152.6500 C   0  0  1  0  0  3  0  0  0  0  0  0
  162.1410  207.9160  150.5550 C   0  0  0  0  0  2  0  0  0  0  0  0
  162.6690  210.1640  152.1570 C   0  0  0  0  0  0  0  0  0  0  0  0
  160.7210  209.5880  153.5650 C   0  0  0  0  0  0  0  0  0  0  0  0
  160.6650  209.1800  154.9090 C   0  0  0  0  0  0  0  0  0  0  0  0
  159.7660  210.4940  153.0780 C   0  0  0  0  0  3  0  0  0  0  0  0
  159.6640  209.6780  155.7490 C   0  0  0  0  0  3  0  0  0  0  0  0
  158.7170  210.5790  155.2560 C   0  0  0  0  0  3  0  0  0  0  0  0
  158.7690  210.9880  153.9220 C   0  0  0  0  0  3  0  0  0  0  0  0
  161.5960  208.2800  155.4150 O   0  0  0  0  0  1  0  0  0  0  0  0
  160.8330  206.9220  152.1960 C   0  0  0  0  0  2  0  0  0  0  0  0
  161.3580  205.7920  151.3300 C   0  0  0  0  0  2  0  0  0  0  0  0
  160.3230  205.2880  150.5210 O   0  0  0  0  0  0  0  0  0  0  0  0
  161.9320  203.6000  150.3320 O   0  0  0  0  0  1  0  0  0  0  0  0
  160.8240  204.2230  149.7380 C   0  0  2  0  0  3  0  0  0  0  0  0
  160.4850  205.8510  147.7070 C   0  0  0  0  0  2  0  0  0  0  0  0
  162.0260  203.9460  146.0660 C   0  0  0  0  0  2  0  0  0  0  0  0
  161.0300  206.1960  146.3230 C   0  0  0  0  0  2  0  0  0  0  0  0
  161.7160  203.6930  147.5180 C   0  0  0  0  0  3  0  0  0  0  0  0
  161.0550  204.9480  145.4550 C   0  0  1  0  0  3  0  0  0  0  0  0
  161.4780  205.2810  144.1690 O   0  0  0  0  0  1  0  0  0  0  0  0
  161.0920  204.5950  148.2980 C   0  0  0  0  0  0  0  0  0  0  0  0
  2  9  1  0  0  0  0
  3  4  1  0  0  0  0
  3  8  1  0  0  0  0
  4  2  2  0  0  0  0
  5  3  2  0  0  0  0
  6 17  1  0  0  0  0
  6  7  1  0  0  0  0
  7 10  1  6  0  0  0
  8  6  1  0  0  0  0
  9  7  1  0  0  0  0
  9  1  2  0  0  0  0
 10 11  1  0  0  0  0
 11 16  1  0  0  0  0
 11 13  2  0  0  0  0
 12 10  2  0  0  0  0
 12 15  1  0  0  0  0
 14 13  1  0  0  0  0
 15 14  2  0  0  0  0
 18 17  1  0  0  0  0
 19 18  1  0  0  0  0
 21 20  1  1  0  0  0
 21 19  1  0  0  0  0
 22 28  1  0  0  0  0
 23 25  1  0  0  0  0
 24 22  1  0  0  0  0
 25 28  2  0  0  0  0
 26 27  1  6  0  0  0
 26 23  1  0  0  0  0
 26 24  1  0  0  0  0
 28 21  1  0  0  0  0
M  END
>  <MODEL>
5

>  <REMARK>
 VINA RESULT:      -5.4      2.719      4.289
  Name = 
  6 active torsions:
  status: ('A' for Active; 'I' for Inactive)
    1  A    between atoms: C_5  and  C_14
    2  A    between atoms: N_10  and  C_17
    3  A    between atoms: C_13  and  C_17
    4  A    between atoms: C_13  and  O_19
    5  A    between atoms: O_19  and  C_25
    6  A    between atoms: C_25  and  C_28
                            x       y       z     vdW  Elec       q    Type
                         _______ _______ _______ _____ _____    ______ ____

>  <TORSDO>
F 6

$$$$
=
 OpenBabel11072411173D

 28 30  0  0  1  0  0  0  0  0999 V2000
  163.7670  205.8280  151.9950 O   0  0  0  0  0  0  0  0  0  0  0  0
  161.8170  205.2340  153.0930 N   0  0  0  0  0  0  0  0  0  0  0  0
  160.5630  206.9550  154.4240 C   0  0  0  0  0  0  0  0  0  0  0  0
  160.8310  205.6080  154.0260 N   0  0  0  0  0  0  0  0  0  0  0  0
  159.7490  207.1750  155.3580 O   0  0  0  0  0  0  0  0  0  0  0  0
  160.8840  208.0020  152.3150 N   0  0  0  0  0  0  0  0  0  0  0  0
  161.9730  207.3380  151.5820 C   0  0  1  0  0  3  0  0  0  0  0  0
  161.2050  208.0960  153.7300 C   0  0  0  0  0  2  0  0  0  0  0  0
  162.5750  206.1270  152.2660 C   0  0  0  0  0  0  0  0  0  0  0  0
  161.5240  206.9700  150.1940 C   0  0  0  0  0  0  0  0  0  0  0  0
  161.7130  207.8660  149.1280 C   0  0  0  0  0  0  0  0  0  0  0  0
  160.8920  205.7390  149.9580 C   0  0  0  0  0  3  0  0  0  0  0  0
  161.2740  207.5270  147.8440 C   0  0  0  0  0  3  0  0  0  0  0  0
  160.6460  206.3000  147.6180 C   0  0  0  0  0  3  0  0  0  0  0  0
  160.4560  205.4060  148.6740 C   0  0  0  0  0  3  0  0  0  0  0  0
  162.3320  209.0930  149.3360 O   0  0  0  0  0  1  0  0  0  0  0  0
  160.8000  209.3750  151.8330 C   0  0  0  0  0  2  0  0  0  0  0  0
  161.2650  210.3330  152.9140 C   0  0  0  0  0  2  0  0  0  0  0  0
  160.3540  211.3990  153.0330 O   0  0  0  0  0  0  0  0  0  0  0  0
  161.3430  211.2570  155.1480 O   0  0  0  0  0  1  0  0  0  0  0  0
  160.3230  211.8340  154.3780 C   0  0  2  0  0  3  0  0  0  0  0  0
  157.7250  211.5060  154.1930 C   0  0  0  0  0  2  0  0  0  0  0  0
  157.5890  211.8230  157.1220 C   0  0  0  0  0  2  0  0  0  0  0  0
  156.4840  211.1560  155.0110 C   0  0  0  0  0  2  0  0  0  0  0  0
  158.8830  211.9220  156.3600 C   0  0  0  0  0  3  0  0  0  0  0  0
  156.3890  212.0760  156.2190 C   0  0  1  0  0  3  0  0  0  0  0  0
  155.2140  211.8060  156.9190 O   0  0  0  0  0  1  0  0  0  0  0  0
  158.9710  211.6910  155.0360 C   0  0  0  0  0  0  0  0  0  0  0  0
  1  9  2  0  0  0  0
  2  4  2  0  0  0  0
  3  5  2  0  0  0  0
  4  3  1  0  0  0  0
  6  8  1  0  0  0  0
  7 10  1  6  0  0  0
  7  9  1  0  0  0  0
  7  6  1  0  0  0  0
  8  3  1  0  0  0  0
  9  2  1  0  0  0  0
 11 16  1  0  0  0  0
 11 10  2  0  0  0  0
 12 10  1  0  0  0  0
 13 11  1  0  0  0  0
 14 13  2  0  0  0  0
 14 15  1  0  0  0  0
 15 12  2  0  0  0  0
 17  6  1  0  0  0  0
 17 18  1  0  0  0  0
 18 19  1  0  0  0  0
 19 21  1  0  0  0  0
 21 28  1  0  0  0  0
 21 20  1  1  0  0  0
 22 24  1  0  0  0  0
 22 28  1  0  0  0  0
 24 26  1  0  0  0  0
 25 23  1  0  0  0  0
 26 27  1  1  0  0  0
 26 23  1  0  0  0  0
 28 25  2  0  0  0  0
M  END
>  <MODEL>
6

>  <REMARK>
 VINA RESULT:      -5.0      2.743      7.561
  Name = 
  6 active torsions:
  status: ('A' for Active; 'I' for Inactive)
    1  A    between atoms: C_5  and  C_14
    2  A    between atoms: N_10  and  C_17
    3  A    between atoms: C_13  and  C_17
    4  A    between atoms: C_13  and  O_19
    5  A    between atoms: O_19  and  C_25
    6  A    between atoms: C_25  and  C_28
                            x       y       z     vdW  Elec       q    Type
                         _______ _______ _______ _____ _____    ______ ____

>  <TORSDO>
F 6

$$$$
=
 OpenBabel11072411173D

 28 30  0  0  1  0  0  0  0  0999 V2000
  163.4310  205.9260  152.3290 O   0  0  0  0  0  0  0  0  0  0  0  0
  161.3360  206.6200  153.0320 N   0  0  0  0  0  0  0  0  0  0  0  0
  160.5880  208.9740  152.5810 C   0  0  0  0  0  0  0  0  0  0  0  0
  160.4590  207.7040  153.2260 N   0  0  0  0  0  0  0  0  0  0  0  0
  159.8280  209.9190  152.9160 O   0  0  0  0  0  0  0  0  0  0  0  0
  161.3210  208.2020  150.4560 N   0  0  0  0  0  0  0  0  0  0  0  0
  162.1980  207.0320  150.6190 C   0  0  1  0  0  3  0  0  0  0  0  0
  161.5790  209.1810  151.4990 C   0  0  0  0  0  2  0  0  0  0  0  0
  162.3710  206.5400  152.0420 C   0  0  0  0  0  0  0  0  0  0  0  0
  161.7350  205.9020  149.7410 C   0  0  0  0  0  0  0  0  0  0  0  0
  162.0170  205.9130  148.3640 C   0  0  0  0  0  0  0  0  0  0  0  0
  160.9970  204.8390  150.2860 C   0  0  0  0  0  3  0  0  0  0  0  0
  161.5650  204.8700  147.5500 C   0  0  0  0  0  3  0  0  0  0  0  0
  160.8310  203.8160  148.1000 C   0  0  0  0  0  3  0  0  0  0  0  0
  160.5490  203.8000  149.4680 C   0  0  0  0  0  3  0  0  0  0  0  0
  162.7410  206.9570  147.7990 O   0  0  0  0  0  1  0  0  0  0  0  0
  161.6800  208.8510  149.2020 C   0  0  0  0  0  2  0  0  0  0  0  0
  161.9680  210.3220  149.4430 C   0  0  0  0  0  2  0  0  0  0  0  0
  162.4530  210.9140  148.2630 O   0  0  0  0  0  0  0  0  0  0  0  0
  161.2150  212.6060  149.3000 O   0  0  0  0  0  1  0  0  0  0  0  0
  162.0460  212.2680  148.2220 C   0  0  2  0  0  3  0  0  0  0  0  0
  160.0760  212.2070  146.4890 C   0  0  0  0  0  2  0  0  0  0  0  0
  161.7720  213.7970  144.6740 C   0  0  0  0  0  2  0  0  0  0  0  0
  159.5370  212.8980  145.2390 C   0  0  0  0  0  2  0  0  0  0  0  0
  162.2480  213.3380  146.0270 C   0  0  0  0  0  3  0  0  0  0  0  0
  160.6180  212.9410  144.1690 C   0  0  1  0  0  3  0  0  0  0  0  0
  160.0980  213.5010  143.0030 O   0  0  0  0  0  1  0  0  0  0  0  0
  161.4530  212.6900  146.8990 C   0  0  0  0  0  0  0  0  0  0  0  0
  2  4  2  0  0  0  0
  3  5  2  0  0  0  0
  3  4  1  0  0  0  0
  6  7  1  0  0  0  0
  6  8  1  0  0  0  0
  7 10  1  6  0  0  0
  7  9  1  0  0  0  0
  8  3  1  0  0  0  0
  9  1  2  0  0  0  0
  9  2  1  0  0  0  0
 10 12  1  0  0  0  0
 11 10  2  0  0  0  0
 13 14  2  0  0  0  0
 13 11  1  0  0  0  0
 14 15  1  0  0  0  0
 15 12  2  0  0  0  0
 16 11  1  0  0  0  0
 17 18  1  0  0  0  0
 17  6  1  0  0  0  0
 19 18  1  0  0  0  0
 21 19  1  0  0  0  0
 21 20  1  1  0  0  0
 22 28  1  0  0  0  0
 23 25  1  0  0  0  0
 24 22  1  0  0  0  0
 25 28  2  0  0  0  0
 26 27  1  6  0  0  0
 26 23  1  0  0  0  0
 26 24  1  0  0  0  0
 28 21  1  0  0  0  0
M  END
>  <MODEL>
7

>  <REMARK>
 VINA RESULT:      -4.9      4.520      7.881
  Name = 
  6 active torsions:
  status: ('A' for Active; 'I' for Inactive)
    1  A    between atoms: C_5  and  C_14
    2  A    between atoms: N_10  and  C_17
    3  A    between atoms: C_13  and  C_17
    4  A    between atoms: C_13  and  O_19
    5  A    between atoms: O_19  and  C_25
    6  A    between atoms: C_25  and  C_28
                            x       y       z     vdW  Elec       q    Type
                         _______ _______ _______ _____ _____    ______ ____

>  <TORSDO>
F 6

$$$$
=
 OpenBabel11072411173D

 28 30  0  0  1  0  0  0  0  0999 V2000
  163.8150  204.7030  145.2610 O   0  0  0  0  0  0  0  0  0  0  0  0
  161.6210  204.2480  144.6750 N   0  0  0  0  0  0  0  0  0  0  0  0
  160.4310  202.3010  145.7220 C   0  0  0  0  0  0  0  0  0  0  0  0
  160.5480  203.3390  144.7460 N   0  0  0  0  0  0  0  0  0  0  0  0
  159.4990  201.4610  145.6250 O   0  0  0  0  0  0  0  0  0  0  0  0
  161.3130  203.4850  147.5850 N   0  0  0  0  0  0  0  0  0  0  0  0
  162.4000  204.3750  147.1480 C   0  0  1  0  0  3  0  0  0  0  0  0
  161.3690  202.2220  146.8670 C   0  0  0  0  0  2  0  0  0  0  0  0
  162.6570  204.4060  145.6540 C   0  0  0  0  0  0  0  0  0  0  0  0
  162.1720  205.7730  147.6550 C   0  0  0  0  0  0  0  0  0  0  0  0
  161.0270  206.4890  147.2660 C   0  0  0  0  0  0  0  0  0  0  0  0
  163.1130  206.3810  148.5010 C   0  0  0  0  0  3  0  0  0  0  0  0
  160.8310  207.7960  147.7240 C   0  0  0  0  0  3  0  0  0  0  0  0
  161.7720  208.3940  148.5660 C   0  0  0  0  0  3  0  0  0  0  0  0
  162.9120  207.6870  148.9550 C   0  0  0  0  0  3  0  0  0  0  0  0
  160.0830  205.9120  146.4250 O   0  0  0  0  0  1  0  0  0  0  0  0
  161.5450  203.1590  148.9850 C   0  0  0  0  0  2  0  0  0  0  0  0
  160.3290  203.5320  149.8130 C   0  0  0  0  0  2  0  0  0  0  0  0
  160.4910  204.8250  150.3450 O   0  0  0  0  0  0  0  0  0  0  0  0
  160.8190  203.6330  152.3310 O   0  0  0  0  0  1  0  0  0  0  0  0
  161.2070  204.7400  151.5610 C   0  0  2  0  0  3  0  0  0  0  0  0
  161.2050  205.9670  153.8810 C   0  0  0  0  0  2  0  0  0  0  0  0
  160.9550  208.5110  152.4100 C   0  0  0  0  0  2  0  0  0  0  0  0
  161.4210  207.3300  154.5340 C   0  0  0  0  0  2  0  0  0  0  0  0
  160.9960  207.1770  151.7130 C   0  0  0  0  0  3  0  0  0  0  0  0
  160.5310  208.3660  153.8660 C   0  0  1  0  0  3  0  0  0  0  0  0
  160.6710  209.5920  154.5150 O   0  0  0  0  0  1  0  0  0  0  0  0
  161.1990  206.0180  152.3670 C   0  0  0  0  0  0  0  0  0  0  0  0
  1  9  2  0  0  0  0
  2  4  2  0  0  0  0
  2  9  1  0  0  0  0
  3  8  1  0  0  0  0
  4  3  1  0  0  0  0
  5  3  2  0  0  0  0
  6 17  1  0  0  0  0
  7  6  1  0  0  0  0
  7 10  1  6  0  0  0
  8  6  1  0  0  0  0
  9  7  1  0  0  0  0
 10 12  1  0  0  0  0
 11 10  2  0  0  0  0
 11 13  1  0  0  0  0
 12 15  2  0  0  0  0
 13 14  2  0  0  0  0
 14 15  1  0  0  0  0
 16 11  1  0  0  0  0
 17 18  1  0  0  0  0
 18 19  1  0  0  0  0
 19 21  1  0  0  0  0
 21 20  1  1  0  0  0
 21 28  1  0  0  0  0
 22 24  1  0  0  0  0
 23 26  1  0  0  0  0
 25 28  2  0  0  0  0
 25 23  1  0  0  0  0
 26 27  1  1  0  0  0
 26 24  1  0  0  0  0
 28 22  1  0  0  0  0
M  END
>  <MODEL>
8

>  <REMARK>
 VINA RESULT:      -4.9      4.474      9.022
  Name = 
  6 active torsions:
  status: ('A' for Active; 'I' for Inactive)
    1  A    between atoms: C_5  and  C_14
    2  A    between atoms: N_10  and  C_17
    3  A    between atoms: C_13  and  C_17
    4  A    between atoms: C_13  and  O_19
    5  A    between atoms: O_19  and  C_25
    6  A    between atoms: C_25  and  C_28
                            x       y       z     vdW  Elec       q    Type
                         _______ _______ _______ _____ _____    ______ ____

>  <TORSDO>
F 6

$$$$
