=
 OpenBabel11072415193D

 58 64  0  0  1  0  0  0  0  0999 V2000
  163.2070  206.4310  152.7960 C   0  0  0  0  0  2  0  0  0  0  0  0
  160.6270  210.2570  153.5760 C   0  0  1  0  0  3  0  0  0  0  0  0
  161.2570  208.9590  153.0620 C   0  0  1  0  0  3  0  0  0  0  0  0
  160.9780  206.5620  151.4750 C   0  0  1  0  0  3  0  0  0  0  0  0
  163.0470  208.7370  151.7780 C   0  0  0  0  0  2  0  0  0  0  0  0
  159.1140  210.2310  153.7540 C   0  0  1  0  0  3  0  0  0  0  0  0
  161.4220  207.6120  157.2320 O   0  0  0  0  0  1  0  0  0  0  0  0
  161.4790  207.4350  154.9780 O   0  0  0  0  0  0  0  0  0  0  0  0
  162.6500  209.0840  153.0700 O   0  0  0  0  0  0  0  0  0  0  0  0
  160.7850  207.6820  153.7770 C   0  0  2  0  0  3  0  0  0  0  0  0
  163.4230  209.2610  157.0400 O   0  0  0  0  0  0  0  0  0  0  0  0
  161.3670  209.5990  155.9510 N   0  0  0  0  0  0  0  0  0  0  0  0
  160.9270  208.1770  156.0460 C   0  0  2  0  0  0  0  0  0  0  0  0
  160.6260  206.3780  152.9400 C   0  0  2  0  0  3  0  0  0  0  0  0
  159.2840  210.7640  155.1980 C   0  0  1  0  0  3  0  0  0  0  0  0
  161.9060  205.7430  152.3630 C   0  0  2  0  0  3  0  0  0  0  0  0
  160.7890  210.6310  155.0550 C   0  0  2  0  0  3  0  0  0  0  0  0
  163.8060  207.4150  151.7930 C   0  0  0  0  0  2  0  0  0  0  0  0
  162.5230  210.0650  156.6770 C   0  0  0  0  0  0  0  0  0  0  0  0
  156.9110  213.1790  156.4440 C   0  0  1  0  0  3  0  0  0  0  0  0
  158.2010  212.8430  154.3830 C   0  0  0  0  0  2  0  0  0  0  0  0
  157.0050  213.4610  154.9960 C   0  0  0  0  0  0  0  0  0  0  0  0
  156.1080  213.9750  154.3460 O   0  0  0  0  0  0  0  0  0  0  0  0
  158.0550  212.2050  156.6730 C   0  0  0  0  0  2  0  0  0  0  0  0
  157.1420  214.4530  157.2440 C   0  0  0  0  0  1  0  0  0  0  0  0
  158.9060  212.1680  155.4760 N   0  0  1  0  0  0  0  0  0  0  0  0
  160.7500  205.6340  149.1940 N   0  0  0  0  0  2  0  0  0  0  0  0
  160.2500  205.5850  150.5550 C   0  0  1  0  0  3  0  0  0  0  0  0
  160.4660  204.1660  151.0350 C   0  0  0  0  0  2  0  0  0  0  0  0
  160.4740  203.3400  149.7710 C   0  0  0  0  0  2  0  0  0  0  0  0
  160.3270  204.3550  148.6420 C   0  0  2  0  0  3  0  0  0  0  0  0
  161.1730  203.9900  147.4190 C   0  0  1  0  0  3  0  0  0  0  0  0
  162.5010  204.3880  147.5830 O   0  0  0  0  0  1  0  0  0  0  0  0
  160.4360  200.9700  145.3200 N   0  0  0  0  0  0  0  0  0  0  0  0
  161.0040  198.3280  145.3360 Cl  0  0  0  0  0  0  0  0  0  0  0  0
  161.0740  199.9630  145.9710 C   0  0  0  0  0  0  0  0  0  0  0  0
  160.4410  202.2380  145.8020 C   0  0  0  0  0  3  0  0  0  0  0  0
  161.7790  201.5190  147.6720 C   0  0  0  0  0  3  0  0  0  0  0  0
  161.7450  200.2170  147.1710 C   0  0  0  0  0  3  0  0  0  0  0  0
  161.1230  202.5480  146.9840 C   0  0  0  0  0  0  0  0  0  0  0  0
  159.0060  206.7130  155.8950 O   0  0  0  0  0  1  0  0  0  0  0  0
  159.3950  208.0300  156.1360 C   0  0  0  0  0  2  0  0  0  0  0  0
  162.6390  211.4280  156.9680 O   0  0  0  0  0  0  0  0  0  0  0  0
  163.8950  212.0700  157.1550 C   0  0  0  0  0  2  0  0  0  0  0  0
  164.9160  211.4260  156.2350 C   0  0  0  0  0  2  0  0  0  0  0  0
  166.2380  212.4900  154.5780 O   0  0  0  0  0  0  0  0  0  0  0  0
  165.9330  212.4240  155.7600 C   0  0  0  0  0  0  0  0  0  0  0  0
  167.8730  213.9250  156.1380 C   0  0  0  0  0  1  0  0  0  0  0  0
  166.6310  213.2950  156.7590 C   0  0  0  0  0  2  0  0  0  0  0  0
  158.4780  211.1270  152.8720 O   0  0  0  0  0  0  0  0  0  0  0  0
  159.4760  211.8050  152.1460 C   0  0  2  0  0  3  0  0  0  0  0  0
  159.9950  212.8840  152.8610 O   0  0  0  0  0  1  0  0  0  0  0  0
  158.9860  212.1900  150.7490 C   0  0  1  0  0  3  0  0  0  0  0  0
  157.6040  212.2620  150.7260 F   0  0  0  0  0  0  0  0  0  0  0  0
  159.5760  214.4100  151.3810 F   0  0  0  0  0  0  0  0  0  0  0  0
  159.5860  213.5300  150.3150 C   0  0  0  0  0  0  0  0  0  0  0  0
  158.8410  214.0940  149.2990 F   0  0  0  0  0  0  0  0  0  0  0  0
  160.8870  213.3440  149.8790 F   0  0  0  0  0  0  0  0  0  0  0  0
  2  6  1  0  0  0  0
  2 17  1  0  0  0  0
  3  9  1  0  0  0  0
  3  2  1  0  0  0  0
  3 10  1  0  0  0  0
  4 16  1  0  0  0  0
  4 14  1  0  0  0  0
  5 18  1  0  0  0  0
  5  9  1  0  0  0  0
  6 15  1  0  0  0  0
  8 13  1  0  0  0  0
 10  8  1  0  0  0  0
 12 13  1  0  0  0  0
 12 19  1  0  0  0  0
 13 42  1  0  0  0  0
 13  7  1  0  0  0  0
 14 10  1  0  0  0  0
 15 26  1  0  0  0  0
 16  1  1  0  0  0  0
 16 14  1  0  0  0  0
 17 15  1  0  0  0  0
 17 12  1  0  0  0  0
 18  1  1  0  0  0  0
 19 43  1  0  0  0  0
 19 11  2  0  0  0  0
 20 24  1  0  0  0  0
 20 25  1  0  0  0  0
 21 22  1  0  0  0  0
 21 26  1  0  0  0  0
 22 20  1  0  0  0  0
 23 22  2  0  0  0  0
 26 24  1  0  0  0  0
 27 28  1  0  0  0  0
 28 29  1  0  0  0  0
 28  4  1  0  0  0  0
 30 29  1  0  0  0  0
 31 27  1  0  0  0  0
 31 30  1  0  0  0  0
 32 33  1  0  0  0  0
 32 31  1  0  0  0  0
 34 37  2  0  0  0  0
 34 36  1  0  0  0  0
 35 36  1  0  0  0  0
 36 39  2  0  0  0  0
 37 40  1  0  0  0  0
 39 38  1  0  0  0  0
 40 32  1  0  0  0  0
 40 38  2  0  0  0  0
 41 42  1  0  0  0  0
 43 44  1  0  0  0  0
 45 44  1  0  0  0  0
 46 47  2  0  0  0  0
 47 45  1  0  0  0  0
 47 49  1  0  0  0  0
 48 49  1  0  0  0  0
 50  6  1  0  0  0  0
 51 52  1  0  0  0  0
 51 50  1  0  0  0  0
 53 51  1  0  0  0  0
 54 53  1  0  0  0  0
 56 53  1  0  0  0  0
 56 55  1  0  0  0  0
 57 56  1  0  0  0  0
 58 56  1  0  0  0  0
M  END
>  <MODEL>
1

>  <REMARK>
 VINA RESULT:       1.2      0.000      0.000
  Name = 
  14 active torsions:
  status: ('A' for Active; 'I' for Inactive)
    1  A    between atoms: C_3  and  C_13
    2  A    between atoms: C_3  and  C_50
    3  A    between atoms: C_12  and  C_49
    4  A    between atoms: C_13  and  O_32
    5  A    between atoms: C_16  and  C_35
    6  A    between atoms: C_19  and  C_39
    7  A    between atoms: O_21  and  C_47
    8  A    between atoms: O_21  and  C_55
    9  A    between atoms: C_22  and  O_32
   10  A    between atoms: C_31  and  C_42
   11  A    between atoms: C_31  and  C_58
   12  A    between atoms: C_41  and  N_57
   13  A    between atoms: C_47  and  C_53
   14  A    between atoms: C_49  and  C_53
                            x       y       z     vdW  Elec       q    Type
                         _______ _______ _______ _____ _____    ______ ____

>  <TORSDO>
F 14

$$$$
=
 OpenBabel11072415193D

 58 64  0  0  1  0  0  0  0  0999 V2000
  162.2680  206.8650  149.2960 C   0  0  0  0  0  2  0  0  0  0  0  0
  159.8540  209.8140  152.0130 C   0  0  1  0  0  3  0  0  0  0  0  0
  160.5070  208.6120  151.3230 C   0  0  1  0  0  3  0  0  0  0  0  0
  161.2740  205.8300  151.4580 C   0  0  1  0  0  3  0  0  0  0  0  0
  159.8580  207.5990  149.4640 C   0  0  0  0  0  2  0  0  0  0  0  0
  159.9690  209.8460  153.5320 C   0  0  1  0  0  3  0  0  0  0  0  0
  164.2580  210.8830  151.3380 O   0  0  0  0  0  1  0  0  0  0  0  0
  162.9160  209.0710  151.1600 O   0  0  0  0  0  0  0  0  0  0  0  0
  160.4360  208.7780  149.9360 O   0  0  0  0  0  0  0  0  0  0  0  0
  161.9330  208.2880  151.7980 C   0  0  2  0  0  3  0  0  0  0  0  0
  162.9140  211.9290  149.3730 O   0  0  0  0  0  0  0  0  0  0  0  0
  161.9170  211.2150  151.3790 N   0  0  0  0  0  0  0  0  0  0  0  0
  163.0470  210.3310  151.7850 C   0  0  2  0  0  0  0  0  0  0  0  0
  162.3680  206.7950  151.8800 C   0  0  2  0  0  3  0  0  0  0  0  0
  160.5150  211.2940  153.4510 C   0  0  1  0  0  3  0  0  0  0  0  0
  162.4870  206.0160  150.5550 C   0  0  2  0  0  3  0  0  0  0  0  0
  160.5430  211.1830  151.9370 C   0  0  2  0  0  3  0  0  0  0  0  0
  160.8770  206.7870  148.6730 C   0  0  0  0  0  2  0  0  0  0  0  0
  162.0560  212.1320  150.2740 C   0  0  0  0  0  0  0  0  0  0  0  0
  158.4830  212.8790  155.9740 C   0  0  1  0  0  3  0  0  0  0  0  0
  158.2030  212.1750  153.6390 C   0  0  0  0  0  2  0  0  0  0  0  0
  157.5270  212.4860  154.9170 C   0  0  0  0  0  0  0  0  0  0  0  0
  156.3450  212.2580  155.1230 O   0  0  0  0  0  0  0  0  0  0  0  0
  159.8300  212.6420  155.3150 C   0  0  0  0  0  2  0  0  0  0  0  0
  158.3170  214.3530  156.3130 C   0  0  0  0  0  1  0  0  0  0  0  0
  159.6310  212.4010  153.8790 N   0  0  1  0  0  0  0  0  0  0  0  0
  160.5850  203.4560  151.4480 N   0  0  0  0  0  2  0  0  0  0  0  0
  161.4000  204.4570  152.1120 C   0  0  1  0  0  3  0  0  0  0  0  0
  162.8290  203.9700  152.0180 C   0  0  0  0  0  2  0  0  0  0  0  0
  162.7060  202.4690  151.8940 C   0  0  0  0  0  2  0  0  0  0  0  0
  161.2050  202.2030  151.8580 C   0  0  2  0  0  3  0  0  0  0  0  0
  160.8380  201.0770  150.8870 C   0  0  1  0  0  3  0  0  0  0  0  0
  159.6040  200.5100  151.2110 O   0  0  0  0  0  1  0  0  0  0  0  0
  160.7760  203.1500  147.7620 N   0  0  0  0  0  0  0  0  0  0  0  0
  161.1300  202.7900  145.1080 Cl  0  0  0  0  0  0  0  0  0  0  0  0
  161.0530  202.2560  146.7780 C   0  0  0  0  0  0  0  0  0  0  0  0
  160.6740  202.7660  149.0590 C   0  0  0  0  0  3  0  0  0  0  0  0
  161.1460  200.4910  148.4180 C   0  0  0  0  0  3  0  0  0  0  0  0
  161.2270  200.9040  147.0870 C   0  0  0  0  0  3  0  0  0  0  0  0
  160.8690  201.4280  149.4220 C   0  0  0  0  0  0  0  0  0  0  0  0
  164.2400  211.0180  153.7760 O   0  0  0  0  0  1  0  0  0  0  0  0
  163.1960  210.2170  153.3150 C   0  0  0  0  0  2  0  0  0  0  0  0
  161.2190  213.2500  150.2090 O   0  0  0  0  0  0  0  0  0  0  0  0
  161.1340  214.0810  149.0570 C   0  0  0  0  0  2  0  0  0  0  0  0
  159.8780  213.7190  148.2850 C   0  0  0  0  0  2  0  0  0  0  0  0
  159.4350  214.1700  145.9980 O   0  0  0  0  0  0  0  0  0  0  0  0
  160.1520  213.6060  146.8130 C   0  0  0  0  0  0  0  0  0  0  0  0
  162.1280  213.4760  145.3180 C   0  0  0  0  0  1  0  0  0  0  0  0
  161.2730  212.7330  146.3380 C   0  0  0  0  0  2  0  0  0  0  0  0
  158.7060  209.7320  154.1440 O   0  0  0  0  0  0  0  0  0  0  0  0
  158.8770  209.0760  155.3780 C   0  0  2  0  0  3  0  0  0  0  0  0
  158.5620  209.9050  156.4550 O   0  0  0  0  0  1  0  0  0  0  0  0
  160.2680  208.4500  155.4900 C   0  0  1  0  0  3  0  0  0  0  0  0
  161.0050  209.0860  156.4740 F   0  0  0  0  0  0  0  0  0  0  0  0
  158.8360  206.5790  155.8410 F   0  0  0  0  0  0  0  0  0  0  0  0
  160.1650  206.9540  155.8000 C   0  0  0  0  0  0  0  0  0  0  0  0
  160.7180  206.6700  157.0320 F   0  0  0  0  0  0  0  0  0  0  0  0
  160.8230  206.2250  154.8240 F   0  0  0  0  0  0  0  0  0  0  0  0
  1 16  1  0  0  0  0
  2  6  1  0  0  0  0
  3 10  1  0  0  0  0
  3  2  1  0  0  0  0
  4 14  1  0  0  0  0
  4 28  1  0  0  0  0
  5  9  1  0  0  0  0
  6 50  1  0  0  0  0
  7 13  1  0  0  0  0
  8 13  1  0  0  0  0
  8 10  1  0  0  0  0
  9  3  1  0  0  0  0
 10 14  1  0  0  0  0
 11 19  2  0  0  0  0
 12 13  1  0  0  0  0
 12 17  1  0  0  0  0
 13 42  1  0  0  0  0
 15  6  1  0  0  0  0
 15 26  1  0  0  0  0
 16  4  1  0  0  0  0
 16 14  1  0  0  0  0
 17  2  1  0  0  0  0
 17 15  1  0  0  0  0
 18  1  1  0  0  0  0
 18  5  1  0  0  0  0
 19 12  1  0  0  0  0
 20 25  1  0  0  0  0
 21 26  1  0  0  0  0
 21 22  1  0  0  0  0
 22 23  2  0  0  0  0
 22 20  1  0  0  0  0
 24 20  1  0  0  0  0
 26 24  1  0  0  0  0
 27 31  1  0  0  0  0
 27 28  1  0  0  0  0
 29 28  1  0  0  0  0
 30 29  1  0  0  0  0
 31 30  1  0  0  0  0
 32 33  1  0  0  0  0
 32 31  1  0  0  0  0
 34 37  1  0  0  0  0
 35 36  1  0  0  0  0
 36 39  1  0  0  0  0
 36 34  2  0  0  0  0
 37 40  2  0  0  0  0
 38 40  1  0  0  0  0
 39 38  2  0  0  0  0
 40 32  1  0  0  0  0
 42 41  1  0  0  0  0
 43 19  1  0  0  0  0
 44 43  1  0  0  0  0
 45 44  1  0  0  0  0
 46 47  2  0  0  0  0
 47 45  1  0  0  0  0
 48 49  1  0  0  0  0
 49 47  1  0  0  0  0
 50 51  1  0  0  0  0
 51 53  1  0  0  0  0
 51 52  1  0  0  0  0
 53 56  1  0  0  0  0
 53 54  1  0  0  0  0
 56 55  1  0  0  0  0
 56 57  1  0  0  0  0
 58 56  1  0  0  0  0
M  END
>  <MODEL>
2

>  <REMARK>
 VINA RESULT:       3.3      3.376      5.618
  Name = 
  14 active torsions:
  status: ('A' for Active; 'I' for Inactive)
    1  A    between atoms: C_3  and  C_13
    2  A    between atoms: C_3  and  C_50
    3  A    between atoms: C_12  and  C_49
    4  A    between atoms: C_13  and  O_32
    5  A    between atoms: C_16  and  C_35
    6  A    between atoms: C_19  and  C_39
    7  A    between atoms: O_21  and  C_47
    8  A    between atoms: O_21  and  C_55
    9  A    between atoms: C_22  and  O_32
   10  A    between atoms: C_31  and  C_42
   11  A    between atoms: C_31  and  C_58
   12  A    between atoms: C_41  and  N_57
   13  A    between atoms: C_47  and  C_53
   14  A    between atoms: C_49  and  C_53
                            x       y       z     vdW  Elec       q    Type
                         _______ _______ _______ _____ _____    ______ ____

>  <TORSDO>
F 14

$$$$
=
 OpenBabel11072415193D

 58 64  0  0  1  0  0  0  0  0999 V2000
  162.2900  203.6690  146.2480 C   0  0  0  0  0  2  0  0  0  0  0  0
  162.7720  207.6460  148.6690 C   0  0  1  0  0  3  0  0  0  0  0  0
  162.5960  206.5530  147.6100 C   0  0  1  0  0  3  0  0  0  0  0  0
  161.7680  205.8460  144.9340 C   0  0  1  0  0  3  0  0  0  0  0  0
  164.1680  205.3000  146.6800 C   0  0  0  0  0  2  0  0  0  0  0  0
  161.7850  208.8040  148.5930 C   0  0  1  0  0  3  0  0  0  0  0  0
  159.6700  204.6900  150.2930 O   0  0  0  0  0  1  0  0  0  0  0  0
  160.7720  205.0850  148.3580 O   0  0  0  0  0  0  0  0  0  0  0  0
  163.4790  205.5010  147.8770 O   0  0  0  0  0  0  0  0  0  0  0  0
  161.1510  206.0640  147.4170 C   0  0  2  0  0  3  0  0  0  0  0  0
  161.9620  204.0300  151.3300 O   0  0  0  0  0  0  0  0  0  0  0  0
  161.5490  206.1260  150.3460 N   0  0  0  0  0  0  0  0  0  0  0  0
  160.3560  205.6790  149.5710 C   0  0  2  0  0  0  0  0  0  0  0  0
  160.6830  205.6780  145.9830 C   0  0  2  0  0  3  0  0  0  0  0  0
  161.4610  208.6140  150.0960 C   0  0  1  0  0  3  0  0  0  0  0  0
  161.3320  204.4410  145.3310 C   0  0  2  0  0  3  0  0  0  0  0  0
  162.3260  207.3670  150.1100 C   0  0  2  0  0  3  0  0  0  0  0  0
  163.7750  203.9660  146.0580 C   0  0  0  0  0  2  0  0  0  0  0  0
  162.1310  205.2790  151.3590 C   0  0  0  0  0  0  0  0  0  0  0  0
  161.4300  210.1060  153.3800 C   0  0  1  0  0  3  0  0  0  0  0  0
  161.2440  210.8900  151.0610 C   0  0  0  0  0  2  0  0  0  0  0  0
  160.9400  211.1720  152.4800 C   0  0  0  0  0  0  0  0  0  0  0  0
  160.2060  212.0790  152.8410 O   0  0  0  0  0  0  0  0  0  0  0  0
  161.9300  209.0500  152.4090 C   0  0  0  0  0  2  0  0  0  0  0  0
  162.5820  210.6220  154.2300 C   0  0  0  0  0  1  0  0  0  0  0  0
  161.9730  209.6190  151.0550 N   0  0  1  0  0  0  0  0  0  0  0  0
  161.9220  207.1910  142.8660 N   0  0  0  0  0  2  0  0  0  0  0  0
  161.2160  206.1150  143.5370 C   0  0  1  0  0  3  0  0  0  0  0  0
  161.3900  204.8890  142.6690 C   0  0  0  0  0  2  0  0  0  0  0  0
  161.6150  205.4420  141.2810 C   0  0  0  0  0  2  0  0  0  0  0  0
  161.6210  206.9560  141.4610 C   0  0  2  0  0  3  0  0  0  0  0  0
  162.6570  207.6430  140.5660 C   0  0  1  0  0  3  0  0  0  0  0  0
  163.2610  206.7330  139.6970 O   0  0  0  0  0  1  0  0  0  0  0  0
  160.6260  209.7130  138.1870 N   0  0  0  0  0  0  0  0  0  0  0  0
  160.3850  212.3120  137.4900 Cl  0  0  0  0  0  0  0  0  0  0  0  0
  161.0690  210.9780  138.4030 C   0  0  0  0  0  0  0  0  0  0  0  0
  161.1560  208.6550  138.8500 C   0  0  0  0  0  3  0  0  0  0  0  0
  162.6490  210.1410  140.0200 C   0  0  0  0  0  3  0  0  0  0  0  0
  162.1030  211.2140  139.3140 C   0  0  0  0  0  3  0  0  0  0  0  0
  162.1730  208.8430  139.7930 C   0  0  0  0  0  0  0  0  0  0  0  0
  158.5590  206.5650  148.2140 O   0  0  0  0  0  1  0  0  0  0  0  0
  159.3290  206.8060  149.3520 C   0  0  0  0  0  2  0  0  0  0  0  0
  162.8970  205.8610  152.3740 O   0  0  0  0  0  0  0  0  0  0  0  0
  162.4260  206.0020  153.7090 C   0  0  0  0  0  2  0  0  0  0  0  0
  161.0190  206.5720  153.6730 C   0  0  0  0  0  2  0  0  0  0  0  0
  159.3470  206.9040  155.3230 O   0  0  0  0  0  0  0  0  0  0  0  0
  160.5380  206.9330  155.0490 C   0  0  0  0  0  0  0  0  0  0  0  0
  161.0250  208.6740  156.7490 C   0  0  0  0  0  1  0  0  0  0  0  0
  161.5250  207.4020  156.0740 C   0  0  0  0  0  2  0  0  0  0  0  0
  162.4360  210.0140  148.2840 O   0  0  0  0  0  0  0  0  0  0  0  0
  161.4510  210.9810  148.0100 C   0  0  2  0  0  3  0  0  0  0  0  0
  160.6290  210.6000  146.9500 O   0  0  0  0  0  1  0  0  0  0  0  0
  162.0670  212.3680  147.8240 C   0  0  1  0  0  3  0  0  0  0  0  0
  162.3700  212.5850  146.4900 F   0  0  0  0  0  0  0  0  0  0  0  0
  161.7700  214.2680  149.2300 F   0  0  0  0  0  0  0  0  0  0  0  0
  161.1140  213.4560  148.3250 C   0  0  0  0  0  0  0  0  0  0  0  0
  160.0310  212.8980  148.9740 F   0  0  0  0  0  0  0  0  0  0  0  0
  160.6650  214.2170  147.2590 F   0  0  0  0  0  0  0  0  0  0  0  0
  2 17  1  0  0  0  0
  3  9  1  0  0  0  0
  3  2  1  0  0  0  0
  4 16  1  0  0  0  0
  4 14  1  0  0  0  0
  5  9  1  0  0  0  0
  6  2  1  0  0  0  0
  6 15  1  0  0  0  0
  8 13  1  0  0  0  0
 10  3  1  0  0  0  0
 10  8  1  0  0  0  0
 11 19  2  0  0  0  0
 12 19  1  0  0  0  0
 13  7  1  0  0  0  0
 13 12  1  0  0  0  0
 14 10  1  0  0  0  0
 15 17  1  0  0  0  0
 15 26  1  0  0  0  0
 16 14  1  0  0  0  0
 16  1  1  0  0  0  0
 17 12  1  0  0  0  0
 18  1  1  0  0  0  0
 18  5  1  0  0  0  0
 19 43  1  0  0  0  0
 20 25  1  0  0  0  0
 21 22  1  0  0  0  0
 22 23  2  0  0  0  0
 22 20  1  0  0  0  0
 24 20  1  0  0  0  0
 26 21  1  0  0  0  0
 26 24  1  0  0  0  0
 27 28  1  0  0  0  0
 28  4  1  0  0  0  0
 29 28  1  0  0  0  0
 30 31  1  0  0  0  0
 30 29  1  0  0  0  0
 31 27  1  0  0  0  0
 32 31  1  0  0  0  0
 33 32  1  0  0  0  0
 34 36  2  0  0  0  0
 34 37  1  0  0  0  0
 35 36  1  0  0  0  0
 36 39  1  0  0  0  0
 37 40  2  0  0  0  0
 39 38  2  0  0  0  0
 40 38  1  0  0  0  0
 40 32  1  0  0  0  0
 41 42  1  0  0  0  0
 42 13  1  0  0  0  0
 43 44  1  0  0  0  0
 45 44  1  0  0  0  0
 45 47  1  0  0  0  0
 47 46  2  0  0  0  0
 47 49  1  0  0  0  0
 49 48  1  0  0  0  0
 50  6  1  0  0  0  0
 51 50  1  0  0  0  0
 52 51  1  0  0  0  0
 53 51  1  0  0  0  0
 53 56  1  0  0  0  0
 54 53  1  0  0  0  0
 56 57  1  0  0  0  0
 56 55  1  0  0  0  0
 58 56  1  0  0  0  0
M  END
>  <MODEL>
3

>  <REMARK>
 VINA RESULT:       4.1      5.112      7.562
  Name = 
  14 active torsions:
  status: ('A' for Active; 'I' for Inactive)
    1  A    between atoms: C_3  and  C_13
    2  A    between atoms: C_3  and  C_50
    3  A    between atoms: C_12  and  C_49
    4  A    between atoms: C_13  and  O_32
    5  A    between atoms: C_16  and  C_35
    6  A    between atoms: C_19  and  C_39
    7  A    between atoms: O_21  and  C_47
    8  A    between atoms: O_21  and  C_55
    9  A    between atoms: C_22  and  O_32
   10  A    between atoms: C_31  and  C_42
   11  A    between atoms: C_31  and  C_58
   12  A    between atoms: C_41  and  N_57
   13  A    between atoms: C_47  and  C_53
   14  A    between atoms: C_49  and  C_53
                            x       y       z     vdW  Elec       q    Type
                         _______ _______ _______ _____ _____    ______ ____

>  <TORSDO>
F 14

$$$$
=
 OpenBabel11072415193D

 58 64  0  0  1  0  0  0  0  0999 V2000
  160.4610  206.6500  155.5080 C   0  0  0  0  0  2  0  0  0  0  0  0
  160.3350  206.9300  150.8380 C   0  0  1  0  0  3  0  0  0  0  0  0
  160.4050  207.1760  152.3490 C   0  0  1  0  0  3  0  0  0  0  0  0
  161.1240  208.9510  154.5110 C   0  0  1  0  0  3  0  0  0  0  0  0
  158.7230  207.2730  153.7860 C   0  0  0  0  0  2  0  0  0  0  0  0
  161.4070  207.6230  150.0060 C   0  0  1  0  0  3  0  0  0  0  0  0
  163.2290  203.8280  152.5690 O   0  0  0  0  0  1  0  0  0  0  0  0
  162.1250  205.6760  153.2630 O   0  0  0  0  0  0  0  0  0  0  0  0
  159.4490  206.3840  152.9930 O   0  0  0  0  0  0  0  0  0  0  0  0
  161.8040  207.0160  152.9670 C   0  0  2  0  0  3  0  0  0  0  0  0
  160.9140  202.6650  152.3490 O   0  0  0  0  0  0  0  0  0  0  0  0
  161.4690  204.6530  151.2220 N   0  0  0  0  0  0  0  0  0  0  0  0
  162.6080  205.0030  152.1180 C   0  0  2  0  0  0  0  0  0  0  0  0
  162.2130  207.9630  154.1330 C   0  0  2  0  0  3  0  0  0  0  0  0
  161.7450  206.2700  149.3320 C   0  0  1  0  0  3  0  0  0  0  0  0
  161.4580  207.8150  155.4690 C   0  0  2  0  0  3  0  0  0  0  0  0
  160.7860  205.5740  150.2810 C   0  0  2  0  0  3  0  0  0  0  0  0
  158.9990  207.0160  155.2620 C   0  0  0  0  0  2  0  0  0  0  0  0
  160.8420  203.3560  151.2960 C   0  0  0  0  0  0  0  0  0  0  0  0
  161.6780  204.2390  146.3520 C   0  0  1  0  0  3  0  0  0  0  0  0
  162.2900  206.5450  146.9270 C   0  0  0  0  0  2  0  0  0  0  0  0
  162.4720  205.4270  145.9760 C   0  0  0  0  0  0  0  0  0  0  0  0
  163.3240  205.4250  145.1000 O   0  0  0  0  0  0  0  0  0  0  0  0
  161.0990  204.6330  147.7000 C   0  0  0  0  0  2  0  0  0  0  0  0
  160.5580  204.0140  145.3460 C   0  0  0  0  0  1  0  0  0  0  0  0
  161.3310  206.0660  147.9250 N   0  0  1  0  0  0  0  0  0  0  0  0
  160.6720  211.2930  155.1640 N   0  0  0  0  0  2  0  0  0  0  0  0
  161.6680  210.2380  155.1250 C   0  0  1  0  0  3  0  0  0  0  0  0
  162.0780  209.9910  156.5610 C   0  0  0  0  0  2  0  0  0  0  0  0
  161.8000  211.3010  157.2600 C   0  0  0  0  0  2  0  0  0  0  0  0
  161.1840  212.1920  156.1870 C   0  0  2  0  0  3  0  0  0  0  0  0
  160.0610  213.0750  156.7400 C   0  0  1  0  0  3  0  0  0  0  0  0
  160.5440  214.3270  157.1260 O   0  0  0  0  0  1  0  0  0  0  0  0
  156.6310  212.5320  155.3260 N   0  0  0  0  0  0  0  0  0  0  0  0
  155.0180  213.6690  153.4800 Cl  0  0  0  0  0  0  0  0  0  0  0  0
  156.4990  213.5270  154.4100 C   0  0  0  0  0  0  0  0  0  0  0  0
  157.7750  212.3720  156.0360 C   0  0  0  0  0  3  0  0  0  0  0  0
  158.7380  214.2700  154.9070 C   0  0  0  0  0  3  0  0  0  0  0  0
  157.5600  214.4060  154.1710 C   0  0  0  0  0  3  0  0  0  0  0  0
  158.8540  213.2440  155.8550 C   0  0  0  0  0  0  0  0  0  0  0  0
  163.4990  207.1680  151.5050 O   0  0  0  0  0  1  0  0  0  0  0  0
  163.7160  205.7950  151.3950 C   0  0  0  0  0  2  0  0  0  0  0  0
  160.1440  202.8730  150.1850 O   0  0  0  0  0  0  0  0  0  0  0  0
  160.0420  201.4870  149.8840 C   0  0  0  0  0  2  0  0  0  0  0  0
  161.2800  201.0610  149.1150 C   0  0  0  0  0  2  0  0  0  0  0  0
  159.9410  201.0700  147.1560 O   0  0  0  0  0  0  0  0  0  0  0  0
  160.9380  200.6350  147.7150 C   0  0  0  0  0  0  0  0  0  0  0  0
  161.2260  199.2940  145.6480 C   0  0  0  0  0  1  0  0  0  0  0  0
  161.7900  199.6130  147.0280 C   0  0  0  0  0  2  0  0  0  0  0  0
  160.8460  208.5830  149.1420 O   0  0  0  0  0  0  0  0  0  0  0  0
  161.8650  209.4780  148.7650 C   0  0  2  0  0  3  0  0  0  0  0  0
  163.1280  209.0080  149.1230 O   0  0  0  0  0  1  0  0  0  0  0  0
  161.5830  210.8920  149.2740 C   0  0  1  0  0  3  0  0  0  0  0  0
  162.5870  211.3030  150.1340 F   0  0  0  0  0  0  0  0  0  0  0  0
  162.6920  212.4520  147.8550 F   0  0  0  0  0  0  0  0  0  0  0  0
  161.4620  211.8750  148.1060 C   0  0  0  0  0  0  0  0  0  0  0  0
  160.5770  212.8900  148.4100 F   0  0  0  0  0  0  0  0  0  0  0  0
  161.0220  211.2080  146.9740 F   0  0  0  0  0  0  0  0  0  0  0  0
  2  3  1  0  0  0  0
  3 10  1  0  0  0  0
  3  9  1  0  0  0  0
  4 28  1  0  0  0  0
  4 16  1  0  0  0  0
  5 18  1  0  0  0  0
  6  2  1  0  0  0  0
  9  5  1  0  0  0  0
 10  8  1  0  0  0  0
 10 14  1  0  0  0  0
 12 19  1  0  0  0  0
 12 13  1  0  0  0  0
 13  7  1  0  0  0  0
 13  8  1  0  0  0  0
 14  4  1  0  0  0  0
 14 16  1  0  0  0  0
 15  6  1  0  0  0  0
 15 17  1  0  0  0  0
 16  1  1  0  0  0  0
 17  2  1  0  0  0  0
 17 12  1  0  0  0  0
 18  1  1  0  0  0  0
 19 11  2  0  0  0  0
 20 24  1  0  0  0  0
 21 26  1  0  0  0  0
 22 20  1  0  0  0  0
 22 21  1  0  0  0  0
 23 22  2  0  0  0  0
 24 26  1  0  0  0  0
 25 20  1  0  0  0  0
 26 15  1  0  0  0  0
 27 31  1  0  0  0  0
 28 27  1  0  0  0  0
 28 29  1  0  0  0  0
 29 30  1  0  0  0  0
 31 32  1  0  0  0  0
 31 30  1  0  0  0  0
 32 33  1  0  0  0  0
 34 37  1  0  0  0  0
 35 36  1  0  0  0  0
 36 34  2  0  0  0  0
 38 40  1  0  0  0  0
 39 36  1  0  0  0  0
 39 38  2  0  0  0  0
 40 37  2  0  0  0  0
 40 32  1  0  0  0  0
 42 41  1  0  0  0  0
 42 13  1  0  0  0  0
 43 19  1  0  0  0  0
 44 43  1  0  0  0  0
 45 44  1  0  0  0  0
 46 47  2  0  0  0  0
 47 45  1  0  0  0  0
 48 49  1  0  0  0  0
 49 47  1  0  0  0  0
 50  6  1  0  0  0  0
 51 52  1  0  0  0  0
 51 50  1  0  0  0  0
 51 53  1  0  0  0  0
 53 54  1  0  0  0  0
 55 56  1  0  0  0  0
 56 57  1  0  0  0  0
 56 53  1  0  0  0  0
 58 56  1  0  0  0  0
M  END
>  <MODEL>
4

>  <REMARK>
 VINA RESULT:       4.2      3.779     10.331
  Name = 
  14 active torsions:
  status: ('A' for Active; 'I' for Inactive)
    1  A    between atoms: C_3  and  C_13
    2  A    between atoms: C_3  and  C_50
    3  A    between atoms: C_12  and  C_49
    4  A    between atoms: C_13  and  O_32
    5  A    between atoms: C_16  and  C_35
    6  A    between atoms: C_19  and  C_39
    7  A    between atoms: O_21  and  C_47
    8  A    between atoms: O_21  and  C_55
    9  A    between atoms: C_22  and  O_32
   10  A    between atoms: C_31  and  C_42
   11  A    between atoms: C_31  and  C_58
   12  A    between atoms: C_41  and  N_57
   13  A    between atoms: C_47  and  C_53
   14  A    between atoms: C_49  and  C_53
                            x       y       z     vdW  Elec       q    Type
                         _______ _______ _______ _____ _____    ______ ____

>  <TORSDO>
F 14

$$$$
