=
 OpenBabel11072414103D

 28 31  0  0  1  0  0  0  0  0999 V2000
  161.2230  207.2740  152.0500 C   0  0  0  0  0  0  0  0  0  0  0  0
  161.2440  204.8930  152.3870 C   0  0  0  0  0  3  0  0  0  0  0  0
  161.2060  205.1030  153.7290 N   0  0  0  0  0  0  0  0  0  0  0  0
  160.8470  206.9540  149.2840 N   0  0  0  0  0  2  0  0  0  0  0  0
  161.2200  205.9760  151.5040 C   0  0  0  0  0  0  0  0  0  0  0  0
  161.6080  208.1170  149.7250 C   0  0  0  0  0  2  0  0  0  0  0  0
  161.3320  205.7770  150.0070 C   0  0  1  0  0  3  0  0  0  0  0  0
  161.2060  208.4840  151.1530 C   0  0  2  0  0  3  0  0  0  0  0  0
  161.1680  207.4340  153.4000 N   0  0  0  0  0  0  0  0  0  0  0  0
  161.1610  206.3620  154.2350 C   0  0  0  0  0  3  0  0  0  0  0  0
  160.5530  204.5430  149.5470 C   0  0  0  0  0  2  0  0  0  0  0  0
  160.7090  201.5260  149.2480 C   0  0  0  0  0  1  0  0  0  0  0  0
  161.8260  204.9010  144.7820 N   0  0  0  0  0  1  0  0  0  0  0  0
  161.2060  203.8250  148.3600 C   0  0  2  0  0  3  0  0  0  0  0  0
  161.2060  204.7290  147.1240 C   0  0  0  0  0  2  0  0  0  0  0  0
  161.1570  202.7280  145.6350 C   0  0  0  0  0  2  0  0  0  0  0  0
  161.2200  201.8050  146.8470 C   0  0  0  0  0  2  0  0  0  0  0  0
  161.8750  204.0350  145.9450 C   0  0  1  0  0  3  0  0  0  0  0  0
  160.5610  202.4600  148.0590 C   0  0  1  0  0  3  0  0  0  0  0  0
  162.1130  209.5030  151.6600 N   0  0  0  0  0  2  0  0  0  0  0  0
  161.3260  210.7010  151.9120 C   0  0  0  0  0  2  0  0  0  0  0  0
  162.0700  210.6020  154.2910 C   0  0  0  0  0  3  0  0  0  0  0  0
  161.0420  210.8350  153.3730 C   0  0  0  0  0  0  0  0  0  0  0  0
  158.4170  211.4540  152.7600 Cl  0  0  0  0  0  0  0  0  0  0  0  0
  161.8320  210.6960  155.6260 N   0  0  0  0  0  0  0  0  0  0  0  0
  160.6000  211.0120  156.1080 C   0  0  0  0  0  3  0  0  0  0  0  0
  159.7610  211.1570  153.8510 C   0  0  0  0  0  0  0  0  0  0  0  0
  159.5430  211.2470  155.2280 C   0  0  0  0  0  3  0  0  0  0  0  0
  1  9  1  0  0  0  0
  2  3  2  0  0  0  0
  3 10  1  0  0  0  0
  4  6  1  0  0  0  0
  4  7  1  0  0  0  0
  5  1  2  0  0  0  0
  5  2  1  0  0  0  0
  6  8  1  0  0  0  0
  7 11  1  6  0  0  0
  7  5  1  0  0  0  0
  8 20  1  1  0  0  0
  8  1  1  0  0  0  0
  9 10  2  0  0  0  0
 14 11  1  1  0  0  0
 15 14  1  0  0  0  0
 16 18  1  0  0  0  0
 16 17  1  0  0  0  0
 17 19  1  0  0  0  0
 18 13  1  6  0  0  0
 18 15  1  0  0  0  0
 19 14  1  0  0  0  0
 19 12  1  1  0  0  0
 20 21  1  0  0  0  0
 21 23  1  0  0  0  0
 22 25  1  0  0  0  0
 23 27  1  0  0  0  0
 23 22  2  0  0  0  0
 24 27  1  0  0  0  0
 25 26  2  0  0  0  0
 27 28  2  0  0  0  0
 28 26  1  0  0  0  0
M  END
>  <MODEL>
1

>  <REMARK>
 VINA RESULT:      -8.6      0.000      0.000
  Name = 
  5 active torsions:
  status: ('A' for Active; 'I' for Inactive)
    1  A    between atoms: C_3  and  C_23
    2  A    between atoms: C_7  and  C_17
    3  A    between atoms: C_13  and  C_17
    4  A    between atoms: C_15  and  N_19
    5  A    between atoms: N_19  and  C_23
                            x       y       z     vdW  Elec       q    Type
                         _______ _______ _______ _____ _____    ______ ____

>  <TORSDO>
F 5

$$$$
=
 OpenBabel11072414103D

 28 31  0  0  1  0  0  0  0  0999 V2000
  161.5350  206.2930  150.6770 C   0  0  0  0  0  0  0  0  0  0  0  0
  161.0900  206.5660  153.0240 C   0  0  0  0  0  3  0  0  0  0  0  0
  161.0950  205.2150  153.1620 N   0  0  0  0  0  0  0  0  0  0  0  0
  161.9900  209.0480  150.3650 N   0  0  0  0  0  2  0  0  0  0  0  0
  161.3440  207.1480  151.7780 C   0  0  0  0  0  0  0  0  0  0  0  0
  161.4180  208.3330  149.2310 C   0  0  0  0  0  2  0  0  0  0  0  0
  161.2750  208.6470  151.5780 C   0  0  1  0  0  3  0  0  0  0  0  0
  161.8040  206.8570  149.3060 C   0  0  2  0  0  3  0  0  0  0  0  0
  161.5490  204.9460  150.8670 N   0  0  0  0  0  0  0  0  0  0  0  0
  161.3300  204.4080  152.0960 C   0  0  0  0  0  3  0  0  0  0  0  0
  161.8530  209.4000  152.7800 C   0  0  0  0  0  2  0  0  0  0  0  0
  162.1100  210.1140  155.7190 C   0  0  0  0  0  1  0  0  0  0  0  0
  158.0990  212.6080  152.5140 N   0  0  0  0  0  1  0  0  0  0  0  0
  160.7940  210.1680  153.5780 C   0  0  2  0  0  3  0  0  0  0  0  0
  159.9390  211.0270  152.6420 C   0  0  0  0  0  2  0  0  0  0  0  0
  159.5140  212.6510  154.4880 C   0  0  0  0  0  2  0  0  0  0  0  0
  160.3070  211.7810  155.4570 C   0  0  0  0  0  2  0  0  0  0  0  0
  158.8660  211.7760  153.4220 C   0  0  1  0  0  3  0  0  0  0  0  0
  161.3980  211.0070  154.7190 C   0  0  1  0  0  3  0  0  0  0  0  0
  161.0610  206.1140  148.2980 N   0  0  0  0  0  2  0  0  0  0  0  0
  162.0320  205.4870  147.4140 C   0  0  0  0  0  2  0  0  0  0  0  0
  161.4160  203.1310  147.9590 C   0  0  0  0  0  3  0  0  0  0  0  0
  161.5510  204.1350  146.9960 C   0  0  0  0  0  0  0  0  0  0  0  0
  161.4140  205.0410  144.3860 Cl  0  0  0  0  0  0  0  0  0  0  0  0
  161.0010  201.8880  147.6000 N   0  0  0  0  0  0  0  0  0  0  0  0
  160.7090  201.5800  146.3070 C   0  0  0  0  0  3  0  0  0  0  0  0
  161.2600  203.8360  145.6540 C   0  0  0  0  0  0  0  0  0  0  0  0
  160.8350  202.5500  145.3120 C   0  0  0  0  0  3  0  0  0  0  0  0
  1  9  2  0  0  0  0
  1  5  1  0  0  0  0
  2  3  1  0  0  0  0
  4  7  1  0  0  0  0
  5  2  2  0  0  0  0
  6  8  1  0  0  0  0
  6  4  1  0  0  0  0
  7  5  1  0  0  0  0
  7 11  1  1  0  0  0
  8 20  1  6  0  0  0
  8  1  1  0  0  0  0
  9 10  1  0  0  0  0
 10  3  2  0  0  0  0
 14 11  1  6  0  0  0
 14 19  1  0  0  0  0
 15 18  1  0  0  0  0
 15 14  1  0  0  0  0
 16 17  1  0  0  0  0
 18 13  1  6  0  0  0
 18 16  1  0  0  0  0
 19 17  1  0  0  0  0
 19 12  1  1  0  0  0
 21 20  1  0  0  0  0
 23 21  1  0  0  0  0
 23 22  2  0  0  0  0
 24 27  1  0  0  0  0
 25 22  1  0  0  0  0
 26 25  2  0  0  0  0
 27 23  1  0  0  0  0
 28 27  2  0  0  0  0
 28 26  1  0  0  0  0
M  END
>  <MODEL>
2

>  <REMARK>
 VINA RESULT:      -8.6      2.652      8.612
  Name = 
  5 active torsions:
  status: ('A' for Active; 'I' for Inactive)
    1  A    between atoms: C_3  and  C_23
    2  A    between atoms: C_7  and  C_17
    3  A    between atoms: C_13  and  C_17
    4  A    between atoms: C_15  and  N_19
    5  A    between atoms: N_19  and  C_23
                            x       y       z     vdW  Elec       q    Type
                         _______ _______ _______ _____ _____    ______ ____

>  <TORSDO>
F 5

$$$$
=
 OpenBabel11072414103D

 28 31  0  0  1  0  0  0  0  0999 V2000
  161.6800  208.0420  150.7890 C   0  0  0  0  0  0  0  0  0  0  0  0
  161.7760  208.4370  148.4190 C   0  0  0  0  0  3  0  0  0  0  0  0
  162.0720  209.7390  148.6690 N   0  0  0  0  0  0  0  0  0  0  0  0
  161.5130  205.2640  150.3940 N   0  0  0  0  0  2  0  0  0  0  0  0
  161.6030  207.5390  149.4760 C   0  0  0  0  0  0  0  0  0  0  0  0
  160.8290  205.8170  151.5580 C   0  0  0  0  0  2  0  0  0  0  0  0
  161.2040  206.0990  149.2320 C   0  0  1  0  0  3  0  0  0  0  0  0
  161.4950  207.1270  151.9720 C   0  0  2  0  0  3  0  0  0  0  0  0
  161.9960  209.3490  150.9890 N   0  0  0  0  0  0  0  0  0  0  0  0
  162.1890  210.1940  149.9430 C   0  0  0  0  0  3  0  0  0  0  0  0
  161.9030  205.5260  147.9960 C   0  0  0  0  0  2  0  0  0  0  0  0
  160.9770  205.3750  145.1090 C   0  0  0  0  0  1  0  0  0  0  0  0
  161.0990  200.6580  148.3210 N   0  0  0  0  0  1  0  0  0  0  0  0
  161.1670  204.3280  147.3870 C   0  0  2  0  0  3  0  0  0  0  0  0
  161.4900  203.0500  148.1670 C   0  0  0  0  0  2  0  0  0  0  0  0
  161.1110  201.6790  146.1170 C   0  0  0  0  0  2  0  0  0  0  0  0
  160.7230  202.9280  145.3340 C   0  0  0  0  0  2  0  0  0  0  0  0
  160.7440  201.8560  147.5850 C   0  0  1  0  0  3  0  0  0  0  0  0
  161.4480  204.1560  145.8830 C   0  0  1  0  0  3  0  0  0  0  0  0
  160.6850  207.7760  152.9920 N   0  0  0  0  0  2  0  0  0  0  0  0
  161.3390  207.5600  154.2740 C   0  0  0  0  0  2  0  0  0  0  0  0
  161.5030  209.9950  154.7870 C   0  0  0  0  0  3  0  0  0  0  0  0
  161.0920  208.7200  155.1820 C   0  0  0  0  0  0  0  0  0  0  0  0
  159.9490  206.9860  157.0090 Cl  0  0  0  0  0  0  0  0  0  0  0  0
  161.3080  211.0630  155.6050 N   0  0  0  0  0  0  0  0  0  0  0  0
  160.7170  210.9280  156.8230 C   0  0  0  0  0  3  0  0  0  0  0  0
  160.4840  208.5580  156.4390 C   0  0  0  0  0  0  0  0  0  0  0  0
  160.2960  209.6720  157.2610 C   0  0  0  0  0  3  0  0  0  0  0  0
  1  9  1  0  0  0  0
  1  8  1  0  0  0  0
  2  3  2  0  0  0  0
  2  5  1  0  0  0  0
  3 10  1  0  0  0  0
  4  6  1  0  0  0  0
  5  1  2  0  0  0  0
  6  8  1  0  0  0  0
  7 11  1  6  0  0  0
  7  5  1  0  0  0  0
  7  4  1  0  0  0  0
  8 20  1  1  0  0  0
 10  9  2  0  0  0  0
 14 11  1  1  0  0  0
 14 15  1  0  0  0  0
 16 18  1  0  0  0  0
 17 19  1  0  0  0  0
 17 16  1  0  0  0  0
 18 15  1  0  0  0  0
 18 13  1  1  0  0  0
 19 12  1  6  0  0  0
 19 14  1  0  0  0  0
 20 21  1  0  0  0  0
 21 23  1  0  0  0  0
 22 23  2  0  0  0  0
 22 25  1  0  0  0  0
 23 27  1  0  0  0  0
 25 26  2  0  0  0  0
 26 28  1  0  0  0  0
 27 24  1  0  0  0  0
 27 28  2  0  0  0  0
M  END
>  <MODEL>
3

>  <REMARK>
 VINA RESULT:      -8.4      2.073      3.464
  Name = 
  5 active torsions:
  status: ('A' for Active; 'I' for Inactive)
    1  A    between atoms: C_3  and  C_23
    2  A    between atoms: C_7  and  C_17
    3  A    between atoms: C_13  and  C_17
    4  A    between atoms: C_15  and  N_19
    5  A    between atoms: N_19  and  C_23
                            x       y       z     vdW  Elec       q    Type
                         _______ _______ _______ _____ _____    ______ ____

>  <TORSDO>
F 5

$$$$
=
 OpenBabel11072414103D

 28 31  0  0  1  0  0  0  0  0999 V2000
  161.3340  207.7050  151.6410 C   0  0  0  0  0  0  0  0  0  0  0  0
  161.3210  205.5000  152.6000 C   0  0  0  0  0  3  0  0  0  0  0  0
  161.2560  206.0600  153.8360 N   0  0  0  0  0  0  0  0  0  0  0  0
  161.0130  206.6630  149.0520 N   0  0  0  0  0  2  0  0  0  0  0  0
  161.3280  206.3100  151.4600 C   0  0  0  0  0  0  0  0  0  0  0  0
  161.7770  207.8980  149.1850 C   0  0  0  0  0  2  0  0  0  0  0  0
  161.4700  205.7190  150.0730 C   0  0  1  0  0  3  0  0  0  0  0  0
  161.3490  208.6330  150.4540 C   0  0  2  0  0  3  0  0  0  0  0  0
  161.2510  208.2190  152.8980 N   0  0  0  0  0  0  0  0  0  0  0  0
  161.2140  207.4080  153.9880 C   0  0  0  0  0  3  0  0  0  0  0  0
  160.6870  204.4090  149.9390 C   0  0  0  0  0  2  0  0  0  0  0  0
  160.8360  201.3820  150.0970 C   0  0  0  0  0  1  0  0  0  0  0  0
  161.3910  204.0110  145.0610 N   0  0  0  0  0  1  0  0  0  0  0  0
  161.2030  203.5100  148.8110 C   0  0  2  0  0  3  0  0  0  0  0  0
  161.0510  204.2110  147.4580 C   0  0  0  0  0  2  0  0  0  0  0  0
  160.8470  202.0030  146.3140 C   0  0  0  0  0  2  0  0  0  0  0  0
  161.0600  201.2790  147.6390 C   0  0  0  0  0  2  0  0  0  0  0  0
  161.5840  203.3360  146.3300 C   0  0  1  0  0  3  0  0  0  0  0  0
  160.5410  202.1210  148.8040 C   0  0  1  0  0  3  0  0  0  0  0  0
  162.2560  209.7460  150.6930 N   0  0  0  0  0  2  0  0  0  0  0  0
  161.4440  210.9440  150.8540 C   0  0  0  0  0  2  0  0  0  0  0  0
  162.5440  211.5150  148.6900 C   0  0  0  0  0  3  0  0  0  0  0  0
  161.5900  211.8300  149.6610 C   0  0  0  0  0  0  0  0  0  0  0  0
  159.6020  213.4580  150.6840 Cl  0  0  0  0  0  0  0  0  0  0  0  0
  162.7110  212.3180  147.6050 N   0  0  0  0  0  0  0  0  0  0  0  0
  161.9660  213.4430  147.4320 C   0  0  0  0  0  3  0  0  0  0  0  0
  160.8150  212.9910  149.5030 C   0  0  0  0  0  0  0  0  0  0  0  0
  161.0050  213.7990  148.3790 C   0  0  0  0  0  3  0  0  0  0  0  0
  1  9  1  0  0  0  0
  2  3  2  0  0  0  0
  3 10  1  0  0  0  0
  4  6  1  0  0  0  0
  4  7  1  0  0  0  0
  5  1  2  0  0  0  0
  5  2  1  0  0  0  0
  6  8  1  0  0  0  0
  7 11  1  1  0  0  0
  7  5  1  0  0  0  0
  8 20  1  1  0  0  0
  8  1  1  0  0  0  0
  9 10  2  0  0  0  0
 14 11  1  1  0  0  0
 15 14  1  0  0  0  0
 16 18  1  0  0  0  0
 16 17  1  0  0  0  0
 17 19  1  0  0  0  0
 18 13  1  6  0  0  0
 18 15  1  0  0  0  0
 19 14  1  0  0  0  0
 19 12  1  1  0  0  0
 20 21  1  0  0  0  0
 22 23  1  0  0  0  0
 23 21  1  0  0  0  0
 25 22  2  0  0  0  0
 26 25  1  0  0  0  0
 26 28  2  0  0  0  0
 27 23  2  0  0  0  0
 27 24  1  0  0  0  0
 28 27  1  0  0  0  0
M  END
>  <MODEL>
4

>  <REMARK>
 VINA RESULT:      -8.3      2.134      3.275
  Name = 
  5 active torsions:
  status: ('A' for Active; 'I' for Inactive)
    1  A    between atoms: C_3  and  C_23
    2  A    between atoms: C_7  and  C_17
    3  A    between atoms: C_13  and  C_17
    4  A    between atoms: C_15  and  N_19
    5  A    between atoms: N_19  and  C_23
                            x       y       z     vdW  Elec       q    Type
                         _______ _______ _______ _____ _____    ______ ____

>  <TORSDO>
F 5

$$$$
=
 OpenBabel11072414103D

 28 31  0  0  1  0  0  0  0  0999 V2000
  161.1890  207.4870  152.2120 C   0  0  0  0  0  0  0  0  0  0  0  0
  161.2050  205.0970  152.4770 C   0  0  0  0  0  3  0  0  0  0  0  0
  161.1130  205.2650  153.8210 N   0  0  0  0  0  0  0  0  0  0  0  0
  160.9230  207.2510  149.4250 N   0  0  0  0  0  2  0  0  0  0  0  0
  161.2110  206.2070  151.6270 C   0  0  0  0  0  0  0  0  0  0  0  0
  161.6620  208.4020  149.9310 C   0  0  0  0  0  2  0  0  0  0  0  0
  161.3830  206.0540  150.1300 C   0  0  1  0  0  3  0  0  0  0  0  0
  161.2030  208.7240  151.3520 C   0  0  2  0  0  3  0  0  0  0  0  0
  161.0800  207.6050  153.5620 N   0  0  0  0  0  0  0  0  0  0  0  0
  161.0430  206.5090  154.3640 C   0  0  0  0  0  3  0  0  0  0  0  0
  160.6270  204.8320  149.6020 C   0  0  0  0  0  2  0  0  0  0  0  0
  160.8720  201.8330  149.2000 C   0  0  0  0  0  1  0  0  0  0  0  0
  161.9240  205.3920  144.8630 N   0  0  0  0  0  1  0  0  0  0  0  0
  161.3090  204.1750  148.3960 C   0  0  2  0  0  3  0  0  0  0  0  0
  161.2930  205.1220  147.1930 C   0  0  0  0  0  2  0  0  0  0  0  0
  161.3110  203.1730  145.6350 C   0  0  0  0  0  2  0  0  0  0  0  0
  161.3920  202.2100  146.8140 C   0  0  0  0  0  2  0  0  0  0  0  0
  161.9900  204.4880  145.9950 C   0  0  1  0  0  3  0  0  0  0  0  0
  160.7060  202.8030  148.0430 C   0  0  1  0  0  3  0  0  0  0  0  0
  162.0860  209.7290  151.9250 N   0  0  0  0  0  2  0  0  0  0  0  0
  161.3910  211.0070  151.8610 C   0  0  0  0  0  2  0  0  0  0  0  0
  159.0360  211.3370  152.6130 C   0  0  0  0  0  3  0  0  0  0  0  0
  160.3700  211.0940  152.9490 C   0  0  0  0  0  0  0  0  0  0  0  0
  162.3770  210.6730  154.8050 Cl  0  0  0  0  0  0  0  0  0  0  0  0
  158.0910  211.4410  153.5850 N   0  0  0  0  0  0  0  0  0  0  0  0
  158.4100  211.3190  154.9020 C   0  0  0  0  0  3  0  0  0  0  0  0
  160.7200  210.9700  154.3040 C   0  0  0  0  0  0  0  0  0  0  0  0
  159.7310  211.0820  155.2840 C   0  0  0  0  0  3  0  0  0  0  0  0
  1  9  1  0  0  0  0
  2  3  2  0  0  0  0
  3 10  1  0  0  0  0
  4  6  1  0  0  0  0
  4  7  1  0  0  0  0
  5  1  2  0  0  0  0
  5  2  1  0  0  0  0
  6  8  1  0  0  0  0
  7 11  1  6  0  0  0
  7  5  1  0  0  0  0
  8 20  1  1  0  0  0
  8  1  1  0  0  0  0
  9 10  2  0  0  0  0
 14 11  1  1  0  0  0
 15 14  1  0  0  0  0
 16 18  1  0  0  0  0
 16 17  1  0  0  0  0
 17 19  1  0  0  0  0
 18 13  1  6  0  0  0
 18 15  1  0  0  0  0
 19 14  1  0  0  0  0
 19 12  1  1  0  0  0
 21 20  1  0  0  0  0
 21 23  1  0  0  0  0
 22 23  2  0  0  0  0
 22 25  1  0  0  0  0
 23 27  1  0  0  0  0
 25 26  2  0  0  0  0
 26 28  1  0  0  0  0
 27 24  1  0  0  0  0
 27 28  2  0  0  0  0
M  END
>  <MODEL>
5

>  <REMARK>
 VINA RESULT:      -8.3      1.295      1.495
  Name = 
  5 active torsions:
  status: ('A' for Active; 'I' for Inactive)
    1  A    between atoms: C_3  and  C_23
    2  A    between atoms: C_7  and  C_17
    3  A    between atoms: C_13  and  C_17
    4  A    between atoms: C_15  and  N_19
    5  A    between atoms: N_19  and  C_23
                            x       y       z     vdW  Elec       q    Type
                         _______ _______ _______ _____ _____    ______ ____

>  <TORSDO>
F 5

$$$$
=
 OpenBabel11072414103D

 28 31  0  0  1  0  0  0  0  0999 V2000
  161.4910  207.7960  150.7050 C   0  0  0  0  0  0  0  0  0  0  0  0
  162.1480  210.1080  150.6240 C   0  0  0  0  0  3  0  0  0  0  0  0
  162.2430  210.0130  149.2730 N   0  0  0  0  0  0  0  0  0  0  0  0
  160.8310  208.0020  153.4290 N   0  0  0  0  0  2  0  0  0  0  0  0
  161.7350  209.0070  151.3800 C   0  0  0  0  0  0  0  0  0  0  0  0
  161.3330  206.7160  152.9580 C   0  0  0  0  0  2  0  0  0  0  0  0
  161.6870  209.0620  152.8930 C   0  0  1  0  0  3  0  0  0  0  0  0
  161.0520  206.5710  151.4640 C   0  0  2  0  0  3  0  0  0  0  0  0
  161.5830  207.7540  149.3490 N   0  0  0  0  0  0  0  0  0  0  0  0
  161.9560  208.8490  148.6350 C   0  0  0  0  0  3  0  0  0  0  0  0
  161.1840  210.4200  153.3890 C   0  0  0  0  0  2  0  0  0  0  0  0
  162.0120  209.9570  156.2720 C   0  0  0  0  0  1  0  0  0  0  0  0
  156.6950  211.6460  155.0630 N   0  0  0  0  0  1  0  0  0  0  0  0
  160.2040  210.3090  154.5620 C   0  0  2  0  0  3  0  0  0  0  0  0
  158.8970  211.0390  154.2360 C   0  0  0  0  0  2  0  0  0  0  0  0
  158.5150  211.4790  156.6620 C   0  0  0  0  0  2  0  0  0  0  0  0
  159.7790  210.7030  157.0180 C   0  0  0  0  0  2  0  0  0  0  0  0
  157.9050  210.9140  155.3860 C   0  0  1  0  0  3  0  0  0  0  0  0
  160.8060  210.7980  155.8920 C   0  0  1  0  0  3  0  0  0  0  0  0
  161.7380  205.3900  150.9590 N   0  0  0  0  0  2  0  0  0  0  0  0
  160.7210  204.4050  150.6220 C   0  0  0  0  0  2  0  0  0  0  0  0
  161.2350  204.7910  148.2120 C   0  0  0  0  0  3  0  0  0  0  0  0
  160.9420  203.8890  149.2370 C   0  0  0  0  0  0  0  0  0  0  0  0
  160.4560  201.3280  150.1650 Cl  0  0  0  0  0  0  0  0  0  0  0  0
  161.4200  204.3480  146.9400 N   0  0  0  0  0  0  0  0  0  0  0  0
  161.3220  203.0280  146.6250 C   0  0  0  0  0  3  0  0  0  0  0  0
  160.8310  202.5210  148.9320 C   0  0  0  0  0  0  0  0  0  0  0  0
  161.0250  202.0920  147.6170 C   0  0  0  0  0  3  0  0  0  0  0  0
  1  5  1  0  0  0  0
  1  8  1  0  0  0  0
  2  5  2  0  0  0  0
  3  2  1  0  0  0  0
  5  7  1  0  0  0  0
  6  4  1  0  0  0  0
  7 11  1  6  0  0  0
  7  4  1  0  0  0  0
  8 20  1  6  0  0  0
  8  6  1  0  0  0  0
  9  1  2  0  0  0  0
 10  3  2  0  0  0  0
 10  9  1  0  0  0  0
 14 11  1  6  0  0  0
 14 19  1  0  0  0  0
 15 14  1  0  0  0  0
 15 18  1  0  0  0  0
 16 17  1  0  0  0  0
 18 13  1  6  0  0  0
 18 16  1  0  0  0  0
 19 12  1  1  0  0  0
 19 17  1  0  0  0  0
 21 20  1  0  0  0  0
 22 23  1  0  0  0  0
 23 21  1  0  0  0  0
 25 22  2  0  0  0  0
 26 25  1  0  0  0  0
 26 28  2  0  0  0  0
 27 23  2  0  0  0  0
 27 24  1  0  0  0  0
 28 27  1  0  0  0  0
M  END
>  <MODEL>
6

>  <REMARK>
 VINA RESULT:      -8.2      2.602      8.903
  Name = 
  5 active torsions:
  status: ('A' for Active; 'I' for Inactive)
    1  A    between atoms: C_3  and  C_23
    2  A    between atoms: C_7  and  C_17
    3  A    between atoms: C_13  and  C_17
    4  A    between atoms: C_15  and  N_19
    5  A    between atoms: N_19  and  C_23
                            x       y       z     vdW  Elec       q    Type
                         _______ _______ _______ _____ _____    ______ ____

>  <TORSDO>
F 5

$$$$
=
 OpenBabel11072414103D

 28 31  0  0  1  0  0  0  0  0999 V2000
  161.6720  208.7080  151.0620 C   0  0  0  0  0  0  0  0  0  0  0  0
  161.7460  208.6110  148.6600 C   0  0  0  0  0  3  0  0  0  0  0  0
  161.9990  209.9450  148.6340 N   0  0  0  0  0  0  0  0  0  0  0  0
  161.5970  205.9050  151.2470 N   0  0  0  0  0  2  0  0  0  0  0  0
  161.6080  207.9440  149.8810 C   0  0  0  0  0  0  0  0  0  0  0  0
  160.8980  206.6620  152.2800 C   0  0  0  0  0  2  0  0  0  0  0  0
  161.2560  206.4730  149.9410 C   0  0  1  0  0  3  0  0  0  0  0  0
  161.5220  208.0510  152.4090 C   0  0  2  0  0  3  0  0  0  0  0  0
  161.9440  210.0380  150.9860 N   0  0  0  0  0  0  0  0  0  0  0  0
  162.1060  210.6560  149.7860 C   0  0  0  0  0  3  0  0  0  0  0  0
  161.9690  205.6810  148.8420 C   0  0  0  0  0  2  0  0  0  0  0  0
  161.6010  204.8390  145.9490 C   0  0  0  0  0  1  0  0  0  0  0  0
  160.4140  201.1760  150.1630 N   0  0  0  0  0  1  0  0  0  0  0  0
  161.1960  204.4340  148.3970 C   0  0  2  0  0  3  0  0  0  0  0  0
  161.1730  203.3920  149.5190 C   0  0  0  0  0  2  0  0  0  0  0  0
  160.9980  201.5570  147.8370 C   0  0  0  0  0  2  0  0  0  0  0  0
  160.9550  202.5780  146.7050 C   0  0  0  0  0  2  0  0  0  0  0  0
  160.3860  202.1580  149.0960 C   0  0  1  0  0  3  0  0  0  0  0  0
  161.7320  203.8370  147.0830 C   0  0  1  0  0  3  0  0  0  0  0  0
  160.6930  208.8690  153.2820 N   0  0  0  0  0  2  0  0  0  0  0  0
  161.3710  208.9610  154.5670 C   0  0  0  0  0  2  0  0  0  0  0  0
  159.3710  210.2100  155.3830 C   0  0  0  0  0  3  0  0  0  0  0  0
  160.7590  210.0420  155.3980 C   0  0  0  0  0  0  0  0  0  0  0  0
  163.2920  210.7730  156.2320 Cl  0  0  0  0  0  0  0  0  0  0  0  0
  158.7920  211.1990  156.1130 N   0  0  0  0  0  0  0  0  0  0  0  0
  159.5340  212.0520  156.8710 C   0  0  0  0  0  3  0  0  0  0  0  0
  161.5430  210.9150  156.1690 C   0  0  0  0  0  0  0  0  0  0  0  0
  160.9230  211.9240  156.9110 C   0  0  0  0  0  3  0  0  0  0  0  0
  1  8  1  0  0  0  0
  2  5  1  0  0  0  0
  3  2  2  0  0  0  0
  3 10  1  0  0  0  0
  4  6  1  0  0  0  0
  5  7  1  0  0  0  0
  5  1  2  0  0  0  0
  6  8  1  0  0  0  0
  7 11  1  6  0  0  0
  7  4  1  0  0  0  0
  8 20  1  1  0  0  0
  9  1  1  0  0  0  0
 10  9  2  0  0  0  0
 14 11  1  1  0  0  0
 14 15  1  0  0  0  0
 16 18  1  0  0  0  0
 17 19  1  0  0  0  0
 17 16  1  0  0  0  0
 18 15  1  0  0  0  0
 18 13  1  1  0  0  0
 19 12  1  6  0  0  0
 19 14  1  0  0  0  0
 20 21  1  0  0  0  0
 21 23  1  0  0  0  0
 22 23  2  0  0  0  0
 22 25  1  0  0  0  0
 23 27  1  0  0  0  0
 25 26  2  0  0  0  0
 26 28  1  0  0  0  0
 27 24  1  0  0  0  0
 27 28  2  0  0  0  0
M  END
>  <MODEL>
7

>  <REMARK>
 VINA RESULT:      -8.1      2.214      3.558
  Name = 
  5 active torsions:
  status: ('A' for Active; 'I' for Inactive)
    1  A    between atoms: C_3  and  C_23
    2  A    between atoms: C_7  and  C_17
    3  A    between atoms: C_13  and  C_17
    4  A    between atoms: C_15  and  N_19
    5  A    between atoms: N_19  and  C_23
                            x       y       z     vdW  Elec       q    Type
                         _______ _______ _______ _____ _____    ______ ____

>  <TORSDO>
F 5

$$$$
=
 OpenBabel11072414103D

 28 31  0  0  1  0  0  0  0  0999 V2000
  161.5120  209.3890  150.9270 C   0  0  0  0  0  0  0  0  0  0  0  0
  161.2670  207.6160  152.5330 C   0  0  0  0  0  3  0  0  0  0  0  0
  161.2030  208.5460  153.5200 N   0  0  0  0  0  0  0  0  0  0  0  0
  161.2030  207.5950  148.7870 N   0  0  0  0  0  2  0  0  0  0  0  0
  161.3900  208.0130  151.1980 C   0  0  0  0  0  0  0  0  0  0  0  0
  162.0680  208.7490  148.5720 C   0  0  0  0  0  2  0  0  0  0  0  0
  161.5340  206.9990  150.0830 C   0  0  1  0  0  3  0  0  0  0  0  0
  161.6560  209.8820  149.5100 C   0  0  2  0  0  3  0  0  0  0  0  0
  161.4250  210.2840  151.9470 N   0  0  0  0  0  0  0  0  0  0  0  0
  161.2740  209.8720  153.2330 C   0  0  0  0  0  3  0  0  0  0  0  0
  160.6450  205.7760  150.3200 C   0  0  0  0  0  2  0  0  0  0  0  0
  160.9720  203.1540  151.8150 C   0  0  0  0  0  1  0  0  0  0  0  0
  161.3420  203.2610  146.1200 N   0  0  0  0  0  1  0  0  0  0  0  0
  161.2060  204.4920  149.6990 C   0  0  2  0  0  3  0  0  0  0  0  0
  161.0050  204.5010  148.1810 C   0  0  0  0  0  2  0  0  0  0  0  0
  160.9240  202.0070  148.1570 C   0  0  0  0  0  2  0  0  0  0  0  0
  161.1870  201.9680  149.6590 C   0  0  0  0  0  2  0  0  0  0  0  0
  161.5820  203.2400  147.5500 C   0  0  1  0  0  3  0  0  0  0  0  0
  160.6260  203.2160  150.3380 C   0  0  1  0  0  3  0  0  0  0  0  0
  162.6480  210.9460  149.4430 N   0  0  0  0  0  2  0  0  0  0  0  0
  162.3530  211.7430  148.2620 C   0  0  0  0  0  2  0  0  0  0  0  0
  160.9110  213.1100  149.7700 C   0  0  0  0  0  3  0  0  0  0  0  0
  161.1400  212.5830  148.4960 C   0  0  0  0  0  0  0  0  0  0  0  0
  160.4180  212.1970  145.8540 Cl  0  0  0  0  0  0  0  0  0  0  0  0
  159.8040  213.8600  150.0140 N   0  0  0  0  0  0  0  0  0  0  0  0
  158.8890  214.1160  149.0400 C   0  0  0  0  0  3  0  0  0  0  0  0
  160.2040  212.8320  147.4780 C   0  0  0  0  0  0  0  0  0  0  0  0
  159.0740  213.6060  147.7550 C   0  0  0  0  0  3  0  0  0  0  0  0
  1  5  2  0  0  0  0
  1  9  1  0  0  0  0
  2  3  2  0  0  0  0
  4  7  1  0  0  0  0
  5  2  1  0  0  0  0
  6  4  1  0  0  0  0
  6  8  1  0  0  0  0
  7 11  1  1  0  0  0
  7  5  1  0  0  0  0
  8 20  1  1  0  0  0
  8  1  1  0  0  0  0
  9 10  2  0  0  0  0
 10  3  1  0  0  0  0
 14 11  1  1  0  0  0
 14 19  1  0  0  0  0
 15 14  1  0  0  0  0
 16 17  1  0  0  0  0
 17 19  1  0  0  0  0
 18 13  1  6  0  0  0
 18 16  1  0  0  0  0
 18 15  1  0  0  0  0
 19 12  1  1  0  0  0
 21 23  1  0  0  0  0
 21 20  1  0  0  0  0
 22 25  1  0  0  0  0
 23 22  2  0  0  0  0
 24 27  1  0  0  0  0
 26 25  2  0  0  0  0
 27 28  2  0  0  0  0
 27 23  1  0  0  0  0
 28 26  1  0  0  0  0
M  END
>  <MODEL>
8

>  <REMARK>
 VINA RESULT:      -8.0      2.905      4.005
  Name = 
  5 active torsions:
  status: ('A' for Active; 'I' for Inactive)
    1  A    between atoms: C_3  and  C_23
    2  A    between atoms: C_7  and  C_17
    3  A    between atoms: C_13  and  C_17
    4  A    between atoms: C_15  and  N_19
    5  A    between atoms: N_19  and  C_23
                            x       y       z     vdW  Elec       q    Type
                         _______ _______ _______ _____ _____    ______ ____

>  <TORSDO>
F 5

$$$$
=
 OpenBabel11072414103D

 28 31  0  0  1  0  0  0  0  0999 V2000
  161.4600  208.0210  150.6330 C   0  0  0  0  0  0  0  0  0  0  0  0
  162.2180  210.3020  150.6940 C   0  0  0  0  0  3  0  0  0  0  0  0
  162.3000  210.2900  149.3380 N   0  0  0  0  0  0  0  0  0  0  0  0
  160.8280  208.0790  153.3700 N   0  0  0  0  0  2  0  0  0  0  0  0
  161.7620  209.1740  151.3820 C   0  0  0  0  0  0  0  0  0  0  0  0
  161.2690  206.8060  152.8130 C   0  0  0  0  0  2  0  0  0  0  0  0
  161.7260  209.1330  152.8950 C   0  0  1  0  0  3  0  0  0  0  0  0
  160.9710  206.7690  151.3150 C   0  0  2  0  0  3  0  0  0  0  0  0
  161.5400  208.0620  149.2760 N   0  0  0  0  0  0  0  0  0  0  0  0
  161.9570  209.1830  148.6300 C   0  0  0  0  0  3  0  0  0  0  0  0
  161.2870  210.4770  153.4820 C   0  0  0  0  0  2  0  0  0  0  0  0
  161.9850  209.9400  156.3870 C   0  0  0  0  0  1  0  0  0  0  0  0
  156.7280  211.6630  154.9830 N   0  0  0  0  0  1  0  0  0  0  0  0
  160.2550  210.3370  154.6060 C   0  0  2  0  0  3  0  0  0  0  0  0
  158.9640  211.0750  154.2410 C   0  0  0  0  0  2  0  0  0  0  0  0
  158.4740  211.4540  156.6580 C   0  0  0  0  0  2  0  0  0  0  0  0
  159.7200  210.6680  157.0500 C   0  0  0  0  0  2  0  0  0  0  0  0
  157.9220  210.9220  155.3420 C   0  0  1  0  0  3  0  0  0  0  0  0
  160.7970  210.7910  155.9740 C   0  0  1  0  0  3  0  0  0  0  0  0
  161.6010  205.5950  150.7290 N   0  0  0  0  0  2  0  0  0  0  0  0
  160.8000  205.1980  149.5810 C   0  0  0  0  0  2  0  0  0  0  0  0
  160.5750  202.8870  150.4930 C   0  0  0  0  0  3  0  0  0  0  0  0
  160.8530  203.7150  149.4020 C   0  0  0  0  0  0  0  0  0  0  0  0
  161.5770  204.1050  146.7610 Cl  0  0  0  0  0  0  0  0  0  0  0  0
  160.6380  201.5360  150.3620 N   0  0  0  0  0  0  0  0  0  0  0  0
  160.9720  200.9500  149.1800 C   0  0  0  0  0  3  0  0  0  0  0  0
  161.2060  203.1300  148.1750 C   0  0  0  0  0  0  0  0  0  0  0  0
  161.2630  201.7390  148.0660 C   0  0  0  0  0  3  0  0  0  0  0  0
  1  8  1  0  0  0  0
  1  5  1  0  0  0  0
  2  5  2  0  0  0  0
  3  2  1  0  0  0  0
  5  7  1  0  0  0  0
  6  4  1  0  0  0  0
  7  4  1  0  0  0  0
  7 11  1  6  0  0  0
  8 20  1  6  0  0  0
  8  6  1  0  0  0  0
  9  1  2  0  0  0  0
 10  9  1  0  0  0  0
 10  3  2  0  0  0  0
 14 11  1  6  0  0  0
 14 19  1  0  0  0  0
 15 14  1  0  0  0  0
 15 18  1  0  0  0  0
 16 17  1  0  0  0  0
 18 13  1  6  0  0  0
 18 16  1  0  0  0  0
 19 12  1  1  0  0  0
 19 17  1  0  0  0  0
 21 20  1  0  0  0  0
 23 21  1  0  0  0  0
 23 22  2  0  0  0  0
 24 27  1  0  0  0  0
 25 22  1  0  0  0  0
 26 25  2  0  0  0  0
 27 23  1  0  0  0  0
 28 27  2  0  0  0  0
 28 26  1  0  0  0  0
M  END
>  <MODEL>
9

>  <REMARK>
 VINA RESULT:      -7.8      2.652      8.876
  Name = 
  5 active torsions:
  status: ('A' for Active; 'I' for Inactive)
    1  A    between atoms: C_3  and  C_23
    2  A    between atoms: C_7  and  C_17
    3  A    between atoms: C_13  and  C_17
    4  A    between atoms: C_15  and  N_19
    5  A    between atoms: N_19  and  C_23
                            x       y       z     vdW  Elec       q    Type
                         _______ _______ _______ _____ _____    ______ ____

>  <TORSDO>
F 5

$$$$
