=
 OpenBabel11072415163D

 40 43  0  0  1  0  0  0  0  0999 V2000
  160.7350  209.1260  153.2150 N   0  0  1  0  0  0  0  0  0  0  0  0
  161.9680  211.0850  150.7760 N   0  0  0  0  0  2  0  0  0  0  0  0
  161.1490  210.1430  151.0770 C   0  0  0  0  0  0  0  0  0  0  0  0
  161.6620  208.2280  152.5160 C   0  0  2  0  0  3  0  0  0  0  0  0
  161.4840  209.7700  154.2880 C   0  0  0  0  0  2  0  0  0  0  0  0
  160.4030  211.5240  153.0630 C   0  0  1  0  0  3  0  0  0  0  0  0
  161.5820  208.4700  150.7120 S   0  0  0  0  0  0  0  0  0  0  0  0
  160.9720  211.1860  154.4220 C   0  0  0  0  0  2  0  0  0  0  0  0
  160.3140  210.2010  152.3120 C   0  0  2  0  0  3  0  0  0  0  0  0
  156.4860  213.2920  153.4450 C   0  0  0  0  0  3  0  0  0  0  0  0
  156.9010  212.2880  154.3190 C   0  0  0  0  0  3  0  0  0  0  0  0
  157.3450  213.7380  152.4390 C   0  0  0  0  0  3  0  0  0  0  0  0
  159.0530  212.1780  153.1820 C   0  0  0  0  0  0  0  0  0  0  0  0
  158.6320  213.1970  152.2860 C   0  0  0  0  0  0  0  0  0  0  0  0
  158.1720  211.7350  154.1860 C   0  0  0  0  0  3  0  0  0  0  0  0
  160.4820  214.4480  151.4220 O   0  0  0  0  0  0  0  0  0  0  0  0
  159.1560  213.3940  149.8280 N   0  0  0  0  0  2  0  0  0  0  0  0
  159.4780  213.7210  151.1830 C   0  0  0  0  0  0  0  0  0  0  0  0
  159.9080  213.9040  148.6910 C   0  0  0  0  0  2  0  0  0  0  0  0
  159.8560  212.9070  147.5480 C   0  0  0  0  0  2  0  0  0  0  0  0
  161.0520  211.9730  147.6110 C   0  0  0  0  0  2  0  0  0  0  0  0
  163.3320  212.5980  147.9150 O   0  0  0  0  0  0  0  0  0  0  0  0
  162.3040  213.5000  146.0380 N   0  0  0  0  0  1  0  0  0  0  0  0
  162.2960  212.6860  147.2060 C   0  0  0  0  0  0  0  0  0  0  0  0
  161.2600  206.4790  154.0830 O   0  0  0  0  0  0  0  0  0  0  0  0
  161.3600  206.8020  152.8690 C   0  0  0  0  0  0  0  0  0  0  0  0
  161.1840  205.7800  151.8210 C   0  0  0  0  0  0  0  0  0  0  0  0
  160.4570  203.7240  149.9690 C   0  0  2  0  0  3  0  0  0  0  0  0
  160.3920  206.1420  150.5810 C   0  0  0  0  0  2  0  0  0  0  0  0
  160.5680  205.1510  149.4270 C   0  0  1  0  0  3  0  0  0  0  0  0
  161.5720  203.4550  150.9720 C   0  0  0  0  0  2  0  0  0  0  0  0
  161.6560  204.5370  152.0090 C   0  0  0  0  0  3  0  0  0  0  0  0
  161.8850  205.4020  148.6890 C   0  0  0  0  0  2  0  0  0  0  0  0
  161.6830  206.3490  147.5130 C   0  0  0  0  0  2  0  0  0  0  0  0
  161.2560  205.5920  146.2650 C   0  0  0  0  0  2  0  0  0  0  0  0
  162.1230  204.3630  146.0650 C   0  0  0  0  0  2  0  0  0  0  0  0
  161.2890  203.2610  145.4470 C   0  0  0  0  0  1  0  0  0  0  0  0
  160.4650  202.6740  148.8610 C   0  0  0  0  0  2  0  0  0  0  0  0
  161.5240  200.4950  148.3990 C   0  0  0  0  0  2  0  0  0  0  0  0
  161.2410  201.4590  149.2710 C   0  0  0  0  0  3  0  0  0  0  0  0
  1  5  1  1  0  0  0
  2  3  2  0  0  0  0
  4 26  1  6  0  0  0
  4  1  1  0  0  0  0
  5  8  1  0  0  0  0
  6 13  1  1  0  0  0
  6  8  1  0  0  0  0
  7  3  1  0  0  0  0
  7  4  1  0  0  0  0
  9  3  1  6  0  0  0
  9  6  1  0  0  0  0
  9  1  1  0  0  0  0
 10 11  1  0  0  0  0
 12 10  2  0  0  0  0
 13 15  1  0  0  0  0
 14 12  1  0  0  0  0
 14 13  2  0  0  0  0
 15 11  2  0  0  0  0
 17 18  1  0  0  0  0
 18 16  2  0  0  0  0
 18 14  1  0  0  0  0
 19 17  1  0  0  0  0
 20 21  1  0  0  0  0
 20 19  1  0  0  0  0
 23 24  1  0  0  0  0
 24 21  1  0  0  0  0
 24 22  2  0  0  0  0
 26 25  2  0  0  0  0
 27 32  2  0  0  0  0
 27 26  1  0  0  0  0
 28 38  1  6  0  0  0
 28 31  1  0  0  0  0
 29 27  1  0  0  0  0
 30 33  1  1  0  0  0
 30 28  1  0  0  0  0
 30 29  1  0  0  0  0
 31 32  1  0  0  0  0
 34 33  1  0  0  0  0
 35 34  1  0  0  0  0
 36 35  1  0  0  0  0
 37 36  1  0  0  0  0
 38 40  1  0  0  0  0
 39 40  2  0  0  0  0
M  END
>  <MODEL>
1

>  <REMARK>
 VINA RESULT:      -7.2      0.000      0.000
  Name = 
  14 active torsions:
  status: ('A' for Active; 'I' for Inactive)
    1  A    between atoms: C_7  and  C_8
    2  A    between atoms: C_7  and  C_23
    3  A    between atoms: C_8  and  N_31
    4  A    between atoms: C_9  and  C_11
    5  A    between atoms: C_11  and  C_18
    6  A    between atoms: C_14  and  C_16
    7  A    between atoms: C_15  and  C_19
    8  A    between atoms: C_15  and  C_29
    9  A    between atoms: C_19  and  C_36
   10  A    between atoms: C_20  and  C_29
   11  A    between atoms: C_23  and  C_40
   12  A    between atoms: C_24  and  C_25
   13  A    between atoms: C_24  and  C_26
   14  A    between atoms: C_27  and  C_35
                            x       y       z     vdW  Elec       q    Type
                         _______ _______ _______ _____ _____    ______ ____

>  <TORSDO>
F 14

$$$$
=
 OpenBabel11072415163D

 40 43  0  0  1  0  0  0  0  0999 V2000
  161.3290  208.2200  153.1970 N   0  0  1  0  0  0  0  0  0  0  0  0
  159.2620  207.3430  155.7000 N   0  0  0  0  0  2  0  0  0  0  0  0
  160.4260  207.1980  155.1760 C   0  0  0  0  0  0  0  0  0  0  0  0
  160.8720  206.8870  152.7860 C   0  0  2  0  0  3  0  0  0  0  0  0
  160.4140  209.1910  152.6080 C   0  0  0  0  0  2  0  0  0  0  0  0
  160.5550  209.7150  154.9420 C   0  0  1  0  0  3  0  0  0  0  0  0
  160.7680  205.7570  154.2130 S   0  0  0  0  0  0  0  0  0  0  0  0
  160.2480  210.3250  153.5940 C   0  0  0  0  0  2  0  0  0  0  0  0
  161.1940  208.3630  154.6490 C   0  0  2  0  0  3  0  0  0  0  0  0
  163.2710  212.1380  157.2590 C   0  0  0  0  0  3  0  0  0  0  0  0
  163.7420  211.0630  156.5070 C   0  0  0  0  0  3  0  0  0  0  0  0
  161.9090  212.4420  157.2610 C   0  0  0  0  0  3  0  0  0  0  0  0
  161.4770  210.5950  155.7430 C   0  0  0  0  0  0  0  0  0  0  0  0
  160.9920  211.6860  156.5130 C   0  0  0  0  0  0  0  0  0  0  0  0
  162.8520  210.2970  155.7590 C   0  0  0  0  0  3  0  0  0  0  0  0
  158.7260  211.3740  157.2220 O   0  0  0  0  0  0  0  0  0  0  0  0
  159.1130  213.2560  155.9120 N   0  0  0  0  0  2  0  0  0  0  0  0
  159.5590  212.0710  156.5790 C   0  0  0  0  0  0  0  0  0  0  0  0
  157.7200  213.6770  155.8930 C   0  0  0  0  0  2  0  0  0  0  0  0
  157.1170  213.4070  154.5260 C   0  0  0  0  0  2  0  0  0  0  0  0
  156.8690  211.9190  154.3470 C   0  0  0  0  0  2  0  0  0  0  0  0
  155.3450  212.2290  156.1520 O   0  0  0  0  0  0  0  0  0  0  0  0
  155.3230  210.1120  155.1960 N   0  0  0  0  0  1  0  0  0  0  0  0
  155.8010  211.4510  155.2740 C   0  0  0  0  0  0  0  0  0  0  0  0
  162.9090  206.8760  151.5510 O   0  0  0  0  0  0  0  0  0  0  0  0
  161.7900  206.3290  151.7400 C   0  0  0  0  0  0  0  0  0  0  0  0
  161.4000  205.1590  150.9310 C   0  0  0  0  0  0  0  0  0  0  0  0
  160.2520  202.9370  149.5430 C   0  0  2  0  0  3  0  0  0  0  0  0
  160.6790  205.3950  149.6190 C   0  0  0  0  0  2  0  0  0  0  0  0
  160.6380  204.1630  148.7100 C   0  0  1  0  0  3  0  0  0  0  0  0
  161.3050  202.6760  150.6130 C   0  0  0  0  0  2  0  0  0  0  0  0
  161.6170  203.9180  151.3960 C   0  0  0  0  0  3  0  0  0  0  0  0
  161.9690  203.9820  147.9760 C   0  0  0  0  0  2  0  0  0  0  0  0
  162.1000  204.9750  146.8280 C   0  0  0  0  0  2  0  0  0  0  0  0
  162.1700  204.2610  145.4880 C   0  0  0  0  0  2  0  0  0  0  0  0
  160.9490  204.5820  144.6480 C   0  0  0  0  0  2  0  0  0  0  0  0
  160.4100  205.9400  145.0500 C   0  0  0  0  0  1  0  0  0  0  0  0
  160.0360  201.6920  148.6860 C   0  0  0  0  0  2  0  0  0  0  0  0
  161.6600  200.2020  147.5780 C   0  0  0  0  0  2  0  0  0  0  0  0
  161.2530  200.8170  148.6860 C   0  0  0  0  0  3  0  0  0  0  0  0
  1  5  1  6  0  0  0
  1  9  1  0  0  0  0
  3  2  2  0  0  0  0
  4 26  1  6  0  0  0
  4  1  1  0  0  0  0
  4  7  1  0  0  0  0
  5  8  1  0  0  0  0
  6 13  1  6  0  0  0
  7  3  1  0  0  0  0
  8  6  1  0  0  0  0
  9  6  1  0  0  0  0
  9  3  1  6  0  0  0
 10 12  1  0  0  0  0
 11 10  2  0  0  0  0
 13 15  2  0  0  0  0
 13 14  1  0  0  0  0
 14 18  1  0  0  0  0
 14 12  2  0  0  0  0
 15 11  1  0  0  0  0
 17 18  1  0  0  0  0
 18 16  2  0  0  0  0
 19 17  1  0  0  0  0
 20 19  1  0  0  0  0
 21 20  1  0  0  0  0
 21 24  1  0  0  0  0
 23 24  1  0  0  0  0
 24 22  2  0  0  0  0
 25 26  2  0  0  0  0
 27 32  2  0  0  0  0
 27 26  1  0  0  0  0
 28 38  1  6  0  0  0
 28 31  1  0  0  0  0
 29 27  1  0  0  0  0
 30 33  1  1  0  0  0
 30 28  1  0  0  0  0
 30 29  1  0  0  0  0
 31 32  1  0  0  0  0
 34 33  1  0  0  0  0
 35 34  1  0  0  0  0
 36 37  1  0  0  0  0
 36 35  1  0  0  0  0
 39 40  2  0  0  0  0
 40 38  1  0  0  0  0
M  END
>  <MODEL>
2

>  <REMARK>
 VINA RESULT:      -6.8      3.441      5.153
  Name = 
  14 active torsions:
  status: ('A' for Active; 'I' for Inactive)
    1  A    between atoms: C_7  and  C_8
    2  A    between atoms: C_7  and  C_23
    3  A    between atoms: C_8  and  N_31
    4  A    between atoms: C_9  and  C_11
    5  A    between atoms: C_11  and  C_18
    6  A    between atoms: C_14  and  C_16
    7  A    between atoms: C_15  and  C_19
    8  A    between atoms: C_15  and  C_29
    9  A    between atoms: C_19  and  C_36
   10  A    between atoms: C_20  and  C_29
   11  A    between atoms: C_23  and  C_40
   12  A    between atoms: C_24  and  C_25
   13  A    between atoms: C_24  and  C_26
   14  A    between atoms: C_27  and  C_35
                            x       y       z     vdW  Elec       q    Type
                         _______ _______ _______ _____ _____    ______ ____

>  <TORSDO>
F 14

$$$$
=
 OpenBabel11072415163D

 40 43  0  0  1  0  0  0  0  0999 V2000
  160.4260  208.5290  153.7050 N   0  0  1  0  0  0  0  0  0  0  0  0
  161.6320  211.2320  152.1080 N   0  0  0  0  0  2  0  0  0  0  0  0
  160.8870  210.1880  152.0280 C   0  0  0  0  0  0  0  0  0  0  0  0
  161.4800  207.9600  152.8570 C   0  0  2  0  0  3  0  0  0  0  0  0
  161.0350  208.8560  154.9900 C   0  0  0  0  0  2  0  0  0  0  0  0
  159.8790  210.8260  154.2610 C   0  0  1  0  0  3  0  0  0  0  0  0
  161.5010  208.7470  151.2130 S   0  0  0  0  0  0  0  0  0  0  0  0
  160.3820  210.1210  155.5000 C   0  0  0  0  0  2  0  0  0  0  0  0
  159.9680  209.8000  153.1370 C   0  0  2  0  0  3  0  0  0  0  0  0
  155.7950  212.1110  154.7960 C   0  0  0  0  0  3  0  0  0  0  0  0
  156.2560  210.9390  155.3950 C   0  0  0  0  0  3  0  0  0  0  0  0
  156.6610  212.8830  154.0200 C   0  0  0  0  0  3  0  0  0  0  0  0
  158.4670  211.3150  154.4460 C   0  0  0  0  0  0  0  0  0  0  0  0
  158.0010  212.5060  153.8290 C   0  0  0  0  0  0  0  0  0  0  0  0
  157.5790  210.5440  155.2180 C   0  0  0  0  0  3  0  0  0  0  0  0
  159.5240  214.3200  153.4840 O   0  0  0  0  0  0  0  0  0  0  0  0
  158.9170  213.1490  151.5700 N   0  0  0  0  0  2  0  0  0  0  0  0
  158.8510  213.3800  152.9800 C   0  0  0  0  0  0  0  0  0  0  0  0
  159.6910  213.9870  150.6660 C   0  0  0  0  0  2  0  0  0  0  0  0
  160.0930  213.1890  149.4380 C   0  0  0  0  0  2  0  0  0  0  0  0
  161.3390  213.7880  148.8080 C   0  0  0  0  0  2  0  0  0  0  0  0
  163.3490  213.0120  147.7910 O   0  0  0  0  0  0  0  0  0  0  0  0
  161.9360  211.3450  148.5800 N   0  0  0  0  0  1  0  0  0  0  0  0
  162.2740  212.7120  148.3740 C   0  0  0  0  0  0  0  0  0  0  0  0
  161.2020  205.7780  153.7720 O   0  0  0  0  0  0  0  0  0  0  0  0
  161.2910  206.4780  152.7280 C   0  0  0  0  0  0  0  0  0  0  0  0
  161.2150  205.8330  151.4040 C   0  0  0  0  0  0  0  0  0  0  0  0
  161.4670  204.7390  148.7730 C   0  0  2  0  0  3  0  0  0  0  0  0
  161.8560  204.4720  151.2240 C   0  0  0  0  0  2  0  0  0  0  0  0
  161.4220  203.7530  149.9430 C   0  0  1  0  0  3  0  0  0  0  0  0
  160.4840  205.8790  149.0080 C   0  0  0  0  0  2  0  0  0  0  0  0
  160.6550  206.4840  150.3710 C   0  0  0  0  0  3  0  0  0  0  0  0
  160.0440  203.1090  150.1190 C   0  0  0  0  0  2  0  0  0  0  0  0
  159.9590  201.7840  149.3720 C   0  0  0  0  0  2  0  0  0  0  0  0
  161.2290  200.9680  149.5540 C   0  0  0  0  0  2  0  0  0  0  0  0
  161.6590  200.3500  148.2370 C   0  0  0  0  0  2  0  0  0  0  0  0
  160.8500  200.9610  147.1110 C   0  0  0  0  0  1  0  0  0  0  0  0
  161.1990  204.0650  147.4290 C   0  0  0  0  0  2  0  0  0  0  0  0
  163.1430  204.9700  146.2090 C   0  0  0  0  0  2  0  0  0  0  0  0
  161.8220  204.8340  146.3040 C   0  0  0  0  0  3  0  0  0  0  0  0
  1  5  1  1  0  0  0
  3  2  2  0  0  0  0
  4 26  1  6  0  0  0
  4  1  1  0  0  0  0
  5  8  1  0  0  0  0
  6 13  1  1  0  0  0
  6  8  1  0  0  0  0
  7  3  1  0  0  0  0
  7  4  1  0  0  0  0
  9  3  1  6  0  0  0
  9  1  1  0  0  0  0
  9  6  1  0  0  0  0
 10 11  1  0  0  0  0
 12 10  2  0  0  0  0
 13 15  1  0  0  0  0
 14 12  1  0  0  0  0
 14 13  2  0  0  0  0
 15 11  2  0  0  0  0
 17 18  1  0  0  0  0
 18 16  2  0  0  0  0
 18 14  1  0  0  0  0
 19 17  1  0  0  0  0
 20 19  1  0  0  0  0
 21 20  1  0  0  0  0
 22 24  2  0  0  0  0
 24 23  1  0  0  0  0
 24 21  1  0  0  0  0
 26 25  2  0  0  0  0
 27 26  1  0  0  0  0
 28 38  1  6  0  0  0
 28 31  1  0  0  0  0
 28 30  1  0  0  0  0
 29 27  1  0  0  0  0
 30 33  1  1  0  0  0
 30 29  1  0  0  0  0
 31 32  1  0  0  0  0
 32 27  2  0  0  0  0
 34 35  1  0  0  0  0
 34 33  1  0  0  0  0
 36 35  1  0  0  0  0
 37 36  1  0  0  0  0
 39 40  2  0  0  0  0
 40 38  1  0  0  0  0
M  END
>  <MODEL>
3

>  <REMARK>
 VINA RESULT:      -6.6      1.223      2.507
  Name = 
  14 active torsions:
  status: ('A' for Active; 'I' for Inactive)
    1  A    between atoms: C_7  and  C_8
    2  A    between atoms: C_7  and  C_23
    3  A    between atoms: C_8  and  N_31
    4  A    between atoms: C_9  and  C_11
    5  A    between atoms: C_11  and  C_18
    6  A    between atoms: C_14  and  C_16
    7  A    between atoms: C_15  and  C_19
    8  A    between atoms: C_15  and  C_29
    9  A    between atoms: C_19  and  C_36
   10  A    between atoms: C_20  and  C_29
   11  A    between atoms: C_23  and  C_40
   12  A    between atoms: C_24  and  C_25
   13  A    between atoms: C_24  and  C_26
   14  A    between atoms: C_27  and  C_35
                            x       y       z     vdW  Elec       q    Type
                         _______ _______ _______ _____ _____    ______ ____

>  <TORSDO>
F 14

$$$$
=
 OpenBabel11072415163D

 40 43  0  0  1  0  0  0  0  0999 V2000
  161.2350  206.3330  151.2830 N   0  0  1  0  0  0  0  0  0  0  0  0
  162.6010  209.3970  151.0610 N   0  0  0  0  0  2  0  0  0  0  0  0
  161.5630  208.6730  150.8470 C   0  0  0  0  0  0  0  0  0  0  0  0
  161.5810  206.4300  149.8600 C   0  0  2  0  0  3  0  0  0  0  0  0
  162.3770  205.7310  151.9640 C   0  0  0  0  0  2  0  0  0  0  0  0
  161.8300  207.7250  153.1780 C   0  0  1  0  0  3  0  0  0  0  0  0
  161.2330  208.0970  149.2100 S   0  0  0  0  0  0  0  0  0  0  0  0
  162.4890  206.3730  153.3290 C   0  0  0  0  0  2  0  0  0  0  0  0
  161.0860  207.6760  151.8490 C   0  0  2  0  0  3  0  0  0  0  0  0
  159.0920  208.4180  156.4390 C   0  0  0  0  0  3  0  0  0  0  0  0
  159.5870  207.1400  156.1870 C   0  0  0  0  0  3  0  0  0  0  0  0
  159.4880  209.4890  155.6370 C   0  0  0  0  0  3  0  0  0  0  0  0
  160.8920  208.0060  154.3210 C   0  0  0  0  0  0  0  0  0  0  0  0
  160.3850  209.3090  154.5710 C   0  0  0  0  0  0  0  0  0  0  0  0
  160.4760  206.9360  155.1350 C   0  0  0  0  0  3  0  0  0  0  0  0
  161.8660  211.0660  153.8990 O   0  0  0  0  0  0  0  0  0  0  0  0
  159.8160  211.0130  152.8020 N   0  0  0  0  0  2  0  0  0  0  0  0
  160.7460  210.5010  153.7610 C   0  0  0  0  0  0  0  0  0  0  0  0
  160.0770  212.2010  152.0030 C   0  0  0  0  0  2  0  0  0  0  0  0
  158.8350  213.0730  151.9530 C   0  0  0  0  0  2  0  0  0  0  0  0
  158.5530  213.6650  153.3230 C   0  0  0  0  0  2  0  0  0  0  0  0
  156.1710  213.6420  153.3150 O   0  0  0  0  0  0  0  0  0  0  0  0
  157.1640  212.2970  154.9280 N   0  0  0  0  0  1  0  0  0  0  0  0
  157.2310  213.2030  153.8320 C   0  0  0  0  0  0  0  0  0  0  0  0
  160.0490  204.6140  149.6840 O   0  0  0  0  0  0  0  0  0  0  0  0
  160.8310  205.3940  149.0770 C   0  0  0  0  0  0  0  0  0  0  0  0
  161.0000  205.2730  147.6170 C   0  0  0  0  0  0  0  0  0  0  0  0
  161.6660  205.3060  144.8350 C   0  0  2  0  0  3  0  0  0  0  0  0
  162.0210  204.2880  147.0860 C   0  0  0  0  0  2  0  0  0  0  0  0
  161.8690  203.9900  145.5910 C   0  0  1  0  0  3  0  0  0  0  0  0
  160.3810  205.9840  145.2960 C   0  0  0  0  0  2  0  0  0  0  0  0
  160.3120  206.0790  146.7920 C   0  0  0  0  0  3  0  0  0  0  0  0
  160.7380  202.9880  145.3470 C   0  0  0  0  0  2  0  0  0  0  0  0
  161.0370  201.6510  146.0140 C   0  0  0  0  0  2  0  0  0  0  0  0
  160.3800  201.5610  147.3820 C   0  0  0  0  0  2  0  0  0  0  0  0
  161.2680  200.8010  148.3500 C   0  0  0  0  0  2  0  0  0  0  0  0
  160.9670  201.2540  149.7630 C   0  0  0  0  0  1  0  0  0  0  0  0
  161.6600  205.1160  143.3210 C   0  0  0  0  0  2  0  0  0  0  0  0
  161.9480  206.4950  141.2950 C   0  0  0  0  0  2  0  0  0  0  0  0
  161.7450  206.4330  142.6090 C   0  0  0  0  0  3  0  0  0  0  0  0
  1  9  1  0  0  0  0
  1  5  1  1  0  0  0
  3  2  2  0  0  0  0
  4 26  1  6  0  0  0
  4  1  1  0  0  0  0
  5  8  1  0  0  0  0
  6  8  1  0  0  0  0
  6 13  1  1  0  0  0
  7  4  1  0  0  0  0
  7  3  1  0  0  0  0
  9  3  1  6  0  0  0
  9  6  1  0  0  0  0
 11 10  1  0  0  0  0
 12 10  2  0  0  0  0
 13 14  2  0  0  0  0
 13 15  1  0  0  0  0
 14 12  1  0  0  0  0
 15 11  2  0  0  0  0
 17 18  1  0  0  0  0
 18 16  2  0  0  0  0
 18 14  1  0  0  0  0
 19 17  1  0  0  0  0
 20 19  1  0  0  0  0
 20 21  1  0  0  0  0
 21 24  1  0  0  0  0
 22 24  2  0  0  0  0
 24 23  1  0  0  0  0
 26 25  2  0  0  0  0
 27 26  1  0  0  0  0
 28 38  1  6  0  0  0
 28 31  1  0  0  0  0
 28 30  1  0  0  0  0
 29 27  1  0  0  0  0
 30 33  1  1  0  0  0
 30 29  1  0  0  0  0
 31 32  1  0  0  0  0
 32 27  2  0  0  0  0
 33 34  1  0  0  0  0
 34 35  1  0  0  0  0
 35 36  1  0  0  0  0
 36 37  1  0  0  0  0
 39 40  2  0  0  0  0
 40 38  1  0  0  0  0
M  END
>  <MODEL>
4

>  <REMARK>
 VINA RESULT:      -5.7      2.630      5.405
  Name = 
  14 active torsions:
  status: ('A' for Active; 'I' for Inactive)
    1  A    between atoms: C_7  and  C_8
    2  A    between atoms: C_7  and  C_23
    3  A    between atoms: C_8  and  N_31
    4  A    between atoms: C_9  and  C_11
    5  A    between atoms: C_11  and  C_18
    6  A    between atoms: C_14  and  C_16
    7  A    between atoms: C_15  and  C_19
    8  A    between atoms: C_15  and  C_29
    9  A    between atoms: C_19  and  C_36
   10  A    between atoms: C_20  and  C_29
   11  A    between atoms: C_23  and  C_40
   12  A    between atoms: C_24  and  C_25
   13  A    between atoms: C_24  and  C_26
   14  A    between atoms: C_27  and  C_35
                            x       y       z     vdW  Elec       q    Type
                         _______ _______ _______ _____ _____    ______ ____

>  <TORSDO>
F 14

$$$$
=
 OpenBabel11072415163D

 40 43  0  0  1  0  0  0  0  0999 V2000
  160.7240  209.2910  152.9550 N   0  0  1  0  0  0  0  0  0  0  0  0
  161.9560  206.3120  153.9140 N   0  0  0  0  0  2  0  0  0  0  0  0
  160.9030  206.9910  153.6300 C   0  0  0  0  0  0  0  0  0  0  0  0
  160.4430  209.2740  154.3960 C   0  0  2  0  0  3  0  0  0  0  0  0
  162.0290  209.9190  152.7770 C   0  0  0  0  0  2  0  0  0  0  0  0
  162.0980  207.8490  151.5700 C   0  0  1  0  0  3  0  0  0  0  0  0
  159.9010  207.6210  154.9420 S   0  0  0  0  0  0  0  0  0  0  0  0
  162.7210  209.2250  151.6260 C   0  0  0  0  0  2  0  0  0  0  0  0
  160.8630  207.9180  152.4620 C   0  0  2  0  0  3  0  0  0  0  0  0
  160.9910  206.8700  147.5160 C   0  0  0  0  0  3  0  0  0  0  0  0
  161.2020  208.1950  147.8950 C   0  0  0  0  0  3  0  0  0  0  0  0
  161.1450  205.8460  148.4520 C   0  0  0  0  0  3  0  0  0  0  0  0
  161.7330  207.4700  150.1600 C   0  0  0  0  0  0  0  0  0  0  0  0
  161.5140  206.1200  149.7790 C   0  0  0  0  0  0  0  0  0  0  0  0
  161.5660  208.4920  149.2060 C   0  0  0  0  0  3  0  0  0  0  0  0
  162.6160  204.8940  151.5150 O   0  0  0  0  0  0  0  0  0  0  0  0
  160.6550  203.9400  150.7090 N   0  0  0  0  0  2  0  0  0  0  0  0
  161.6460  204.9710  150.7120 C   0  0  0  0  0  0  0  0  0  0  0  0
  160.7360  202.7620  151.5600 C   0  0  0  0  0  2  0  0  0  0  0  0
  160.8700  201.5140  150.7040 C   0  0  0  0  0  2  0  0  0  0  0  0
  160.0940  201.6800  149.4100 C   0  0  0  0  0  2  0  0  0  0  0  0
  161.6590  200.2400  148.3340 O   0  0  0  0  0  0  0  0  0  0  0  0
  160.9080  202.0200  147.0440 N   0  0  0  0  0  1  0  0  0  0  0  0
  160.9200  201.2560  148.2450 C   0  0  0  0  0  0  0  0  0  0  0  0
  158.8170  210.2440  155.8400 O   0  0  0  0  0  0  0  0  0  0  0  0
  159.4060  210.3040  154.7290 C   0  0  0  0  0  0  0  0  0  0  0  0
  159.0650  211.3760  153.7750 C   0  0  0  0  0  0  0  0  0  0  0  0
  158.3210  213.1360  151.6450 C   0  0  2  0  0  3  0  0  0  0  0  0
  157.6070  211.7440  153.5900 C   0  0  0  0  0  2  0  0  0  0  0  0
  157.3960  213.0750  152.8640 C   0  0  1  0  0  3  0  0  0  0  0  0
  159.7780  213.0870  152.0890 C   0  0  0  0  0  2  0  0  0  0  0  0
  160.0290  211.9510  153.0380 C   0  0  0  0  0  3  0  0  0  0  0  0
  157.5980  214.2560  153.8180 C   0  0  0  0  0  2  0  0  0  0  0  0
  156.9240  213.9980  155.1590 C   0  0  0  0  0  2  0  0  0  0  0  0
  157.8440  214.3560  156.3150 C   0  0  0  0  0  2  0  0  0  0  0  0
  159.2940  214.3340  155.8680 C   0  0  0  0  0  2  0  0  0  0  0  0
  160.0850  213.4290  156.7880 C   0  0  0  0  0  1  0  0  0  0  0  0
  158.0640  214.3630  150.7750 C   0  0  0  0  0  2  0  0  0  0  0  0
  156.7820  213.2240  149.0020 C   0  0  0  0  0  2  0  0  0  0  0  0
  156.8420  214.1790  149.9260 C   0  0  0  0  0  3  0  0  0  0  0  0
  1  5  1  1  0  0  0
  1  4  1  0  0  0  0
  3  2  2  0  0  0  0
  3  7  1  0  0  0  0
  4 26  1  6  0  0  0
  4  7  1  0  0  0  0
  6 13  1  6  0  0  0
  6  8  1  0  0  0  0
  6  9  1  0  0  0  0
  8  5  1  0  0  0  0
  9  1  1  0  0  0  0
  9  3  1  1  0  0  0
 10 11  2  0  0  0  0
 10 12  1  0  0  0  0
 11 15  1  0  0  0  0
 12 14  2  0  0  0  0
 14 13  1  0  0  0  0
 14 18  1  0  0  0  0
 15 13  2  0  0  0  0
 17 18  1  0  0  0  0
 17 19  1  0  0  0  0
 18 16  2  0  0  0  0
 20 19  1  0  0  0  0
 21 20  1  0  0  0  0
 23 24  1  0  0  0  0
 24 22  2  0  0  0  0
 24 21  1  0  0  0  0
 26 25  2  0  0  0  0
 27 26  1  0  0  0  0
 28 38  1  1  0  0  0
 28 31  1  0  0  0  0
 28 30  1  0  0  0  0
 29 27  1  0  0  0  0
 30 29  1  0  0  0  0
 30 33  1  1  0  0  0
 31 32  1  0  0  0  0
 32 27  2  0  0  0  0
 33 34  1  0  0  0  0
 34 35  1  0  0  0  0
 36 35  1  0  0  0  0
 36 37  1  0  0  0  0
 39 40  2  0  0  0  0
 40 38  1  0  0  0  0
M  END
>  <MODEL>
5

>  <REMARK>
 VINA RESULT:      -5.6      3.040      9.328
  Name = 
  14 active torsions:
  status: ('A' for Active; 'I' for Inactive)
    1  A    between atoms: C_7  and  C_8
    2  A    between atoms: C_7  and  C_23
    3  A    between atoms: C_8  and  N_31
    4  A    between atoms: C_9  and  C_11
    5  A    between atoms: C_11  and  C_18
    6  A    between atoms: C_14  and  C_16
    7  A    between atoms: C_15  and  C_19
    8  A    between atoms: C_15  and  C_29
    9  A    between atoms: C_19  and  C_36
   10  A    between atoms: C_20  and  C_29
   11  A    between atoms: C_23  and  C_40
   12  A    between atoms: C_24  and  C_25
   13  A    between atoms: C_24  and  C_26
   14  A    between atoms: C_27  and  C_35
                            x       y       z     vdW  Elec       q    Type
                         _______ _______ _______ _____ _____    ______ ____

>  <TORSDO>
F 14

$$$$
=
 OpenBabel11072415163D

 40 43  0  0  1  0  0  0  0  0999 V2000
  161.2190  206.4140  151.2980 N   0  0  1  0  0  0  0  0  0  0  0  0
  162.6220  209.4610  151.0560 N   0  0  0  0  0  2  0  0  0  0  0  0
  161.5800  208.7440  150.8320 C   0  0  0  0  0  0  0  0  0  0  0  0
  161.5940  206.4860  149.8810 C   0  0  2  0  0  3  0  0  0  0  0  0
  162.3410  205.8120  152.0110 C   0  0  0  0  0  2  0  0  0  0  0  0
  161.7920  207.8290  153.1830 C   0  0  1  0  0  3  0  0  0  0  0  0
  161.2770  208.1460  149.1980 S   0  0  0  0  0  0  0  0  0  0  0  0
  162.4330  206.4730  153.3680 C   0  0  0  0  0  2  0  0  0  0  0  0
  161.0730  207.7680  151.8400 C   0  0  2  0  0  3  0  0  0  0  0  0
  158.9950  208.6030  156.3760 C   0  0  0  0  0  3  0  0  0  0  0  0
  159.4600  207.3110  156.1370 C   0  0  0  0  0  3  0  0  0  0  0  0
  159.4400  209.6610  155.5820 C   0  0  0  0  0  3  0  0  0  0  0  0
  160.8340  208.1380  154.3020 C   0  0  0  0  0  0  0  0  0  0  0  0
  160.3580  209.4550  154.5390 C   0  0  0  0  0  0  0  0  0  0  0  0
  160.3690  207.0810  155.1070 C   0  0  0  0  0  3  0  0  0  0  0  0
  161.9590  211.0600  153.7700 O   0  0  0  0  0  0  0  0  0  0  0  0
  159.8120  211.2970  152.9070 N   0  0  0  0  0  2  0  0  0  0  0  0
  160.7710  210.6350  153.7370 C   0  0  0  0  0  0  0  0  0  0  0  0
  160.1270  212.4840  152.1270 C   0  0  0  0  0  2  0  0  0  0  0  0
  160.3600  212.1030  150.6760 C   0  0  0  0  0  2  0  0  0  0  0  0
  160.4570  213.3490  149.8140 C   0  0  0  0  0  2  0  0  0  0  0  0
  161.2690  213.9040  147.6430 O   0  0  0  0  0  0  0  0  0  0  0  0
  162.0350  211.8830  148.4960 N   0  0  0  0  0  1  0  0  0  0  0  0
  161.2750  213.0830  148.5980 C   0  0  0  0  0  0  0  0  0  0  0  0
  160.0820  204.6530  149.7090 O   0  0  0  0  0  0  0  0  0  0  0  0
  160.8490  205.4450  149.1000 C   0  0  0  0  0  0  0  0  0  0  0  0
  161.0060  205.3340  147.6370 C   0  0  0  0  0  0  0  0  0  0  0  0
  161.6470  205.3870  144.8500 C   0  0  2  0  0  3  0  0  0  0  0  0
  162.0270  204.3570  147.0910 C   0  0  0  0  0  2  0  0  0  0  0  0
  161.8630  204.0680  145.5960 C   0  0  1  0  0  3  0  0  0  0  0  0
  160.3630  206.0560  145.3260 C   0  0  0  0  0  2  0  0  0  0  0  0
  160.3070  206.1430  146.8240 C   0  0  0  0  0  3  0  0  0  0  0  0
  160.7340  203.0620  145.3550 C   0  0  0  0  0  2  0  0  0  0  0  0
  161.0450  201.7220  146.0090 C   0  0  0  0  0  2  0  0  0  0  0  0
  160.2780  201.5540  147.3100 C   0  0  0  0  0  2  0  0  0  0  0  0
  161.2050  201.1000  148.4220 C   0  0  0  0  0  2  0  0  0  0  0  0
  160.5310  201.3290  149.7580 C   0  0  0  0  0  1  0  0  0  0  0  0
  161.6290  205.2060  143.3340 C   0  0  0  0  0  2  0  0  0  0  0  0
  161.9570  206.5790  141.3110 C   0  0  0  0  0  2  0  0  0  0  0  0
  161.7900  206.5200  142.6300 C   0  0  0  0  0  3  0  0  0  0  0  0
  1  9  1  0  0  0  0
  1  5  1  1  0  0  0
  3  2  2  0  0  0  0
  4 26  1  6  0  0  0
  4  1  1  0  0  0  0
  5  8  1  0  0  0  0
  6  8  1  0  0  0  0
  6 13  1  1  0  0  0
  7  4  1  0  0  0  0
  7  3  1  0  0  0  0
  9  3  1  6  0  0  0
  9  6  1  0  0  0  0
 11 10  1  0  0  0  0
 12 10  2  0  0  0  0
 13 14  2  0  0  0  0
 13 15  1  0  0  0  0
 14 12  1  0  0  0  0
 15 11  2  0  0  0  0
 17 18  1  0  0  0  0
 18 16  2  0  0  0  0
 18 14  1  0  0  0  0
 19 17  1  0  0  0  0
 20 19  1  0  0  0  0
 21 20  1  0  0  0  0
 22 24  2  0  0  0  0
 23 24  1  0  0  0  0
 24 21  1  0  0  0  0
 26 25  2  0  0  0  0
 27 26  1  0  0  0  0
 28 38  1  6  0  0  0
 28 31  1  0  0  0  0
 28 30  1  0  0  0  0
 29 27  1  0  0  0  0
 30 33  1  1  0  0  0
 30 29  1  0  0  0  0
 31 32  1  0  0  0  0
 32 27  2  0  0  0  0
 33 34  1  0  0  0  0
 34 35  1  0  0  0  0
 35 36  1  0  0  0  0
 36 37  1  0  0  0  0
 39 40  2  0  0  0  0
 40 38  1  0  0  0  0
M  END
>  <MODEL>
6

>  <REMARK>
 VINA RESULT:      -5.4      2.259      4.645
  Name = 
  14 active torsions:
  status: ('A' for Active; 'I' for Inactive)
    1  A    between atoms: C_7  and  C_8
    2  A    between atoms: C_7  and  C_23
    3  A    between atoms: C_8  and  N_31
    4  A    between atoms: C_9  and  C_11
    5  A    between atoms: C_11  and  C_18
    6  A    between atoms: C_14  and  C_16
    7  A    between atoms: C_15  and  C_19
    8  A    between atoms: C_15  and  C_29
    9  A    between atoms: C_19  and  C_36
   10  A    between atoms: C_20  and  C_29
   11  A    between atoms: C_23  and  C_40
   12  A    between atoms: C_24  and  C_25
   13  A    between atoms: C_24  and  C_26
   14  A    between atoms: C_27  and  C_35
                            x       y       z     vdW  Elec       q    Type
                         _______ _______ _______ _____ _____    ______ ____

>  <TORSDO>
F 14

$$$$
=
 OpenBabel11072415163D

 40 43  0  0  1  0  0  0  0  0999 V2000
  161.2680  208.6830  151.9540 N   0  0  1  0  0  0  0  0  0  0  0  0
  162.5170  209.7570  149.0220 N   0  0  0  0  0  2  0  0  0  0  0  0
  161.5510  209.1510  149.6140 C   0  0  0  0  0  0  0  0  0  0  0  0
  161.8060  207.4520  151.3610 C   0  0  2  0  0  3  0  0  0  0  0  0
  162.3280  209.2680  152.7680 C   0  0  0  0  0  2  0  0  0  0  0  0
  161.5300  211.0120  151.3300 C   0  0  1  0  0  3  0  0  0  0  0  0
  161.4810  207.3870  149.5690 S   0  0  0  0  0  0  0  0  0  0  0  0
  162.2190  210.7720  152.6530 C   0  0  0  0  0  2  0  0  0  0  0  0
  160.9820  209.6570  150.8970 C   0  0  2  0  0  3  0  0  0  0  0  0
  158.3110  213.8490  151.7850 C   0  0  0  0  0  3  0  0  0  0  0  0
  158.6340  212.9690  152.8170 C   0  0  0  0  0  3  0  0  0  0  0  0
  159.0370  213.8200  150.5930 C   0  0  0  0  0  3  0  0  0  0  0  0
  160.4280  212.0300  151.4640 C   0  0  0  0  0  0  0  0  0  0  0  0
  160.0990  212.9200  150.4070 C   0  0  0  0  0  0  0  0  0  0  0  0
  159.6810  212.0660  152.6560 C   0  0  0  0  0  3  0  0  0  0  0  0
  162.0550  213.1580  149.0480 O   0  0  0  0  0  0  0  0  0  0  0  0
  160.0830  212.7300  147.8940 N   0  0  0  0  0  2  0  0  0  0  0  0
  160.8120  212.9500  149.1050 C   0  0  0  0  0  0  0  0  0  0  0  0
  160.7000  212.7870  146.5770 C   0  0  0  0  0  2  0  0  0  0  0  0
  159.7350  212.2580  145.5310 C   0  0  0  0  0  2  0  0  0  0  0  0
  159.5340  213.2870  144.4320 C   0  0  0  0  0  2  0  0  0  0  0  0
  161.2560  214.1540  143.0310 O   0  0  0  0  0  0  0  0  0  0  0  0
  160.8070  211.8910  142.7570 N   0  0  0  0  0  1  0  0  0  0  0  0
  160.5860  213.1490  143.3860 C   0  0  0  0  0  0  0  0  0  0  0  0
  160.7550  206.3790  153.2100 O   0  0  0  0  0  0  0  0  0  0  0  0
  161.2200  206.2540  152.0460 C   0  0  0  0  0  0  0  0  0  0  0  0
  161.1860  204.9380  151.3800 C   0  0  0  0  0  0  0  0  0  0  0  0
  160.7630  202.3140  150.3230 C   0  0  2  0  0  3  0  0  0  0  0  0
  160.2830  204.7580  150.1770 C   0  0  0  0  0  2  0  0  0  0  0  0
  160.5840  203.4950  149.3660 C   0  0  1  0  0  3  0  0  0  0  0  0
  161.9550  202.5580  151.2410 C   0  0  0  0  0  2  0  0  0  0  0  0
  161.8870  203.9110  151.8870 C   0  0  0  0  0  3  0  0  0  0  0  0
  161.7960  203.7060  148.4550 C   0  0  0  0  0  2  0  0  0  0  0  0
  161.4720  204.6770  147.3270 C   0  0  0  0  0  2  0  0  0  0  0  0
  162.0780  204.2130  146.0130 C   0  0  0  0  0  2  0  0  0  0  0  0
  161.8560  205.2500  144.9270 C   0  0  0  0  0  2  0  0  0  0  0  0
  160.4570  205.8160  145.0580 C   0  0  0  0  0  1  0  0  0  0  0  0
  160.9120  200.9830  149.5900 C   0  0  0  0  0  2  0  0  0  0  0  0
  161.3310  200.4960  147.2090 C   0  0  0  0  0  2  0  0  0  0  0  0
  160.6120  201.1330  148.1290 C   0  0  0  0  0  3  0  0  0  0  0  0
  1  5  1  1  0  0  0
  2  3  2  0  0  0  0
  4  1  1  0  0  0  0
  4 26  1  1  0  0  0
  6 13  1  1  0  0  0
  6  8  1  0  0  0  0
  7  3  1  0  0  0  0
  7  4  1  0  0  0  0
  8  5  1  0  0  0  0
  9  3  1  6  0  0  0
  9  6  1  0  0  0  0
  9  1  1  0  0  0  0
 10 11  1  0  0  0  0
 12 10  2  0  0  0  0
 13 15  1  0  0  0  0
 14 12  1  0  0  0  0
 14 13  2  0  0  0  0
 15 11  2  0  0  0  0
 16 18  2  0  0  0  0
 17 18  1  0  0  0  0
 18 14  1  0  0  0  0
 19 17  1  0  0  0  0
 20 19  1  0  0  0  0
 21 20  1  0  0  0  0
 22 24  2  0  0  0  0
 23 24  1  0  0  0  0
 24 21  1  0  0  0  0
 26 25  2  0  0  0  0
 27 32  2  0  0  0  0
 27 26  1  0  0  0  0
 28 38  1  6  0  0  0
 28 31  1  0  0  0  0
 29 27  1  0  0  0  0
 30 33  1  1  0  0  0
 30 29  1  0  0  0  0
 30 28  1  0  0  0  0
 31 32  1  0  0  0  0
 34 33  1  0  0  0  0
 35 34  1  0  0  0  0
 36 37  1  0  0  0  0
 36 35  1  0  0  0  0
 39 40  2  0  0  0  0
 40 38  1  0  0  0  0
M  END
>  <MODEL>
7

>  <REMARK>
 VINA RESULT:      -5.3      1.858      2.296
  Name = 
  14 active torsions:
  status: ('A' for Active; 'I' for Inactive)
    1  A    between atoms: C_7  and  C_8
    2  A    between atoms: C_7  and  C_23
    3  A    between atoms: C_8  and  N_31
    4  A    between atoms: C_9  and  C_11
    5  A    between atoms: C_11  and  C_18
    6  A    between atoms: C_14  and  C_16
    7  A    between atoms: C_15  and  C_19
    8  A    between atoms: C_15  and  C_29
    9  A    between atoms: C_19  and  C_36
   10  A    between atoms: C_20  and  C_29
   11  A    between atoms: C_23  and  C_40
   12  A    between atoms: C_24  and  C_25
   13  A    between atoms: C_24  and  C_26
   14  A    between atoms: C_27  and  C_35
                            x       y       z     vdW  Elec       q    Type
                         _______ _______ _______ _____ _____    ______ ____

>  <TORSDO>
F 14

$$$$
=
 OpenBabel11072415163D

 40 43  0  0  1  0  0  0  0  0999 V2000
  161.2520  205.4210  151.9980 N   0  0  1  0  0  0  0  0  0  0  0  0
  161.6510  208.2520  150.2270 N   0  0  0  0  0  2  0  0  0  0  0  0
  160.8390  207.3250  150.5900 C   0  0  0  0  0  0  0  0  0  0  0  0
  161.3500  204.9280  150.6180 C   0  0  2  0  0  3  0  0  0  0  0  0
  162.6010  205.4240  152.5520 C   0  0  0  0  0  2  0  0  0  0  0  0
  161.6920  207.6050  152.9570 C   0  0  1  0  0  3  0  0  0  0  0  0
  160.4570  206.0190  149.4630 S   0  0  0  0  0  0  0  0  0  0  0  0
  162.7200  206.6220  153.4670 C   0  0  0  0  0  2  0  0  0  0  0  0
  160.8110  206.8190  151.9930 C   0  0  2  0  0  3  0  0  0  0  0  0
  159.3180  209.1640  156.2050 C   0  0  0  0  0  3  0  0  0  0  0  0
  159.6990  207.8230  156.1830 C   0  0  0  0  0  3  0  0  0  0  0  0
  159.7120  210.0170  155.1720 C   0  0  0  0  0  3  0  0  0  0  0  0
  160.8840  208.1870  154.0860 C   0  0  0  0  0  0  0  0  0  0  0  0
  160.4930  209.5520  154.1010 C   0  0  0  0  0  0  0  0  0  0  0  0
  160.4720  207.3390  155.1310 C   0  0  0  0  0  3  0  0  0  0  0  0
  162.0430  210.6030  152.6090 O   0  0  0  0  0  0  0  0  0  0  0  0
  159.8540  211.3790  152.4860 N   0  0  0  0  0  2  0  0  0  0  0  0
  160.8590  210.5240  153.0390 C   0  0  0  0  0  0  0  0  0  0  0  0
  160.1410  212.3870  151.4750 C   0  0  0  0  0  2  0  0  0  0  0  0
  159.4050  213.6730  151.8040 C   0  0  0  0  0  2  0  0  0  0  0  0
  158.4930  213.4650  153.0010 C   0  0  0  0  0  2  0  0  0  0  0  0
  156.8160  214.3940  151.5860 O   0  0  0  0  0  0  0  0  0  0  0  0
  156.2860  214.3530  153.8470 N   0  0  0  0  0  1  0  0  0  0  0  0
  157.1590  214.0810  152.7560 C   0  0  0  0  0  0  0  0  0  0  0  0
  160.3510  202.9870  151.5700 O   0  0  0  0  0  0  0  0  0  0  0  0
  160.8210  203.5280  150.5340 C   0  0  0  0  0  0  0  0  0  0  0  0
  160.8490  202.7790  149.2640 C   0  0  0  0  0  0  0  0  0  0  0  0
  160.4720  201.3070  146.8400 C   0  0  2  0  0  3  0  0  0  0  0  0
  160.5690  203.5270  147.9760 C   0  0  0  0  0  2  0  0  0  0  0  0
  160.9640  202.7510  146.7160 C   0  0  1  0  0  3  0  0  0  0  0  0
  161.1440  200.6220  148.0240 C   0  0  0  0  0  2  0  0  0  0  0  0
  161.0440  201.4510  149.2720 C   0  0  0  0  0  3  0  0  0  0  0  0
  162.4720  202.8420  146.4700 C   0  0  0  0  0  2  0  0  0  0  0  0
  162.8120  204.0330  145.5830 C   0  0  0  0  0  2  0  0  0  0  0  0
  161.6420  204.4000  144.6850 C   0  0  0  0  0  2  0  0  0  0  0  0
  161.4090  205.8990  144.6990 C   0  0  0  0  0  2  0  0  0  0  0  0
  160.0260  206.1840  145.2460 C   0  0  0  0  0  1  0  0  0  0  0  0
  160.6870  200.5030  145.5610 C   0  0  0  0  0  2  0  0  0  0  0  0
  161.5700  198.2980  144.8940 C   0  0  0  0  0  2  0  0  0  0  0  0
  161.1870  199.1230  145.8650 C   0  0  0  0  0  3  0  0  0  0  0  0
  1  5  1  6  0  0  0
  2  3  2  0  0  0  0
  4 26  1  1  0  0  0
  4  1  1  0  0  0  0
  5  8  1  0  0  0  0
  6  8  1  0  0  0  0
  6 13  1  1  0  0  0
  7  3  1  0  0  0  0
  7  4  1  0  0  0  0
  9  3  1  6  0  0  0
  9  1  1  0  0  0  0
  9  6  1  0  0  0  0
 11 10  1  0  0  0  0
 12 10  2  0  0  0  0
 13 14  2  0  0  0  0
 13 15  1  0  0  0  0
 14 12  1  0  0  0  0
 15 11  2  0  0  0  0
 16 18  2  0  0  0  0
 17 18  1  0  0  0  0
 18 14  1  0  0  0  0
 19 20  1  0  0  0  0
 19 17  1  0  0  0  0
 20 21  1  0  0  0  0
 22 24  2  0  0  0  0
 24 21  1  0  0  0  0
 24 23  1  0  0  0  0
 26 25  2  0  0  0  0
 27 32  2  0  0  0  0
 27 26  1  0  0  0  0
 28 38  1  6  0  0  0
 28 31  1  0  0  0  0
 29 27  1  0  0  0  0
 30 33  1  1  0  0  0
 30 28  1  0  0  0  0
 30 29  1  0  0  0  0
 31 32  1  0  0  0  0
 34 33  1  0  0  0  0
 35 36  1  0  0  0  0
 35 34  1  0  0  0  0
 36 37  1  0  0  0  0
 38 40  1  0  0  0  0
 39 40  2  0  0  0  0
M  END
>  <MODEL>
8

>  <REMARK>
 VINA RESULT:      -5.1      2.536      4.574
  Name = 
  14 active torsions:
  status: ('A' for Active; 'I' for Inactive)
    1  A    between atoms: C_7  and  C_8
    2  A    between atoms: C_7  and  C_23
    3  A    between atoms: C_8  and  N_31
    4  A    between atoms: C_9  and  C_11
    5  A    between atoms: C_11  and  C_18
    6  A    between atoms: C_14  and  C_16
    7  A    between atoms: C_15  and  C_19
    8  A    between atoms: C_15  and  C_29
    9  A    between atoms: C_19  and  C_36
   10  A    between atoms: C_20  and  C_29
   11  A    between atoms: C_23  and  C_40
   12  A    between atoms: C_24  and  C_25
   13  A    between atoms: C_24  and  C_26
   14  A    between atoms: C_27  and  C_35
                            x       y       z     vdW  Elec       q    Type
                         _______ _______ _______ _____ _____    ______ ____

>  <TORSDO>
F 14

$$$$
=
 OpenBabel11072415163D

 40 43  0  0  1  0  0  0  0  0999 V2000
  160.3830  208.7180  152.6890 N   0  0  1  0  0  0  0  0  0  0  0  0
  162.2630  210.9810  154.3180 N   0  0  0  0  0  2  0  0  0  0  0  0
  161.5860  210.7190  153.2580 C   0  0  0  0  0  0  0  0  0  0  0  0
  161.6770  208.6160  152.0040 C   0  0  2  0  0  3  0  0  0  0  0  0
  160.3890  207.7410  153.7720 C   0  0  0  0  0  2  0  0  0  0  0  0
  159.7380  209.8320  154.7440 C   0  0  1  0  0  3  0  0  0  0  0  0
  162.4360  210.2580  151.7800 S   0  0  0  0  0  0  0  0  0  0  0  0
  159.6300  208.3370  154.9360 C   0  0  0  0  0  2  0  0  0  0  0  0
  160.2640  210.0320  153.3270 C   0  0  2  0  0  3  0  0  0  0  0  0
  155.8630  211.6530  155.2760 C   0  0  0  0  0  3  0  0  0  0  0  0
  156.1110  210.3620  155.7400 C   0  0  0  0  0  3  0  0  0  0  0  0
  156.8760  212.3710  154.6390 C   0  0  0  0  0  3  0  0  0  0  0  0
  158.4050  210.5060  154.9330 C   0  0  0  0  0  0  0  0  0  0  0  0
  158.1550  211.8200  154.4540 C   0  0  0  0  0  0  0  0  0  0  0  0
  157.3700  209.7930  155.5670 C   0  0  0  0  0  3  0  0  0  0  0  0
  160.0720  213.2520  154.4020 O   0  0  0  0  0  0  0  0  0  0  0  0
  159.1380  212.7580  152.3310 N   0  0  0  0  0  2  0  0  0  0  0  0
  159.1720  212.6480  153.7570 C   0  0  0  0  0  0  0  0  0  0  0  0
  160.0700  213.5840  151.5790 C   0  0  0  0  0  2  0  0  0  0  0  0
  159.7460  213.5120  150.0970 C   0  0  0  0  0  2  0  0  0  0  0  0
  160.9240  212.9350  149.3300 C   0  0  0  0  0  2  0  0  0  0  0  0
  161.7220  213.6800  147.2120 O   0  0  0  0  0  0  0  0  0  0  0  0
  159.5340  212.8980  147.2220 N   0  0  0  0  0  1  0  0  0  0  0  0
  160.7700  213.1840  147.8690 C   0  0  0  0  0  0  0  0  0  0  0  0
  161.4640  208.6270  149.6310 O   0  0  0  0  0  0  0  0  0  0  0  0
  161.5050  207.9310  150.6810 C   0  0  0  0  0  0  0  0  0  0  0  0
  161.3780  206.4640  150.5940 C   0  0  0  0  0  0  0  0  0  0  0  0
  160.7670  203.6700  150.6530 C   0  0  2  0  0  3  0  0  0  0  0  0
  160.4810  205.8770  149.5240 C   0  0  0  0  0  2  0  0  0  0  0  0
  160.6930  204.3780  149.2970 C   0  0  1  0  0  3  0  0  0  0  0  0
  161.9610  204.1830  151.4490 C   0  0  0  0  0  2  0  0  0  0  0  0
  161.9900  205.6830  151.4990 C   0  0  0  0  0  3  0  0  0  0  0  0
  161.9320  204.1260  148.4330 C   0  0  0  0  0  2  0  0  0  0  0  0
  162.1110  205.2300  147.3980 C   0  0  0  0  0  2  0  0  0  0  0  0
  162.2600  204.6530  146.0000 C   0  0  0  0  0  2  0  0  0  0  0  0
  161.5960  203.2920  145.9110 C   0  0  0  0  0  2  0  0  0  0  0  0
  160.4650  203.3530  144.9060 C   0  0  0  0  0  1  0  0  0  0  0  0
  160.8220  202.1510  150.5180 C   0  0  0  0  0  2  0  0  0  0  0  0
  158.9730  201.3310  149.1050 C   0  0  0  0  0  2  0  0  0  0  0  0
  160.2470  201.7020  149.2080 C   0  0  0  0  0  3  0  0  0  0  0  0
  1  9  1  0  0  0  0
  1  5  1  1  0  0  0
  3  2  2  0  0  0  0
  4 26  1  6  0  0  0
  4  1  1  0  0  0  0
  5  8  1  0  0  0  0
  6 13  1  6  0  0  0
  6  8  1  0  0  0  0
  7  4  1  0  0  0  0
  7  3  1  0  0  0  0
  9  3  1  1  0  0  0
  9  6  1  0  0  0  0
 10 11  1  0  0  0  0
 12 10  2  0  0  0  0
 13 15  1  0  0  0  0
 14 12  1  0  0  0  0
 14 13  2  0  0  0  0
 15 11  2  0  0  0  0
 17 18  1  0  0  0  0
 18 16  2  0  0  0  0
 18 14  1  0  0  0  0
 19 17  1  0  0  0  0
 20 19  1  0  0  0  0
 21 20  1  0  0  0  0
 22 24  2  0  0  0  0
 23 24  1  0  0  0  0
 24 21  1  0  0  0  0
 25 26  2  0  0  0  0
 27 26  1  0  0  0  0
 27 32  2  0  0  0  0
 28 38  1  6  0  0  0
 28 31  1  0  0  0  0
 29 27  1  0  0  0  0
 30 33  1  1  0  0  0
 30 29  1  0  0  0  0
 30 28  1  0  0  0  0
 31 32  1  0  0  0  0
 34 33  1  0  0  0  0
 35 34  1  0  0  0  0
 36 35  1  0  0  0  0
 37 36  1  0  0  0  0
 39 40  2  0  0  0  0
 40 38  1  0  0  0  0
M  END
>  <MODEL>
9

>  <REMARK>
 VINA RESULT:      -4.5      1.749      2.258
  Name = 
  14 active torsions:
  status: ('A' for Active; 'I' for Inactive)
    1  A    between atoms: C_7  and  C_8
    2  A    between atoms: C_7  and  C_23
    3  A    between atoms: C_8  and  N_31
    4  A    between atoms: C_9  and  C_11
    5  A    between atoms: C_11  and  C_18
    6  A    between atoms: C_14  and  C_16
    7  A    between atoms: C_15  and  C_19
    8  A    between atoms: C_15  and  C_29
    9  A    between atoms: C_19  and  C_36
   10  A    between atoms: C_20  and  C_29
   11  A    between atoms: C_23  and  C_40
   12  A    between atoms: C_24  and  C_25
   13  A    between atoms: C_24  and  C_26
   14  A    between atoms: C_27  and  C_35
                            x       y       z     vdW  Elec       q    Type
                         _______ _______ _______ _____ _____    ______ ____

>  <TORSDO>
F 14

$$$$
