=
 OpenBabel11072411043D

 30 32  0  0  1  0  0  0  0  0999 V2000
  160.8330  205.5630  153.4930 C   0  0  0  0  0  2  0  0  0  0  0  0
  161.4840  207.9570  153.3260 C   0  0  0  0  0  3  0  0  0  0  0  0
  160.8540  206.9870  153.9970 C   0  0  0  0  0  0  0  0  0  0  0  0
  161.1360  205.4600  151.9990 C   0  0  1  0  0  3  0  0  0  0  0  0
  162.3640  206.2880  151.6460 C   0  0  0  0  0  2  0  0  0  0  0  0
  162.1360  207.7620  151.9800 C   0  0  1  0  0  3  0  0  0  0  0  0
  162.0530  208.4660  149.6990 O   0  0  0  0  0  0  0  0  0  0  0  0
  162.0220  209.6610  150.4360 C   0  0  0  0  0  2  0  0  0  0  0  0
  161.3170  208.4470  150.8970 C   0  0  2  0  0  3  0  0  0  0  0  0
  161.3230  204.0720  151.5860 N   0  0  0  0  0  2  0  0  0  0  0  0
  161.2920  202.3590  150.0120 O   0  0  0  0  0  0  0  0  0  0  0  0
  161.3310  203.6010  150.2310 C   0  0  0  0  0  0  0  0  0  0  0  0
  160.9740  206.1580  146.8350 C   0  0  1  0  0  3  0  0  0  0  0  0
  161.4740  204.7260  146.5360 C   0  0  2  0  0  3  0  0  0  0  0  0
  161.4920  203.7890  147.7620 C   0  0  0  0  0  2  0  0  0  0  0  0
  160.3080  205.4690  149.0690 N   0  0  0  0  0  0  0  0  0  0  0  0
  161.4330  204.5590  149.0810 C   0  0  1  0  0  3  0  0  0  0  0  0
  160.3040  206.6740  145.7290 O   0  0  0  0  0  1  0  0  0  0  0  0
  160.0730  206.2100  148.0410 C   0  0  0  0  0  3  0  0  0  0  0  0
  163.0190  205.9570  145.1950 F   0  0  0  0  0  0  0  0  0  0  0  0
  162.9080  203.7260  144.9050 F   0  0  0  0  0  0  0  0  0  0  0  0
  163.8410  204.5840  146.7670 F   0  0  0  0  0  0  0  0  0  0  0  0
  162.8330  204.7460  145.8360 C   0  0  0  0  0  0  0  0  0  0  0  0
  160.2720  207.3130  155.2240 O   0  0  0  0  0  0  0  0  0  0  0  0
  159.9770  208.6490  155.6020 C   0  0  0  0  0  2  0  0  0  0  0  0
  161.9000  210.1010  156.3220 C   0  0  0  0  0  0  0  0  0  0  0  0
  161.7870  210.8320  155.3020 O   0  0  0  0  0  0  0  0  0  0  0  0
  160.9340  209.0870  156.6000 N   0  0  0  0  0  2  0  0  0  0  0  0
  163.0390  210.3090  157.2560 C   0  0  0  0  0  2  0  0  0  0  0  0
  163.9930  211.1320  156.6630 O   0  0  0  0  0  1  0  0  0  0  0  0
  1  3  1  0  0  0  0
  2  3  2  0  0  0  0
  3 24  1  0  0  0  0
  4 10  1  1  0  0  0
  4  1  1  0  0  0  0
  5  4  1  0  0  0  0
  6  5  1  6  0  0  0
  6  2  1  0  0  0  0
  7  8  1  0  0  0  0
  7  9  1  0  0  0  0
  9  8  1  1  0  0  0
  9  6  1  0  0  0  0
 11 12  2  0  0  0  0
 12 10  1  0  0  0  0
 13 18  1  6  0  0  0
 13 19  1  0  0  0  0
 14 23  1  1  0  0  0
 14 13  1  0  0  0  0
 14 15  1  0  0  0  0
 15 17  1  0  0  0  0
 16 17  1  0  0  0  0
 17 12  1  1  0  0  0
 19 16  2  0  0  0  0
 20 23  1  0  0  0  0
 21 23  1  0  0  0  0
 23 22  1  0  0  0  0
 24 25  1  0  0  0  0
 25 28  1  0  0  0  0
 26 28  1  0  0  0  0
 26 29  1  0  0  0  0
 27 26  2  0  0  0  0
 30 29  1  0  0  0  0
M  END
>  <MODEL>
1

>  <REMARK>
 VINA RESULT:      -7.6      0.000      0.000
  Name = 
  8 active torsions:
  status: ('A' for Active; 'I' for Inactive)
    1  A    between atoms: O_2  and  C_19
    2  A    between atoms: O_2  and  C_20
    3  A    between atoms: N_4  and  C_22
    4  A    between atoms: C_8  and  C_14
    5  A    between atoms: C_9  and  C_26
    6  A    between atoms: C_11  and  C_25
    7  A    between atoms: C_19  and  N_29
    8  A    between atoms: C_24  and  C_27
                            x       y       z     vdW  Elec       q    Type
                         _______ _______ _______ _____ _____    ______ ____

>  <TORSDO>
F 8

$$$$
=
 OpenBabel11072411043D

 30 32  0  0  1  0  0  0  0  0999 V2000
  160.8880  205.5520  153.5090 C   0  0  0  0  0  2  0  0  0  0  0  0
  161.5850  207.9330  153.3480 C   0  0  0  0  0  3  0  0  0  0  0  0
  160.9460  206.9710  154.0210 C   0  0  0  0  0  0  0  0  0  0  0  0
  161.1660  205.4530  152.0090 C   0  0  1  0  0  3  0  0  0  0  0  0
  162.4060  206.2580  151.6440 C   0  0  0  0  0  2  0  0  0  0  0  0
  162.2130  207.7340  151.9910 C   0  0  1  0  0  3  0  0  0  0  0  0
  162.1550  208.5570  149.7490 O   0  0  0  0  0  0  0  0  0  0  0  0
  162.0560  209.7080  150.5480 C   0  0  0  0  0  2  0  0  0  0  0  0
  161.3920  208.4430  150.9250 C   0  0  2  0  0  3  0  0  0  0  0  0
  161.3190  204.0640  151.5850 N   0  0  0  0  0  2  0  0  0  0  0  0
  161.2390  202.3650  149.9980 O   0  0  0  0  0  0  0  0  0  0  0  0
  161.3090  203.6040  150.2260 C   0  0  0  0  0  0  0  0  0  0  0  0
  160.9920  206.1910  146.8490 C   0  0  1  0  0  3  0  0  0  0  0  0
  161.4680  204.7540  146.5390 C   0  0  2  0  0  3  0  0  0  0  0  0
  161.4720  203.8070  147.7580 C   0  0  0  0  0  2  0  0  0  0  0  0
  160.3160  205.4970  149.0780 N   0  0  0  0  0  0  0  0  0  0  0  0
  161.4250  204.5690  149.0830 C   0  0  1  0  0  3  0  0  0  0  0  0
  160.3300  206.7260  145.7470 O   0  0  0  0  0  1  0  0  0  0  0  0
  160.0920  206.2490  148.0560 C   0  0  0  0  0  3  0  0  0  0  0  0
  162.9420  203.6460  145.0220 F   0  0  0  0  0  0  0  0  0  0  0  0
  163.8490  204.7370  146.7720 F   0  0  0  0  0  0  0  0  0  0  0  0
  162.9490  205.8900  145.0590 F   0  0  0  0  0  0  0  0  0  0  0  0
  162.8280  204.7560  145.8390 C   0  0  0  0  0  0  0  0  0  0  0  0
  160.3880  207.3000  155.2590 O   0  0  0  0  0  0  0  0  0  0  0  0
  161.0580  208.1130  156.2110 C   0  0  0  0  0  2  0  0  0  0  0  0
  161.1250  210.6220  156.0520 C   0  0  0  0  0  0  0  0  0  0  0  0
  162.2720  210.6030  155.5300 O   0  0  0  0  0  0  0  0  0  0  0  0
  160.4080  209.4080  156.2780 N   0  0  0  0  0  2  0  0  0  0  0  0
  160.5030  211.9230  156.4180 C   0  0  0  0  0  2  0  0  0  0  0  0
  160.0710  212.5810  155.2690 O   0  0  0  0  0  1  0  0  0  0  0  0
  1  3  1  0  0  0  0
  2  3  2  0  0  0  0
  3 24  1  0  0  0  0
  4 10  1  1  0  0  0
  4  1  1  0  0  0  0
  5  4  1  0  0  0  0
  6  5  1  6  0  0  0
  6  2  1  0  0  0  0
  7  8  1  0  0  0  0
  7  9  1  0  0  0  0
  9  8  1  1  0  0  0
  9  6  1  0  0  0  0
 11 12  2  0  0  0  0
 12 10  1  0  0  0  0
 13 18  1  6  0  0  0
 13 19  1  0  0  0  0
 14 23  1  1  0  0  0
 14 13  1  0  0  0  0
 14 15  1  0  0  0  0
 15 17  1  0  0  0  0
 16 17  1  0  0  0  0
 17 12  1  1  0  0  0
 19 16  2  0  0  0  0
 20 23  1  0  0  0  0
 22 23  1  0  0  0  0
 23 21  1  0  0  0  0
 24 25  1  0  0  0  0
 25 28  1  0  0  0  0
 26 28  1  0  0  0  0
 26 29  1  0  0  0  0
 27 26  2  0  0  0  0
 30 29  1  0  0  0  0
M  END
>  <MODEL>
2

>  <REMARK>
 VINA RESULT:      -7.5      0.709      1.279
  Name = 
  8 active torsions:
  status: ('A' for Active; 'I' for Inactive)
    1  A    between atoms: O_2  and  C_19
    2  A    between atoms: O_2  and  C_20
    3  A    between atoms: N_4  and  C_22
    4  A    between atoms: C_8  and  C_14
    5  A    between atoms: C_9  and  C_26
    6  A    between atoms: C_11  and  C_25
    7  A    between atoms: C_19  and  N_29
    8  A    between atoms: C_24  and  C_27
                            x       y       z     vdW  Elec       q    Type
                         _______ _______ _______ _____ _____    ______ ____

>  <TORSDO>
F 8

$$$$
=
 OpenBabel11072411043D

 30 32  0  0  1  0  0  0  0  0999 V2000
  160.9870  206.8180  153.2020 C   0  0  0  0  0  2  0  0  0  0  0  0
  161.6870  209.1320  152.6220 C   0  0  0  0  0  3  0  0  0  0  0  0
  161.0530  208.3040  153.4590 C   0  0  0  0  0  0  0  0  0  0  0  0
  161.2500  206.4580  151.7400 C   0  0  1  0  0  3  0  0  0  0  0  0
  162.4870  207.1820  151.2280 C   0  0  0  0  0  2  0  0  0  0  0  0
  162.3010  208.6970  151.3150 C   0  0  1  0  0  3  0  0  0  0  0  0
  162.1540  208.9670  148.9450 O   0  0  0  0  0  0  0  0  0  0  0  0
  162.2120  210.2780  149.4450 C   0  0  0  0  0  2  0  0  0  0  0  0
  161.4700  209.2120  150.1490 C   0  0  2  0  0  3  0  0  0  0  0  0
  161.3960  205.0160  151.5630 N   0  0  0  0  0  2  0  0  0  0  0  0
  161.2710  203.0630  150.3050 O   0  0  0  0  0  0  0  0  0  0  0  0
  161.3410  204.3230  150.3080 C   0  0  0  0  0  0  0  0  0  0  0  0
  160.9130  206.2260  146.5150 C   0  0  1  0  0  3  0  0  0  0  0  0
  161.4920  204.7930  146.4750 C   0  0  2  0  0  3  0  0  0  0  0  0
  161.5360  204.0860  147.8450 C   0  0  0  0  0  2  0  0  0  0  0  0
  160.2450  205.9020  148.8280 N   0  0  0  0  0  0  0  0  0  0  0  0
  161.4140  205.0700  149.0090 C   0  0  1  0  0  3  0  0  0  0  0  0
  160.2370  206.5060  145.3300 O   0  0  0  0  0  1  0  0  0  0  0  0
  159.9900  206.4390  147.6850 C   0  0  0  0  0  3  0  0  0  0  0  0
  162.9660  203.6420  144.9910 F   0  0  0  0  0  0  0  0  0  0  0  0
  163.8680  204.7370  146.7420 F   0  0  0  0  0  0  0  0  0  0  0  0
  163.0130  205.8850  145.0020 F   0  0  0  0  0  0  0  0  0  0  0  0
  162.8600  204.7630  145.7940 C   0  0  0  0  0  0  0  0  0  0  0  0
  160.5090  208.8460  154.6260 O   0  0  0  0  0  0  0  0  0  0  0  0
  160.5350  210.2370  154.9110 C   0  0  0  0  0  2  0  0  0  0  0  0
  158.4420  211.2970  154.0060 C   0  0  0  0  0  0  0  0  0  0  0  0
  158.8410  211.1720  152.8170 O   0  0  0  0  0  0  0  0  0  0  0  0
  159.1770  210.7170  155.0830 N   0  0  0  0  0  2  0  0  0  0  0  0
  157.1840  212.0380  154.2880 C   0  0  0  0  0  2  0  0  0  0  0  0
  156.3440  211.2610  155.0820 O   0  0  0  0  0  1  0  0  0  0  0  0
  1  3  1  0  0  0  0
  2  3  2  0  0  0  0
  3 24  1  0  0  0  0
  4 10  1  1  0  0  0
  4  1  1  0  0  0  0
  5  4  1  0  0  0  0
  6  5  1  1  0  0  0
  6  2  1  0  0  0  0
  7  8  1  0  0  0  0
  7  9  1  0  0  0  0
  9  8  1  1  0  0  0
  9  6  1  0  0  0  0
 11 12  2  0  0  0  0
 12 10  1  0  0  0  0
 13 18  1  6  0  0  0
 13 19  1  0  0  0  0
 14 23  1  1  0  0  0
 14 13  1  0  0  0  0
 14 15  1  0  0  0  0
 15 17  1  0  0  0  0
 16 17  1  0  0  0  0
 17 12  1  1  0  0  0
 19 16  2  0  0  0  0
 20 23  1  0  0  0  0
 22 23  1  0  0  0  0
 23 21  1  0  0  0  0
 24 25  1  0  0  0  0
 25 28  1  0  0  0  0
 26 29  1  0  0  0  0
 26 28  1  0  0  0  0
 27 26  2  0  0  0  0
 29 30  1  0  0  0  0
M  END
>  <MODEL>
3

>  <REMARK>
 VINA RESULT:      -7.5      1.863      2.495
  Name = 
  8 active torsions:
  status: ('A' for Active; 'I' for Inactive)
    1  A    between atoms: O_2  and  C_19
    2  A    between atoms: O_2  and  C_20
    3  A    between atoms: N_4  and  C_22
    4  A    between atoms: C_8  and  C_14
    5  A    between atoms: C_9  and  C_26
    6  A    between atoms: C_11  and  C_25
    7  A    between atoms: C_19  and  N_29
    8  A    between atoms: C_24  and  C_27
                            x       y       z     vdW  Elec       q    Type
                         _______ _______ _______ _____ _____    ______ ____

>  <TORSDO>
F 8

$$$$
=
 OpenBabel11072411043D

 30 32  0  0  1  0  0  0  0  0999 V2000
  161.2150  205.5390  152.8220 C   0  0  0  0  0  2  0  0  0  0  0  0
  161.3320  206.9470  150.7770 C   0  0  0  0  0  3  0  0  0  0  0  0
  161.4680  205.7460  151.3480 C   0  0  0  0  0  0  0  0  0  0  0  0
  161.2900  206.8380  153.6230 C   0  0  1  0  0  3  0  0  0  0  0  0
  160.4780  207.9300  152.9410 C   0  0  0  0  0  2  0  0  0  0  0  0
  161.0190  208.2100  151.5390 C   0  0  1  0  0  3  0  0  0  0  0  0
  161.9570  210.2470  152.3630 O   0  0  0  0  0  0  0  0  0  0  0  0
  161.9420  210.4070  150.9680 C   0  0  0  0  0  2  0  0  0  0  0  0
  162.2480  209.1050  151.5960 C   0  0  2  0  0  3  0  0  0  0  0  0
  160.8300  206.6460  154.9960 N   0  0  0  0  0  2  0  0  0  0  0  0
  160.4160  207.3880  157.1620 O   0  0  0  0  0  0  0  0  0  0  0  0
  160.6080  207.6920  155.9530 C   0  0  0  0  0  0  0  0  0  0  0  0
  160.4250  211.9190  155.4060 C   0  0  1  0  0  3  0  0  0  0  0  0
  159.0610  211.1920  155.4100 C   0  0  2  0  0  3  0  0  0  0  0  0
  159.1440  209.6820  155.7170 C   0  0  0  0  0  2  0  0  0  0  0  0
  161.5010  209.9240  156.2820 N   0  0  0  0  0  0  0  0  0  0  0  0
  160.5570  209.1300  155.5270 C   0  0  1  0  0  3  0  0  0  0  0  0
  160.2740  213.2280  155.8550 O   0  0  0  0  0  1  0  0  0  0  0  0
  161.4540  211.2110  156.2480 C   0  0  0  0  0  3  0  0  0  0  0  0
  158.2570  212.8060  153.8440 F   0  0  0  0  0  0  0  0  0  0  0  0
  156.9900  210.9830  154.2310 F   0  0  0  0  0  0  0  0  0  0  0  0
  158.9090  210.8050  153.0640 F   0  0  0  0  0  0  0  0  0  0  0  0
  158.2880  211.4500  154.1160 C   0  0  0  0  0  0  0  0  0  0  0  0
  161.7840  204.6630  150.5240 O   0  0  0  0  0  0  0  0  0  0  0  0
  160.8740  204.1300  149.5740 C   0  0  0  0  0  2  0  0  0  0  0  0
  161.4770  204.7080  147.2010 C   0  0  0  0  0  0  0  0  0  0  0  0
  160.9900  205.8650  147.3130 O   0  0  0  0  0  0  0  0  0  0  0  0
  161.5800  203.8500  148.3380 N   0  0  0  0  0  2  0  0  0  0  0  0
  161.9670  204.2380  145.8780 C   0  0  0  0  0  2  0  0  0  0  0  0
  161.1660  203.1940  145.4200 O   0  0  0  0  0  1  0  0  0  0  0  0
  1  4  1  0  0  0  0
  2  3  2  0  0  0  0
  3  1  1  0  0  0  0
  4 10  1  1  0  0  0
  5  4  1  0  0  0  0
  6  2  1  1  0  0  0
  6  9  1  0  0  0  0
  6  5  1  0  0  0  0
  8  7  1  0  0  0  0
  9  8  1  6  0  0  0
  9  7  1  0  0  0  0
 10 12  1  0  0  0  0
 12 11  2  0  0  0  0
 13 14  1  0  0  0  0
 13 18  1  1  0  0  0
 13 19  1  0  0  0  0
 14 23  1  6  0  0  0
 14 15  1  0  0  0  0
 17 15  1  0  0  0  0
 17 12  1  1  0  0  0
 17 16  1  0  0  0  0
 19 16  2  0  0  0  0
 20 23  1  0  0  0  0
 22 23  1  0  0  0  0
 23 21  1  0  0  0  0
 24  3  1  0  0  0  0
 25 24  1  0  0  0  0
 26 27  2  0  0  0  0
 26 28  1  0  0  0  0
 28 25  1  0  0  0  0
 29 26  1  0  0  0  0
 30 29  1  0  0  0  0
M  END
>  <MODEL>
4

>  <REMARK>
 VINA RESULT:      -7.0      4.041      8.584
  Name = 
  8 active torsions:
  status: ('A' for Active; 'I' for Inactive)
    1  A    between atoms: O_2  and  C_19
    2  A    between atoms: O_2  and  C_20
    3  A    between atoms: N_4  and  C_22
    4  A    between atoms: C_8  and  C_14
    5  A    between atoms: C_9  and  C_26
    6  A    between atoms: C_11  and  C_25
    7  A    between atoms: C_19  and  N_29
    8  A    between atoms: C_24  and  C_27
                            x       y       z     vdW  Elec       q    Type
                         _______ _______ _______ _____ _____    ______ ____

>  <TORSDO>
F 8

$$$$
=
 OpenBabel11072411043D

 30 32  0  0  1  0  0  0  0  0999 V2000
  161.2260  205.5980  152.6310 C   0  0  0  0  0  2  0  0  0  0  0  0
  161.3510  207.0840  150.6410 C   0  0  0  0  0  3  0  0  0  0  0  0
  161.4810  205.8600  151.1660 C   0  0  0  0  0  0  0  0  0  0  0  0
  161.3080  206.8640  153.4820 C   0  0  1  0  0  3  0  0  0  0  0  0
  160.5020  207.9870  152.8420 C   0  0  0  0  0  2  0  0  0  0  0  0
  161.0460  208.3180  151.4520 C   0  0  1  0  0  3  0  0  0  0  0  0
  161.9840  210.3320  152.3290 O   0  0  0  0  0  0  0  0  0  0  0  0
  161.9900  210.5190  150.9370 C   0  0  0  0  0  2  0  0  0  0  0  0
  162.2790  209.2030  151.5440 C   0  0  2  0  0  3  0  0  0  0  0  0
  160.8470  206.6220  154.8460 N   0  0  0  0  0  2  0  0  0  0  0  0
  160.4330  207.2830  157.0380 O   0  0  0  0  0  0  0  0  0  0  0  0
  160.6270  207.6320  155.8410 C   0  0  0  0  0  0  0  0  0  0  0  0
  160.4610  211.8770  155.4540 C   0  0  1  0  0  3  0  0  0  0  0  0
  159.0930  211.1570  155.4400 C   0  0  2  0  0  3  0  0  0  0  0  0
  159.1710  209.6360  155.6890 C   0  0  0  0  0  2  0  0  0  0  0  0
  161.5330  209.8460  156.2480 N   0  0  0  0  0  0  0  0  0  0  0  0
  160.5800  209.0850  155.4700 C   0  0  1  0  0  3  0  0  0  0  0  0
  160.3190  213.1690  155.9530 O   0  0  0  0  0  1  0  0  0  0  0  0
  161.4910  211.1340  156.2620 C   0  0  0  0  0  3  0  0  0  0  0  0
  158.9030  210.8360  153.0810 F   0  0  0  0  0  0  0  0  0  0  0  0
  158.2910  212.8310  153.9320 F   0  0  0  0  0  0  0  0  0  0  0  0
  157.0160  211.0080  154.2830 F   0  0  0  0  0  0  0  0  0  0  0  0
  158.3130  211.4670  154.1620 C   0  0  0  0  0  0  0  0  0  0  0  0
  161.7910  204.8080  150.3010 O   0  0  0  0  0  0  0  0  0  0  0  0
  160.9940  203.6370  150.2000 C   0  0  0  0  0  2  0  0  0  0  0  0
  160.8020  201.9560  148.3390 C   0  0  0  0  0  0  0  0  0  0  0  0
  160.7020  201.0000  149.1540 O   0  0  0  0  0  0  0  0  0  0  0  0
  160.8020  203.3070  148.8000 N   0  0  0  0  0  2  0  0  0  0  0  0
  160.9000  201.6760  146.8820 C   0  0  0  0  0  2  0  0  0  0  0  0
  161.2380  202.8410  146.1970 O   0  0  0  0  0  1  0  0  0  0  0  0
  1  4  1  0  0  0  0
  2  3  2  0  0  0  0
  3  1  1  0  0  0  0
  4 10  1  1  0  0  0
  5  4  1  0  0  0  0
  6  2  1  1  0  0  0
  6  9  1  0  0  0  0
  6  5  1  0  0  0  0
  8  7  1  0  0  0  0
  9  8  1  6  0  0  0
  9  7  1  0  0  0  0
 10 12  1  0  0  0  0
 12 11  2  0  0  0  0
 13 18  1  1  0  0  0
 13 19  1  0  0  0  0
 14 23  1  6  0  0  0
 14 13  1  0  0  0  0
 14 15  1  0  0  0  0
 16 19  2  0  0  0  0
 17 15  1  0  0  0  0
 17 12  1  1  0  0  0
 17 16  1  0  0  0  0
 20 23  1  0  0  0  0
 21 23  1  0  0  0  0
 23 22  1  0  0  0  0
 24  3  1  0  0  0  0
 25 24  1  0  0  0  0
 26 28  1  0  0  0  0
 26 27  2  0  0  0  0
 28 25  1  0  0  0  0
 29 26  1  0  0  0  0
 30 29  1  0  0  0  0
M  END
>  <MODEL>
5

>  <REMARK>
 VINA RESULT:      -6.8      4.088      8.729
  Name = 
  8 active torsions:
  status: ('A' for Active; 'I' for Inactive)
    1  A    between atoms: O_2  and  C_19
    2  A    between atoms: O_2  and  C_20
    3  A    between atoms: N_4  and  C_22
    4  A    between atoms: C_8  and  C_14
    5  A    between atoms: C_9  and  C_26
    6  A    between atoms: C_11  and  C_25
    7  A    between atoms: C_19  and  N_29
    8  A    between atoms: C_24  and  C_27
                            x       y       z     vdW  Elec       q    Type
                         _______ _______ _______ _____ _____    ______ ____

>  <TORSDO>
F 8

$$$$
=
 OpenBabel11072411043D

 30 32  0  0  1  0  0  0  0  0999 V2000
  162.0850  208.0330  149.1980 C   0  0  0  0  0  2  0  0  0  0  0  0
  161.1050  206.9500  151.2100 C   0  0  0  0  0  3  0  0  0  0  0  0
  161.8430  207.9330  150.6860 C   0  0  0  0  0  0  0  0  0  0  0  0
  161.8520  206.7090  148.4710 C   0  0  1  0  0  3  0  0  0  0  0  0
  160.5300  206.0900  148.9060 C   0  0  0  0  0  2  0  0  0  0  0  0
  160.5340  205.8080  150.4080 C   0  0  1  0  0  3  0  0  0  0  0  0
  160.3680  203.4580  150.8060 O   0  0  0  0  0  0  0  0  0  0  0  0
  160.8310  203.9880  152.0210 C   0  0  0  0  0  2  0  0  0  0  0  0
  161.2840  204.5210  150.7200 C   0  0  2  0  0  3  0  0  0  0  0  0
  161.8780  206.8840  147.0220 N   0  0  0  0  0  2  0  0  0  0  0  0
  161.9660  206.0760  144.8420 O   0  0  0  0  0  0  0  0  0  0  0  0
  161.7140  205.8370  146.0550 C   0  0  0  0  0  0  0  0  0  0  0  0
  160.9220  201.7980  147.1780 C   0  0  1  0  0  3  0  0  0  0  0  0
  160.8720  202.0860  145.6600 C   0  0  2  0  0  3  0  0  0  0  0  0
  161.2670  203.5260  145.2700 C   0  0  0  0  0  2  0  0  0  0  0  0
  161.9810  203.9520  147.5590 N   0  0  0  0  0  0  0  0  0  0  0  0
  161.2070  204.4840  146.4590 C   0  0  1  0  0  3  0  0  0  0  0  0
  161.2870  200.4740  147.4050 O   0  0  0  0  0  1  0  0  0  0  0  0
  161.8720  202.7150  147.9030 C   0  0  0  0  0  3  0  0  0  0  0  0
  159.1230  202.6520  144.1360 F   0  0  0  0  0  0  0  0  0  0  0  0
  158.5590  201.6300  146.0630 F   0  0  0  0  0  0  0  0  0  0  0  0
  159.6080  200.4810  144.4330 F   0  0  0  0  0  0  0  0  0  0  0  0
  159.5150  201.7060  145.0660 C   0  0  0  0  0  0  0  0  0  0  0  0
  162.3310  208.9160  151.5500 O   0  0  0  0  0  0  0  0  0  0  0  0
  161.5200  209.9690  152.0510 C   0  0  0  0  0  2  0  0  0  0  0  0
  161.4450  209.6800  154.5480 C   0  0  0  0  0  0  0  0  0  0  0  0
  160.7850  208.6100  154.4490 O   0  0  0  0  0  0  0  0  0  0  0  0
  161.9660  210.3230  153.3860 N   0  0  0  0  0  2  0  0  0  0  0  0
  161.7000  210.2670  155.8910 C   0  0  0  0  0  2  0  0  0  0  0  0
  163.0200  210.7030  155.9740 O   0  0  0  0  0  1  0  0  0  0  0  0
  1  3  1  0  0  0  0
  3  2  2  0  0  0  0
  3 24  1  0  0  0  0
  4 10  1  6  0  0  0
  4  5  1  0  0  0  0
  4  1  1  0  0  0  0
  6  5  1  6  0  0  0
  6  9  1  0  0  0  0
  6  2  1  0  0  0  0
  7  8  1  0  0  0  0
  9  7  1  0  0  0  0
  9  8  1  1  0  0  0
 11 12  2  0  0  0  0
 12 10  1  0  0  0  0
 13 18  1  6  0  0  0
 13 19  1  0  0  0  0
 14 23  1  1  0  0  0
 14 13  1  0  0  0  0
 15 14  1  0  0  0  0
 15 17  1  0  0  0  0
 16 19  2  0  0  0  0
 17 12  1  6  0  0  0
 17 16  1  0  0  0  0
 20 23  1  0  0  0  0
 22 23  1  0  0  0  0
 23 21  1  0  0  0  0
 24 25  1  0  0  0  0
 25 28  1  0  0  0  0
 26 29  1  0  0  0  0
 27 26  2  0  0  0  0
 28 26  1  0  0  0  0
 29 30  1  0  0  0  0
M  END
>  <MODEL>
6

>  <REMARK>
 VINA RESULT:      -6.8      2.412      4.227
  Name = 
  8 active torsions:
  status: ('A' for Active; 'I' for Inactive)
    1  A    between atoms: O_2  and  C_19
    2  A    between atoms: O_2  and  C_20
    3  A    between atoms: N_4  and  C_22
    4  A    between atoms: C_8  and  C_14
    5  A    between atoms: C_9  and  C_26
    6  A    between atoms: C_11  and  C_25
    7  A    between atoms: C_19  and  N_29
    8  A    between atoms: C_24  and  C_27
                            x       y       z     vdW  Elec       q    Type
                         _______ _______ _______ _____ _____    ______ ____

>  <TORSDO>
F 8

$$$$
=
 OpenBabel11072411043D

 30 32  0  0  1  0  0  0  0  0999 V2000
  161.4050  208.6460  152.7520 C   0  0  0  0  0  2  0  0  0  0  0  0
  162.0180  207.9070  150.4580 C   0  0  0  0  0  3  0  0  0  0  0  0
  161.7700  208.9080  151.3100 C   0  0  0  0  0  0  0  0  0  0  0  0
  160.8840  207.2280  152.9820 C   0  0  1  0  0  3  0  0  0  0  0  0
  161.8010  206.2100  152.3170 C   0  0  0  0  0  2  0  0  0  0  0  0
  161.8670  206.4480  150.8080 C   0  0  1  0  0  3  0  0  0  0  0  0
  160.4580  204.5390  150.5350 O   0  0  0  0  0  0  0  0  0  0  0  0
  161.0590  204.7150  149.2770 C   0  0  0  0  0  2  0  0  0  0  0  0
  160.6490  205.8650  150.1090 C   0  0  2  0  0  3  0  0  0  0  0  0
  160.7470  206.9340  154.4060 N   0  0  0  0  0  2  0  0  0  0  0  0
  160.7910  207.5280  156.6540 O   0  0  0  0  0  0  0  0  0  0  0  0
  160.7000  207.9100  155.4560 C   0  0  0  0  0  0  0  0  0  0  0  0
  160.1150  212.1310  155.2580 C   0  0  1  0  0  3  0  0  0  0  0  0
  158.8220  211.2840  155.2790 C   0  0  2  0  0  3  0  0  0  0  0  0
  159.0560  209.7690  155.4600 C   0  0  0  0  0  2  0  0  0  0  0  0
  161.4130  210.1840  155.9130 N   0  0  0  0  0  0  0  0  0  0  0  0
  160.4970  209.3650  155.1500 C   0  0  1  0  0  3  0  0  0  0  0  0
  159.8790  213.3840  155.8180 O   0  0  0  0  0  1  0  0  0  0  0  0
  161.2520  211.4600  155.9830 C   0  0  0  0  0  3  0  0  0  0  0  0
  157.8850  212.9280  153.8230 F   0  0  0  0  0  0  0  0  0  0  0  0
  156.6720  211.0780  154.2520 F   0  0  0  0  0  0  0  0  0  0  0  0
  158.5000  210.9580  152.9410 F   0  0  0  0  0  0  0  0  0  0  0  0
  157.9520  211.5660  154.0540 C   0  0  0  0  0  0  0  0  0  0  0  0
  161.9260  210.2150  150.8450 O   0  0  0  0  0  0  0  0  0  0  0  0
  162.3310  210.5150  149.5170 C   0  0  0  0  0  2  0  0  0  0  0  0
  162.5290  212.6680  148.2330 C   0  0  0  0  0  0  0  0  0  0  0  0
  163.4590  212.2070  147.5170 O   0  0  0  0  0  0  0  0  0  0  0  0
  161.8290  211.8250  149.1470 N   0  0  0  0  0  2  0  0  0  0  0  0
  162.1460  214.1000  148.1100 C   0  0  0  0  0  2  0  0  0  0  0  0
  161.2080  214.4240  149.0880 O   0  0  0  0  0  1  0  0  0  0  0  0
  1  4  1  0  0  0  0
  2  3  2  0  0  0  0
  3  1  1  0  0  0  0
  4 10  1  1  0  0  0
  5  4  1  0  0  0  0
  6  2  1  1  0  0  0
  6  5  1  0  0  0  0
  8  7  1  0  0  0  0
  9  8  1  6  0  0  0
  9  7  1  0  0  0  0
  9  6  1  0  0  0  0
 10 12  1  0  0  0  0
 12 11  2  0  0  0  0
 13 14  1  0  0  0  0
 13 18  1  1  0  0  0
 13 19  1  0  0  0  0
 14 23  1  6  0  0  0
 14 15  1  0  0  0  0
 16 19  2  0  0  0  0
 17 12  1  1  0  0  0
 17 15  1  0  0  0  0
 17 16  1  0  0  0  0
 20 23  1  0  0  0  0
 22 23  1  0  0  0  0
 23 21  1  0  0  0  0
 24  3  1  0  0  0  0
 25 24  1  0  0  0  0
 26 28  1  0  0  0  0
 27 26  2  0  0  0  0
 28 25  1  0  0  0  0
 29 26  1  0  0  0  0
 29 30  1  0  0  0  0
M  END
>  <MODEL>
7

>  <REMARK>
 VINA RESULT:      -6.3      4.567      8.079
  Name = 
  8 active torsions:
  status: ('A' for Active; 'I' for Inactive)
    1  A    between atoms: O_2  and  C_19
    2  A    between atoms: O_2  and  C_20
    3  A    between atoms: N_4  and  C_22
    4  A    between atoms: C_8  and  C_14
    5  A    between atoms: C_9  and  C_26
    6  A    between atoms: C_11  and  C_25
    7  A    between atoms: C_19  and  N_29
    8  A    between atoms: C_24  and  C_27
                            x       y       z     vdW  Elec       q    Type
                         _______ _______ _______ _____ _____    ______ ____

>  <TORSDO>
F 8

$$$$
=
 OpenBabel11072411043D

 30 32  0  0  1  0  0  0  0  0999 V2000
  160.7490  208.1190  152.7940 C   0  0  0  0  0  2  0  0  0  0  0  0
  161.3730  210.3540  151.9020 C   0  0  0  0  0  3  0  0  0  0  0  0
  160.6700  209.6270  152.7760 C   0  0  0  0  0  0  0  0  0  0  0  0
  161.2680  207.5380  151.4800 C   0  0  1  0  0  3  0  0  0  0  0  0
  162.5190  208.2790  151.0290 C   0  0  0  0  0  2  0  0  0  0  0  0
  162.2180  209.7610  150.8030 C   0  0  1  0  0  3  0  0  0  0  0  0
  162.3720  209.4560  148.4380 O   0  0  0  0  0  0  0  0  0  0  0  0
  162.4100  210.8490  148.6160 C   0  0  0  0  0  2  0  0  0  0  0  0
  161.5540  209.9830  149.4530 C   0  0  2  0  0  3  0  0  0  0  0  0
  161.5400  206.1080  151.5970 N   0  0  0  0  0  2  0  0  0  0  0  0
  161.5610  203.9320  150.7760 O   0  0  0  0  0  0  0  0  0  0  0  0
  161.5180  205.1660  150.5160 C   0  0  0  0  0  0  0  0  0  0  0  0
  160.8120  206.2180  146.4430 C   0  0  1  0  0  3  0  0  0  0  0  0
  161.4600  204.8320  146.6660 C   0  0  2  0  0  3  0  0  0  0  0  0
  161.6050  204.4290  148.1480 C   0  0  0  0  0  2  0  0  0  0  0  0
  160.2730  206.3580  148.8080 N   0  0  0  0  0  0  0  0  0  0  0  0
  161.4900  205.6280  149.0890 C   0  0  1  0  0  3  0  0  0  0  0  0
  160.0670  206.2170  145.2670 O   0  0  0  0  0  1  0  0  0  0  0  0
  159.9370  206.6340  147.5950 C   0  0  0  0  0  3  0  0  0  0  0  0
  162.9650  205.7960  145.0830 F   0  0  0  0  0  0  0  0  0  0  0  0
  162.8300  203.5500  145.1840 F   0  0  0  0  0  0  0  0  0  0  0  0
  163.8320  204.7020  146.8390 F   0  0  0  0  0  0  0  0  0  0  0  0
  162.7940  204.7150  145.9280 C   0  0  0  0  0  0  0  0  0  0  0  0
  159.9080  210.3070  153.7290 O   0  0  0  0  0  0  0  0  0  0  0  0
  158.8580  211.1970  153.3790 C   0  0  0  0  0  2  0  0  0  0  0  0
  158.6020  213.3960  152.1850 C   0  0  0  0  0  0  0  0  0  0  0  0
  157.3550  213.3980  152.3640 O   0  0  0  0  0  0  0  0  0  0  0  0
  159.4220  212.3990  152.7950 N   0  0  0  0  0  2  0  0  0  0  0  0
  159.2290  214.4520  151.3460 C   0  0  0  0  0  2  0  0  0  0  0  0
  160.3740  213.9510  150.7320 O   0  0  0  0  0  1  0  0  0  0  0  0
  2  3  2  0  0  0  0
  3  1  1  0  0  0  0
  3 24  1  0  0  0  0
  4 10  1  1  0  0  0
  4  1  1  0  0  0  0
  5  4  1  0  0  0  0
  6  5  1  1  0  0  0
  6  2  1  0  0  0  0
  7  8  1  0  0  0  0
  7  9  1  0  0  0  0
  9  8  1  6  0  0  0
  9  6  1  0  0  0  0
 12 11  2  0  0  0  0
 12 10  1  0  0  0  0
 13 18  1  6  0  0  0
 13 14  1  0  0  0  0
 13 19  1  0  0  0  0
 14 23  1  1  0  0  0
 14 15  1  0  0  0  0
 15 17  1  0  0  0  0
 16 17  1  0  0  0  0
 17 12  1  1  0  0  0
 19 16  2  0  0  0  0
 20 23  1  0  0  0  0
 21 23  1  0  0  0  0
 23 22  1  0  0  0  0
 25 24  1  0  0  0  0
 26 27  2  0  0  0  0
 26 28  1  0  0  0  0
 28 25  1  0  0  0  0
 29 26  1  0  0  0  0
 30 29  1  0  0  0  0
M  END
>  <MODEL>
8

>  <REMARK>
 VINA RESULT:      -6.3      2.628      3.224
  Name = 
  8 active torsions:
  status: ('A' for Active; 'I' for Inactive)
    1  A    between atoms: O_2  and  C_19
    2  A    between atoms: O_2  and  C_20
    3  A    between atoms: N_4  and  C_22
    4  A    between atoms: C_8  and  C_14
    5  A    between atoms: C_9  and  C_26
    6  A    between atoms: C_11  and  C_25
    7  A    between atoms: C_19  and  N_29
    8  A    between atoms: C_24  and  C_27
                            x       y       z     vdW  Elec       q    Type
                         _______ _______ _______ _____ _____    ______ ____

>  <TORSDO>
F 8

$$$$
=
 OpenBabel11072411043D

 30 32  0  0  1  0  0  0  0  0999 V2000
  160.6730  207.0920  152.7740 C   0  0  0  0  0  2  0  0  0  0  0  0
  161.4710  208.9320  151.3050 C   0  0  0  0  0  3  0  0  0  0  0  0
  160.6500  208.5170  152.2750 C   0  0  0  0  0  0  0  0  0  0  0  0
  161.3160  206.1270  151.7790 C   0  0  1  0  0  3  0  0  0  0  0  0
  162.6350  206.6910  151.2680 C   0  0  0  0  0  2  0  0  0  0  0  0
  162.4130  208.0250  150.5550 C   0  0  1  0  0  3  0  0  0  0  0  0
  162.8980  208.2250  148.2250 O   0  0  0  0  0  0  0  0  0  0  0  0
  161.8250  209.1070  148.4370 C   0  0  0  0  0  2  0  0  0  0  0  0
  161.9120  207.8080  149.1360 C   0  0  2  0  0  3  0  0  0  0  0  0
  161.5220  204.8080  152.3710 N   0  0  0  0  0  2  0  0  0  0  0  0
  161.1770  202.5100  152.4730 O   0  0  0  0  0  0  0  0  0  0  0  0
  161.1360  203.5600  151.7760 C   0  0  0  0  0  0  0  0  0  0  0  0
  160.3420  202.7660  147.6610 C   0  0  1  0  0  3  0  0  0  0  0  0
  161.6040  203.6130  147.9400 C   0  0  2  0  0  3  0  0  0  0  0  0
  161.9310  203.7960  149.4370 C   0  0  0  0  0  2  0  0  0  0  0  0
  160.2060  202.1750  150.0140 N   0  0  0  0  0  0  0  0  0  0  0  0
  160.7320  203.4840  150.3330 C   0  0  1  0  0  3  0  0  0  0  0  0
  160.4960  202.0470  146.4790 O   0  0  0  0  0  1  0  0  0  0  0  0
  160.0260  201.8190  148.7900 C   0  0  0  0  0  3  0  0  0  0  0  0
  162.7960  205.5410  147.1910 F   0  0  0  0  0  0  0  0  0  0  0  0
  160.6660  205.8110  147.8710 F   0  0  0  0  0  0  0  0  0  0  0  0
  161.1120  204.7760  145.9210 F   0  0  0  0  0  0  0  0  0  0  0  0
  161.5410  204.9600  147.2210 C   0  0  0  0  0  0  0  0  0  0  0  0
  159.8100  209.4620  152.8700 O   0  0  0  0  0  0  0  0  0  0  0  0
  160.2360  210.3100  153.9260 C   0  0  0  0  0  2  0  0  0  0  0  0
  160.8250  209.0880  156.0440 C   0  0  0  0  0  0  0  0  0  0  0  0
  162.0590  209.2580  155.8500 O   0  0  0  0  0  0  0  0  0  0  0  0
  159.8640  209.7160  155.1970 N   0  0  0  0  0  2  0  0  0  0  0  0
  160.3670  208.2420  157.1780 C   0  0  0  0  0  2  0  0  0  0  0  0
  160.1420  206.9400  156.7360 O   0  0  0  0  0  1  0  0  0  0  0  0
  2  3  2  0  0  0  0
  3  1  1  0  0  0  0
  3 24  1  0  0  0  0
  4 10  1  1  0  0  0
  4  1  1  0  0  0  0
  5  4  1  0  0  0  0
  6  5  1  1  0  0  0
  6  2  1  0  0  0  0
  7  8  1  0  0  0  0
  7  9  1  0  0  0  0
  9  8  1  6  0  0  0
  9  6  1  0  0  0  0
 12 10  1  0  0  0  0
 12 11  2  0  0  0  0
 13 18  1  6  0  0  0
 13 14  1  0  0  0  0
 13 19  1  0  0  0  0
 14 23  1  1  0  0  0
 14 15  1  0  0  0  0
 15 17  1  0  0  0  0
 16 17  1  0  0  0  0
 17 12  1  1  0  0  0
 19 16  2  0  0  0  0
 20 23  1  0  0  0  0
 22 23  1  0  0  0  0
 23 21  1  0  0  0  0
 24 25  1  0  0  0  0
 25 28  1  0  0  0  0
 26 29  1  0  0  0  0
 27 26  2  0  0  0  0
 28 26  1  0  0  0  0
 30 29  1  0  0  0  0
M  END
>  <MODEL>
9

>  <REMARK>
 VINA RESULT:      -6.3      1.899      2.680
  Name = 
  8 active torsions:
  status: ('A' for Active; 'I' for Inactive)
    1  A    between atoms: O_2  and  C_19
    2  A    between atoms: O_2  and  C_20
    3  A    between atoms: N_4  and  C_22
    4  A    between atoms: C_8  and  C_14
    5  A    between atoms: C_9  and  C_26
    6  A    between atoms: C_11  and  C_25
    7  A    between atoms: C_19  and  N_29
    8  A    between atoms: C_24  and  C_27
                            x       y       z     vdW  Elec       q    Type
                         _______ _______ _______ _____ _____    ______ ____

>  <TORSDO>
F 8

$$$$
