=
 OpenBabel11072410093D

 43 45  0  0  1  0  0  0  0  0999 V2000
  161.2620  208.8310  151.2950 C   0  0  0  0  0  2  0  0  0  0  0  0
  162.1710  208.2280  150.2770 C   0  0  0  0  0  3  0  0  0  0  0  0
  161.7640  208.0130  149.0270 C   0  0  0  0  0  3  0  0  0  0  0  0
  162.6870  207.4170  148.0110 C   0  0  0  0  0  2  0  0  0  0  0  0
  160.7720  206.8200  146.7840 O   0  0  0  0  0  0  0  0  0  0  0  0
  161.9370  206.5540  147.0360 C   0  0  0  0  0  0  0  0  0  0  0  0
  162.5680  205.3670  146.3570 C   0  0  0  0  0  2  0  0  0  0  0  0
  162.4600  204.0640  147.1430 C   0  0  0  0  0  2  0  0  0  0  0  0
  161.1370  203.3460  146.8520 C   0  0  2  0  0  3  0  0  0  0  0  0
  160.5380  202.7050  147.9620 O   0  0  0  0  0  0  0  0  0  0  0  0
  160.9190  202.0880  150.2540 C   0  0  0  0  0  2  0  0  0  0  0  0
  161.3750  202.6370  151.5710 C   0  0  0  0  0  3  0  0  0  0  0  0
  160.7320  204.5450  149.5110 C   0  0  0  0  0  2  0  0  0  0  0  0
  161.1780  203.1140  149.1430 C   0  0  2  0  0  3  0  0  0  0  0  0
  160.2240  204.7030  150.9530 C   0  0  0  0  0  2  0  0  0  0  0  0
  161.0410  203.8860  151.9090 C   0  0  0  0  0  0  0  0  0  0  0  0
  161.4210  204.4490  153.1320 O   0  0  0  0  0  0  0  0  0  0  0  0
  161.3550  205.8450  153.3960 C   0  0  0  0  0  1  0  0  0  0  0  0
  161.1300  202.5150  145.5640 C   0  0  0  0  0  2  0  0  0  0  0  0
  159.8810  201.6590  145.4230 C   0  0  0  0  0  2  0  0  0  0  0  0
  161.1670  199.6580  146.0910 C   0  0  0  0  0  1  0  0  0  0  0  0
  160.2750  200.2540  145.0230 C   0  0  0  0  0  2  0  0  0  0  0  0
  162.0620  209.3340  152.4870 C   0  0  0  0  0  2  0  0  0  0  0  0
  159.1970  211.9390  155.0380 C   0  0  1  0  0  3  0  0  0  0  0  0
  159.2450  209.5680  152.3720 O   0  0  0  0  0  0  0  0  0  0  0  0
  161.4280  210.9540  156.3580 O   0  0  0  0  0  0  0  0  0  0  0  0
  161.9930  211.0580  154.2740 C   0  0  0  0  0  2  0  0  0  0  0  0
  160.2380  210.2330  156.5640 C   0  0  2  0  0  0  0  0  0  0  0  0
  159.8630  210.4360  153.0460 C   0  0  0  0  0  0  0  0  0  0  0  0
  162.0980  210.2890  155.4360 O   0  0  0  0  0  0  0  0  0  0  0  0
  158.9840  210.7030  155.9190 C   0  0  1  0  0  3  0  0  0  0  0  0
  159.0730  211.6290  153.5360 C   0  0  2  0  0  3  0  0  0  0  0  0
  161.2830  210.2960  153.2580 N   0  0  0  0  0  0  0  0  0  0  0  0
  159.3010  211.0120  157.2600 O   0  0  0  0  0  0  0  0  0  0  0  0
  160.3180  208.8320  157.1470 C   0  0  0  0  0  1  0  0  0  0  0  0
  159.2330  212.8630  152.6340 C   0  0  1  0  0  3  0  0  0  0  0  0
  160.2200  212.6480  151.4990 C   0  0  0  0  0  1  0  0  0  0  0  0
  157.9980  213.2580  152.1200 O   0  0  0  0  0  1  0  0  0  0  0  0
  158.3060  213.1130  155.4750 C   0  0  0  0  0  2  0  0  0  0  0  0
  156.2000  211.9790  157.1980 N   0  0  0  0  0  1  0  0  0  0  0  0
  156.1350  211.5730  154.4280 O   0  0  0  0  0  0  0  0  0  0  0  0
  156.5310  212.6900  155.6340 P   0  0  2  0  0  0  0  0  0  0  0  0
  155.6860  213.9290  155.4540 O   0  0  0  0  0  1  0  0  0  0  0  0
  1 23  1  0  0  0  0
  2  1  1  0  0  0  0
  3  2  2  0  0  0  0
  4  3  1  0  0  0  0
  5  6  2  0  0  0  0
  6  4  1  0  0  0  0
  7  6  1  0  0  0  0
  7  8  1  0  0  0  0
  9 19  1  6  0  0  0
  9  8  1  0  0  0  0
  9 10  1  0  0  0  0
 11 12  1  0  0  0  0
 12 16  2  0  0  0  0
 13 15  1  0  0  0  0
 14 10  1  6  0  0  0
 14 13  1  0  0  0  0
 14 11  1  0  0  0  0
 15 16  1  0  0  0  0
 16 17  1  0  0  0  0
 17 18  1  0  0  0  0
 20 19  1  0  0  0  0
 22 20  1  0  0  0  0
 22 21  1  0  0  0  0
 23 33  1  0  0  0  0
 24 39  1  1  0  0  0
 24 31  1  0  0  0  0
 25 29  2  0  0  0  0
 26 28  1  0  0  0  0
 27 30  1  0  0  0  0
 28 35  1  1  0  0  0
 28 34  1  0  0  0  0
 29 33  1  0  0  0  0
 29 32  1  0  0  0  0
 30 26  1  0  0  0  0
 31 28  1  0  0  0  0
 31 34  1  1  0  0  0
 32 36  1  6  0  0  0
 32 24  1  0  0  0  0
 33 27  1  0  0  0  0
 36 37  1  6  0  0  0
 38 36  1  0  0  0  0
 39 42  1  0  0  0  0
 42 41  2  6  0  0  0
 42 40  1  0  0  0  0
 43 42  1  0  0  0  0
M  END
>  <MODEL>
1

>  <REMARK>
 VINA RESULT:      -5.8      0.000      0.000
  Name = 
  17 active torsions:
  status: ('A' for Active; 'I' for Inactive)
    1  A    between atoms: C_1  and  C_35
    2  A    between atoms: O_4  and  C_27
    3  A    between atoms: P_5  and  C_30
    4  A    between atoms: C_8  and  C_13
    5  A    between atoms: C_8  and  C_43
    6  A    between atoms: C_9  and  O_29
    7  A    between atoms: C_9  and  C_34
    8  A    between atoms: C_9  and  C_43
    9  A    between atoms: C_10  and  C_21
   10  A    between atoms: C_11  and  C_30
   11  A    between atoms: C_13  and  C_36
   12  A    between atoms: C_14  and  C_34
   13  A    between atoms: C_14  and  C_40
   14  A    between atoms: C_16  and  C_36
   15  A    between atoms: C_21  and  C_31
   16  A    between atoms: C_22  and  O_29
   17  A    between atoms: C_31  and  N_37
                            x       y       z     vdW  Elec       q    Type
                         _______ _______ _______ _____ _____    ______ ____

>  <TORSDO>
F 17

$$$$
=
 OpenBabel11072410093D

 43 45  0  0  1  0  0  0  0  0999 V2000
  162.1980  209.0420  150.4430 C   0  0  0  0  0  2  0  0  0  0  0  0
  162.1030  210.5070  150.1810 C   0  0  0  0  0  3  0  0  0  0  0  0
  162.0190  210.9840  148.9390 C   0  0  0  0  0  3  0  0  0  0  0  0
  161.9140  212.4550  148.6870 C   0  0  0  0  0  2  0  0  0  0  0  0
  163.9370  212.3940  147.4900 O   0  0  0  0  0  0  0  0  0  0  0  0
  162.8190  212.8800  147.5660 C   0  0  0  0  0  0  0  0  0  0  0  0
  162.4010  213.8890  146.5290 C   0  0  0  0  0  2  0  0  0  0  0  0
  162.7100  213.4760  145.0930 C   0  0  0  0  0  2  0  0  0  0  0  0
  161.4390  213.0440  144.3520 C   0  0  2  0  0  3  0  0  0  0  0  0
  161.4540  213.2500  142.9520 O   0  0  0  0  0  0  0  0  0  0  0  0
  162.5630  212.0710  141.1740 C   0  0  0  0  0  2  0  0  0  0  0  0
  162.4550  210.8520  140.3100 C   0  0  0  0  0  3  0  0  0  0  0  0
  160.1100  211.6090  141.8020 C   0  0  0  0  0  2  0  0  0  0  0  0
  161.5170  212.0100  142.2950 C   0  0  2  0  0  3  0  0  0  0  0  0
  160.0400  211.2300  140.3150 C   0  0  0  0  0  2  0  0  0  0  0  0
  161.2500  210.4500  139.8950 C   0  0  0  0  0  0  0  0  0  0  0  0
  161.0860  209.3310  139.0720 O   0  0  0  0  0  0  0  0  0  0  0  0
  159.9170  209.1060  138.2940 C   0  0  0  0  0  1  0  0  0  0  0  0
  160.1300  213.4520  145.0350 C   0  0  0  0  0  2  0  0  0  0  0  0
  159.1990  212.2740  145.2770 C   0  0  0  0  0  2  0  0  0  0  0  0
  158.5680  213.2180  147.4700 C   0  0  0  0  0  1  0  0  0  0  0  0
  158.0410  212.7140  146.1430 C   0  0  0  0  0  2  0  0  0  0  0  0
  161.0210  208.3130  149.8120 C   0  0  0  0  0  2  0  0  0  0  0  0
  161.7230  204.0190  148.2080 C   0  0  1  0  0  3  0  0  0  0  0  0
  159.4050  206.0040  150.0570 O   0  0  0  0  0  0  0  0  0  0  0  0
  162.6690  206.0750  146.6050 O   0  0  0  0  0  0  0  0  0  0  0  0
  162.6530  206.8740  148.6140 C   0  0  0  0  0  2  0  0  0  0  0  0
  161.4270  205.5360  146.2240 C   0  0  2  0  0  0  0  0  0  0  0  0
  160.5860  205.8330  149.6530 C   0  0  0  0  0  0  0  0  0  0  0  0
  162.3930  207.1780  147.2740 O   0  0  0  0  0  0  0  0  0  0  0  0
  160.8530  204.4100  147.0080 C   0  0  1  0  0  3  0  0  0  0  0  0
  161.0890  204.4110  149.5560 C   0  0  2  0  0  3  0  0  0  0  0  0
  161.4180  206.9790  149.3770 N   0  0  0  0  0  0  0  0  0  0  0  0
  161.5720  204.2030  145.8100 O   0  0  0  0  0  0  0  0  0  0  0  0
  160.5530  206.3120  145.2530 C   0  0  0  0  0  1  0  0  0  0  0  0
  161.9200  203.9840  150.7760 C   0  0  1  0  0  3  0  0  0  0  0  0
  162.1170  205.1040  151.7840 C   0  0  0  0  0  1  0  0  0  0  0  0
  161.3410  202.8800  151.4010 O   0  0  0  0  0  1  0  0  0  0  0  0
  162.1360  202.5400  148.1570 C   0  0  0  0  0  2  0  0  0  0  0  0
  159.5730  201.4200  149.0880 N   0  0  0  0  0  1  0  0  0  0  0  0
  161.3870  199.8220  147.6740 O   0  0  0  0  0  1  0  0  0  0  0  0
  160.7590  201.3870  147.8010 P   0  0  2  0  0  0  0  0  0  0  0  0
  160.0960  201.7590  146.4960 O   0  0  0  0  0  0  0  0  0  0  0  0
  2  1  1  0  0  0  0
  3  2  2  0  0  0  0
  4  3  1  0  0  0  0
  5  6  2  0  0  0  0
  6  4  1  0  0  0  0
  7  6  1  0  0  0  0
  8  7  1  0  0  0  0
  9 19  1  1  0  0  0
  9  8  1  0  0  0  0
 10  9  1  0  0  0  0
 11 14  1  0  0  0  0
 12 11  1  0  0  0  0
 13 14  1  0  0  0  0
 14 10  1  6  0  0  0
 15 13  1  0  0  0  0
 16 12  2  0  0  0  0
 16 15  1  0  0  0  0
 17 16  1  0  0  0  0
 18 17  1  0  0  0  0
 19 20  1  0  0  0  0
 20 22  1  0  0  0  0
 22 21  1  0  0  0  0
 23  1  1  0  0  0  0
 24 39  1  1  0  0  0
 24 32  1  0  0  0  0
 26 30  1  0  0  0  0
 27 33  1  0  0  0  0
 28 35  1  6  0  0  0
 28 26  1  0  0  0  0
 28 31  1  0  0  0  0
 29 25  2  0  0  0  0
 30 27  1  0  0  0  0
 31 34  1  6  0  0  0
 31 24  1  0  0  0  0
 32 29  1  0  0  0  0
 32 36  1  1  0  0  0
 33 29  1  0  0  0  0
 33 23  1  0  0  0  0
 34 28  1  0  0  0  0
 36 38  1  0  0  0  0
 36 37  1  1  0  0  0
 41 42  1  0  0  0  0
 42 43  2  6  0  0  0
 42 39  1  0  0  0  0
 42 40  1  0  0  0  0
M  END
>  <MODEL>
2

>  <REMARK>
 VINA RESULT:      -5.6      5.557     10.726
  Name = 
  17 active torsions:
  status: ('A' for Active; 'I' for Inactive)
    1  A    between atoms: C_1  and  C_35
    2  A    between atoms: O_4  and  C_27
    3  A    between atoms: P_5  and  C_30
    4  A    between atoms: C_8  and  C_13
    5  A    between atoms: C_8  and  C_43
    6  A    between atoms: C_9  and  O_29
    7  A    between atoms: C_9  and  C_34
    8  A    between atoms: C_9  and  C_43
    9  A    between atoms: C_10  and  C_21
   10  A    between atoms: C_11  and  C_30
   11  A    between atoms: C_13  and  C_36
   12  A    between atoms: C_14  and  C_34
   13  A    between atoms: C_14  and  C_40
   14  A    between atoms: C_16  and  C_36
   15  A    between atoms: C_21  and  C_31
   16  A    between atoms: C_22  and  O_29
   17  A    between atoms: C_31  and  N_37
                            x       y       z     vdW  Elec       q    Type
                         _______ _______ _______ _____ _____    ______ ____

>  <TORSDO>
F 17

$$$$
=
 OpenBabel11072410093D

 43 45  0  0  1  0  0  0  0  0999 V2000
  162.0270  209.0800  149.7930 C   0  0  0  0  0  2  0  0  0  0  0  0
  162.2760  210.5330  149.5610 C   0  0  0  0  0  3  0  0  0  0  0  0
  161.7950  211.1540  148.4840 C   0  0  0  0  0  3  0  0  0  0  0  0
  162.0420  212.6130  148.2650 C   0  0  0  0  0  2  0  0  0  0  0  0
  160.0720  213.8100  147.8030 O   0  0  0  0  0  0  0  0  0  0  0  0
  160.8470  213.4320  148.6660 C   0  0  0  0  0  0  0  0  0  0  0  0
  160.5680  213.8060  150.0980 C   0  0  0  0  0  2  0  0  0  0  0  0
  159.2550  213.2570  150.6450 C   0  0  0  0  0  2  0  0  0  0  0  0
  159.4420  212.6540  152.0420 C   0  0  2  0  0  3  0  0  0  0  0  0
  160.5000  211.7220  152.1630 O   0  0  0  0  0  0  0  0  0  0  0  0
  161.1570  211.1380  154.4020 C   0  0  0  0  0  2  0  0  0  0  0  0
  161.0550  210.0470  155.4210 C   0  0  0  0  0  3  0  0  0  0  0  0
  160.3250  209.3800  152.7160 C   0  0  0  0  0  2  0  0  0  0  0  0
  160.2280  210.8360  153.2190 C   0  0  2  0  0  3  0  0  0  0  0  0
  161.2380  208.4750  153.5590 C   0  0  0  0  0  2  0  0  0  0  0  0
  161.0970  208.7720  155.0220 C   0  0  0  0  0  0  0  0  0  0  0  0
  161.0240  207.7090  155.9280 O   0  0  0  0  0  0  0  0  0  0  0  0
  159.7940  207.1930  156.4200 C   0  0  0  0  0  1  0  0  0  0  0  0
  158.1440  212.2280  152.7350 C   0  0  0  0  0  2  0  0  0  0  0  0
  157.5190  213.3460  153.5550 C   0  0  0  0  0  2  0  0  0  0  0  0
  157.0630  211.3430  154.9270 C   0  0  0  0  0  1  0  0  0  0  0  0
  157.2310  212.8480  154.9530 C   0  0  0  0  0  2  0  0  0  0  0  0
  161.3310  208.4630  148.5900 C   0  0  0  0  0  2  0  0  0  0  0  0
  161.8110  203.8900  147.9940 C   0  0  1  0  0  3  0  0  0  0  0  0
  159.5170  206.3660  149.1490 O   0  0  0  0  0  0  0  0  0  0  0  0
  163.0540  205.4890  146.0990 O   0  0  0  0  0  0  0  0  0  0  0  0
  162.9340  206.7010  147.8850 C   0  0  0  0  0  2  0  0  0  0  0  0
  161.8080  204.9590  145.7180 C   0  0  2  0  0  0  0  0  0  0  0  0
  160.7100  206.0390  148.9090 C   0  0  0  0  0  0  0  0  0  0  0  0
  162.8130  206.7260  146.4930 O   0  0  0  0  0  0  0  0  0  0  0  0
  161.0810  204.0660  146.6590 C   0  0  1  0  0  3  0  0  0  0  0  0
  161.1020  204.6000  149.1600 C   0  0  2  0  0  3  0  0  0  0  0  0
  161.6530  207.0450  148.4840 N   0  0  0  0  0  0  0  0  0  0  0  0
  161.8780  203.5620  145.6070 O   0  0  0  0  0  0  0  0  0  0  0  0
  161.0850  205.5610  144.5250 C   0  0  0  0  0  1  0  0  0  0  0  0
  161.7890  204.3960  150.5190 C   0  0  1  0  0  3  0  0  0  0  0  0
  161.8360  205.6610  151.3590 C   0  0  0  0  0  1  0  0  0  0  0  0
  161.1660  203.3740  151.2350 O   0  0  0  0  0  1  0  0  0  0  0  0
  162.1050  202.4110  148.2930 C   0  0  0  0  0  2  0  0  0  0  0  0
  160.1990  201.4590  146.2570 N   0  0  0  0  0  1  0  0  0  0  0  0
  159.4240  201.6560  148.9410 O   0  0  0  0  0  1  0  0  0  0  0  0
  160.7170  201.2780  147.9190 P   0  0  2  0  0  0  0  0  0  0  0  0
  161.1350  199.8480  148.1640 O   0  0  0  0  0  0  0  0  0  0  0  0
  2  1  1  0  0  0  0
  3  2  2  0  0  0  0
  4  3  1  0  0  0  0
  4  6  1  0  0  0  0
  5  6  2  0  0  0  0
  6  7  1  0  0  0  0
  7  8  1  0  0  0  0
  9  8  1  6  0  0  0
  9 10  1  0  0  0  0
  9 19  1  0  0  0  0
 11 12  1  0  0  0  0
 13 14  1  0  0  0  0
 13 15  1  0  0  0  0
 14 10  1  6  0  0  0
 14 11  1  0  0  0  0
 15 16  1  0  0  0  0
 16 12  2  0  0  0  0
 16 17  1  0  0  0  0
 17 18  1  0  0  0  0
 19 20  1  0  0  0  0
 20 22  1  0  0  0  0
 21 22  1  0  0  0  0
 23  1  1  0  0  0  0
 24 39  1  1  0  0  0
 24 32  1  0  0  0  0
 26 30  1  0  0  0  0
 27 33  1  0  0  0  0
 28 35  1  6  0  0  0
 28 26  1  0  0  0  0
 28 31  1  0  0  0  0
 29 25  2  0  0  0  0
 29 32  1  0  0  0  0
 30 27  1  0  0  0  0
 31 34  1  6  0  0  0
 31 24  1  0  0  0  0
 32 36  1  1  0  0  0
 33 23  1  0  0  0  0
 33 29  1  0  0  0  0
 34 28  1  0  0  0  0
 36 38  1  0  0  0  0
 36 37  1  1  0  0  0
 42 40  1  6  0  0  0
 42 43  2  0  0  0  0
 42 39  1  0  0  0  0
 42 41  1  0  0  0  0
M  END
>  <MODEL>
3

>  <REMARK>
 VINA RESULT:      -5.4      3.718     10.034
  Name = 
  17 active torsions:
  status: ('A' for Active; 'I' for Inactive)
    1  A    between atoms: C_1  and  C_35
    2  A    between atoms: O_4  and  C_27
    3  A    between atoms: P_5  and  C_30
    4  A    between atoms: C_8  and  C_13
    5  A    between atoms: C_8  and  C_43
    6  A    between atoms: C_9  and  O_29
    7  A    between atoms: C_9  and  C_34
    8  A    between atoms: C_9  and  C_43
    9  A    between atoms: C_10  and  C_21
   10  A    between atoms: C_11  and  C_30
   11  A    between atoms: C_13  and  C_36
   12  A    between atoms: C_14  and  C_34
   13  A    between atoms: C_14  and  C_40
   14  A    between atoms: C_16  and  C_36
   15  A    between atoms: C_21  and  C_31
   16  A    between atoms: C_22  and  O_29
   17  A    between atoms: C_31  and  N_37
                            x       y       z     vdW  Elec       q    Type
                         _______ _______ _______ _____ _____    ______ ____

>  <TORSDO>
F 17

$$$$
=
 OpenBabel11072410093D

 43 45  0  0  1  0  0  0  0  0999 V2000
  161.6170  205.8790  153.6840 C   0  0  0  0  0  2  0  0  0  0  0  0
  160.8160  207.0000  154.2560 C   0  0  0  0  0  3  0  0  0  0  0  0
  161.0790  208.2690  153.9450 C   0  0  0  0  0  3  0  0  0  0  0  0
  160.2630  209.3850  154.5160 C   0  0  0  0  0  2  0  0  0  0  0  0
  161.9180  211.0020  154.9310 O   0  0  0  0  0  0  0  0  0  0  0  0
  160.9240  210.7150  154.2850 C   0  0  0  0  0  0  0  0  0  0  0  0
  160.4040  211.7110  153.2820 C   0  0  0  0  0  2  0  0  0  0  0  0
  158.9750  211.4450  152.8180 C   0  0  0  0  0  2  0  0  0  0  0  0
  158.1530  212.7390  152.7770 C   0  0  2  0  0  3  0  0  0  0  0  0
  158.8930  213.9180  152.5250 O   0  0  0  0  0  0  0  0  0  0  0  0
  157.7270  213.3710  150.4940 C   0  0  0  0  0  2  0  0  0  0  0  0
  157.7760  213.5600  149.0100 C   0  0  0  0  0  3  0  0  0  0  0  0
  160.1570  214.2200  150.4920 C   0  0  0  0  0  2  0  0  0  0  0  0
  158.7710  214.2690  151.1700 C   0  0  2  0  0  3  0  0  0  0  0  0
  160.2060  213.3820  149.2040 C   0  0  0  0  0  2  0  0  0  0  0  0
  158.9600  213.5630  148.3890 C   0  0  0  0  0  0  0  0  0  0  0  0
  159.0700  213.7180  147.0040 O   0  0  0  0  0  0  0  0  0  0  0  0
  158.5880  212.7540  146.0760 C   0  0  0  0  0  1  0  0  0  0  0  0
  157.1140  212.8730  153.8950 C   0  0  0  0  0  2  0  0  0  0  0  0
  157.5990  212.3080  155.2210 C   0  0  0  0  0  2  0  0  0  0  0  0
  155.6890  210.7670  154.9430 C   0  0  0  0  0  1  0  0  0  0  0  0
  156.4510  211.6260  155.9300 C   0  0  0  0  0  2  0  0  0  0  0  0
  160.7560  205.0300  152.7610 C   0  0  0  0  0  2  0  0  0  0  0  0
  162.0340  205.3280  148.3130 C   0  0  1  0  0  3  0  0  0  0  0  0
  159.2280  204.6480  150.4100 O   0  0  0  0  0  0  0  0  0  0  0  0
  163.2880  207.0900  150.0480 O   0  0  0  0  0  0  0  0  0  0  0  0
  162.7050  205.4020  151.2660 C   0  0  0  0  0  2  0  0  0  0  0  0
  162.2150  207.6280  149.3140 C   0  0  2  0  0  0  0  0  0  0  0  0
  160.4800  204.6910  150.2760 C   0  0  0  0  0  0  0  0  0  0  0  0
  162.7980  206.7970  151.2390 O   0  0  0  0  0  0  0  0  0  0  0  0
  161.5000  206.7640  148.3380 C   0  0  1  0  0  3  0  0  0  0  0  0
  161.0490  204.3150  148.9260 C   0  0  2  0  0  3  0  0  0  0  0  0
  161.3080  205.0190  151.4120 N   0  0  0  0  0  0  0  0  0  0  0  0
  162.5190  207.6590  147.9450 O   0  0  0  0  0  0  0  0  0  0  0  0
  161.6000  208.9430  149.7630 C   0  0  0  0  0  1  0  0  0  0  0  0
  161.5420  202.8610  148.8680 C   0  0  1  0  0  3  0  0  0  0  0  0
  161.1680  202.0560  150.1010 C   0  0  0  0  0  1  0  0  0  0  0  0
  161.0610  202.2260  147.7230 O   0  0  0  0  0  1  0  0  0  0  0  0
  162.5060  204.9170  146.9100 C   0  0  0  0  0  2  0  0  0  0  0  0
  161.9130  205.8380  144.1730 N   0  0  0  0  0  1  0  0  0  0  0  0
  159.9940  206.0840  146.1980 O   0  0  0  0  0  1  0  0  0  0  0  0
  161.2330  205.0980  145.6060 P   0  0  2  0  0  0  0  0  0  0  0  0
  160.6590  203.7460  145.2520 O   0  0  0  0  0  0  0  0  0  0  0  0
  1  2  1  0  0  0  0
  3  2  2  0  0  0  0
  3  4  1  0  0  0  0
  6  4  1  0  0  0  0
  6  5  2  0  0  0  0
  7  6  1  0  0  0  0
  8  7  1  0  0  0  0
  9  8  1  1  0  0  0
  9 19  1  0  0  0  0
 10  9  1  0  0  0  0
 11 14  1  0  0  0  0
 12 11  1  0  0  0  0
 13 14  1  0  0  0  0
 14 10  1  1  0  0  0
 15 13  1  0  0  0  0
 16 12  2  0  0  0  0
 16 15  1  0  0  0  0
 17 16  1  0  0  0  0
 18 17  1  0  0  0  0
 19 20  1  0  0  0  0
 20 22  1  0  0  0  0
 21 22  1  0  0  0  0
 23  1  1  0  0  0  0
 24 39  1  6  0  0  0
 24 31  1  0  0  0  0
 24 32  1  0  0  0  0
 26 30  1  0  0  0  0
 27 33  1  0  0  0  0
 28 35  1  1  0  0  0
 28 26  1  0  0  0  0
 29 25  2  0  0  0  0
 29 33  1  0  0  0  0
 30 27  1  0  0  0  0
 31 34  1  6  0  0  0
 31 28  1  0  0  0  0
 32 36  1  1  0  0  0
 32 29  1  0  0  0  0
 33 23  1  0  0  0  0
 34 28  1  0  0  0  0
 36 37  1  1  0  0  0
 38 36  1  0  0  0  0
 42 40  1  6  0  0  0
 42 41  1  0  0  0  0
 42 39  1  0  0  0  0
 43 42  2  0  0  0  0
M  END
>  <MODEL>
4

>  <REMARK>
 VINA RESULT:      -5.4      3.512     10.361
  Name = 
  17 active torsions:
  status: ('A' for Active; 'I' for Inactive)
    1  A    between atoms: C_1  and  C_35
    2  A    between atoms: O_4  and  C_27
    3  A    between atoms: P_5  and  C_30
    4  A    between atoms: C_8  and  C_13
    5  A    between atoms: C_8  and  C_43
    6  A    between atoms: C_9  and  O_29
    7  A    between atoms: C_9  and  C_34
    8  A    between atoms: C_9  and  C_43
    9  A    between atoms: C_10  and  C_21
   10  A    between atoms: C_11  and  C_30
   11  A    between atoms: C_13  and  C_36
   12  A    between atoms: C_14  and  C_34
   13  A    between atoms: C_14  and  C_40
   14  A    between atoms: C_16  and  C_36
   15  A    between atoms: C_21  and  C_31
   16  A    between atoms: C_22  and  O_29
   17  A    between atoms: C_31  and  N_37
                            x       y       z     vdW  Elec       q    Type
                         _______ _______ _______ _____ _____    ______ ____

>  <TORSDO>
F 17

$$$$
=
 OpenBabel11072410093D

 43 45  0  0  1  0  0  0  0  0999 V2000
  159.7070  214.0200  151.8310 C   0  0  0  0  0  2  0  0  0  0  0  0
  159.7370  213.1160  150.6450 C   0  0  0  0  0  3  0  0  0  0  0  0
  160.7800  213.0980  149.8150 C   0  0  0  0  0  3  0  0  0  0  0  0
  160.8060  212.1800  148.6340 C   0  0  0  0  0  2  0  0  0  0  0  0
  163.1390  212.3590  148.4110 O   0  0  0  0  0  0  0  0  0  0  0  0
  162.1780  211.6070  148.4210 C   0  0  0  0  0  0  0  0  0  0  0  0
  162.4150  210.1340  148.2170 C   0  0  0  0  0  2  0  0  0  0  0  0
  161.8960  209.2530  149.3500 C   0  0  0  0  0  2  0  0  0  0  0  0
  161.7890  207.7880  148.9110 C   0  0  2  0  0  3  0  0  0  0  0  0
  161.7750  207.5740  147.5120 O   0  0  0  0  0  0  0  0  0  0  0  0
  162.4170  205.2800  147.1810 C   0  0  0  0  0  2  0  0  0  0  0  0
  161.9210  203.9760  146.6380 C   0  0  0  0  0  3  0  0  0  0  0  0
  160.4190  206.3350  145.9470 C   0  0  0  0  0  2  0  0  0  0  0  0
  161.2670  206.2940  147.2370 C   0  0  2  0  0  3  0  0  0  0  0  0
  160.8050  205.2800  144.8980 C   0  0  0  0  0  2  0  0  0  0  0  0
  161.1520  203.9720  145.5450 C   0  0  0  0  0  0  0  0  0  0  0  0
  160.6730  202.7860  144.9800 O   0  0  0  0  0  0  0  0  0  0  0  0
  160.6170  201.5570  145.6920 C   0  0  0  0  0  1  0  0  0  0  0  0
  160.7570  206.9620  149.6850 C   0  0  0  0  0  2  0  0  0  0  0  0
  161.3800  206.1330  150.7980 C   0  0  0  0  0  2  0  0  0  0  0  0
  161.3360  203.6670  150.9280 C   0  0  0  0  0  1  0  0  0  0  0  0
  160.5110  204.9280  151.0780 C   0  0  0  0  0  2  0  0  0  0  0  0
  158.4510  213.7720  152.6540 C   0  0  0  0  0  2  0  0  0  0  0  0
  159.0700  210.7770  156.1380 C   0  0  1  0  0  3  0  0  0  0  0  0
  160.0250  214.0170  154.9920 O   0  0  0  0  0  0  0  0  0  0  0  0
  156.5490  210.7790  154.9840 O   0  0  0  0  0  0  0  0  0  0  0  0
  157.8880  211.4850  153.4410 C   0  0  0  0  0  2  0  0  0  0  0  0
  156.6650  211.5090  156.1810 C   0  0  2  0  0  0  0  0  0  0  0  0
  159.5910  212.8680  154.7140 C   0  0  0  0  0  0  0  0  0  0  0  0
  156.6250  211.6670  154.0110 O   0  0  0  0  0  0  0  0  0  0  0  0
  157.9730  211.5410  156.8860 C   0  0  1  0  0  3  0  0  0  0  0  0
  160.1300  211.7070  155.5200 C   0  0  2  0  0  3  0  0  0  0  0  0
  158.6720  212.6990  153.6150 N   0  0  0  0  0  0  0  0  0  0  0  0
  156.9400  210.6530  157.2580 O   0  0  0  0  0  0  0  0  0  0  0  0
  155.5770  212.5050  156.5440 C   0  0  0  0  0  1  0  0  0  0  0  0
  161.2670  210.9600  154.8070 C   0  0  1  0  0  3  0  0  0  0  0  0
  161.3540  211.2820  153.3250 C   0  0  0  0  0  1  0  0  0  0  0  0
  162.4900  211.2270  155.4220 O   0  0  0  0  0  1  0  0  0  0  0  0
  159.6900  209.6700  157.0070 C   0  0  0  0  0  2  0  0  0  0  0  0
  159.2020  206.7960  156.5710 N   0  0  0  0  0  1  0  0  0  0  0  0
  161.7980  207.8350  156.4000 O   0  0  0  0  0  1  0  0  0  0  0  0
  160.1710  208.1670  156.0780 P   0  0  2  0  0  0  0  0  0  0  0  0
  160.0010  208.3980  154.5950 O   0  0  0  0  0  0  0  0  0  0  0  0
  1 23  1  0  0  0  0
  2  1  1  0  0  0  0
  3  2  2  0  0  0  0
  4  3  1  0  0  0  0
  5  6  2  0  0  0  0
  6  4  1  0  0  0  0
  7  6  1  0  0  0  0
  7  8  1  0  0  0  0
  9  8  1  6  0  0  0
  9 19  1  0  0  0  0
 10  9  1  0  0  0  0
 11 14  1  0  0  0  0
 12 11  1  0  0  0  0
 13 14  1  0  0  0  0
 14 10  1  6  0  0  0
 15 16  1  0  0  0  0
 15 13  1  0  0  0  0
 16 12  2  0  0  0  0
 17 16  1  0  0  0  0
 17 18  1  0  0  0  0
 19 20  1  0  0  0  0
 20 22  1  0  0  0  0
 21 22  1  0  0  0  0
 23 33  1  0  0  0  0
 24 31  1  0  0  0  0
 24 39  1  1  0  0  0
 26 28  1  0  0  0  0
 27 33  1  0  0  0  0
 27 30  1  0  0  0  0
 28 35  1  1  0  0  0
 28 31  1  0  0  0  0
 28 34  1  0  0  0  0
 29 25  2  0  0  0  0
 29 32  1  0  0  0  0
 30 26  1  0  0  0  0
 31 34  1  1  0  0  0
 32 36  1  6  0  0  0
 32 24  1  0  0  0  0
 33 29  1  0  0  0  0
 36 37  1  6  0  0  0
 36 38  1  0  0  0  0
 42 43  2  6  0  0  0
 42 41  1  0  0  0  0
 42 40  1  0  0  0  0
 42 39  1  0  0  0  0
M  END
>  <MODEL>
5

>  <REMARK>
 VINA RESULT:      -4.8      2.369      5.379
  Name = 
  17 active torsions:
  status: ('A' for Active; 'I' for Inactive)
    1  A    between atoms: C_1  and  C_35
    2  A    between atoms: O_4  and  C_27
    3  A    between atoms: P_5  and  C_30
    4  A    between atoms: C_8  and  C_13
    5  A    between atoms: C_8  and  C_43
    6  A    between atoms: C_9  and  O_29
    7  A    between atoms: C_9  and  C_34
    8  A    between atoms: C_9  and  C_43
    9  A    between atoms: C_10  and  C_21
   10  A    between atoms: C_11  and  C_30
   11  A    between atoms: C_13  and  C_36
   12  A    between atoms: C_14  and  C_34
   13  A    between atoms: C_14  and  C_40
   14  A    between atoms: C_16  and  C_36
   15  A    between atoms: C_21  and  C_31
   16  A    between atoms: C_22  and  O_29
   17  A    between atoms: C_31  and  N_37
                            x       y       z     vdW  Elec       q    Type
                         _______ _______ _______ _____ _____    ______ ____

>  <TORSDO>
F 17

$$$$
=
 OpenBabel11072410093D

 43 45  0  0  1  0  0  0  0  0999 V2000
  160.8580  206.4610  153.0700 C   0  0  0  0  0  2  0  0  0  0  0  0
  161.4130  205.1080  152.7810 C   0  0  0  0  0  3  0  0  0  0  0  0
  160.7410  204.2280  152.0390 C   0  0  0  0  0  3  0  0  0  0  0  0
  161.3120  202.8760  151.7460 C   0  0  0  0  0  2  0  0  0  0  0  0
  160.4660  201.1600  150.3790 O   0  0  0  0  0  0  0  0  0  0  0  0
  160.7870  202.3360  150.4450 C   0  0  0  0  0  0  0  0  0  0  0  0
  160.6430  203.1920  149.2150 C   0  0  0  0  0  2  0  0  0  0  0  0
  161.8940  203.9870  148.8550 C   0  0  0  0  0  2  0  0  0  0  0  0
  161.7640  204.6320  147.4700 C   0  0  2  0  0  3  0  0  0  0  0  0
  160.5820  205.3810  147.2590 O   0  0  0  0  0  0  0  0  0  0  0  0
  162.2260  207.0920  147.6550 C   0  0  0  0  0  2  0  0  0  0  0  0
  162.4610  208.3570  148.4210 C   0  0  0  0  0  3  0  0  0  0  0  0
  160.1990  206.7550  149.2050 C   0  0  0  0  0  2  0  0  0  0  0  0
  160.7520  206.6800  147.7660 C   0  0  2  0  0  3  0  0  0  0  0  0
  161.1800  207.3360  150.2350 C   0  0  0  0  0  2  0  0  0  0  0  0
  161.9650  208.4760  149.6560 C   0  0  0  0  0  0  0  0  0  0  0  0
  162.1650  209.6250  150.4270 O   0  0  0  0  0  0  0  0  0  0  0  0
  162.4420  210.8990  149.8610 C   0  0  0  0  0  1  0  0  0  0  0  0
  162.1500  203.7210  146.3000 C   0  0  0  0  0  2  0  0  0  0  0  0
  161.3880  204.0450  145.0250 C   0  0  0  0  0  2  0  0  0  0  0  0
  160.5640  201.7510  145.4270 C   0  0  0  0  0  1  0  0  0  0  0  0
  160.1960  203.1230  144.9010 C   0  0  0  0  0  2  0  0  0  0  0  0
  161.5550  207.0740  154.2760 C   0  0  0  0  0  2  0  0  0  0  0  0
  159.6120  210.8710  156.0940 C   0  0  1  0  0  3  0  0  0  0  0  0
  159.7830  207.3260  156.4660 O   0  0  0  0  0  0  0  0  0  0  0  0
  162.1760  211.1930  155.0880 O   0  0  0  0  0  0  0  0  0  0  0  0
  161.3330  209.5310  153.9910 C   0  0  0  0  0  2  0  0  0  0  0  0
  162.0920  211.0230  156.4820 C   0  0  2  0  0  0  0  0  0  0  0  0
  159.9150  208.3330  155.7200 C   0  0  0  0  0  0  0  0  0  0  0  0
  162.4970  210.0090  154.6000 O   0  0  0  0  0  0  0  0  0  0  0  0
  160.7550  210.8720  157.1140 C   0  0  1  0  0  3  0  0  0  0  0  0
  158.9590  209.4860  155.9310 C   0  0  2  0  0  3  0  0  0  0  0  0
  160.9030  208.3170  154.6690 N   0  0  0  0  0  0  0  0  0  0  0  0
  161.4310  212.1110  157.0730 O   0  0  0  0  0  0  0  0  0  0  0  0
  163.3480  210.6650  157.2570 C   0  0  0  0  0  1  0  0  0  0  0  0
  157.7780  209.4710  154.9490 C   0  0  1  0  0  3  0  0  0  0  0  0
  156.4310  209.6280  155.6340 C   0  0  0  0  0  1  0  0  0  0  0  0
  157.9340  210.4610  153.9790 O   0  0  0  0  0  1  0  0  0  0  0  0
  158.5850  211.9770  156.3840 C   0  0  0  0  0  2  0  0  0  0  0  0
  157.2480  214.2690  155.1000 N   0  0  0  0  0  1  0  0  0  0  0  0
  159.4280  213.0230  153.8590 O   0  0  0  0  0  0  0  0  0  0  0  0
  158.7890  213.4790  155.3560 P   0  0  2  0  0  0  0  0  0  0  0  0
  159.7430  214.4390  156.0260 O   0  0  0  0  0  1  0  0  0  0  0  0
  1 23  1  0  0  0  0
  2  1  1  0  0  0  0
  3  2  2  0  0  0  0
  4  3  1  0  0  0  0
  5  6  2  0  0  0  0
  6  4  1  0  0  0  0
  7  6  1  0  0  0  0
  8  7  1  0  0  0  0
  9 19  1  6  0  0  0
  9  8  1  0  0  0  0
 10  9  1  0  0  0  0
 11 14  1  0  0  0  0
 11 12  1  0  0  0  0
 12 16  2  0  0  0  0
 13 15  1  0  0  0  0
 14 10  1  1  0  0  0
 14 13  1  0  0  0  0
 16 15  1  0  0  0  0
 16 17  1  0  0  0  0
 18 17  1  0  0  0  0
 20 19  1  0  0  0  0
 22 20  1  0  0  0  0
 22 21  1  0  0  0  0
 23 33  1  0  0  0  0
 24 39  1  1  0  0  0
 24 31  1  0  0  0  0
 26 28  1  0  0  0  0
 27 30  1  0  0  0  0
 27 33  1  0  0  0  0
 28 34  1  0  0  0  0
 28 31  1  0  0  0  0
 28 35  1  1  0  0  0
 29 32  1  0  0  0  0
 29 25  2  0  0  0  0
 30 26  1  0  0  0  0
 31 34  1  1  0  0  0
 32 36  1  6  0  0  0
 32 24  1  0  0  0  0
 33 29  1  0  0  0  0
 36 37  1  1  0  0  0
 38 36  1  0  0  0  0
 40 42  1  0  0  0  0
 42 41  2  6  0  0  0
 42 43  1  0  0  0  0
 42 39  1  0  0  0  0
M  END
>  <MODEL>
6

>  <REMARK>
 VINA RESULT:      -4.6      1.978      3.850
  Name = 
  17 active torsions:
  status: ('A' for Active; 'I' for Inactive)
    1  A    between atoms: C_1  and  C_35
    2  A    between atoms: O_4  and  C_27
    3  A    between atoms: P_5  and  C_30
    4  A    between atoms: C_8  and  C_13
    5  A    between atoms: C_8  and  C_43
    6  A    between atoms: C_9  and  O_29
    7  A    between atoms: C_9  and  C_34
    8  A    between atoms: C_9  and  C_43
    9  A    between atoms: C_10  and  C_21
   10  A    between atoms: C_11  and  C_30
   11  A    between atoms: C_13  and  C_36
   12  A    between atoms: C_14  and  C_34
   13  A    between atoms: C_14  and  C_40
   14  A    between atoms: C_16  and  C_36
   15  A    between atoms: C_21  and  C_31
   16  A    between atoms: C_22  and  O_29
   17  A    between atoms: C_31  and  N_37
                            x       y       z     vdW  Elec       q    Type
                         _______ _______ _______ _____ _____    ______ ____

>  <TORSDO>
F 17

$$$$
=
 OpenBabel11072410093D

 43 45  0  0  1  0  0  0  0  0999 V2000
  161.6100  208.9560  148.9870 C   0  0  0  0  0  2  0  0  0  0  0  0
  162.3310  210.2610  149.0000 C   0  0  0  0  0  3  0  0  0  0  0  0
  161.9410  211.2750  148.2280 C   0  0  0  0  0  3  0  0  0  0  0  0
  162.6650  212.5840  148.2560 C   0  0  0  0  0  2  0  0  0  0  0  0
  160.9670  214.1710  148.6130 O   0  0  0  0  0  0  0  0  0  0  0  0
  161.7700  213.7090  147.8180 C   0  0  0  0  0  0  0  0  0  0  0  0
  161.8250  214.2910  146.4300 C   0  0  0  0  0  2  0  0  0  0  0  0
  162.2870  213.3090  145.3570 C   0  0  0  0  0  2  0  0  0  0  0  0
  161.3220  213.2910  144.1660 C   0  0  2  0  0  3  0  0  0  0  0  0
  161.8610  213.7540  142.9420 O   0  0  0  0  0  0  0  0  0  0  0  0
  162.7030  213.1380  140.7760 C   0  0  0  0  0  2  0  0  0  0  0  0
  162.9200  211.9590  139.8790 C   0  0  0  0  0  3  0  0  0  0  0  0
  161.2060  211.5670  142.1610 C   0  0  0  0  0  2  0  0  0  0  0  0
  162.2960  212.6610  142.1760 C   0  0  2  0  0  3  0  0  0  0  0  0
  160.8170  211.0760  140.7580 C   0  0  0  0  0  2  0  0  0  0  0  0
  162.0180  210.9730  139.8650 C   0  0  0  0  0  0  0  0  0  0  0  0
  162.1550  209.8550  139.0360 O   0  0  0  0  0  0  0  0  0  0  0  0
  161.4420  208.6430  139.2450 C   0  0  0  0  0  1  0  0  0  0  0  0
  159.9150  213.8150  144.4740 C   0  0  0  0  0  2  0  0  0  0  0  0
  158.9230  212.7010  144.7680 C   0  0  0  0  0  2  0  0  0  0  0  0
  158.2070  212.6210  147.1310 C   0  0  0  0  0  1  0  0  0  0  0  0
  157.8940  213.1900  145.7630 C   0  0  0  0  0  2  0  0  0  0  0  0
  162.5100  207.8590  148.4390 C   0  0  0  0  0  2  0  0  0  0  0  0
  160.6180  203.6500  147.9780 C   0  0  1  0  0  3  0  0  0  0  0  0
  163.5190  205.5540  147.1460 O   0  0  0  0  0  0  0  0  0  0  0  0
  160.0650  204.9670  150.3550 O   0  0  0  0  0  0  0  0  0  0  0  0
  160.4680  206.5280  148.9140 C   0  0  0  0  0  2  0  0  0  0  0  0
  161.0940  204.0100  150.4210 C   0  0  2  0  0  0  0  0  0  0  0  0
  162.3000  205.5420  147.4630 C   0  0  0  0  0  0  0  0  0  0  0  0
  160.6680  206.1360  150.2410 O   0  0  0  0  0  0  0  0  0  0  0  0
  161.4410  203.2330  149.2020 C   0  0  1  0  0  3  0  0  0  0  0  0
  161.4520  204.4090  146.9300 C   0  0  2  0  0  3  0  0  0  0  0  0
  161.7560  206.6260  148.2440 N   0  0  0  0  0  0  0  0  0  0  0  0
  160.5840  202.7210  150.2010 O   0  0  0  0  0  0  0  0  0  0  0  0
  162.0370  204.0230  151.6120 C   0  0  0  0  0  1  0  0  0  0  0  0
  160.6610  204.7940  145.6710 C   0  0  1  0  0  3  0  0  0  0  0  0
  160.0980  206.2040  145.7290 C   0  0  0  0  0  1  0  0  0  0  0  0
  161.4500  204.6450  144.5310 O   0  0  0  0  0  1  0  0  0  0  0  0
  159.8480  202.4650  147.3760 C   0  0  0  0  0  2  0  0  0  0  0  0
  160.0300  200.4170  145.2630 N   0  0  0  0  0  1  0  0  0  0  0  0
  161.3910  200.0770  147.6870 O   0  0  0  0  0  1  0  0  0  0  0  0
  160.9080  201.2250  146.5440 P   0  0  2  0  0  0  0  0  0  0  0  0
  162.1350  201.8940  145.9700 O   0  0  0  0  0  0  0  0  0  0  0  0
  1  2  1  0  0  0  0
  3  4  1  0  0  0  0
  3  2  2  0  0  0  0
  6  4  1  0  0  0  0
  6  5  2  0  0  0  0
  7  6  1  0  0  0  0
  8  7  1  0  0  0  0
  9 19  1  1  0  0  0
  9  8  1  0  0  0  0
 10  9  1  0  0  0  0
 11 14  1  0  0  0  0
 12 11  1  0  0  0  0
 13 14  1  0  0  0  0
 14 10  1  1  0  0  0
 15 13  1  0  0  0  0
 16 12  2  0  0  0  0
 16 15  1  0  0  0  0
 17 18  1  0  0  0  0
 17 16  1  0  0  0  0
 19 20  1  0  0  0  0
 20 22  1  0  0  0  0
 22 21  1  0  0  0  0
 23  1  1  0  0  0  0
 24 39  1  6  0  0  0
 24 31  1  0  0  0  0
 25 29  2  0  0  0  0
 26 28  1  0  0  0  0
 27 30  1  0  0  0  0
 28 35  1  1  0  0  0
 29 33  1  0  0  0  0
 30 26  1  0  0  0  0
 31 34  1  1  0  0  0
 31 28  1  0  0  0  0
 32 36  1  6  0  0  0
 32 29  1  0  0  0  0
 32 24  1  0  0  0  0
 33 23  1  0  0  0  0
 33 27  1  0  0  0  0
 34 28  1  0  0  0  0
 36 37  1  1  0  0  0
 38 36  1  0  0  0  0
 42 40  1  6  0  0  0
 42 39  1  0  0  0  0
 42 41  1  0  0  0  0
 43 42  2  0  0  0  0
M  END
>  <MODEL>
7

>  <REMARK>
 VINA RESULT:      -4.6      5.867     10.898
  Name = 
  17 active torsions:
  status: ('A' for Active; 'I' for Inactive)
    1  A    between atoms: C_1  and  C_35
    2  A    between atoms: O_4  and  C_27
    3  A    between atoms: P_5  and  C_30
    4  A    between atoms: C_8  and  C_13
    5  A    between atoms: C_8  and  C_43
    6  A    between atoms: C_9  and  O_29
    7  A    between atoms: C_9  and  C_34
    8  A    between atoms: C_9  and  C_43
    9  A    between atoms: C_10  and  C_21
   10  A    between atoms: C_11  and  C_30
   11  A    between atoms: C_13  and  C_36
   12  A    between atoms: C_14  and  C_34
   13  A    between atoms: C_14  and  C_40
   14  A    between atoms: C_16  and  C_36
   15  A    between atoms: C_21  and  C_31
   16  A    between atoms: C_22  and  O_29
   17  A    between atoms: C_31  and  N_37
                            x       y       z     vdW  Elec       q    Type
                         _______ _______ _______ _____ _____    ______ ____

>  <TORSDO>
F 17

$$$$
=
 OpenBabel11072410093D

 43 45  0  0  1  0  0  0  0  0999 V2000
  161.9720  208.8750  149.3370 C   0  0  0  0  0  2  0  0  0  0  0  0
  162.3390  210.3090  149.1540 C   0  0  0  0  0  3  0  0  0  0  0  0
  161.5900  211.1260  148.4120 C   0  0  0  0  0  3  0  0  0  0  0  0
  161.9610  212.5660  148.2440 C   0  0  0  0  0  2  0  0  0  0  0  0
  160.0560  213.8360  147.7100 O   0  0  0  0  0  0  0  0  0  0  0  0
  160.8110  213.4670  148.5950 C   0  0  0  0  0  0  0  0  0  0  0  0
  160.5550  213.9370  150.0030 C   0  0  0  0  0  2  0  0  0  0  0  0
  159.2970  213.3540  150.6380 C   0  0  0  0  0  2  0  0  0  0  0  0
  159.6040  212.7190  152.0000 C   0  0  2  0  0  3  0  0  0  0  0  0
  160.5770  211.6910  151.9830 O   0  0  0  0  0  0  0  0  0  0  0  0
  161.0770  210.9610  154.2190 C   0  0  0  0  0  2  0  0  0  0  0  0
  160.9330  209.7940  155.1460 C   0  0  0  0  0  3  0  0  0  0  0  0
  160.4400  209.3100  152.3500 C   0  0  0  0  0  2  0  0  0  0  0  0
  160.2540  210.7220  152.9470 C   0  0  2  0  0  3  0  0  0  0  0  0
  161.3140  208.3710  153.1960 C   0  0  0  0  0  2  0  0  0  0  0  0
  161.0490  208.5540  154.6610 C   0  0  0  0  0  0  0  0  0  0  0  0
  160.9420  207.4260  155.4790 O   0  0  0  0  0  0  0  0  0  0  0  0
  159.8360  207.1970  156.3430 C   0  0  0  0  0  1  0  0  0  0  0  0
  158.3710  212.4060  152.8540 C   0  0  0  0  0  2  0  0  0  0  0  0
  158.2010  213.3690  154.0180 C   0  0  0  0  0  2  0  0  0  0  0  0
  157.2780  211.3660  155.1310 C   0  0  0  0  0  1  0  0  0  0  0  0
  157.1170  212.8590  154.9410 C   0  0  0  0  0  2  0  0  0  0  0  0
  162.4080  208.0590  148.1290 C   0  0  0  0  0  2  0  0  0  0  0  0
  160.8500  203.6990  148.3840 C   0  0  1  0  0  3  0  0  0  0  0  0
  163.6770  205.6390  147.3960 O   0  0  0  0  0  0  0  0  0  0  0  0
  160.0080  205.4000  150.4060 O   0  0  0  0  0  0  0  0  0  0  0  0
  160.4260  206.6800  148.7150 C   0  0  0  0  0  2  0  0  0  0  0  0
  161.0890  204.5620  150.7340 C   0  0  2  0  0  0  0  0  0  0  0  0
  162.4380  205.5880  147.6220 C   0  0  0  0  0  0  0  0  0  0  0  0
  160.5380  206.5700  150.1040 O   0  0  0  0  0  0  0  0  0  0  0  0
  161.5910  203.5960  149.7210 C   0  0  1  0  0  3  0  0  0  0  0  0
  161.7180  204.3070  147.2670 C   0  0  2  0  0  3  0  0  0  0  0  0
  161.7580  206.7540  148.1320 N   0  0  0  0  0  0  0  0  0  0  0  0
  160.6890  203.2170  150.7400 O   0  0  0  0  0  0  0  0  0  0  0  0
  161.9240  204.8830  151.9620 C   0  0  0  0  0  1  0  0  0  0  0  0
  161.0130  204.3750  145.9040 C   0  0  1  0  0  3  0  0  0  0  0  0
  161.4400  205.5710  145.0700 C   0  0  0  0  0  1  0  0  0  0  0  0
  161.2210  203.1980  145.1850 O   0  0  0  0  0  1  0  0  0  0  0  0
  160.2160  202.3600  147.9760 C   0  0  0  0  0  2  0  0  0  0  0  0
  162.9270  201.3620  148.5670 N   0  0  0  0  0  1  0  0  0  0  0  0
  161.1580  199.8320  147.0270 O   0  0  0  0  0  0  0  0  0  0  0  0
  161.2560  200.8960  148.3370 P   0  0  2  0  0  0  0  0  0  0  0  0
  160.7530  200.1960  149.5770 O   0  0  0  0  0  1  0  0  0  0  0  0
  2  1  1  0  0  0  0
  3  2  2  0  0  0  0
  4  3  1  0  0  0  0
  4  6  1  0  0  0  0
  5  6  2  0  0  0  0
  6  7  1  0  0  0  0
  7  8  1  0  0  0  0
  9  8  1  6  0  0  0
  9 19  1  0  0  0  0
 10  9  1  0  0  0  0
 11 12  1  0  0  0  0
 13 14  1  0  0  0  0
 13 15  1  0  0  0  0
 14 10  1  6  0  0  0
 14 11  1  0  0  0  0
 15 16  1  0  0  0  0
 16 12  2  0  0  0  0
 16 17  1  0  0  0  0
 17 18  1  0  0  0  0
 19 20  1  0  0  0  0
 20 22  1  0  0  0  0
 22 21  1  0  0  0  0
 23 33  1  0  0  0  0
 23  1  1  0  0  0  0
 24 39  1  6  0  0  0
 24 31  1  0  0  0  0
 25 29  2  0  0  0  0
 26 28  1  0  0  0  0
 27 30  1  0  0  0  0
 28 34  1  0  0  0  0
 28 35  1  1  0  0  0
 29 33  1  0  0  0  0
 30 26  1  0  0  0  0
 31 28  1  0  0  0  0
 31 34  1  1  0  0  0
 32 36  1  6  0  0  0
 32 29  1  0  0  0  0
 32 24  1  0  0  0  0
 33 27  1  0  0  0  0
 36 37  1  6  0  0  0
 38 36  1  0  0  0  0
 39 42  1  0  0  0  0
 42 41  2  6  0  0  0
 42 40  1  0  0  0  0
 42 43  1  0  0  0  0
M  END
>  <MODEL>
8

>  <REMARK>
 VINA RESULT:      -4.5      3.819      9.776
  Name = 
  17 active torsions:
  status: ('A' for Active; 'I' for Inactive)
    1  A    between atoms: C_1  and  C_35
    2  A    between atoms: O_4  and  C_27
    3  A    between atoms: P_5  and  C_30
    4  A    between atoms: C_8  and  C_13
    5  A    between atoms: C_8  and  C_43
    6  A    between atoms: C_9  and  O_29
    7  A    between atoms: C_9  and  C_34
    8  A    between atoms: C_9  and  C_43
    9  A    between atoms: C_10  and  C_21
   10  A    between atoms: C_11  and  C_30
   11  A    between atoms: C_13  and  C_36
   12  A    between atoms: C_14  and  C_34
   13  A    between atoms: C_14  and  C_40
   14  A    between atoms: C_16  and  C_36
   15  A    between atoms: C_21  and  C_31
   16  A    between atoms: C_22  and  O_29
   17  A    between atoms: C_31  and  N_37
                            x       y       z     vdW  Elec       q    Type
                         _______ _______ _______ _____ _____    ______ ____

>  <TORSDO>
F 17

$$$$
=
 OpenBabel11072410093D

 43 45  0  0  1  0  0  0  0  0999 V2000
  161.9920  205.8570  153.3350 C   0  0  0  0  0  2  0  0  0  0  0  0
  160.8650  206.7200  153.7930 C   0  0  0  0  0  3  0  0  0  0  0  0
  161.0130  208.0370  153.9320 C   0  0  0  0  0  3  0  0  0  0  0  0
  159.8720  208.8940  154.3820 C   0  0  0  0  0  2  0  0  0  0  0  0
  161.1520  210.8400  154.7050 O   0  0  0  0  0  0  0  0  0  0  0  0
  160.1710  210.3520  154.1670 C   0  0  0  0  0  0  0  0  0  0  0  0
  159.3020  211.2370  153.3130 C   0  0  0  0  0  2  0  0  0  0  0  0
  159.9420  211.6580  151.9940 C   0  0  0  0  0  2  0  0  0  0  0  0
  159.2390  212.8850  151.4010 C   0  0  2  0  0  3  0  0  0  0  0  0
  160.0920  213.9490  151.0250 O   0  0  0  0  0  0  0  0  0  0  0  0
  159.0240  213.4980  148.9190 C   0  0  0  0  0  2  0  0  0  0  0  0
  159.3150  213.2000  147.4810 C   0  0  0  0  0  3  0  0  0  0  0  0
  161.5110  212.9790  149.3320 C   0  0  0  0  0  2  0  0  0  0  0  0
  160.3160  213.9060  149.6390 C   0  0  2  0  0  3  0  0  0  0  0  0
  161.2240  211.8980  148.2780 C   0  0  0  0  0  2  0  0  0  0  0  0
  160.3650  212.4330  147.1710 C   0  0  0  0  0  0  0  0  0  0  0  0
  160.6780  212.1050  145.8480 O   0  0  0  0  0  0  0  0  0  0  0  0
  159.7450  212.2170  144.7800 C   0  0  0  0  0  1  0  0  0  0  0  0
  157.9760  213.3230  152.1500 C   0  0  0  0  0  2  0  0  0  0  0  0
  157.2380  214.4520  151.4490 C   0  0  0  0  0  2  0  0  0  0  0  0
  155.8820  214.4040  149.3840 C   0  0  0  0  0  1  0  0  0  0  0  0
  155.9750  213.9130  150.8140 C   0  0  0  0  0  2  0  0  0  0  0  0
  161.4620  204.5560  152.7550 C   0  0  0  0  0  2  0  0  0  0  0  0
  160.9880  204.7890  148.1480 C   0  0  1  0  0  3  0  0  0  0  0  0
  163.3260  205.3550  150.7830 O   0  0  0  0  0  0  0  0  0  0  0  0
  159.6170  202.7280  149.3980 O   0  0  0  0  0  0  0  0  0  0  0  0
  159.8350  204.2670  150.9000 C   0  0  0  0  0  2  0  0  0  0  0  0
  160.8420  202.3670  148.8070 C   0  0  2  0  0  0  0  0  0  0  0  0
  162.1240  205.2500  150.4210 C   0  0  0  0  0  0  0  0  0  0  0  0
  159.8700  202.8860  150.6830 O   0  0  0  0  0  0  0  0  0  0  0  0
  161.6330  203.4010  148.0900 C   0  0  1  0  0  3  0  0  0  0  0  0
  161.7610  205.7700  149.0480 C   0  0  2  0  0  3  0  0  0  0  0  0
  161.1470  204.7160  151.3400 N   0  0  0  0  0  0  0  0  0  0  0  0
  160.7780  202.5040  147.4120 O   0  0  0  0  0  0  0  0  0  0  0  0
  161.4840  201.0460  149.1930 C   0  0  0  0  0  1  0  0  0  0  0  0
  161.1600  207.1830  149.0830 C   0  0  1  0  0  3  0  0  0  0  0  0
  161.6120  207.9940  150.2860 C   0  0  0  0  0  1  0  0  0  0  0  0
  161.4590  207.8720  147.9080 O   0  0  0  0  0  1  0  0  0  0  0  0
  160.7260  205.3580  146.7440 C   0  0  0  0  0  2  0  0  0  0  0  0
  163.5140  204.6570  146.0910 N   0  0  0  0  0  1  0  0  0  0  0  0
  161.8600  205.8350  144.1620 O   0  0  0  0  0  0  0  0  0  0  0  0
  161.8840  204.7530  145.4610 P   0  0  2  0  0  0  0  0  0  0  0  0
  161.4510  203.3900  144.9730 O   0  0  0  0  0  1  0  0  0  0  0  0
  1  2  1  0  0  0  0
  2  3  2  0  0  0  0
  3  4  1  0  0  0  0
  6  4  1  0  0  0  0
  6  5  2  0  0  0  0
  7  6  1  0  0  0  0
  8  7  1  0  0  0  0
  9  8  1  1  0  0  0
  9 19  1  0  0  0  0
 10  9  1  0  0  0  0
 11 14  1  0  0  0  0
 12 11  1  0  0  0  0
 13 14  1  0  0  0  0
 14 10  1  1  0  0  0
 15 13  1  0  0  0  0
 16 12  2  0  0  0  0
 16 15  1  0  0  0  0
 17 16  1  0  0  0  0
 18 17  1  0  0  0  0
 20 19  1  0  0  0  0
 21 22  1  0  0  0  0
 22 20  1  0  0  0  0
 23  1  1  0  0  0  0
 24 39  1  6  0  0  0
 24 32  1  0  0  0  0
 26 30  1  0  0  0  0
 27 33  1  0  0  0  0
 28 35  1  1  0  0  0
 28 26  1  0  0  0  0
 29 25  2  0  0  0  0
 29 33  1  0  0  0  0
 30 27  1  0  0  0  0
 31 34  1  6  0  0  0
 31 24  1  0  0  0  0
 31 28  1  0  0  0  0
 32 36  1  1  0  0  0
 32 29  1  0  0  0  0
 33 23  1  0  0  0  0
 34 28  1  0  0  0  0
 36 37  1  1  0  0  0
 38 36  1  0  0  0  0
 42 41  2  6  0  0  0
 42 40  1  0  0  0  0
 42 39  1  0  0  0  0
 43 42  1  0  0  0  0
M  END
>  <MODEL>
9

>  <REMARK>
 VINA RESULT:      -3.9      3.700     10.374
  Name = 
  17 active torsions:
  status: ('A' for Active; 'I' for Inactive)
    1  A    between atoms: C_1  and  C_35
    2  A    between atoms: O_4  and  C_27
    3  A    between atoms: P_5  and  C_30
    4  A    between atoms: C_8  and  C_13
    5  A    between atoms: C_8  and  C_43
    6  A    between atoms: C_9  and  O_29
    7  A    between atoms: C_9  and  C_34
    8  A    between atoms: C_9  and  C_43
    9  A    between atoms: C_10  and  C_21
   10  A    between atoms: C_11  and  C_30
   11  A    between atoms: C_13  and  C_36
   12  A    between atoms: C_14  and  C_34
   13  A    between atoms: C_14  and  C_40
   14  A    between atoms: C_16  and  C_36
   15  A    between atoms: C_21  and  C_31
   16  A    between atoms: C_22  and  O_29
   17  A    between atoms: C_31  and  N_37
                            x       y       z     vdW  Elec       q    Type
                         _______ _______ _______ _____ _____    ______ ____

>  <TORSDO>
F 17

$$$$
