=
 OpenBabel11072410023D

 55 62  0  0  1  0  0  0  0  0999 V2000
  161.0020  207.2600  153.8900 C   0  0  2  0  0  3  0  0  0  0  0  0
  159.2490  211.8950  152.9800 C   0  0  2  0  0  3  0  0  0  0  0  0
  160.5030  211.2050  152.7080 N   0  0  0  0  0  2  0  0  0  0  0  0
  160.3620  210.0120  156.0360 C   0  0  0  0  0  0  0  0  0  0  0  0
  159.9590  206.5430  153.3300 F   0  0  0  0  0  0  0  0  0  0  0  0
  160.6400  207.6870  155.2920 C   0  0  0  0  0  2  0  0  0  0  0  0
  161.2520  208.5380  153.1100 C   0  0  1  0  0  3  0  0  0  0  0  0
  161.1340  210.9680  154.0070 C   0  0  1  0  0  3  0  0  0  0  0  0
  160.1300  211.1620  155.1360 C   0  0  1  0  0  3  0  0  0  0  0  0
  161.7340  209.5530  154.1420 C   0  0  1  0  0  3  0  0  0  0  0  0
  159.9370  209.9810  157.1790 O   0  0  0  0  0  0  0  0  0  0  0  0
  158.4790  211.1090  154.4120 S   0  0  0  0  0  0  0  0  0  0  0  0
  161.3320  209.0180  155.5130 C   0  0  1  0  0  3  0  0  0  0  0  0
  162.3410  208.3410  152.0600 C   0  0  0  0  0  2  0  0  0  0  0  0
  161.9110  207.4320  150.9980 N   0  0  0  0  0  0  0  0  0  0  0  0
  162.8010  207.5110  149.8320 C   0  0  0  0  0  2  0  0  0  0  0  0
  162.0670  207.7000  148.4990 C   0  0  1  0  0  3  0  0  0  0  0  0
  162.6790  208.7150  147.7590 O   0  0  0  0  0  1  0  0  0  0  0  0
  160.7070  206.3010  146.8400 C   0  0  0  0  0  2  0  0  0  0  0  0
  161.9480  206.3740  147.7220 C   0  0  0  0  0  3  0  0  0  0  0  0
  162.0500  206.6080  146.2210 C   0  0  0  0  0  2  0  0  0  0  0  0
  161.9280  206.0840  151.5460 C   0  0  0  0  0  2  0  0  0  0  0  0
  160.7930  205.3280  151.0270 N   0  0  0  0  0  2  0  0  0  0  0  0
  160.9970  202.8150  146.7820 C   0  0  0  0  0  2  0  0  0  0  0  0
  160.9180  204.0400  148.9600 C   0  0  0  0  0  3  0  0  0  0  0  0
  160.9110  200.3270  146.9070 C   0  0  0  0  0  2  0  0  0  0  0  0
  161.5420  201.5160  146.1950 C   0  0  0  0  0  2  0  0  0  0  0  0
  160.9400  204.0790  150.3540 C   0  0  0  0  0  0  0  0  0  0  0  0
  161.3690  200.3080  148.3640 C   0  0  0  0  0  2  0  0  0  0  0  0
  161.2170  201.7010  150.3960 N   0  0  0  0  0  0  0  0  0  0  0  0
  161.1040  202.8800  151.0630 C   0  0  0  0  0  3  0  0  0  0  0  0
  161.1780  201.6380  149.0350 C   0  0  0  0  0  0  0  0  0  0  0  0
  161.0600  202.8250  148.2860 C   0  0  0  0  0  0  0  0  0  0  0  0
  158.3360  211.8470  151.7730 C   0  0  0  0  0  2  0  0  0  0  0  0
  158.2940  213.2310  151.1330 C   0  0  2  0  0  3  0  0  0  0  0  0
  160.3080  212.1160  149.7220 O   0  0  0  0  0  0  0  0  0  0  0  0
  159.5960  213.4230  149.9190 S   0  0  0  0  0  0  0  0  0  0  0  0
  160.5840  214.4530  150.4030 O   0  0  0  0  0  0  0  0  0  0  0  0
  157.4320  214.4250  148.3170 C   0  0  0  0  0  2  0  0  0  0  0  0
  159.1580  213.0730  147.1830 C   0  0  1  0  0  3  0  0  0  0  0  0
  156.9870  214.2190  146.8880 C   0  0  0  0  0  2  0  0  0  0  0  0
  158.8720  213.9540  148.3760 C   0  0  2  0  0  0  0  0  0  0  0  0
  157.8980  213.1450  146.3100 C   0  0  2  0  0  0  0  0  0  0  0  0
  159.8430  214.4320  147.3190 C   0  0  0  0  0  2  0  0  0  0  0  0
  157.2360  211.9180  146.3580 O   0  0  0  0  0  1  0  0  0  0  0  0
  159.4690  212.9470  144.5020 O   0  0  0  0  0  1  0  0  0  0  0  0
  158.2310  213.4850  144.8620 C   0  0  0  0  0  2  0  0  0  0  0  0
  158.3010  214.3640  152.1600 C   0  0  2  0  0  3  0  0  0  0  0  0
  159.3110  214.1780  153.1030 O   0  0  0  0  0  1  0  0  0  0  0  0
  156.9390  214.4510  152.8350 C   0  0  0  0  0  2  0  0  0  0  0  0
  157.0100  214.0090  154.2900 C   0  0  0  0  0  2  0  0  0  0  0  0
  154.9380  212.9060  153.9070 O   0  0  0  0  0  0  0  0  0  0  0  0
  155.6990  213.4620  154.7400 C   0  0  0  0  0  0  0  0  0  0  0  0
  155.3000  213.5680  156.0690 O   0  0  0  0  0  0  0  0  0  0  0  0
  155.0850  212.4710  156.8070 O   0  0  0  0  0  1  0  0  0  0  0  0
  1  5  1  6  0  0  0
  1  6  1  0  0  0  0
  2 34  1  6  0  0  0
  2 12  1  0  0  0  0
  3  2  1  0  0  0  0
  4 11  2  0  0  0  0
  6 13  1  0  0  0  0
  7 14  1  6  0  0  0
  7  1  1  0  0  0  0
  7 10  1  0  0  0  0
  8  3  1  6  0  0  0
  8 10  1  0  0  0  0
  8  9  1  0  0  0  0
  9 12  1  6  0  0  0
  9  4  1  0  0  0  0
 10 13  1  0  0  0  0
 13  4  1  0  0  0  0
 15 22  1  0  0  0  0
 15 14  1  0  0  0  0
 16 15  1  0  0  0  0
 17 16  1  0  0  0  0
 18 17  1  0  0  0  0
 19 20  1  0  0  0  0
 20 17  1  0  0  0  0
 21 19  1  0  0  0  0
 21 20  1  0  0  0  0
 23 22  1  0  0  0  0
 24 33  1  0  0  0  0
 25 28  1  0  0  0  0
 26 29  1  0  0  0  0
 27 24  1  0  0  0  0
 27 26  1  0  0  0  0
 28 23  1  0  0  0  0
 28 31  2  0  0  0  0
 29 32  1  0  0  0  0
 30 31  1  0  0  0  0
 32 30  2  0  0  0  0
 33 25  2  0  0  0  0
 33 32  1  0  0  0  0
 35 34  1  0  0  0  0
 35 48  1  0  0  0  0
 36 37  2  0  0  0  0
 37 38  2  0  0  0  0
 37 35  1  0  0  0  0
 39 42  1  0  0  0  0
 40 44  1  0  0  0  0
 40 42  1  0  0  0  0
 41 39  1  0  0  0  0
 42 37  1  0  0  0  0
 43 45  1  0  0  0  0
 43 41  1  0  0  0  0
 43 40  1  0  0  0  0
 44 42  1  0  0  0  0
 46 47  1  0  0  0  0
 47 43  1  0  0  0  0
 48 50  1  0  0  0  0
 48 49  1  0  0  0  0
 50 51  1  0  0  0  0
 51 53  1  0  0  0  0
 52 53  2  0  0  0  0
 53 54  1  0  0  0  0
 54 55  1  0  0  0  0
M  END
>  <MODEL>
1

>  <REMARK>
 VINA RESULT:      -5.3      0.000      0.000
  Name = 
  18 active torsions:
  status: ('A' for Active; 'I' for Inactive)
    1  A    between atoms: C_1  and  C_12
    2  A    between atoms: C_1  and  C_23
    3  A    between atoms: C_1  and  S_28
    4  A    between atoms: C_4  and  N_44
    5  A    between atoms: C_4  and  N_50
    6  A    between atoms: O_6  and  C_38
    7  A    between atoms: C_7  and  C_23
    8  A    between atoms: C_7  and  C_34
    9  A    between atoms: C_11  and  C_36
   10  A    between atoms: C_11  and  N_44
   11  A    between atoms: C_12  and  C_13
   12  A    between atoms: C_17  and  C_36
   13  A    between atoms: C_21  and  N_50
   14  A    between atoms: C_25  and  C_33
   15  A    between atoms: C_25  and  N_44
   16  A    between atoms: S_28  and  C_29
   17  A    between atoms: C_34  and  C_38
   18  A    between atoms: C_35  and  C_39
                            x       y       z     vdW  Elec       q    Type
                         _______ _______ _______ _____ _____    ______ ____

>  <TORSDO>
F 18

$$$$
=
 OpenBabel11072410023D

 55 62  0  0  1  0  0  0  0  0999 V2000
  161.1880  207.1660  153.6850 C   0  0  2  0  0  3  0  0  0  0  0  0
  159.5660  211.8600  152.8390 C   0  0  2  0  0  3  0  0  0  0  0  0
  160.7840  211.1280  152.5220 N   0  0  0  0  0  2  0  0  0  0  0  0
  160.7250  209.9360  155.8520 C   0  0  0  0  0  0  0  0  0  0  0  0
  160.1000  206.4870  153.1640 F   0  0  0  0  0  0  0  0  0  0  0  0
  160.8930  207.6040  155.0990 C   0  0  0  0  0  2  0  0  0  0  0  0
  161.4540  208.4350  152.8960 C   0  0  1  0  0  3  0  0  0  0  0  0
  161.4540  210.8670  153.7960 C   0  0  1  0  0  3  0  0  0  0  0  0
  160.5000  211.0950  154.9620 C   0  0  1  0  0  3  0  0  0  0  0  0
  162.0090  209.4320  153.9090 C   0  0  1  0  0  3  0  0  0  0  0  0
  160.3410  209.9190  157.0110 O   0  0  0  0  0  0  0  0  0  0  0  0
  158.8220  211.1010  154.2990 S   0  0  0  0  0  0  0  0  0  0  0  0
  161.6390  208.9100  155.2950 C   0  0  1  0  0  3  0  0  0  0  0  0
  162.4950  208.2010  151.8060 C   0  0  0  0  0  2  0  0  0  0  0  0
  161.9490  207.4270  150.6920 N   0  0  0  0  0  0  0  0  0  0  0  0
  160.5820  206.9710  150.9760 C   0  0  0  0  0  2  0  0  0  0  0  0
  160.3800  205.4600  150.8060 C   0  0  1  0  0  3  0  0  0  0  0  0
  160.0160  205.1750  149.4870 O   0  0  0  0  0  1  0  0  0  0  0  0
  161.3020  203.6830  152.4020 C   0  0  0  0  0  2  0  0  0  0  0  0
  161.6120  204.6640  151.2790 C   0  0  0  0  0  3  0  0  0  0  0  0
  161.4500  203.1800  150.9850 C   0  0  0  0  0  2  0  0  0  0  0  0
  161.9530  208.2890  149.5200 C   0  0  0  0  0  2  0  0  0  0  0  0
  162.6500  207.6260  148.4240 N   0  0  0  0  0  2  0  0  0  0  0  0
  162.0170  203.0520  146.6760 C   0  0  0  0  0  2  0  0  0  0  0  0
  162.2870  205.3840  147.5340 C   0  0  0  0  0  3  0  0  0  0  0  0
  160.7110  202.7910  144.5690 C   0  0  0  0  0  2  0  0  0  0  0  0
  160.9930  202.1920  145.9400 C   0  0  0  0  0  2  0  0  0  0  0  0
  161.9950  206.7490  147.5100 C   0  0  0  0  0  0  0  0  0  0  0  0
  160.0200  204.1430  144.7390 C   0  0  0  0  0  2  0  0  0  0  0  0
  160.4710  206.3710  145.7030 N   0  0  0  0  0  0  0  0  0  0  0  0
  161.0620  207.2250  146.5790 C   0  0  0  0  0  3  0  0  0  0  0  0
  160.7560  205.0380  145.6950 C   0  0  0  0  0  0  0  0  0  0  0  0
  161.6540  204.5130  146.6450 C   0  0  0  0  0  0  0  0  0  0  0  0
  158.6080  211.8460  151.6670 C   0  0  0  0  0  2  0  0  0  0  0  0
  158.6950  213.1860  150.9440 C   0  0  2  0  0  3  0  0  0  0  0  0
  160.8360  211.9350  149.8750 O   0  0  0  0  0  0  0  0  0  0  0  0
  160.1630  213.2770  149.9210 S   0  0  0  0  0  0  0  0  0  0  0  0
  161.1180  214.2860  150.5050 O   0  0  0  0  0  0  0  0  0  0  0  0
  158.3430  214.4200  148.0160 C   0  0  0  0  0  2  0  0  0  0  0  0
  159.9750  212.7660  147.1820 C   0  0  1  0  0  3  0  0  0  0  0  0
  158.0280  214.1580  146.5610 C   0  0  0  0  0  2  0  0  0  0  0  0
  159.6890  213.7700  148.2730 C   0  0  2  0  0  0  0  0  0  0  0  0
  158.8370  212.9310  146.1660 C   0  0  2  0  0  0  0  0  0  0  0  0
  160.8240  214.0300  147.3080 C   0  0  0  0  0  2  0  0  0  0  0  0
  158.0090  211.8090  146.2170 O   0  0  0  0  0  1  0  0  0  0  0  0
  159.2960  214.4460  144.3580 O   0  0  0  0  0  1  0  0  0  0  0  0
  159.3670  213.1070  144.7470 C   0  0  0  0  0  2  0  0  0  0  0  0
  158.5860  214.3830  151.8880 C   0  0  2  0  0  3  0  0  0  0  0  0
  159.5810  214.3430  152.8640 O   0  0  0  0  0  1  0  0  0  0  0  0
  157.2030  214.4050  152.5270 C   0  0  0  0  0  2  0  0  0  0  0  0
  157.1870  213.6470  153.8460 C   0  0  0  0  0  2  0  0  0  0  0  0
  155.5160  212.0320  154.3500 O   0  0  0  0  0  0  0  0  0  0  0  0
  155.7970  213.2490  154.2090 C   0  0  0  0  0  0  0  0  0  0  0  0
  154.8030  214.2070  154.3840 O   0  0  0  0  0  0  0  0  0  0  0  0
  153.9130  214.4530  153.4130 O   0  0  0  0  0  1  0  0  0  0  0  0
  1  5  1  6  0  0  0
  1  6  1  0  0  0  0
  2 34  1  6  0  0  0
  2 12  1  0  0  0  0
  3  2  1  0  0  0  0
  4 11  2  0  0  0  0
  6 13  1  0  0  0  0
  7 14  1  6  0  0  0
  7  1  1  0  0  0  0
  7 10  1  0  0  0  0
  8  3  1  6  0  0  0
  8 10  1  0  0  0  0
  8  9  1  0  0  0  0
  9 12  1  6  0  0  0
  9  4  1  0  0  0  0
 10 13  1  0  0  0  0
 13  4  1  0  0  0  0
 15 16  1  0  0  0  0
 15 14  1  0  0  0  0
 17 16  1  0  0  0  0
 17 20  1  0  0  0  0
 18 17  1  0  0  0  0
 20 19  1  0  0  0  0
 21 20  1  0  0  0  0
 21 19  1  0  0  0  0
 22 15  1  0  0  0  0
 23 22  1  0  0  0  0
 26 29  1  0  0  0  0
 26 27  1  0  0  0  0
 27 24  1  0  0  0  0
 28 25  1  0  0  0  0
 28 23  1  0  0  0  0
 29 32  1  0  0  0  0
 30 31  1  0  0  0  0
 31 28  2  0  0  0  0
 32 30  2  0  0  0  0
 32 33  1  0  0  0  0
 33 24  1  0  0  0  0
 33 25  2  0  0  0  0
 35 34  1  0  0  0  0
 35 48  1  0  0  0  0
 36 37  2  0  0  0  0
 37 38  2  0  0  0  0
 37 35  1  0  0  0  0
 39 42  1  0  0  0  0
 40 44  1  0  0  0  0
 40 42  1  0  0  0  0
 41 39  1  0  0  0  0
 42 37  1  0  0  0  0
 43 45  1  0  0  0  0
 43 41  1  0  0  0  0
 43 40  1  0  0  0  0
 44 42  1  0  0  0  0
 46 47  1  0  0  0  0
 47 43  1  0  0  0  0
 48 50  1  0  0  0  0
 48 49  1  0  0  0  0
 50 51  1  0  0  0  0
 51 53  1  0  0  0  0
 53 52  2  0  0  0  0
 53 54  1  0  0  0  0
 55 54  1  0  0  0  0
M  END
>  <MODEL>
2

>  <REMARK>
 VINA RESULT:      -3.9      1.497      2.590
  Name = 
  18 active torsions:
  status: ('A' for Active; 'I' for Inactive)
    1  A    between atoms: C_1  and  C_12
    2  A    between atoms: C_1  and  C_23
    3  A    between atoms: C_1  and  S_28
    4  A    between atoms: C_4  and  N_44
    5  A    between atoms: C_4  and  N_50
    6  A    between atoms: O_6  and  C_38
    7  A    between atoms: C_7  and  C_23
    8  A    between atoms: C_7  and  C_34
    9  A    between atoms: C_11  and  C_36
   10  A    between atoms: C_11  and  N_44
   11  A    between atoms: C_12  and  C_13
   12  A    between atoms: C_17  and  C_36
   13  A    between atoms: C_21  and  N_50
   14  A    between atoms: C_25  and  C_33
   15  A    between atoms: C_25  and  N_44
   16  A    between atoms: S_28  and  C_29
   17  A    between atoms: C_34  and  C_38
   18  A    between atoms: C_35  and  C_39
                            x       y       z     vdW  Elec       q    Type
                         _______ _______ _______ _____ _____    ______ ____

>  <TORSDO>
F 18

$$$$
=
 OpenBabel11072410023D

 55 62  0  0  1  0  0  0  0  0999 V2000
  160.4690  205.4610  151.3940 C   0  0  2  0  0  3  0  0  0  0  0  0
  160.4670  210.2230  153.0380 C   0  0  2  0  0  3  0  0  0  0  0  0
  161.2400  209.4840  152.0490 N   0  0  0  0  0  2  0  0  0  0  0  0
  161.5240  206.9080  154.4570 C   0  0  0  0  0  0  0  0  0  0  0  0
  159.1230  205.3600  151.0870 F   0  0  0  0  0  0  0  0  0  0  0  0
  160.6790  205.2320  152.8710 C   0  0  0  0  0  2  0  0  0  0  0  0
  160.9790  206.8610  151.1060 C   0  0  1  0  0  3  0  0  0  0  0  0
  162.0450  208.5170  152.7940 C   0  0  1  0  0  3  0  0  0  0  0  0
  161.5270  208.3670  154.2180 C   0  0  1  0  0  3  0  0  0  0  0  0
  162.0660  207.1160  152.1460 C   0  0  1  0  0  3  0  0  0  0  0  0
  161.4330  206.4290  155.5760 O   0  0  0  0  0  0  0  0  0  0  0  0
  159.8560  209.0450  154.2630 S   0  0  0  0  0  0  0  0  0  0  0  0
  161.8630  206.0960  153.2620 C   0  0  1  0  0  3  0  0  0  0  0  0
  161.5930  206.9510  149.7120 C   0  0  0  0  0  2  0  0  0  0  0  0
  161.3080  205.7570  148.9180 N   0  0  0  0  0  0  0  0  0  0  0  0
  161.8520  205.8760  147.5590 C   0  0  0  0  0  2  0  0  0  0  0  0
  160.7960  205.7670  146.4520 C   0  0  1  0  0  3  0  0  0  0  0  0
  160.4260  207.0450  146.0220 O   0  0  0  0  0  1  0  0  0  0  0  0
  162.3050  205.5120  144.3990 C   0  0  0  0  0  2  0  0  0  0  0  0
  161.2680  204.8550  145.3020 C   0  0  0  0  0  3  0  0  0  0  0  0
  162.7450  204.5150  145.4450 C   0  0  0  0  0  2  0  0  0  0  0  0
  161.9170  204.6250  149.6000 C   0  0  0  0  0  2  0  0  0  0  0  0
  160.9840  203.5030  149.6210 N   0  0  0  0  0  2  0  0  0  0  0  0
  159.9160  201.3940  145.2860 C   0  0  0  0  0  2  0  0  0  0  0  0
  160.5000  202.4210  147.4890 C   0  0  0  0  0  3  0  0  0  0  0  0
  160.4460  198.9730  145.0180 C   0  0  0  0  0  2  0  0  0  0  0  0
  160.4330  200.3280  144.3240 C   0  0  0  0  0  2  0  0  0  0  0  0
  161.1040  202.3830  148.7460 C   0  0  0  0  0  0  0  0  0  0  0  0
  161.4710  198.9930  146.1500 C   0  0  0  0  0  2  0  0  0  0  0  0
  161.8930  200.1720  148.2780 N   0  0  0  0  0  0  0  0  0  0  0  0
  161.8160  201.2350  149.1210 C   0  0  0  0  0  3  0  0  0  0  0  0
  161.2940  200.1800  147.0530 C   0  0  0  0  0  0  0  0  0  0  0  0
  160.6080  201.3330  146.6220 C   0  0  0  0  0  0  0  0  0  0  0  0
  159.3260  210.9700  152.3810 C   0  0  0  0  0  2  0  0  0  0  0  0
  159.5470  212.4680  152.5630 C   0  0  2  0  0  3  0  0  0  0  0  0
  158.9730  214.4530  154.3010 O   0  0  0  0  0  0  0  0  0  0  0  0
  159.2140  212.9720  154.2500 S   0  0  0  0  0  0  0  0  0  0  0  0
  160.4000  212.6360  155.1160 O   0  0  0  0  0  0  0  0  0  0  0  0
  156.6130  211.8050  153.9010 C   0  0  0  0  0  2  0  0  0  0  0  0
  157.2260  212.5650  156.1680 C   0  0  1  0  0  3  0  0  0  0  0  0
  155.3980  211.6400  154.7840 C   0  0  0  0  0  2  0  0  0  0  0  0
  157.7680  212.1050  154.8350 C   0  0  2  0  0  0  0  0  0  0  0  0
  155.7040  212.3890  156.0730 C   0  0  2  0  0  0  0  0  0  0  0  0
  157.9680  211.2340  156.0560 C   0  0  0  0  0  2  0  0  0  0  0  0
  155.1000  213.6450  156.0190 O   0  0  0  0  0  1  0  0  0  0  0  0
  154.5020  210.4500  156.8260 O   0  0  0  0  0  1  0  0  0  0  0  0
  155.1500  211.6090  157.2590 C   0  0  0  0  0  2  0  0  0  0  0  0
  158.7720  213.3140  151.5530 C   0  0  2  0  0  3  0  0  0  0  0  0
  157.8100  212.5480  150.8950 O   0  0  0  0  0  1  0  0  0  0  0  0
  159.7410  213.9380  150.5580 C   0  0  0  0  0  2  0  0  0  0  0  0
  159.2830  213.7200  149.1230 C   0  0  0  0  0  2  0  0  0  0  0  0
  160.2730  214.1790  147.0100 O   0  0  0  0  0  0  0  0  0  0  0  0
  160.4410  213.7680  148.1870 C   0  0  0  0  0  0  0  0  0  0  0  0
  161.7060  213.3520  148.5930 O   0  0  0  0  0  0  0  0  0  0  0  0
  162.8070  213.9450  148.1130 O   0  0  0  0  0  1  0  0  0  0  0  0
  1  5  1  1  0  0  0
  1  6  1  0  0  0  0
  2 34  1  6  0  0  0
  2 12  1  0  0  0  0
  3  2  1  0  0  0  0
  4 11  2  0  0  0  0
  6 13  1  0  0  0  0
  7 14  1  6  0  0  0
  7  1  1  0  0  0  0
  7 10  1  0  0  0  0
  8  3  1  6  0  0  0
  8  9  1  0  0  0  0
  9 12  1  6  0  0  0
  9  4  1  0  0  0  0
 10  8  1  0  0  0  0
 10 13  1  0  0  0  0
 13  4  1  0  0  0  0
 15 22  1  0  0  0  0
 15 14  1  0  0  0  0
 16 15  1  0  0  0  0
 17 16  1  0  0  0  0
 18 17  1  0  0  0  0
 19 20  1  0  0  0  0
 19 21  1  0  0  0  0
 20 21  1  0  0  0  0
 20 17  1  0  0  0  0
 22 23  1  0  0  0  0
 24 33  1  0  0  0  0
 25 28  1  0  0  0  0
 26 29  1  0  0  0  0
 27 26  1  0  0  0  0
 27 24  1  0  0  0  0
 28 31  2  0  0  0  0
 28 23  1  0  0  0  0
 29 32  1  0  0  0  0
 30 31  1  0  0  0  0
 32 30  2  0  0  0  0
 33 32  1  0  0  0  0
 33 25  2  0  0  0  0
 34 35  1  0  0  0  0
 35 37  1  0  0  0  0
 37 36  2  0  0  0  0
 37 42  1  0  0  0  0
 37 38  2  0  0  0  0
 39 41  1  0  0  0  0
 39 42  1  0  0  0  0
 41 43  1  0  0  0  0
 42 44  1  0  0  0  0
 42 40  1  0  0  0  0
 43 40  1  0  0  0  0
 43 47  1  0  0  0  0
 44 40  1  0  0  0  0
 45 43  1  0  0  0  0
 46 47  1  0  0  0  0
 48 35  1  0  0  0  0
 49 48  1  0  0  0  0
 50 48  1  0  0  0  0
 51 50  1  0  0  0  0
 52 53  2  0  0  0  0
 53 54  1  0  0  0  0
 53 51  1  0  0  0  0
 55 54  1  0  0  0  0
M  END
>  <MODEL>
3

>  <REMARK>
 VINA RESULT:      -3.3      2.017      5.492
  Name = 
  18 active torsions:
  status: ('A' for Active; 'I' for Inactive)
    1  A    between atoms: C_1  and  C_12
    2  A    between atoms: C_1  and  C_23
    3  A    between atoms: C_1  and  S_28
    4  A    between atoms: C_4  and  N_44
    5  A    between atoms: C_4  and  N_50
    6  A    between atoms: O_6  and  C_38
    7  A    between atoms: C_7  and  C_23
    8  A    between atoms: C_7  and  C_34
    9  A    between atoms: C_11  and  C_36
   10  A    between atoms: C_11  and  N_44
   11  A    between atoms: C_12  and  C_13
   12  A    between atoms: C_17  and  C_36
   13  A    between atoms: C_21  and  N_50
   14  A    between atoms: C_25  and  C_33
   15  A    between atoms: C_25  and  N_44
   16  A    between atoms: S_28  and  C_29
   17  A    between atoms: C_34  and  C_38
   18  A    between atoms: C_35  and  C_39
                            x       y       z     vdW  Elec       q    Type
                         _______ _______ _______ _____ _____    ______ ____

>  <TORSDO>
F 18

$$$$
=
 OpenBabel11072410023D

 55 62  0  0  1  0  0  0  0  0999 V2000
  157.7020  213.3980  150.0780 C   0  0  2  0  0  3  0  0  0  0  0  0
  161.5860  210.1900  149.9830 C   0  0  2  0  0  3  0  0  0  0  0  0
  160.9430  210.9850  151.0200 N   0  0  0  0  0  2  0  0  0  0  0  0
  160.9700  213.6770  148.7250 C   0  0  0  0  0  0  0  0  0  0  0  0
  156.7590  212.5800  149.4820 F   0  0  0  0  0  0  0  0  0  0  0  0
  158.5610  214.0500  149.0210 C   0  0  0  0  0  2  0  0  0  0  0  0
  158.6460  212.5840  150.9450 C   0  0  1  0  0  3  0  0  0  0  0  0
  161.2200  212.3850  150.6990 C   0  0  1  0  0  3  0  0  0  0  0  0
  161.7160  212.5200  149.2650 C   0  0  1  0  0  3  0  0  0  0  0  0
  159.9890  213.3020  150.8640 C   0  0  1  0  0  3  0  0  0  0  0  0
  161.3050  214.2490  147.7000 O   0  0  0  0  0  0  0  0  0  0  0  0
  161.2890  210.9980  148.3960 S   0  0  0  0  0  0  0  0  0  0  0  0
  159.9340  214.2130  149.6410 C   0  0  1  0  0  3  0  0  0  0  0  0
  158.1810  212.5600  152.3970 C   0  0  0  0  0  2  0  0  0  0  0  0
  158.0710  213.9070  152.9530 N   0  0  0  0  0  0  0  0  0  0  0  0
  156.6680  214.3140  153.0990 C   0  0  0  0  0  2  0  0  0  0  0  0
  156.1030  214.1150  154.5110 C   0  0  1  0  0  3  0  0  0  0  0  0
  154.7190  214.3130  154.5010 O   0  0  0  0  0  1  0  0  0  0  0  0
  155.6140  212.2920  156.2410 C   0  0  0  0  0  2  0  0  0  0  0  0
  156.5140  212.7520  155.1010 C   0  0  0  0  0  3  0  0  0  0  0  0
  155.4360  211.7040  154.8610 C   0  0  0  0  0  2  0  0  0  0  0  0
  158.7220  213.8950  154.2550 C   0  0  0  0  0  2  0  0  0  0  0  0
  159.9020  213.0380  154.2070 N   0  0  0  0  0  2  0  0  0  0  0  0
  160.4020  208.1260  154.2760 C   0  0  0  0  0  2  0  0  0  0  0  0
  160.1640  210.6140  154.2990 C   0  0  0  0  0  3  0  0  0  0  0  0
  160.0610  206.9610  156.4530 C   0  0  0  0  0  2  0  0  0  0  0  0
  160.8900  206.9930  155.1750 C   0  0  0  0  0  2  0  0  0  0  0  0
  160.0120  211.8330  154.9620 C   0  0  0  0  0  0  0  0  0  0  0  0
  160.3260  208.2300  157.2610 C   0  0  0  0  0  2  0  0  0  0  0  0
  160.0520  210.6740  157.0560 N   0  0  0  0  0  0  0  0  0  0  0  0
  159.9690  211.8400  156.3630 C   0  0  0  0  0  3  0  0  0  0  0  0
  160.1800  209.4710  156.4290 C   0  0  0  0  0  0  0  0  0  0  0  0
  160.2730  209.4260  155.0240 C   0  0  0  0  0  0  0  0  0  0  0  0
  161.0540  208.7730  149.9840 C   0  0  0  0  0  2  0  0  0  0  0  0
  162.1980  207.8170  150.3040 C   0  0  2  0  0  3  0  0  0  0  0  0
  164.3190  206.5890  149.1710 O   0  0  0  0  0  0  0  0  0  0  0  0
  163.0420  207.2930  148.8140 S   0  0  0  0  0  0  0  0  0  0  0  0
  163.3630  208.4990  147.9700 O   0  0  0  0  0  0  0  0  0  0  0  0
  161.9080  204.7120  148.2630 C   0  0  0  0  0  2  0  0  0  0  0  0
  162.0020  206.3340  146.4050 C   0  0  1  0  0  3  0  0  0  0  0  0
  161.4360  204.0060  147.0120 C   0  0  0  0  0  2  0  0  0  0  0  0
  161.9760  206.1840  147.9080 C   0  0  2  0  0  0  0  0  0  0  0  0
  161.7920  204.9200  145.8490 C   0  0  2  0  0  0  0  0  0  0  0  0
  160.7970  206.8240  147.2080 C   0  0  0  0  0  2  0  0  0  0  0  0
  162.9800  204.4730  145.2700 O   0  0  0  0  0  1  0  0  0  0  0  0
  161.0590  205.5530  143.6500 O   0  0  0  0  0  1  0  0  0  0  0  0
  160.6760  204.8800  144.8120 C   0  0  0  0  0  2  0  0  0  0  0  0
  161.7600  206.6270  151.1590 C   0  0  2  0  0  3  0  0  0  0  0  0
  162.8640  205.9500  151.6760 O   0  0  0  0  0  1  0  0  0  0  0  0
  160.8930  205.6920  150.3260 C   0  0  0  0  0  2  0  0  0  0  0  0
  160.2220  204.6360  151.1930 C   0  0  0  0  0  2  0  0  0  0  0  0
  161.7550  202.9490  151.8730 O   0  0  0  0  0  0  0  0  0  0  0  0
  160.8950  203.3160  151.0320 C   0  0  0  0  0  0  0  0  0  0  0  0
  160.5910  202.4870  149.9560 O   0  0  0  0  0  0  0  0  0  0  0  0
  159.9070  201.3500  150.1410 O   0  0  0  0  0  1  0  0  0  0  0  0
  1  5  1  6  0  0  0
  1  7  1  0  0  0  0
  2 34  1  6  0  0  0
  2  3  1  0  0  0  0
  4  9  1  0  0  0  0
  4 13  1  0  0  0  0
  6 13  1  0  0  0  0
  6  1  1  0  0  0  0
  7 14  1  1  0  0  0
  8 10  1  0  0  0  0
  8  3  1  6  0  0  0
  9 12  1  6  0  0  0
  9  8  1  0  0  0  0
 10  7  1  0  0  0  0
 11  4  2  0  0  0  0
 12  2  1  0  0  0  0
 13 10  1  0  0  0  0
 14 15  1  0  0  0  0
 15 16  1  0  0  0  0
 15 22  1  0  0  0  0
 16 17  1  0  0  0  0
 17 20  1  0  0  0  0
 18 17  1  0  0  0  0
 20 19  1  0  0  0  0
 21 20  1  0  0  0  0
 21 19  1  0  0  0  0
 23 22  1  0  0  0  0
 23 28  1  0  0  0  0
 24 33  1  0  0  0  0
 24 27  1  0  0  0  0
 25 28  2  0  0  0  0
 25 33  1  0  0  0  0
 26 29  1  0  0  0  0
 27 26  1  0  0  0  0
 28 31  1  0  0  0  0
 31 30  2  0  0  0  0
 32 30  1  0  0  0  0
 32 29  1  0  0  0  0
 33 32  2  0  0  0  0
 34 35  1  0  0  0  0
 35 48  1  0  0  0  0
 37 36  2  0  0  0  0
 37 35  1  0  0  0  0
 38 37  2  0  0  0  0
 40 44  1  0  0  0  0
 40 42  1  0  0  0  0
 41 39  1  0  0  0  0
 42 39  1  0  0  0  0
 42 37  1  0  0  0  0
 43 40  1  0  0  0  0
 43 41  1  0  0  0  0
 44 42  1  0  0  0  0
 45 43  1  0  0  0  0
 46 47  1  0  0  0  0
 47 43  1  0  0  0  0
 48 49  1  0  0  0  0
 50 48  1  0  0  0  0
 50 51  1  0  0  0  0
 53 51  1  0  0  0  0
 53 52  2  0  0  0  0
 54 55  1  0  0  0  0
 54 53  1  0  0  0  0
M  END
>  <MODEL>
4

>  <REMARK>
 VINA RESULT:      -2.9      3.081      9.228
  Name = 
  18 active torsions:
  status: ('A' for Active; 'I' for Inactive)
    1  A    between atoms: C_1  and  C_12
    2  A    between atoms: C_1  and  C_23
    3  A    between atoms: C_1  and  S_28
    4  A    between atoms: C_4  and  N_44
    5  A    between atoms: C_4  and  N_50
    6  A    between atoms: O_6  and  C_38
    7  A    between atoms: C_7  and  C_23
    8  A    between atoms: C_7  and  C_34
    9  A    between atoms: C_11  and  C_36
   10  A    between atoms: C_11  and  N_44
   11  A    between atoms: C_12  and  C_13
   12  A    between atoms: C_17  and  C_36
   13  A    between atoms: C_21  and  N_50
   14  A    between atoms: C_25  and  C_33
   15  A    between atoms: C_25  and  N_44
   16  A    between atoms: S_28  and  C_29
   17  A    between atoms: C_34  and  C_38
   18  A    between atoms: C_35  and  C_39
                            x       y       z     vdW  Elec       q    Type
                         _______ _______ _______ _____ _____    ______ ____

>  <TORSDO>
F 18

$$$$
=
 OpenBabel11072410023D

 55 62  0  0  1  0  0  0  0  0999 V2000
  163.0720  206.5480  150.4410 C   0  0  2  0  0  3  0  0  0  0  0  0
  160.8190  210.7060  152.1760 C   0  0  2  0  0  3  0  0  0  0  0  0
  160.3720  209.3550  151.8690 N   0  0  0  0  0  2  0  0  0  0  0  0
  162.2270  209.6130  148.8680 C   0  0  0  0  0  0  0  0  0  0  0  0
  164.1040  206.4870  151.3610 F   0  0  0  0  0  0  0  0  0  0  0  0
  163.4200  207.5190  149.3390 C   0  0  0  0  0  2  0  0  0  0  0  0
  161.8080  207.0820  151.0910 C   0  0  1  0  0  3  0  0  0  0  0  0
  160.4780  209.2040  150.4180 C   0  0  1  0  0  3  0  0  0  0  0  0
  161.3400  210.3110  149.8240 C   0  0  1  0  0  3  0  0  0  0  0  0
  161.0820  207.8500  149.9900 C   0  0  1  0  0  3  0  0  0  0  0  0
  162.8580  210.2090  148.0100 O   0  0  0  0  0  0  0  0  0  0  0  0
  162.2800  211.0520  151.1740 S   0  0  0  0  0  0  0  0  0  0  0  0
  162.1070  208.1350  148.8970 C   0  0  1  0  0  3  0  0  0  0  0  0
  160.9140  205.9450  151.5770 C   0  0  0  0  0  2  0  0  0  0  0  0
  161.5020  205.2430  152.7160 N   0  0  0  0  0  0  0  0  0  0  0  0
  160.5680  205.1810  153.8480 C   0  0  0  0  0  2  0  0  0  0  0  0
  160.9140  206.1380  154.9960 C   0  0  1  0  0  3  0  0  0  0  0  0
  161.7070  207.1860  154.5190 O   0  0  0  0  0  1  0  0  0  0  0  0
  159.9580  207.4030  157.0060 C   0  0  0  0  0  2  0  0  0  0  0  0
  159.6510  206.6230  155.7340 C   0  0  0  0  0  3  0  0  0  0  0  0
  159.5750  208.1430  155.7460 C   0  0  0  0  0  2  0  0  0  0  0  0
  161.8350  203.8970  152.2730 C   0  0  0  0  0  2  0  0  0  0  0  0
  160.6900  203.3060  151.5900 N   0  0  0  0  0  2  0  0  0  0  0  0
  161.6060  204.5260  146.8940 C   0  0  0  0  0  2  0  0  0  0  0  0
  161.1420  203.8510  149.2560 C   0  0  0  0  0  3  0  0  0  0  0  0
  160.8470  202.9460  145.1220 C   0  0  0  0  0  2  0  0  0  0  0  0
  161.9580  203.8950  145.5500 C   0  0  0  0  0  2  0  0  0  0  0  0
  160.7200  202.9290  150.2150 C   0  0  0  0  0  0  0  0  0  0  0  0
  160.7860  201.7670  146.0910 C   0  0  0  0  0  2  0  0  0  0  0  0
  160.3470  201.3240  148.4790 N   0  0  0  0  0  0  0  0  0  0  0  0
  160.3320  201.6480  149.7990 C   0  0  0  0  0  3  0  0  0  0  0  0
  160.7360  202.2140  147.5240 C   0  0  0  0  0  0  0  0  0  0  0  0
  161.1780  203.4970  147.9060 C   0  0  0  0  0  0  0  0  0  0  0  0
  161.1220  210.8500  153.6530 C   0  0  0  0  0  2  0  0  0  0  0  0
  160.4020  212.0850  154.1850 C   0  0  2  0  0  3  0  0  0  0  0  0
  161.0130  213.1010  156.6110 O   0  0  0  0  0  0  0  0  0  0  0  0
  160.2110  212.0080  155.9640 S   0  0  0  0  0  0  0  0  0  0  0  0
  160.7050  210.6740  156.4630 O   0  0  0  0  0  0  0  0  0  0  0  0
  157.5350  211.0260  156.3200 C   0  0  0  0  0  2  0  0  0  0  0  0
  157.8070  213.4160  155.7660 C   0  0  1  0  0  3  0  0  0  0  0  0
  156.1560  211.6100  156.1200 C   0  0  0  0  0  2  0  0  0  0  0  0
  158.4840  212.2070  156.3680 C   0  0  2  0  0  0  0  0  0  0  0  0
  156.3620  212.9790  155.4890 C   0  0  2  0  0  0  0  0  0  0  0  0
  158.1440  213.3830  157.2560 C   0  0  0  0  0  2  0  0  0  0  0  0
  156.1700  212.8750  154.1120 O   0  0  0  0  0  1  0  0  0  0  0  0
  154.6390  213.3760  157.1170 O   0  0  0  0  0  1  0  0  0  0  0  0
  155.3530  213.9630  156.0700 C   0  0  0  0  0  2  0  0  0  0  0  0
  159.0700  212.3500  153.4820 C   0  0  2  0  0  3  0  0  0  0  0  0
  158.6650  211.2380  152.7440 O   0  0  0  0  0  1  0  0  0  0  0  0
  159.1990  213.5750  152.5860 C   0  0  0  0  0  2  0  0  0  0  0  0
  158.1940  213.5390  151.4450 C   0  0  0  0  0  2  0  0  0  0  0  0
  158.2520  213.4660  149.0680 O   0  0  0  0  0  0  0  0  0  0  0  0
  158.8790  213.7040  150.1320 C   0  0  0  0  0  0  0  0  0  0  0  0
  160.2100  214.1080  150.0670 O   0  0  0  0  0  0  0  0  0  0  0  0
  160.9430  213.8710  148.9710 O   0  0  0  0  0  1  0  0  0  0  0  0
  1  7  1  0  0  0  0
  1  5  1  1  0  0  0
  2 34  1  1  0  0  0
  3  2  1  0  0  0  0
  4 13  1  0  0  0  0
  6  1  1  0  0  0  0
  7 14  1  6  0  0  0
  8  3  1  1  0  0  0
  9  4  1  6  0  0  0
  9  8  1  0  0  0  0
  9 12  1  0  0  0  0
 10  8  1  0  0  0  0
 10  7  1  0  0  0  0
 11  4  2  0  0  0  0
 12  2  1  0  0  0  0
 13  6  1  0  0  0  0
 13 10  1  0  0  0  0
 14 15  1  0  0  0  0
 15 16  1  0  0  0  0
 16 17  1  0  0  0  0
 17 20  1  0  0  0  0
 18 17  1  0  0  0  0
 20 21  1  0  0  0  0
 20 19  1  0  0  0  0
 21 19  1  0  0  0  0
 22 15  1  0  0  0  0
 23 22  1  0  0  0  0
 24 33  1  0  0  0  0
 25 28  1  0  0  0  0
 26 27  1  0  0  0  0
 26 29  1  0  0  0  0
 27 24  1  0  0  0  0
 28 23  1  0  0  0  0
 29 32  1  0  0  0  0
 30 31  1  0  0  0  0
 31 28  2  0  0  0  0
 32 33  1  0  0  0  0
 32 30  2  0  0  0  0
 33 25  2  0  0  0  0
 34 35  1  0  0  0  0
 35 37  1  0  0  0  0
 37 42  1  0  0  0  0
 37 38  2  0  0  0  0
 37 36  2  0  0  0  0
 39 42  1  0  0  0  0
 40 42  1  0  0  0  0
 40 44  1  0  0  0  0
 41 39  1  0  0  0  0
 42 44  1  0  0  0  0
 43 40  1  0  0  0  0
 43 47  1  0  0  0  0
 43 41  1  0  0  0  0
 45 43  1  0  0  0  0
 47 46  1  0  0  0  0
 48 35  1  0  0  0  0
 49 48  1  0  0  0  0
 50 48  1  0  0  0  0
 51 50  1  0  0  0  0
 52 53  2  0  0  0  0
 53 51  1  0  0  0  0
 54 53  1  0  0  0  0
 55 54  1  0  0  0  0
M  END
>  <MODEL>
5

>  <REMARK>
 VINA RESULT:      -2.4      2.209      6.243
  Name = 
  18 active torsions:
  status: ('A' for Active; 'I' for Inactive)
    1  A    between atoms: C_1  and  C_12
    2  A    between atoms: C_1  and  C_23
    3  A    between atoms: C_1  and  S_28
    4  A    between atoms: C_4  and  N_44
    5  A    between atoms: C_4  and  N_50
    6  A    between atoms: O_6  and  C_38
    7  A    between atoms: C_7  and  C_23
    8  A    between atoms: C_7  and  C_34
    9  A    between atoms: C_11  and  C_36
   10  A    between atoms: C_11  and  N_44
   11  A    between atoms: C_12  and  C_13
   12  A    between atoms: C_17  and  C_36
   13  A    between atoms: C_21  and  N_50
   14  A    between atoms: C_25  and  C_33
   15  A    between atoms: C_25  and  N_44
   16  A    between atoms: S_28  and  C_29
   17  A    between atoms: C_34  and  C_38
   18  A    between atoms: C_35  and  C_39
                            x       y       z     vdW  Elec       q    Type
                         _______ _______ _______ _____ _____    ______ ____

>  <TORSDO>
F 18

$$$$
