=
 OpenBabel11072410083D

 43 45  0  0  1  0  0  0  0  0999 V2000
  160.7600  208.6230  151.1540 C   0  0  2  0  0  3  0  0  0  0  0  0
  160.7760  207.2540  151.8550 C   0  0  1  0  0  3  0  0  0  0  0  0
  161.5860  207.4810  150.5940 C   0  0  1  0  0  3  0  0  0  0  0  0
  160.8640  210.7010  152.5190 C   0  0  0  0  0  1  0  0  0  0  0  0
  161.6890  209.6810  151.7590 C   0  0  2  0  0  3  0  0  0  0  0  0
  162.4170  210.3360  150.7570 O   0  0  0  0  0  0  0  0  0  0  0  0
  161.7050  211.5090  150.4850 C   0  0  0  0  0  2  0  0  0  0  0  0
  163.2550  212.2500  148.3650 O   0  0  0  0  0  1  0  0  0  0  0  0
  161.8190  211.9440  148.7240 P   0  0  1  0  0  0  0  0  0  0  0  0
  161.2570  210.6620  147.7730 O   0  0  0  0  0  0  0  0  0  0  0  0
  160.7890  213.4090  148.4390 C   0  0  0  0  0  2  0  0  0  0  0  0
  161.3640  214.2030  147.2840 C   0  0  0  0  0  2  0  0  0  0  0  0
  160.5610  214.0440  146.1550 O   0  0  0  0  0  0  0  0  0  0  0  0
  161.1020  213.4270  143.9160 C   0  0  2  0  0  3  0  0  0  0  0  0
  161.2250  213.0810  145.3870 C   0  0  2  0  0  3  0  0  0  0  0  0
  158.8200  212.7290  144.5850 C   0  0  0  0  0  1  0  0  0  0  0  0
  160.2740  212.2910  144.4830 C   0  0  1  0  0  3  0  0  0  0  0  0
  163.0210  213.9870  142.4540 C   0  0  0  0  0  1  0  0  0  0  0  0
  162.2940  212.8640  143.1650 C   0  0  2  0  0  3  0  0  0  0  0  0
  161.8600  211.9310  142.2250 O   0  0  0  0  0  1  0  0  0  0  0  0
  160.8600  206.8970  149.3910 C   0  0  0  0  0  2  0  0  0  0  0  0
  161.8060  206.5760  148.2290 C   0  0  2  0  0  3  0  0  0  0  0  0
  162.6520  207.7910  147.8900 C   0  0  0  0  0  1  0  0  0  0  0  0
  161.0820  206.0440  146.9850 C   0  0  1  0  0  3  0  0  0  0  0  0
  160.4270  207.0840  146.3210 O   0  0  0  0  0  1  0  0  0  0  0  0
  162.0320  205.3400  146.0210 C   0  0  0  0  0  2  0  0  0  0  0  0
  161.6620  205.5890  144.6970 O   0  0  0  0  0  0  0  0  0  0  0  0
  160.7990  204.5430  144.3740 C   0  0  0  0  0  1  0  0  0  0  0  0
  161.6920  207.1830  153.0860 C   0  0  1  0  0  3  0  0  0  0  0  0
  159.9900  206.8600  154.7440 O   0  0  0  0  0  0  0  0  0  0  0  0
  160.9560  207.5560  154.3330 C   0  0  0  0  0  0  0  0  0  0  0  0
  161.3500  208.6780  155.0510 O   0  0  0  0  0  1  0  0  0  0  0  0
  162.4060  205.8400  153.2290 C   0  0  0  0  0  2  0  0  0  0  0  0
  160.5190  203.7400  153.0100 O   0  0  0  0  0  0  0  0  0  0  0  0
  161.2630  203.9500  152.0130 C   0  0  0  0  0  0  0  0  0  0  0  0
  162.2170  205.0130  152.0460 N   0  0  0  0  0  2  0  0  0  0  0  0
  160.9790  202.8500  148.4100 C   0  0  0  0  0  3  0  0  0  0  0  0
  160.9630  201.4600  148.5470 C   0  0  0  0  0  0  0  0  0  0  0  0
  161.0450  200.8830  149.8180 C   0  0  0  0  0  3  0  0  0  0  0  0
  161.1400  201.6960  150.9490 C   0  0  0  0  0  3  0  0  0  0  0  0
  160.8720  200.6720  147.4500 F   0  0  0  0  0  0  0  0  0  0  0  0
  161.1560  203.0920  150.8200 C   0  0  0  0  0  0  0  0  0  0  0  0
  161.0750  203.6620  149.5410 C   0  0  0  0  0  3  0  0  0  0  0  0
  1  5  1  1  0  0  0
  1  2  1  0  0  0  0
  2 29  1  1  0  0  0
  3 21  1  6  0  0  0
  3  1  1  0  0  0  0
  3  2  1  0  0  0  0
  5  4  1  6  0  0  0
  6  5  1  0  0  0  0
  7  6  1  0  0  0  0
  8  9  1  0  0  0  0
  9 10  2  6  0  0  0
  9  7  1  0  0  0  0
 11  9  1  0  0  0  0
 12 11  1  0  0  0  0
 13 12  1  0  0  0  0
 14 19  1  6  0  0  0
 14 17  1  0  0  0  0
 14 15  1  0  0  0  0
 15 13  1  1  0  0  0
 17 16  1  1  0  0  0
 17 15  1  0  0  0  0
 19 18  1  6  0  0  0
 20 19  1  0  0  0  0
 22 23  1  6  0  0  0
 22 21  1  0  0  0  0
 24 25  1  6  0  0  0
 24 22  1  0  0  0  0
 26 24  1  0  0  0  0
 27 26  1  0  0  0  0
 28 27  1  0  0  0  0
 29 33  1  1  0  0  0
 29 31  1  0  0  0  0
 31 30  2  0  0  0  0
 31 32  1  0  0  0  0
 35 36  1  0  0  0  0
 35 34  2  0  0  0  0
 36 33  1  0  0  0  0
 37 38  2  0  0  0  0
 37 43  1  0  0  0  0
 38 39  1  0  0  0  0
 39 40  2  0  0  0  0
 41 38  1  0  0  0  0
 42 40  1  0  0  0  0
 42 35  1  0  0  0  0
 43 42  2  0  0  0  0
M  END
>  <MODEL>
1

>  <REMARK>
 VINA RESULT:      -6.3      0.000      0.000
  Name = 
  19 active torsions:
  status: ('A' for Active; 'I' for Inactive)
    1  A    between atoms: C_1  and  C_14
    2  A    between atoms: C_1  and  C_18
    3  A    between atoms: C_3  and  C_12
    4  A    between atoms: C_5  and  O_6
    5  A    between atoms: O_6  and  C_22
    6  A    between atoms: O_10  and  C_18
    7  A    between atoms: C_11  and  C_26
    8  A    between atoms: C_11  and  N_34
    9  A    between atoms: C_14  and  C_38
   10  A    between atoms: C_16  and  C_41
   11  A    between atoms: C_19  and  C_26
   12  A    between atoms: C_20  and  C_37
   13  A    between atoms: C_21  and  O_23
   14  A    between atoms: C_21  and  P_36
   15  A    between atoms: C_22  and  C_27
   16  A    between atoms: O_23  and  C_41
   17  A    between atoms: C_25  and  C_38
   18  A    between atoms: C_26  and  C_30
   19  A    between atoms: C_27  and  P_36
                            x       y       z     vdW  Elec       q    Type
                         _______ _______ _______ _____ _____    ______ ____

>  <TORSDO>
F 19

$$$$
=
 OpenBabel11072410083D

 43 45  0  0  1  0  0  0  0  0999 V2000
  161.6300  209.1060  153.1160 C   0  0  2  0  0  3  0  0  0  0  0  0
  161.8200  207.5980  152.8810 C   0  0  1  0  0  3  0  0  0  0  0  0
  160.9610  208.0940  154.0270 C   0  0  1  0  0  3  0  0  0  0  0  0
  161.2580  210.7060  151.2470 C   0  0  0  0  0  1  0  0  0  0  0  0
  160.5740  209.7800  152.2330 C   0  0  2  0  0  3  0  0  0  0  0  0
  159.6760  210.5220  153.0110 O   0  0  0  0  0  0  0  0  0  0  0  0
  159.8110  211.8450  152.5760 C   0  0  0  0  0  2  0  0  0  0  0  0
  157.3080  211.9360  153.6600 O   0  0  0  0  0  0  0  0  0  0  0  0
  158.3560  212.8310  153.0400 P   0  0  1  0  0  0  0  0  0  0  0  0
  158.7990  214.0350  154.1440 O   0  0  0  0  0  1  0  0  0  0  0  0
  157.6960  213.5990  151.5360 C   0  0  0  0  0  2  0  0  0  0  0  0
  158.8470  213.9770  150.6260 C   0  0  0  0  0  2  0  0  0  0  0  0
  158.3710  214.2160  149.3360 O   0  0  0  0  0  0  0  0  0  0  0  0
  159.9260  214.0300  147.5380 C   0  0  2  0  0  3  0  0  0  0  0  0
  159.0550  213.2930  148.5360 C   0  0  2  0  0  3  0  0  0  0  0  0
  157.6080  214.4510  146.7700 C   0  0  0  0  0  1  0  0  0  0  0  0
  158.6440  213.3750  147.0630 C   0  0  1  0  0  3  0  0  0  0  0  0
  162.1830  213.2810  148.2310 C   0  0  0  0  0  1  0  0  0  0  0  0
  161.1120  213.1590  147.1670 C   0  0  2  0  0  3  0  0  0  0  0  0
  161.6330  213.5720  145.9410 O   0  0  0  0  0  1  0  0  0  0  0  0
  161.7380  208.0260  155.3340 C   0  0  0  0  0  2  0  0  0  0  0  0
  160.8270  208.0780  156.5650 C   0  0  2  0  0  3  0  0  0  0  0  0
  159.5020  207.4000  156.2670 C   0  0  0  0  0  1  0  0  0  0  0  0
  160.6110  209.5000  157.1000 C   0  0  1  0  0  3  0  0  0  0  0  0
  161.6950  210.3150  156.7680 O   0  0  0  0  0  1  0  0  0  0  0  0
  159.3230  210.1260  156.5720 C   0  0  0  0  0  2  0  0  0  0  0  0
  159.4950  211.4930  156.3480 O   0  0  0  0  0  0  0  0  0  0  0  0
  158.6380  212.1060  157.2600 C   0  0  0  0  0  1  0  0  0  0  0  0
  160.9490  207.0170  151.7580 C   0  0  1  0  0  3  0  0  0  0  0  0
  162.8170  207.3510  150.2930 O   0  0  0  0  0  1  0  0  0  0  0  0
  161.5680  207.2440  150.4160 C   0  0  0  0  0  0  0  0  0  0  0  0
  160.7560  207.3270  149.2920 O   0  0  0  0  0  0  0  0  0  0  0  0
  160.5870  205.5480  151.9750 C   0  0  0  0  0  2  0  0  0  0  0  0
  161.6940  202.9900  151.4780 O   0  0  0  0  0  0  0  0  0  0  0  0
  161.1000  203.5560  150.5190 C   0  0  0  0  0  0  0  0  0  0  0  0
  160.4930  204.8350  150.7100 N   0  0  0  0  0  2  0  0  0  0  0  0
  161.1970  203.0250  146.7800 C   0  0  0  0  0  3  0  0  0  0  0  0
  160.9430  201.6540  146.6900 C   0  0  0  0  0  0  0  0  0  0  0  0
  160.7390  200.9040  147.8520 C   0  0  0  0  0  3  0  0  0  0  0  0
  160.7880  201.5260  149.1020 C   0  0  0  0  0  3  0  0  0  0  0  0
  160.8970  201.0520  145.4780 F   0  0  0  0  0  0  0  0  0  0  0  0
  161.0410  202.9010  149.2010 C   0  0  0  0  0  0  0  0  0  0  0  0
  161.2460  203.6450  148.0300 C   0  0  0  0  0  3  0  0  0  0  0  0
  1  5  1  6  0  0  0
  1  3  1  0  0  0  0
  2 29  1  6  0  0  0
  2  1  1  0  0  0  0
  2  3  1  0  0  0  0
  3 21  1  1  0  0  0
  5  4  1  6  0  0  0
  5  6  1  0  0  0  0
  7  6  1  0  0  0  0
  7  9  1  0  0  0  0
  9  8  2  1  0  0  0
  9 10  1  0  0  0  0
 11  9  1  0  0  0  0
 12 11  1  0  0  0  0
 13 12  1  0  0  0  0
 14 19  1  6  0  0  0
 14 15  1  0  0  0  0
 15 13  1  1  0  0  0
 17 16  1  1  0  0  0
 17 14  1  0  0  0  0
 17 15  1  0  0  0  0
 19 18  1  1  0  0  0
 20 19  1  0  0  0  0
 21 22  1  0  0  0  0
 22 23  1  6  0  0  0
 22 24  1  0  0  0  0
 24 25  1  6  0  0  0
 26 24  1  0  0  0  0
 27 26  1  0  0  0  0
 27 28  1  0  0  0  0
 29 33  1  1  0  0  0
 30 31  1  0  0  0  0
 31 29  1  0  0  0  0
 32 31  2  0  0  0  0
 35 36  1  0  0  0  0
 35 34  2  0  0  0  0
 36 33  1  0  0  0  0
 37 43  1  0  0  0  0
 38 37  2  0  0  0  0
 38 39  1  0  0  0  0
 39 40  2  0  0  0  0
 40 42  1  0  0  0  0
 41 38  1  0  0  0  0
 42 35  1  0  0  0  0
 43 42  2  0  0  0  0
M  END
>  <MODEL>
2

>  <REMARK>
 VINA RESULT:      -6.2      2.700      5.822
  Name = 
  19 active torsions:
  status: ('A' for Active; 'I' for Inactive)
    1  A    between atoms: C_1  and  C_14
    2  A    between atoms: C_1  and  C_18
    3  A    between atoms: C_3  and  C_12
    4  A    between atoms: C_5  and  O_6
    5  A    between atoms: O_6  and  C_22
    6  A    between atoms: O_10  and  C_18
    7  A    between atoms: C_11  and  C_26
    8  A    between atoms: C_11  and  N_34
    9  A    between atoms: C_14  and  C_38
   10  A    between atoms: C_16  and  C_41
   11  A    between atoms: C_19  and  C_26
   12  A    between atoms: C_20  and  C_37
   13  A    between atoms: C_21  and  O_23
   14  A    between atoms: C_21  and  P_36
   15  A    between atoms: C_22  and  C_27
   16  A    between atoms: O_23  and  C_41
   17  A    between atoms: C_25  and  C_38
   18  A    between atoms: C_26  and  C_30
   19  A    between atoms: C_27  and  P_36
                            x       y       z     vdW  Elec       q    Type
                         _______ _______ _______ _____ _____    ______ ____

>  <TORSDO>
F 19

$$$$
=
 OpenBabel11072410083D

 43 45  0  0  1  0  0  0  0  0999 V2000
  159.9440  209.4700  153.3920 C   0  0  2  0  0  3  0  0  0  0  0  0
  160.1920  207.9640  153.5760 C   0  0  1  0  0  3  0  0  0  0  0  0
  161.1020  208.7890  152.6880 C   0  0  1  0  0  3  0  0  0  0  0  0
  159.4210  210.5130  155.5900 C   0  0  0  0  0  1  0  0  0  0  0  0
  160.4800  210.3660  154.5140 C   0  0  2  0  0  3  0  0  0  0  0  0
  160.8120  211.6350  154.0230 O   0  0  0  0  0  0  0  0  0  0  0  0
  159.7510  212.4690  154.3950 C   0  0  0  0  0  2  0  0  0  0  0  0
  158.1830  211.8360  152.2540 O   0  0  0  0  0  0  0  0  0  0  0  0
  158.8200  213.0240  152.9370 P   0  0  1  0  0  0  0  0  0  0  0  0
  157.6190  214.1230  153.3990 O   0  0  0  0  0  1  0  0  0  0  0  0
  159.9820  213.8330  151.8040 C   0  0  0  0  0  2  0  0  0  0  0  0
  159.6330  213.4520  150.3790 C   0  0  0  0  0  2  0  0  0  0  0  0
  160.7920  213.4060  149.6050 O   0  0  0  0  0  0  0  0  0  0  0  0
  160.3740  212.5630  147.4140 C   0  0  2  0  0  3  0  0  0  0  0  0
  160.3700  213.7760  148.3230 C   0  0  2  0  0  3  0  0  0  0  0  0
  162.7710  213.0420  147.8220 C   0  0  0  0  0  1  0  0  0  0  0  0
  161.4690  213.6020  147.2700 C   0  0  1  0  0  3  0  0  0  0  0  0
  159.7580  213.9030  145.4240 C   0  0  0  0  0  1  0  0  0  0  0  0
  159.3420  212.7530  146.3180 C   0  0  2  0  0  3  0  0  0  0  0  0
  158.1010  213.0370  146.8840 O   0  0  0  0  0  1  0  0  0  0  0  0
  160.7340  208.5870  151.2250 C   0  0  0  0  0  2  0  0  0  0  0  0
  161.9170  208.8230  150.2810 C   0  0  2  0  0  3  0  0  0  0  0  0
  162.4190  210.2500  150.4140 C   0  0  0  0  0  1  0  0  0  0  0  0
  161.6030  208.4830  148.8180 C   0  0  1  0  0  3  0  0  0  0  0  0
  161.7290  209.6200  148.0160 O   0  0  0  0  0  1  0  0  0  0  0  0
  162.5030  207.3760  148.2760 C   0  0  0  0  0  2  0  0  0  0  0  0
  162.0730  206.9670  147.0120 O   0  0  0  0  0  0  0  0  0  0  0  0
  162.5190  205.6510  146.9020 C   0  0  0  0  0  1  0  0  0  0  0  0
  160.9000  207.5930  154.8880 C   0  0  1  0  0  3  0  0  0  0  0  0
  160.2700  207.2370  157.1740 O   0  0  0  0  0  1  0  0  0  0  0  0
  159.9140  207.2750  155.9660 C   0  0  0  0  0  0  0  0  0  0  0  0
  158.5890  207.0270  155.6320 O   0  0  0  0  0  0  0  0  0  0  0  0
  161.9360  206.4840  154.7210 C   0  0  0  0  0  2  0  0  0  0  0  0
  163.0460  206.0950  152.1450 O   0  0  0  0  0  0  0  0  0  0  0  0
  162.0750  205.3570  152.4700 C   0  0  0  0  0  0  0  0  0  0  0  0
  161.4870  205.4810  153.7660 N   0  0  0  0  0  2  0  0  0  0  0  0
  160.9250  202.0930  150.9550 C   0  0  0  0  0  3  0  0  0  0  0  0
  160.5160  202.5080  149.6850 C   0  0  0  0  0  0  0  0  0  0  0  0
  160.6160  203.8550  149.3250 C   0  0  0  0  0  3  0  0  0  0  0  0
  161.1280  204.7850  150.2340 C   0  0  0  0  0  3  0  0  0  0  0  0
  160.0180  201.6070  148.8060 F   0  0  0  0  0  0  0  0  0  0  0  0
  161.5420  204.3760  151.5100 C   0  0  0  0  0  0  0  0  0  0  0  0
  161.4360  203.0220  151.8630 C   0  0  0  0  0  3  0  0  0  0  0  0
  1  2  1  0  0  0  0
  1  5  1  1  0  0  0
  2 29  1  1  0  0  0
  3 21  1  6  0  0  0
  3  1  1  0  0  0  0
  3  2  1  0  0  0  0
  5  4  1  1  0  0  0
  6  7  1  0  0  0  0
  6  5  1  0  0  0  0
  9  8  2  6  0  0  0
  9 10  1  0  0  0  0
  9  7  1  0  0  0  0
 11  9  1  0  0  0  0
 12 11  1  0  0  0  0
 13 12  1  0  0  0  0
 14 19  1  6  0  0  0
 14 15  1  0  0  0  0
 15 13  1  1  0  0  0
 17 14  1  0  0  0  0
 17 16  1  1  0  0  0
 17 15  1  0  0  0  0
 19 18  1  6  0  0  0
 19 20  1  0  0  0  0
 22 23  1  6  0  0  0
 22 21  1  0  0  0  0
 24 25  1  6  0  0  0
 24 22  1  0  0  0  0
 26 24  1  0  0  0  0
 27 26  1  0  0  0  0
 28 27  1  0  0  0  0
 29 33  1  6  0  0  0
 29 31  1  0  0  0  0
 31 30  1  0  0  0  0
 32 31  2  0  0  0  0
 34 35  2  0  0  0  0
 35 36  1  0  0  0  0
 36 33  1  0  0  0  0
 37 43  1  0  0  0  0
 38 37  2  0  0  0  0
 39 38  1  0  0  0  0
 39 40  2  0  0  0  0
 40 42  1  0  0  0  0
 41 38  1  0  0  0  0
 42 43  2  0  0  0  0
 42 35  1  0  0  0  0
M  END
>  <MODEL>
3

>  <REMARK>
 VINA RESULT:      -5.7      2.328      3.528
  Name = 
  19 active torsions:
  status: ('A' for Active; 'I' for Inactive)
    1  A    between atoms: C_1  and  C_14
    2  A    between atoms: C_1  and  C_18
    3  A    between atoms: C_3  and  C_12
    4  A    between atoms: C_5  and  O_6
    5  A    between atoms: O_6  and  C_22
    6  A    between atoms: O_10  and  C_18
    7  A    between atoms: C_11  and  C_26
    8  A    between atoms: C_11  and  N_34
    9  A    between atoms: C_14  and  C_38
   10  A    between atoms: C_16  and  C_41
   11  A    between atoms: C_19  and  C_26
   12  A    between atoms: C_20  and  C_37
   13  A    between atoms: C_21  and  O_23
   14  A    between atoms: C_21  and  P_36
   15  A    between atoms: C_22  and  C_27
   16  A    between atoms: O_23  and  C_41
   17  A    between atoms: C_25  and  C_38
   18  A    between atoms: C_26  and  C_30
   19  A    between atoms: C_27  and  P_36
                            x       y       z     vdW  Elec       q    Type
                         _______ _______ _______ _____ _____    ______ ____

>  <TORSDO>
F 19

$$$$
=
 OpenBabel11072410083D

 43 45  0  0  1  0  0  0  0  0999 V2000
  162.1930  209.3250  150.6810 C   0  0  2  0  0  3  0  0  0  0  0  0
  162.1010  208.2530  151.7800 C   0  0  1  0  0  3  0  0  0  0  0  0
  160.9360  209.1870  151.5190 C   0  0  1  0  0  3  0  0  0  0  0  0
  163.2130  208.3460  148.6340 C   0  0  0  0  0  1  0  0  0  0  0  0
  161.9190  208.8310  149.2570 C   0  0  2  0  0  3  0  0  0  0  0  0
  161.3880  209.8590  148.4670 O   0  0  0  0  0  0  0  0  0  0  0  0
  162.2500  210.9480  148.6430 C   0  0  0  0  0  2  0  0  0  0  0  0
  160.1750  212.1590  147.3490 O   0  0  0  0  0  0  0  0  0  0  0  0
  161.5420  212.4580  147.9200 P   0  0  1  0  0  0  0  0  0  0  0  0
  161.4130  213.6620  149.1020 O   0  0  0  0  0  1  0  0  0  0  0  0
  162.6500  213.0190  146.5980 C   0  0  0  0  0  2  0  0  0  0  0  0
  162.1770  214.3670  146.0930 C   0  0  0  0  0  2  0  0  0  0  0  0
  161.1590  214.1890  145.1550 O   0  0  0  0  0  0  0  0  0  0  0  0
  161.1010  213.7430  142.8130 C   0  0  2  0  0  3  0  0  0  0  0  0
  161.7450  213.4160  144.1470 C   0  0  2  0  0  3  0  0  0  0  0  0
  159.3460  212.5270  144.0710 C   0  0  0  0  0  1  0  0  0  0  0  0
  160.7560  212.4380  143.5050 C   0  0  1  0  0  3  0  0  0  0  0  0
  162.2200  211.9880  141.4710 C   0  0  0  0  0  1  0  0  0  0  0  0
  162.0950  213.4810  141.6970 C   0  0  2  0  0  3  0  0  0  0  0  0
  163.3410  213.9980  142.0460 O   0  0  0  0  0  1  0  0  0  0  0  0
  160.9140  210.3020  152.5540 C   0  0  0  0  0  2  0  0  0  0  0  0
  159.6150  210.3280  153.3660 C   0  0  2  0  0  3  0  0  0  0  0  0
  158.7090  211.4430  152.8730 C   0  0  0  0  0  1  0  0  0  0  0  0
  159.8460  210.4340  154.8790 C   0  0  1  0  0  3  0  0  0  0  0  0
  158.7290  210.9930  155.5040 O   0  0  0  0  0  1  0  0  0  0  0  0
  160.1610  209.0820  155.5110 C   0  0  0  0  0  2  0  0  0  0  0  0
  161.5290  208.8110  155.4400 O   0  0  0  0  0  0  0  0  0  0  0  0
  161.9980  209.0420  156.7310 C   0  0  0  0  0  1  0  0  0  0  0  0
  161.7930  206.8400  151.2620 C   0  0  1  0  0  3  0  0  0  0  0  0
  162.6920  204.7650  152.0590 O   0  0  0  0  0  0  0  0  0  0  0  0
  162.0370  205.8090  152.3180 C   0  0  0  0  0  0  0  0  0  0  0  0
  161.5430  206.0120  153.6000 O   0  0  0  0  0  1  0  0  0  0  0  0
  160.3980  206.7110  150.6550 C   0  0  0  0  0  2  0  0  0  0  0  0
  161.2230  204.3700  149.2950 O   0  0  0  0  0  0  0  0  0  0  0  0
  160.9160  205.3680  148.5860 C   0  0  0  0  0  0  0  0  0  0  0  0
  160.4630  206.5720  149.2070 N   0  0  0  0  0  2  0  0  0  0  0  0
  161.8460  204.1680  145.1260 C   0  0  0  0  0  3  0  0  0  0  0  0
  161.2490  205.1460  144.3260 C   0  0  0  0  0  0  0  0  0  0  0  0
  160.5430  206.1970  144.9190 C   0  0  0  0  0  3  0  0  0  0  0  0
  160.4370  206.2710  146.3100 C   0  0  0  0  0  3  0  0  0  0  0  0
  161.3510  205.0730  142.9780 F   0  0  0  0  0  0  0  0  0  0  0  0
  161.0340  205.2940  147.1190 C   0  0  0  0  0  0  0  0  0  0  0  0
  161.7390  204.2420  146.5160 C   0  0  0  0  0  3  0  0  0  0  0  0
  1  5  1  6  0  0  0
  1  3  1  0  0  0  0
  1  2  1  0  0  0  0
  2 29  1  6  0  0  0
  3  2  1  0  0  0  0
  3 21  1  1  0  0  0
  5  4  1  6  0  0  0
  6  7  1  0  0  0  0
  6  5  1  0  0  0  0
  9  8  2  6  0  0  0
  9  7  1  0  0  0  0
  9 10  1  0  0  0  0
 11  9  1  0  0  0  0
 12 11  1  0  0  0  0
 13 12  1  0  0  0  0
 14 19  1  6  0  0  0
 14 17  1  0  0  0  0
 14 15  1  0  0  0  0
 15 13  1  1  0  0  0
 17 16  1  1  0  0  0
 17 15  1  0  0  0  0
 19 18  1  1  0  0  0
 19 20  1  0  0  0  0
 21 22  1  0  0  0  0
 22 23  1  6  0  0  0
 22 24  1  0  0  0  0
 24 25  1  1  0  0  0
 24 26  1  0  0  0  0
 27 26  1  0  0  0  0
 27 28  1  0  0  0  0
 29 33  1  1  0  0  0
 29 31  1  0  0  0  0
 30 31  2  0  0  0  0
 31 32  1  0  0  0  0
 35 36  1  0  0  0  0
 35 34  2  0  0  0  0
 36 33  1  0  0  0  0
 37 43  1  0  0  0  0
 38 39  1  0  0  0  0
 38 37  2  0  0  0  0
 39 40  2  0  0  0  0
 40 42  1  0  0  0  0
 41 38  1  0  0  0  0
 42 35  1  0  0  0  0
 43 42  2  0  0  0  0
M  END
>  <MODEL>
4

>  <REMARK>
 VINA RESULT:      -5.4      2.367      5.107
  Name = 
  19 active torsions:
  status: ('A' for Active; 'I' for Inactive)
    1  A    between atoms: C_1  and  C_14
    2  A    between atoms: C_1  and  C_18
    3  A    between atoms: C_3  and  C_12
    4  A    between atoms: C_5  and  O_6
    5  A    between atoms: O_6  and  C_22
    6  A    between atoms: O_10  and  C_18
    7  A    between atoms: C_11  and  C_26
    8  A    between atoms: C_11  and  N_34
    9  A    between atoms: C_14  and  C_38
   10  A    between atoms: C_16  and  C_41
   11  A    between atoms: C_19  and  C_26
   12  A    between atoms: C_20  and  C_37
   13  A    between atoms: C_21  and  O_23
   14  A    between atoms: C_21  and  P_36
   15  A    between atoms: C_22  and  C_27
   16  A    between atoms: O_23  and  C_41
   17  A    between atoms: C_25  and  C_38
   18  A    between atoms: C_26  and  C_30
   19  A    between atoms: C_27  and  P_36
                            x       y       z     vdW  Elec       q    Type
                         _______ _______ _______ _____ _____    ______ ____

>  <TORSDO>
F 19

$$$$
=
 OpenBabel11072410083D

 43 45  0  0  1  0  0  0  0  0999 V2000
  162.1300  209.5150  150.5920 C   0  0  2  0  0  3  0  0  0  0  0  0
  162.1460  208.4680  151.7190 C   0  0  1  0  0  3  0  0  0  0  0  0
  160.8880  209.2620  151.4250 C   0  0  1  0  0  3  0  0  0  0  0  0
  163.2440  208.4330  148.6480 C   0  0  0  0  0  1  0  0  0  0  0  0
  161.9240  208.9560  149.1800 C   0  0  2  0  0  3  0  0  0  0  0  0
  161.4440  209.9490  148.3170 O   0  0  0  0  0  0  0  0  0  0  0  0
  162.2730  211.0570  148.5260 C   0  0  0  0  0  2  0  0  0  0  0  0
  160.5210  212.9440  149.4310 O   0  0  0  0  0  1  0  0  0  0  0  0
  161.3710  212.6070  148.2270 P   0  0  1  0  0  0  0  0  0  0  0  0
  162.4620  213.8660  147.9320 O   0  0  0  0  0  0  0  0  0  0  0  0
  160.3110  212.3680  146.7750 C   0  0  0  0  0  2  0  0  0  0  0  0
  159.3610  213.5420  146.6550 C   0  0  0  0  0  2  0  0  0  0  0  0
  159.4860  214.1250  145.3940 O   0  0  0  0  0  0  0  0  0  0  0  0
  161.1380  214.0520  143.6760 C   0  0  2  0  0  3  0  0  0  0  0  0
  160.3390  213.2630  144.6950 C   0  0  2  0  0  3  0  0  0  0  0  0
  158.8240  214.0550  142.7900 C   0  0  0  0  0  1  0  0  0  0  0  0
  159.9930  213.1750  143.2050 C   0  0  1  0  0  3  0  0  0  0  0  0
  163.3870  214.2770  142.6640 C   0  0  0  0  0  1  0  0  0  0  0  0
  162.4580  213.3490  143.4190 C   0  0  2  0  0  3  0  0  0  0  0  0
  162.2390  212.2010  142.6600 O   0  0  0  0  0  1  0  0  0  0  0  0
  160.7340  210.3940  152.4290 C   0  0  0  0  0  2  0  0  0  0  0  0
  160.0100  209.9570  153.7060 C   0  0  2  0  0  3  0  0  0  0  0  0
  159.0410  211.0360  154.1570 C   0  0  0  0  0  1  0  0  0  0  0  0
  160.9650  209.5640  154.8420 C   0  0  1  0  0  3  0  0  0  0  0  0
  161.8850  210.5870  155.0800 O   0  0  0  0  0  1  0  0  0  0  0  0
  160.2220  209.2360  156.1330 C   0  0  0  0  0  2  0  0  0  0  0  0
  159.5880  207.9960  156.0360 O   0  0  0  0  0  0  0  0  0  0  0  0
  160.3910  207.1350  156.7820 C   0  0  0  0  0  1  0  0  0  0  0  0
  162.0000  207.0170  151.2380 C   0  0  1  0  0  3  0  0  0  0  0  0
  161.7610  206.3960  153.5420 O   0  0  0  0  0  1  0  0  0  0  0  0
  162.0990  206.0540  152.3780 C   0  0  0  0  0  0  0  0  0  0  0  0
  162.5620  204.7650  152.1470 O   0  0  0  0  0  0  0  0  0  0  0  0
  160.7410  206.7820  150.4050 C   0  0  0  0  0  2  0  0  0  0  0  0
  161.5670  206.2600  147.7480 O   0  0  0  0  0  0  0  0  0  0  0  0
  161.1610  205.2770  148.4270 C   0  0  0  0  0  0  0  0  0  0  0  0
  160.7560  205.4650  149.7840 N   0  0  0  0  0  2  0  0  0  0  0  0
  161.1740  202.5130  145.8510 C   0  0  0  0  0  3  0  0  0  0  0  0
  160.9770  201.3880  146.6550 C   0  0  0  0  0  0  0  0  0  0  0  0
  160.8390  201.5330  148.0380 C   0  0  0  0  0  3  0  0  0  0  0  0
  160.8970  202.8030  148.6170 C   0  0  0  0  0  3  0  0  0  0  0  0
  160.9230  200.1570  146.0940 F   0  0  0  0  0  0  0  0  0  0  0  0
  161.0930  203.9380  147.8170 C   0  0  0  0  0  0  0  0  0  0  0  0
  161.2320  203.7830  146.4300 C   0  0  0  0  0  3  0  0  0  0  0  0
  1  5  1  6  0  0  0
  1  3  1  0  0  0  0
  1  2  1  0  0  0  0
  2 29  1  6  0  0  0
  3  2  1  0  0  0  0
  3 21  1  1  0  0  0
  5  4  1  6  0  0  0
  6  7  1  0  0  0  0
  6  5  1  0  0  0  0
  9 10  2  6  0  0  0
  9  7  1  0  0  0  0
  9  8  1  0  0  0  0
 11  9  1  0  0  0  0
 12 11  1  0  0  0  0
 13 12  1  0  0  0  0
 14 19  1  6  0  0  0
 14 15  1  0  0  0  0
 15 13  1  1  0  0  0
 17 16  1  1  0  0  0
 17 14  1  0  0  0  0
 17 15  1  0  0  0  0
 19 18  1  6  0  0  0
 20 19  1  0  0  0  0
 21 22  1  0  0  0  0
 22 23  1  1  0  0  0
 22 24  1  0  0  0  0
 24 25  1  1  0  0  0
 24 26  1  0  0  0  0
 27 26  1  0  0  0  0
 27 28  1  0  0  0  0
 29 33  1  1  0  0  0
 29 31  1  0  0  0  0
 31 30  1  0  0  0  0
 32 31  2  0  0  0  0
 34 35  2  0  0  0  0
 35 36  1  0  0  0  0
 36 33  1  0  0  0  0
 37 43  2  0  0  0  0
 37 38  1  0  0  0  0
 38 39  2  0  0  0  0
 39 40  1  0  0  0  0
 41 38  1  0  0  0  0
 42 35  1  0  0  0  0
 42 40  2  0  0  0  0
 43 42  1  0  0  0  0
M  END
>  <MODEL>
5

>  <REMARK>
 VINA RESULT:      -5.2      1.694      4.735
  Name = 
  19 active torsions:
  status: ('A' for Active; 'I' for Inactive)
    1  A    between atoms: C_1  and  C_14
    2  A    between atoms: C_1  and  C_18
    3  A    between atoms: C_3  and  C_12
    4  A    between atoms: C_5  and  O_6
    5  A    between atoms: O_6  and  C_22
    6  A    between atoms: O_10  and  C_18
    7  A    between atoms: C_11  and  C_26
    8  A    between atoms: C_11  and  N_34
    9  A    between atoms: C_14  and  C_38
   10  A    between atoms: C_16  and  C_41
   11  A    between atoms: C_19  and  C_26
   12  A    between atoms: C_20  and  C_37
   13  A    between atoms: C_21  and  O_23
   14  A    between atoms: C_21  and  P_36
   15  A    between atoms: C_22  and  C_27
   16  A    between atoms: O_23  and  C_41
   17  A    between atoms: C_25  and  C_38
   18  A    between atoms: C_26  and  C_30
   19  A    between atoms: C_27  and  P_36
                            x       y       z     vdW  Elec       q    Type
                         _______ _______ _______ _____ _____    ______ ____

>  <TORSDO>
F 19

$$$$
=
 OpenBabel11072410083D

 43 45  0  0  1  0  0  0  0  0999 V2000
  161.9010  209.7130  151.4280 C   0  0  2  0  0  3  0  0  0  0  0  0
  161.6990  208.8910  152.7120 C   0  0  1  0  0  3  0  0  0  0  0  0
  160.5350  209.6310  152.0820 C   0  0  1  0  0  3  0  0  0  0  0  0
  163.1370  208.0390  150.0630 C   0  0  0  0  0  1  0  0  0  0  0  0
  161.8950  208.9070  150.1240 C   0  0  2  0  0  3  0  0  0  0  0  0
  161.8770  209.7590  149.0120 O   0  0  0  0  0  0  0  0  0  0  0  0
  161.9400  211.0550  149.5350 C   0  0  0  0  0  2  0  0  0  0  0  0
  161.8410  213.6660  148.7460 O   0  0  0  0  0  1  0  0  0  0  0  0
  162.1160  212.2820  148.2050 P   0  0  1  0  0  0  0  0  0  0  0  0
  163.6830  212.2240  147.5660 O   0  0  0  0  0  0  0  0  0  0  0  0
  160.9150  211.8800  146.9070 C   0  0  0  0  0  2  0  0  0  0  0  0
  160.8150  213.0460  145.9450 C   0  0  0  0  0  2  0  0  0  0  0  0
  161.9450  213.0830  145.1280 O   0  0  0  0  0  0  0  0  0  0  0  0
  162.3030  212.4790  142.8490 C   0  0  2  0  0  3  0  0  0  0  0  0
  161.4340  213.2370  143.8340 C   0  0  2  0  0  3  0  0  0  0  0  0
  163.7050  214.3900  143.5730 C   0  0  0  0  0  1  0  0  0  0  0  0
  162.3950  213.9920  142.9090 C   0  0  1  0  0  3  0  0  0  0  0  0
  162.3000  211.2190  140.7170 C   0  0  0  0  0  1  0  0  0  0  0  0
  161.4640  212.0660  141.6540 C   0  0  2  0  0  3  0  0  0  0  0  0
  161.0220  213.2010  140.9750 O   0  0  0  0  0  1  0  0  0  0  0  0
  160.2730  210.9310  152.8290 C   0  0  0  0  0  2  0  0  0  0  0  0
  158.7800  211.2010  153.0380 C   0  0  2  0  0  3  0  0  0  0  0  0
  158.3850  212.5090  152.3750 C   0  0  0  0  0  1  0  0  0  0  0  0
  158.3590  211.1830  154.5140 C   0  0  1  0  0  3  0  0  0  0  0  0
  159.3690  210.6240  155.3010 O   0  0  0  0  0  1  0  0  0  0  0  0
  158.0200  212.5750  155.0350 C   0  0  0  0  0  2  0  0  0  0  0  0
  156.6360  212.7590  155.0830 O   0  0  0  0  0  0  0  0  0  0  0  0
  156.1710  211.7010  155.8620 C   0  0  0  0  0  1  0  0  0  0  0  0
  161.5710  207.3780  152.4820 C   0  0  1  0  0  3  0  0  0  0  0  0
  160.9290  207.2990  154.7910 O   0  0  0  0  0  1  0  0  0  0  0  0
  161.2500  206.6600  153.7540 C   0  0  0  0  0  0  0  0  0  0  0  0
  161.2970  205.2730  153.7880 O   0  0  0  0  0  0  0  0  0  0  0  0
  160.5920  207.0190  151.3650 C   0  0  0  0  0  2  0  0  0  0  0  0
  160.4460  206.2320  148.6500 O   0  0  0  0  0  0  0  0  0  0  0  0
  160.7010  205.3310  149.4960 C   0  0  0  0  0  0  0  0  0  0  0  0
  160.8180  205.6650  150.8800 N   0  0  0  0  0  2  0  0  0  0  0  0
  160.8110  201.5550  149.5400 C   0  0  0  0  0  3  0  0  0  0  0  0
  161.1740  201.2750  148.2210 C   0  0  0  0  0  0  0  0  0  0  0  0
  161.3830  202.3210  147.3170 C   0  0  0  0  0  3  0  0  0  0  0  0
  161.2310  203.6460  147.7340 C   0  0  0  0  0  3  0  0  0  0  0  0
  161.3190  199.9910  147.8160 F   0  0  0  0  0  0  0  0  0  0  0  0
  160.8680  203.9350  149.0580 C   0  0  0  0  0  0  0  0  0  0  0  0
  160.6590  202.8790  149.9570 C   0  0  0  0  0  3  0  0  0  0  0  0
  1  5  1  6  0  0  0
  1  3  1  0  0  0  0
  1  2  1  0  0  0  0
  2 29  1  6  0  0  0
  3  2  1  0  0  0  0
  3 21  1  1  0  0  0
  5  4  1  6  0  0  0
  6  7  1  0  0  0  0
  6  5  1  0  0  0  0
  9 10  2  6  0  0  0
  9  8  1  0  0  0  0
  9  7  1  0  0  0  0
 11  9  1  0  0  0  0
 12 11  1  0  0  0  0
 13 12  1  0  0  0  0
 14 19  1  6  0  0  0
 14 17  1  0  0  0  0
 14 15  1  0  0  0  0
 15 13  1  1  0  0  0
 17 16  1  1  0  0  0
 17 15  1  0  0  0  0
 19 18  1  6  0  0  0
 20 19  1  0  0  0  0
 21 22  1  0  0  0  0
 22 23  1  1  0  0  0
 22 24  1  0  0  0  0
 24 26  1  0  0  0  0
 24 25  1  1  0  0  0
 26 27  1  0  0  0  0
 27 28  1  0  0  0  0
 29 33  1  6  0  0  0
 29 31  1  0  0  0  0
 31 32  2  0  0  0  0
 31 30  1  0  0  0  0
 34 35  2  0  0  0  0
 35 36  1  0  0  0  0
 36 33  1  0  0  0  0
 37 43  1  0  0  0  0
 38 37  2  0  0  0  0
 39 40  2  0  0  0  0
 39 38  1  0  0  0  0
 40 42  1  0  0  0  0
 41 38  1  0  0  0  0
 42 35  1  0  0  0  0
 42 43  2  0  0  0  0
M  END
>  <MODEL>
6

>  <REMARK>
 VINA RESULT:      -5.2      2.121      5.029
  Name = 
  19 active torsions:
  status: ('A' for Active; 'I' for Inactive)
    1  A    between atoms: C_1  and  C_14
    2  A    between atoms: C_1  and  C_18
    3  A    between atoms: C_3  and  C_12
    4  A    between atoms: C_5  and  O_6
    5  A    between atoms: O_6  and  C_22
    6  A    between atoms: O_10  and  C_18
    7  A    between atoms: C_11  and  C_26
    8  A    between atoms: C_11  and  N_34
    9  A    between atoms: C_14  and  C_38
   10  A    between atoms: C_16  and  C_41
   11  A    between atoms: C_19  and  C_26
   12  A    between atoms: C_20  and  C_37
   13  A    between atoms: C_21  and  O_23
   14  A    between atoms: C_21  and  P_36
   15  A    between atoms: C_22  and  C_27
   16  A    between atoms: O_23  and  C_41
   17  A    between atoms: C_25  and  C_38
   18  A    between atoms: C_26  and  C_30
   19  A    between atoms: C_27  and  P_36
                            x       y       z     vdW  Elec       q    Type
                         _______ _______ _______ _____ _____    ______ ____

>  <TORSDO>
F 19

$$$$
=
 OpenBabel11072410083D

 43 45  0  0  1  0  0  0  0  0999 V2000
  161.0420  210.8480  152.8760 C   0  0  2  0  0  3  0  0  0  0  0  0
  160.5560  210.5370  154.3020 C   0  0  1  0  0  3  0  0  0  0  0  0
  159.6970  210.1850  153.1030 C   0  0  1  0  0  3  0  0  0  0  0  0
  163.0710  210.5600  151.4650 C   0  0  0  0  0  1  0  0  0  0  0  0
  162.0220  209.8310  152.2810 C   0  0  2  0  0  3  0  0  0  0  0  0
  161.3520  208.9190  151.4550 O   0  0  0  0  0  0  0  0  0  0  0  0
  162.3410  208.3520  150.6450 C   0  0  0  0  0  2  0  0  0  0  0  0
  160.4270  207.3370  148.9850 O   0  0  0  0  0  1  0  0  0  0  0  0
  161.7300  208.1030  148.9510 P   0  0  1  0  0  0  0  0  0  0  0  0
  161.4880  209.5980  148.1960 O   0  0  0  0  0  0  0  0  0  0  0  0
  162.9760  207.1550  148.0380 C   0  0  0  0  0  2  0  0  0  0  0  0
  162.3490  205.8730  147.5270 C   0  0  0  0  0  2  0  0  0  0  0  0
  161.7240  206.1080  146.3020 O   0  0  0  0  0  0  0  0  0  0  0  0
  161.8010  203.8720  145.4760 C   0  0  2  0  0  3  0  0  0  0  0  0
  160.9450  204.9660  146.0840 C   0  0  2  0  0  3  0  0  0  0  0  0
  161.5760  205.5600  143.6750 C   0  0  0  0  0  1  0  0  0  0  0  0
  160.8160  204.6190  144.5980 C   0  0  1  0  0  3  0  0  0  0  0  0
  160.0190  202.2240  144.9850 C   0  0  0  0  0  1  0  0  0  0  0  0
  161.2270  202.5190  145.8500 C   0  0  2  0  0  3  0  0  0  0  0  0
  160.8420  202.5250  147.1900 O   0  0  0  0  0  1  0  0  0  0  0  0
  158.6020  211.2260  152.9170 C   0  0  0  0  0  2  0  0  0  0  0  0
  158.2230  211.9240  154.2260 C   0  0  2  0  0  3  0  0  0  0  0  0
  157.1960  211.1010  154.9830 C   0  0  0  0  0  1  0  0  0  0  0  0
  157.7350  213.3660  154.0260 C   0  0  1  0  0  3  0  0  0  0  0  0
  158.1360  214.1690  155.0970 O   0  0  0  0  0  1  0  0  0  0  0  0
  158.2380  213.9700  152.7190 C   0  0  0  0  0  2  0  0  0  0  0  0
  157.2580  213.8860  151.7280 O   0  0  0  0  0  0  0  0  0  0  0  0
  157.9750  213.7790  150.5370 C   0  0  0  0  0  1  0  0  0  0  0  0
  161.1720  209.2750  154.9210 C   0  0  1  0  0  3  0  0  0  0  0  0
  162.1530  208.8950  157.0750 O   0  0  0  0  0  1  0  0  0  0  0  0
  162.0980  209.6160  156.0450 C   0  0  0  0  0  0  0  0  0  0  0  0
  162.9120  210.7360  155.9450 O   0  0  0  0  0  0  0  0  0  0  0  0
  160.1300  208.2390  155.3390 C   0  0  0  0  0  2  0  0  0  0  0  0
  162.3790  206.7600  154.4600 O   0  0  0  0  0  0  0  0  0  0  0  0
  161.2580  206.4450  153.9740 C   0  0  0  0  0  0  0  0  0  0  0  0
  160.0790  207.1310  154.3960 N   0  0  0  0  0  2  0  0  0  0  0  0
  160.4540  203.1490  152.3120 C   0  0  0  0  0  3  0  0  0  0  0  0
  160.9850  203.3470  151.0350 C   0  0  0  0  0  0  0  0  0  0  0  0
  161.6070  204.5590  150.7190 C   0  0  0  0  0  3  0  0  0  0  0  0
  161.6990  205.5690  151.6790 C   0  0  0  0  0  3  0  0  0  0  0  0
  160.8950  202.3690  150.1040 F   0  0  0  0  0  0  0  0  0  0  0  0
  161.1680  205.3770  152.9630 C   0  0  0  0  0  0  0  0  0  0  0  0
  160.5450  204.1590  153.2710 C   0  0  0  0  0  3  0  0  0  0  0  0
  1  5  1  6  0  0  0
  1  3  1  0  0  0  0
  1  2  1  0  0  0  0
  2 29  1  6  0  0  0
  3 21  1  1  0  0  0
  3  2  1  0  0  0  0
  5  4  1  6  0  0  0
  6  5  1  0  0  0  0
  7  6  1  0  0  0  0
  9 10  2  6  0  0  0
  9  8  1  0  0  0  0
  9  7  1  0  0  0  0
 11  9  1  0  0  0  0
 12 11  1  0  0  0  0
 13 12  1  0  0  0  0
 14 19  1  1  0  0  0
 14 15  1  0  0  0  0
 15 13  1  6  0  0  0
 17 16  1  6  0  0  0
 17 14  1  0  0  0  0
 17 15  1  0  0  0  0
 19 18  1  6  0  0  0
 19 20  1  0  0  0  0
 21 22  1  0  0  0  0
 22 23  1  6  0  0  0
 24 22  1  0  0  0  0
 24 25  1  1  0  0  0
 26 24  1  0  0  0  0
 27 26  1  0  0  0  0
 28 27  1  0  0  0  0
 29 33  1  1  0  0  0
 29 31  1  0  0  0  0
 31 30  1  0  0  0  0
 32 31  2  0  0  0  0
 35 36  1  0  0  0  0
 35 34  2  0  0  0  0
 36 33  1  0  0  0  0
 37 43  1  0  0  0  0
 38 37  2  0  0  0  0
 39 38  1  0  0  0  0
 39 40  2  0  0  0  0
 40 42  1  0  0  0  0
 41 38  1  0  0  0  0
 42 43  2  0  0  0  0
 42 35  1  0  0  0  0
M  END
>  <MODEL>
7

>  <REMARK>
 VINA RESULT:      -5.1      3.559      6.803
  Name = 
  19 active torsions:
  status: ('A' for Active; 'I' for Inactive)
    1  A    between atoms: C_1  and  C_14
    2  A    between atoms: C_1  and  C_18
    3  A    between atoms: C_3  and  C_12
    4  A    between atoms: C_5  and  O_6
    5  A    between atoms: O_6  and  C_22
    6  A    between atoms: O_10  and  C_18
    7  A    between atoms: C_11  and  C_26
    8  A    between atoms: C_11  and  N_34
    9  A    between atoms: C_14  and  C_38
   10  A    between atoms: C_16  and  C_41
   11  A    between atoms: C_19  and  C_26
   12  A    between atoms: C_20  and  C_37
   13  A    between atoms: C_21  and  O_23
   14  A    between atoms: C_21  and  P_36
   15  A    between atoms: C_22  and  C_27
   16  A    between atoms: O_23  and  C_41
   17  A    between atoms: C_25  and  C_38
   18  A    between atoms: C_26  and  C_30
   19  A    between atoms: C_27  and  P_36
                            x       y       z     vdW  Elec       q    Type
                         _______ _______ _______ _____ _____    ______ ____

>  <TORSDO>
F 19

$$$$
=
 OpenBabel11072410083D

 43 45  0  0  1  0  0  0  0  0999 V2000
  162.0750  210.7590  150.7730 C   0  0  2  0  0  3  0  0  0  0  0  0
  162.1050  209.5370  151.7070 C   0  0  1  0  0  3  0  0  0  0  0  0
  160.8170  210.3070  151.4900 C   0  0  1  0  0  3  0  0  0  0  0  0
  163.3000  210.6660  148.6090 C   0  0  0  0  0  1  0  0  0  0  0  0
  161.9590  210.4410  149.2790 C   0  0  2  0  0  3  0  0  0  0  0  0
  161.0000  211.2610  148.6690 O   0  0  0  0  0  0  0  0  0  0  0  0
  161.7230  212.2970  148.0670 C   0  0  0  0  0  2  0  0  0  0  0  0
  159.8510  211.9220  146.1180 O   0  0  0  0  0  0  0  0  0  0  0  0
  160.8360  212.9510  146.6220 P   0  0  1  0  0  0  0  0  0  0  0  0
  160.0120  214.3690  147.0400 O   0  0  0  0  0  1  0  0  0  0  0  0
  162.0580  213.3150  145.3320 C   0  0  0  0  0  2  0  0  0  0  0  0
  161.4400  213.0470  143.9740 C   0  0  0  0  0  2  0  0  0  0  0  0
  162.4280  212.6390  143.0780 O   0  0  0  0  0  0  0  0  0  0  0  0
  162.6790  211.6260  140.9330 C   0  0  2  0  0  3  0  0  0  0  0  0
  161.7200  212.2290  141.9420 C   0  0  2  0  0  3  0  0  0  0  0  0
  163.2070  214.0470  140.9250 C   0  0  0  0  0  1  0  0  0  0  0  0
  162.1170  213.0130  140.6880 C   0  0  1  0  0  3  0  0  0  0  0  0
  162.1310  210.9560  138.6130 C   0  0  0  0  0  1  0  0  0  0  0  0
  161.9380  210.6170  140.0770 C   0  0  2  0  0  3  0  0  0  0  0  0
  160.5780  210.6500  140.3800 O   0  0  0  0  0  1  0  0  0  0  0  0
  160.5600  211.2420  152.6620 C   0  0  0  0  0  2  0  0  0  0  0  0
  159.7610  210.5740  153.7860 C   0  0  2  0  0  3  0  0  0  0  0  0
  158.5280  211.3970  154.1140 C   0  0  0  0  0  1  0  0  0  0  0  0
  160.5950  210.3040  155.0460 C   0  0  1  0  0  3  0  0  0  0  0  0
  161.0060  211.5070  155.6250 O   0  0  0  0  0  1  0  0  0  0  0  0
  159.8330  209.4760  156.0760 C   0  0  0  0  0  2  0  0  0  0  0  0
  159.6930  208.1560  155.6420 O   0  0  0  0  0  0  0  0  0  0  0  0
  160.2270  207.3910  156.6760 C   0  0  0  0  0  1  0  0  0  0  0  0
  162.0600  208.1840  150.9810 C   0  0  1  0  0  3  0  0  0  0  0  0
  161.2070  206.9450  152.8490 O   0  0  0  0  0  1  0  0  0  0  0  0
  162.0850  207.0460  151.9510 C   0  0  0  0  0  0  0  0  0  0  0  0
  163.0820  206.0850  151.8530 O   0  0  0  0  0  0  0  0  0  0  0  0
  160.8960  208.0660  149.9980 C   0  0  0  0  0  2  0  0  0  0  0  0
  162.4720  207.1620  147.8270 O   0  0  0  0  0  0  0  0  0  0  0  0
  161.6330  206.3500  148.3060 C   0  0  0  0  0  0  0  0  0  0  0  0
  160.8260  206.7320  149.4210 N   0  0  0  0  0  2  0  0  0  0  0  0
  161.4600  203.5680  145.7550 C   0  0  0  0  0  3  0  0  0  0  0  0
  161.1960  202.4640  146.5690 C   0  0  0  0  0  0  0  0  0  0  0  0
  161.0740  202.6300  147.9520 C   0  0  0  0  0  3  0  0  0  0  0  0
  161.2140  203.8990  148.5190 C   0  0  0  0  0  3  0  0  0  0  0  0
  161.0620  201.2340  146.0200 F   0  0  0  0  0  0  0  0  0  0  0  0
  161.4780  205.0120  147.7080 C   0  0  0  0  0  0  0  0  0  0  0  0
  161.6010  204.8360  146.3220 C   0  0  0  0  0  3  0  0  0  0  0  0
  1  5  1  6  0  0  0
  1  3  1  0  0  0  0
  1  2  1  0  0  0  0
  2 29  1  6  0  0  0
  3  2  1  0  0  0  0
  3 21  1  1  0  0  0
  5  4  1  6  0  0  0
  6  5  1  0  0  0  0
  7  6  1  0  0  0  0
  9  8  2  6  0  0  0
  9 10  1  0  0  0  0
  9  7  1  0  0  0  0
 11  9  1  0  0  0  0
 12 11  1  0  0  0  0
 13 12  1  0  0  0  0
 14 19  1  6  0  0  0
 14 15  1  0  0  0  0
 15 13  1  1  0  0  0
 17 16  1  1  0  0  0
 17 14  1  0  0  0  0
 17 15  1  0  0  0  0
 19 18  1  6  0  0  0
 19 20  1  0  0  0  0
 21 22  1  0  0  0  0
 22 23  1  1  0  0  0
 22 24  1  0  0  0  0
 24 25  1  1  0  0  0
 24 26  1  0  0  0  0
 27 26  1  0  0  0  0
 27 28  1  0  0  0  0
 29 33  1  1  0  0  0
 29 31  1  0  0  0  0
 31 30  1  0  0  0  0
 32 31  2  0  0  0  0
 34 35  2  0  0  0  0
 35 36  1  0  0  0  0
 36 33  1  0  0  0  0
 37 43  2  0  0  0  0
 37 38  1  0  0  0  0
 38 39  2  0  0  0  0
 39 40  1  0  0  0  0
 41 38  1  0  0  0  0
 42 35  1  0  0  0  0
 42 40  2  0  0  0  0
 43 42  1  0  0  0  0
M  END
>  <MODEL>
8

>  <REMARK>
 VINA RESULT:      -4.9      2.096      5.300
  Name = 
  19 active torsions:
  status: ('A' for Active; 'I' for Inactive)
    1  A    between atoms: C_1  and  C_14
    2  A    between atoms: C_1  and  C_18
    3  A    between atoms: C_3  and  C_12
    4  A    between atoms: C_5  and  O_6
    5  A    between atoms: O_6  and  C_22
    6  A    between atoms: O_10  and  C_18
    7  A    between atoms: C_11  and  C_26
    8  A    between atoms: C_11  and  N_34
    9  A    between atoms: C_14  and  C_38
   10  A    between atoms: C_16  and  C_41
   11  A    between atoms: C_19  and  C_26
   12  A    between atoms: C_20  and  C_37
   13  A    between atoms: C_21  and  O_23
   14  A    between atoms: C_21  and  P_36
   15  A    between atoms: C_22  and  C_27
   16  A    between atoms: O_23  and  C_41
   17  A    between atoms: C_25  and  C_38
   18  A    between atoms: C_26  and  C_30
   19  A    between atoms: C_27  and  P_36
                            x       y       z     vdW  Elec       q    Type
                         _______ _______ _______ _____ _____    ______ ____

>  <TORSDO>
F 19

$$$$
=
 OpenBabel11072410083D

 43 45  0  0  1  0  0  0  0  0999 V2000
  162.4700  209.3100  149.9490 C   0  0  2  0  0  3  0  0  0  0  0  0
  162.4970  210.1070  148.6340 C   0  0  1  0  0  3  0  0  0  0  0  0
  161.5540  208.9320  148.8010 C   0  0  1  0  0  3  0  0  0  0  0  0
  162.5740  210.6400  152.0500 C   0  0  0  0  0  1  0  0  0  0  0  0
  161.6460  209.9370  151.0790 C   0  0  2  0  0  3  0  0  0  0  0  0
  160.9210  208.9560  151.7690 O   0  0  0  0  0  0  0  0  0  0  0  0
  160.3240  209.6200  152.8460 C   0  0  0  0  0  2  0  0  0  0  0  0
  159.5630  208.5180  155.2230 O   0  0  0  0  0  1  0  0  0  0  0  0
  160.8010  208.8550  154.4240 P   0  0  1  0  0  0  0  0  0  0  0  0
  161.6930  207.4450  154.1390 O   0  0  0  0  0  0  0  0  0  0  0  0
  161.8190  210.0440  155.3400 C   0  0  0  0  0  2  0  0  0  0  0  0
  160.9120  211.0300  156.0480 C   0  0  0  0  0  2  0  0  0  0  0  0
  160.4550  211.9880  155.1420 O   0  0  0  0  0  0  0  0  0  0  0  0
  158.1140  211.5880  154.9250 C   0  0  2  0  0  3  0  0  0  0  0  0
  159.2030  212.3670  155.6380 C   0  0  2  0  0  3  0  0  0  0  0  0
  158.9910  213.1460  153.2090 C   0  0  0  0  0  1  0  0  0  0  0  0
  158.3320  213.0480  154.5770 C   0  0  1  0  0  3  0  0  0  0  0  0
  155.7020  211.0340  155.0270 C   0  0  0  0  0  1  0  0  0  0  0  0
  156.9100  211.4560  155.8390 C   0  0  2  0  0  3  0  0  0  0  0  0
  156.6470  212.6800  156.4510 O   0  0  0  0  0  1  0  0  0  0  0  0
  162.1210  207.7010  148.1090 C   0  0  0  0  0  2  0  0  0  0  0  0
  161.1150  206.5480  148.0380 C   0  0  2  0  0  3  0  0  0  0  0  0
  161.0400  205.8330  149.3760 C   0  0  0  0  0  1  0  0  0  0  0  0
  161.4040  205.5600  146.9000 C   0  0  1  0  0  3  0  0  0  0  0  0
  162.3020  206.1180  145.9870 O   0  0  0  0  0  1  0  0  0  0  0  0
  161.9570  204.2340  147.4130 C   0  0  0  0  0  2  0  0  0  0  0  0
  161.1320  203.1740  147.0280 O   0  0  0  0  0  0  0  0  0  0  0  0
  161.2060  203.1620  145.6370 C   0  0  0  0  0  1  0  0  0  0  0  0
  161.7270  211.4350  148.6820 C   0  0  1  0  0  3  0  0  0  0  0  0
  163.8100  212.4200  148.0190 O   0  0  0  0  0  0  0  0  0  0  0  0
  162.6310  212.5980  148.4260 C   0  0  0  0  0  0  0  0  0  0  0  0
  162.1620  213.8890  148.6310 O   0  0  0  0  0  1  0  0  0  0  0  0
  160.5040  211.4550  147.7660 C   0  0  0  0  0  2  0  0  0  0  0  0
  158.7300  212.5970  145.8780 O   0  0  0  0  0  0  0  0  0  0  0  0
  159.9130  212.3790  145.4960 C   0  0  0  0  0  0  0  0  0  0  0  0
  160.8670  211.8310  146.4080 N   0  0  0  0  0  2  0  0  0  0  0  0
  162.0360  213.0570  142.4450 C   0  0  0  0  0  3  0  0  0  0  0  0
  161.0580  213.2370  141.4640 C   0  0  0  0  0  0  0  0  0  0  0  0
  159.7040  213.1380  141.8010 C   0  0  0  0  0  3  0  0  0  0  0  0
  159.3310  212.8600  143.1180 C   0  0  0  0  0  3  0  0  0  0  0  0
  161.4200  213.5050  140.1880 F   0  0  0  0  0  0  0  0  0  0  0  0
  160.3070  212.6780  144.1090 C   0  0  0  0  0  0  0  0  0  0  0  0
  161.6620  212.7790  143.7610 C   0  0  0  0  0  3  0  0  0  0  0  0
  1  5  1  1  0  0  0
  2 29  1  1  0  0  0
  2  3  1  0  0  0  0
  2  1  1  0  0  0  0
  3 21  1  6  0  0  0
  3  1  1  0  0  0  0
  5  6  1  0  0  0  0
  5  4  1  1  0  0  0
  6  7  1  0  0  0  0
  7  9  1  0  0  0  0
  9 10  2  6  0  0  0
  9  8  1  0  0  0  0
  9 11  1  0  0  0  0
 11 12  1  0  0  0  0
 13 12  1  0  0  0  0
 14 15  1  0  0  0  0
 14 19  1  1  0  0  0
 15 13  1  6  0  0  0
 17 16  1  6  0  0  0
 17 14  1  0  0  0  0
 17 15  1  0  0  0  0
 19 18  1  6  0  0  0
 19 20  1  0  0  0  0
 22 21  1  0  0  0  0
 22 23  1  1  0  0  0
 24 25  1  6  0  0  0
 24 26  1  0  0  0  0
 24 22  1  0  0  0  0
 27 26  1  0  0  0  0
 28 27  1  0  0  0  0
 29 33  1  6  0  0  0
 30 31  2  0  0  0  0
 31 32  1  0  0  0  0
 31 29  1  0  0  0  0
 35 34  2  0  0  0  0
 35 36  1  0  0  0  0
 36 33  1  0  0  0  0
 37 43  1  0  0  0  0
 38 39  1  0  0  0  0
 38 37  2  0  0  0  0
 39 40  2  0  0  0  0
 40 42  1  0  0  0  0
 41 38  1  0  0  0  0
 42 35  1  0  0  0  0
 43 42  2  0  0  0  0
M  END
>  <MODEL>
9

>  <REMARK>
 VINA RESULT:      -4.7      3.791      8.912
  Name = 
  19 active torsions:
  status: ('A' for Active; 'I' for Inactive)
    1  A    between atoms: C_1  and  C_14
    2  A    between atoms: C_1  and  C_18
    3  A    between atoms: C_3  and  C_12
    4  A    between atoms: C_5  and  O_6
    5  A    between atoms: O_6  and  C_22
    6  A    between atoms: O_10  and  C_18
    7  A    between atoms: C_11  and  C_26
    8  A    between atoms: C_11  and  N_34
    9  A    between atoms: C_14  and  C_38
   10  A    between atoms: C_16  and  C_41
   11  A    between atoms: C_19  and  C_26
   12  A    between atoms: C_20  and  C_37
   13  A    between atoms: C_21  and  O_23
   14  A    between atoms: C_21  and  P_36
   15  A    between atoms: C_22  and  C_27
   16  A    between atoms: O_23  and  C_41
   17  A    between atoms: C_25  and  C_38
   18  A    between atoms: C_26  and  C_30
   19  A    between atoms: C_27  and  P_36
                            x       y       z     vdW  Elec       q    Type
                         _______ _______ _______ _____ _____    ______ ____

>  <TORSDO>
F 19

$$$$
