=
 OpenBabel11072413133D

 34 38  0  0  1  0  0  0  0  0999 V2000
  161.1000  205.1120  151.0420 C   0  0  0  0  0  0  0  0  0  0  0  0
  161.1460  206.3660  151.6480 C   0  0  0  0  0  0  0  0  0  0  0  0
  161.4620  208.7890  151.3650 C   0  0  0  0  0  3  0  0  0  0  0  0
  161.2000  203.5520  149.3370 N   0  0  0  0  0  0  0  0  0  0  0  0
  160.8490  203.8080  151.7300 C   0  0  0  0  0  2  0  0  0  0  0  0
  162.3420  211.1050  148.1920 Cl  0  0  0  0  0  0  0  0  0  0  0  0
  161.4190  207.4930  150.8310 C   0  0  0  0  0  0  0  0  0  0  0  0
  161.6640  207.3160  149.4340 C   0  0  0  0  0  0  0  0  0  0  0  0
  161.9880  209.7200  149.2020 C   0  0  0  0  0  0  0  0  0  0  0  0
  161.9500  208.4440  148.6440 C   0  0  0  0  0  3  0  0  0  0  0  0
  160.7940  203.0060  148.0530 C   0  0  0  0  0  1  0  0  0  0  0  0
  161.6260  206.0260  148.8470 C   0  0  0  0  0  0  0  0  0  0  0  0
  160.9170  202.8860  150.5640 C   0  0  0  0  0  0  0  0  0  0  0  0
  160.7120  201.6460  150.6410 O   0  0  0  0  0  0  0  0  0  0  0  0
  161.7420  209.8940  150.5620 C   0  0  0  0  0  3  0  0  0  0  0  0
  161.3030  204.9340  149.6840 C   0  0  0  0  0  0  0  0  0  0  0  0
  162.9440  204.4450  145.9200 N   0  0  0  0  0  2  0  0  0  0  0  0
  161.9750  205.8870  147.3830 C   0  0  1  0  0  3  0  0  0  0  0  0
  163.1860  205.0890  147.1430 N   0  0  0  0  0  2  0  0  0  0  0  0
  160.1850  206.5670  145.7930 C   0  0  0  0  0  1  0  0  0  0  0  0
  161.5960  204.5780  145.5360 C   0  0  0  0  0  0  0  0  0  0  0  0
  161.1130  204.0240  144.5140 O   0  0  0  0  0  0  0  0  0  0  0  0
  160.8330  205.3890  146.4950 C   0  0  1  0  0  3  0  0  0  0  0  0
  160.9100  206.4410  153.0650 N   0  0  0  0  0  2  0  0  0  0  0  0
  161.5590  207.3370  153.9260 N   0  0  0  0  0  2  0  0  0  0  0  0
  161.0390  207.3620  156.2840 C   0  0  0  0  0  3  0  0  0  0  0  0
  160.5780  207.7670  154.9110 C   0  0  1  0  0  3  0  0  0  0  0  0
  162.1660  209.5120  156.5730 C   0  0  0  0  0  0  0  0  0  0  0  0
  161.3490  211.4040  155.3840 O   0  0  0  0  0  1  0  0  0  0  0  0
  161.7980  208.1630  157.0360 C   0  0  0  0  0  3  0  0  0  0  0  0
  159.9960  209.6690  153.5640 F   0  0  0  0  0  0  0  0  0  0  0  0
  162.9640  210.2020  157.2610 O   0  0  0  0  0  0  0  0  0  0  0  0
  161.6380  210.0430  155.2670 C   0  0  2  0  0  3  0  0  0  0  0  0
  160.3740  209.2890  154.8390 C   0  0  2  0  0  3  0  0  0  0  0  0
  1  2  1  0  0  0  0
  1  5  1  0  0  0  0
  2 24  1  0  0  0  0
  4 16  1  0  0  0  0
  4 13  1  0  0  0  0
  6  9  1  0  0  0  0
  7  3  1  0  0  0  0
  7  2  2  0  0  0  0
  8  7  1  0  0  0  0
  9 15  1  0  0  0  0
 10  9  2  0  0  0  0
 10  8  1  0  0  0  0
 11  4  1  0  0  0  0
 12  8  2  0  0  0  0
 12 16  1  0  0  0  0
 13 14  2  0  0  0  0
 13  5  1  0  0  0  0
 15  3  2  0  0  0  0
 16  1  2  0  0  0  0
 17 19  1  0  0  0  0
 18 12  1  1  0  0  0
 19 18  1  0  0  0  0
 21 17  1  0  0  0  0
 21 23  1  0  0  0  0
 22 21  2  0  0  0  0
 23 20  1  6  0  0  0
 23 18  1  0  0  0  0
 24 25  1  0  0  0  0
 26 30  2  0  0  0  0
 27 25  1  6  0  0  0
 27 26  1  0  0  0  0
 28 30  1  0  0  0  0
 28 32  2  0  0  0  0
 33 29  1  1  0  0  0
 33 28  1  0  0  0  0
 34 31  1  6  0  0  0
 34 27  1  0  0  0  0
 34 33  1  0  0  0  0
M  END
>  <MODEL>
1

>  <REMARK>
 VINA RESULT:      -9.9      0.000      0.000
  Name = 
  4 active torsions:
  status: ('A' for Active; 'I' for Inactive)
    1  A    between atoms: C_2  and  N_17
    2  A    between atoms: C_7  and  N_30
    3  A    between atoms: C_14  and  C_20
    4  A    between atoms: N_17  and  N_30
                            x       y       z     vdW  Elec       q    Type
                         _______ _______ _______ _____ _____    ______ ____

>  <TORSDO>
F 4

$$$$
=
 OpenBabel11072413133D

 34 38  0  0  1  0  0  0  0  0999 V2000
  161.3640  205.5890  151.2550 C   0  0  0  0  0  0  0  0  0  0  0  0
  161.4440  206.8820  151.7710 C   0  0  0  0  0  0  0  0  0  0  0  0
  161.7310  209.2800  151.3050 C   0  0  0  0  0  3  0  0  0  0  0  0
  161.3580  203.9180  149.6560 N   0  0  0  0  0  0  0  0  0  0  0  0
  161.1630  204.3350  152.0450 C   0  0  0  0  0  2  0  0  0  0  0  0
  162.3950  211.3750  147.9320 Cl  0  0  0  0  0  0  0  0  0  0  0  0
  161.6590  207.9510  150.8630 C   0  0  0  0  0  0  0  0  0  0  0  0
  161.8130  207.6790  149.4680 C   0  0  0  0  0  0  0  0  0  0  0  0
  162.1120  210.0620  149.0540 C   0  0  0  0  0  0  0  0  0  0  0  0
  162.0420  208.7510  148.5870 C   0  0  0  0  0  3  0  0  0  0  0  0
  160.8710  203.2860  148.4420 C   0  0  0  0  0  1  0  0  0  0  0  0
  161.7420  206.3530  148.9730 C   0  0  0  0  0  0  0  0  0  0  0  0
  161.1580  203.3360  150.9410 C   0  0  0  0  0  0  0  0  0  0  0  0
  160.9640  202.1050  151.1160 O   0  0  0  0  0  0  0  0  0  0  0  0
  161.9540  210.3280  150.4120 C   0  0  0  0  0  3  0  0  0  0  0  0
  161.4780  205.3200  149.9020 C   0  0  0  0  0  0  0  0  0  0  0  0
  162.9040  204.5930  146.0840 N   0  0  0  0  0  2  0  0  0  0  0  0
  161.9950  206.1150  147.5030 C   0  0  1  0  0  3  0  0  0  0  0  0
  163.2100  205.3300  147.2370 N   0  0  0  0  0  2  0  0  0  0  0  0
  160.0830  206.6330  145.9960 C   0  0  0  0  0  1  0  0  0  0  0  0
  161.5300  204.6650  145.7860 C   0  0  0  0  0  0  0  0  0  0  0  0
  160.9960  204.0260  144.8410 O   0  0  0  0  0  0  0  0  0  0  0  0
  160.8100  205.5250  146.7340 C   0  0  1  0  0  3  0  0  0  0  0  0
  161.3000  207.0530  153.1920 N   0  0  0  0  0  2  0  0  0  0  0  0
  160.4030  207.9480  153.7910 N   0  0  0  0  0  2  0  0  0  0  0  0
  162.0320  209.4490  154.7520 C   0  0  0  0  0  3  0  0  0  0  0  0
  161.0090  208.3860  155.0400 C   0  0  1  0  0  3  0  0  0  0  0  0
  160.3450  211.1940  155.0420 C   0  0  0  0  0  0  0  0  0  0  0  0
  158.4800  210.7620  156.4550 O   0  0  0  0  0  1  0  0  0  0  0  0
  161.7110  210.7460  154.7250 C   0  0  0  0  0  3  0  0  0  0  0  0
  158.9670  207.9570  156.2320 F   0  0  0  0  0  0  0  0  0  0  0  0
  160.0500  212.4120  154.9110 O   0  0  0  0  0  0  0  0  0  0  0  0
  159.2930  210.2040  155.4670 C   0  0  2  0  0  3  0  0  0  0  0  0
  159.9350  208.9180  156.0020 C   0  0  2  0  0  3  0  0  0  0  0  0
  1  2  1  0  0  0  0
  1  5  1  0  0  0  0
  2 24  1  0  0  0  0
  4 16  1  0  0  0  0
  4 13  1  0  0  0  0
  6  9  1  0  0  0  0
  7  3  1  0  0  0  0
  7  2  2  0  0  0  0
  8  7  1  0  0  0  0
  9 15  1  0  0  0  0
 10  9  2  0  0  0  0
 10  8  1  0  0  0  0
 11  4  1  0  0  0  0
 12  8  2  0  0  0  0
 12 16  1  0  0  0  0
 13 14  2  0  0  0  0
 13  5  1  0  0  0  0
 15  3  2  0  0  0  0
 16  1  2  0  0  0  0
 17 19  1  0  0  0  0
 18 12  1  1  0  0  0
 19 18  1  0  0  0  0
 21 17  1  0  0  0  0
 21 23  1  0  0  0  0
 22 21  2  0  0  0  0
 23 20  1  6  0  0  0
 23 18  1  0  0  0  0
 24 25  1  0  0  0  0
 26 27  1  0  0  0  0
 27 25  1  6  0  0  0
 27 34  1  0  0  0  0
 28 33  1  0  0  0  0
 30 26  2  0  0  0  0
 30 28  1  0  0  0  0
 32 28  2  0  0  0  0
 33 34  1  0  0  0  0
 33 29  1  1  0  0  0
 34 31  1  6  0  0  0
M  END
>  <MODEL>
2

>  <REMARK>
 VINA RESULT:      -9.2      1.239      1.562
  Name = 
  4 active torsions:
  status: ('A' for Active; 'I' for Inactive)
    1  A    between atoms: C_2  and  N_17
    2  A    between atoms: C_7  and  N_30
    3  A    between atoms: C_14  and  C_20
    4  A    between atoms: N_17  and  N_30
                            x       y       z     vdW  Elec       q    Type
                         _______ _______ _______ _____ _____    ______ ____

>  <TORSDO>
F 4

$$$$
=
 OpenBabel11072413133D

 34 38  0  0  1  0  0  0  0  0999 V2000
  161.6360  207.4670  151.0040 C   0  0  0  0  0  0  0  0  0  0  0  0
  161.4850  206.5060  152.0030 C   0  0  0  0  0  0  0  0  0  0  0  0
  161.0890  204.1420  152.5550 C   0  0  0  0  0  3  0  0  0  0  0  0
  161.7500  208.3290  148.8600 N   0  0  0  0  0  0  0  0  0  0  0  0
  161.8840  208.9270  151.2150 C   0  0  0  0  0  2  0  0  0  0  0  0
  160.3810  200.8680  150.3220 Cl  0  0  0  0  0  0  0  0  0  0  0  0
  161.2330  205.1670  151.6080 C   0  0  0  0  0  0  0  0  0  0  0  0
  161.1160  204.8440  150.2210 C   0  0  0  0  0  0  0  0  0  0  0  0
  160.7080  202.5160  150.8140 C   0  0  0  0  0  0  0  0  0  0  0  0
  160.8490  203.5140  149.8510 C   0  0  0  0  0  3  0  0  0  0  0  0
  162.2860  208.3840  147.5110 C   0  0  0  0  0  1  0  0  0  0  0  0
  161.2590  205.8450  149.2270 C   0  0  0  0  0  0  0  0  0  0  0  0
  161.9560  209.3800  149.7980 C   0  0  0  0  0  0  0  0  0  0  0  0
  162.2070  210.5660  149.4570 O   0  0  0  0  0  0  0  0  0  0  0  0
  160.8300  202.8280  152.1650 C   0  0  0  0  0  3  0  0  0  0  0  0
  161.5580  207.1580  149.6560 C   0  0  0  0  0  0  0  0  0  0  0  0
  160.5460  206.3780  145.7620 N   0  0  0  0  0  2  0  0  0  0  0  0
  161.0430  205.4640  147.7810 C   0  0  1  0  0  3  0  0  0  0  0  0
  160.0810  206.3320  147.0840 N   0  0  0  0  0  2  0  0  0  0  0  0
  162.7010  203.8640  146.8410 C   0  0  0  0  0  1  0  0  0  0  0  0
  161.8400  205.8330  145.6610 C   0  0  0  0  0  0  0  0  0  0  0  0
  162.5040  205.8280  144.5900 O   0  0  0  0  0  0  0  0  0  0  0  0
  162.3220  205.3280  146.9530 C   0  0  1  0  0  3  0  0  0  0  0  0
  161.5960  206.9320  153.3730 N   0  0  0  0  0  2  0  0  0  0  0  0
  160.5760  207.5820  154.0810 N   0  0  0  0  0  2  0  0  0  0  0  0
  162.0650  209.4050  154.6220 C   0  0  0  0  0  3  0  0  0  0  0  0
  161.2100  208.3000  155.1770 C   0  0  1  0  0  3  0  0  0  0  0  0
  160.1940  210.9710  154.7740 C   0  0  0  0  0  0  0  0  0  0  0  0
  158.5070  210.5860  156.4070 O   0  0  0  0  0  1  0  0  0  0  0  0
  161.5800  210.6310  154.4100 C   0  0  0  0  0  3  0  0  0  0  0  0
  159.3310  207.8590  156.6090 F   0  0  0  0  0  0  0  0  0  0  0  0
  159.7390  212.1050  154.4700 O   0  0  0  0  0  0  0  0  0  0  0  0
  159.3110  209.9580  155.4540 C   0  0  2  0  0  3  0  0  0  0  0  0
  160.1490  208.8680  156.1340 C   0  0  2  0  0  3  0  0  0  0  0  0
  1  5  1  0  0  0  0
  1  2  1  0  0  0  0
  2 24  1  0  0  0  0
  4 16  1  0  0  0  0
  4 13  1  0  0  0  0
  6  9  1  0  0  0  0
  7  2  2  0  0  0  0
  7  3  1  0  0  0  0
  8  7  1  0  0  0  0
  9 15  1  0  0  0  0
 10  8  1  0  0  0  0
 10  9  2  0  0  0  0
 11  4  1  0  0  0  0
 12 16  1  0  0  0  0
 12  8  2  0  0  0  0
 13  5  1  0  0  0  0
 14 13  2  0  0  0  0
 15  3  2  0  0  0  0
 16  1  2  0  0  0  0
 17 19  1  0  0  0  0
 18 12  1  1  0  0  0
 19 18  1  0  0  0  0
 21 17  1  0  0  0  0
 21 23  1  0  0  0  0
 22 21  2  0  0  0  0
 23 20  1  6  0  0  0
 23 18  1  0  0  0  0
 24 25  1  0  0  0  0
 26 27  1  0  0  0  0
 27 25  1  6  0  0  0
 27 34  1  0  0  0  0
 28 33  1  0  0  0  0
 30 26  2  0  0  0  0
 30 28  1  0  0  0  0
 32 28  2  0  0  0  0
 33 34  1  0  0  0  0
 33 29  1  1  0  0  0
 34 31  1  6  0  0  0
M  END
>  <MODEL>
3

>  <REMARK>
 VINA RESULT:      -9.1      2.861      4.330
  Name = 
  4 active torsions:
  status: ('A' for Active; 'I' for Inactive)
    1  A    between atoms: C_2  and  N_17
    2  A    between atoms: C_7  and  N_30
    3  A    between atoms: C_14  and  C_20
    4  A    between atoms: N_17  and  N_30
                            x       y       z     vdW  Elec       q    Type
                         _______ _______ _______ _____ _____    ______ ____

>  <TORSDO>
F 4

$$$$
=
 OpenBabel11072413133D

 34 38  0  0  1  0  0  0  0  0999 V2000
  161.4380  207.2120  150.8600 C   0  0  0  0  0  0  0  0  0  0  0  0
  161.1170  206.0820  151.6110 C   0  0  0  0  0  0  0  0  0  0  0  0
  160.8130  203.6410  151.6470 C   0  0  0  0  0  3  0  0  0  0  0  0
  162.0380  208.4480  148.9990 N   0  0  0  0  0  0  0  0  0  0  0  0
  161.4820  208.6200  151.3610 C   0  0  0  0  0  2  0  0  0  0  0  0
  161.0410  200.7910  148.8120 Cl  0  0  0  0  0  0  0  0  0  0  0  0
  161.1080  204.8250  150.9530 C   0  0  0  0  0  0  0  0  0  0  0  0
  161.3970  204.7500  149.5560 C   0  0  0  0  0  0  0  0  0  0  0  0
  161.0670  202.3370  149.6320 C   0  0  0  0  0  0  0  0  0  0  0  0
  161.3650  203.4970  148.9190 C   0  0  0  0  0  3  0  0  0  0  0  0
  162.9080  208.7690  147.8810 C   0  0  0  0  0  1  0  0  0  0  0  0
  161.7050  205.9190  148.8140 C   0  0  0  0  0  0  0  0  0  0  0  0
  161.8860  209.3230  150.1130 C   0  0  0  0  0  0  0  0  0  0  0  0
  162.1060  210.5610  150.0490 O   0  0  0  0  0  0  0  0  0  0  0  0
  160.7940  202.4070  150.9960 C   0  0  0  0  0  3  0  0  0  0  0  0
  161.7520  207.1460  149.5130 C   0  0  0  0  0  0  0  0  0  0  0  0
  162.6860  204.3370  145.7580 N   0  0  0  0  0  2  0  0  0  0  0  0
  161.9200  205.7940  147.3230 C   0  0  1  0  0  3  0  0  0  0  0  0
  163.0640  204.9410  146.9660 N   0  0  0  0  0  2  0  0  0  0  0  0
  160.0380  206.5950  145.9050 C   0  0  0  0  0  1  0  0  0  0  0  0
  161.3180  204.5440  145.4940 C   0  0  0  0  0  0  0  0  0  0  0  0
  160.7230  204.0370  144.5080 O   0  0  0  0  0  0  0  0  0  0  0  0
  160.6820  205.3710  146.5280 C   0  0  1  0  0  3  0  0  0  0  0  0
  160.8180  206.2600  153.0060 N   0  0  0  0  0  2  0  0  0  0  0  0
  161.4600  207.1880  153.8370 N   0  0  0  0  0  2  0  0  0  0  0  0
  160.8540  207.2160  156.1750 C   0  0  0  0  0  3  0  0  0  0  0  0
  160.4690  207.6620  154.7920 C   0  0  1  0  0  3  0  0  0  0  0  0
  162.0900  209.2940  156.5350 C   0  0  0  0  0  0  0  0  0  0  0  0
  161.4250  211.2440  155.3440 O   0  0  0  0  0  1  0  0  0  0  0  0
  161.6300  207.9630  156.9660 C   0  0  0  0  0  3  0  0  0  0  0  0
  160.0440  209.6100  153.4510 F   0  0  0  0  0  0  0  0  0  0  0  0
  162.8990  209.9300  157.2610 O   0  0  0  0  0  0  0  0  0  0  0  0
  161.6410  209.8700  155.2180 C   0  0  2  0  0  3  0  0  0  0  0  0
  160.3530  209.1930  154.7340 C   0  0  2  0  0  3  0  0  0  0  0  0
  1  5  1  0  0  0  0
  1  2  1  0  0  0  0
  2 24  1  0  0  0  0
  4 16  1  0  0  0  0
  4 13  1  0  0  0  0
  6  9  1  0  0  0  0
  7  2  2  0  0  0  0
  7  3  1  0  0  0  0
  8  7  1  0  0  0  0
  9 15  1  0  0  0  0
 10  8  1  0  0  0  0
 10  9  2  0  0  0  0
 11  4  1  0  0  0  0
 12 16  1  0  0  0  0
 12  8  2  0  0  0  0
 13  5  1  0  0  0  0
 14 13  2  0  0  0  0
 15  3  2  0  0  0  0
 16  1  2  0  0  0  0
 17 19  1  0  0  0  0
 18 12  1  1  0  0  0
 19 18  1  0  0  0  0
 21 17  1  0  0  0  0
 21 23  1  0  0  0  0
 22 21  2  0  0  0  0
 23 20  1  6  0  0  0
 23 18  1  0  0  0  0
 24 25  1  0  0  0  0
 26 30  2  0  0  0  0
 27 25  1  6  0  0  0
 27 26  1  0  0  0  0
 28 30  1  0  0  0  0
 28 32  2  0  0  0  0
 33 29  1  1  0  0  0
 33 28  1  0  0  0  0
 34 31  1  6  0  0  0
 34 27  1  0  0  0  0
 34 33  1  0  0  0  0
M  END
>  <MODEL>
4

>  <REMARK>
 VINA RESULT:      -8.8      2.230      3.866
  Name = 
  4 active torsions:
  status: ('A' for Active; 'I' for Inactive)
    1  A    between atoms: C_2  and  N_17
    2  A    between atoms: C_7  and  N_30
    3  A    between atoms: C_14  and  C_20
    4  A    between atoms: N_17  and  N_30
                            x       y       z     vdW  Elec       q    Type
                         _______ _______ _______ _____ _____    ______ ____

>  <TORSDO>
F 4

$$$$
=
 OpenBabel11072413133D

 34 38  0  0  1  0  0  0  0  0999 V2000
  161.5090  210.0020  151.0960 C   0  0  0  0  0  0  0  0  0  0  0  0
  161.8320  208.7170  151.5290 C   0  0  0  0  0  0  0  0  0  0  0  0
  161.5970  207.0060  153.2800 C   0  0  0  0  0  3  0  0  0  0  0  0
  160.5500  212.1060  151.1590 N   0  0  0  0  0  0  0  0  0  0  0  0
  161.9540  210.6400  149.8180 C   0  0  0  0  0  2  0  0  0  0  0  0
  159.7440  206.9510  156.8540 Cl  0  0  0  0  0  0  0  0  0  0  0  0
  161.3310  208.2910  152.7860 C   0  0  0  0  0  0  0  0  0  0  0  0
  160.5420  209.1830  153.5770 C   0  0  0  0  0  0  0  0  0  0  0  0
  160.3510  207.4660  155.2960 C   0  0  0  0  0  0  0  0  0  0  0  0
  160.0690  208.7480  154.8280 C   0  0  0  0  0  3  0  0  0  0  0  0
  159.4220  213.0150  151.2740 C   0  0  0  0  0  1  0  0  0  0  0  0
  160.2420  210.4910  153.1180 C   0  0  0  0  0  0  0  0  0  0  0  0
  161.2830  211.9630  149.9460 C   0  0  0  0  0  0  0  0  0  0  0  0
  161.3250  212.8550  149.0590 O   0  0  0  0  0  0  0  0  0  0  0  0
  161.1120  206.5930  154.5220 C   0  0  0  0  0  3  0  0  0  0  0  0
  160.7180  210.8620  151.8400 C   0  0  0  0  0  0  0  0  0  0  0  0
  157.4380  211.6690  155.0020 N   0  0  0  0  0  2  0  0  0  0  0  0
  159.4760  211.4200  154.0300 C   0  0  1  0  0  3  0  0  0  0  0  0
  158.0330  211.4580  153.7490 N   0  0  0  0  0  2  0  0  0  0  0  0
  160.7200  212.2080  156.0360 C   0  0  0  0  0  1  0  0  0  0  0  0
  158.3730  211.4990  156.0410 C   0  0  0  0  0  0  0  0  0  0  0  0
  158.0660  211.5610  157.2610 O   0  0  0  0  0  0  0  0  0  0  0  0
  159.7140  211.1950  155.5250 C   0  0  1  0  0  3  0  0  0  0  0  0
  162.6520  207.9010  150.6740 N   0  0  0  0  0  2  0  0  0  0  0  0
  162.3660  206.5690  150.3460 N   0  0  0  0  0  2  0  0  0  0  0  0
  161.2520  207.0260  148.2530 C   0  0  0  0  0  3  0  0  0  0  0  0
  161.0760  206.5630  149.6730 C   0  0  1  0  0  3  0  0  0  0  0  0
  161.5710  204.7200  147.5080 C   0  0  0  0  0  0  0  0  0  0  0  0
  160.5770  202.9610  148.7650 O   0  0  0  0  0  1  0  0  0  0  0  0
  161.5100  206.1710  147.2600 C   0  0  0  0  0  3  0  0  0  0  0  0
  160.3360  204.7090  151.0100 F   0  0  0  0  0  0  0  0  0  0  0  0
  161.9140  203.9500  146.5720 O   0  0  0  0  0  0  0  0  0  0  0  0
  161.2770  204.1640  148.8760 C   0  0  2  0  0  3  0  0  0  0  0  0
  160.4560  205.1570  149.7070 C   0  0  2  0  0  3  0  0  0  0  0  0
  1  2  2  0  0  0  0
  1 16  1  0  0  0  0
  2  7  1  0  0  0  0
  3 15  1  0  0  0  0
  4 11  1  0  0  0  0
  4 16  1  0  0  0  0
  5 13  1  0  0  0  0
  5  1  1  0  0  0  0
  7  3  2  0  0  0  0
  7  8  1  0  0  0  0
  8 10  2  0  0  0  0
  9  6  1  0  0  0  0
 10  9  1  0  0  0  0
 12  8  1  0  0  0  0
 13  4  1  0  0  0  0
 14 13  2  0  0  0  0
 15  9  2  0  0  0  0
 16 12  2  0  0  0  0
 17 21  1  0  0  0  0
 18 12  1  6  0  0  0
 18 23  1  0  0  0  0
 19 18  1  0  0  0  0
 19 17  1  0  0  0  0
 21 22  2  0  0  0  0
 23 20  1  1  0  0  0
 23 21  1  0  0  0  0
 24  2  1  0  0  0  0
 25 24  1  0  0  0  0
 26 27  1  0  0  0  0
 27 34  1  0  0  0  0
 27 25  1  6  0  0  0
 28 33  1  0  0  0  0
 30 28  1  0  0  0  0
 30 26  2  0  0  0  0
 32 28  2  0  0  0  0
 33 29  1  6  0  0  0
 33 34  1  0  0  0  0
 34 31  1  1  0  0  0
M  END
>  <MODEL>
5

>  <REMARK>
 VINA RESULT:      -8.8      3.379      8.678
  Name = 
  4 active torsions:
  status: ('A' for Active; 'I' for Inactive)
    1  A    between atoms: C_2  and  N_17
    2  A    between atoms: C_7  and  N_30
    3  A    between atoms: C_14  and  C_20
    4  A    between atoms: N_17  and  N_30
                            x       y       z     vdW  Elec       q    Type
                         _______ _______ _______ _____ _____    ______ ____

>  <TORSDO>
F 4

$$$$
=
 OpenBabel11072413133D

 34 38  0  0  1  0  0  0  0  0999 V2000
  160.9030  208.0130  154.0080 C   0  0  0  0  0  0  0  0  0  0  0  0
  161.5090  207.9930  152.7520 C   0  0  0  0  0  0  0  0  0  0  0  0
  162.0380  209.2270  150.6920 C   0  0  0  0  0  3  0  0  0  0  0  0
  159.7250  208.8710  155.8040 N   0  0  0  0  0  0  0  0  0  0  0  0
  160.8520  206.8790  154.9810 C   0  0  0  0  0  2  0  0  0  0  0  0
  161.1570  212.9350  149.3930 Cl  0  0  0  0  0  0  0  0  0  0  0  0
  161.4360  209.1650  151.9570 C   0  0  0  0  0  0  0  0  0  0  0  0
  160.7330  210.3120  152.4420 C   0  0  0  0  0  0  0  0  0  0  0  0
  161.2640  211.4910  150.3760 C   0  0  0  0  0  0  0  0  0  0  0  0
  160.6580  211.4580  151.6310 C   0  0  0  0  0  3  0  0  0  0  0  0
  159.4920  209.8460  156.8560 C   0  0  0  0  0  1  0  0  0  0  0  0
  160.1130  210.2990  153.7170 C   0  0  0  0  0  0  0  0  0  0  0  0
  160.0990  207.5270  156.0900 C   0  0  0  0  0  0  0  0  0  0  0  0
  159.8460  206.9610  157.1850 O   0  0  0  0  0  0  0  0  0  0  0  0
  161.9560  210.3780  149.9070 C   0  0  0  0  0  3  0  0  0  0  0  0
  160.2490  209.1300  154.5000 C   0  0  0  0  0  0  0  0  0  0  0  0
  158.9730  213.6880  153.6110 N   0  0  0  0  0  2  0  0  0  0  0  0
  159.3130  211.5070  154.1450 C   0  0  1  0  0  3  0  0  0  0  0  0
  160.0040  212.7830  153.9030 N   0  0  0  0  0  2  0  0  0  0  0  0
  156.9110  211.0740  154.6360 C   0  0  0  0  0  1  0  0  0  0  0  0
  157.7540  213.0170  153.3980 C   0  0  0  0  0  0  0  0  0  0  0  0
  156.6970  213.6040  153.0480 O   0  0  0  0  0  0  0  0  0  0  0  0
  157.8900  211.5660  153.5860 C   0  0  1  0  0  3  0  0  0  0  0  0
  162.1730  206.7840  152.3420 N   0  0  0  0  0  2  0  0  0  0  0  0
  162.1960  206.3070  151.0240 N   0  0  0  0  0  2  0  0  0  0  0  0
  160.6200  206.2850  149.1950 C   0  0  0  0  0  3  0  0  0  0  0  0
  160.8210  206.0020  150.6570 C   0  0  1  0  0  3  0  0  0  0  0  0
  161.2060  203.9780  148.6360 C   0  0  0  0  0  0  0  0  0  0  0  0
  160.8300  202.2750  150.2550 O   0  0  0  0  0  1  0  0  0  0  0  0
  160.8280  205.3520  148.2620 C   0  0  0  0  0  3  0  0  0  0  0  0
  160.7240  204.2580  152.3080 F   0  0  0  0  0  0  0  0  0  0  0  0
  161.4920  203.1500  147.7310 O   0  0  0  0  0  0  0  0  0  0  0  0
  161.3020  203.5780  150.0840 C   0  0  2  0  0  3  0  0  0  0  0  0
  160.4940  204.5330  150.9720 C   0  0  2  0  0  3  0  0  0  0  0  0
  1 16  1  0  0  0  0
  1  5  1  0  0  0  0
  2  1  2  0  0  0  0
  3  7  1  0  0  0  0
  4 13  1  0  0  0  0
  4 11  1  0  0  0  0
  5 13  1  0  0  0  0
  6  9  1  0  0  0  0
  7  8  2  0  0  0  0
  7  2  1  0  0  0  0
  8 12  1  0  0  0  0
  9 10  2  0  0  0  0
 10  8  1  0  0  0  0
 12 16  2  0  0  0  0
 13 14  2  0  0  0  0
 15  9  1  0  0  0  0
 15  3  2  0  0  0  0
 16  4  1  0  0  0  0
 17 19  1  0  0  0  0
 18 12  1  6  0  0  0
 19 18  1  0  0  0  0
 21 23  1  0  0  0  0
 21 17  1  0  0  0  0
 22 21  2  0  0  0  0
 23 18  1  0  0  0  0
 23 20  1  1  0  0  0
 24  2  1  0  0  0  0
 25 24  1  0  0  0  0
 26 27  1  0  0  0  0
 27 34  1  0  0  0  0
 27 25  1  6  0  0  0
 28 33  1  0  0  0  0
 30 28  1  0  0  0  0
 30 26  2  0  0  0  0
 32 28  2  0  0  0  0
 33 29  1  6  0  0  0
 33 34  1  0  0  0  0
 34 31  1  1  0  0  0
M  END
>  <MODEL>
6

>  <REMARK>
 VINA RESULT:      -8.7      2.914      7.783
  Name = 
  4 active torsions:
  status: ('A' for Active; 'I' for Inactive)
    1  A    between atoms: C_2  and  N_17
    2  A    between atoms: C_7  and  N_30
    3  A    between atoms: C_14  and  C_20
    4  A    between atoms: N_17  and  N_30
                            x       y       z     vdW  Elec       q    Type
                         _______ _______ _______ _____ _____    ______ ____

>  <TORSDO>
F 4

$$$$
=
 OpenBabel11072413133D

 34 38  0  0  1  0  0  0  0  0999 V2000
  161.8800  209.3310  150.3280 C   0  0  0  0  0  0  0  0  0  0  0  0
  162.0390  208.0140  150.7560 C   0  0  0  0  0  0  0  0  0  0  0  0
  161.6590  206.3580  152.5350 C   0  0  0  0  0  3  0  0  0  0  0  0
  161.2390  211.5520  150.4230 N   0  0  0  0  0  0  0  0  0  0  0  0
  162.3400  209.8950  149.0210 C   0  0  0  0  0  2  0  0  0  0  0  0
  160.0230  206.5780  156.2070 Cl  0  0  0  0  0  0  0  0  0  0  0  0
  161.5530  207.6670  152.0430 C   0  0  0  0  0  0  0  0  0  0  0  0
  160.9470  208.6650  152.8680 C   0  0  0  0  0  0  0  0  0  0  0  0
  160.6080  206.9970  154.6120 C   0  0  0  0  0  0  0  0  0  0  0  0
  160.4880  208.3050  154.1470 C   0  0  0  0  0  3  0  0  0  0  0  0
  160.2620  212.6140  150.5910 C   0  0  0  0  0  1  0  0  0  0  0  0
  160.8130  210.0010  152.4120 C   0  0  0  0  0  0  0  0  0  0  0  0
  161.8740  211.3010  149.1730 C   0  0  0  0  0  0  0  0  0  0  0  0
  161.9940  212.1760  148.2760 O   0  0  0  0  0  0  0  0  0  0  0  0
  161.1910  206.0220  153.8050 C   0  0  0  0  0  3  0  0  0  0  0  0
  161.2640  210.2970  151.1060 C   0  0  0  0  0  0  0  0  0  0  0  0
  158.2830  211.6690  154.3140 N   0  0  0  0  0  2  0  0  0  0  0  0
  160.2420  211.0330  153.3570 C   0  0  1  0  0  3  0  0  0  0  0  0
  158.8460  211.3890  153.0600 N   0  0  0  0  0  2  0  0  0  0  0  0
  161.5810  211.4540  155.4120 C   0  0  0  0  0  1  0  0  0  0  0  0
  159.1370  211.2610  155.3560 C   0  0  0  0  0  0  0  0  0  0  0  0
  158.8240  211.3360  156.5730 O   0  0  0  0  0  0  0  0  0  0  0  0
  160.3940  210.7000  154.8420 C   0  0  1  0  0  3  0  0  0  0  0  0
  162.6820  207.0860  149.8650 N   0  0  0  0  0  2  0  0  0  0  0  0
  162.3750  206.9610  148.5020 N   0  0  0  0  0  2  0  0  0  0  0  0
  160.4640  206.6940  147.0500 C   0  0  0  0  0  3  0  0  0  0  0  0
  161.0240  206.4240  148.4190 C   0  0  1  0  0  3  0  0  0  0  0  0
  161.2930  204.5390  146.2510 C   0  0  0  0  0  0  0  0  0  0  0  0
  161.5710  202.7660  147.8140 O   0  0  0  0  0  1  0  0  0  0  0  0
  160.6180  205.8300  146.0430 C   0  0  0  0  0  3  0  0  0  0  0  0
  161.5840  204.6600  149.9520 F   0  0  0  0  0  0  0  0  0  0  0  0
  161.5100  203.7910  145.2610 O   0  0  0  0  0  0  0  0  0  0  0  0
  161.7690  204.1350  147.6210 C   0  0  2  0  0  3  0  0  0  0  0  0
  161.0250  204.9150  148.7120 C   0  0  2  0  0  3  0  0  0  0  0  0
  1  2  2  0  0  0  0
  1 16  1  0  0  0  0
  2  7  1  0  0  0  0
  3 15  1  0  0  0  0
  4 11  1  0  0  0  0
  4 16  1  0  0  0  0
  5 13  1  0  0  0  0
  5  1  1  0  0  0  0
  7  3  2  0  0  0  0
  7  8  1  0  0  0  0
  8 10  2  0  0  0  0
  9  6  1  0  0  0  0
 10  9  1  0  0  0  0
 12  8  1  0  0  0  0
 13  4  1  0  0  0  0
 14 13  2  0  0  0  0
 15  9  2  0  0  0  0
 16 12  2  0  0  0  0
 17 21  1  0  0  0  0
 18 12  1  6  0  0  0
 18 23  1  0  0  0  0
 19 18  1  0  0  0  0
 19 17  1  0  0  0  0
 21 22  2  0  0  0  0
 23 21  1  0  0  0  0
 23 20  1  1  0  0  0
 24  2  1  0  0  0  0
 25 24  1  0  0  0  0
 26 27  1  0  0  0  0
 27 25  1  6  0  0  0
 27 34  1  0  0  0  0
 28 33  1  0  0  0  0
 30 28  1  0  0  0  0
 30 26  2  0  0  0  0
 32 28  2  0  0  0  0
 33 29  1  1  0  0  0
 33 34  1  0  0  0  0
 34 31  1  1  0  0  0
M  END
>  <MODEL>
7

>  <REMARK>
 VINA RESULT:      -8.3      3.222      8.593
  Name = 
  4 active torsions:
  status: ('A' for Active; 'I' for Inactive)
    1  A    between atoms: C_2  and  N_17
    2  A    between atoms: C_7  and  N_30
    3  A    between atoms: C_14  and  C_20
    4  A    between atoms: N_17  and  N_30
                            x       y       z     vdW  Elec       q    Type
                         _______ _______ _______ _____ _____    ______ ____

>  <TORSDO>
F 4

$$$$
=
 OpenBabel11072413133D

 34 38  0  0  1  0  0  0  0  0999 V2000
  161.5020  207.5040  150.9610 C   0  0  0  0  0  0  0  0  0  0  0  0
  161.1720  206.3960  151.7410 C   0  0  0  0  0  0  0  0  0  0  0  0
  160.7940  203.9670  151.8270 C   0  0  0  0  0  3  0  0  0  0  0  0
  162.0750  208.6920  149.0610 N   0  0  0  0  0  0  0  0  0  0  0  0
  161.6080  208.9180  151.4370 C   0  0  0  0  0  2  0  0  0  0  0  0
  160.8310  201.0680  149.0340 Cl  0  0  0  0  0  0  0  0  0  0  0  0
  161.1010  205.1300  151.1050 C   0  0  0  0  0  0  0  0  0  0  0  0
  161.3370  205.0250  149.6990 C   0  0  0  0  0  0  0  0  0  0  0  0
  160.9350  202.6250  149.8260 C   0  0  0  0  0  0  0  0  0  0  0  0
  161.2440  203.7640  149.0850 C   0  0  0  0  0  3  0  0  0  0  0  0
  162.9140  208.9680  147.9080 C   0  0  0  0  0  1  0  0  0  0  0  0
  161.6560  206.1720  148.9280 C   0  0  0  0  0  0  0  0  0  0  0  0
  161.9890  209.5880  150.1640 C   0  0  0  0  0  0  0  0  0  0  0  0
  162.2460  210.8170  150.0720 O   0  0  0  0  0  0  0  0  0  0  0  0
  160.7130  202.7250  151.1970 C   0  0  0  0  0  3  0  0  0  0  0  0
  161.7660  207.4080  149.6050 C   0  0  0  0  0  0  0  0  0  0  0  0
  162.6880  204.6120  145.8790 N   0  0  0  0  0  2  0  0  0  0  0  0
  161.8140  206.0170  147.4330 C   0  0  1  0  0  3  0  0  0  0  0  0
  163.0410  205.3070  147.0440 N   0  0  0  0  0  2  0  0  0  0  0  0
  159.7770  206.5130  146.0900 C   0  0  0  0  0  1  0  0  0  0  0  0
  161.2940  204.6300  145.6800 C   0  0  0  0  0  0  0  0  0  0  0  0
  160.7240  204.0110  144.7430 O   0  0  0  0  0  0  0  0  0  0  0  0
  160.6060  205.4080  146.7180 C   0  0  1  0  0  3  0  0  0  0  0  0
  160.9290  206.6050  153.1430 N   0  0  0  0  0  2  0  0  0  0  0  0
  160.3310  207.7560  153.6760 N   0  0  0  0  0  2  0  0  0  0  0  0
  162.0090  208.9260  154.9580 C   0  0  0  0  0  3  0  0  0  0  0  0
  160.8770  207.9390  155.0120 C   0  0  1  0  0  3  0  0  0  0  0  0
  160.4660  210.7670  155.4130 C   0  0  0  0  0  0  0  0  0  0  0  0
  158.4680  210.3160  156.6240 O   0  0  0  0  0  1  0  0  0  0  0  0
  161.8080  210.2380  155.1150 C   0  0  0  0  0  3  0  0  0  0  0  0
  158.7200  207.5410  155.9940 F   0  0  0  0  0  0  0  0  0  0  0  0
  160.2930  212.0140  155.4570 O   0  0  0  0  0  0  0  0  0  0  0  0
  159.3020  209.8340  155.6130 C   0  0  2  0  0  3  0  0  0  0  0  0
  159.7850  208.4250  155.9780 C   0  0  2  0  0  3  0  0  0  0  0  0
  1  5  1  0  0  0  0
  1  2  1  0  0  0  0
  2 24  1  0  0  0  0
  4 16  1  0  0  0  0
  4 13  1  0  0  0  0
  6  9  1  0  0  0  0
  7  2  2  0  0  0  0
  7  3  1  0  0  0  0
  8  7  1  0  0  0  0
  9 15  1  0  0  0  0
 10  8  1  0  0  0  0
 10  9  2  0  0  0  0
 11  4  1  0  0  0  0
 12 16  1  0  0  0  0
 12  8  2  0  0  0  0
 13  5  1  0  0  0  0
 14 13  2  0  0  0  0
 15  3  2  0  0  0  0
 16  1  2  0  0  0  0
 17 19  1  0  0  0  0
 18 12  1  1  0  0  0
 19 18  1  0  0  0  0
 21 17  1  0  0  0  0
 21 23  1  0  0  0  0
 22 21  2  0  0  0  0
 23 20  1  6  0  0  0
 23 18  1  0  0  0  0
 24 25  1  0  0  0  0
 26 27  1  0  0  0  0
 26 30  2  0  0  0  0
 27 25  1  6  0  0  0
 27 34  1  0  0  0  0
 28 32  2  0  0  0  0
 28 33  1  0  0  0  0
 30 28  1  0  0  0  0
 33 34  1  0  0  0  0
 33 29  1  1  0  0  0
 34 31  1  6  0  0  0
M  END
>  <MODEL>
8

>  <REMARK>
 VINA RESULT:      -8.2      2.444      4.102
  Name = 
  4 active torsions:
  status: ('A' for Active; 'I' for Inactive)
    1  A    between atoms: C_2  and  N_17
    2  A    between atoms: C_7  and  N_30
    3  A    between atoms: C_14  and  C_20
    4  A    between atoms: N_17  and  N_30
                            x       y       z     vdW  Elec       q    Type
                         _______ _______ _______ _____ _____    ______ ____

>  <TORSDO>
F 4

$$$$
=
 OpenBabel11072413133D

 34 38  0  0  1  0  0  0  0  0999 V2000
  160.4310  211.2320  152.0230 C   0  0  0  0  0  0  0  0  0  0  0  0
  160.9260  209.9330  152.1370 C   0  0  0  0  0  0  0  0  0  0  0  0
  161.1350  207.9150  153.5260 C   0  0  0  0  0  3  0  0  0  0  0  0
  159.3320  213.1680  152.6510 N   0  0  0  0  0  0  0  0  0  0  0  0
  160.5960  212.1380  150.8450 C   0  0  0  0  0  2  0  0  0  0  0  0
  159.9400  207.0000  157.2610 Cl  0  0  0  0  0  0  0  0  0  0  0  0
  160.6850  209.2310  153.3450 C   0  0  0  0  0  0  0  0  0  0  0  0
  159.9770  209.8690  154.4110 C   0  0  0  0  0  0  0  0  0  0  0  0
  160.2240  207.8560  155.7610 C   0  0  0  0  0  0  0  0  0  0  0  0
  159.7640  209.1620  155.6080 C   0  0  0  0  0  3  0  0  0  0  0  0
  158.1730  213.9080  153.1180 C   0  0  0  0  0  1  0  0  0  0  0  0
  159.4990  211.1970  154.2730 C   0  0  0  0  0  0  0  0  0  0  0  0
  159.8530  213.3320  151.3350 C   0  0  0  0  0  0  0  0  0  0  0  0
  159.6700  214.3710  150.6480 O   0  0  0  0  0  0  0  0  0  0  0  0
  160.9070  207.2300  154.7210 C   0  0  0  0  0  3  0  0  0  0  0  0
  159.7150  211.8470  153.0360 C   0  0  0  0  0  0  0  0  0  0  0  0
  158.5780  213.8760  156.4580 N   0  0  0  0  0  2  0  0  0  0  0  0
  158.8310  211.8520  155.4590 C   0  0  1  0  0  3  0  0  0  0  0  0
  159.5730  213.0070  155.9850 N   0  0  0  0  0  2  0  0  0  0  0  0
  156.4740  211.1640  155.8680 C   0  0  0  0  0  1  0  0  0  0  0  0
  157.3020  213.4660  156.0270 C   0  0  0  0  0  0  0  0  0  0  0  0
  156.2530  214.1240  156.2580 O   0  0  0  0  0  0  0  0  0  0  0  0
  157.3620  212.2240  155.2460 C   0  0  1  0  0  3  0  0  0  0  0  0
  161.6470  209.3850  151.0190 N   0  0  0  0  0  2  0  0  0  0  0  0
  161.2110  208.2880  150.2620 N   0  0  0  0  0  2  0  0  0  0  0  0
  162.3470  206.3630  151.1760 C   0  0  0  0  0  3  0  0  0  0  0  0
  162.3560  207.4060  150.0940 C   0  0  1  0  0  3  0  0  0  0  0  0
  161.0610  204.8500  149.7510 C   0  0  0  0  0  0  0  0  0  0  0  0
  161.2590  205.0550  147.3890 O   0  0  0  0  0  1  0  0  0  0  0  0
  161.7200  205.1940  151.0230 C   0  0  0  0  0  3  0  0  0  0  0  0
  162.2870  207.7000  147.7100 F   0  0  0  0  0  0  0  0  0  0  0  0
  160.3950  203.7840  149.6710 O   0  0  0  0  0  0  0  0  0  0  0  0
  161.1360  205.7840  148.5730 C   0  0  2  0  0  3  0  0  0  0  0  0
  162.3260  206.7430  148.7070 C   0  0  2  0  0  3  0  0  0  0  0  0
  1  2  2  0  0  0  0
  1 16  1  0  0  0  0
  2  7  1  0  0  0  0
  3 15  1  0  0  0  0
  4 16  1  0  0  0  0
  4 11  1  0  0  0  0
  5 13  1  0  0  0  0
  5  1  1  0  0  0  0
  7  3  2  0  0  0  0
  7  8  1  0  0  0  0
  8 10  2  0  0  0  0
  9  6  1  0  0  0  0
 10  9  1  0  0  0  0
 12  8  1  0  0  0  0
 13  4  1  0  0  0  0
 14 13  2  0  0  0  0
 15  9  2  0  0  0  0
 16 12  2  0  0  0  0
 18 12  1  6  0  0  0
 18 19  1  0  0  0  0
 19 17  1  0  0  0  0
 21 22  2  0  0  0  0
 21 17  1  0  0  0  0
 23 18  1  0  0  0  0
 23 20  1  1  0  0  0
 23 21  1  0  0  0  0
 24  2  1  0  0  0  0
 25 24  1  0  0  0  0
 27 25  1  1  0  0  0
 27 26  1  0  0  0  0
 28 30  1  0  0  0  0
 30 26  2  0  0  0  0
 32 28  2  0  0  0  0
 33 29  1  6  0  0  0
 33 34  1  0  0  0  0
 33 28  1  0  0  0  0
 34 31  1  6  0  0  0
 34 27  1  0  0  0  0
M  END
>  <MODEL>
9

>  <REMARK>
 VINA RESULT:      -7.8      4.044      9.152
  Name = 
  4 active torsions:
  status: ('A' for Active; 'I' for Inactive)
    1  A    between atoms: C_2  and  N_17
    2  A    between atoms: C_7  and  N_30
    3  A    between atoms: C_14  and  C_20
    4  A    between atoms: N_17  and  N_30
                            x       y       z     vdW  Elec       q    Type
                         _______ _______ _______ _____ _____    ______ ____

>  <TORSDO>
F 4

$$$$
