=
 OpenBabel11072411033D

 30 33  0  0  1  0  0  0  0  0999 V2000
  160.2140  208.7950  153.0020 C   0  0  0  0  0  2  0  0  0  0  0  0
  162.0730  209.5880  149.2350 C   0  0  0  0  0  2  0  0  0  0  0  0
  161.3210  203.8350  150.3410 C   0  0  2  0  0  3  0  0  0  0  0  0
  161.3390  206.1330  146.5540 N   0  0  0  0  0  2  0  0  0  0  0  0
  160.9060  210.0980  152.7290 C   0  0  1  0  0  3  0  0  0  0  0  0
  161.1560  211.0510  153.8470 C   0  0  0  0  0  2  0  0  0  0  0  0
  161.0100  208.3490  155.3100 C   0  0  0  0  0  0  0  0  0  0  0  0
  160.6750  206.5090  153.7530 N   0  0  0  0  0  2  0  0  0  0  0  0
  160.9460  203.3790  151.7280 C   0  0  0  0  0  0  0  0  0  0  0  0
  162.2660  210.5060  154.7370 C   0  0  0  0  0  2  0  0  0  0  0  0
  161.7140  209.5830  155.8190 C   0  0  2  0  0  3  0  0  0  0  0  0
  162.5520  208.2430  148.7180 C   0  0  0  0  0  2  0  0  0  0  0  0
  161.3780  207.2920  148.5480 C   0  0  2  0  0  3  0  0  0  0  0  0
  161.0790  205.3500  150.1200 C   0  0  2  0  0  3  0  0  0  0  0  0
  161.3800  209.3910  150.4940 N   0  0  0  0  0  0  0  0  0  0  0  0
  160.9060  205.6500  152.6310 C   0  0  0  0  0  0  0  0  0  0  0  0
  161.8080  205.8810  148.8660 C   0  0  1  0  0  3  0  0  0  0  0  0
  160.3070  207.7270  156.0940 O   0  0  0  0  0  0  0  0  0  0  0  0
  161.5250  206.1620  151.3540 C   0  0  0  0  0  2  0  0  0  0  0  0
  162.7420  209.2140  156.6850 O   0  0  0  0  0  1  0  0  0  0  0  0
  161.4420  205.1400  147.6070 C   0  0  0  0  0  2  0  0  0  0  0  0
  161.4710  210.3390  151.5490 C   0  0  0  0  0  3  0  0  0  0  0  0
  160.6890  204.3480  152.7970 C   0  0  0  0  0  3  0  0  0  0  0  0
  160.9090  207.3230  147.1680 N   0  0  0  0  0  2  0  0  0  0  0  0
  160.8790  202.1490  151.9870 O   0  0  0  0  0  0  0  0  0  0  0  0
  161.0960  207.9020  153.8660 C   0  0  1  0  0  3  0  0  0  0  0  0
  160.6090  203.0320  149.3460 N   0  0  0  0  0  2  0  0  0  0  0  0
  162.1760  201.2970  149.2130 O   0  0  0  0  0  0  0  0  0  0  0  0
  161.0810  201.7840  148.8260 C   0  0  0  0  0  0  0  0  0  0  0  0
  160.2670  201.0540  147.8210 C   0  0  0  0  0  1  0  0  0  0  0  0
  2 15  1  0  0  0  0
  3 27  1  6  0  0  0
  3  9  1  0  0  0  0
  4 24  1  0  0  0  0
  4 21  1  0  0  0  0
  5 22  1  1  0  0  0
  5  1  1  0  0  0  0
  5  6  1  0  0  0  0
  6 10  1  0  0  0  0
  7 11  1  0  0  0  0
  7 18  2  0  0  0  0
  8 26  1  0  0  0  0
  9 25  2  0  0  0  0
  9 23  1  0  0  0  0
 10 11  1  0  0  0  0
 11 20  1  1  0  0  0
 12  2  1  0  0  0  0
 13 12  1  6  0  0  0
 13 17  1  0  0  0  0
 14  3  1  0  0  0  0
 14 19  1  1  0  0  0
 15 22  2  0  0  0  0
 16 23  2  0  0  0  0
 16  8  1  0  0  0  0
 17 21  1  6  0  0  0
 17 14  1  0  0  0  0
 19 16  1  0  0  0  0
 24 13  1  0  0  0  0
 26  1  1  6  0  0  0
 26  7  1  0  0  0  0
 29 28  2  0  0  0  0
 29 27  1  0  0  0  0
 30 29  1  0  0  0  0
M  END
>  <MODEL>
1

>  <REMARK>
 VINA RESULT:      -7.8      0.000      0.000
  Name = 
  1 active torsions:
  status: ('A' for Active; 'I' for Inactive)
    1  A    between atoms: C_3  and  N_5
                            x       y       z     vdW  Elec       q    Type
                         _______ _______ _______ _____ _____    ______ ____

>  <TORSDO>
F 1

$$$$
=
 OpenBabel11072411033D

 30 33  0  0  1  0  0  0  0  0999 V2000
  162.8290  207.9740  150.3850 C   0  0  0  0  0  2  0  0  0  0  0  0
  160.8480  205.0300  152.7680 C   0  0  0  0  0  2  0  0  0  0  0  0
  160.8120  203.8140  146.9890 C   0  0  2  0  0  3  0  0  0  0  0  0
  160.8690  201.1880  150.5560 N   0  0  0  0  0  2  0  0  0  0  0  0
  162.3200  208.2930  151.7610 C   0  0  0  0  0  0  0  0  0  0  0  0
  162.2940  209.7070  152.2300 C   0  0  0  0  0  2  0  0  0  0  0  0
  162.1400  210.0290  149.1750 C   0  0  0  0  0  0  0  0  0  0  0  0
  162.0870  207.8700  148.0530 N   0  0  0  0  0  2  0  0  0  0  0  0
  161.2120  204.8750  145.9950 C   0  0  0  0  0  0  0  0  0  0  0  0
  161.1810  210.4570  151.5110 C   0  0  0  0  0  2  0  0  0  0  0  0
  161.6640  211.0420  150.1880 C   0  0  2  0  0  3  0  0  0  0  0  0
  160.1390  204.1120  151.7890 C   0  0  0  0  0  2  0  0  0  0  0  0
  161.1430  203.4590  150.8530 C   0  0  2  0  0  3  0  0  0  0  0  0
  161.2600  204.1460  148.4360 C   0  0  2  0  0  3  0  0  0  0  0  0
  161.5900  206.0310  152.0270 N   0  0  0  0  0  2  0  0  0  0  0  0
  161.6520  206.5460  147.7230 C   0  0  0  0  0  0  0  0  0  0  0  0
  160.5320  203.2780  149.4850 C   0  0  1  0  0  3  0  0  0  0  0  0
  162.7950  210.4330  148.2260 O   0  0  0  0  0  0  0  0  0  0  0  0
  161.0280  205.6370  148.7530 C   0  0  0  0  0  2  0  0  0  0  0  0
  160.6560  211.8270  149.6300 O   0  0  0  0  0  1  0  0  0  0  0  0
  160.6950  201.7990  149.2510 C   0  0  0  0  0  2  0  0  0  0  0  0
  161.7160  207.3660  152.4980 C   0  0  0  0  0  3  0  0  0  0  0  0
  161.6850  206.1880  146.4420 C   0  0  0  0  0  3  0  0  0  0  0  0
  161.5130  202.1440  151.3620 N   0  0  0  0  0  2  0  0  0  0  0  0
  161.1140  204.6470  144.7610 O   0  0  0  0  0  0  0  0  0  0  0  0
  161.8860  208.5450  149.3320 C   0  0  1  0  0  3  0  0  0  0  0  0
  161.3260  202.5130  146.5580 N   0  0  0  0  0  2  0  0  0  0  0  0
  159.3360  201.7300  145.6030 O   0  0  0  0  0  0  0  0  0  0  0  0
  160.5480  201.5230  145.8750 C   0  0  0  0  0  0  0  0  0  0  0  0
  161.1800  200.2390  145.4820 C   0  0  0  0  0  1  0  0  0  0  0  0
  1  5  1  0  0  0  0
  3 27  1  6  0  0  0
  3 14  1  0  0  0  0
  4 24  1  0  0  0  0
  5  6  1  0  0  0  0
  5 22  2  0  0  0  0
  7 26  1  0  0  0  0
  7 11  1  0  0  0  0
  8 26  1  0  0  0  0
  9 23  1  0  0  0  0
  9  3  1  0  0  0  0
 10  6  1  0  0  0  0
 11 20  1  6  0  0  0
 11 10  1  0  0  0  0
 12  2  1  0  0  0  0
 13 24  1  0  0  0  0
 13 12  1  1  0  0  0
 14 19  1  1  0  0  0
 14 17  1  0  0  0  0
 15 22  1  0  0  0  0
 15  2  1  0  0  0  0
 16  8  1  0  0  0  0
 16 19  1  0  0  0  0
 17 21  1  6  0  0  0
 17 13  1  0  0  0  0
 18  7  2  0  0  0  0
 21  4  1  0  0  0  0
 23 16  2  0  0  0  0
 25  9  2  0  0  0  0
 26  1  1  1  0  0  0
 28 29  2  0  0  0  0
 29 27  1  0  0  0  0
 30 29  1  0  0  0  0
M  END
>  <MODEL>
2

>  <REMARK>
 VINA RESULT:      -6.8      2.996      5.033
  Name = 
  1 active torsions:
  status: ('A' for Active; 'I' for Inactive)
    1  A    between atoms: C_3  and  N_5
                            x       y       z     vdW  Elec       q    Type
                         _______ _______ _______ _____ _____    ______ ____

>  <TORSDO>
F 1

$$$$
=
 OpenBabel11072411033D

 30 33  0  0  1  0  0  0  0  0999 V2000
  160.2840  205.5110  148.8170 C   0  0  0  0  0  2  0  0  0  0  0  0
  161.2830  204.5850  152.8690 C   0  0  0  0  0  2  0  0  0  0  0  0
  162.0070  210.2830  151.4940 C   0  0  2  0  0  3  0  0  0  0  0  0
  160.9010  208.2820  155.2880 N   0  0  0  0  0  2  0  0  0  0  0  0
  160.6190  204.1100  149.2410 C   0  0  0  0  0  0  0  0  0  0  0  0
  160.8310  203.0560  148.2100 C   0  0  0  0  0  2  0  0  0  0  0  0
  161.5230  205.6290  146.6710 C   0  0  0  0  0  0  0  0  0  0  0  0
  161.3520  207.5930  148.0960 N   0  0  0  0  0  2  0  0  0  0  0  0
  161.9720  210.7190  150.0510 C   0  0  0  0  0  0  0  0  0  0  0  0
  162.1640  203.2950  147.5110 C   0  0  0  0  0  2  0  0  0  0  0  0
  162.0120  204.2430  146.3250 C   0  0  2  0  0  3  0  0  0  0  0  0
  161.9560  205.8280  153.4240 C   0  0  0  0  0  2  0  0  0  0  0  0
  161.0090  207.0150  153.3630 C   0  0  2  0  0  3  0  0  0  0  0  0
  161.4050  208.8710  151.7110 C   0  0  2  0  0  3  0  0  0  0  0  0
  160.8660  204.8430  151.5050 N   0  0  0  0  0  2  0  0  0  0  0  0
  161.5810  208.4540  149.2170 C   0  0  0  0  0  0  0  0  0  0  0  0
  161.7850  208.2800  153.0850 C   0  0  1  0  0  3  0  0  0  0  0  0
  161.1130  206.3340  145.7610 O   0  0  0  0  0  0  0  0  0  0  0  0
  161.8550  207.9060  150.5950 C   0  0  0  0  0  2  0  0  0  0  0  0
  163.2230  204.3280  145.6400 O   0  0  0  0  0  1  0  0  0  0  0  0
  161.3900  209.1610  154.2420 C   0  0  0  0  0  2  0  0  0  0  0  0
  160.9160  203.8310  150.5070 C   0  0  0  0  0  3  0  0  0  0  0  0
  161.6860  209.7600  148.9800 C   0  0  0  0  0  3  0  0  0  0  0  0
  160.3260  207.1730  154.6410 N   0  0  0  0  0  2  0  0  0  0  0  0
  162.2210  211.9150  149.7500 O   0  0  0  0  0  0  0  0  0  0  0  0
  161.4700  206.1380  148.0950 C   0  0  1  0  0  3  0  0  0  0  0  0
  161.3360  211.2810  152.3280 N   0  0  0  0  0  2  0  0  0  0  0  0
  159.1550  210.4910  152.0110 O   0  0  0  0  0  0  0  0  0  0  0  0
  159.9220  211.3330  152.5470 C   0  0  0  0  0  0  0  0  0  0  0  0
  159.3550  212.3920  153.4200 C   0  0  0  0  0  1  0  0  0  0  0  0
  1  5  1  0  0  0  0
  2 12  1  0  0  0  0
  3 14  1  0  0  0  0
  3 27  1  1  0  0  0
  5 22  2  0  0  0  0
  6  5  1  0  0  0  0
  7 26  1  0  0  0  0
  8 16  1  0  0  0  0
  9  3  1  0  0  0  0
 10  6  1  0  0  0  0
 11 20  1  1  0  0  0
 11  7  1  0  0  0  0
 11 10  1  0  0  0  0
 13 12  1  1  0  0  0
 13 24  1  0  0  0  0
 14 19  1  6  0  0  0
 14 17  1  0  0  0  0
 15  2  1  0  0  0  0
 16 19  1  0  0  0  0
 17 13  1  0  0  0  0
 17 21  1  1  0  0  0
 18  7  2  0  0  0  0
 21  4  1  0  0  0  0
 22 15  1  0  0  0  0
 23 16  2  0  0  0  0
 23  9  1  0  0  0  0
 24  4  1  0  0  0  0
 25  9  2  0  0  0  0
 26  8  1  0  0  0  0
 26  1  1  6  0  0  0
 27 29  1  0  0  0  0
 28 29  2  0  0  0  0
 29 30  1  0  0  0  0
M  END
>  <MODEL>
3

>  <REMARK>
 VINA RESULT:      -6.7      2.609      7.986
  Name = 
  1 active torsions:
  status: ('A' for Active; 'I' for Inactive)
    1  A    between atoms: C_3  and  N_5
                            x       y       z     vdW  Elec       q    Type
                         _______ _______ _______ _____ _____    ______ ____

>  <TORSDO>
F 1

$$$$
=
 OpenBabel11072411033D

 30 33  0  0  1  0  0  0  0  0999 V2000
  160.4830  205.1360  148.1120 C   0  0  0  0  0  2  0  0  0  0  0  0
  161.2410  203.6340  152.0410 C   0  0  0  0  0  2  0  0  0  0  0  0
  161.7880  209.4970  151.6010 C   0  0  2  0  0  3  0  0  0  0  0  0
  160.5180  206.8970  154.9540 N   0  0  0  0  0  2  0  0  0  0  0  0
  160.8530  203.6990  148.3430 C   0  0  0  0  0  0  0  0  0  0  0  0
  161.1870  202.8260  147.1830 C   0  0  0  0  0  2  0  0  0  0  0  0
  161.8620  205.6280  146.1080 C   0  0  0  0  0  0  0  0  0  0  0  0
  161.4990  207.3420  147.7960 N   0  0  0  0  0  2  0  0  0  0  0  0
  161.8330  210.1490  150.2420 C   0  0  0  0  0  0  0  0  0  0  0  0
  162.5520  203.2170  146.6320 C   0  0  0  0  0  2  0  0  0  0  0  0
  162.4380  204.3300  145.5950 C   0  0  2  0  0  3  0  0  0  0  0  0
  161.8140  204.8000  152.8270 C   0  0  0  0  0  2  0  0  0  0  0  0
  160.8180  205.9470  152.8740 C   0  0  2  0  0  3  0  0  0  0  0  0
  161.2400  208.0480  151.5560 C   0  0  2  0  0  3  0  0  0  0  0  0
  160.9080  204.0830  150.7030 N   0  0  0  0  0  2  0  0  0  0  0  0
  161.6080  208.0280  149.0480 C   0  0  0  0  0  0  0  0  0  0  0  0
  161.5510  207.2670  152.8500 C   0  0  1  0  0  3  0  0  0  0  0  0
  161.4820  206.4490  145.2860 O   0  0  0  0  0  0  0  0  0  0  0  0
  161.8120  207.2830  150.3450 C   0  0  0  0  0  2  0  0  0  0  0  0
  163.6890  204.5640  145.0240 O   0  0  0  0  0  1  0  0  0  0  0  0
  161.0360  207.9440  154.0930 C   0  0  0  0  0  2  0  0  0  0  0  0
  161.0750  203.2400  149.5710 C   0  0  0  0  0  3  0  0  0  0  0  0
  161.6670  209.3570  149.0200 C   0  0  0  0  0  3  0  0  0  0  0  0
  160.0420  205.8810  154.1060 N   0  0  0  0  0  2  0  0  0  0  0  0
  162.0450  211.3860  150.1450 O   0  0  0  0  0  0  0  0  0  0  0  0
  161.6850  205.9090  147.5840 C   0  0  1  0  0  3  0  0  0  0  0  0
  161.0150  210.3310  152.5230 N   0  0  0  0  0  2  0  0  0  0  0  0
  162.7480  210.7510  154.0400 O   0  0  0  0  0  0  0  0  0  0  0  0
  161.5440  210.9240  153.7140 C   0  0  0  0  0  0  0  0  0  0  0  0
  160.6630  211.7570  154.5710 C   0  0  0  0  0  1  0  0  0  0  0  0
  1  5  1  0  0  0  0
  2 12  1  0  0  0  0
  3 27  1  1  0  0  0
  5 22  2  0  0  0  0
  6  5  1  0  0  0  0
  7 26  1  0  0  0  0
  8 16  1  0  0  0  0
  9  3  1  0  0  0  0
 10  6  1  0  0  0  0
 11 20  1  1  0  0  0
 11  7  1  0  0  0  0
 11 10  1  0  0  0  0
 13 12  1  1  0  0  0
 13 24  1  0  0  0  0
 14 19  1  6  0  0  0
 14  3  1  0  0  0  0
 14 17  1  0  0  0  0
 15  2  1  0  0  0  0
 16 19  1  0  0  0  0
 17 13  1  0  0  0  0
 17 21  1  1  0  0  0
 18  7  2  0  0  0  0
 21  4  1  0  0  0  0
 22 15  1  0  0  0  0
 23 16  2  0  0  0  0
 23  9  1  0  0  0  0
 24  4  1  0  0  0  0
 25  9  2  0  0  0  0
 26  8  1  0  0  0  0
 26  1  1  6  0  0  0
 27 29  1  0  0  0  0
 29 28  2  0  0  0  0
 29 30  1  0  0  0  0
M  END
>  <MODEL>
4

>  <REMARK>
 VINA RESULT:      -5.8      2.449      8.101
  Name = 
  1 active torsions:
  status: ('A' for Active; 'I' for Inactive)
    1  A    between atoms: C_3  and  N_5
                            x       y       z     vdW  Elec       q    Type
                         _______ _______ _______ _____ _____    ______ ____

>  <TORSDO>
F 1

$$$$
=
 OpenBabel11072411033D

 30 33  0  0  1  0  0  0  0  0999 V2000
  162.0970  207.2950  152.3930 C   0  0  0  0  0  2  0  0  0  0  0  0
  160.6710  203.2870  152.8070 C   0  0  0  0  0  2  0  0  0  0  0  0
  160.6870  205.2300  147.2300 C   0  0  2  0  0  3  0  0  0  0  0  0
  161.2510  201.1860  148.9460 N   0  0  0  0  0  2  0  0  0  0  0  0
  161.5780  206.7800  153.7040 C   0  0  1  0  0  3  0  0  0  0  0  0
  161.3380  207.7280  154.8280 C   0  0  0  0  0  2  0  0  0  0  0  0
  161.0590  209.5490  152.3650 C   0  0  0  0  0  0  0  0  0  0  0  0
  161.3240  208.2970  150.2960 N   0  0  0  0  0  2  0  0  0  0  0  0
  160.8880  206.6970  146.9450 C   0  0  0  0  0  0  0  0  0  0  0  0
  160.1020  208.5650  154.5270 C   0  0  0  0  0  2  0  0  0  0  0  0
  160.4530  209.8130  153.7220 C   0  0  2  0  0  3  0  0  0  0  0  0
  160.0930  202.9100  151.4540 C   0  0  0  0  0  2  0  0  0  0  0  0
  161.1660  202.9900  150.3800 C   0  0  2  0  0  3  0  0  0  0  0  0
  161.1120  204.8330  148.6670 C   0  0  2  0  0  3  0  0  0  0  0  0
  161.2250  204.6240  152.7290 N   0  0  0  0  0  0  0  0  0  0  0  0
  161.0980  207.2840  149.3090 C   0  0  0  0  0  0  0  0  0  0  0  0
  160.5580  203.4510  149.0770 C   0  0  1  0  0  3  0  0  0  0  0  0
  161.6180  210.4770  151.7980 O   0  0  0  0  0  0  0  0  0  0  0  0
  160.6530  205.8940  149.6880 C   0  0  0  0  0  2  0  0  0  0  0  0
  159.3190  210.6120  153.5840 O   0  0  0  0  0  1  0  0  0  0  0  0
  160.9490  202.3470  148.1300 C   0  0  0  0  0  2  0  0  0  0  0  0
  161.1480  205.5270  153.8240 C   0  0  0  0  0  3  0  0  0  0  0  0
  161.1560  207.6460  148.0300 C   0  0  0  0  0  3  0  0  0  0  0  0
  161.7530  201.6740  150.1650 N   0  0  0  0  0  2  0  0  0  0  0  0
  160.7970  207.1260  145.7650 O   0  0  0  0  0  0  0  0  0  0  0  0
  161.0500  208.1780  151.7250 C   0  0  1  0  0  3  0  0  0  0  0  0
  161.3910  204.4310  146.2260 N   0  0  0  0  0  2  0  0  0  0  0  0
  163.5270  205.3100  146.6160 O   0  0  0  0  0  0  0  0  0  0  0  0
  162.7970  204.5130  145.9680 C   0  0  0  0  0  0  0  0  0  0  0  0
  163.4020  203.6460  144.9250 C   0  0  0  0  0  1  0  0  0  0  0  0
  3 27  1  6  0  0  0
  3 14  1  0  0  0  0
  4 24  1  0  0  0  0
  5  1  1  6  0  0  0
  5 22  1  0  0  0  0
  5  6  1  0  0  0  0
  7 11  1  0  0  0  0
  8 26  1  0  0  0  0
  9  3  1  0  0  0  0
  9 23  1  0  0  0  0
 10  6  1  0  0  0  0
 11 20  1  6  0  0  0
 11 10  1  0  0  0  0
 12  2  1  0  0  0  0
 13 12  1  1  0  0  0
 14 17  1  0  0  0  0
 14 19  1  1  0  0  0
 15  2  1  0  0  0  0
 15 22  2  0  0  0  0
 16 19  1  0  0  0  0
 16  8  1  0  0  0  0
 17 21  1  6  0  0  0
 17 13  1  0  0  0  0
 18  7  2  0  0  0  0
 21  4  1  0  0  0  0
 23 16  2  0  0  0  0
 24 13  1  0  0  0  0
 25  9  2  0  0  0  0
 26  7  1  0  0  0  0
 26  1  1  1  0  0  0
 29 27  1  0  0  0  0
 29 28  2  0  0  0  0
 30 29  1  0  0  0  0
M  END
>  <MODEL>
5

>  <REMARK>
 VINA RESULT:      -5.5      2.417      4.590
  Name = 
  1 active torsions:
  status: ('A' for Active; 'I' for Inactive)
    1  A    between atoms: C_3  and  N_5
                            x       y       z     vdW  Elec       q    Type
                         _______ _______ _______ _____ _____    ______ ____

>  <TORSDO>
F 1

$$$$
=
 OpenBabel11072411033D

 30 33  0  0  1  0  0  0  0  0999 V2000
  162.0740  203.6130  149.3690 C   0  0  0  0  0  2  0  0  0  0  0  0
  161.4480  207.2660  147.2380 C   0  0  0  0  0  2  0  0  0  0  0  0
  161.0050  207.8370  153.1000 C   0  0  2  0  0  3  0  0  0  0  0  0
  162.3590  210.6490  149.9560 N   0  0  0  0  0  2  0  0  0  0  0  0
  161.6830  203.6180  147.9190 C   0  0  1  0  0  3  0  0  0  0  0  0
  161.2840  202.3440  147.2570 C   0  0  0  0  0  2  0  0  0  0  0  0
  160.6230  201.7830  150.2080 C   0  0  0  0  0  0  0  0  0  0  0  0
  161.0910  203.7160  151.6090 N   0  0  0  0  0  2  0  0  0  0  0  0
  160.9170  206.6090  153.9710 C   0  0  0  0  0  0  0  0  0  0  0  0
  159.9060  201.9270  147.7530 C   0  0  0  0  0  2  0  0  0  0  0  0
  160.0000  201.0860  149.0230 C   0  0  2  0  0  3  0  0  0  0  0  0
  160.9320  208.2600  148.2630 C   0  0  0  0  0  2  0  0  0  0  0  0
  161.9530  208.4540  149.3730 C   0  0  2  0  0  3  0  0  0  0  0  0
  161.5200  207.5260  151.6710 C   0  0  2  0  0  3  0  0  0  0  0  0
  161.7350  206.0090  147.9010 N   0  0  0  0  0  0  0  0  0  0  0  0
  161.0480  205.0690  152.0770 C   0  0  0  0  0  0  0  0  0  0  0  0
  161.2470  208.6840  150.6880 C   0  0  1  0  0  3  0  0  0  0  0  0
  160.9850  201.0940  151.1510 O   0  0  0  0  0  0  0  0  0  0  0  0
  160.8830  206.2310  151.1280 C   0  0  0  0  0  2  0  0  0  0  0  0
  158.7310  200.6190  149.3660 O   0  0  0  0  0  1  0  0  0  0  0  0
  161.8270  209.9990  151.1400 C   0  0  0  0  0  2  0  0  0  0  0  0
  161.5030  204.7600  147.2630 C   0  0  0  0  0  3  0  0  0  0  0  0
  161.0150  205.2660  153.3920 C   0  0  0  0  0  3  0  0  0  0  0  0
  162.7780  209.6220  149.0910 N   0  0  0  0  0  2  0  0  0  0  0  0
  160.7270  206.7300  155.2090 O   0  0  0  0  0  0  0  0  0  0  0  0
  160.8670  203.2760  150.2350 C   0  0  1  0  0  3  0  0  0  0  0  0
  161.8330  208.8500  153.7560 N   0  0  0  0  0  2  0  0  0  0  0  0
  160.0980  209.9290  154.9010 O   0  0  0  0  0  0  0  0  0  0  0  0
  161.3280  209.8590  154.6370 C   0  0  0  0  0  0  0  0  0  0  0  0
  162.2670  210.8330  155.2500 C   0  0  0  0  0  1  0  0  0  0  0  0
  2 15  1  0  0  0  0
  2 12  1  0  0  0  0
  3 27  1  1  0  0  0
  3  9  1  0  0  0  0
  4 21  1  0  0  0  0
  5  6  1  1  0  0  0
  5  1  1  0  0  0  0
  6 10  1  0  0  0  0
  7 26  1  0  0  0  0
  7 18  2  0  0  0  0
  8 16  1  0  0  0  0
  9 25  2  0  0  0  0
 10 11  1  0  0  0  0
 11 20  1  1  0  0  0
 11  7  1  0  0  0  0
 13 12  1  6  0  0  0
 13 17  1  0  0  0  0
 14 19  1  6  0  0  0
 14  3  1  0  0  0  0
 16 23  2  0  0  0  0
 17 21  1  1  0  0  0
 17 14  1  0  0  0  0
 19 16  1  0  0  0  0
 22 15  2  0  0  0  0
 22  5  1  0  0  0  0
 23  9  1  0  0  0  0
 24 13  1  0  0  0  0
 24  4  1  0  0  0  0
 26  1  1  6  0  0  0
 26  8  1  0  0  0  0
 27 29  1  0  0  0  0
 29 28  2  0  0  0  0
 29 30  1  0  0  0  0
M  END
>  <MODEL>
6

>  <REMARK>
 VINA RESULT:      -5.0      1.545      7.030
  Name = 
  1 active torsions:
  status: ('A' for Active; 'I' for Inactive)
    1  A    between atoms: C_3  and  N_5
                            x       y       z     vdW  Elec       q    Type
                         _______ _______ _______ _____ _____    ______ ____

>  <TORSDO>
F 1

$$$$
=
 OpenBabel11072411033D

 30 33  0  0  1  0  0  0  0  0999 V2000
  162.5360  204.1340  147.4680 C   0  0  0  0  0  2  0  0  0  0  0  0
  161.8810  208.3590  147.4270 C   0  0  0  0  0  2  0  0  0  0  0  0
  160.8090  205.8470  152.6630 C   0  0  2  0  0  3  0  0  0  0  0  0
  162.2800  209.8800  151.5720 N   0  0  0  0  0  2  0  0  0  0  0  0
  162.2950  204.8770  146.1860 C   0  0  0  0  0  0  0  0  0  0  0  0
  162.0530  204.1190  144.9260 C   0  0  0  0  0  2  0  0  0  0  0  0
  161.1360  202.1220  147.0790 C   0  0  0  0  0  0  0  0  0  0  0  0
  161.3260  203.0700  149.3120 N   0  0  0  0  0  2  0  0  0  0  0  0
  160.7170  204.3460  152.7730 C   0  0  0  0  0  0  0  0  0  0  0  0
  160.6630  203.4980  144.9710 C   0  0  0  0  0  2  0  0  0  0  0  0
  160.6850  202.1260  145.6390 C   0  0  2  0  0  3  0  0  0  0  0  0
  161.1980  208.6850  148.7430 C   0  0  0  0  0  2  0  0  0  0  0  0
  162.0850  208.2910  149.9120 C   0  0  2  0  0  3  0  0  0  0  0  0
  161.4870  206.3140  151.3500 C   0  0  2  0  0  3  0  0  0  0  0  0
  162.1850  206.9410  147.3900 N   0  0  0  0  0  2  0  0  0  0  0  0
  161.1440  203.9930  150.3920 C   0  0  0  0  0  0  0  0  0  0  0  0
  161.2360  207.8110  151.0640 C   0  0  1  0  0  3  0  0  0  0  0  0
  161.4470  201.0510  147.5790 O   0  0  0  0  0  0  0  0  0  0  0  0
  160.9970  205.4750  150.1520 C   0  0  0  0  0  2  0  0  0  0  0  0
  159.4230  201.5410  145.5400 O   0  0  0  0  0  1  0  0  0  0  0  0
  161.6770  208.7130  152.1880 C   0  0  0  0  0  2  0  0  0  0  0  0
  162.1050  206.1930  146.1840 C   0  0  0  0  0  3  0  0  0  0  0  0
  160.9650  203.4890  151.6100 C   0  0  0  0  0  3  0  0  0  0  0  0
  162.8530  209.4440  150.3640 N   0  0  0  0  0  2  0  0  0  0  0  0
  160.3950  203.8150  153.8680 O   0  0  0  0  0  0  0  0  0  0  0  0
  161.2730  203.3930  147.8900 C   0  0  1  0  0  3  0  0  0  0  0  0
  161.4950  206.3880  153.8370 N   0  0  0  0  0  2  0  0  0  0  0  0
  159.5810  207.1390  154.9590 O   0  0  0  0  0  0  0  0  0  0  0  0
  160.8340  207.0150  154.9420 C   0  0  0  0  0  0  0  0  0  0  0  0
  161.6380  207.5220  156.0840 C   0  0  0  0  0  1  0  0  0  0  0  0
  2 12  1  0  0  0  0
  3  9  1  0  0  0  0
  3 27  1  1  0  0  0
  4 21  1  0  0  0  0
  5  1  1  0  0  0  0
  6 10  1  0  0  0  0
  6  5  1  0  0  0  0
  7 18  2  0  0  0  0
  7 26  1  0  0  0  0
  8 16  1  0  0  0  0
  9 25  2  0  0  0  0
 10 11  1  0  0  0  0
 11 20  1  1  0  0  0
 11  7  1  0  0  0  0
 13 12  1  6  0  0  0
 13 24  1  0  0  0  0
 13 17  1  0  0  0  0
 14 19  1  6  0  0  0
 14  3  1  0  0  0  0
 15  2  1  0  0  0  0
 16 23  2  0  0  0  0
 17 14  1  0  0  0  0
 17 21  1  1  0  0  0
 19 16  1  0  0  0  0
 22  5  2  0  0  0  0
 22 15  1  0  0  0  0
 23  9  1  0  0  0  0
 24  4  1  0  0  0  0
 26  1  1  6  0  0  0
 26  8  1  0  0  0  0
 27 29  1  0  0  0  0
 29 28  2  0  0  0  0
 29 30  1  0  0  0  0
M  END
>  <MODEL>
7

>  <REMARK>
 VINA RESULT:      -4.9      1.778      7.218
  Name = 
  1 active torsions:
  status: ('A' for Active; 'I' for Inactive)
    1  A    between atoms: C_3  and  N_5
                            x       y       z     vdW  Elec       q    Type
                         _______ _______ _______ _____ _____    ______ ____

>  <TORSDO>
F 1

$$$$
