=
 OpenBabel11072412393D

 31 34  0  0  1  0  0  0  0  0999 V2000
  160.5080  203.1060  152.3790 O   0  0  0  0  0  0  0  0  0  0  0  0
  161.3200  206.5340  152.0160 C   0  0  0  0  0  0  0  0  0  0  0  0
  161.5150  207.9270  150.0110 N   0  0  0  0  0  0  0  0  0  0  0  0
  161.8180  209.0050  152.1610 C   0  0  1  0  0  3  0  0  0  0  0  0
  160.8440  204.3150  152.4820 C   0  0  0  0  0  0  0  0  0  0  0  0
  160.5700  209.6480  152.6850 C   0  0  0  0  0  0  0  0  0  0  0  0
  161.7000  207.0600  154.3560 O   0  0  0  0  0  0  0  0  0  0  0  0
  161.9920  209.2400  149.7880 C   0  0  0  0  0  0  0  0  0  0  0  0
  160.0570  209.3730  153.8370 N   0  0  0  0  0  2  0  0  0  0  0  0
  162.2660  204.7820  150.5350 C   0  0  0  0  0  1  0  0  0  0  0  0
  161.4900  207.7340  151.4250 C   0  0  0  0  0  0  0  0  0  0  0  0
  159.5740  211.8000  152.3400 O   0  0  0  0  0  0  0  0  0  0  0  0
  161.4380  211.1280  151.1280 O   0  0  0  0  0  0  0  0  0  0  0  0
  161.0400  205.2310  151.3140 C   0  0  2  0  0  3  0  0  0  0  0  0
  161.3750  206.2480  153.4530 C   0  0  0  0  0  0  0  0  0  0  0  0
  161.0710  204.9250  153.7050 O   0  0  0  0  0  0  0  0  0  0  0  0
  162.2880  209.9870  151.0430 C   0  0  1  0  0  3  0  0  0  0  0  0
  162.1330  209.7300  148.6370 O   0  0  0  0  0  0  0  0  0  0  0  0
  160.4470  210.9370  152.0630 C   0  0  0  0  0  0  0  0  0  0  0  0
  160.7170  207.1940  149.0350 C   0  0  0  0  0  2  0  0  0  0  0  0
  161.5460  206.9110  147.7920 C   0  0  0  0  0  2  0  0  0  0  0  0
  160.7000  206.2200  146.7320 C   0  0  0  0  0  2  0  0  0  0  0  0
  161.5130  205.8740  145.4900 C   0  0  0  0  0  2  0  0  0  0  0  0
  163.4970  204.4720  146.0210 C   0  0  0  0  0  1  0  0  0  0  0  0
  162.0550  204.4510  145.5550 C   0  0  1  0  0  3  0  0  0  0  0  0
  161.2380  203.6300  146.5370 C   0  0  0  0  0  2  0  0  0  0  0  0
  161.0200  202.2270  146.0020 C   0  0  0  0  0  2  0  0  0  0  0  0
  160.9460  201.2530  147.1560 C   0  0  0  0  0  2  0  0  0  0  0  0
  161.1390  201.0290  149.6080 C   0  0  0  0  0  2  0  0  0  0  0  0
  160.9900  202.0120  148.4660 C   0  0  0  0  0  3  0  0  0  0  0  0
  159.7840  201.6300  149.2970 C   0  0  0  0  0  2  0  0  0  0  0  0
  1  5  2  0  0  0  0
  2 15  1  0  0  0  0
  3 11  1  0  0  0  0
  4 11  1  6  0  0  0
  4  6  1  0  0  0  0
  5 16  1  0  0  0  0
  6  9  2  0  0  0  0
  8  3  1  0  0  0  0
 11  2  2  0  0  0  0
 13 19  1  0  0  0  0
 14 10  1  6  0  0  0
 14  2  1  0  0  0  0
 14  5  1  0  0  0  0
 15 16  1  0  0  0  0
 15  7  2  0  0  0  0
 17  8  1  6  0  0  0
 17 13  1  0  0  0  0
 17  4  1  0  0  0  0
 18  8  2  0  0  0  0
 19 12  2  0  0  0  0
 19  6  1  0  0  0  0
 20  3  1  0  0  0  0
 21 20  1  0  0  0  0
 22 21  1  0  0  0  0
 23 25  1  0  0  0  0
 23 22  1  0  0  0  0
 25 24  1  1  0  0  0
 25 26  1  0  0  0  0
 27 26  1  0  0  0  0
 27 28  1  0  0  0  0
 28 30  1  0  0  0  0
 30 31  1  0  0  0  0
 30 29  1  0  0  0  0
 31 29  1  0  0  0  0
M  END
>  <MODEL>
1

>  <REMARK>
 VINA RESULT:      -7.9      0.000      0.000
  Name = 
  9 active torsions:
  status: ('A' for Active; 'I' for Inactive)
    1  A    between atoms: C_1  and  C_14
    2  A    between atoms: C_1  and  C_17
    3  A    between atoms: N_4  and  C_18
    4  A    between atoms: C_5  and  C_9
    5  A    between atoms: C_5  and  C_25
    6  A    between atoms: C_9  and  C_19
    7  A    between atoms: C_14  and  C_18
    8  A    between atoms: C_17  and  C_22
    9  A    between atoms: C_19  and  C_22
                            x       y       z     vdW  Elec       q    Type
                         _______ _______ _______ _____ _____    ______ ____

>  <TORSDO>
F 9

$$$$
=
 OpenBabel11072412393D

 31 34  0  0  1  0  0  0  0  0999 V2000
  162.6250  208.2450  148.4690 O   0  0  0  0  0  0  0  0  0  0  0  0
  161.4630  208.6410  151.7910 C   0  0  0  0  0  0  0  0  0  0  0  0
  161.0630  206.9880  153.5520 N   0  0  0  0  0  0  0  0  0  0  0  0
  160.7250  209.3230  154.1080 C   0  0  1  0  0  3  0  0  0  0  0  0
  162.1740  208.6110  149.5860 C   0  0  0  0  0  0  0  0  0  0  0  0
  161.9190  209.9600  154.7500 C   0  0  0  0  0  0  0  0  0  0  0  0
  161.1100  211.0440  151.7610 O   0  0  0  0  0  0  0  0  0  0  0  0
  160.4490  207.0600  154.8250 C   0  0  0  0  0  0  0  0  0  0  0  0
  162.4960  211.0190  154.2910 N   0  0  0  0  0  2  0  0  0  0  0  0
  160.6480  206.8270  150.3080 C   0  0  0  0  0  1  0  0  0  0  0  0
  161.1540  208.3260  153.0650 C   0  0  0  0  0  0  0  0  0  0  0  0
  162.6830  210.0780  157.0190 O   0  0  0  0  0  0  0  0  0  0  0  0
  160.8560  208.7700  156.4300 O   0  0  0  0  0  0  0  0  0  0  0  0
  161.8480  207.6710  150.7050 C   0  0  2  0  0  3  0  0  0  0  0  0
  161.4850  209.9830  151.1990 C   0  0  0  0  0  0  0  0  0  0  0  0
  161.9280  209.9390  149.8930 O   0  0  0  0  0  0  0  0  0  0  0  0
  160.1220  208.4490  155.2510 C   0  0  1  0  0  3  0  0  0  0  0  0
  160.2210  206.0440  155.5330 O   0  0  0  0  0  0  0  0  0  0  0  0
  161.8920  209.6300  156.1490 C   0  0  0  0  0  0  0  0  0  0  0  0
  161.8960  205.8670  153.1340 C   0  0  0  0  0  2  0  0  0  0  0  0
  161.0230  204.6870  152.7390 C   0  0  0  0  0  2  0  0  0  0  0  0
  161.7170  203.8380  151.6830 C   0  0  0  0  0  2  0  0  0  0  0  0
  160.8540  202.6630  151.2390 C   0  0  0  0  0  2  0  0  0  0  0  0
  159.8780  201.4890  149.2760 C   0  0  0  0  0  1  0  0  0  0  0  0
  160.9950  202.3990  149.7440 C   0  0  1  0  0  3  0  0  0  0  0  0
  160.9120  203.7070  148.9770 C   0  0  0  0  0  2  0  0  0  0  0  0
  161.7220  203.6230  147.6970 C   0  0  0  0  0  2  0  0  0  0  0  0
  161.7850  204.9880  147.0490 C   0  0  0  0  0  2  0  0  0  0  0  0
  161.1380  205.6850  144.7690 C   0  0  0  0  0  2  0  0  0  0  0  0
  162.0990  204.8360  145.5750 C   0  0  0  0  0  3  0  0  0  0  0  0
  160.9180  204.1920  144.8830 C   0  0  0  0  0  2  0  0  0  0  0  0
  1  5  2  0  0  0  0
  2 11  2  0  0  0  0
  3  8  1  0  0  0  0
  4 11  1  6  0  0  0
  4  6  1  0  0  0  0
  4 17  1  0  0  0  0
  5 16  1  0  0  0  0
  5 14  1  0  0  0  0
  6 19  1  0  0  0  0
  8 18  2  0  0  0  0
  9  6  2  0  0  0  0
 11  3  1  0  0  0  0
 14 10  1  6  0  0  0
 14  2  1  0  0  0  0
 15  7  2  0  0  0  0
 15  2  1  0  0  0  0
 16 15  1  0  0  0  0
 17  8  1  6  0  0  0
 17 13  1  0  0  0  0
 19 13  1  0  0  0  0
 19 12  2  0  0  0  0
 20  3  1  0  0  0  0
 21 20  1  0  0  0  0
 22 21  1  0  0  0  0
 23 22  1  0  0  0  0
 25 24  1  6  0  0  0
 25 23  1  0  0  0  0
 26 25  1  0  0  0  0
 27 26  1  0  0  0  0
 28 27  1  0  0  0  0
 29 31  1  0  0  0  0
 29 30  1  0  0  0  0
 30 28  1  0  0  0  0
 31 30  1  0  0  0  0
M  END
>  <MODEL>
2

>  <REMARK>
 VINA RESULT:      -7.3      1.863      4.818
  Name = 
  9 active torsions:
  status: ('A' for Active; 'I' for Inactive)
    1  A    between atoms: C_1  and  C_14
    2  A    between atoms: C_1  and  C_17
    3  A    between atoms: N_4  and  C_18
    4  A    between atoms: C_5  and  C_9
    5  A    between atoms: C_5  and  C_25
    6  A    between atoms: C_9  and  C_19
    7  A    between atoms: C_14  and  C_18
    8  A    between atoms: C_17  and  C_22
    9  A    between atoms: C_19  and  C_22
                            x       y       z     vdW  Elec       q    Type
                         _______ _______ _______ _____ _____    ______ ____

>  <TORSDO>
F 9

$$$$
=
 OpenBabel11072412393D

 31 34  0  0  1  0  0  0  0  0999 V2000
  160.8540  203.4880  152.5020 O   0  0  0  0  0  0  0  0  0  0  0  0
  161.3260  206.9930  152.3190 C   0  0  0  0  0  0  0  0  0  0  0  0
  161.6730  208.4600  150.3900 N   0  0  0  0  0  0  0  0  0  0  0  0
  161.5170  209.4980  152.5750 C   0  0  1  0  0  3  0  0  0  0  0  0
  161.0330  204.7220  152.6740 C   0  0  0  0  0  0  0  0  0  0  0  0
  160.1390  209.9850  152.9040 C   0  0  0  0  0  0  0  0  0  0  0  0
  161.2770  207.4840  154.6970 O   0  0  0  0  0  0  0  0  0  0  0  0
  162.0300  209.8240  150.2630 C   0  0  0  0  0  0  0  0  0  0  0  0
  159.4870  209.6220  153.9560 N   0  0  0  0  0  2  0  0  0  0  0  0
  162.6800  205.4000  150.9820 C   0  0  0  0  0  1  0  0  0  0  0  0
  161.4500  208.2220  151.7790 C   0  0  0  0  0  0  0  0  0  0  0  0
  158.9750  212.0280  152.4360 O   0  0  0  0  0  0  0  0  0  0  0  0
  161.0680  211.5980  151.5240 O   0  0  0  0  0  0  0  0  0  0  0  0
  161.3050  205.6900  151.5640 C   0  0  2  0  0  3  0  0  0  0  0  0
  161.1880  206.6700  153.7430 C   0  0  0  0  0  0  0  0  0  0  0  0
  160.9980  205.3150  153.9250 O   0  0  0  0  0  0  0  0  0  0  0  0
  162.0420  210.5590  151.5590 C   0  0  1  0  0  3  0  0  0  0  0  0
  162.2930  210.3620  149.1560 O   0  0  0  0  0  0  0  0  0  0  0  0
  159.9710  211.2730  152.2880 C   0  0  0  0  0  0  0  0  0  0  0  0
  161.1240  207.6770  149.2890 C   0  0  0  0  0  2  0  0  0  0  0  0
  162.1460  207.5630  148.1690 C   0  0  0  0  0  2  0  0  0  0  0  0
  162.0020  206.2300  147.4490 C   0  0  0  0  0  2  0  0  0  0  0  0
  160.8010  206.2170  146.5100 C   0  0  0  0  0  2  0  0  0  0  0  0
  161.2650  205.5890  144.1490 C   0  0  0  0  0  1  0  0  0  0  0  0
  160.8790  205.0630  145.5180 C   0  0  1  0  0  3  0  0  0  0  0  0
  161.9290  204.0620  145.9690 C   0  0  0  0  0  2  0  0  0  0  0  0
  161.2700  202.7760  146.4320 C   0  0  0  0  0  2  0  0  0  0  0  0
  161.2280  202.7460  147.9430 C   0  0  0  0  0  2  0  0  0  0  0  0
  159.7800  201.4980  149.5070 C   0  0  0  0  0  2  0  0  0  0  0  0
  160.8170  201.3660  148.4120 C   0  0  0  0  0  3  0  0  0  0  0  0
  161.2220  201.1980  149.8610 C   0  0  0  0  0  2  0  0  0  0  0  0
  1  5  2  0  0  0  0
  2 15  1  0  0  0  0
  3 11  1  0  0  0  0
  4 11  1  6  0  0  0
  4  6  1  0  0  0  0
  5 16  1  0  0  0  0
  6  9  2  0  0  0  0
  8  3  1  0  0  0  0
 11  2  2  0  0  0  0
 13 17  1  0  0  0  0
 13 19  1  0  0  0  0
 14 10  1  1  0  0  0
 14  2  1  0  0  0  0
 14  5  1  0  0  0  0
 15 16  1  0  0  0  0
 15  7  2  0  0  0  0
 17  8  1  6  0  0  0
 17  4  1  0  0  0  0
 18  8  2  0  0  0  0
 19 12  2  0  0  0  0
 19  6  1  0  0  0  0
 20  3  1  0  0  0  0
 21 20  1  0  0  0  0
 22 21  1  0  0  0  0
 23 22  1  0  0  0  0
 25 24  1  6  0  0  0
 25 26  1  0  0  0  0
 25 23  1  0  0  0  0
 26 27  1  0  0  0  0
 27 28  1  0  0  0  0
 28 30  1  0  0  0  0
 29 31  1  0  0  0  0
 30 29  1  0  0  0  0
 30 31  1  0  0  0  0
M  END
>  <MODEL>
3

>  <REMARK>
 VINA RESULT:      -7.2      0.742      1.055
  Name = 
  9 active torsions:
  status: ('A' for Active; 'I' for Inactive)
    1  A    between atoms: C_1  and  C_14
    2  A    between atoms: C_1  and  C_17
    3  A    between atoms: N_4  and  C_18
    4  A    between atoms: C_5  and  C_9
    5  A    between atoms: C_5  and  C_25
    6  A    between atoms: C_9  and  C_19
    7  A    between atoms: C_14  and  C_18
    8  A    between atoms: C_17  and  C_22
    9  A    between atoms: C_19  and  C_22
                            x       y       z     vdW  Elec       q    Type
                         _______ _______ _______ _____ _____    ______ ____

>  <TORSDO>
F 9

$$$$
=
 OpenBabel11072412393D

 31 34  0  0  1  0  0  0  0  0999 V2000
  159.7820  206.6920  156.4300 O   0  0  0  0  0  0  0  0  0  0  0  0
  161.0420  208.7470  153.8350 C   0  0  0  0  0  0  0  0  0  0  0  0
  161.4270  208.2720  151.4640 N   0  0  0  0  0  0  0  0  0  0  0  0
  161.8620  210.5260  152.2430 C   0  0  1  0  0  3  0  0  0  0  0  0
  160.2740  207.5770  155.6820 C   0  0  0  0  0  0  0  0  0  0  0  0
  160.7090  211.4590  152.0360 C   0  0  0  0  0  0  0  0  0  0  0  0
  161.4800  210.7460  155.1440 O   0  0  0  0  0  0  0  0  0  0  0  0
  162.0750  208.9840  150.4280 C   0  0  0  0  0  0  0  0  0  0  0  0
  160.1590  212.1340  152.9880 N   0  0  0  0  0  2  0  0  0  0  0  0
  161.7540  206.3870  154.1230 C   0  0  0  0  0  1  0  0  0  0  0  0
  161.3720  209.1460  152.5900 C   0  0  0  0  0  0  0  0  0  0  0  0
  160.0080  212.8020  150.1790 O   0  0  0  0  0  0  0  0  0  0  0  0
  161.7710  211.3020  149.9830 O   0  0  0  0  0  0  0  0  0  0  0  0
  160.5950  207.3650  154.2350 C   0  0  2  0  0  3  0  0  0  0  0  0
  161.0530  209.5660  155.0520 C   0  0  0  0  0  0  0  0  0  0  0  0
  160.5750  208.8520  156.1320 O   0  0  0  0  0  0  0  0  0  0  0  0
  162.4630  210.3710  150.8100 C   0  0  1  0  0  3  0  0  0  0  0  0
  162.2840  208.4940  149.2880 O   0  0  0  0  0  0  0  0  0  0  0  0
  160.7600  211.9250  150.6770 C   0  0  0  0  0  0  0  0  0  0  0  0
  160.5440  207.1380  151.2180 C   0  0  0  0  0  2  0  0  0  0  0  0
  161.3620  205.9080  150.8590 C   0  0  0  0  0  2  0  0  0  0  0  0
  160.5050  204.8970  150.1100 C   0  0  0  0  0  2  0  0  0  0  0  0
  160.7430  203.4740  150.6010 C   0  0  0  0  0  2  0  0  0  0  0  0
  159.8930  201.5880  149.2200 C   0  0  0  0  0  1  0  0  0  0  0  0
  161.0590  202.5300  149.4470 C   0  0  1  0  0  3  0  0  0  0  0  0
  161.2970  203.3260  148.1760 C   0  0  0  0  0  2  0  0  0  0  0  0
  161.1340  202.4390  146.9560 C   0  0  0  0  0  2  0  0  0  0  0  0
  161.3330  203.2610  145.7030 C   0  0  0  0  0  2  0  0  0  0  0  0
  161.0560  205.5360  144.7820 C   0  0  0  0  0  2  0  0  0  0  0  0
  161.2780  204.7350  146.0480 C   0  0  0  0  0  3  0  0  0  0  0  0
  162.4420  205.4390  145.3850 C   0  0  0  0  0  2  0  0  0  0  0  0
  2 14  1  0  0  0  0
  2 15  1  0  0  0  0
  3 11  1  0  0  0  0
  4  6  1  6  0  0  0
  4 11  1  0  0  0  0
  5 16  1  0  0  0  0
  5  1  2  0  0  0  0
  6  9  2  0  0  0  0
  8 17  1  0  0  0  0
  8  3  1  0  0  0  0
 11  2  2  0  0  0  0
 12 19  2  0  0  0  0
 13 19  1  0  0  0  0
 14 10  1  1  0  0  0
 14  5  1  0  0  0  0
 15  7  2  0  0  0  0
 15 16  1  0  0  0  0
 17 13  1  6  0  0  0
 17  4  1  0  0  0  0
 18  8  2  0  0  0  0
 19  6  1  0  0  0  0
 20  3  1  0  0  0  0
 21 20  1  0  0  0  0
 22 23  1  0  0  0  0
 22 21  1  0  0  0  0
 25 24  1  6  0  0  0
 25 23  1  0  0  0  0
 26 25  1  0  0  0  0
 27 26  1  0  0  0  0
 28 30  1  0  0  0  0
 28 27  1  0  0  0  0
 29 31  1  0  0  0  0
 29 30  1  0  0  0  0
 31 30  1  0  0  0  0
M  END
>  <MODEL>
4

>  <REMARK>
 VINA RESULT:      -6.9      1.875      3.533
  Name = 
  9 active torsions:
  status: ('A' for Active; 'I' for Inactive)
    1  A    between atoms: C_1  and  C_14
    2  A    between atoms: C_1  and  C_17
    3  A    between atoms: N_4  and  C_18
    4  A    between atoms: C_5  and  C_9
    5  A    between atoms: C_5  and  C_25
    6  A    between atoms: C_9  and  C_19
    7  A    between atoms: C_14  and  C_18
    8  A    between atoms: C_17  and  C_22
    9  A    between atoms: C_19  and  C_22
                            x       y       z     vdW  Elec       q    Type
                         _______ _______ _______ _____ _____    ______ ____

>  <TORSDO>
F 9

$$$$
=
 OpenBabel11072412393D

 31 34  0  0  1  0  0  0  0  0999 V2000
  160.7450  208.1120  156.7600 O   0  0  0  0  0  0  0  0  0  0  0  0
  159.6840  211.0740  155.1320 C   0  0  0  0  0  0  0  0  0  0  0  0
  159.9400  211.8000  152.8080 N   0  0  0  0  0  0  0  0  0  0  0  0
  158.6840  213.2380  154.3010 C   0  0  1  0  0  3  0  0  0  0  0  0
  160.3090  209.2370  156.3990 C   0  0  0  0  0  0  0  0  0  0  0  0
  157.2040  213.0120  154.2380 C   0  0  0  0  0  0  0  0  0  0  0  0
  158.6960  212.1980  157.0450 O   0  0  0  0  0  0  0  0  0  0  0  0
  159.6920  213.0240  152.1440 C   0  0  0  0  0  0  0  0  0  0  0  0
  156.4840  212.7210  155.2690 N   0  0  0  0  0  2  0  0  0  0  0  0
  161.9330  210.0910  154.7660 C   0  0  0  0  0  1  0  0  0  0  0  0
  159.4250  211.9390  154.1310 C   0  0  0  0  0  0  0  0  0  0  0  0
  155.4800  213.8730  152.8140 O   0  0  0  0  0  0  0  0  0  0  0  0
  157.7200  214.3310  152.4050 O   0  0  0  0  0  0  0  0  0  0  0  0
  160.4640  209.7900  155.0160 C   0  0  2  0  0  3  0  0  0  0  0  0
  159.2680  211.2010  156.5330 C   0  0  0  0  0  0  0  0  0  0  0  0
  159.6360  210.0890  157.2600 O   0  0  0  0  0  0  0  0  0  0  0  0
  158.9840  214.0270  152.9880 C   0  0  1  0  0  3  0  0  0  0  0  0
  160.0230  213.2330  150.9470 O   0  0  0  0  0  0  0  0  0  0  0  0
  156.6950  213.7460  153.1130 C   0  0  0  0  0  0  0  0  0  0  0  0
  160.1540  210.5410  152.1020 C   0  0  0  0  0  2  0  0  0  0  0  0
  161.5050  210.5570  151.4060 C   0  0  0  0  0  2  0  0  0  0  0  0
  162.1340  209.1710  151.4300 C   0  0  0  0  0  2  0  0  0  0  0  0
  161.1300  208.0970  151.8320 C   0  0  0  0  0  2  0  0  0  0  0  0
  160.8980  206.3690  153.6050 C   0  0  0  0  0  1  0  0  0  0  0  0
  161.8110  206.9280  152.5330 C   0  0  1  0  0  3  0  0  0  0  0  0
  162.1150  205.8290  151.5300 C   0  0  0  0  0  2  0  0  0  0  0  0
  160.8290  205.1910  151.0370 C   0  0  0  0  0  2  0  0  0  0  0  0
  160.9320  204.9290  149.5520 C   0  0  0  0  0  2  0  0  0  0  0  0
  160.8570  206.0030  147.3290 C   0  0  0  0  0  2  0  0  0  0  0  0
  160.4760  206.1540  148.7860 C   0  0  0  0  0  3  0  0  0  0  0  0
  161.6900  206.8760  148.2430 C   0  0  0  0  0  2  0  0  0  0  0  0
  2 15  1  0  0  0  0
  3 11  1  0  0  0  0
  4 11  1  6  0  0  0
  5  1  2  0  0  0  0
  5 16  1  0  0  0  0
  6  4  1  0  0  0  0
  6  9  2  0  0  0  0
  8  3  1  0  0  0  0
 11  2  2  0  0  0  0
 12 19  2  0  0  0  0
 13 17  1  0  0  0  0
 13 19  1  0  0  0  0
 14 10  1  1  0  0  0
 14  2  1  0  0  0  0
 14  5  1  0  0  0  0
 15  7  2  0  0  0  0
 15 16  1  0  0  0  0
 17  8  1  6  0  0  0
 17  4  1  0  0  0  0
 18  8  2  0  0  0  0
 19  6  1  0  0  0  0
 20  3  1  0  0  0  0
 21 22  1  0  0  0  0
 21 20  1  0  0  0  0
 22 23  1  0  0  0  0
 23 25  1  0  0  0  0
 25 24  1  1  0  0  0
 26 25  1  0  0  0  0
 27 26  1  0  0  0  0
 28 27  1  0  0  0  0
 29 31  1  0  0  0  0
 29 30  1  0  0  0  0
 30 28  1  0  0  0  0
 31 30  1  0  0  0  0
M  END
>  <MODEL>
5

>  <REMARK>
 VINA RESULT:      -6.4      2.918      5.733
  Name = 
  9 active torsions:
  status: ('A' for Active; 'I' for Inactive)
    1  A    between atoms: C_1  and  C_14
    2  A    between atoms: C_1  and  C_17
    3  A    between atoms: N_4  and  C_18
    4  A    between atoms: C_5  and  C_9
    5  A    between atoms: C_5  and  C_25
    6  A    between atoms: C_9  and  C_19
    7  A    between atoms: C_14  and  C_18
    8  A    between atoms: C_17  and  C_22
    9  A    between atoms: C_19  and  C_22
                            x       y       z     vdW  Elec       q    Type
                         _______ _______ _______ _____ _____    ______ ____

>  <TORSDO>
F 9

$$$$
=
 OpenBabel11072412393D

 31 34  0  0  1  0  0  0  0  0999 V2000
  161.9350  201.7490  152.4460 O   0  0  0  0  0  0  0  0  0  0  0  0
  161.2030  203.8740  149.7090 C   0  0  0  0  0  0  0  0  0  0  0  0
  161.5470  206.2810  149.4170 N   0  0  0  0  0  0  0  0  0  0  0  0
  160.6470  205.0400  147.5390 C   0  0  1  0  0  3  0  0  0  0  0  0
  161.5660  202.3140  151.3830 C   0  0  0  0  0  0  0  0  0  0  0  0
  161.6930  204.6070  146.5580 C   0  0  0  0  0  0  0  0  0  0  0  0
  160.1850  202.2280  148.2410 O   0  0  0  0  0  0  0  0  0  0  0  0
  161.1300  207.2050  148.4300 C   0  0  0  0  0  0  0  0  0  0  0  0
  161.8730  203.3780  146.2050 N   0  0  0  0  0  2  0  0  0  0  0  0
  160.7280  204.5220  152.0560 C   0  0  0  0  0  1  0  0  0  0  0  0
  161.1850  204.9840  148.9440 C   0  0  0  0  0  0  0  0  0  0  0  0
  162.7120  205.6850  144.6760 O   0  0  0  0  0  0  0  0  0  0  0  0
  161.2650  206.8330  146.0830 O   0  0  0  0  0  0  0  0  0  0  0  0
  161.6850  203.7850  151.1330 C   0  0  2  0  0  3  0  0  0  0  0  0
  160.7590  202.5320  149.3190 C   0  0  0  0  0  0  0  0  0  0  0  0
  161.0020  201.6200  150.3250 O   0  0  0  0  0  0  0  0  0  0  0  0
  160.4890  206.5650  147.2480 C   0  0  1  0  0  3  0  0  0  0  0  0
  161.3040  208.4470  148.5400 O   0  0  0  0  0  0  0  0  0  0  0  0
  161.9630  205.7170  145.6860 C   0  0  0  0  0  0  0  0  0  0  0  0
  162.5930  206.5740  150.3900 C   0  0  0  0  0  2  0  0  0  0  0  0
  162.4580  208.0050  150.8850 C   0  0  0  0  0  2  0  0  0  0  0  0
  161.7210  208.0410  152.2170 C   0  0  0  0  0  2  0  0  0  0  0  0
  160.4970  208.9480  152.1660 C   0  0  0  0  0  2  0  0  0  0  0  0
  159.5380  210.9910  153.2100 C   0  0  0  0  0  1  0  0  0  0  0  0
  160.8090  210.3390  152.7050 C   0  0  1  0  0  3  0  0  0  0  0  0
  161.7960  210.2400  153.8550 C   0  0  0  0  0  2  0  0  0  0  0  0
  161.0920  210.4700  155.1790 C   0  0  0  0  0  2  0  0  0  0  0  0
  161.2050  209.2270  156.0330 C   0  0  0  0  0  2  0  0  0  0  0  0
  160.0170  207.2130  156.8300 C   0  0  0  0  0  2  0  0  0  0  0  0
  159.9530  208.3890  155.8780 C   0  0  0  0  0  3  0  0  0  0  0  0
  160.3390  207.0190  155.3630 C   0  0  0  0  0  2  0  0  0  0  0  0
  2 14  1  0  0  0  0
  3 20  1  0  0  0  0
  4  6  1  6  0  0  0
  4 11  1  0  0  0  0
  5  1  2  0  0  0  0
  7 15  2  0  0  0  0
  8 18  2  0  0  0  0
  8  3  1  0  0  0  0
  9  6  2  0  0  0  0
 11  3  1  0  0  0  0
 11  2  2  0  0  0  0
 12 19  2  0  0  0  0
 14  5  1  0  0  0  0
 14 10  1  1  0  0  0
 15  2  1  0  0  0  0
 15 16  1  0  0  0  0
 16  5  1  0  0  0  0
 17 13  1  6  0  0  0
 17  4  1  0  0  0  0
 17  8  1  0  0  0  0
 19 13  1  0  0  0  0
 19  6  1  0  0  0  0
 20 21  1  0  0  0  0
 21 22  1  0  0  0  0
 23 22  1  0  0  0  0
 23 25  1  0  0  0  0
 25 24  1  1  0  0  0
 25 26  1  0  0  0  0
 26 27  1  0  0  0  0
 27 28  1  0  0  0  0
 30 28  1  0  0  0  0
 30 29  1  0  0  0  0
 31 30  1  0  0  0  0
 31 29  1  0  0  0  0
M  END
>  <MODEL>
6

>  <REMARK>
 VINA RESULT:      -6.1      2.532      7.122
  Name = 
  9 active torsions:
  status: ('A' for Active; 'I' for Inactive)
    1  A    between atoms: C_1  and  C_14
    2  A    between atoms: C_1  and  C_17
    3  A    between atoms: N_4  and  C_18
    4  A    between atoms: C_5  and  C_9
    5  A    between atoms: C_5  and  C_25
    6  A    between atoms: C_9  and  C_19
    7  A    between atoms: C_14  and  C_18
    8  A    between atoms: C_17  and  C_22
    9  A    between atoms: C_19  and  C_22
                            x       y       z     vdW  Elec       q    Type
                         _______ _______ _______ _____ _____    ______ ____

>  <TORSDO>
F 9

$$$$
=
 OpenBabel11072412393D

 31 34  0  0  1  0  0  0  0  0999 V2000
  159.8010  206.6610  156.6420 O   0  0  0  0  0  0  0  0  0  0  0  0
  160.2170  209.4250  154.4680 C   0  0  0  0  0  0  0  0  0  0  0  0
  160.9870  209.5310  152.1460 N   0  0  0  0  0  0  0  0  0  0  0  0
  160.2770  211.6010  153.1890 C   0  0  1  0  0  3  0  0  0  0  0  0
  159.9020  207.7730  156.0620 C   0  0  0  0  0  0  0  0  0  0  0  0
  158.8500  211.9520  152.9020 C   0  0  0  0  0  0  0  0  0  0  0  0
  159.5770  211.1900  156.0090 O   0  0  0  0  0  0  0  0  0  0  0  0
  161.3300  210.6030  151.2890 C   0  0  0  0  0  0  0  0  0  0  0  0
  157.9700  212.1650  153.8220 N   0  0  0  0  0  2  0  0  0  0  0  0
  161.8940  207.6050  154.6350 C   0  0  0  0  0  1  0  0  0  0  0  0
  160.4390  210.1110  153.3290 C   0  0  0  0  0  0  0  0  0  0  0  0
  157.7850  213.1140  151.0960 O   0  0  0  0  0  0  0  0  0  0  0  0
  160.0460  212.5890  151.0230 O   0  0  0  0  0  0  0  0  0  0  0  0
  160.4130  207.9450  154.6650 C   0  0  2  0  0  3  0  0  0  0  0  0
  159.7440  209.9720  155.7440 C   0  0  0  0  0  0  0  0  0  0  0  0
  159.5490  208.9670  156.6690 O   0  0  0  0  0  0  0  0  0  0  0  0
  161.0090  211.9440  151.8530 C   0  0  1  0  0  3  0  0  0  0  0  0
  161.8420  210.4320  150.1510 O   0  0  0  0  0  0  0  0  0  0  0  0
  158.8050  212.5920  151.6160 C   0  0  0  0  0  0  0  0  0  0  0  0
  160.7420  208.1760  151.6660 C   0  0  0  0  0  2  0  0  0  0  0  0
  162.0610  207.4880  151.3530 C   0  0  0  0  0  2  0  0  0  0  0  0
  162.1720  207.2000  149.8620 C   0  0  0  0  0  2  0  0  0  0  0  0
  160.8110  207.2190  149.1760 C   0  0  0  0  0  2  0  0  0  0  0  0
  160.9020  206.4450  146.8150 C   0  0  0  0  0  1  0  0  0  0  0  0
  160.6360  206.0240  148.2460 C   0  0  1  0  0  3  0  0  0  0  0  0
  161.6170  204.9280  148.6220 C   0  0  0  0  0  2  0  0  0  0  0  0
  160.9580  203.5650  148.5090 C   0  0  0  0  0  2  0  0  0  0  0  0
  160.8720  202.9300  149.8780 C   0  0  0  0  0  2  0  0  0  0  0  0
  161.8760  204.0420  151.8420 C   0  0  0  0  0  2  0  0  0  0  0  0
  160.6710  204.0060  150.9260 C   0  0  0  0  0  3  0  0  0  0  0  0
  160.6030  203.3570  152.2910 C   0  0  0  0  0  2  0  0  0  0  0  0
  2 14  1  0  0  0  0
  2 15  1  0  0  0  0
  3 11  1  0  0  0  0
  4  6  1  6  0  0  0
  4 11  1  0  0  0  0
  5  1  2  0  0  0  0
  5 16  1  0  0  0  0
  6  9  2  0  0  0  0
  8 17  1  0  0  0  0
  8  3  1  0  0  0  0
 11  2  2  0  0  0  0
 12 19  2  0  0  0  0
 13 19  1  0  0  0  0
 14 10  1  1  0  0  0
 14  5  1  0  0  0  0
 15  7  2  0  0  0  0
 15 16  1  0  0  0  0
 17 13  1  6  0  0  0
 17  4  1  0  0  0  0
 18  8  2  0  0  0  0
 19  6  1  0  0  0  0
 20  3  1  0  0  0  0
 21 20  1  0  0  0  0
 22 21  1  0  0  0  0
 23 22  1  0  0  0  0
 25 24  1  6  0  0  0
 25 26  1  0  0  0  0
 25 23  1  0  0  0  0
 27 26  1  0  0  0  0
 27 28  1  0  0  0  0
 28 30  1  0  0  0  0
 29 31  1  0  0  0  0
 30 29  1  0  0  0  0
 30 31  1  0  0  0  0
M  END
>  <MODEL>
7

>  <REMARK>
 VINA RESULT:      -6.0      2.145      3.605
  Name = 
  9 active torsions:
  status: ('A' for Active; 'I' for Inactive)
    1  A    between atoms: C_1  and  C_14
    2  A    between atoms: C_1  and  C_17
    3  A    between atoms: N_4  and  C_18
    4  A    between atoms: C_5  and  C_9
    5  A    between atoms: C_5  and  C_25
    6  A    between atoms: C_9  and  C_19
    7  A    between atoms: C_14  and  C_18
    8  A    between atoms: C_17  and  C_22
    9  A    between atoms: C_19  and  C_22
                            x       y       z     vdW  Elec       q    Type
                         _______ _______ _______ _____ _____    ______ ____

>  <TORSDO>
F 9

$$$$
=
 OpenBabel11072412393D

 31 34  0  0  1  0  0  0  0  0999 V2000
  161.5580  208.8360  148.8520 O   0  0  0  0  0  0  0  0  0  0  0  0
  161.7160  205.4250  147.9110 C   0  0  0  0  0  0  0  0  0  0  0  0
  161.0850  203.3990  149.1340 N   0  0  0  0  0  0  0  0  0  0  0  0
  161.8710  203.1360  146.8560 C   0  0  1  0  0  3  0  0  0  0  0  0
  161.7300  207.7040  148.3280 C   0  0  0  0  0  0  0  0  0  0  0  0
  160.7640  203.0700  145.8500 C   0  0  0  0  0  0  0  0  0  0  0  0
  162.7120  205.7060  145.7140 O   0  0  0  0  0  0  0  0  0  0  0  0
  161.2760  202.0190  148.8840 C   0  0  0  0  0  0  0  0  0  0  0  0
  160.6720  203.8650  144.8370 N   0  0  0  0  0  2  0  0  0  0  0  0
  162.4070  206.2150  150.1600 C   0  0  0  0  0  1  0  0  0  0  0  0
  161.5210  204.0920  147.9650 C   0  0  0  0  0  0  0  0  0  0  0  0
  159.4100  201.2700  145.0290 O   0  0  0  0  0  0  0  0  0  0  0  0
  160.8910  200.9560  146.7900 O   0  0  0  0  0  0  0  0  0  0  0  0
  161.4260  206.4090  149.0140 C   0  0  2  0  0  3  0  0  0  0  0  0
  162.2470  206.1890  146.7790 C   0  0  0  0  0  0  0  0  0  0  0  0
  162.2290  207.5430  147.0450 O   0  0  0  0  0  0  0  0  0  0  0  0
  161.8300  201.7300  147.5320 C   0  0  1  0  0  3  0  0  0  0  0  0
  160.9870  201.1260  149.7230 O   0  0  0  0  0  0  0  0  0  0  0  0
  160.2710  201.7200  145.8280 C   0  0  0  0  0  0  0  0  0  0  0  0
  160.1430  203.9040  150.1250 C   0  0  0  0  0  2  0  0  0  0  0  0
  160.6220  203.5560  151.5260 C   0  0  0  0  0  2  0  0  0  0  0  0
  161.4360  204.7020  152.1110 C   0  0  0  0  0  2  0  0  0  0  0  0
  160.9130  205.1320  153.4760 C   0  0  0  0  0  2  0  0  0  0  0  0
  160.8430  207.4620  152.6110 C   0  0  0  0  0  1  0  0  0  0  0  0
  161.2580  206.5860  153.7750 C   0  0  1  0  0  3  0  0  0  0  0  0
  160.5220  207.0480  155.0200 C   0  0  0  0  0  2  0  0  0  0  0  0
  161.4620  207.7980  155.9450 C   0  0  0  0  0  2  0  0  0  0  0  0
  161.1470  209.2760  155.8950 C   0  0  0  0  0  2  0  0  0  0  0  0
  159.5420  210.6830  154.6530 C   0  0  0  0  0  2  0  0  0  0  0  0
  159.6850  209.4730  155.5520 C   0  0  0  0  0  3  0  0  0  0  0  0
  159.2170  210.7920  156.1280 C   0  0  0  0  0  2  0  0  0  0  0  0
  2 11  2  0  0  0  0
  2 14  1  0  0  0  0
  3 20  1  0  0  0  0
  4  6  1  6  0  0  0
  4 17  1  0  0  0  0
  4 11  1  0  0  0  0
  5  1  2  0  0  0  0
  5 14  1  0  0  0  0
  7 15  2  0  0  0  0
  8  3  1  0  0  0  0
  8 18  2  0  0  0  0
  9  6  2  0  0  0  0
 11  3  1  0  0  0  0
 12 19  2  0  0  0  0
 14 10  1  1  0  0  0
 15 16  1  0  0  0  0
 15  2  1  0  0  0  0
 16  5  1  0  0  0  0
 17 13  1  6  0  0  0
 17  8  1  0  0  0  0
 19  6  1  0  0  0  0
 19 13  1  0  0  0  0
 20 21  1  0  0  0  0
 21 22  1  0  0  0  0
 22 23  1  0  0  0  0
 23 25  1  0  0  0  0
 25 24  1  6  0  0  0
 25 26  1  0  0  0  0
 26 27  1  0  0  0  0
 28 27  1  0  0  0  0
 29 30  1  0  0  0  0
 29 31  1  0  0  0  0
 30 28  1  0  0  0  0
 30 31  1  0  0  0  0
M  END
>  <MODEL>
8

>  <REMARK>
 VINA RESULT:      -5.8      3.017      8.411
  Name = 
  9 active torsions:
  status: ('A' for Active; 'I' for Inactive)
    1  A    between atoms: C_1  and  C_14
    2  A    between atoms: C_1  and  C_17
    3  A    between atoms: N_4  and  C_18
    4  A    between atoms: C_5  and  C_9
    5  A    between atoms: C_5  and  C_25
    6  A    between atoms: C_9  and  C_19
    7  A    between atoms: C_14  and  C_18
    8  A    between atoms: C_17  and  C_22
    9  A    between atoms: C_19  and  C_22
                            x       y       z     vdW  Elec       q    Type
                         _______ _______ _______ _____ _____    ______ ____

>  <TORSDO>
F 9

$$$$
=
 OpenBabel11072412393D

 31 34  0  0  1  0  0  0  0  0999 V2000
  160.3050  207.5690  156.9130 O   0  0  0  0  0  0  0  0  0  0  0  0
  159.8090  210.5000  154.9870 C   0  0  0  0  0  0  0  0  0  0  0  0
  160.3610  210.9910  152.6530 N   0  0  0  0  0  0  0  0  0  0  0  0
  159.1920  212.7000  153.9130 C   0  0  1  0  0  3  0  0  0  0  0  0
  160.0620  208.7080  156.4340 C   0  0  0  0  0  0  0  0  0  0  0  0
  157.7060  212.6650  153.7240 C   0  0  0  0  0  0  0  0  0  0  0  0
  158.8240  211.8970  156.7120 O   0  0  0  0  0  0  0  0  0  0  0  0
  160.3420  212.1780  151.8830 C   0  0  0  0  0  0  0  0  0  0  0  0
  156.8670  212.5570  154.6990 N   0  0  0  0  0  2  0  0  0  0  0  0
  161.9230  209.2030  154.9090 C   0  0  0  0  0  1  0  0  0  0  0  0
  159.7590  211.3050  153.9070 C   0  0  0  0  0  0  0  0  0  0  0  0
  156.2460  213.6240  152.0840 O   0  0  0  0  0  0  0  0  0  0  0  0
  158.5540  213.7490  151.8610 O   0  0  0  0  0  0  0  0  0  0  0  0
  160.4100  209.1190  155.0370 C   0  0  2  0  0  3  0  0  0  0  0  0
  159.2950  210.7960  156.3280 C   0  0  0  0  0  0  0  0  0  0  0  0
  159.4420  209.7080  157.1650 O   0  0  0  0  0  0  0  0  0  0  0  0
  159.7100  213.3310  152.5830 C   0  0  1  0  0  3  0  0  0  0  0  0
  160.8010  212.2420  150.7130 O   0  0  0  0  0  0  0  0  0  0  0  0
  157.4020  213.3650  152.5070 C   0  0  0  0  0  0  0  0  0  0  0  0
  160.4580  209.6610  152.0610 C   0  0  0  0  0  2  0  0  0  0  0  0
  161.7650  209.5260  151.2950 C   0  0  0  0  0  2  0  0  0  0  0  0
  162.2210  208.0740  151.2700 C   0  0  0  0  0  2  0  0  0  0  0  0
  161.1830  207.1410  151.8810 C   0  0  0  0  0  2  0  0  0  0  0  0
  161.3800  206.2910  149.5520 C   0  0  0  0  0  1  0  0  0  0  0  0
  160.8290  206.0010  150.9330 C   0  0  1  0  0  3  0  0  0  0  0  0
  161.4350  204.7020  151.4370 C   0  0  0  0  0  2  0  0  0  0  0  0
  160.4650  203.5520  151.2370 C   0  0  0  0  0  2  0  0  0  0  0  0
  161.2240  202.3230  150.7900 C   0  0  0  0  0  2  0  0  0  0  0  0
  161.3020  200.9560  148.7340 C   0  0  0  0  0  2  0  0  0  0  0  0
  160.3920  201.5480  149.7900 C   0  0  0  0  0  3  0  0  0  0  0  0
  160.5080  202.2100  148.4340 C   0  0  0  0  0  2  0  0  0  0  0  0
  2 14  1  0  0  0  0
  2 15  1  0  0  0  0
  3 11  1  0  0  0  0
  4  6  1  6  0  0  0
  5  1  2  0  0  0  0
  5 16  1  0  0  0  0
  6  9  2  0  0  0  0
  8 17  1  0  0  0  0
  8  3  1  0  0  0  0
 11  4  1  0  0  0  0
 11  2  2  0  0  0  0
 12 19  2  0  0  0  0
 13 19  1  0  0  0  0
 14 10  1  1  0  0  0
 14  5  1  0  0  0  0
 15  7  2  0  0  0  0
 15 16  1  0  0  0  0
 17 13  1  6  0  0  0
 17  4  1  0  0  0  0
 18  8  2  0  0  0  0
 19  6  1  0  0  0  0
 20  3  1  0  0  0  0
 21 20  1  0  0  0  0
 22 21  1  0  0  0  0
 22 23  1  0  0  0  0
 25 24  1  6  0  0  0
 25 26  1  0  0  0  0
 25 23  1  0  0  0  0
 27 26  1  0  0  0  0
 28 27  1  0  0  0  0
 29 30  1  0  0  0  0
 30 28  1  0  0  0  0
 31 29  1  0  0  0  0
 31 30  1  0  0  0  0
M  END
>  <MODEL>
9

>  <REMARK>
 VINA RESULT:      -5.8      2.581      4.772
  Name = 
  9 active torsions:
  status: ('A' for Active; 'I' for Inactive)
    1  A    between atoms: C_1  and  C_14
    2  A    between atoms: C_1  and  C_17
    3  A    between atoms: N_4  and  C_18
    4  A    between atoms: C_5  and  C_9
    5  A    between atoms: C_5  and  C_25
    6  A    between atoms: C_9  and  C_19
    7  A    between atoms: C_14  and  C_18
    8  A    between atoms: C_17  and  C_22
    9  A    between atoms: C_19  and  C_22
                            x       y       z     vdW  Elec       q    Type
                         _______ _______ _______ _____ _____    ______ ____

>  <TORSDO>
F 9

$$$$
