=
 OpenBabel11072412543D

 41 41  0  0  1  0  0  0  0  0999 V2000
  160.7740  209.2040  151.5140 O   0  0  0  0  0  1  0  0  0  0  0  0
  161.9410  209.0770  150.7570 C   0  0  1  0  0  3  0  0  0  0  0  0
  162.9720  208.0040  148.7260 C   0  0  0  0  0  1  0  0  0  0  0  0
  161.7140  208.1300  149.5730 C   0  0  1  0  0  3  0  0  0  0  0  0
  160.6280  205.9510  149.1130 C   0  0  0  0  0  3  0  0  0  0  0  0
  161.2400  206.7560  149.9900 C   0  0  0  0  0  0  0  0  0  0  0  0
  162.8980  206.0110  151.6910 O   0  0  0  0  0  0  0  0  0  0  0  0
  160.6610  205.9220  152.1460 O   0  0  0  0  0  1  0  0  0  0  0  0
  161.5710  206.2060  151.3240 C   0  0  0  0  0  0  0  0  0  0  0  0
  160.2640  206.3000  147.7250 C   0  0  0  0  0  3  0  0  0  0  0  0
  160.8180  205.7900  146.6200 C   0  0  0  0  0  0  0  0  0  0  0  0
  160.3320  206.2750  145.2930 C   0  0  0  0  0  2  0  0  0  0  0  0
  161.1860  205.8380  144.2790 O   0  0  0  0  0  1  0  0  0  0  0  0
  161.9790  204.8420  146.6780 C   0  0  0  0  0  2  0  0  0  0  0  0
  161.5280  203.3850  146.6420 C   0  0  0  0  0  2  0  0  0  0  0  0
  161.7460  202.6980  147.9830 C   0  0  0  0  0  2  0  0  0  0  0  0
  160.7750  201.5380  148.1720 C   0  0  1  0  0  3  0  0  0  0  0  0
  161.4480  200.3250  148.0030 O   0  0  0  0  0  1  0  0  0  0  0  0
  160.7750  200.7190  150.4030 F   0  0  0  0  0  0  0  0  0  0  0  0
  158.7950  201.2130  149.4550 F   0  0  0  0  0  0  0  0  0  0  0  0
  160.1970  202.8720  150.0700 F   0  0  0  0  0  0  0  0  0  0  0  0
  160.1220  201.5910  149.5510 C   0  0  0  0  0  0  0  0  0  0  0  0
  162.3810  210.4510  150.2700 C   0  0  0  0  0  2  0  0  0  0  0  0
  161.7730  210.7710  148.9130 C   0  0  0  0  0  2  0  0  0  0  0  0
  162.5600  211.8530  148.1850 C   0  0  0  0  0  2  0  0  0  0  0  0
  161.6410  212.9420  147.6510 C   0  0  2  0  0  3  0  0  0  0  0  0
  162.2450  213.5770  146.4870 N   0  0  0  0  0  2  0  0  0  0  0  0
  162.7140  212.7570  142.8670 C   0  0  0  0  0  3  0  0  0  0  0  0
  160.4510  212.3410  143.5080 N   0  0  0  0  0  0  0  0  0  0  0  0
  161.9900  213.1600  145.1420 C   0  0  0  0  0  0  0  0  0  0  0  0
  162.9980  213.1690  144.1690 C   0  0  0  0  0  3  0  0  0  0  0  0
  160.7090  212.7380  144.7830 C   0  0  0  0  0  3  0  0  0  0  0  0
  161.4180  212.3430  142.5490 C   0  0  0  0  0  0  0  0  0  0  0  0
  161.0390  211.8060  140.9240 S   0  0  0  0  0  0  0  0  0  0  0  0
  159.5480  211.6830  140.7780 O   0  0  0  0  0  0  0  0  0  0  0  0
  161.6820  210.4690  140.6740 O   0  0  0  0  0  0  0  0  0  0  0  0
  163.0630  212.6710  139.5850 C   0  0  0  0  0  1  0  0  0  0  0  0
  161.6530  212.9590  139.7880 N   0  0  0  0  0  2  0  0  0  0  0  0
  161.3200  213.9770  148.7330 C   0  0  0  0  0  2  0  0  0  0  0  0
  159.9170  213.5960  150.7360 C   0  0  0  0  0  1  0  0  0  0  0  0
  159.8940  213.8540  149.2450 C   0  0  0  0  0  2  0  0  0  0  0  0
  2  1  1  6  0  0  0
  4  3  1  1  0  0  0
  4  6  1  0  0  0  0
  4  2  1  0  0  0  0
  5  6  2  0  0  0  0
  6  9  1  0  0  0  0
  9  7  2  0  0  0  0
  9  8  1  0  0  0  0
 10  5  1  0  0  0  0
 11 14  1  0  0  0  0
 11 10  2  0  0  0  0
 12 11  1  0  0  0  0
 13 12  1  0  0  0  0
 15 14  1  0  0  0  0
 15 16  1  0  0  0  0
 16 17  1  0  0  0  0
 17 18  1  1  0  0  0
 17 22  1  0  0  0  0
 20 22  1  0  0  0  0
 22 21  1  0  0  0  0
 22 19  1  0  0  0  0
 23  2  1  0  0  0  0
 24 23  1  0  0  0  0
 25 24  1  0  0  0  0
 26 25  1  1  0  0  0
 26 39  1  0  0  0  0
 27 26  1  0  0  0  0
 28 31  1  0  0  0  0
 29 32  2  0  0  0  0
 30 27  1  0  0  0  0
 31 30  2  0  0  0  0
 32 30  1  0  0  0  0
 33 28  2  0  0  0  0
 33 29  1  0  0  0  0
 34 33  1  0  0  0  0
 35 34  2  0  0  0  0
 36 34  2  0  0  0  0
 37 38  1  0  0  0  0
 38 34  1  0  0  0  0
 39 41  1  0  0  0  0
 41 40  1  0  0  0  0
M  END
>  <MODEL>
1

>  <REMARK>
 VINA RESULT:      -6.8      0.000      0.000
  Name = 
  20 active torsions:
  status: ('A' for Active; 'I' for Inactive)
    1  A    between atoms: C_5  and  N_11
    2  A    between atoms: C_6  and  C_18
    3  A    between atoms: C_6  and  C_33
    4  A    between atoms: C_8  and  C_13
    5  A    between atoms: C_8  and  C_35
    6  A    between atoms: C_9  and  C_28
    7  A    between atoms: C_9  and  C_38
    8  A    between atoms: C_10  and  C_38
    9  A    between atoms: C_10  and  C_40
   10  A    between atoms: N_11  and  C_38
   11  A    between atoms: C_13  and  C_28
   12  A    between atoms: C_14  and  C_15
   13  A    between atoms: C_18  and  C_24
   14  A    between atoms: N_21  and  S_25
   15  A    between atoms: C_22  and  C_29
   16  A    between atoms: C_22  and  C_30
   17  A    between atoms: C_24  and  C_30
   18  A    between atoms: S_25  and  C_36
   19  A    between atoms: C_35  and  C_37
   20  A    between atoms: C_37  and  C_41
                            x       y       z     vdW  Elec       q    Type
                         _______ _______ _______ _____ _____    ______ ____

>  <TORSDO>
F 20

$$$$
=
 OpenBabel11072412543D

 41 41  0  0  1  0  0  0  0  0999 V2000
  160.7270  208.5330  151.4780 O   0  0  0  0  0  1  0  0  0  0  0  0
  161.9790  208.3810  150.8760 C   0  0  1  0  0  3  0  0  0  0  0  0
  163.4840  206.4890  151.5770 C   0  0  0  0  0  1  0  0  0  0  0  0
  162.3130  206.8960  150.6950 C   0  0  1  0  0  3  0  0  0  0  0  0
  160.3420  205.5910  149.9520 C   0  0  0  0  0  3  0  0  0  0  0  0
  161.1360  205.9840  150.9560 C   0  0  0  0  0  0  0  0  0  0  0  0
  160.7600  206.1930  153.4090 O   0  0  0  0  0  1  0  0  0  0  0  0
  160.8580  204.1310  152.4290 O   0  0  0  0  0  0  0  0  0  0  0  0
  160.9180  205.3810  152.2910 C   0  0  0  0  0  0  0  0  0  0  0  0
  160.4370  206.0380  148.5480 C   0  0  0  0  0  3  0  0  0  0  0  0
  161.1010  205.4110  147.5710 C   0  0  0  0  0  0  0  0  0  0  0  0
  161.1010  206.0210  146.2070 C   0  0  0  0  0  2  0  0  0  0  0  0
  162.3670  205.9090  145.6300 O   0  0  0  0  0  1  0  0  0  0  0  0
  161.9300  204.1880  147.8310 C   0  0  0  0  0  2  0  0  0  0  0  0
  161.4690  202.9990  146.9950 C   0  0  0  0  0  2  0  0  0  0  0  0
  160.2520  202.3200  147.6090 C   0  0  0  0  0  2  0  0  0  0  0  0
  160.6570  201.0980  148.4250 C   0  0  1  0  0  3  0  0  0  0  0  0
  161.9700  200.7350  148.1160 O   0  0  0  0  0  1  0  0  0  0  0  0
  159.7540  200.3820  150.5040 F   0  0  0  0  0  0  0  0  0  0  0  0
  159.9080  202.5930  150.1210 F   0  0  0  0  0  0  0  0  0  0  0  0
  161.7730  201.3840  150.5190 F   0  0  0  0  0  0  0  0  0  0  0  0
  160.5240  201.3710  149.9210 C   0  0  0  0  0  0  0  0  0  0  0  0
  161.9870  209.1020  149.5350 C   0  0  0  0  0  2  0  0  0  0  0  0
  162.3240  210.5760  149.7100 C   0  0  0  0  0  2  0  0  0  0  0  0
  161.7500  211.4210  148.5790 C   0  0  0  0  0  2  0  0  0  0  0  0
  161.6320  212.8830  148.9860 C   0  0  2  0  0  3  0  0  0  0  0  0
  160.2280  213.2720  149.0430 N   0  0  0  0  0  2  0  0  0  0  0  0
  159.2000  212.7690  152.6050 C   0  0  0  0  0  3  0  0  0  0  0  0
  157.4000  213.7350  151.3690 N   0  0  0  0  0  0  0  0  0  0  0  0
  159.4560  213.2600  150.2480 C   0  0  0  0  0  0  0  0  0  0  0  0
  159.9820  212.7680  151.4490 C   0  0  0  0  0  3  0  0  0  0  0  0
  158.1470  213.7430  150.2320 C   0  0  0  0  0  3  0  0  0  0  0  0
  157.8940  213.2610  152.5450 C   0  0  0  0  0  0  0  0  0  0  0  0
  156.8970  213.2880  153.9860 S   0  0  0  0  0  0  0  0  0  0  0  0
  156.8970  211.9230  154.6140 O   0  0  0  0  0  0  0  0  0  0  0  0
  155.4900  213.6740  153.6160 O   0  0  0  0  0  0  0  0  0  0  0  0
  156.9970  214.1490  156.4120 C   0  0  0  0  0  1  0  0  0  0  0  0
  157.5360  214.4520  155.0970 N   0  0  0  0  0  2  0  0  0  0  0  0
  162.4120  213.7900  148.0310 C   0  0  0  0  0  2  0  0  0  0  0  0
  161.3490  213.8810  145.7980 C   0  0  0  0  0  1  0  0  0  0  0  0
  162.4510  213.2400  146.6150 C   0  0  0  0  0  2  0  0  0  0  0  0
  2  1  1  6  0  0  0
  4  2  1  0  0  0  0
  4  6  1  0  0  0  0
  4  3  1  1  0  0  0
  5  6  2  0  0  0  0
  6  9  1  0  0  0  0
  9  8  2  0  0  0  0
  9  7  1  0  0  0  0
 10  5  1  0  0  0  0
 11 14  1  0  0  0  0
 11 10  2  0  0  0  0
 12 11  1  0  0  0  0
 13 12  1  0  0  0  0
 15 16  1  0  0  0  0
 15 14  1  0  0  0  0
 16 17  1  0  0  0  0
 17 18  1  1  0  0  0
 17 22  1  0  0  0  0
 22 20  1  0  0  0  0
 22 19  1  0  0  0  0
 22 21  1  0  0  0  0
 23 24  1  0  0  0  0
 23  2  1  0  0  0  0
 25 26  1  0  0  0  0
 25 24  1  0  0  0  0
 26 39  1  6  0  0  0
 26 27  1  0  0  0  0
 27 30  1  0  0  0  0
 29 33  2  0  0  0  0
 30 31  1  0  0  0  0
 31 28  2  0  0  0  0
 32 30  2  0  0  0  0
 32 29  1  0  0  0  0
 33 28  1  0  0  0  0
 33 34  1  0  0  0  0
 34 35  2  0  0  0  0
 34 38  1  0  0  0  0
 36 34  2  0  0  0  0
 38 37  1  0  0  0  0
 40 41  1  0  0  0  0
 41 39  1  0  0  0  0
M  END
>  <MODEL>
2

>  <REMARK>
 VINA RESULT:      -5.8      3.648      6.471
  Name = 
  20 active torsions:
  status: ('A' for Active; 'I' for Inactive)
    1  A    between atoms: C_5  and  N_11
    2  A    between atoms: C_6  and  C_18
    3  A    between atoms: C_6  and  C_33
    4  A    between atoms: C_8  and  C_13
    5  A    between atoms: C_8  and  C_35
    6  A    between atoms: C_9  and  C_28
    7  A    between atoms: C_9  and  C_38
    8  A    between atoms: C_10  and  C_38
    9  A    between atoms: C_10  and  C_40
   10  A    between atoms: N_11  and  C_38
   11  A    between atoms: C_13  and  C_28
   12  A    between atoms: C_14  and  C_15
   13  A    between atoms: C_18  and  C_24
   14  A    between atoms: N_21  and  S_25
   15  A    between atoms: C_22  and  C_29
   16  A    between atoms: C_22  and  C_30
   17  A    between atoms: C_24  and  C_30
   18  A    between atoms: S_25  and  C_36
   19  A    between atoms: C_35  and  C_37
   20  A    between atoms: C_37  and  C_41
                            x       y       z     vdW  Elec       q    Type
                         _______ _______ _______ _____ _____    ______ ____

>  <TORSDO>
F 20

$$$$
=
 OpenBabel11072412543D

 41 41  0  0  1  0  0  0  0  0999 V2000
  162.7350  208.6290  148.4840 O   0  0  0  0  0  1  0  0  0  0  0  0
  161.8760  209.0300  149.5110 C   0  0  1  0  0  3  0  0  0  0  0  0
  162.5310  209.5430  151.8870 C   0  0  0  0  0  1  0  0  0  0  0  0
  162.3320  208.4450  150.8530 C   0  0  1  0  0  3  0  0  0  0  0  0
  160.7320  206.5740  150.5690 C   0  0  0  0  0  3  0  0  0  0  0  0
  161.3900  207.3950  151.3980 C   0  0  0  0  0  0  0  0  0  0  0  0
  161.9930  206.0970  153.4350 O   0  0  0  0  0  0  0  0  0  0  0  0
  160.5690  207.8770  153.5820 O   0  0  0  0  0  1  0  0  0  0  0  0
  161.2850  207.1430  152.8520 C   0  0  0  0  0  0  0  0  0  0  0  0
  160.7550  206.6330  149.0940 C   0  0  0  0  0  3  0  0  0  0  0  0
  161.1030  205.6330  148.2760 C   0  0  0  0  0  0  0  0  0  0  0  0
  161.0820  205.8800  146.8030 C   0  0  0  0  0  2  0  0  0  0  0  0
  162.2230  205.3400  146.2080 O   0  0  0  0  0  1  0  0  0  0  0  0
  161.6190  204.3250  148.7970 C   0  0  0  0  0  2  0  0  0  0  0  0
  160.5570  203.5700  149.5920 C   0  0  0  0  0  2  0  0  0  0  0  0
  160.0990  202.3150  148.8630 C   0  0  0  0  0  2  0  0  0  0  0  0
  161.2390  201.6960  148.0620 C   0  0  1  0  0  3  0  0  0  0  0  0
  161.5710  200.4490  148.5970 O   0  0  0  0  0  1  0  0  0  0  0  0
  161.4910  202.5350  145.8520 F   0  0  0  0  0  0  0  0  0  0  0  0
  159.4900  201.6980  146.4450 F   0  0  0  0  0  0  0  0  0  0  0  0
  161.2400  200.3110  146.1130 F   0  0  0  0  0  0  0  0  0  0  0  0
  160.8580  201.5530  146.5910 C   0  0  0  0  0  0  0  0  0  0  0  0
  161.8340  210.5500  149.5730 C   0  0  0  0  0  2  0  0  0  0  0  0
  162.0700  211.1590  148.1980 C   0  0  0  0  0  2  0  0  0  0  0  0
  162.0650  212.6820  148.2500 C   0  0  0  0  0  2  0  0  0  0  0  0
  161.0270  213.2640  147.3010 C   0  0  2  0  0  3  0  0  0  0  0  0
  160.2600  214.3020  147.9790 N   0  0  0  0  0  2  0  0  0  0  0  0
  157.5560  213.6220  150.4720 C   0  0  0  0  0  3  0  0  0  0  0  0
  159.6320  213.9680  151.6000 N   0  0  0  0  0  0  0  0  0  0  0  0
  159.5700  214.0920  149.2140 C   0  0  0  0  0  0  0  0  0  0  0  0
  158.1970  213.8200  149.2490 C   0  0  0  0  0  3  0  0  0  0  0  0
  160.2750  214.1630  150.4170 C   0  0  0  0  0  3  0  0  0  0  0  0
  158.2980  213.7030  151.6530 C   0  0  0  0  0  0  0  0  0  0  0  0
  157.5190  213.4420  153.2020 S   0  0  0  0  0  0  0  0  0  0  0  0
  156.0350  213.6180  153.0450 O   0  0  0  0  0  0  0  0  0  0  0  0
  158.0430  214.4380  154.2000 O   0  0  0  0  0  0  0  0  0  0  0  0
  157.0270  211.5720  154.9030 C   0  0  0  0  0  1  0  0  0  0  0  0
  157.8720  211.8390  153.7520 N   0  0  0  0  0  2  0  0  0  0  0  0
  160.1040  212.1740  146.7510 C   0  0  0  0  0  2  0  0  0  0  0  0
  158.1500  212.8570  145.3950 C   0  0  0  0  0  1  0  0  0  0  0  0
  159.6160  212.4850  145.3450 C   0  0  0  0  0  2  0  0  0  0  0  0
  2  1  1  6  0  0  0
  2 23  1  0  0  0  0
  2  4  1  0  0  0  0
  4  6  1  0  0  0  0
  4  3  1  1  0  0  0
  5  6  2  0  0  0  0
  6  9  1  0  0  0  0
  9  7  2  0  0  0  0
  9  8  1  0  0  0  0
 10  5  1  0  0  0  0
 11 14  1  0  0  0  0
 11 10  2  0  0  0  0
 12 11  1  0  0  0  0
 13 12  1  0  0  0  0
 14 15  1  0  0  0  0
 16 15  1  0  0  0  0
 17 18  1  1  0  0  0
 17 16  1  0  0  0  0
 19 22  1  0  0  0  0
 20 22  1  0  0  0  0
 21 22  1  0  0  0  0
 22 17  1  0  0  0  0
 24 25  1  0  0  0  0
 24 23  1  0  0  0  0
 26 39  1  1  0  0  0
 26 27  1  0  0  0  0
 26 25  1  0  0  0  0
 27 30  1  0  0  0  0
 28 33  1  0  0  0  0
 29 33  2  0  0  0  0
 30 31  1  0  0  0  0
 30 32  2  0  0  0  0
 31 28  2  0  0  0  0
 32 29  1  0  0  0  0
 33 34  1  0  0  0  0
 34 38  1  0  0  0  0
 34 36  2  0  0  0  0
 35 34  2  0  0  0  0
 38 37  1  0  0  0  0
 41 40  1  0  0  0  0
 41 39  1  0  0  0  0
M  END
>  <MODEL>
3

>  <REMARK>
 VINA RESULT:      -5.7      3.764      6.240
  Name = 
  20 active torsions:
  status: ('A' for Active; 'I' for Inactive)
    1  A    between atoms: C_5  and  N_11
    2  A    between atoms: C_6  and  C_18
    3  A    between atoms: C_6  and  C_33
    4  A    between atoms: C_8  and  C_13
    5  A    between atoms: C_8  and  C_35
    6  A    between atoms: C_9  and  C_28
    7  A    between atoms: C_9  and  C_38
    8  A    between atoms: C_10  and  C_38
    9  A    between atoms: C_10  and  C_40
   10  A    between atoms: N_11  and  C_38
   11  A    between atoms: C_13  and  C_28
   12  A    between atoms: C_14  and  C_15
   13  A    between atoms: C_18  and  C_24
   14  A    between atoms: N_21  and  S_25
   15  A    between atoms: C_22  and  C_29
   16  A    between atoms: C_22  and  C_30
   17  A    between atoms: C_24  and  C_30
   18  A    between atoms: S_25  and  C_36
   19  A    between atoms: C_35  and  C_37
   20  A    between atoms: C_37  and  C_41
                            x       y       z     vdW  Elec       q    Type
                         _______ _______ _______ _____ _____    ______ ____

>  <TORSDO>
F 20

$$$$
=
 OpenBabel11072412543D

 41 41  0  0  1  0  0  0  0  0999 V2000
  161.2220  203.3000  147.2620 O   0  0  0  0  0  1  0  0  0  0  0  0
  161.6760  204.2670  148.1620 C   0  0  1  0  0  3  0  0  0  0  0  0
  163.3750  204.8240  146.3890 C   0  0  0  0  0  1  0  0  0  0  0  0
  162.4100  205.3910  147.4200 C   0  0  1  0  0  3  0  0  0  0  0  0
  161.2950  207.5990  147.2760 C   0  0  0  0  0  3  0  0  0  0  0  0
  161.4750  206.3780  146.7570 C   0  0  0  0  0  0  0  0  0  0  0  0
  161.6550  205.8560  144.3300 O   0  0  0  0  0  0  0  0  0  0  0  0
  159.6050  206.0160  145.3260 O   0  0  0  0  0  1  0  0  0  0  0  0
  160.8560  206.0810  145.4460 C   0  0  0  0  0  0  0  0  0  0  0  0
  161.8720  208.0970  148.5400 C   0  0  0  0  0  3  0  0  0  0  0  0
  161.9180  209.3760  148.9290 C   0  0  0  0  0  0  0  0  0  0  0  0
  162.5570  209.6960  150.2410 C   0  0  0  0  0  2  0  0  0  0  0  0
  161.7370  210.5510  150.9790 O   0  0  0  0  0  1  0  0  0  0  0  0
  161.4570  210.4930  148.0410 C   0  0  0  0  0  2  0  0  0  0  0  0
  162.3720  211.7100  148.1360 C   0  0  0  0  0  2  0  0  0  0  0  0
  161.5820  212.9860  148.3930 C   0  0  0  0  0  2  0  0  0  0  0  0
  160.3010  213.0160  147.5670 C   0  0  1  0  0  3  0  0  0  0  0  0
  159.3260  213.7650  148.2330 O   0  0  0  0  0  1  0  0  0  0  0  0
  159.4640  214.3480  145.7850 F   0  0  0  0  0  0  0  0  0  0  0  0
  160.7550  212.5800  145.2700 F   0  0  0  0  0  0  0  0  0  0  0  0
  161.6770  214.4170  146.2030 F   0  0  0  0  0  0  0  0  0  0  0  0
  160.5580  213.6020  146.1810 C   0  0  0  0  0  0  0  0  0  0  0  0
  160.4950  204.8220  148.9480 C   0  0  0  0  0  2  0  0  0  0  0  0
  160.9610  205.8060  150.0110 C   0  0  0  0  0  2  0  0  0  0  0  0
  161.7330  205.1070  151.1240 C   0  0  0  0  0  2  0  0  0  0  0  0
  160.8190  204.7380  152.2840 C   0  0  2  0  0  3  0  0  0  0  0  0
  161.3240  205.3230  153.5200 N   0  0  0  0  0  2  0  0  0  0  0  0
  160.8370  209.0320  153.5600 C   0  0  0  0  0  3  0  0  0  0  0  0
  160.2250  208.1090  155.6760 N   0  0  0  0  0  0  0  0  0  0  0  0
  161.0040  206.6490  153.9530 C   0  0  0  0  0  0  0  0  0  0  0  0
  161.1570  207.7520  153.1040 C   0  0  0  0  0  3  0  0  0  0  0  0
  160.5310  206.8550  155.2500 C   0  0  0  0  0  3  0  0  0  0  0  0
  160.3680  209.1940  154.8660 C   0  0  0  0  0  0  0  0  0  0  0  0
  159.9440  210.7890  155.4570 S   0  0  0  0  0  0  0  0  0  0  0  0
  161.1890  211.4910  155.9230 O   0  0  0  0  0  0  0  0  0  0  0  0
  158.9800  210.6590  156.6040 O   0  0  0  0  0  0  0  0  0  0  0  0
  157.7810  211.7910  154.4820 C   0  0  0  0  0  1  0  0  0  0  0  0
  159.1980  211.6880  154.1800 N   0  0  0  0  0  2  0  0  0  0  0  0
  160.6740  203.2210  152.4160 C   0  0  0  0  0  2  0  0  0  0  0  0
  160.8510  201.5900  150.5620 C   0  0  0  0  0  1  0  0  0  0  0  0
  161.6370  202.4670  151.5130 C   0  0  0  0  0  2  0  0  0  0  0  0
  2  1  1  6  0  0  0
  2 23  1  0  0  0  0
  4  3  1  6  0  0  0
  4  2  1  0  0  0  0
  5 10  1  0  0  0  0
  6  5  2  0  0  0  0
  6  4  1  0  0  0  0
  7  9  2  0  0  0  0
  8  9  1  0  0  0  0
  9  6  1  0  0  0  0
 10 11  2  0  0  0  0
 11 12  1  0  0  0  0
 12 13  1  0  0  0  0
 14 15  1  0  0  0  0
 14 11  1  0  0  0  0
 15 16  1  0  0  0  0
 17 18  1  1  0  0  0
 17 16  1  0  0  0  0
 19 22  1  0  0  0  0
 20 22  1  0  0  0  0
 22 21  1  0  0  0  0
 22 17  1  0  0  0  0
 23 24  1  0  0  0  0
 24 25  1  0  0  0  0
 26 25  1  6  0  0  0
 26 39  1  0  0  0  0
 26 27  1  0  0  0  0
 27 30  1  0  0  0  0
 28 33  1  0  0  0  0
 30 32  2  0  0  0  0
 31 28  2  0  0  0  0
 31 30  1  0  0  0  0
 32 29  1  0  0  0  0
 33 34  1  0  0  0  0
 33 29  2  0  0  0  0
 34 35  2  0  0  0  0
 34 36  2  0  0  0  0
 38 37  1  0  0  0  0
 38 34  1  0  0  0  0
 40 41  1  0  0  0  0
 41 39  1  0  0  0  0
M  END
>  <MODEL>
4

>  <REMARK>
 VINA RESULT:      -5.6      5.705     10.296
  Name = 
  20 active torsions:
  status: ('A' for Active; 'I' for Inactive)
    1  A    between atoms: C_5  and  N_11
    2  A    between atoms: C_6  and  C_18
    3  A    between atoms: C_6  and  C_33
    4  A    between atoms: C_8  and  C_13
    5  A    between atoms: C_8  and  C_35
    6  A    between atoms: C_9  and  C_28
    7  A    between atoms: C_9  and  C_38
    8  A    between atoms: C_10  and  C_38
    9  A    between atoms: C_10  and  C_40
   10  A    between atoms: N_11  and  C_38
   11  A    between atoms: C_13  and  C_28
   12  A    between atoms: C_14  and  C_15
   13  A    between atoms: C_18  and  C_24
   14  A    between atoms: N_21  and  S_25
   15  A    between atoms: C_22  and  C_29
   16  A    between atoms: C_22  and  C_30
   17  A    between atoms: C_24  and  C_30
   18  A    between atoms: S_25  and  C_36
   19  A    between atoms: C_35  and  C_37
   20  A    between atoms: C_37  and  C_41
                            x       y       z     vdW  Elec       q    Type
                         _______ _______ _______ _____ _____    ______ ____

>  <TORSDO>
F 20

$$$$
=
 OpenBabel11072412543D

 41 41  0  0  1  0  0  0  0  0999 V2000
  159.5250  203.7640  151.9700 O   0  0  0  0  0  1  0  0  0  0  0  0
  160.8350  204.2470  152.0240 C   0  0  1  0  0  3  0  0  0  0  0  0
  162.3190  202.2410  151.6920 C   0  0  0  0  0  1  0  0  0  0  0  0
  161.7310  203.4840  151.0410 C   0  0  1  0  0  3  0  0  0  0  0  0
  160.8830  203.9940  148.7690 C   0  0  0  0  0  3  0  0  0  0  0  0
  161.0230  203.1040  149.7600 C   0  0  0  0  0  0  0  0  0  0  0  0
  159.2900  201.3160  149.7430 O   0  0  0  0  0  1  0  0  0  0  0  0
  161.4210  200.8630  149.0550 O   0  0  0  0  0  0  0  0  0  0  0  0
  160.6030  201.7080  149.5040 C   0  0  0  0  0  0  0  0  0  0  0  0
  161.2890  205.4130  148.8160 C   0  0  0  0  0  3  0  0  0  0  0  0
  161.1900  206.2880  147.8090 C   0  0  0  0  0  0  0  0  0  0  0  0
  161.6680  207.6860  148.0340 C   0  0  0  0  0  2  0  0  0  0  0  0
  162.9840  207.6750  148.4990 O   0  0  0  0  0  1  0  0  0  0  0  0
  160.7250  205.8780  146.4430 C   0  0  0  0  0  2  0  0  0  0  0  0
  161.8910  205.4900  145.5390 C   0  0  0  0  0  2  0  0  0  0  0  0
  161.8640  204.0070  145.1960 C   0  0  0  0  0  2  0  0  0  0  0  0
  160.4440  203.4560  145.2480 C   0  0  1  0  0  3  0  0  0  0  0  0
  159.8140  203.6500  144.0160 O   0  0  0  0  0  1  0  0  0  0  0  0
  160.1710  201.2230  144.4800 F   0  0  0  0  0  0  0  0  0  0  0  0
  159.4740  201.7200  146.5600 F   0  0  0  0  0  0  0  0  0  0  0  0
  161.6830  201.6010  146.1090 F   0  0  0  0  0  0  0  0  0  0  0  0
  160.4460  201.9720  145.6090 C   0  0  0  0  0  0  0  0  0  0  0  0
  160.8380  205.7370  151.7100 C   0  0  0  0  0  2  0  0  0  0  0  0
  161.7170  206.5000  152.6910 C   0  0  0  0  0  2  0  0  0  0  0  0
  160.9160  207.0160  153.8800 C   0  0  0  0  0  2  0  0  0  0  0  0
  160.8060  208.5330  153.8560 C   0  0  2  0  0  3  0  0  0  0  0  0
  161.8200  209.0920  152.9700 N   0  0  0  0  0  2  0  0  0  0  0  0
  161.8780  211.1230  149.8290 C   0  0  0  0  0  3  0  0  0  0  0  0
  160.3700  212.1010  151.4010 N   0  0  0  0  0  0  0  0  0  0  0  0
  161.5450  210.1090  152.0020 C   0  0  0  0  0  0  0  0  0  0  0  0
  162.1680  210.1140  150.7480 C   0  0  0  0  0  3  0  0  0  0  0  0
  160.6390  211.1260  152.3090 C   0  0  0  0  0  3  0  0  0  0  0  0
  160.9670  212.1220  150.1770 C   0  0  0  0  0  0  0  0  0  0  0  0
  160.5730  213.3920  149.0340 S   0  0  0  0  0  0  0  0  0  0  0  0
  161.8130  214.1860  148.7310 O   0  0  0  0  0  0  0  0  0  0  0  0
  159.5280  214.2960  149.6290 O   0  0  0  0  0  0  0  0  0  0  0  0
  159.9120  213.7150  146.5660 C   0  0  0  0  0  1  0  0  0  0  0  0
  159.9560  212.6790  147.5830 N   0  0  0  0  0  2  0  0  0  0  0  0
  160.9280  209.1210  155.2640 C   0  0  0  0  0  2  0  0  0  0  0  0
  160.0080  211.2670  156.0850 C   0  0  0  0  0  1  0  0  0  0  0  0
  159.6640  209.8440  155.7000 C   0  0  0  0  0  2  0  0  0  0  0  0
  2  1  1  6  0  0  0
  4  3  1  1  0  0  0
  4  2  1  0  0  0  0
  5 10  1  0  0  0  0
  5  6  2  0  0  0  0
  6  4  1  0  0  0  0
  8  9  2  0  0  0  0
  9  7  1  0  0  0  0
  9  6  1  0  0  0  0
 11 12  1  0  0  0  0
 11 10  2  0  0  0  0
 12 13  1  0  0  0  0
 14 11  1  0  0  0  0
 15 14  1  0  0  0  0
 16 17  1  0  0  0  0
 16 15  1  0  0  0  0
 17 18  1  6  0  0  0
 17 22  1  0  0  0  0
 19 22  1  0  0  0  0
 22 21  1  0  0  0  0
 22 20  1  0  0  0  0
 23  2  1  0  0  0  0
 23 24  1  0  0  0  0
 24 25  1  0  0  0  0
 26 25  1  1  0  0  0
 26 39  1  0  0  0  0
 27 26  1  0  0  0  0
 28 33  2  0  0  0  0
 28 31  1  0  0  0  0
 29 32  2  0  0  0  0
 30 32  1  0  0  0  0
 30 27  1  0  0  0  0
 31 30  2  0  0  0  0
 33 29  1  0  0  0  0
 34 36  2  0  0  0  0
 34 33  1  0  0  0  0
 35 34  2  0  0  0  0
 37 38  1  0  0  0  0
 38 34  1  0  0  0  0
 39 41  1  0  0  0  0
 41 40  1  0  0  0  0
M  END
>  <MODEL>
5

>  <REMARK>
 VINA RESULT:      -5.6      3.672      6.100
  Name = 
  20 active torsions:
  status: ('A' for Active; 'I' for Inactive)
    1  A    between atoms: C_5  and  N_11
    2  A    between atoms: C_6  and  C_18
    3  A    between atoms: C_6  and  C_33
    4  A    between atoms: C_8  and  C_13
    5  A    between atoms: C_8  and  C_35
    6  A    between atoms: C_9  and  C_28
    7  A    between atoms: C_9  and  C_38
    8  A    between atoms: C_10  and  C_38
    9  A    between atoms: C_10  and  C_40
   10  A    between atoms: N_11  and  C_38
   11  A    between atoms: C_13  and  C_28
   12  A    between atoms: C_14  and  C_15
   13  A    between atoms: C_18  and  C_24
   14  A    between atoms: N_21  and  S_25
   15  A    between atoms: C_22  and  C_29
   16  A    between atoms: C_22  and  C_30
   17  A    between atoms: C_24  and  C_30
   18  A    between atoms: S_25  and  C_36
   19  A    between atoms: C_35  and  C_37
   20  A    between atoms: C_37  and  C_41
                            x       y       z     vdW  Elec       q    Type
                         _______ _______ _______ _____ _____    ______ ____

>  <TORSDO>
F 20

$$$$
=
 OpenBabel11072412543D

 41 41  0  0  1  0  0  0  0  0999 V2000
  160.8770  208.6020  151.3420 O   0  0  0  0  0  1  0  0  0  0  0  0
  162.0630  208.3590  150.6450 C   0  0  1  0  0  3  0  0  0  0  0  0
  163.4190  206.4460  151.5630 C   0  0  0  0  0  1  0  0  0  0  0  0
  162.3430  206.8540  150.5660 C   0  0  1  0  0  3  0  0  0  0  0  0
  160.3320  205.6700  149.7340 C   0  0  0  0  0  3  0  0  0  0  0  0
  161.1080  206.0060  150.7720 C   0  0  0  0  0  0  0  0  0  0  0  0
  160.6740  206.2050  153.2150 O   0  0  0  0  0  1  0  0  0  0  0  0
  160.6570  204.1560  152.2050 O   0  0  0  0  0  0  0  0  0  0  0  0
  160.8080  205.4000  152.0890 C   0  0  0  0  0  0  0  0  0  0  0  0
  160.5030  206.1270  148.3410 C   0  0  0  0  0  3  0  0  0  0  0  0
  161.0960  205.4390  147.3590 C   0  0  0  0  0  0  0  0  0  0  0  0
  161.1940  206.0700  146.0080 C   0  0  0  0  0  2  0  0  0  0  0  0
  159.9340  206.1190  145.4080 O   0  0  0  0  0  1  0  0  0  0  0  0
  161.7600  204.1170  147.6050 C   0  0  0  0  0  2  0  0  0  0  0  0
  161.2470  203.0370  146.6570 C   0  0  0  0  0  2  0  0  0  0  0  0
  160.9120  201.7520  147.4010 C   0  0  0  0  0  2  0  0  0  0  0  0
  160.2610  202.0480  148.7470 C   0  0  1  0  0  3  0  0  0  0  0  0
  158.9570  201.5460  148.7640 O   0  0  0  0  0  1  0  0  0  0  0  0
  160.2180  200.8350  150.7900 F   0  0  0  0  0  0  0  0  0  0  0  0
  161.7720  202.4420  150.5450 F   0  0  0  0  0  0  0  0  0  0  0  0
  161.9640  200.5040  149.4040 F   0  0  0  0  0  0  0  0  0  0  0  0
  161.0720  201.4450  149.8910 C   0  0  0  0  0  0  0  0  0  0  0  0
  161.9640  208.9620  149.2500 C   0  0  0  0  0  2  0  0  0  0  0  0
  162.3430  210.4360  149.2640 C   0  0  0  0  0  2  0  0  0  0  0  0
  161.2030  211.3140  148.7620 C   0  0  0  0  0  2  0  0  0  0  0  0
  161.2240  212.6820  149.4280 C   0  0  2  0  0  3  0  0  0  0  0  0
  159.9720  212.9100  150.1390 N   0  0  0  0  0  2  0  0  0  0  0  0
  158.2140  211.9190  153.2880 C   0  0  0  0  0  3  0  0  0  0  0  0
  160.5580  211.5160  153.5060 N   0  0  0  0  0  0  0  0  0  0  0  0
  159.7190  212.4260  151.4610 C   0  0  0  0  0  0  0  0  0  0  0  0
  158.4240  212.3960  151.9940 C   0  0  0  0  0  3  0  0  0  0  0  0
  160.7830  211.9760  152.2460 C   0  0  0  0  0  3  0  0  0  0  0  0
  159.3060  211.4800  154.0400 C   0  0  0  0  0  0  0  0  0  0  0  0
  159.0670  210.8620  155.6630 S   0  0  0  0  0  0  0  0  0  0  0  0
  157.6350  211.0760  156.0680 O   0  0  0  0  0  0  0  0  0  0  0  0
  159.9750  211.5900  156.6160 O   0  0  0  0  0  0  0  0  0  0  0  0
  160.8640  209.0420  155.9640 C   0  0  0  0  0  1  0  0  0  0  0  0
  159.4440  209.1730  155.6890 N   0  0  0  0  0  2  0  0  0  0  0  0
  161.4820  213.7920  148.4060 C   0  0  0  0  0  2  0  0  0  0  0  0
  162.2890  213.4940  146.0860 C   0  0  0  0  0  1  0  0  0  0  0  0
  162.7010  213.5110  147.5420 C   0  0  0  0  0  2  0  0  0  0  0  0
  2  1  1  6  0  0  0
  4  2  1  0  0  0  0
  4  6  1  0  0  0  0
  4  3  1  1  0  0  0
  5  6  2  0  0  0  0
  6  9  1  0  0  0  0
  9  8  2  0  0  0  0
  9  7  1  0  0  0  0
 10  5  1  0  0  0  0
 11 14  1  0  0  0  0
 11 10  2  0  0  0  0
 12 11  1  0  0  0  0
 13 12  1  0  0  0  0
 15 16  1  0  0  0  0
 15 14  1  0  0  0  0
 16 17  1  0  0  0  0
 17 18  1  6  0  0  0
 17 22  1  0  0  0  0
 21 22  1  0  0  0  0
 22 20  1  0  0  0  0
 22 19  1  0  0  0  0
 23 24  1  0  0  0  0
 23  2  1  0  0  0  0
 25 24  1  0  0  0  0
 25 26  1  0  0  0  0
 26 39  1  6  0  0  0
 26 27  1  0  0  0  0
 27 30  1  0  0  0  0
 28 33  1  0  0  0  0
 29 33  2  0  0  0  0
 30 31  1  0  0  0  0
 30 32  2  0  0  0  0
 31 28  2  0  0  0  0
 32 29  1  0  0  0  0
 33 34  1  0  0  0  0
 34 38  1  0  0  0  0
 34 35  2  0  0  0  0
 34 36  2  0  0  0  0
 38 37  1  0  0  0  0
 40 41  1  0  0  0  0
 41 39  1  0  0  0  0
M  END
>  <MODEL>
6

>  <REMARK>
 VINA RESULT:      -5.5      3.899      6.922
  Name = 
  20 active torsions:
  status: ('A' for Active; 'I' for Inactive)
    1  A    between atoms: C_5  and  N_11
    2  A    between atoms: C_6  and  C_18
    3  A    between atoms: C_6  and  C_33
    4  A    between atoms: C_8  and  C_13
    5  A    between atoms: C_8  and  C_35
    6  A    between atoms: C_9  and  C_28
    7  A    between atoms: C_9  and  C_38
    8  A    between atoms: C_10  and  C_38
    9  A    between atoms: C_10  and  C_40
   10  A    between atoms: N_11  and  C_38
   11  A    between atoms: C_13  and  C_28
   12  A    between atoms: C_14  and  C_15
   13  A    between atoms: C_18  and  C_24
   14  A    between atoms: N_21  and  S_25
   15  A    between atoms: C_22  and  C_29
   16  A    between atoms: C_22  and  C_30
   17  A    between atoms: C_24  and  C_30
   18  A    between atoms: S_25  and  C_36
   19  A    between atoms: C_35  and  C_37
   20  A    between atoms: C_37  and  C_41
                            x       y       z     vdW  Elec       q    Type
                         _______ _______ _______ _____ _____    ______ ____

>  <TORSDO>
F 20

$$$$
=
 OpenBabel11072412543D

 41 41  0  0  1  0  0  0  0  0999 V2000
  163.0750  205.8090  151.9780 O   0  0  0  0  0  1  0  0  0  0  0  0
  161.6940  205.5950  151.9620 C   0  0  1  0  0  3  0  0  0  0  0  0
  160.3830  203.6090  152.7830 C   0  0  0  0  0  1  0  0  0  0  0  0
  161.3820  204.1090  151.7500 C   0  0  1  0  0  3  0  0  0  0  0  0
  160.5920  204.7870  149.5010 C   0  0  0  0  0  3  0  0  0  0  0  0
  160.8770  203.7990  150.3590 C   0  0  0  0  0  0  0  0  0  0  0  0
  159.8660  202.0320  148.9250 O   0  0  0  0  0  0  0  0  0  0  0  0
  161.6620  201.5510  150.2520 O   0  0  0  0  0  1  0  0  0  0  0  0
  160.8280  202.4070  149.8560 C   0  0  0  0  0  0  0  0  0  0  0  0
  160.6350  206.2320  149.8000 C   0  0  0  0  0  3  0  0  0  0  0  0
  161.3740  207.1420  149.1550 C   0  0  0  0  0  0  0  0  0  0  0  0
  161.3030  208.5640  149.6080 C   0  0  0  0  0  2  0  0  0  0  0  0
  162.3300  209.3070  149.0240 O   0  0  0  0  0  1  0  0  0  0  0  0
  162.3470  206.7580  148.0800 C   0  0  0  0  0  2  0  0  0  0  0  0
  161.6530  206.5230  146.7420 C   0  0  0  0  0  2  0  0  0  0  0  0
  162.5150  205.6910  145.8030 C   0  0  0  0  0  2  0  0  0  0  0  0
  161.8090  204.3990  145.4070 C   0  0  1  0  0  3  0  0  0  0  0  0
  161.3040  203.7670  146.5460 O   0  0  0  0  0  1  0  0  0  0  0  0
  161.2130  205.1630  143.2360 F   0  0  0  0  0  0  0  0  0  0  0  0
  159.8160  205.6170  144.9400 F   0  0  0  0  0  0  0  0  0  0  0  0
  159.9820  203.5100  144.1470 F   0  0  0  0  0  0  0  0  0  0  0  0
  160.6820  204.6740  144.4150 C   0  0  0  0  0  0  0  0  0  0  0  0
  161.0910  206.0910  153.2690 C   0  0  0  0  0  2  0  0  0  0  0  0
  161.5590  207.5040  153.5860 C   0  0  0  0  0  2  0  0  0  0  0  0
  160.4040  208.4980  153.5600 C   0  0  0  0  0  2  0  0  0  0  0  0
  160.2330  209.1820  154.9090 C   0  0  2  0  0  3  0  0  0  0  0  0
  160.0340  210.6130  154.7190 N   0  0  0  0  0  2  0  0  0  0  0  0
  158.9730  212.6440  151.7620 C   0  0  0  0  0  3  0  0  0  0  0  0
  161.1000  211.6440  151.3400 N   0  0  0  0  0  0  0  0  0  0  0  0
  160.0230  211.2440  153.4350 C   0  0  0  0  0  0  0  0  0  0  0  0
  158.9520  212.0470  153.0230 C   0  0  0  0  0  3  0  0  0  0  0  0
  161.0980  211.0540  152.5650 C   0  0  0  0  0  3  0  0  0  0  0  0
  160.0680  212.4280  150.9230 C   0  0  0  0  0  0  0  0  0  0  0  0
  160.1270  213.1800  149.3400 S   0  0  0  0  0  0  0  0  0  0  0  0
  158.7710  213.7370  149.0060 O   0  0  0  0  0  0  0  0  0  0  0  0
  160.5190  212.1550  148.3110 O   0  0  0  0  0  0  0  0  0  0  0  0
  162.1220  214.3120  148.1680 C   0  0  0  0  0  1  0  0  0  0  0  0
  161.3010  214.4520  149.3590 N   0  0  0  0  0  2  0  0  0  0  0  0
  161.4310  208.9130  155.8230 C   0  0  0  0  0  2  0  0  0  0  0  0
  159.7230  207.3800  156.7480 C   0  0  0  0  0  1  0  0  0  0  0  0
  161.0710  208.0190  156.9990 C   0  0  0  0  0  2  0  0  0  0  0  0
  2  1  1  1  0  0  0
  2 23  1  0  0  0  0
  4  2  1  0  0  0  0
  4  3  1  1  0  0  0
  5 10  1  0  0  0  0
  5  6  2  0  0  0  0
  6  4  1  0  0  0  0
  7  9  2  0  0  0  0
  9  8  1  0  0  0  0
  9  6  1  0  0  0  0
 11 12  1  0  0  0  0
 11 10  2  0  0  0  0
 13 12  1  0  0  0  0
 14 11  1  0  0  0  0
 15 14  1  0  0  0  0
 16 15  1  0  0  0  0
 17 16  1  0  0  0  0
 17 18  1  1  0  0  0
 19 22  1  0  0  0  0
 21 22  1  0  0  0  0
 22 20  1  0  0  0  0
 22 17  1  0  0  0  0
 23 24  1  0  0  0  0
 25 24  1  0  0  0  0
 26 25  1  6  0  0  0
 26 39  1  0  0  0  0
 27 26  1  0  0  0  0
 28 31  1  0  0  0  0
 29 32  2  0  0  0  0
 30 27  1  0  0  0  0
 31 30  2  0  0  0  0
 32 30  1  0  0  0  0
 33 29  1  0  0  0  0
 33 28  2  0  0  0  0
 34 38  1  0  0  0  0
 34 33  1  0  0  0  0
 35 34  2  0  0  0  0
 36 34  2  0  0  0  0
 37 38  1  0  0  0  0
 39 41  1  0  0  0  0
 40 41  1  0  0  0  0
M  END
>  <MODEL>
7

>  <REMARK>
 VINA RESULT:      -5.2      4.212      6.705
  Name = 
  20 active torsions:
  status: ('A' for Active; 'I' for Inactive)
    1  A    between atoms: C_5  and  N_11
    2  A    between atoms: C_6  and  C_18
    3  A    between atoms: C_6  and  C_33
    4  A    between atoms: C_8  and  C_13
    5  A    between atoms: C_8  and  C_35
    6  A    between atoms: C_9  and  C_28
    7  A    between atoms: C_9  and  C_38
    8  A    between atoms: C_10  and  C_38
    9  A    between atoms: C_10  and  C_40
   10  A    between atoms: N_11  and  C_38
   11  A    between atoms: C_13  and  C_28
   12  A    between atoms: C_14  and  C_15
   13  A    between atoms: C_18  and  C_24
   14  A    between atoms: N_21  and  S_25
   15  A    between atoms: C_22  and  C_29
   16  A    between atoms: C_22  and  C_30
   17  A    between atoms: C_24  and  C_30
   18  A    between atoms: S_25  and  C_36
   19  A    between atoms: C_35  and  C_37
   20  A    between atoms: C_37  and  C_41
                            x       y       z     vdW  Elec       q    Type
                         _______ _______ _______ _____ _____    ______ ____

>  <TORSDO>
F 20

$$$$
=
 OpenBabel11072412543D

 41 41  0  0  1  0  0  0  0  0999 V2000
  159.5340  204.1500  152.0590 O   0  0  0  0  0  1  0  0  0  0  0  0
  160.8890  204.4120  152.2770 C   0  0  1  0  0  3  0  0  0  0  0  0
  162.4080  202.4630  151.7960 C   0  0  0  0  0  1  0  0  0  0  0  0
  161.7510  203.7100  151.2210 C   0  0  1  0  0  3  0  0  0  0  0  0
  160.8670  204.2330  148.9660 C   0  0  0  0  0  3  0  0  0  0  0  0
  160.9840  203.3520  149.9680 C   0  0  0  0  0  0  0  0  0  0  0  0
  161.3210  200.8850  149.9160 O   0  0  0  0  0  1  0  0  0  0  0  0
  159.2780  201.7800  149.4210 O   0  0  0  0  0  0  0  0  0  0  0  0
  160.4780  201.9780  149.7480 C   0  0  0  0  0  0  0  0  0  0  0  0
  161.3540  205.6260  148.9770 C   0  0  0  0  0  3  0  0  0  0  0  0
  161.8960  206.2730  147.9400 C   0  0  0  0  0  0  0  0  0  0  0  0
  162.3500  207.6820  148.1400 C   0  0  0  0  0  2  0  0  0  0  0  0
  161.5670  208.3070  149.1120 O   0  0  0  0  0  1  0  0  0  0  0  0
  162.1620  205.5920  146.6300 C   0  0  0  0  0  2  0  0  0  0  0  0
  160.8810  205.3770  145.8300 C   0  0  0  0  0  2  0  0  0  0  0  0
  161.0790  204.3560  144.7180 C   0  0  0  0  0  2  0  0  0  0  0  0
  161.2380  202.9500  145.2840 C   0  0  1  0  0  3  0  0  0  0  0  0
  161.5280  203.0180  146.6490 O   0  0  0  0  0  1  0  0  0  0  0  0
  160.2770  201.0250  144.2720 F   0  0  0  0  0  0  0  0  0  0  0  0
  159.0250  202.8900  144.4030 F   0  0  0  0  0  0  0  0  0  0  0  0
  159.4590  201.6890  146.2650 F   0  0  0  0  0  0  0  0  0  0  0  0
  159.9740  202.1240  145.0560 C   0  0  0  0  0  0  0  0  0  0  0  0
  161.1240  205.9160  152.2500 C   0  0  0  0  0  2  0  0  0  0  0  0
  161.6180  206.4160  153.6000 C   0  0  0  0  0  2  0  0  0  0  0  0
  160.4880  206.4870  154.6200 C   0  0  0  0  0  2  0  0  0  0  0  0
  160.3480  207.8890  155.1940 C   0  0  2  0  0  3  0  0  0  0  0  0
  161.1220  208.8330  154.3960 N   0  0  0  0  0  2  0  0  0  0  0  0
  158.9560  211.7940  153.6640 C   0  0  0  0  0  3  0  0  0  0  0  0
  160.5020  211.4560  151.8750 N   0  0  0  0  0  0  0  0  0  0  0  0
  160.5470  209.9710  153.7470 C   0  0  0  0  0  0  0  0  0  0  0  0
  159.4940  210.6900  154.3260 C   0  0  0  0  0  3  0  0  0  0  0  0
  161.0400  210.3780  152.5050 C   0  0  0  0  0  3  0  0  0  0  0  0
  159.4780  212.1660  152.4220 C   0  0  0  0  0  0  0  0  0  0  0  0
  158.8310  213.5590  151.5770 S   0  0  0  0  0  0  0  0  0  0  0  0
  158.1290  214.4530  152.5600 O   0  0  0  0  0  0  0  0  0  0  0  0
  157.8560  213.1000  150.5270 O   0  0  0  0  0  0  0  0  0  0  0  0
  159.8620  214.4480  149.3900 C   0  0  0  0  0  1  0  0  0  0  0  0
  160.1290  214.4160  150.8180 N   0  0  0  0  0  2  0  0  0  0  0  0
  160.7780  207.9340  156.6620 C   0  0  0  0  0  2  0  0  0  0  0  0
  162.1490  209.9280  157.1800 C   0  0  0  0  0  1  0  0  0  0  0  0
  162.1960  208.4550  156.8340 C   0  0  0  0  0  2  0  0  0  0  0  0
  2  1  1  6  0  0  0
  4  3  1  1  0  0  0
  4  2  1  0  0  0  0
  5 10  1  0  0  0  0
  5  6  2  0  0  0  0
  6  4  1  0  0  0  0
  8  9  2  0  0  0  0
  9  7  1  0  0  0  0
  9  6  1  0  0  0  0
 11 12  1  0  0  0  0
 11 10  2  0  0  0  0
 12 13  1  0  0  0  0
 14 11  1  0  0  0  0
 15 14  1  0  0  0  0
 16 17  1  0  0  0  0
 16 15  1  0  0  0  0
 17 18  1  1  0  0  0
 19 22  1  0  0  0  0
 20 22  1  0  0  0  0
 22 17  1  0  0  0  0
 22 21  1  0  0  0  0
 23  2  1  0  0  0  0
 23 24  1  0  0  0  0
 24 25  1  0  0  0  0
 26 25  1  6  0  0  0
 26 39  1  0  0  0  0
 27 26  1  0  0  0  0
 28 31  1  0  0  0  0
 29 33  1  0  0  0  0
 29 32  2  0  0  0  0
 30 31  2  0  0  0  0
 30 27  1  0  0  0  0
 32 30  1  0  0  0  0
 33 28  2  0  0  0  0
 34 33  1  0  0  0  0
 34 35  2  0  0  0  0
 36 34  2  0  0  0  0
 37 38  1  0  0  0  0
 38 34  1  0  0  0  0
 39 41  1  0  0  0  0
 41 40  1  0  0  0  0
M  END
>  <MODEL>
8

>  <REMARK>
 VINA RESULT:      -5.1      4.806      7.270
  Name = 
  20 active torsions:
  status: ('A' for Active; 'I' for Inactive)
    1  A    between atoms: C_5  and  N_11
    2  A    between atoms: C_6  and  C_18
    3  A    between atoms: C_6  and  C_33
    4  A    between atoms: C_8  and  C_13
    5  A    between atoms: C_8  and  C_35
    6  A    between atoms: C_9  and  C_28
    7  A    between atoms: C_9  and  C_38
    8  A    between atoms: C_10  and  C_38
    9  A    between atoms: C_10  and  C_40
   10  A    between atoms: N_11  and  C_38
   11  A    between atoms: C_13  and  C_28
   12  A    between atoms: C_14  and  C_15
   13  A    between atoms: C_18  and  C_24
   14  A    between atoms: N_21  and  S_25
   15  A    between atoms: C_22  and  C_29
   16  A    between atoms: C_22  and  C_30
   17  A    between atoms: C_24  and  C_30
   18  A    between atoms: S_25  and  C_36
   19  A    between atoms: C_35  and  C_37
   20  A    between atoms: C_37  and  C_41
                            x       y       z     vdW  Elec       q    Type
                         _______ _______ _______ _____ _____    ______ ____

>  <TORSDO>
F 20

$$$$
=
 OpenBabel11072412543D

 41 41  0  0  1  0  0  0  0  0999 V2000
  160.6810  208.1070  151.5140 O   0  0  0  0  0  1  0  0  0  0  0  0
  161.9990  208.0610  151.0520 C   0  0  1  0  0  3  0  0  0  0  0  0
  163.4470  206.2040  151.9410 C   0  0  0  0  0  1  0  0  0  0  0  0
  162.4530  206.6090  150.8630 C   0  0  1  0  0  3  0  0  0  0  0  0
  160.7710  205.2420  149.6620 C   0  0  0  0  0  3  0  0  0  0  0  0
  161.3060  205.6250  150.8290 C   0  0  0  0  0  0  0  0  0  0  0  0
  160.8250  205.6280  153.2710 O   0  0  0  0  0  1  0  0  0  0  0  0
  160.4560  203.7480  152.0270 O   0  0  0  0  0  0  0  0  0  0  0  0
  160.8460  204.9450  152.0600 C   0  0  0  0  0  0  0  0  0  0  0  0
  161.1360  205.7640  148.3300 C   0  0  0  0  0  3  0  0  0  0  0  0
  161.5760  205.0350  147.2990 C   0  0  0  0  0  0  0  0  0  0  0  0
  161.9140  205.7390  146.0250 C   0  0  0  0  0  2  0  0  0  0  0  0
  161.8470  204.8490  144.9510 O   0  0  0  0  0  1  0  0  0  0  0  0
  161.8470  203.5650  147.4230 C   0  0  0  0  0  2  0  0  0  0  0  0
  160.7900  202.8610  148.2680 C   0  0  0  0  0  2  0  0  0  0  0  0
  160.6900  201.3820  147.9210 C   0  0  0  0  0  2  0  0  0  0  0  0
  161.1750  201.1150  146.5000 C   0  0  1  0  0  3  0  0  0  0  0  0
  161.5810  199.7840  146.3810 O   0  0  0  0  0  1  0  0  0  0  0  0
  158.8540  201.4570  146.1180 F   0  0  0  0  0  0  0  0  0  0  0  0
  160.0550  200.4420  144.5090 F   0  0  0  0  0  0  0  0  0  0  0  0
  160.3140  202.6530  144.8850 F   0  0  0  0  0  0  0  0  0  0  0  0
  160.0820  201.4250  145.4820 C   0  0  0  0  0  0  0  0  0  0  0  0
  162.1040  208.8340  149.7450 C   0  0  0  0  0  2  0  0  0  0  0  0
  162.3170  210.3180  150.0030 C   0  0  0  0  0  2  0  0  0  0  0  0
  161.6940  211.1740  148.9070 C   0  0  0  0  0  2  0  0  0  0  0  0
  161.5620  212.6250  149.3460 C   0  0  2  0  0  3  0  0  0  0  0  0
  160.1810  212.9110  149.7150 N   0  0  0  0  0  2  0  0  0  0  0  0
  158.5780  214.2970  152.7970 C   0  0  0  0  0  3  0  0  0  0  0  0
  159.6750  212.2380  153.3080 N   0  0  0  0  0  0  0  0  0  0  0  0
  159.7440  213.0680  151.0680 C   0  0  0  0  0  0  0  0  0  0  0  0
  158.9860  214.1750  151.4690 C   0  0  0  0  0  3  0  0  0  0  0  0
  160.0810  212.1010  152.0170 C   0  0  0  0  0  3  0  0  0  0  0  0
  158.9380  213.3080  153.7150 C   0  0  0  0  0  0  0  0  0  0  0  0
  158.4250  213.4300  155.3870 S   0  0  0  0  0  0  0  0  0  0  0  0
  157.1360  214.2000  155.4550 O   0  0  0  0  0  0  0  0  0  0  0  0
  159.4820  214.1430  156.1860 O   0  0  0  0  0  0  0  0  0  0  0  0
  156.8220  211.4510  155.7740 C   0  0  0  0  0  1  0  0  0  0  0  0
  158.1990  211.8380  156.0290 N   0  0  0  0  0  2  0  0  0  0  0  0
  162.0450  213.5820  148.2530 C   0  0  0  0  0  2  0  0  0  0  0  0
  162.3600  213.3290  145.8110 C   0  0  0  0  0  1  0  0  0  0  0  0
  162.8410  212.8700  147.1710 C   0  0  0  0  0  2  0  0  0  0  0  0
  2  1  1  6  0  0  0
  4  2  1  0  0  0  0
  4  3  1  1  0  0  0
  5  6  2  0  0  0  0
  6  4  1  0  0  0  0
  6  9  1  0  0  0  0
  8  9  2  0  0  0  0
  9  7  1  0  0  0  0
 10  5  1  0  0  0  0
 11 14  1  0  0  0  0
 11 10  2  0  0  0  0
 12 11  1  0  0  0  0
 13 12  1  0  0  0  0
 14 15  1  0  0  0  0
 16 15  1  0  0  0  0
 17 18  1  1  0  0  0
 17 16  1  0  0  0  0
 20 22  1  0  0  0  0
 21 22  1  0  0  0  0
 22 19  1  0  0  0  0
 22 17  1  0  0  0  0
 23 24  1  0  0  0  0
 23  2  1  0  0  0  0
 25 26  1  0  0  0  0
 25 24  1  0  0  0  0
 26 39  1  6  0  0  0
 26 27  1  0  0  0  0
 27 30  1  0  0  0  0
 28 33  1  0  0  0  0
 29 33  2  0  0  0  0
 30 31  1  0  0  0  0
 30 32  2  0  0  0  0
 31 28  2  0  0  0  0
 32 29  1  0  0  0  0
 33 34  1  0  0  0  0
 34 35  2  0  0  0  0
 34 38  1  0  0  0  0
 34 36  2  0  0  0  0
 37 38  1  0  0  0  0
 40 41  1  0  0  0  0
 41 39  1  0  0  0  0
M  END
>  <MODEL>
9

>  <REMARK>
 VINA RESULT:      -5.1      4.042      7.015
  Name = 
  20 active torsions:
  status: ('A' for Active; 'I' for Inactive)
    1  A    between atoms: C_5  and  N_11
    2  A    between atoms: C_6  and  C_18
    3  A    between atoms: C_6  and  C_33
    4  A    between atoms: C_8  and  C_13
    5  A    between atoms: C_8  and  C_35
    6  A    between atoms: C_9  and  C_28
    7  A    between atoms: C_9  and  C_38
    8  A    between atoms: C_10  and  C_38
    9  A    between atoms: C_10  and  C_40
   10  A    between atoms: N_11  and  C_38
   11  A    between atoms: C_13  and  C_28
   12  A    between atoms: C_14  and  C_15
   13  A    between atoms: C_18  and  C_24
   14  A    between atoms: N_21  and  S_25
   15  A    between atoms: C_22  and  C_29
   16  A    between atoms: C_22  and  C_30
   17  A    between atoms: C_24  and  C_30
   18  A    between atoms: S_25  and  C_36
   19  A    between atoms: C_35  and  C_37
   20  A    between atoms: C_37  and  C_41
                            x       y       z     vdW  Elec       q    Type
                         _______ _______ _______ _____ _____    ______ ____

>  <TORSDO>
F 20

$$$$
