=
 OpenBabel11072411553D

 32 38  0  0  1  0  0  0  0  0999 V2000
  162.2390  209.2000  151.5100 N   0  0  0  0  0  2  0  0  0  0  0  0
  160.2640  210.7390  152.2020 C   0  0  1  0  0  3  0  0  0  0  0  0
  159.6470  213.0950  155.9510 C   0  0  0  0  0  2  0  0  0  0  0  0
  161.1990  211.0740  154.3560 C   0  0  0  0  0  0  0  0  0  0  0  0
  158.8350  211.8790  153.8980 C   0  0  0  0  0  3  0  0  0  0  0  0
  161.3840  211.3070  155.6220 N   0  0  0  0  0  0  0  0  0  0  0  0
  161.6150  210.1020  152.4270 C   0  0  0  0  0  0  0  0  0  0  0  0
  162.1110  210.2890  153.6080 N   0  0  0  0  0  0  0  0  0  0  0  0
  160.0070  211.3440  153.5470 C   0  0  0  0  0  0  0  0  0  0  0  0
  158.5900  212.5110  155.1510 N   0  0  0  0  0  2  0  0  0  0  0  0
  160.5340  212.0600  156.4480 N   0  0  0  0  0  2  0  0  0  0  0  0
  159.8560  213.5480  144.9190 N   0  0  0  0  0  2  0  0  0  0  0  0
  159.8450  213.7070  147.3270 C   0  0  1  0  0  3  0  0  0  0  0  0
  159.1870  213.5210  146.0120 C   0  0  0  0  0  0  0  0  0  0  0  0
  157.6150  212.6670  147.5680 C   0  0  0  0  0  3  0  0  0  0  0  0
  158.6510  214.0660  149.5000 C   0  0  0  0  0  2  0  0  0  0  0  0
  158.8730  213.0980  148.3260 C   0  0  2  0  0  0  0  0  0  0  0  0
  160.3430  211.8230  151.1690 C   0  0  0  0  0  0  0  0  0  0  0  0
  160.1680  212.3620  147.9550 C   0  0  2  0  0  3  0  0  0  0  0  0
  159.7460  214.1310  150.5570 C   0  0  0  0  0  2  0  0  0  0  0  0
  161.3030  212.5110  148.9520 C   0  0  1  0  0  3  0  0  0  0  0  0
  157.8520  212.8850  146.0810 C   0  0  0  0  0  3  0  0  0  0  0  0
  159.7280  212.9470  151.4080 N   0  0  0  0  0  0  0  0  0  0  0  0
  161.1180  211.5920  150.0190 O   0  0  0  0  0  0  0  0  0  0  0  0
  162.6160  212.2090  148.2520 C   0  0  0  0  0  2  0  0  0  0  0  0
  163.2840  213.4990  147.8140 C   0  0  0  0  0  1  0  0  0  0  0  0
  162.1400  207.8610  148.1410 C   0  0  0  0  0  2  0  0  0  0  0  0
  160.3010  206.7860  149.4300 C   0  0  0  0  0  2  0  0  0  0  0  0
  162.4580  208.9840  149.0990 C   0  0  0  0  0  2  0  0  0  0  0  0
  161.7500  206.6710  148.9990 C   0  0  2  0  0  3  0  0  0  0  0  0
  161.4030  207.2220  150.3750 C   0  0  1  0  0  3  0  0  0  0  0  0
  161.5850  208.7270  150.3030 C   0  0  1  0  0  3  0  0  0  0  0  0
  1  7  1  0  0  0  0
  2 18  1  6  0  0  0
  2  7  1  0  0  0  0
  2  9  1  0  0  0  0
  3 11  1  0  0  0  0
  4  6  2  0  0  0  0
  5 10  1  0  0  0  0
  6 11  1  0  0  0  0
  7  8  2  0  0  0  0
  8  4  1  0  0  0  0
  9  5  2  0  0  0  0
  9  4  1  0  0  0  0
 10  3  1  0  0  0  0
 12 14  2  0  0  0  0
 13 14  1  6  0  0  0
 13 19  1  0  0  0  0
 13 17  1  0  0  0  0
 14 22  1  0  0  0  0
 16 20  1  0  0  0  0
 17 15  1  6  0  0  0
 17 16  1  0  0  0  0
 18 23  2  0  0  0  0
 19 17  1  0  0  0  0
 19 21  1  0  0  0  0
 20 23  1  0  0  0  0
 21 24  1  0  0  0  0
 22 15  2  0  0  0  0
 24 18  1  0  0  0  0
 25 21  1  0  0  0  0
 26 25  1  0  0  0  0
 27 30  1  0  0  0  0
 27 29  1  0  0  0  0
 28 31  1  0  0  0  0
 29 32  1  0  0  0  0
 30 28  1  0  0  0  0
 30 31  1  0  0  0  0
 32 31  1  0  0  0  0
 32  1  1  0  0  0  0
M  END
>  <MODEL>
1

>  <REMARK>
 VINA RESULT:      -5.9      0.000      0.000
  Name = 
  3 active torsions:
  status: ('A' for Active; 'I' for Inactive)
    1  A    between atoms: N_2  and  C_29
    2  A    between atoms: C_5  and  C_26
    3  A    between atoms: C_7  and  C_15
                            x       y       z     vdW  Elec       q    Type
                         _______ _______ _______ _____ _____    ______ ____

>  <TORSDO>
F 3

$$$$
=
 OpenBabel11072411553D

 32 38  0  0  1  0  0  0  0  0999 V2000
  162.2240  209.1320  148.0040 N   0  0  0  0  0  2  0  0  0  0  0  0
  160.9510  207.3580  149.4110 C   0  0  1  0  0  3  0  0  0  0  0  0
  161.1220  202.8950  149.2250 C   0  0  0  0  0  2  0  0  0  0  0  0
  161.8570  205.5900  148.1150 C   0  0  0  0  0  0  0  0  0  0  0  0
  159.9930  205.0840  149.7630 C   0  0  0  0  0  3  0  0  0  0  0  0
  162.0650  204.4630  147.5010 N   0  0  0  0  0  0  0  0  0  0  0  0
  161.9510  207.7740  148.3580 C   0  0  0  0  0  0  0  0  0  0  0  0
  162.4330  206.8000  147.6550 N   0  0  0  0  0  0  0  0  0  0  0  0
  160.8890  205.8810  149.1760 C   0  0  0  0  0  0  0  0  0  0  0  0
  159.9550  203.6690  149.5980 N   0  0  0  0  0  2  0  0  0  0  0  0
  161.5310  203.2180  147.8710 N   0  0  0  0  0  2  0  0  0  0  0  0
  160.2320  209.3250  156.9420 N   0  0  0  0  0  2  0  0  0  0  0  0
  161.3330  208.3340  155.0380 C   0  0  1  0  0  3  0  0  0  0  0  0
  160.4100  208.2980  156.1970 C   0  0  0  0  0  0  0  0  0  0  0  0
  159.7540  206.4370  154.8820 C   0  0  0  0  0  3  0  0  0  0  0  0
  162.0840  206.3340  153.7280 C   0  0  0  0  0  2  0  0  0  0  0  0
  160.8750  207.1840  154.1540 C   0  0  2  0  0  0  0  0  0  0  0  0
  161.4750  207.6270  150.7910 C   0  0  0  0  0  0  0  0  0  0  0  0
  160.5710  208.6360  153.7590 C   0  0  2  0  0  3  0  0  0  0  0  0
  162.9570  206.8870  152.6100 C   0  0  0  0  0  2  0  0  0  0  0  0
  161.5050  209.2320  152.7230 C   0  0  1  0  0  3  0  0  0  0  0  0
  159.4240  207.1940  156.1590 C   0  0  0  0  0  3  0  0  0  0  0  0
  162.2980  206.7640  151.3160 N   0  0  0  0  0  0  0  0  0  0  0  0
  161.0950  208.8230  151.4260 O   0  0  0  0  0  0  0  0  0  0  0  0
  161.4400  210.7460  152.8140 C   0  0  0  0  0  2  0  0  0  0  0  0
  160.0140  211.2210  152.6080 C   0  0  0  0  0  1  0  0  0  0  0  0
  161.8880  212.4320  149.4720 C   0  0  0  0  0  2  0  0  0  0  0  0
  160.0010  212.1240  147.8750 C   0  0  0  0  0  2  0  0  0  0  0  0
  162.3400  210.9940  149.5620 C   0  0  0  0  0  2  0  0  0  0  0  0
  161.4180  212.6370  148.0430 C   0  0  2  0  0  3  0  0  0  0  0  0
  161.1700  211.2530  147.4620 C   0  0  1  0  0  3  0  0  0  0  0  0
  161.4880  210.2540  148.5600 C   0  0  1  0  0  3  0  0  0  0  0  0
  1  7  1  0  0  0  0
  1 32  1  0  0  0  0
  2 18  1  1  0  0  0
  3 10  1  0  0  0  0
  4  9  1  0  0  0  0
  6 11  1  0  0  0  0
  6  4  2  0  0  0  0
  7  2  1  0  0  0  0
  8  4  1  0  0  0  0
  8  7  2  0  0  0  0
  9  2  1  0  0  0  0
  9  5  2  0  0  0  0
 10  5  1  0  0  0  0
 11  3  1  0  0  0  0
 13 14  1  1  0  0  0
 14 12  2  0  0  0  0
 15 22  2  0  0  0  0
 17 16  1  6  0  0  0
 17 15  1  0  0  0  0
 17 13  1  0  0  0  0
 18 23  2  0  0  0  0
 18 24  1  0  0  0  0
 19 17  1  0  0  0  0
 19 13  1  0  0  0  0
 20 16  1  0  0  0  0
 21 25  1  0  0  0  0
 21 19  1  0  0  0  0
 22 14  1  0  0  0  0
 23 20  1  0  0  0  0
 24 21  1  0  0  0  0
 26 25  1  0  0  0  0
 27 29  1  0  0  0  0
 28 30  1  0  0  0  0
 30 27  1  0  0  0  0
 31 28  1  0  0  0  0
 31 30  1  0  0  0  0
 31 32  1  0  0  0  0
 32 29  1  0  0  0  0
M  END
>  <MODEL>
2

>  <REMARK>
 VINA RESULT:      -4.5      3.155      7.899
  Name = 
  3 active torsions:
  status: ('A' for Active; 'I' for Inactive)
    1  A    between atoms: N_2  and  C_29
    2  A    between atoms: C_5  and  C_26
    3  A    between atoms: C_7  and  C_15
                            x       y       z     vdW  Elec       q    Type
                         _______ _______ _______ _____ _____    ______ ____

>  <TORSDO>
F 3

$$$$
=
 OpenBabel11072411553D

 32 38  0  0  1  0  0  0  0  0999 V2000
  162.0610  211.2740  149.3680 N   0  0  0  0  0  2  0  0  0  0  0  0
  160.7340  209.8520  151.0890 C   0  0  1  0  0  3  0  0  0  0  0  0
  161.9010  206.0890  153.2020 C   0  0  0  0  0  2  0  0  0  0  0  0
  162.4350  208.2010  151.1290 C   0  0  0  0  0  0  0  0  0  0  0  0
  160.2180  207.7160  152.2660 C   0  0  0  0  0  3  0  0  0  0  0  0
  163.1060  207.0910  151.2350 N   0  0  0  0  0  0  0  0  0  0  0  0
  161.9610  210.1680  150.2670 C   0  0  0  0  0  0  0  0  0  0  0  0
  162.8790  209.2550  150.2940 N   0  0  0  0  0  0  0  0  0  0  0  0
  161.0840  208.4950  151.6140 C   0  0  0  0  0  0  0  0  0  0  0  0
  160.5480  206.4470  152.8240 N   0  0  0  0  0  2  0  0  0  0  0  0
  162.7430  205.9880  152.0240 N   0  0  0  0  0  2  0  0  0  0  0  0
  156.6410  214.1610  156.1680 N   0  0  0  0  0  2  0  0  0  0  0  0
  158.6000  213.0030  155.3640 C   0  0  1  0  0  3  0  0  0  0  0  0
  157.3190  213.0740  156.1070 C   0  0  0  0  0  0  0  0  0  0  0  0
  157.6620  210.7520  155.7760 C   0  0  0  0  0  3  0  0  0  0  0  0
  160.2220  211.0960  155.4670 C   0  0  0  0  0  2  0  0  0  0  0  0
  158.7930  211.5200  155.0870 C   0  0  2  0  0  0  0  0  0  0  0  0
  160.5870  210.8120  152.2320 C   0  0  0  0  0  0  0  0  0  0  0  0
  158.3720  212.4720  153.9590 C   0  0  2  0  0  3  0  0  0  0  0  0
  161.3320  211.4560  154.4880 C   0  0  0  0  0  2  0  0  0  0  0  0
  159.4940  212.9240  153.0420 C   0  0  1  0  0  3  0  0  0  0  0  0
  156.6920  211.7600  156.3730 C   0  0  0  0  0  3  0  0  0  0  0  0
  161.2920  210.6010  153.3070 N   0  0  0  0  0  0  0  0  0  0  0  0
  159.7380  211.9210  152.0660 O   0  0  0  0  0  0  0  0  0  0  0  0
  159.0760  214.2070  152.3480 C   0  0  0  0  0  2  0  0  0  0  0  0
  158.0250  213.9120  151.2940 C   0  0  0  0  0  1  0  0  0  0  0  0
  160.5220  214.4520  148.5380 C   0  0  0  0  0  2  0  0  0  0  0  0
  159.2950  212.6760  147.2950 C   0  0  0  0  0  2  0  0  0  0  0  0
  161.2720  213.5690  149.5070 C   0  0  0  0  0  2  0  0  0  0  0  0
  160.4360  213.6730  147.2370 C   0  0  2  0  0  3  0  0  0  0  0  0
  160.7110  212.2170  147.5820 C   0  0  1  0  0  3  0  0  0  0  0  0
  160.9450  212.1590  149.0800 C   0  0  1  0  0  3  0  0  0  0  0  0
  1  7  1  0  0  0  0
  2  9  1  0  0  0  0
  2 18  1  1  0  0  0
  4  6  2  0  0  0  0
  4  9  1  0  0  0  0
  5 10  1  0  0  0  0
  6 11  1  0  0  0  0
  7  8  2  0  0  0  0
  7  2  1  0  0  0  0
  8  4  1  0  0  0  0
  9  5  2  0  0  0  0
 10  3  1  0  0  0  0
 11  3  1  0  0  0  0
 13 14  1  1  0  0  0
 14 12  2  0  0  0  0
 14 22  1  0  0  0  0
 15 22  2  0  0  0  0
 17 13  1  0  0  0  0
 17 16  1  6  0  0  0
 17 15  1  0  0  0  0
 18 23  2  0  0  0  0
 19 17  1  0  0  0  0
 19 13  1  0  0  0  0
 20 16  1  0  0  0  0
 21 19  1  0  0  0  0
 23 20  1  0  0  0  0
 24 18  1  0  0  0  0
 24 21  1  0  0  0  0
 25 21  1  0  0  0  0
 26 25  1  0  0  0  0
 27 29  1  0  0  0  0
 28 31  1  0  0  0  0
 30 28  1  0  0  0  0
 30 31  1  0  0  0  0
 30 27  1  0  0  0  0
 31 32  1  0  0  0  0
 32  1  1  0  0  0  0
 32 29  1  0  0  0  0
M  END
>  <MODEL>
3

>  <REMARK>
 VINA RESULT:      -3.7      2.135      6.286
  Name = 
  3 active torsions:
  status: ('A' for Active; 'I' for Inactive)
    1  A    between atoms: N_2  and  C_29
    2  A    between atoms: C_5  and  C_26
    3  A    between atoms: C_7  and  C_15
                            x       y       z     vdW  Elec       q    Type
                         _______ _______ _______ _____ _____    ______ ____

>  <TORSDO>
F 3

$$$$
=
 OpenBabel11072411553D

 32 38  0  0  1  0  0  0  0  0999 V2000
  158.3570  211.5660  154.4040 N   0  0  0  0  0  2  0  0  0  0  0  0
  160.3490  211.7460  152.7470 C   0  0  1  0  0  3  0  0  0  0  0  0
  162.0960  208.6630  150.0220 C   0  0  0  0  0  2  0  0  0  0  0  0
  160.2120  209.4350  152.2330 C   0  0  0  0  0  0  0  0  0  0  0  0
  162.2080  210.7670  151.4060 C   0  0  0  0  0  3  0  0  0  0  0  0
  160.4710  208.2090  151.8850 N   0  0  0  0  0  0  0  0  0  0  0  0
  159.2060  211.0050  153.4000 C   0  0  0  0  0  0  0  0  0  0  0  0
  159.1460  209.7440  153.1150 N   0  0  0  0  0  0  0  0  0  0  0  0
  161.0240  210.6340  152.0070 C   0  0  0  0  0  0  0  0  0  0  0  0
  162.8390  209.7380  150.6480 N   0  0  0  0  0  2  0  0  0  0  0  0
  161.5070  207.8020  151.0310 N   0  0  0  0  0  2  0  0  0  0  0  0
  158.5120  214.3300  145.6010 N   0  0  0  0  0  2  0  0  0  0  0  0
  158.4240  214.3230  148.0130 C   0  0  1  0  0  3  0  0  0  0  0  0
  157.9590  213.8940  146.6720 C   0  0  0  0  0  0  0  0  0  0  0  0
  157.0740  212.2550  148.1400 C   0  0  0  0  0  3  0  0  0  0  0  0
  157.2230  213.8790  150.1670 C   0  0  0  0  0  2  0  0  0  0  0  0
  157.9190  213.2390  148.9530 C   0  0  2  0  0  0  0  0  0  0  0  0
  159.8440  212.7670  151.7700 C   0  0  0  0  0  0  0  0  0  0  0  0
  159.4070  213.3160  148.5830 C   0  0  2  0  0  3  0  0  0  0  0  0
  158.1220  214.4480  151.2560 C   0  0  0  0  0  2  0  0  0  0  0  0
  160.2950  213.9810  149.6180 C   0  0  1  0  0  3  0  0  0  0  0  0
  157.1580  212.6490  146.6730 C   0  0  0  0  0  3  0  0  0  0  0  0
  158.7310  213.3860  152.0470 N   0  0  0  0  0  0  0  0  0  0  0  0
  160.6240  213.0430  150.6330 O   0  0  0  0  0  0  0  0  0  0  0  0
  161.5700  214.4530  148.9420 C   0  0  0  0  0  2  0  0  0  0  0  0
  162.2700  213.2860  148.2730 C   0  0  0  0  0  1  0  0  0  0  0  0
  157.5560  214.3970  156.5250 C   0  0  0  0  0  2  0  0  0  0  0  0
  160.0260  214.0790  156.5970 C   0  0  0  0  0  2  0  0  0  0  0  0
  157.2540  213.5230  155.3310 C   0  0  0  0  0  2  0  0  0  0  0  0
  158.7070  213.7280  157.2570 C   0  0  2  0  0  3  0  0  0  0  0  0
  159.3480  212.7630  156.2710 C   0  0  1  0  0  3  0  0  0  0  0  0
  158.5730  212.8850  154.9720 C   0  0  1  0  0  3  0  0  0  0  0  0
  1 32  1  0  0  0  0
  2 18  1  6  0  0  0
  2  7  1  0  0  0  0
  3 10  1  0  0  0  0
  3 11  1  0  0  0  0
  4  8  1  0  0  0  0
  5  9  2  0  0  0  0
  6  4  2  0  0  0  0
  7  1  1  0  0  0  0
  8  7  2  0  0  0  0
  9  4  1  0  0  0  0
  9  2  1  0  0  0  0
 10  5  1  0  0  0  0
 11  6  1  0  0  0  0
 12 14  2  0  0  0  0
 13 14  1  6  0  0  0
 13 19  1  0  0  0  0
 13 17  1  0  0  0  0
 14 22  1  0  0  0  0
 16 20  1  0  0  0  0
 17 15  1  6  0  0  0
 17 16  1  0  0  0  0
 18 23  2  0  0  0  0
 19 17  1  0  0  0  0
 19 21  1  0  0  0  0
 20 23  1  0  0  0  0
 21 24  1  0  0  0  0
 22 15  2  0  0  0  0
 24 18  1  0  0  0  0
 25 21  1  0  0  0  0
 26 25  1  0  0  0  0
 27 30  1  0  0  0  0
 28 30  1  0  0  0  0
 29 27  1  0  0  0  0
 31 28  1  0  0  0  0
 31 30  1  0  0  0  0
 32 29  1  0  0  0  0
 32 31  1  0  0  0  0
M  END
>  <MODEL>
4

>  <REMARK>
 VINA RESULT:      -3.6      1.620      5.196
  Name = 
  3 active torsions:
  status: ('A' for Active; 'I' for Inactive)
    1  A    between atoms: N_2  and  C_29
    2  A    between atoms: C_5  and  C_26
    3  A    between atoms: C_7  and  C_15
                            x       y       z     vdW  Elec       q    Type
                         _______ _______ _______ _____ _____    ______ ____

>  <TORSDO>
F 3

$$$$
=
 OpenBabel11072411553D

 32 38  0  0  1  0  0  0  0  0999 V2000
  160.4310  207.8310  153.7120 N   0  0  0  0  0  2  0  0  0  0  0  0
  161.5920  209.8610  152.5830 C   0  0  1  0  0  3  0  0  0  0  0  0
  162.1850  210.7740  148.2470 C   0  0  0  0  0  2  0  0  0  0  0  0
  161.3200  208.9000  150.4320 C   0  0  0  0  0  0  0  0  0  0  0  0
  162.7870  210.9560  150.6880 C   0  0  0  0  0  3  0  0  0  0  0  0
  161.4500  208.5600  149.1830 N   0  0  0  0  0  0  0  0  0  0  0  0
  160.8240  208.5620  152.5480 C   0  0  0  0  0  0  0  0  0  0  0  0
  160.6870  208.0450  151.3680 N   0  0  0  0  0  0  0  0  0  0  0  0
  161.9440  210.0230  151.1370 C   0  0  0  0  0  0  0  0  0  0  0  0
  163.0890  211.1630  149.3110 N   0  0  0  0  0  2  0  0  0  0  0  0
  162.0700  209.3290  148.1860 N   0  0  0  0  0  2  0  0  0  0  0  0
  154.7470  213.5580  153.3450 N   0  0  0  0  0  2  0  0  0  0  0  0
  157.0530  213.0950  153.8850 C   0  0  1  0  0  3  0  0  0  0  0  0
  155.5930  212.8830  154.0320 C   0  0  0  0  0  0  0  0  0  0  0  0
  156.5540  210.9280  154.9680 C   0  0  0  0  0  3  0  0  0  0  0  0
  158.8070  212.1520  155.4060 C   0  0  0  0  0  2  0  0  0  0  0  0
  157.6760  211.8140  154.4200 C   0  0  2  0  0  0  0  0  0  0  0  0
  160.7140  210.9970  153.0170 C   0  0  0  0  0  0  0  0  0  0  0  0
  157.6400  212.0890  152.9100 C   0  0  2  0  0  3  0  0  0  0  0  0
  160.1380  212.5860  154.8060 C   0  0  0  0  0  2  0  0  0  0  0  0
  158.9320  212.6260  152.3220 C   0  0  1  0  0  3  0  0  0  0  0  0
  155.2220  211.5950  154.6590 C   0  0  0  0  0  3  0  0  0  0  0  0
  160.8520  211.4530  154.2300 N   0  0  0  0  0  0  0  0  0  0  0  0
  159.8240  211.5480  152.0770 O   0  0  0  0  0  0  0  0  0  0  0  0
  158.6230  213.3270  151.0120 C   0  0  0  0  0  2  0  0  0  0  0  0
  159.8800  213.4430  150.1710 C   0  0  0  0  0  1  0  0  0  0  0  0
  159.8390  208.6320  157.1990 C   0  0  0  0  0  2  0  0  0  0  0  0
  161.9560  207.3260  157.0780 C   0  0  0  0  0  2  0  0  0  0  0  0
  159.6970  208.9630  155.7330 C   0  0  0  0  0  2  0  0  0  0  0  0
  160.4530  207.2440  157.2610 C   0  0  2  0  0  3  0  0  0  0  0  0
  161.0720  206.9820  155.8960 C   0  0  1  0  0  3  0  0  0  0  0  0
  160.8220  208.2200  155.0550 C   0  0  1  0  0  3  0  0  0  0  0  0
  1 32  1  0  0  0  0
  2 18  1  6  0  0  0
  3 10  1  0  0  0  0
  4  9  1  0  0  0  0
  4  8  1  0  0  0  0
  5  9  2  0  0  0  0
  6  4  2  0  0  0  0
  7  2  1  0  0  0  0
  7  1  1  0  0  0  0
  8  7  2  0  0  0  0
  9  2  1  0  0  0  0
 10  5  1  0  0  0  0
 11  3  1  0  0  0  0
 11  6  1  0  0  0  0
 12 14  2  0  0  0  0
 13 14  1  6  0  0  0
 13 17  1  0  0  0  0
 14 22  1  0  0  0  0
 17 15  1  1  0  0  0
 17 16  1  0  0  0  0
 18 23  2  0  0  0  0
 19 13  1  0  0  0  0
 19 17  1  0  0  0  0
 20 16  1  0  0  0  0
 21 19  1  0  0  0  0
 22 15  2  0  0  0  0
 23 20  1  0  0  0  0
 24 21  1  0  0  0  0
 24 18  1  0  0  0  0
 25 21  1  0  0  0  0
 26 25  1  0  0  0  0
 27 30  1  0  0  0  0
 28 30  1  0  0  0  0
 29 27  1  0  0  0  0
 31 28  1  0  0  0  0
 31 30  1  0  0  0  0
 32 29  1  0  0  0  0
 32 31  1  0  0  0  0
M  END
>  <MODEL>
5

>  <REMARK>
 VINA RESULT:      -3.2      2.675      6.235
  Name = 
  3 active torsions:
  status: ('A' for Active; 'I' for Inactive)
    1  A    between atoms: N_2  and  C_29
    2  A    between atoms: C_5  and  C_26
    3  A    between atoms: C_7  and  C_15
                            x       y       z     vdW  Elec       q    Type
                         _______ _______ _______ _____ _____    ______ ____

>  <TORSDO>
F 3

$$$$
