=
 OpenBabel11072410513D

 40 44  0  0  1  0  0  0  0  0999 V2000
  161.0440  212.7530  147.3620 C   0  0  2  0  0  3  0  0  0  0  0  0
  157.0550  213.8550  150.3760 C   0  0  0  0  0  2  0  0  0  0  0  0
  160.4220  212.3410  152.4220 S   0  0  0  0  0  0  0  0  0  0  0  0
  160.6900  207.3120  153.2380 O   0  0  0  0  0  0  0  0  0  0  0  0
  156.9550  213.2380  149.1590 O   0  0  0  0  0  0  0  0  0  0  0  0
  162.1200  208.7540  151.9750 C   0  0  0  0  0  2  0  0  0  0  0  0
  161.5690  209.9940  148.7080 C   0  0  2  0  0  3  0  0  0  0  0  0
  160.1000  213.7270  148.0410 C   0  0  0  0  0  2  0  0  0  0  0  0
  161.5700  210.4760  154.7880 C   0  0  1  0  0  3  0  0  0  0  0  0
  161.1030  208.6280  153.0930 C   0  0  2  0  0  3  0  0  0  0  0  0
  161.7270  208.9910  154.4020 C   0  0  2  0  0  3  0  0  0  0  0  0
  158.1530  213.9910  149.3430 C   0  0  2  0  0  0  0  0  0  0  0  0
  162.3400  209.0400  149.5310 C   0  0  2  0  0  3  0  0  0  0  0  0
  161.8010  208.6750  148.2840 O   0  0  0  0  0  0  0  0  0  0  0  0
  159.1420  212.2880  151.1410 C   0  0  0  0  0  2  0  0  0  0  0  0
  161.1880  208.1310  155.3560 O   0  0  0  0  0  0  0  0  0  0  0  0
  160.1240  211.0350  154.8760 C   0  0  1  0  0  0  0  0  0  0  0  0
  159.3050  213.4970  150.2080 C   0  0  1  0  0  3  0  0  0  0  0  0
  162.4790  210.8930  148.0190 N   0  0  0  0  0  2  0  0  0  0  0  0
  162.3770  210.7570  156.0480 C   0  0  0  0  0  1  0  0  0  0  0  0
  160.1600  212.3150  155.4500 O   0  0  0  0  0  1  0  0  0  0  0  0
  162.0700  212.2460  148.3630 C   0  0  0  0  0  2  0  0  0  0  0  0
  160.4680  207.1710  154.6190 C   0  0  0  0  0  2  0  0  0  0  0  0
  161.4480  208.5210  150.6360 C   0  0  0  0  0  2  0  0  0  0  0  0
  159.1560  212.9980  148.8720 N   0  0  2  0  0  0  0  0  0  0  0  0
  159.5180  211.1510  153.4690 C   0  0  0  0  0  2  0  0  0  0  0  0
  161.8910  213.5890  145.9900 S   0  0  0  0  0  0  0  0  0  0  0  0
  160.4060  212.8790  143.8820 N   0  0  0  0  0  2  0  0  0  0  0  0
  160.4240  213.5660  144.9630 C   0  0  0  0  0  3  0  0  0  0  0  0
  159.3010  210.1480  155.7080 N   0  0  0  0  0  2  0  0  0  0  0  0
  158.8360  212.0060  157.2610 C   0  0  0  0  0  1  0  0  0  0  0  0
  158.2460  210.8970  156.3980 C   0  0  1  0  0  3  0  0  0  0  0  0
  157.2500  211.3630  155.5080 O   0  0  0  0  0  0  0  0  0  0  0  0
  156.0760  211.6560  156.2280 C   0  0  2  0  0  3  0  0  0  0  0  0
  155.0190  210.1300  154.7350 O   0  0  0  0  0  0  0  0  0  0  0  0
  155.0020  210.6850  155.8640 C   0  0  0  0  0  0  0  0  0  0  0  0
  153.9950  210.3770  156.7710 O   0  0  0  0  0  1  0  0  0  0  0  0
  155.6090  213.0660  155.9060 C   0  0  0  0  0  2  0  0  0  0  0  0
  156.2860  213.5500  154.7870 O   0  0  0  0  0  0  0  0  0  0  0  0
  155.2850  213.7840  153.8470 C   0  0  0  0  0  1  0  0  0  0  0  0
  1 27  1  6  0  0  0
  1  8  1  0  0  0  0
  1 22  1  0  0  0  0
  3 26  1  0  0  0  0
  4 23  1  0  0  0  0
  5 12  1  0  0  0  0
  5  2  1  0  0  0  0
  7 19  1  6  0  0  0
  7 13  1  0  0  0  0
  9 17  1  0  0  0  0
  9 20  1  1  0  0  0
 10  6  1  6  0  0  0
 10  4  1  0  0  0  0
 10 11  1  0  0  0  0
 11  9  1  0  0  0  0
 11 16  1  1  0  0  0
 12 18  1  0  0  0  0
 12  2  1  6  0  0  0
 13 24  1  1  0  0  0
 14  7  1  0  0  0  0
 14 13  1  0  0  0  0
 15  3  1  0  0  0  0
 17 21  1  1  0  0  0
 17 30  1  0  0  0  0
 18 15  1  1  0  0  0
 19 22  1  0  0  0  0
 23 16  1  0  0  0  0
 24  6  1  0  0  0  0
 25  8  1  6  0  0  0
 25 12  1  0  0  0  0
 25 18  1  0  0  0  0
 26 17  1  0  0  0  0
 28 29  2  0  0  0  0
 29 27  1  0  0  0  0
 30 32  1  0  0  0  0
 32 31  1  6  0  0  0
 33 34  1  0  0  0  0
 33 32  1  0  0  0  0
 34 38  1  6  0  0  0
 35 36  2  0  0  0  0
 36 34  1  0  0  0  0
 36 37  1  0  0  0  0
 39 38  1  0  0  0  0
 40 39  1  0  0  0  0
M  END
>  <MODEL>
1

>  <REMARK>
 VINA RESULT:      -4.5      0.000      0.000
  Name = 
  9 active torsions:
  status: ('A' for Active; 'I' for Inactive)
    1  A    between atoms: C_1  and  S_5
    2  A    between atoms: O_2  and  C_17
    3  A    between atoms: S_5  and  C_35
    4  A    between atoms: C_6  and  C_17
    5  A    between atoms: C_6  and  C_21
    6  A    between atoms: C_6  and  O_27
    7  A    between atoms: C_19  and  O_27
    8  A    between atoms: C_19  and  N_32
    9  A    between atoms: C_28  and  N_32
                            x       y       z     vdW  Elec       q    Type
                         _______ _______ _______ _____ _____    ______ ____

>  <TORSDO>
F 9

$$$$
=
 OpenBabel11072410513D

 40 44  0  0  1  0  0  0  0  0999 V2000
  161.0980  208.8300  155.2020 C   0  0  2  0  0  3  0  0  0  0  0  0
  161.6210  206.4780  150.6840 C   0  0  0  0  0  2  0  0  0  0  0  0
  162.1230  210.6670  150.5390 S   0  0  0  0  0  0  0  0  0  0  0  0
  158.0480  213.5510  149.4850 O   0  0  0  0  0  0  0  0  0  0  0  0
  160.6570  206.1740  151.6050 O   0  0  0  0  0  0  0  0  0  0  0  0
  159.4200  213.4660  151.4430 C   0  0  0  0  0  2  0  0  0  0  0  0
  159.2810  211.0850  154.0560 C   0  0  2  0  0  3  0  0  0  0  0  0
  161.8390  207.9280  154.2320 C   0  0  0  0  0  2  0  0  0  0  0  0
  161.6370  213.4230  148.9390 C   0  0  1  0  0  3  0  0  0  0  0  0
  159.3070  213.2020  149.9530 C   0  0  2  0  0  3  0  0  0  0  0  0
  160.2620  214.0710  149.2000 C   0  0  2  0  0  3  0  0  0  0  0  0
  161.8000  206.8370  152.1440 C   0  0  2  0  0  0  0  0  0  0  0  0
  158.9740  212.4750  153.6610 C   0  0  2  0  0  3  0  0  0  0  0  0
  158.0670  211.7000  154.4060 O   0  0  0  0  0  0  0  0  0  0  0  0
  161.2190  209.1540  150.9590 C   0  0  0  0  0  2  0  0  0  0  0  0
  159.6180  214.4510  148.0250 O   0  0  0  0  0  0  0  0  0  0  0  0
  161.6480  212.0740  148.1700 C   0  0  1  0  0  0  0  0  0  0  0  0
  162.0450  208.3290  151.9560 C   0  0  1  0  0  3  0  0  0  0  0  0
  160.1750  211.0870  155.2020 N   0  0  0  0  0  2  0  0  0  0  0  0
  162.5680  214.4530  148.3140 C   0  0  0  0  0  1  0  0  0  0  0  0
  162.9690  211.7500  147.8280 O   0  0  0  0  0  1  0  0  0  0  0  0
  161.3310  210.2870  154.8320 C   0  0  0  0  0  2  0  0  0  0  0  0
  158.2840  214.0250  148.1830 C   0  0  0  0  0  2  0  0  0  0  0  0
  158.5530  212.4860  152.2090 C   0  0  0  0  0  2  0  0  0  0  0  0
  161.1290  207.8810  152.9650 N   0  0  2  0  0  0  0  0  0  0  0  0
  161.0900  210.9550  149.0640 C   0  0  0  0  0  2  0  0  0  0  0  0
  161.6970  208.5250  156.8890 S   0  0  0  0  0  0  0  0  0  0  0  0
  159.3480  207.3240  156.4520 N   0  0  0  0  0  2  0  0  0  0  0  0
  160.3410  207.4140  157.2560 C   0  0  0  0  0  3  0  0  0  0  0  0
  160.8410  212.1940  146.9490 N   0  0  0  0  0  2  0  0  0  0  0  0
  163.0830  212.4900  145.9660 C   0  0  0  0  0  1  0  0  0  0  0  0
  161.6020  212.8350  145.8720 C   0  0  1  0  0  3  0  0  0  0  0  0
  161.0540  212.5650  144.5960 O   0  0  0  0  0  0  0  0  0  0  0  0
  160.7080  213.7760  143.9670 C   0  0  2  0  0  3  0  0  0  0  0  0
  158.4040  213.7950  144.5710 O   0  0  0  0  0  1  0  0  0  0  0  0
  159.2520  213.7810  143.6410 C   0  0  0  0  0  0  0  0  0  0  0  0
  158.8270  213.7890  142.3180 O   0  0  0  0  0  0  0  0  0  0  0  0
  161.5100  213.9420  142.6860 C   0  0  0  0  0  2  0  0  0  0  0  0
  162.2840  212.8050  142.4560 O   0  0  0  0  0  0  0  0  0  0  0  0
  161.9120  212.3810  141.1820 C   0  0  0  0  0  1  0  0  0  0  0  0
  1 27  1  1  0  0  0
  2  5  1  0  0  0  0
  3 15  1  0  0  0  0
  4 10  1  0  0  0  0
  5 12  1  0  0  0  0
  6 24  1  0  0  0  0
  7 14  1  1  0  0  0
  7 19  1  0  0  0  0
  8  1  1  0  0  0  0
  9 20  1  6  0  0  0
  9 11  1  0  0  0  0
 10  6  1  1  0  0  0
 11 16  1  6  0  0  0
 11 10  1  0  0  0  0
 12  2  1  1  0  0  0
 12 25  1  0  0  0  0
 13 24  1  6  0  0  0
 13  7  1  0  0  0  0
 13 14  1  0  0  0  0
 16 23  1  0  0  0  0
 17 21  1  6  0  0  0
 17  9  1  0  0  0  0
 17 26  1  0  0  0  0
 18 15  1  6  0  0  0
 18 12  1  0  0  0  0
 18 25  1  0  0  0  0
 22  1  1  0  0  0  0
 22 19  1  0  0  0  0
 23  4  1  0  0  0  0
 25  8  1  1  0  0  0
 26  3  1  0  0  0  0
 27 29  1  0  0  0  0
 28 29  2  0  0  0  0
 30 17  1  0  0  0  0
 32 31  1  6  0  0  0
 32 30  1  0  0  0  0
 33 32  1  0  0  0  0
 34 38  1  6  0  0  0
 34 33  1  0  0  0  0
 36 34  1  0  0  0  0
 36 35  1  0  0  0  0
 37 36  2  0  0  0  0
 39 38  1  0  0  0  0
 40 39  1  0  0  0  0
M  END
>  <MODEL>
2

>  <REMARK>
 VINA RESULT:      -2.9      2.885      9.627
  Name = 
  9 active torsions:
  status: ('A' for Active; 'I' for Inactive)
    1  A    between atoms: C_1  and  S_5
    2  A    between atoms: O_2  and  C_17
    3  A    between atoms: S_5  and  C_35
    4  A    between atoms: C_6  and  C_17
    5  A    between atoms: C_6  and  C_21
    6  A    between atoms: C_6  and  O_27
    7  A    between atoms: C_19  and  O_27
    8  A    between atoms: C_19  and  N_32
    9  A    between atoms: C_28  and  N_32
                            x       y       z     vdW  Elec       q    Type
                         _______ _______ _______ _____ _____    ______ ____

>  <TORSDO>
F 9

$$$$
