=
 OpenBabel11072413583D

 29 31  0  0  1  0  0  0  0  0999 V2000
  161.8840  210.3160  151.4390 C   0  0  1  0  0  3  0  0  0  0  0  0
  161.2560  209.9220  153.7040 N   0  0  0  0  0  0  0  0  0  0  0  0
  160.4860  210.8780  151.6680 C   0  0  2  0  0  3  0  0  0  0  0  0
  160.4310  212.2100  151.2450 O   0  0  0  0  0  1  0  0  0  0  0  0
  160.1650  210.7080  153.1530 C   0  0  2  0  0  3  0  0  0  0  0  0
  162.3230  209.6850  152.7500 C   0  0  0  0  0  2  0  0  0  0  0  0
  161.1370  209.1690  154.9250 C   0  0  0  0  0  0  0  0  0  0  0  0
  160.1390  207.3460  156.1660 C   0  0  0  0  0  3  0  0  0  0  0  0
  160.8640  207.6960  157.2610 N   0  0  0  0  0  0  0  0  0  0  0  0
  160.2610  208.0760  154.9840 C   0  0  0  0  0  3  0  0  0  0  0  0
  161.8740  209.5110  156.0760 C   0  0  0  0  0  0  0  0  0  0  0  0
  162.7480  210.6350  156.0910 N   0  0  0  0  0  1  0  0  0  0  0  0
  161.7150  208.7550  157.2400 C   0  0  0  0  0  3  0  0  0  0  0  0
  160.0410  212.0350  153.9050 C   0  0  0  0  0  2  0  0  0  0  0  0
  158.6350  212.4030  154.0600 N   0  0  0  0  0  0  0  0  0  0  0  0
  157.3930  214.0630  152.2890 S   0  0  0  0  0  0  0  0  0  0  0  0
  157.2240  214.3510  154.0920 C   0  0  0  0  0  2  0  0  0  0  0  0
  158.5420  213.8240  153.7190 C   0  0  1  0  0  3  0  0  0  0  0  0
  159.4380  212.1080  156.2590 O   0  0  0  0  0  1  0  0  0  0  0  0
  158.2830  212.2370  155.4790 C   0  0  2  0  0  3  0  0  0  0  0  0
  157.4250  210.9940  155.6830 C   0  0  0  0  0  2  0  0  0  0  0  0
  155.9830  211.3880  155.9450 C   0  0  0  0  0  1  0  0  0  0  0  0
  161.8340  209.3270  150.4520 O   0  0  0  0  0  0  0  0  0  0  0  0
  162.3710  208.1800  151.0450 C   0  0  0  0  0  2  0  0  0  0  0  0
  161.9880  206.9480  150.2370 C   0  0  0  0  0  2  0  0  0  0  0  0
  161.3260  207.3380  148.9250 C   0  0  0  0  0  2  0  0  0  0  0  0
  160.5280  206.1770  148.3650 C   0  0  0  0  0  2  0  0  0  0  0  0
  161.3360  203.8400  148.3610 C   0  0  0  0  0  1  0  0  0  0  0  0
  160.7630  204.9490  149.2180 C   0  0  0  0  0  2  0  0  0  0  0  0
  1 23  1  6  0  0  0
  1  3  1  0  0  0  0
  1  6  1  0  0  0  0
  2  7  1  0  0  0  0
  3  4  1  1  0  0  0
  3  5  1  0  0  0  0
  5  2  1  0  0  0  0
  5 14  1  1  0  0  0
  6  2  1  0  0  0  0
  7 10  2  0  0  0  0
  7 11  1  0  0  0  0
  8  9  2  0  0  0  0
 10  8  1  0  0  0  0
 11 12  1  0  0  0  0
 11 13  2  0  0  0  0
 13  9  1  0  0  0  0
 14 15  1  0  0  0  0
 15 20  1  0  0  0  0
 16 18  1  0  0  0  0
 16 17  1  0  0  0  0
 18 15  1  1  0  0  0
 18 17  1  0  0  0  0
 20 21  1  0  0  0  0
 20 19  1  1  0  0  0
 21 22  1  0  0  0  0
 23 24  1  0  0  0  0
 25 24  1  0  0  0  0
 26 25  1  0  0  0  0
 27 26  1  0  0  0  0
 27 29  1  0  0  0  0
 28 29  1  0  0  0  0
M  END
>  <MODEL>
1

>  <REMARK>
 VINA RESULT:      -5.0      0.000      0.000
  Name = 
  12 active torsions:
  status: ('A' for Active; 'I' for Inactive)
    1  A    between atoms: C_1  and  C_5
    2  A    between atoms: C_1  and  C_12
    3  A    between atoms: C_2  and  O_19
    4  A    between atoms: C_4  and  N_14
    5  A    between atoms: C_5  and  C_8
    6  A    between atoms: C_8  and  C_24
    7  A    between atoms: C_12  and  O_19
    8  A    between atoms: C_16  and  N_20
    9  A    between atoms: C_16  and  C_21
   10  A    between atoms: N_20  and  C_25
   11  A    between atoms: N_20  and  C_27
   12  A    between atoms: C_23  and  C_25
                            x       y       z     vdW  Elec       q    Type
                         _______ _______ _______ _____ _____    ______ ____

>  <TORSDO>
F 12

$$$$
=
 OpenBabel11072413583D

 29 31  0  0  1  0  0  0  0  0999 V2000
  160.8630  205.8700  152.9770 C   0  0  1  0  0  3  0  0  0  0  0  0
  161.1220  207.9370  151.8190 N   0  0  0  0  0  0  0  0  0  0  0  0
  161.2800  206.9450  153.9740 C   0  0  2  0  0  3  0  0  0  0  0  0
  160.3950  206.9610  155.0570 O   0  0  0  0  0  1  0  0  0  0  0  0
  161.3270  208.2730  153.2180 C   0  0  2  0  0  3  0  0  0  0  0  0
  160.8080  206.5350  151.6120 C   0  0  0  0  0  2  0  0  0  0  0  0
  161.5300  208.8000  150.7420 C   0  0  0  0  0  0  0  0  0  0  0  0
  162.2770  210.9710  149.9720 C   0  0  0  0  0  3  0  0  0  0  0  0
  162.3100  210.5050  148.6960 N   0  0  0  0  0  0  0  0  0  0  0  0
  161.8850  210.1290  151.0130 C   0  0  0  0  0  3  0  0  0  0  0  0
  161.5710  208.3450  149.4090 C   0  0  0  0  0  0  0  0  0  0  0  0
  161.1830  207.0200  149.0660 N   0  0  0  0  0  1  0  0  0  0  0  0
  161.9650  209.2250  148.3970 C   0  0  0  0  0  3  0  0  0  0  0  0
  160.2640  209.2730  153.6790 C   0  0  0  0  0  2  0  0  0  0  0  0
  160.8970  210.4600  154.2500 N   0  0  0  0  0  0  0  0  0  0  0  0
  162.8950  210.6320  156.0970 S   0  0  0  0  0  0  0  0  0  0  0  0
  161.2590  211.3840  156.4420 C   0  0  0  0  0  2  0  0  0  0  0  0
  161.1650  210.1490  155.6550 C   0  0  1  0  0  3  0  0  0  0  0  0
  158.6200  211.0690  154.3650 O   0  0  0  0  0  1  0  0  0  0  0  0
  159.9200  211.5590  154.1920 C   0  0  2  0  0  3  0  0  0  0  0  0
  159.9880  212.2750  152.8480 C   0  0  0  0  0  2  0  0  0  0  0  0
  158.6060  212.3660  152.2300 C   0  0  0  0  0  1  0  0  0  0  0  0
  161.8260  204.8570  152.9510 O   0  0  0  0  0  0  0  0  0  0  0  0
  161.7550  204.3060  151.6680 C   0  0  0  0  0  2  0  0  0  0  0  0
  161.3600  202.8380  151.7530 C   0  0  0  0  0  2  0  0  0  0  0  0
  160.7970  202.3460  150.4280 C   0  0  0  0  0  2  0  0  0  0  0  0
  160.7940  203.4610  149.4020 C   0  0  0  0  0  2  0  0  0  0  0  0
  161.8850  204.0100  147.2530 C   0  0  0  0  0  1  0  0  0  0  0  0
  161.2310  202.9100  148.0610 C   0  0  0  0  0  2  0  0  0  0  0  0
  1 23  1  6  0  0  0
  1  3  1  0  0  0  0
  2  5  1  0  0  0  0
  3  4  1  1  0  0  0
  5 14  1  1  0  0  0
  5  3  1  0  0  0  0
  6  2  1  0  0  0  0
  6  1  1  0  0  0  0
  7 10  1  0  0  0  0
  7  2  1  0  0  0  0
  8 10  2  0  0  0  0
  9  8  1  0  0  0  0
 11  7  2  0  0  0  0
 12 11  1  0  0  0  0
 13  9  2  0  0  0  0
 13 11  1  0  0  0  0
 14 15  1  0  0  0  0
 16 17  1  0  0  0  0
 18 15  1  6  0  0  0
 18 16  1  0  0  0  0
 18 17  1  0  0  0  0
 20 15  1  0  0  0  0
 20 19  1  6  0  0  0
 21 20  1  0  0  0  0
 22 21  1  0  0  0  0
 24 25  1  0  0  0  0
 24 23  1  0  0  0  0
 26 25  1  0  0  0  0
 27 26  1  0  0  0  0
 28 29  1  0  0  0  0
 29 27  1  0  0  0  0
M  END
>  <MODEL>
2

>  <REMARK>
 VINA RESULT:      -5.0      2.956      5.136
  Name = 
  12 active torsions:
  status: ('A' for Active; 'I' for Inactive)
    1  A    between atoms: C_1  and  C_5
    2  A    between atoms: C_1  and  C_12
    3  A    between atoms: C_2  and  O_19
    4  A    between atoms: C_4  and  N_14
    5  A    between atoms: C_5  and  C_8
    6  A    between atoms: C_8  and  C_24
    7  A    between atoms: C_12  and  O_19
    8  A    between atoms: C_16  and  N_20
    9  A    between atoms: C_16  and  C_21
   10  A    between atoms: N_20  and  C_25
   11  A    between atoms: N_20  and  C_27
   12  A    between atoms: C_23  and  C_25
                            x       y       z     vdW  Elec       q    Type
                         _______ _______ _______ _____ _____    ______ ____

>  <TORSDO>
F 12

$$$$
=
 OpenBabel11072413583D

 29 31  0  0  1  0  0  0  0  0999 V2000
  162.3090  207.8010  150.0190 C   0  0  1  0  0  3  0  0  0  0  0  0
  161.8730  206.3250  148.1980 N   0  0  0  0  0  0  0  0  0  0  0  0
  161.3000  206.7490  150.4670 C   0  0  2  0  0  3  0  0  0  0  0  0
  161.7360  206.1430  151.6500 O   0  0  0  0  0  1  0  0  0  0  0  0
  161.1320  205.7600  149.3130 C   0  0  2  0  0  3  0  0  0  0  0  0
  162.6200  207.5160  148.5590 C   0  0  0  0  0  2  0  0  0  0  0  0
  161.6170  205.9650  146.8290 C   0  0  0  0  0  0  0  0  0  0  0  0
  160.1660  206.0150  144.8910 C   0  0  0  0  0  3  0  0  0  0  0  0
  161.0740  205.2830  144.1940 N   0  0  0  0  0  0  0  0  0  0  0  0
  160.4200  206.3650  146.2160 C   0  0  0  0  0  3  0  0  0  0  0  0
  162.5390  205.2040  146.0830 C   0  0  0  0  0  0  0  0  0  0  0  0
  163.7510  204.7330  146.6610 N   0  0  0  0  0  1  0  0  0  0  0  0
  162.2400  204.8710  144.7590 C   0  0  0  0  0  3  0  0  0  0  0  0
  161.6540  204.3570  149.6340 C   0  0  0  0  0  2  0  0  0  0  0  0
  160.6710  203.3480  149.2470 N   0  0  0  0  0  0  0  0  0  0  0  0
  161.8490  202.7050  151.6210 S   0  0  0  0  0  0  0  0  0  0  0  0
  160.1400  203.3680  151.5940 C   0  0  0  0  0  2  0  0  0  0  0  0
  160.4420  202.5210  150.4340 C   0  0  1  0  0  3  0  0  0  0  0  0
  160.6220  202.6950  146.9800 O   0  0  0  0  0  1  0  0  0  0  0  0
  161.2780  202.5090  148.2020 C   0  0  2  0  0  3  0  0  0  0  0  0
  161.1900  201.0330  148.5740 C   0  0  0  0  0  2  0  0  0  0  0  0
  161.5520  200.1680  147.3810 C   0  0  0  0  0  1  0  0  0  0  0  0
  161.7350  209.0720  150.1230 O   0  0  0  0  0  0  0  0  0  0  0  0
  162.2150  209.6010  151.3260 C   0  0  0  0  0  2  0  0  0  0  0  0
  161.1960  210.5660  151.9140 C   0  0  0  0  0  2  0  0  0  0  0  0
  160.3030  209.8680  152.9280 C   0  0  0  0  0  2  0  0  0  0  0  0
  161.0970  208.8610  153.7350 C   0  0  0  0  0  2  0  0  0  0  0  0
  160.3820  207.1510  155.3700 C   0  0  0  0  0  1  0  0  0  0  0  0
  160.4140  208.6330  155.0670 C   0  0  0  0  0  2  0  0  0  0  0  0
  1 23  1  6  0  0  0
  1  3  1  0  0  0  0
  2  6  1  0  0  0  0
  2  5  1  0  0  0  0
  3  4  1  1  0  0  0
  5 14  1  1  0  0  0
  5  3  1  0  0  0  0
  6  1  1  0  0  0  0
  7  2  1  0  0  0  0
  8 10  2  0  0  0  0
  9 13  2  0  0  0  0
  9  8  1  0  0  0  0
 10  7  1  0  0  0  0
 11 12  1  0  0  0  0
 11  7  2  0  0  0  0
 13 11  1  0  0  0  0
 15 14  1  0  0  0  0
 17 16  1  0  0  0  0
 18 15  1  6  0  0  0
 18 17  1  0  0  0  0
 18 16  1  0  0  0  0
 20 19  1  6  0  0  0
 20 21  1  0  0  0  0
 20 15  1  0  0  0  0
 22 21  1  0  0  0  0
 23 24  1  0  0  0  0
 24 25  1  0  0  0  0
 25 26  1  0  0  0  0
 26 27  1  0  0  0  0
 27 29  1  0  0  0  0
 29 28  1  0  0  0  0
M  END
>  <MODEL>
3

>  <REMARK>
 VINA RESULT:      -4.9      4.712      9.430
  Name = 
  12 active torsions:
  status: ('A' for Active; 'I' for Inactive)
    1  A    between atoms: C_1  and  C_5
    2  A    between atoms: C_1  and  C_12
    3  A    between atoms: C_2  and  O_19
    4  A    between atoms: C_4  and  N_14
    5  A    between atoms: C_5  and  C_8
    6  A    between atoms: C_8  and  C_24
    7  A    between atoms: C_12  and  O_19
    8  A    between atoms: C_16  and  N_20
    9  A    between atoms: C_16  and  C_21
   10  A    between atoms: N_20  and  C_25
   11  A    between atoms: N_20  and  C_27
   12  A    between atoms: C_23  and  C_25
                            x       y       z     vdW  Elec       q    Type
                         _______ _______ _______ _____ _____    ______ ____

>  <TORSDO>
F 12

$$$$
=
 OpenBabel11072413583D

 29 31  0  0  1  0  0  0  0  0999 V2000
  161.0600  209.1350  153.2480 C   0  0  1  0  0  3  0  0  0  0  0  0
  159.5800  210.8290  154.0380 N   0  0  0  0  0  0  0  0  0  0  0  0
  160.4810  209.8820  152.0510 C   0  0  2  0  0  3  0  0  0  0  0  0
  161.5140  210.3190  151.2150 O   0  0  0  0  0  1  0  0  0  0  0  0
  159.6280  211.0270  152.5990 C   0  0  2  0  0  3  0  0  0  0  0  0
  160.4340  209.7460  154.4900 C   0  0  0  0  0  2  0  0  0  0  0  0
  158.5490  211.3920  154.8690 C   0  0  0  0  0  0  0  0  0  0  0  0
  156.2000  211.6590  155.3930 C   0  0  0  0  0  3  0  0  0  0  0  0
  156.5260  212.4670  156.4360 N   0  0  0  0  0  0  0  0  0  0  0  0
  157.2030  211.1120  154.5930 C   0  0  0  0  0  3  0  0  0  0  0  0
  158.8570  212.2350  155.9550 C   0  0  0  0  0  0  0  0  0  0  0  0
  160.2020  212.5900  156.2600 N   0  0  0  0  0  1  0  0  0  0  0  0
  157.8200  212.7660  156.7260 C   0  0  0  0  0  3  0  0  0  0  0  0
  160.1920  212.4130  152.2780 C   0  0  0  0  0  2  0  0  0  0  0  0
  159.4840  213.0000  151.1430 N   0  0  0  0  0  0  0  0  0  0  0  0
  160.5500  212.8720  148.6370 S   0  0  0  0  0  0  0  0  0  0  0  0
  159.8650  214.4530  149.2640 C   0  0  0  0  0  2  0  0  0  0  0  0
  160.5010  213.6500  150.3140 C   0  0  1  0  0  3  0  0  0  0  0  0
  158.9100  214.3520  152.9900 O   0  0  0  0  0  1  0  0  0  0  0  0
  158.5770  214.0340  151.6680 C   0  0  2  0  0  3  0  0  0  0  0  0
  157.1320  213.5510  151.6390 C   0  0  0  0  0  2  0  0  0  0  0  0
  156.4660  213.9630  150.3390 C   0  0  0  0  0  1  0  0  0  0  0  0
  160.7030  207.7860  153.1740 O   0  0  0  0  0  0  0  0  0  0  0  0
  161.8060  207.1370  152.6090 C   0  0  0  0  0  2  0  0  0  0  0  0
  161.3380  206.0620  151.6390 C   0  0  0  0  0  2  0  0  0  0  0  0
  161.2610  204.7050  152.3220 C   0  0  0  0  0  2  0  0  0  0  0  0
  160.8200  203.6390  151.3390 C   0  0  0  0  0  2  0  0  0  0  0  0
  160.8710  202.9480  148.9660 C   0  0  0  0  0  1  0  0  0  0  0  0
  161.1930  204.0650  149.9350 C   0  0  0  0  0  2  0  0  0  0  0  0
  1 23  1  6  0  0  0
  1  6  1  0  0  0  0
  2  6  1  0  0  0  0
  2  7  1  0  0  0  0
  3  4  1  6  0  0  0
  3  5  1  0  0  0  0
  3  1  1  0  0  0  0
  5 14  1  1  0  0  0
  5  2  1  0  0  0  0
  7 11  1  0  0  0  0
  8  9  2  0  0  0  0
  9 13  1  0  0  0  0
 10  7  2  0  0  0  0
 10  8  1  0  0  0  0
 11 12  1  0  0  0  0
 11 13  2  0  0  0  0
 15 20  1  0  0  0  0
 15 14  1  0  0  0  0
 16 17  1  0  0  0  0
 16 18  1  0  0  0  0
 17 18  1  0  0  0  0
 18 15  1  1  0  0  0
 20 19  1  1  0  0  0
 21 20  1  0  0  0  0
 22 21  1  0  0  0  0
 24 23  1  0  0  0  0
 25 26  1  0  0  0  0
 25 24  1  0  0  0  0
 27 26  1  0  0  0  0
 28 29  1  0  0  0  0
 29 27  1  0  0  0  0
M  END
>  <MODEL>
4

>  <REMARK>
 VINA RESULT:      -4.7      2.428      3.809
  Name = 
  12 active torsions:
  status: ('A' for Active; 'I' for Inactive)
    1  A    between atoms: C_1  and  C_5
    2  A    between atoms: C_1  and  C_12
    3  A    between atoms: C_2  and  O_19
    4  A    between atoms: C_4  and  N_14
    5  A    between atoms: C_5  and  C_8
    6  A    between atoms: C_8  and  C_24
    7  A    between atoms: C_12  and  O_19
    8  A    between atoms: C_16  and  N_20
    9  A    between atoms: C_16  and  C_21
   10  A    between atoms: N_20  and  C_25
   11  A    between atoms: N_20  and  C_27
   12  A    between atoms: C_23  and  C_25
                            x       y       z     vdW  Elec       q    Type
                         _______ _______ _______ _____ _____    ______ ____

>  <TORSDO>
F 12

$$$$
=
 OpenBabel11072413583D

 29 31  0  0  1  0  0  0  0  0999 V2000
  161.5880  205.4880  152.9640 C   0  0  1  0  0  3  0  0  0  0  0  0
  161.8460  206.9020  151.0630 N   0  0  0  0  0  0  0  0  0  0  0  0
  160.8550  204.8630  151.7810 C   0  0  2  0  0  3  0  0  0  0  0  0
  161.2650  203.5370  151.6120 O   0  0  0  0  0  1  0  0  0  0  0  0
  161.1370  205.7380  150.5590 C   0  0  2  0  0  3  0  0  0  0  0  0
  162.1740  206.8010  152.4730 C   0  0  0  0  0  2  0  0  0  0  0  0
  161.9020  208.1510  150.3490 C   0  0  0  0  0  0  0  0  0  0  0  0
  162.0280  209.3560  148.2530 C   0  0  0  0  0  3  0  0  0  0  0  0
  162.0230  210.5340  148.9320 N   0  0  0  0  0  0  0  0  0  0  0  0
  161.9710  208.1490  148.9490 C   0  0  0  0  0  3  0  0  0  0  0  0
  161.9000  209.3870  151.0270 C   0  0  0  0  0  0  0  0  0  0  0  0
  161.8730  209.4530  152.4480 N   0  0  0  0  0  1  0  0  0  0  0  0
  161.9650  210.5720  150.2890 C   0  0  0  0  0  3  0  0  0  0  0  0
  161.9750  205.0350  149.4880 C   0  0  0  0  0  2  0  0  0  0  0  0
  161.1080  204.3360  148.5420 N   0  0  0  0  0  0  0  0  0  0  0  0
  160.0440  201.8640  148.9830 S   0  0  0  0  0  0  0  0  0  0  0  0
  160.9550  202.2090  147.4290 C   0  0  0  0  0  2  0  0  0  0  0  0
  161.5050  202.9270  148.5840 C   0  0  1  0  0  3  0  0  0  0  0  0
  162.7180  205.3100  147.1190 O   0  0  0  0  0  1  0  0  0  0  0  0
  161.3940  204.8630  147.1990 C   0  0  2  0  0  3  0  0  0  0  0  0
  160.4730  206.0320  146.8680 C   0  0  0  0  0  2  0  0  0  0  0  0
  160.3340  206.1830  145.3640 C   0  0  0  0  0  1  0  0  0  0  0  0
  160.6770  205.7510  153.9910 O   0  0  0  0  0  0  0  0  0  0  0  0
  161.0000  207.0290  154.4580 C   0  0  0  0  0  2  0  0  0  0  0  0
  160.1910  207.3470  155.7080 C   0  0  0  0  0  2  0  0  0  0  0  0
  160.6520  208.6500  156.3420 C   0  0  0  0  0  2  0  0  0  0  0  0
  160.0840  209.8380  155.5920 C   0  0  0  0  0  2  0  0  0  0  0  0
  162.4410  210.5250  155.8810 C   0  0  0  0  0  1  0  0  0  0  0  0
  161.0170  211.0210  155.7440 C   0  0  0  0  0  2  0  0  0  0  0  0
  1 23  1  1  0  0  0
  2  6  1  0  0  0  0
  3  4  1  6  0  0  0
  3  1  1  0  0  0  0
  5 14  1  6  0  0  0
  5  2  1  0  0  0  0
  5  3  1  0  0  0  0
  6  1  1  0  0  0  0
  7 11  1  0  0  0  0
  7  2  1  0  0  0  0
  8  9  2  0  0  0  0
  8 10  1  0  0  0  0
  9 13  1  0  0  0  0
 10  7  2  0  0  0  0
 11 12  1  0  0  0  0
 13 11  2  0  0  0  0
 15 14  1  0  0  0  0
 17 18  1  0  0  0  0
 17 16  1  0  0  0  0
 18 15  1  6  0  0  0
 18 16  1  0  0  0  0
 20 19  1  1  0  0  0
 20 15  1  0  0  0  0
 21 20  1  0  0  0  0
 22 21  1  0  0  0  0
 23 24  1  0  0  0  0
 24 25  1  0  0  0  0
 25 26  1  0  0  0  0
 27 29  1  0  0  0  0
 27 26  1  0  0  0  0
 29 28  1  0  0  0  0
M  END
>  <MODEL>
5

>  <REMARK>
 VINA RESULT:      -4.6      4.046      8.554
  Name = 
  12 active torsions:
  status: ('A' for Active; 'I' for Inactive)
    1  A    between atoms: C_1  and  C_5
    2  A    between atoms: C_1  and  C_12
    3  A    between atoms: C_2  and  O_19
    4  A    between atoms: C_4  and  N_14
    5  A    between atoms: C_5  and  C_8
    6  A    between atoms: C_8  and  C_24
    7  A    between atoms: C_12  and  O_19
    8  A    between atoms: C_16  and  N_20
    9  A    between atoms: C_16  and  C_21
   10  A    between atoms: N_20  and  C_25
   11  A    between atoms: N_20  and  C_27
   12  A    between atoms: C_23  and  C_25
                            x       y       z     vdW  Elec       q    Type
                         _______ _______ _______ _____ _____    ______ ____

>  <TORSDO>
F 12

$$$$
=
 OpenBabel11072413583D

 29 31  0  0  1  0  0  0  0  0999 V2000
  162.0000  207.4860  148.2050 C   0  0  1  0  0  3  0  0  0  0  0  0
  161.6530  205.9030  149.9530 N   0  0  0  0  0  0  0  0  0  0  0  0
  161.2760  208.1740  149.3570 C   0  0  2  0  0  3  0  0  0  0  0  0
  161.9560  209.3410  149.7200 O   0  0  0  0  0  1  0  0  0  0  0  0
  161.1710  207.1620  150.4980 C   0  0  2  0  0  3  0  0  0  0  0  0
  162.1890  206.0340  148.6110 C   0  0  0  0  0  2  0  0  0  0  0  0
  161.3140  204.6260  150.5240 C   0  0  0  0  0  0  0  0  0  0  0  0
  160.8320  203.2690  152.4710 C   0  0  0  0  0  3  0  0  0  0  0  0
  160.6750  202.1820  151.6720 N   0  0  0  0  0  0  0  0  0  0  0  0
  161.1560  204.5050  151.9120 C   0  0  0  0  0  3  0  0  0  0  0  0
  161.1480  203.4810  149.7210 C   0  0  0  0  0  0  0  0  0  0  0  0
  161.3360  203.5310  148.3110 N   0  0  0  0  0  1  0  0  0  0  0  0
  160.8290  202.2620  150.3240 C   0  0  0  0  0  3  0  0  0  0  0  0
  161.9920  207.5480  151.7310 C   0  0  0  0  0  2  0  0  0  0  0  0
  161.1360  208.1780  152.7340 N   0  0  0  0  0  0  0  0  0  0  0  0
  160.0760  210.6890  152.7710 S   0  0  0  0  0  0  0  0  0  0  0  0
  161.1960  210.1460  154.1170 C   0  0  0  0  0  2  0  0  0  0  0  0
  161.5540  209.5790  152.8110 C   0  0  1  0  0  3  0  0  0  0  0  0
  162.3270  206.4840  153.8670 O   0  0  0  0  0  1  0  0  0  0  0  0
  161.4150  207.5340  154.0280 C   0  0  2  0  0  3  0  0  0  0  0  0
  160.1370  206.9700  154.6390 C   0  0  0  0  0  2  0  0  0  0  0  0
  160.0570  207.3270  156.1110 C   0  0  0  0  0  1  0  0  0  0  0  0
  161.2050  207.5380  147.0560 O   0  0  0  0  0  0  0  0  0  0  0  0
  160.9940  206.2050  146.6870 C   0  0  0  0  0  2  0  0  0  0  0  0
  160.4590  206.1380  145.2640 C   0  0  0  0  0  2  0  0  0  0  0  0
  161.2090  205.0980  144.4460 C   0  0  0  0  0  2  0  0  0  0  0  0
  161.3790  203.8170  145.2380 C   0  0  0  0  0  2  0  0  0  0  0  0
  160.4570  201.5590  145.6390 C   0  0  0  0  0  1  0  0  0  0  0  0
  160.2630  202.8560  144.8830 C   0  0  0  0  0  2  0  0  0  0  0  0
  1 23  1  6  0  0  0
  1  6  1  0  0  0  0
  1  3  1  0  0  0  0
  2  5  1  0  0  0  0
  2  7  1  0  0  0  0
  3  4  1  1  0  0  0
  3  5  1  0  0  0  0
  5 14  1  1  0  0  0
  6  2  1  0  0  0  0
  7 10  1  0  0  0  0
  9  8  1  0  0  0  0
 10  8  2  0  0  0  0
 11 13  1  0  0  0  0
 11  7  2  0  0  0  0
 12 11  1  0  0  0  0
 13  9  2  0  0  0  0
 14 15  1  0  0  0  0
 15 20  1  0  0  0  0
 16 18  1  0  0  0  0
 16 17  1  0  0  0  0
 18 15  1  1  0  0  0
 18 17  1  0  0  0  0
 20 19  1  6  0  0  0
 20 21  1  0  0  0  0
 21 22  1  0  0  0  0
 24 23  1  0  0  0  0
 25 24  1  0  0  0  0
 26 27  1  0  0  0  0
 26 25  1  0  0  0  0
 29 27  1  0  0  0  0
 29 28  1  0  0  0  0
M  END
>  <MODEL>
6

>  <REMARK>
 VINA RESULT:      -4.6      3.381      5.815
  Name = 
  12 active torsions:
  status: ('A' for Active; 'I' for Inactive)
    1  A    between atoms: C_1  and  C_5
    2  A    between atoms: C_1  and  C_12
    3  A    between atoms: C_2  and  O_19
    4  A    between atoms: C_4  and  N_14
    5  A    between atoms: C_5  and  C_8
    6  A    between atoms: C_8  and  C_24
    7  A    between atoms: C_12  and  O_19
    8  A    between atoms: C_16  and  N_20
    9  A    between atoms: C_16  and  C_21
   10  A    between atoms: N_20  and  C_25
   11  A    between atoms: N_20  and  C_27
   12  A    between atoms: C_23  and  C_25
                            x       y       z     vdW  Elec       q    Type
                         _______ _______ _______ _____ _____    ______ ____

>  <TORSDO>
F 12

$$$$
=
 OpenBabel11072413583D

 29 31  0  0  1  0  0  0  0  0999 V2000
  162.2130  207.8850  149.9300 C   0  0  1  0  0  3  0  0  0  0  0  0
  161.8430  206.3170  148.1740 N   0  0  0  0  0  0  0  0  0  0  0  0
  161.2060  206.8430  150.4040 C   0  0  2  0  0  3  0  0  0  0  0  0
  161.6170  206.3010  151.6250 O   0  0  0  0  0  1  0  0  0  0  0  0
  161.0800  205.7960  149.2960 C   0  0  2  0  0  3  0  0  0  0  0  0
  162.5660  207.5330  148.4950 C   0  0  0  0  0  2  0  0  0  0  0  0
  161.6280  205.8860  146.8180 C   0  0  0  0  0  0  0  0  0  0  0  0
  160.2210  205.8070  144.8490 C   0  0  0  0  0  3  0  0  0  0  0  0
  161.1630  205.0670  144.2070 N   0  0  0  0  0  0  0  0  0  0  0  0
  160.4360  206.2260  146.1620 C   0  0  0  0  0  3  0  0  0  0  0  0
  162.5860  205.1150  146.1290 C   0  0  0  0  0  0  0  0  0  0  0  0
  163.7960  204.7040  146.7550 N   0  0  0  0  0  1  0  0  0  0  0  0
  162.3260  204.7140  144.8160 C   0  0  0  0  0  3  0  0  0  0  0  0
  161.6110  204.4180  149.6990 C   0  0  0  0  0  2  0  0  0  0  0  0
  160.6470  203.3790  149.3440 N   0  0  0  0  0  0  0  0  0  0  0  0
  161.9580  202.6670  151.6270 S   0  0  0  0  0  0  0  0  0  0  0  0
  160.2900  203.4250  151.7230 C   0  0  0  0  0  2  0  0  0  0  0  0
  160.4600  202.5640  150.5460 C   0  0  1  0  0  3  0  0  0  0  0  0
  160.5840  202.7020  147.0840 O   0  0  0  0  0  1  0  0  0  0  0  0
  161.2580  202.5400  148.3010 C   0  0  2  0  0  3  0  0  0  0  0  0
  161.2010  201.0660  148.6880 C   0  0  0  0  0  2  0  0  0  0  0  0
  161.5860  200.1970  147.5060 C   0  0  0  0  0  1  0  0  0  0  0  0
  161.6220  209.1520  149.9570 O   0  0  0  0  0  0  0  0  0  0  0  0
  162.0010  209.7660  148.7590 C   0  0  0  0  0  2  0  0  0  0  0  0
  162.2230  211.2550  148.9850 C   0  0  0  0  0  2  0  0  0  0  0  0
  161.5780  212.0790  147.8800 C   0  0  0  0  0  2  0  0  0  0  0  0
  162.3160  213.3890  147.6930 C   0  0  0  0  0  2  0  0  0  0  0  0
  161.1260  212.9930  145.5620 C   0  0  0  0  0  1  0  0  0  0  0  0
  162.1590  213.8520  146.2600 C   0  0  0  0  0  2  0  0  0  0  0  0
  1 23  1  6  0  0  0
  1  3  1  0  0  0  0
  2  6  1  0  0  0  0
  2  5  1  0  0  0  0
  3  4  1  1  0  0  0
  5 14  1  1  0  0  0
  5  3  1  0  0  0  0
  6  1  1  0  0  0  0
  7  2  1  0  0  0  0
  8 10  2  0  0  0  0
  9 13  2  0  0  0  0
  9  8  1  0  0  0  0
 10  7  1  0  0  0  0
 11 12  1  0  0  0  0
 11  7  2  0  0  0  0
 13 11  1  0  0  0  0
 15 14  1  0  0  0  0
 16 17  1  0  0  0  0
 18 15  1  6  0  0  0
 18 16  1  0  0  0  0
 18 17  1  0  0  0  0
 20 19  1  6  0  0  0
 20 21  1  0  0  0  0
 20 15  1  0  0  0  0
 22 21  1  0  0  0  0
 24 25  1  0  0  0  0
 24 23  1  0  0  0  0
 26 25  1  0  0  0  0
 27 26  1  0  0  0  0
 28 29  1  0  0  0  0
 29 27  1  0  0  0  0
M  END
>  <MODEL>
7

>  <REMARK>
 VINA RESULT:      -4.5      6.070      9.592
  Name = 
  12 active torsions:
  status: ('A' for Active; 'I' for Inactive)
    1  A    between atoms: C_1  and  C_5
    2  A    between atoms: C_1  and  C_12
    3  A    between atoms: C_2  and  O_19
    4  A    between atoms: C_4  and  N_14
    5  A    between atoms: C_5  and  C_8
    6  A    between atoms: C_8  and  C_24
    7  A    between atoms: C_12  and  O_19
    8  A    between atoms: C_16  and  N_20
    9  A    between atoms: C_16  and  C_21
   10  A    between atoms: N_20  and  C_25
   11  A    between atoms: N_20  and  C_27
   12  A    between atoms: C_23  and  C_25
                            x       y       z     vdW  Elec       q    Type
                         _______ _______ _______ _____ _____    ______ ____

>  <TORSDO>
F 12

$$$$
=
 OpenBabel11072413583D

 29 31  0  0  1  0  0  0  0  0999 V2000
  161.3690  207.9420  150.2480 C   0  0  1  0  0  3  0  0  0  0  0  0
  161.0750  205.6220  149.7890 N   0  0  0  0  0  0  0  0  0  0  0  0
  161.9870  207.6260  148.8900 C   0  0  2  0  0  3  0  0  0  0  0  0
  161.4890  208.5040  147.9220 O   0  0  0  0  0  1  0  0  0  0  0  0
  161.6810  206.1590  148.5820 C   0  0  2  0  0  3  0  0  0  0  0  0
  160.8320  206.6330  150.8010 C   0  0  0  0  0  2  0  0  0  0  0  0
  161.0490  204.2140  150.0880 C   0  0  0  0  0  0  0  0  0  0  0  0
  160.8040  201.9240  149.3430 C   0  0  0  0  0  3  0  0  0  0  0  0
  160.9790  201.4910  150.6190 N   0  0  0  0  0  0  0  0  0  0  0  0
  160.8330  203.2880  149.0570 C   0  0  0  0  0  3  0  0  0  0  0  0
  161.2250  203.7370  151.4020 C   0  0  0  0  0  0  0  0  0  0  0  0
  161.4070  204.6290  152.4970 N   0  0  0  0  0  1  0  0  0  0  0  0
  161.1820  202.3610  151.6430 C   0  0  0  0  0  3  0  0  0  0  0  0
  160.7370  205.9720  147.3920 C   0  0  0  0  0  2  0  0  0  0  0  0
  161.3180  205.0440  146.4240 N   0  0  0  0  0  0  0  0  0  0  0  0
  163.8280  204.0030  146.2020 S   0  0  0  0  0  0  0  0  0  0  0  0
  163.1650  205.0930  144.8840 C   0  0  0  0  0  2  0  0  0  0  0  0
  162.7040  205.4720  146.2240 C   0  0  1  0  0  3  0  0  0  0  0  0
  159.6720  206.2600  145.2490 O   0  0  0  0  0  1  0  0  0  0  0  0
  160.5900  205.2080  145.1560 C   0  0  2  0  0  3  0  0  0  0  0  0
  159.8270  203.9360  144.8020 C   0  0  0  0  0  2  0  0  0  0  0  0
  160.5960  202.7140  145.2700 C   0  0  0  0  0  1  0  0  0  0  0  0
  162.3570  208.4290  151.1080 O   0  0  0  0  0  0  0  0  0  0  0  0
  161.8830  209.6640  151.5620 C   0  0  0  0  0  2  0  0  0  0  0  0
  161.8420  209.6800  153.0830 C   0  0  0  0  0  2  0  0  0  0  0  0
  160.5010  209.1840  153.6010 C   0  0  0  0  0  2  0  0  0  0  0  0
  160.6940  208.0260  154.5580 C   0  0  0  0  0  2  0  0  0  0  0  0
  160.4180  207.2980  156.9050 C   0  0  0  0  0  1  0  0  0  0  0  0
  160.0680  208.3690  155.8940 C   0  0  0  0  0  2  0  0  0  0  0  0
  1  6  1  0  0  0  0
  1 23  1  1  0  0  0
  2  7  1  0  0  0  0
  2  6  1  0  0  0  0
  3  4  1  6  0  0  0
  3  1  1  0  0  0  0
  5 14  1  6  0  0  0
  5  3  1  0  0  0  0
  5  2  1  0  0  0  0
  7 11  1  0  0  0  0
  8  9  2  0  0  0  0
  9 13  1  0  0  0  0
 10  8  1  0  0  0  0
 10  7  2  0  0  0  0
 11 13  2  0  0  0  0
 11 12  1  0  0  0  0
 15 14  1  0  0  0  0
 16 18  1  0  0  0  0
 17 16  1  0  0  0  0
 17 18  1  0  0  0  0
 18 15  1  6  0  0  0
 20 19  1  1  0  0  0
 20 15  1  0  0  0  0
 21 20  1  0  0  0  0
 21 22  1  0  0  0  0
 23 24  1  0  0  0  0
 24 25  1  0  0  0  0
 25 26  1  0  0  0  0
 26 27  1  0  0  0  0
 27 29  1  0  0  0  0
 29 28  1  0  0  0  0
M  END
>  <MODEL>
8

>  <REMARK>
 VINA RESULT:      -4.3      4.490      8.809
  Name = 
  12 active torsions:
  status: ('A' for Active; 'I' for Inactive)
    1  A    between atoms: C_1  and  C_5
    2  A    between atoms: C_1  and  C_12
    3  A    between atoms: C_2  and  O_19
    4  A    between atoms: C_4  and  N_14
    5  A    between atoms: C_5  and  C_8
    6  A    between atoms: C_8  and  C_24
    7  A    between atoms: C_12  and  O_19
    8  A    between atoms: C_16  and  N_20
    9  A    between atoms: C_16  and  C_21
   10  A    between atoms: N_20  and  C_25
   11  A    between atoms: N_20  and  C_27
   12  A    between atoms: C_23  and  C_25
                            x       y       z     vdW  Elec       q    Type
                         _______ _______ _______ _____ _____    ______ ____

>  <TORSDO>
F 12

$$$$
=
 OpenBabel11072413583D

 29 31  0  0  1  0  0  0  0  0999 V2000
  161.0150  204.9300  151.8600 C   0  0  1  0  0  3  0  0  0  0  0  0
  161.2470  207.2280  151.2720 N   0  0  0  0  0  0  0  0  0  0  0  0
  161.5050  205.7040  153.0790 C   0  0  2  0  0  3  0  0  0  0  0  0
  160.6810  205.4380  154.1770 O   0  0  0  0  0  1  0  0  0  0  0  0
  161.5340  207.1840  152.6960 C   0  0  2  0  0  3  0  0  0  0  0  0
  160.8980  205.9310  150.7230 C   0  0  0  0  0  2  0  0  0  0  0  0
  161.6110  208.3430  150.4370 C   0  0  0  0  0  0  0  0  0  0  0  0
  162.3190  210.6480  150.2210 C   0  0  0  0  0  3  0  0  0  0  0  0
  162.3070  210.5230  148.8680 N   0  0  0  0  0  0  0  0  0  0  0  0
  161.9700  209.5640  151.0250 C   0  0  0  0  0  3  0  0  0  0  0  0
  161.6040  208.2430  149.0310 C   0  0  0  0  0  0  0  0  0  0  0  0
  161.2090  207.0440  148.3750 N   0  0  0  0  0  1  0  0  0  0  0  0
  161.9560  209.3570  148.2640 C   0  0  0  0  0  3  0  0  0  0  0  0
  160.5160  208.0310  153.4630 C   0  0  0  0  0  2  0  0  0  0  0  0
  161.1660  208.7300  154.5700 N   0  0  0  0  0  0  0  0  0  0  0  0
  160.4770  207.3110  156.7940 S   0  0  0  0  0  0  0  0  0  0  0  0
  160.8660  209.0980  156.9280 C   0  0  0  0  0  2  0  0  0  0  0  0
  160.1980  208.7520  155.6680 C   0  0  1  0  0  3  0  0  0  0  0  0
  162.4050  210.7040  154.9350 O   0  0  0  0  0  1  0  0  0  0  0  0
  161.4170  210.1140  154.1390 C   0  0  2  0  0  3  0  0  0  0  0  0
  160.1490  210.9530  154.2470 C   0  0  0  0  0  2  0  0  0  0  0  0
  160.0820  211.9530  153.1080 C   0  0  0  0  0  1  0  0  0  0  0  0
  161.9580  203.9570  151.5150 O   0  0  0  0  0  0  0  0  0  0  0  0
  161.2680  202.7410  151.5450 C   0  0  0  0  0  2  0  0  0  0  0  0
  160.5540  202.5140  150.2200 C   0  0  0  0  0  2  0  0  0  0  0  0
  161.5500  202.3450  149.0830 C   0  0  0  0  0  2  0  0  0  0  0  0
  161.0390  201.3390  148.0710 C   0  0  0  0  0  2  0  0  0  0  0  0
  161.5810  203.3190  146.6930 C   0  0  0  0  0  1  0  0  0  0  0  0
  160.7690  202.0430  146.7580 C   0  0  0  0  0  2  0  0  0  0  0  0
  1 23  1  6  0  0  0
  1  3  1  0  0  0  0
  2  5  1  0  0  0  0
  3  4  1  1  0  0  0
  5  3  1  0  0  0  0
  5 14  1  1  0  0  0
  6  2  1  0  0  0  0
  6  1  1  0  0  0  0
  7 10  1  0  0  0  0
  7  2  1  0  0  0  0
  8 10  2  0  0  0  0
  9  8  1  0  0  0  0
 11  7  2  0  0  0  0
 12 11  1  0  0  0  0
 13  9  2  0  0  0  0
 13 11  1  0  0  0  0
 14 15  1  0  0  0  0
 16 17  1  0  0  0  0
 18 15  1  6  0  0  0
 18 16  1  0  0  0  0
 18 17  1  0  0  0  0
 20 21  1  0  0  0  0
 20 15  1  0  0  0  0
 20 19  1  1  0  0  0
 22 21  1  0  0  0  0
 23 24  1  0  0  0  0
 25 24  1  0  0  0  0
 26 25  1  0  0  0  0
 27 26  1  0  0  0  0
 28 29  1  0  0  0  0
 29 27  1  0  0  0  0
M  END
>  <MODEL>
9

>  <REMARK>
 VINA RESULT:      -4.2      3.221      5.718
  Name = 
  12 active torsions:
  status: ('A' for Active; 'I' for Inactive)
    1  A    between atoms: C_1  and  C_5
    2  A    between atoms: C_1  and  C_12
    3  A    between atoms: C_2  and  O_19
    4  A    between atoms: C_4  and  N_14
    5  A    between atoms: C_5  and  C_8
    6  A    between atoms: C_8  and  C_24
    7  A    between atoms: C_12  and  O_19
    8  A    between atoms: C_16  and  N_20
    9  A    between atoms: C_16  and  C_21
   10  A    between atoms: N_20  and  C_25
   11  A    between atoms: N_20  and  C_27
   12  A    between atoms: C_23  and  C_25
                            x       y       z     vdW  Elec       q    Type
                         _______ _______ _______ _____ _____    ______ ____

>  <TORSDO>
F 12

$$$$
