=
 OpenBabel11072412513D

 41 47  0  0  1  0  0  0  0  0999 V2000
  158.8140  211.0040  152.6100 C   0  0  2  0  0  3  0  0  0  0  0  0
  160.5290  211.7970  154.7100 C   0  0  0  0  0  2  0  0  0  0  0  0
  160.9600  210.6800  153.7890 C   0  0  0  0  0  0  0  0  0  0  0  0
  162.8980  210.2930  152.2810 C   0  0  0  0  0  2  0  0  0  0  0  0
  159.7710  212.7920  153.9510 N   0  0  0  0  0  0  0  0  0  0  0  0
  158.9920  212.4670  152.9580 C   0  0  0  0  0  0  0  0  0  0  0  0
  161.9630  209.5510  151.2850 C   0  0  2  0  0  3  0  0  0  0  0  0
  158.4960  213.5020  152.0970 N   0  0  0  0  0  2  0  0  0  0  0  0
  157.8190  210.4640  153.3990 F   0  0  0  0  0  0  0  0  0  0  0  0
  160.5660  209.2180  151.8620 C   0  0  0  0  0  2  0  0  0  0  0  0
  160.1150  210.2770  152.8220 C   0  0  0  0  0  0  0  0  0  0  0  0
  162.4030  210.2370  153.7370 C   0  0  0  0  0  2  0  0  0  0  0  0
  161.5010  206.1420  151.5910 C   0  0  0  0  0  2  0  0  0  0  0  0
  162.6780  208.3030  150.7420 C   0  0  1  0  0  3  0  0  0  0  0  0
  161.0960  207.4440  148.9330 C   0  0  0  0  0  0  0  0  0  0  0  0
  162.6860  207.0940  151.7030 C   0  0  0  0  0  2  0  0  0  0  0  0
  160.2300  206.8860  151.2410 C   0  0  0  0  0  2  0  0  0  0  0  0
  160.1000  206.9870  149.8200 O   0  0  0  0  0  0  0  0  0  0  0  0
  162.2640  207.9830  149.3300 C   0  0  0  0  0  3  0  0  0  0  0  0
  160.8670  207.3560  147.5530 O   0  0  0  0  0  0  0  0  0  0  0  0
  160.4480  206.3250  145.5000 N   0  0  0  0  0  1  0  0  0  0  0  0
  161.0830  206.1610  146.7970 C   0  0  0  0  0  2  0  0  0  0  0  0
  158.5010  213.4110  150.6550 C   0  0  0  0  0  0  0  0  0  0  0  0
  158.4810  213.3740  147.8480 C   0  0  0  0  0  3  0  0  0  0  0  0
  157.2840  213.3680  149.9550 C   0  0  0  0  0  0  0  0  0  0  0  0
  159.7040  213.4270  149.9320 C   0  0  0  0  0  3  0  0  0  0  0  0
  159.6990  213.4100  148.5350 C   0  0  0  0  0  0  0  0  0  0  0  0
  156.0750  213.3850  150.6490 O   0  0  0  0  0  1  0  0  0  0  0  0
  157.2780  213.3520  148.5560 C   0  0  0  0  0  3  0  0  0  0  0  0
  162.2400  214.1850  148.3830 O   0  0  0  0  0  0  0  0  0  0  0  0
  161.2290  213.3480  147.6570 S   0  0  0  0  0  0  0  0  0  0  0  0
  161.7230  211.9300  147.6380 O   0  0  0  0  0  0  0  0  0  0  0  0
  160.0760  211.9590  144.4540 C   0  0  0  0  0  2  0  0  0  0  0  0
  160.6040  213.1690  143.7220 C   0  0  1  0  0  0  0  0  0  0  0  0
  162.4810  213.0580  144.5310 C   0  0  2  0  0  3  0  0  0  0  0  0
  161.1670  212.7460  145.1300 C   0  0  2  0  0  0  0  0  0  0  0  0
  161.0700  213.9020  146.0080 N   0  0  0  0  0  0  0  0  0  0  0  0
  162.4050  214.2690  145.4930 C   0  0  0  0  0  2  0  0  0  0  0  0
  161.9310  213.3430  143.2690 O   0  0  0  0  0  0  0  0  0  0  0  0
  158.6980  214.3500  142.7970 O   0  0  0  0  0  1  0  0  0  0  0  0
  159.7560  214.4530  143.6970 C   0  0  0  0  0  2  0  0  0  0  0  0
  1 11  1  0  0  0  0
  1  6  1  0  0  0  0
  1  9  1  1  0  0  0
  3  2  1  0  0  0  0
  4 12  1  0  0  0  0
  5  2  1  0  0  0  0
  6  5  2  0  0  0  0
  7 10  1  1  0  0  0
  7  4  1  0  0  0  0
  8  6  1  0  0  0  0
 10 11  1  0  0  0  0
 11  3  2  0  0  0  0
 12  3  1  0  0  0  0
 13 16  1  0  0  0  0
 14 19  1  6  0  0  0
 14  7  1  0  0  0  0
 14 16  1  0  0  0  0
 15 19  2  0  0  0  0
 15 18  1  0  0  0  0
 17 13  1  0  0  0  0
 18 17  1  0  0  0  0
 20 15  1  0  0  0  0
 21 22  1  0  0  0  0
 22 20  1  0  0  0  0
 23  8  1  0  0  0  0
 24 27  2  0  0  0  0
 24 29  1  0  0  0  0
 25 28  1  0  0  0  0
 25 23  1  0  0  0  0
 26 23  2  0  0  0  0
 27 26  1  0  0  0  0
 29 25  2  0  0  0  0
 31 30  2  0  0  0  0
 31 27  1  0  0  0  0
 32 31  2  0  0  0  0
 34 41  1  6  0  0  0
 34 33  1  0  0  0  0
 34 36  1  0  0  0  0
 35 36  1  0  0  0  0
 35 38  1  1  0  0  0
 36 33  1  1  0  0  0
 36 37  1  0  0  0  0
 37 31  1  0  0  0  0
 38 37  1  0  0  0  0
 39 34  1  0  0  0  0
 39 35  1  0  0  0  0
 40 41  1  0  0  0  0
M  END
>  <MODEL>
1

>  <REMARK>
 VINA RESULT:      -4.9      0.000      0.000
  Name = 
  7 active torsions:
  status: ('A' for Active; 'I' for Inactive)
    1  A    between atoms: C_2  and  C_11
    2  A    between atoms: C_4  and  C_35
    3  A    between atoms: O_14  and  C_17
    4  A    between atoms: O_14  and  C_41
    5  A    between atoms: S_16  and  N_19
    6  A    between atoms: S_16  and  C_33
    7  A    between atoms: C_20  and  N_22
                            x       y       z     vdW  Elec       q    Type
                         _______ _______ _______ _____ _____    ______ ____

>  <TORSDO>
F 7

$$$$
=
 OpenBabel11072412513D

 41 47  0  0  1  0  0  0  0  0999 V2000
  158.9600  213.4650  153.7660 C   0  0  2  0  0  3  0  0  0  0  0  0
  156.2440  213.3150  153.0060 C   0  0  0  0  0  2  0  0  0  0  0  0
  157.2540  213.8600  152.0240 C   0  0  0  0  0  0  0  0  0  0  0  0
  157.9860  213.2470  149.7290 C   0  0  0  0  0  2  0  0  0  0  0  0
  156.8570  212.2470  153.7960 N   0  0  0  0  0  0  0  0  0  0  0  0
  158.1130  212.2680  154.1410 C   0  0  0  0  0  0  0  0  0  0  0  0
  159.4390  213.6670  150.0900 C   0  0  2  0  0  3  0  0  0  0  0  0
  158.7060  211.0760  154.6770 N   0  0  0  0  0  2  0  0  0  0  0  0
  158.8140  214.4470  154.7240 F   0  0  0  0  0  0  0  0  0  0  0  0
  159.5560  214.4480  151.4210 C   0  0  0  0  0  2  0  0  0  0  0  0
  158.5380  213.9740  152.4130 C   0  0  0  0  0  0  0  0  0  0  0  0
  156.9170  213.9820  150.5570 C   0  0  0  0  0  2  0  0  0  0  0  0
  162.2740  213.2990  148.1520 C   0  0  0  0  0  2  0  0  0  0  0  0
  160.0590  214.4350  148.9110 C   0  0  1  0  0  3  0  0  0  0  0  0
  159.5870  212.9340  146.9020 C   0  0  0  0  0  0  0  0  0  0  0  0
  161.6030  214.4510  148.8910 C   0  0  0  0  0  2  0  0  0  0  0  0
  161.4830  212.0170  148.2990 C   0  0  0  0  0  2  0  0  0  0  0  0
  160.5060  211.9260  147.2580 O   0  0  0  0  0  0  0  0  0  0  0  0
  159.4150  214.0730  147.5990 C   0  0  0  0  0  3  0  0  0  0  0  0
  158.7820  212.7480  145.7690 O   0  0  0  0  0  0  0  0  0  0  0  0
  160.4410  213.3670  144.2460 N   0  0  0  0  0  1  0  0  0  0  0  0
  159.3120  212.4800  144.4670 C   0  0  0  0  0  2  0  0  0  0  0  0
  159.9900  210.5650  154.2560 C   0  0  0  0  0  0  0  0  0  0  0  0
  162.4670  209.4610  153.5260 C   0  0  0  0  0  3  0  0  0  0  0  0
  161.1120  210.7290  155.0850 C   0  0  0  0  0  0  0  0  0  0  0  0
  160.1280  209.8500  153.0550 C   0  0  0  0  0  3  0  0  0  0  0  0
  161.3580  209.2980  152.6890 C   0  0  0  0  0  0  0  0  0  0  0  0
  160.9940  211.4060  156.2970 O   0  0  0  0  0  1  0  0  0  0  0  0
  162.3440  210.1750  154.7200 C   0  0  0  0  0  3  0  0  0  0  0  0
  160.7420  209.2350  150.1010 O   0  0  0  0  0  0  0  0  0  0  0  0
  161.5170  208.4750  151.1350 S   0  0  0  0  0  0  0  0  0  0  0  0
  162.9630  208.4740  150.7300 O   0  0  0  0  0  0  0  0  0  0  0  0
  162.9670  205.1760  151.8700 C   0  0  0  0  0  2  0  0  0  0  0  0
  161.7030  204.4990  151.3970 C   0  0  1  0  0  0  0  0  0  0  0  0
  161.6490  205.4690  149.5950 C   0  0  2  0  0  3  0  0  0  0  0  0
  162.0900  205.9490  150.9210 C   0  0  2  0  0  0  0  0  0  0  0  0
  160.9590  206.8200  151.2020 N   0  0  0  0  0  0  0  0  0  0  0  0
  160.4630  206.4260  149.8680 C   0  0  0  0  0  2  0  0  0  0  0  0
  161.4010  204.1640  150.0580 O   0  0  0  0  0  0  0  0  0  0  0  0
  160.2740  203.0930  152.7630 O   0  0  0  0  0  1  0  0  0  0  0  0
  160.5030  204.4060  152.3560 C   0  0  0  0  0  2  0  0  0  0  0  0
  1  6  1  0  0  0  0
  1  9  1  1  0  0  0
  2  5  1  0  0  0  0
  3 11  2  0  0  0  0
  3  2  1  0  0  0  0
  4 12  1  0  0  0  0
  5  6  2  0  0  0  0
  6  8  1  0  0  0  0
  7  4  1  6  0  0  0
  7 10  1  0  0  0  0
 10 11  1  0  0  0  0
 11  1  1  0  0  0  0
 12  3  1  0  0  0  0
 13 17  1  0  0  0  0
 13 16  1  0  0  0  0
 14 19  1  6  0  0  0
 14  7  1  0  0  0  0
 15 18  1  0  0  0  0
 15 19  2  0  0  0  0
 16 14  1  0  0  0  0
 18 17  1  0  0  0  0
 20 15  1  0  0  0  0
 21 22  1  0  0  0  0
 22 20  1  0  0  0  0
 23  8  1  0  0  0  0
 23 25  1  0  0  0  0
 24 29  1  0  0  0  0
 25 28  1  0  0  0  0
 26 23  2  0  0  0  0
 27 26  1  0  0  0  0
 27 24  2  0  0  0  0
 29 25  2  0  0  0  0
 30 31  2  0  0  0  0
 31 37  1  0  0  0  0
 31 27  1  0  0  0  0
 32 31  2  0  0  0  0
 34 33  1  0  0  0  0
 34 41  1  1  0  0  0
 35 38  1  1  0  0  0
 35 39  1  0  0  0  0
 35 36  1  0  0  0  0
 36 37  1  0  0  0  0
 36 34  1  0  0  0  0
 36 33  1  1  0  0  0
 38 37  1  0  0  0  0
 39 34  1  0  0  0  0
 41 40  1  0  0  0  0
M  END
>  <MODEL>
2

>  <REMARK>
 VINA RESULT:      -4.7      2.687      7.408
  Name = 
  7 active torsions:
  status: ('A' for Active; 'I' for Inactive)
    1  A    between atoms: C_2  and  C_11
    2  A    between atoms: C_4  and  C_35
    3  A    between atoms: O_14  and  C_17
    4  A    between atoms: O_14  and  C_41
    5  A    between atoms: S_16  and  N_19
    6  A    between atoms: S_16  and  C_33
    7  A    between atoms: C_20  and  N_22
                            x       y       z     vdW  Elec       q    Type
                         _______ _______ _______ _____ _____    ______ ____

>  <TORSDO>
F 7

$$$$
=
 OpenBabel11072412513D

 41 47  0  0  1  0  0  0  0  0999 V2000
  158.6880  213.4670  154.2340 C   0  0  2  0  0  3  0  0  0  0  0  0
  155.9880  213.3280  153.4140 C   0  0  0  0  0  2  0  0  0  0  0  0
  157.0210  213.8720  152.4560 C   0  0  0  0  0  0  0  0  0  0  0  0
  157.8000  213.2620  150.1760 C   0  0  0  0  0  2  0  0  0  0  0  0
  156.5800  212.2560  154.2140 N   0  0  0  0  0  0  0  0  0  0  0  0
  157.8290  212.2720  154.5870 C   0  0  0  0  0  0  0  0  0  0  0  0
  159.2460  213.6760  150.5690 C   0  0  2  0  0  3  0  0  0  0  0  0
  158.4060  211.0760  155.1320 N   0  0  0  0  0  2  0  0  0  0  0  0
  158.5240  214.4470  155.1900 F   0  0  0  0  0  0  0  0  0  0  0  0
  159.3370  214.4530  151.9040 C   0  0  0  0  0  2  0  0  0  0  0  0
  158.2960  213.9800  152.8730 C   0  0  0  0  0  0  0  0  0  0  0  0
  156.7160  213.9990  150.9820 C   0  0  0  0  0  2  0  0  0  0  0  0
  162.1180  213.3000  148.6880 C   0  0  0  0  0  2  0  0  0  0  0  0
  159.8940  214.4450  149.4050 C   0  0  1  0  0  3  0  0  0  0  0  0
  159.4550  212.9540  147.3820 C   0  0  0  0  0  0  0  0  0  0  0  0
  161.4380  214.4530  149.4170 C   0  0  0  0  0  2  0  0  0  0  0  0
  161.3170  212.0220  148.8140 C   0  0  0  0  0  2  0  0  0  0  0  0
  160.3620  211.9400  147.7530 O   0  0  0  0  0  0  0  0  0  0  0  0
  159.2750  214.0910  148.0800 C   0  0  0  0  0  3  0  0  0  0  0  0
  158.6730  212.7770  146.2320 O   0  0  0  0  0  0  0  0  0  0  0  0
  156.5860  213.7710  145.9040 N   0  0  0  0  0  1  0  0  0  0  0  0
  157.2630  212.5400  146.2720 C   0  0  0  0  0  2  0  0  0  0  0  0
  159.6970  210.5620  154.7380 C   0  0  0  0  0  0  0  0  0  0  0  0
  162.2270  209.5210  154.1060 C   0  0  0  0  0  3  0  0  0  0  0  0
  160.8590  211.2930  155.0340 C   0  0  0  0  0  0  0  0  0  0  0  0
  159.8200  209.3090  154.1140 C   0  0  0  0  0  3  0  0  0  0  0  0
  161.0770  208.7870  153.8000 C   0  0  0  0  0  0  0  0  0  0  0  0
  160.7660  212.5230  155.6820 O   0  0  0  0  0  1  0  0  0  0  0  0
  162.1190  210.7700  154.7200 C   0  0  0  0  0  3  0  0  0  0  0  0
  162.5500  206.6570  153.1850 O   0  0  0  0  0  0  0  0  0  0  0  0
  161.1920  207.2480  152.9430 S   0  0  0  0  0  0  0  0  0  0  0  0
  160.1650  206.3030  153.4980 O   0  0  0  0  0  0  0  0  0  0  0  0
  162.7790  206.0960  149.8320 C   0  0  0  0  0  2  0  0  0  0  0  0
  161.8920  207.0120  149.0240 C   0  0  1  0  0  0  0  0  0  0  0  0
  162.3390  208.6900  150.1090 C   0  0  2  0  0  3  0  0  0  0  0  0
  162.1920  207.2850  150.5440 C   0  0  2  0  0  0  0  0  0  0  0  0
  160.9150  207.4220  151.2270 N   0  0  0  0  0  0  0  0  0  0  0  0
  160.9990  208.8520  150.8690 C   0  0  0  0  0  2  0  0  0  0  0  0
  162.1480  208.3750  148.7520 O   0  0  0  0  0  0  0  0  0  0  0  0
  160.3150  206.2670  147.3390 O   0  0  0  0  0  1  0  0  0  0  0  0
  160.4590  206.5610  148.6930 C   0  0  0  0  0  2  0  0  0  0  0  0
  1  6  1  0  0  0  0
  1  9  1  1  0  0  0
  2  5  1  0  0  0  0
  3 11  2  0  0  0  0
  3  2  1  0  0  0  0
  4 12  1  0  0  0  0
  5  6  2  0  0  0  0
  6  8  1  0  0  0  0
  7  4  1  6  0  0  0
  7 10  1  0  0  0  0
 10 11  1  0  0  0  0
 11  1  1  0  0  0  0
 12  3  1  0  0  0  0
 13 17  1  0  0  0  0
 13 16  1  0  0  0  0
 14 19  1  6  0  0  0
 14 16  1  0  0  0  0
 14  7  1  0  0  0  0
 15 18  1  0  0  0  0
 15 19  2  0  0  0  0
 18 17  1  0  0  0  0
 20 22  1  0  0  0  0
 20 15  1  0  0  0  0
 21 22  1  0  0  0  0
 23 25  1  0  0  0  0
 23  8  1  0  0  0  0
 24 29  1  0  0  0  0
 25 28  1  0  0  0  0
 26 23  2  0  0  0  0
 27 24  2  0  0  0  0
 27 26  1  0  0  0  0
 29 25  2  0  0  0  0
 31 30  2  0  0  0  0
 31 32  2  0  0  0  0
 31 27  1  0  0  0  0
 34 41  1  6  0  0  0
 34 33  1  0  0  0  0
 34 36  1  0  0  0  0
 35 36  1  0  0  0  0
 35 38  1  1  0  0  0
 36 33  1  1  0  0  0
 36 37  1  0  0  0  0
 37 31  1  0  0  0  0
 38 37  1  0  0  0  0
 39 34  1  0  0  0  0
 39 35  1  0  0  0  0
 40 41  1  0  0  0  0
M  END
>  <MODEL>
3

>  <REMARK>
 VINA RESULT:      -4.4      2.945      6.828
  Name = 
  7 active torsions:
  status: ('A' for Active; 'I' for Inactive)
    1  A    between atoms: C_2  and  C_11
    2  A    between atoms: C_4  and  C_35
    3  A    between atoms: O_14  and  C_17
    4  A    between atoms: O_14  and  C_41
    5  A    between atoms: S_16  and  N_19
    6  A    between atoms: S_16  and  C_33
    7  A    between atoms: C_20  and  N_22
                            x       y       z     vdW  Elec       q    Type
                         _______ _______ _______ _____ _____    ______ ____

>  <TORSDO>
F 7

$$$$
=
 OpenBabel11072412513D

 41 47  0  0  1  0  0  0  0  0999 V2000
  160.3390  211.8180  153.2790 C   0  0  2  0  0  3  0  0  0  0  0  0
  157.5760  212.2600  153.6640 C   0  0  0  0  0  2  0  0  0  0  0  0
  158.2830  212.9640  152.5300 C   0  0  0  0  0  0  0  0  0  0  0  0
  158.0060  213.0390  150.0600 C   0  0  0  0  0  2  0  0  0  0  0  0
  158.1500  210.9270  153.8460 N   0  0  0  0  0  0  0  0  0  0  0  0
  159.4140  210.6790  153.6500 C   0  0  0  0  0  0  0  0  0  0  0  0
  159.5490  213.1360  149.8990 C   0  0  2  0  0  3  0  0  0  0  0  0
  159.8520  209.3140  153.5860 N   0  0  0  0  0  2  0  0  0  0  0  0
  160.7720  212.4480  154.4270 F   0  0  0  0  0  0  0  0  0  0  0  0
  160.3030  213.4240  151.2200 C   0  0  0  0  0  2  0  0  0  0  0  0
  159.6090  212.7850  152.3840 C   0  0  0  0  0  0  0  0  0  0  0  0
  157.4990  213.5940  151.4030 C   0  0  0  0  0  2  0  0  0  0  0  0
  162.1460  213.5550  147.6600 C   0  0  0  0  0  2  0  0  0  0  0  0
  159.8880  214.1610  148.8040 C   0  0  1  0  0  3  0  0  0  0  0  0
  159.4180  212.9000  146.6360 C   0  0  0  0  0  0  0  0  0  0  0  0
  161.3950  214.4530  148.6360 C   0  0  0  0  0  2  0  0  0  0  0  0
  161.5940  212.1450  147.6760 C   0  0  0  0  0  2  0  0  0  0  0  0
  160.5240  212.0310  146.7340 O   0  0  0  0  0  0  0  0  0  0  0  0
  159.1530  213.8790  147.5200 C   0  0  0  0  0  3  0  0  0  0  0  0
  158.5200  212.7360  145.5720 O   0  0  0  0  0  0  0  0  0  0  0  0
  159.6050  211.9520  143.6580 N   0  0  0  0  0  1  0  0  0  0  0  0
  158.8440  213.0580  144.2160 C   0  0  0  0  0  2  0  0  0  0  0  0
  160.7490  208.8110  152.5710 C   0  0  0  0  0  0  0  0  0  0  0  0
  162.5730  207.7800  150.7020 C   0  0  0  0  0  3  0  0  0  0  0  0
  161.9530  209.4860  152.3080 C   0  0  0  0  0  0  0  0  0  0  0  0
  160.4690  207.6210  151.8800 C   0  0  0  0  0  3  0  0  0  0  0  0
  161.3750  207.1030  150.9510 C   0  0  0  0  0  0  0  0  0  0  0  0
  162.2690  210.6510  153.0040 O   0  0  0  0  0  1  0  0  0  0  0  0
  162.8610  208.9670  151.3780 C   0  0  0  0  0  3  0  0  0  0  0  0
  161.9490  204.5720  150.3610 O   0  0  0  0  0  0  0  0  0  0  0  0
  160.9560  205.6500  150.0410 S   0  0  0  0  0  0  0  0  0  0  0  0
  159.5970  205.1780  150.4740 O   0  0  0  0  0  0  0  0  0  0  0  0
  161.5060  203.6890  146.9790 C   0  0  0  0  0  2  0  0  0  0  0  0
  161.4660  204.9480  146.1480 C   0  0  1  0  0  0  0  0  0  0  0  0
  162.8640  205.9410  147.2650 C   0  0  2  0  0  3  0  0  0  0  0  0
  161.8180  204.9830  147.6810 C   0  0  2  0  0  0  0  0  0  0  0  0
  160.9200  205.9350  148.3170 N   0  0  0  0  0  0  0  0  0  0  0  0
  161.9330  206.9540  147.9770 C   0  0  0  0  0  2  0  0  0  0  0  0
  162.5610  205.8050  145.8990 O   0  0  0  0  0  0  0  0  0  0  0  0
  160.2320  206.5550  144.8140 O   0  0  0  0  0  1  0  0  0  0  0  0
  160.1000  205.5410  145.7600 C   0  0  0  0  0  2  0  0  0  0  0  0
  1  6  1  0  0  0  0
  1  9  1  1  0  0  0
  2  5  1  0  0  0  0
  3  2  1  0  0  0  0
  4 12  1  0  0  0  0
  6  5  2  0  0  0  0
  7  4  1  1  0  0  0
  7 10  1  0  0  0  0
  8  6  1  0  0  0  0
 10 11  1  0  0  0  0
 11  3  2  0  0  0  0
 11  1  1  0  0  0  0
 12  3  1  0  0  0  0
 13 17  1  0  0  0  0
 13 16  1  0  0  0  0
 14 19  1  6  0  0  0
 14  7  1  0  0  0  0
 15 18  1  0  0  0  0
 15 19  2  0  0  0  0
 16 14  1  0  0  0  0
 18 17  1  0  0  0  0
 20 15  1  0  0  0  0
 21 22  1  0  0  0  0
 22 20  1  0  0  0  0
 23  8  1  0  0  0  0
 24 27  2  0  0  0  0
 24 29  1  0  0  0  0
 25 23  1  0  0  0  0
 25 28  1  0  0  0  0
 26 23  2  0  0  0  0
 27 26  1  0  0  0  0
 29 25  2  0  0  0  0
 31 30  2  0  0  0  0
 31 32  2  0  0  0  0
 31 27  1  0  0  0  0
 34 41  1  6  0  0  0
 34 33  1  0  0  0  0
 34 36  1  0  0  0  0
 35 36  1  0  0  0  0
 35 38  1  1  0  0  0
 36 33  1  1  0  0  0
 36 37  1  0  0  0  0
 37 31  1  0  0  0  0
 38 37  1  0  0  0  0
 39 34  1  0  0  0  0
 39 35  1  0  0  0  0
 40 41  1  0  0  0  0
M  END
>  <MODEL>
4

>  <REMARK>
 VINA RESULT:      -3.9      2.503      6.696
  Name = 
  7 active torsions:
  status: ('A' for Active; 'I' for Inactive)
    1  A    between atoms: C_2  and  C_11
    2  A    between atoms: C_4  and  C_35
    3  A    between atoms: O_14  and  C_17
    4  A    between atoms: O_14  and  C_41
    5  A    between atoms: S_16  and  N_19
    6  A    between atoms: S_16  and  C_33
    7  A    between atoms: C_20  and  N_22
                            x       y       z     vdW  Elec       q    Type
                         _______ _______ _______ _____ _____    ______ ____

>  <TORSDO>
F 7

$$$$
=
 OpenBabel11072412513D

 41 48  0  0  1  0  0  0  0  0999 V2000
  160.8670  211.1610  153.6160 C   0  0  2  0  0  0  0  0  0  0  0  0
  158.2780  211.6430  154.6380 C   0  0  0  0  0  2  0  0  0  0  0  0
  158.7460  212.4140  153.4270 C   0  0  0  0  0  0  0  0  0  0  0  0
  157.9340  212.6890  151.0930 C   0  0  0  0  0  2  0  0  0  0  0  0
  158.8210  210.2850  154.5930 N   0  0  0  0  0  0  0  0  0  0  0  0
  159.9990  210.0210  154.1030 C   0  0  0  0  0  0  0  0  0  0  0  0
  159.4070  212.7590  150.5990 C   0  0  2  0  0  3  0  0  0  0  0  0
  160.3540  208.6540  153.8460 N   0  0  0  0  0  2  0  0  0  0  0  0
  161.5690  211.6890  154.6800 F   0  0  0  0  0  0  0  0  0  0  0  0
  160.4450  212.9230  151.7350 C   0  0  0  0  0  2  0  0  0  0  0  0
  159.9990  212.2130  152.9770 C   0  0  0  0  0  0  0  0  0  0  0  0
  157.7600  213.1500  152.5510 C   0  0  0  0  0  2  0  0  0  0  0  0
  161.8800  213.7480  148.4000 C   0  0  0  0  0  2  0  0  0  0  0  0
  159.5380  213.8570  149.5310 C   0  0  1  0  0  3  0  0  0  0  0  0
  159.3480  212.5790  147.3300 C   0  0  0  0  0  0  0  0  0  0  0  0
  160.9560  214.4520  149.3870 C   0  0  0  0  0  2  0  0  0  0  0  0
  161.6250  212.2560  148.3780 C   0  0  0  0  0  2  0  0  0  0  0  0
  160.6070  211.9500  147.4220 O   0  0  0  0  0  0  0  0  0  0  0  0
  158.8850  213.4640  148.2330 C   0  0  0  0  0  3  0  0  0  0  0  0
  158.5090  212.2640  146.2520 O   0  0  0  0  0  0  0  0  0  0  0  0
  159.7760  212.4050  144.2960 N   0  0  0  0  0  1  0  0  0  0  0  0
  158.5950  212.9070  144.9770 C   0  0  0  0  0  2  0  0  0  0  0  0
  160.9820  208.2090  152.6240 C   0  0  0  0  0  0  0  0  0  0  0  0
  162.3250  207.3270  150.3210 C   0  0  0  0  0  3  0  0  0  0  0  0
  161.8190  209.0840  151.9120 C   0  0  0  0  0  0  0  0  0  0  0  0
  160.8210  206.8930  152.1630 C   0  0  0  0  0  3  0  0  0  0  0  0
  161.4890  206.4490  151.0180 C   0  0  0  0  0  0  0  0  0  0  0  0
  162.0220  210.3860  152.3680 O   0  0  0  0  0  0  0  0  0  0  0  0
  162.4900  208.6410  150.7670 C   0  0  0  0  0  3  0  0  0  0  0  0
  161.7750  203.8300  151.3950 O   0  0  0  0  0  0  0  0  0  0  0  0
  161.2010  204.8140  150.4190 S   0  0  0  0  0  0  0  0  0  0  0  0
  159.7200  204.5790  150.3340 O   0  0  0  0  0  0  0  0  0  0  0  0
  160.8470  206.2680  147.0600 C   0  0  0  0  0  2  0  0  0  0  0  0
  161.6860  205.1580  146.4750 C   0  0  1  0  0  0  0  0  0  0  0  0
  160.5820  203.6480  147.3070 C   0  0  2  0  0  3  0  0  0  0  0  0
  160.9230  204.9840  147.8400 C   0  0  2  0  0  0  0  0  0  0  0  0
  161.8940  204.5570  148.8360 N   0  0  0  0  0  0  0  0  0  0  0  0
  161.5840  203.1830  148.3920 C   0  0  0  0  0  2  0  0  0  0  0  0
  161.2080  203.8920  146.0710 O   0  0  0  0  0  0  0  0  0  0  0  0
  163.8410  204.4040  145.6590 O   0  0  0  0  0  1  0  0  0  0  0  0
  163.2190  205.2530  146.5710 C   0  0  0  0  0  2  0  0  0  0  0  0
  1  6  1  0  0  0  0
  1  9  1  1  0  0  0
  3  2  1  0  0  0  0
  4 12  1  0  0  0  0
  5  2  1  0  0  0  0
  6  5  2  0  0  0  0
  7  4  1  1  0  0  0
  7 10  1  0  0  0  0
  8  6  1  0  0  0  0
 10 11  1  0  0  0  0
 11  3  2  0  0  0  0
 11  1  1  0  0  0  0
 12  3  1  0  0  0  0
 13 16  1  0  0  0  0
 14 19  1  6  0  0  0
 14  7  1  0  0  0  0
 15 18  1  0  0  0  0
 15 19  2  0  0  0  0
 16 14  1  0  0  0  0
 17 13  1  0  0  0  0
 18 17  1  0  0  0  0
 20 15  1  0  0  0  0
 21 22  1  0  0  0  0
 22 20  1  0  0  0  0
 23  8  1  0  0  0  0
 24 29  2  0  0  0  0
 24 27  1  0  0  0  0
 25 28  1  0  0  0  0
 25 23  2  0  0  0  0
 26 23  1  0  0  0  0
 27 26  2  0  0  0  0
 28  1  1  0  0  0  0
 29 25  1  0  0  0  0
 31 27  1  0  0  0  0
 31 30  2  0  0  0  0
 32 31  2  0  0  0  0
 34 41  1  1  0  0  0
 34 33  1  0  0  0  0
 34 36  1  0  0  0  0
 35 36  1  0  0  0  0
 35 38  1  1  0  0  0
 36 33  1  1  0  0  0
 36 37  1  0  0  0  0
 37 31  1  0  0  0  0
 38 37  1  0  0  0  0
 39 34  1  0  0  0  0
 39 35  1  0  0  0  0
 40 41  1  0  0  0  0
M  END
>  <MODEL>
5

>  <REMARK>
 VINA RESULT:      -3.5      2.775      7.113
  Name = 
  7 active torsions:
  status: ('A' for Active; 'I' for Inactive)
    1  A    between atoms: C_2  and  C_11
    2  A    between atoms: C_4  and  C_35
    3  A    between atoms: O_14  and  C_17
    4  A    between atoms: O_14  and  C_41
    5  A    between atoms: S_16  and  N_19
    6  A    between atoms: S_16  and  C_33
    7  A    between atoms: C_20  and  N_22
                            x       y       z     vdW  Elec       q    Type
                         _______ _______ _______ _____ _____    ______ ____

>  <TORSDO>
F 7

$$$$
=
 OpenBabel11072412513D

 41 47  0  0  1  0  0  0  0  0999 V2000
  158.9750  211.4050  152.9930 C   0  0  2  0  0  3  0  0  0  0  0  0
  159.3180  213.2150  155.1350 C   0  0  0  0  0  2  0  0  0  0  0  0
  159.8360  211.8020  155.2750 C   0  0  0  0  0  0  0  0  0  0  0  0
  162.0580  210.7780  155.7130 C   0  0  0  0  0  2  0  0  0  0  0  0
  159.4780  213.6590  153.7510 N   0  0  0  0  0  0  0  0  0  0  0  0
  159.3550  212.8480  152.7390 C   0  0  0  0  0  0  0  0  0  0  0  0
  161.6910  209.6000  154.7670 C   0  0  2  0  0  3  0  0  0  0  0  0
  159.7840  213.2870  151.4410 N   0  0  0  0  0  2  0  0  0  0  0  0
  157.6020  211.3020  153.0780 F   0  0  0  0  0  0  0  0  0  0  0  0
  160.1960  209.5530  154.3710 C   0  0  0  0  0  2  0  0  0  0  0  0
  159.6240  210.9340  154.2680 C   0  0  0  0  0  0  0  0  0  0  0  0
  160.8290  211.4470  156.3550 C   0  0  0  0  0  2  0  0  0  0  0  0
  160.4560  207.4350  157.1580 C   0  0  0  0  0  2  0  0  0  0  0  0
  162.1680  208.2760  155.3870 C   0  0  1  0  0  3  0  0  0  0  0  0
  160.6460  206.5290  154.3180 C   0  0  0  0  0  0  0  0  0  0  0  0
  161.8030  208.0920  156.8760 C   0  0  0  0  0  2  0  0  0  0  0  0
  159.4280  207.8220  156.1160 C   0  0  0  0  0  2  0  0  0  0  0  0
  159.4810  206.9090  155.0170 O   0  0  0  0  0  0  0  0  0  0  0  0
  161.8530  207.0950  154.5100 C   0  0  0  0  0  3  0  0  0  0  0  0
  160.5570  205.5190  153.3510 O   0  0  0  0  0  0  0  0  0  0  0  0
  161.2770  203.9000  151.8300 N   0  0  0  0  0  1  0  0  0  0  0  0
  161.6650  205.1020  152.5490 C   0  0  0  0  0  2  0  0  0  0  0  0
  160.5870  212.4790  150.5520 C   0  0  0  0  0  0  0  0  0  0  0  0
  162.2630  210.9570  148.8910 C   0  0  0  0  0  3  0  0  0  0  0  0
  161.2580  213.0830  149.4760 C   0  0  0  0  0  0  0  0  0  0  0  0
  160.7600  211.1040  150.7780 C   0  0  0  0  0  3  0  0  0  0  0  0
  161.5940  210.3430  149.9550 C   0  0  0  0  0  0  0  0  0  0  0  0
  161.1290  214.4530  149.2500 O   0  0  0  0  0  1  0  0  0  0  0  0
  162.0950  212.3220  148.6520 C   0  0  0  0  0  3  0  0  0  0  0  0
  163.0470  208.3060  150.8630 O   0  0  0  0  0  0  0  0  0  0  0  0
  161.7260  208.6030  150.2170 S   0  0  0  0  0  0  0  0  0  0  0  0
  160.6380  208.1670  151.1570 O   0  0  0  0  0  0  0  0  0  0  0  0
  160.1560  205.4570  149.1390 C   0  0  0  0  0  2  0  0  0  0  0  0
  160.8470  205.5540  147.8000 C   0  0  1  0  0  0  0  0  0  0  0  0
  162.7190  205.8120  148.5880 C   0  0  2  0  0  3  0  0  0  0  0  0
  161.4080  206.2910  149.0730 C   0  0  2  0  0  0  0  0  0  0  0  0
  161.5710  207.6950  148.7320 N   0  0  0  0  0  0  0  0  0  0  0  0
  162.9170  207.3130  148.2600 C   0  0  0  0  0  2  0  0  0  0  0  0
  162.1540  205.1000  147.5150 O   0  0  0  0  0  0  0  0  0  0  0  0
  160.3020  205.8600  145.4570 O   0  0  0  0  0  1  0  0  0  0  0  0
  160.2420  206.4600  146.7130 C   0  0  0  0  0  2  0  0  0  0  0  0
  1  9  1  1  0  0  0
  1 11  1  0  0  0  0
  2  3  1  0  0  0  0
  3 12  1  0  0  0  0
  4 12  1  0  0  0  0
  5  2  1  0  0  0  0
  6  1  1  0  0  0  0
  6  5  2  0  0  0  0
  7 10  1  1  0  0  0
  7 14  1  0  0  0  0
  7  4  1  0  0  0  0
  8  6  1  0  0  0  0
 11 10  1  0  0  0  0
 11  3  2  0  0  0  0
 14 19  1  6  0  0  0
 14 16  1  0  0  0  0
 15 19  2  0  0  0  0
 15 18  1  0  0  0  0
 16 13  1  0  0  0  0
 17 13  1  0  0  0  0
 18 17  1  0  0  0  0
 20 15  1  0  0  0  0
 21 22  1  0  0  0  0
 22 20  1  0  0  0  0
 23 26  1  0  0  0  0
 23  8  1  0  0  0  0
 24 27  1  0  0  0  0
 25 23  2  0  0  0  0
 27 31  1  0  0  0  0
 27 26  2  0  0  0  0
 28 25  1  0  0  0  0
 29 24  2  0  0  0  0
 29 25  1  0  0  0  0
 31 30  2  0  0  0  0
 31 32  2  0  0  0  0
 34 41  1  6  0  0  0
 34 36  1  0  0  0  0
 34 33  1  0  0  0  0
 35 38  1  6  0  0  0
 35 36  1  0  0  0  0
 36 33  1  1  0  0  0
 37 36  1  0  0  0  0
 37 31  1  0  0  0  0
 38 37  1  0  0  0  0
 39 34  1  0  0  0  0
 39 35  1  0  0  0  0
 40 41  1  0  0  0  0
M  END
>  <MODEL>
6

>  <REMARK>
 VINA RESULT:      -3.0      3.269      5.400
  Name = 
  7 active torsions:
  status: ('A' for Active; 'I' for Inactive)
    1  A    between atoms: C_2  and  C_11
    2  A    between atoms: C_4  and  C_35
    3  A    between atoms: O_14  and  C_17
    4  A    between atoms: O_14  and  C_41
    5  A    between atoms: S_16  and  N_19
    6  A    between atoms: S_16  and  C_33
    7  A    between atoms: C_20  and  N_22
                            x       y       z     vdW  Elec       q    Type
                         _______ _______ _______ _____ _____    ______ ____

>  <TORSDO>
F 7

$$$$
=
 OpenBabel11072412513D

 41 47  0  0  1  0  0  0  0  0999 V2000
  160.0800  204.9290  151.2830 C   0  0  2  0  0  3  0  0  0  0  0  0
  161.6780  202.6250  150.9430 C   0  0  0  0  0  2  0  0  0  0  0  0
  161.2130  203.3840  149.7230 C   0  0  0  0  0  0  0  0  0  0  0  0
  162.3400  204.5130  147.8170 C   0  0  0  0  0  2  0  0  0  0  0  0
  161.9480  203.5650  152.0310 N   0  0  0  0  0  0  0  0  0  0  0  0
  161.2500  204.6520  152.2020 C   0  0  0  0  0  0  0  0  0  0  0  0
  161.2310  205.6030  147.8180 C   0  0  2  0  0  3  0  0  0  0  0  0
  161.7330  205.6510  153.1130 N   0  0  0  0  0  2  0  0  0  0  0  0
  158.9580  204.2870  151.7640 F   0  0  0  0  0  0  0  0  0  0  0  0
  160.0040  205.2510  148.6920 C   0  0  0  0  0  2  0  0  0  0  0  0
  160.4110  204.4520  149.8930 C   0  0  0  0  0  0  0  0  0  0  0  0
  161.8650  203.1620  148.3790 C   0  0  0  0  0  2  0  0  0  0  0  0
  162.8690  205.6130  144.7770 C   0  0  0  0  0  2  0  0  0  0  0  0
  160.8350  205.9340  146.3690 C   0  0  1  0  0  3  0  0  0  0  0  0
  160.6740  203.6440  145.2540 C   0  0  0  0  0  0  0  0  0  0  0  0
  161.9560  206.5780  145.5240 C   0  0  0  0  0  2  0  0  0  0  0  0
  163.0840  204.3380  145.5650 C   0  0  0  0  0  2  0  0  0  0  0  0
  162.0610  203.3910  145.2480 O   0  0  0  0  0  0  0  0  0  0  0  0
  160.1220  204.7870  145.7030 C   0  0  0  0  0  3  0  0  0  0  0  0
  159.8010  202.6520  144.7860 O   0  0  0  0  0  0  0  0  0  0  0  0
  160.4820  200.9670  146.2530 N   0  0  0  0  0  1  0  0  0  0  0  0
  160.0810  201.2520  144.8860 C   0  0  0  0  0  2  0  0  0  0  0  0
  161.7680  207.0620  152.8040 C   0  0  0  0  0  0  0  0  0  0  0  0
  161.7240  209.7840  152.1150 C   0  0  0  0  0  3  0  0  0  0  0  0
  162.3510  207.4990  151.6030 C   0  0  0  0  0  0  0  0  0  0  0  0
  161.1710  208.0060  153.6560 C   0  0  0  0  0  3  0  0  0  0  0  0
  161.1460  209.3610  153.3160 C   0  0  0  0  0  0  0  0  0  0  0  0
  162.9200  206.5780  150.7250 O   0  0  0  0  0  1  0  0  0  0  0  0
  162.3250  208.8560  151.2620 C   0  0  0  0  0  3  0  0  0  0  0  0
  159.6120  209.8030  155.4460 O   0  0  0  0  0  0  0  0  0  0  0  0
  160.4620  210.5310  154.4460 S   0  0  0  0  0  0  0  0  0  0  0  0
  161.5810  211.2050  155.1870 O   0  0  0  0  0  0  0  0  0  0  0  0
  158.9730  213.7810  155.3080 C   0  0  0  0  0  2  0  0  0  0  0  0
  158.2210  213.8000  153.9990 C   0  0  1  0  0  0  0  0  0  0  0  0
  157.3970  211.9430  154.2430 C   0  0  2  0  0  3  0  0  0  0  0  0
  158.7250  212.4550  154.6420 C   0  0  2  0  0  0  0  0  0  0  0  0
  159.5150  211.7570  153.6380 N   0  0  0  0  0  0  0  0  0  0  0  0
  158.2350  211.1650  153.1990 C   0  0  0  0  0  2  0  0  0  0  0  0
  156.9690  213.1920  153.7610 O   0  0  0  0  0  0  0  0  0  0  0  0
  158.0820  214.3730  151.6470 O   0  0  0  0  0  1  0  0  0  0  0  0
  158.9560  214.2510  152.7250 C   0  0  0  0  0  2  0  0  0  0  0  0
  1  9  1  1  0  0  0
  1  6  1  0  0  0  0
  2  5  1  0  0  0  0
  3 11  2  0  0  0  0
  3  2  1  0  0  0  0
  4 12  1  0  0  0  0
  5  6  2  0  0  0  0
  6  8  1  0  0  0  0
  7  4  1  6  0  0  0
  7 10  1  0  0  0  0
 10 11  1  0  0  0  0
 11  1  1  0  0  0  0
 12  3  1  0  0  0  0
 13 16  1  0  0  0  0
 13 17  1  0  0  0  0
 14 16  1  6  0  0  0
 14  7  1  0  0  0  0
 15 19  2  0  0  0  0
 18 15  1  0  0  0  0
 18 17  1  0  0  0  0
 19 14  1  0  0  0  0
 20 22  1  0  0  0  0
 20 15  1  0  0  0  0
 22 21  1  0  0  0  0
 23  8  1  0  0  0  0
 23 26  1  0  0  0  0
 24 27  1  0  0  0  0
 25 23  2  0  0  0  0
 27 26  2  0  0  0  0
 27 31  1  0  0  0  0
 28 25  1  0  0  0  0
 29 25  1  0  0  0  0
 29 24  2  0  0  0  0
 31 32  2  0  0  0  0
 31 30  2  0  0  0  0
 34 41  1  6  0  0  0
 34 36  1  0  0  0  0
 34 33  1  0  0  0  0
 35 38  1  6  0  0  0
 35 36  1  0  0  0  0
 36 33  1  1  0  0  0
 37 31  1  0  0  0  0
 37 36  1  0  0  0  0
 38 37  1  0  0  0  0
 39 34  1  0  0  0  0
 39 35  1  0  0  0  0
 40 41  1  0  0  0  0
M  END
>  <MODEL>
7

>  <REMARK>
 VINA RESULT:      -2.2      4.619      7.872
  Name = 
  7 active torsions:
  status: ('A' for Active; 'I' for Inactive)
    1  A    between atoms: C_2  and  C_11
    2  A    between atoms: C_4  and  C_35
    3  A    between atoms: O_14  and  C_17
    4  A    between atoms: O_14  and  C_41
    5  A    between atoms: S_16  and  N_19
    6  A    between atoms: S_16  and  C_33
    7  A    between atoms: C_20  and  N_22
                            x       y       z     vdW  Elec       q    Type
                         _______ _______ _______ _____ _____    ______ ____

>  <TORSDO>
F 7

$$$$
