=
 OpenBabel11072411143D

 30 34  0  0  1  0  0  0  0  0999 V2000
  158.9050  212.3280  152.5940 C   0  0  2  0  0  3  0  0  0  0  0  0
  159.8800  213.6550  148.7810 C   0  0  0  0  0  2  0  0  0  0  0  0
  160.8170  212.9680  149.7480 C   0  0  1  0  0  3  0  0  0  0  0  0
  162.3720  210.9400  149.3660 C   0  0  0  0  0  2  0  0  0  0  0  0
  161.3380  209.5330  152.1380 O   0  0  0  0  0  0  0  0  0  0  0  0
  161.4080  209.7690  149.2180 C   0  0  0  0  0  2  0  0  0  0  0  0
  159.8570  212.8790  147.5450 N   0  0  0  0  0  2  0  0  0  0  0  0
  160.0900  212.0680  150.5360 O   0  0  0  0  0  0  0  0  0  0  0  0
  161.1140  212.1390  147.4840 C   0  0  0  0  0  2  0  0  0  0  0  0
  161.1400  208.4230  151.3150 C   0  0  0  0  0  2  0  0  0  0  0  0
  160.2130  212.5640  151.8400 C   0  0  2  0  0  3  0  0  0  0  0  0
  160.0530  210.0110  152.3940 C   0  0  0  0  0  2  0  0  0  0  0  0
  161.7980  212.2580  148.8330 C   0  0  1  0  0  3  0  0  0  0  0  0
  158.7120  213.4450  153.6070 C   0  0  0  0  0  1  0  0  0  0  0  0
  161.9190  208.5790  150.0150 C   0  0  1  0  0  3  0  0  0  0  0  0
  160.1210  211.4560  152.8750 C   0  0  2  0  0  0  0  0  0  0  0  0
  161.5920  203.8080  147.0000 F   0  0  0  0  0  0  0  0  0  0  0  0
  161.1520  205.0090  149.0120 C   0  0  0  0  0  3  0  0  0  0  0  0
  162.2800  206.0850  147.1590 C   0  0  0  0  0  3  0  0  0  0  0  0
  161.6740  204.9550  147.7160 C   0  0  0  0  0  0  0  0  0  0  0  0
  161.2360  206.1920  149.7520 C   0  0  0  0  0  3  0  0  0  0  0  0
  162.3650  207.2680  147.8980 C   0  0  0  0  0  3  0  0  0  0  0  0
  161.8420  207.3270  149.2010 C   0  0  0  0  0  0  0  0  0  0  0  0
  160.8740  211.7320  154.0970 N   0  0  0  0  0  2  0  0  0  0  0  0
  162.3110  209.2010  156.5410 N   0  0  0  0  0  0  0  0  0  0  0  0
  159.9080  210.4100  155.8220 C   0  0  0  0  0  3  0  0  0  0  0  0
  161.1170  208.8670  157.2570 C   0  0  0  0  0  3  0  0  0  0  0  0
  162.3780  210.3370  155.6210 C   0  0  0  0  0  3  0  0  0  0  0  0
  161.0100  210.8010  155.1750 C   0  0  0  0  0  0  0  0  0  0  0  0
  159.9650  209.4460  156.9310 C   0  0  0  0  0  3  0  0  0  0  0  0
  1 16  1  0  0  0  0
  1 14  1  1  0  0  0
  3  2  1  6  0  0  0
  3  8  1  0  0  0  0
  5 12  1  0  0  0  0
  6  4  1  0  0  0  0
  6 15  1  0  0  0  0
  7  2  1  0  0  0  0
  9  7  1  0  0  0  0
 10  5  1  0  0  0  0
 11  8  1  6  0  0  0
 11  1  1  0  0  0  0
 11 16  1  0  0  0  0
 12 16  1  0  0  0  0
 13  9  1  6  0  0  0
 13  4  1  0  0  0  0
 13  3  1  0  0  0  0
 15 23  1  6  0  0  0
 15 10  1  0  0  0  0
 16 24  1  1  0  0  0
 17 20  1  0  0  0  0
 18 21  1  0  0  0  0
 19 20  1  0  0  0  0
 19 22  2  0  0  0  0
 20 18  2  0  0  0  0
 22 23  1  0  0  0  0
 23 21  2  0  0  0  0
 24 29  1  0  0  0  0
 25 27  1  0  0  0  0
 26 30  1  0  0  0  0
 28 25  2  0  0  0  0
 29 28  1  0  0  0  0
 29 26  2  0  0  0  0
 30 27  2  0  0  0  0
M  END
>  <MODEL>
1

>  <REMARK>
 VINA RESULT:      -6.9      0.000      0.000
  Name = 
  3 active torsions:
  status: ('A' for Active; 'I' for Inactive)
    1  A    between atoms: N_14  and  C_17
    2  A    between atoms: N_14  and  C_29
    3  A    between atoms: C_28  and  C_30
                            x       y       z     vdW  Elec       q    Type
                         _______ _______ _______ _____ _____    ______ ____

>  <TORSDO>
F 3

$$$$
=
 OpenBabel11072411143D

 30 34  0  0  1  0  0  0  0  0999 V2000
  159.9130  203.5240  149.7660 C   0  0  2  0  0  3  0  0  0  0  0  0
  160.9840  204.9830  153.5040 C   0  0  0  0  0  2  0  0  0  0  0  0
  161.8190  205.0680  152.2460 C   0  0  1  0  0  3  0  0  0  0  0  0
  162.9870  207.1150  151.1890 C   0  0  0  0  0  2  0  0  0  0  0  0
  161.8120  206.3470  148.2280 O   0  0  0  0  0  0  0  0  0  0  0  0
  161.8320  207.9630  150.6720 C   0  0  0  0  0  2  0  0  0  0  0  0
  160.7900  206.3370  154.0110 N   0  0  0  0  0  2  0  0  0  0  0  0
  160.9720  205.1700  151.1360 O   0  0  0  0  0  0  0  0  0  0  0  0
  161.8980  207.1430  153.5060 C   0  0  0  0  0  2  0  0  0  0  0  0
  161.4010  207.6810  148.2200 C   0  0  0  0  0  2  0  0  0  0  0  0
  161.2190  204.0060  150.3980 C   0  0  2  0  0  3  0  0  0  0  0  0
  160.6370  205.6200  148.4220 C   0  0  0  0  0  2  0  0  0  0  0  0
  162.6340  206.3300  152.4580 C   0  0  1  0  0  3  0  0  0  0  0  0
  159.9470  202.0080  149.6600 C   0  0  0  0  0  1  0  0  0  0  0  0
  162.1550  208.4770  149.2770 C   0  0  1  0  0  3  0  0  0  0  0  0
  160.9680  204.2170  148.9150 C   0  0  2  0  0  0  0  0  0  0  0  0
  160.9450  213.9880  148.9380 F   0  0  0  0  0  0  0  0  0  0  0  0
  161.3000  212.0350  150.2560 C   0  0  0  0  0  3  0  0  0  0  0  0
  161.4720  211.9380  147.8420 C   0  0  0  0  0  3  0  0  0  0  0  0
  161.2360  212.6680  149.0110 C   0  0  0  0  0  0  0  0  0  0  0  0
  161.6000  210.6710  150.3330 C   0  0  0  0  0  3  0  0  0  0  0  0
  161.7720  210.5750  147.9180 C   0  0  0  0  0  3  0  0  0  0  0  0
  161.8370  209.9350  149.1660 C   0  0  0  0  0  0  0  0  0  0  0  0
  161.7940  203.3710  148.0550 N   0  0  0  0  0  2  0  0  0  0  0  0
  160.2170  202.5230  144.7020 N   0  0  0  0  0  0  0  0  0  0  0  0
  161.1830  201.3190  147.0200 C   0  0  0  0  0  3  0  0  0  0  0  0
  160.1920  201.0960  144.8130 C   0  0  0  0  0  3  0  0  0  0  0  0
  160.9620  203.3660  145.6390 C   0  0  0  0  0  3  0  0  0  0  0  0
  161.2890  202.6480  146.9280 C   0  0  0  0  0  0  0  0  0  0  0  0
  160.6610  200.5080  145.9100 C   0  0  0  0  0  3  0  0  0  0  0  0
  1 14  1  6  0  0  0
  1 11  1  0  0  0  0
  2  7  1  0  0  0  0
  3 13  1  0  0  0  0
  3  2  1  1  0  0  0
  5 12  1  0  0  0  0
  6  4  1  0  0  0  0
  8  3  1  0  0  0  0
  9  7  1  0  0  0  0
 10  5  1  0  0  0  0
 10 15  1  0  0  0  0
 11  8  1  1  0  0  0
 12 16  1  0  0  0  0
 13  4  1  6  0  0  0
 13  9  1  0  0  0  0
 15 23  1  1  0  0  0
 15  6  1  0  0  0  0
 16 24  1  6  0  0  0
 16  1  1  0  0  0  0
 16 11  1  0  0  0  0
 17 20  1  0  0  0  0
 18 21  1  0  0  0  0
 19 22  2  0  0  0  0
 19 20  1  0  0  0  0
 20 18  2  0  0  0  0
 22 23  1  0  0  0  0
 23 21  2  0  0  0  0
 25 27  2  0  0  0  0
 25 28  1  0  0  0  0
 27 30  1  0  0  0  0
 28 29  2  0  0  0  0
 29 26  1  0  0  0  0
 29 24  1  0  0  0  0
 30 26  2  0  0  0  0
M  END
>  <MODEL>
2

>  <REMARK>
 VINA RESULT:      -5.2      4.200      8.839
  Name = 
  3 active torsions:
  status: ('A' for Active; 'I' for Inactive)
    1  A    between atoms: N_14  and  C_17
    2  A    between atoms: N_14  and  C_29
    3  A    between atoms: C_28  and  C_30
                            x       y       z     vdW  Elec       q    Type
                         _______ _______ _______ _____ _____    ______ ____

>  <TORSDO>
F 3

$$$$
=
 OpenBabel11072411143D

 30 34  0  0  1  0  0  0  0  0999 V2000
  159.9020  204.3670  150.2840 C   0  0  2  0  0  3  0  0  0  0  0  0
  160.7510  206.5690  153.7020 C   0  0  0  0  0  2  0  0  0  0  0  0
  161.6400  206.4400  152.4850 C   0  0  1  0  0  3  0  0  0  0  0  0
  162.7920  208.2850  151.0930 C   0  0  0  0  0  2  0  0  0  0  0  0
  161.7820  206.9090  148.2970 O   0  0  0  0  0  0  0  0  0  0  0  0
  161.6360  208.9700  150.3750 C   0  0  0  0  0  2  0  0  0  0  0  0
  160.4910  207.9870  153.9240 N   0  0  0  0  0  2  0  0  0  0  0  0
  160.8430  206.2890  151.3440 O   0  0  0  0  0  0  0  0  0  0  0  0
  161.5950  208.7220  153.3150 C   0  0  0  0  0  2  0  0  0  0  0  0
  161.3290  208.1980  148.0100 C   0  0  0  0  0  2  0  0  0  0  0  0
  161.1600  205.0140  150.8600 C   0  0  2  0  0  3  0  0  0  0  0  0
  160.6220  206.1880  148.5830 C   0  0  0  0  0  2  0  0  0  0  0  0
  162.4040  207.7500  152.4770 C   0  0  1  0  0  3  0  0  0  0  0  0
  159.9870  202.8620  150.4800 C   0  0  0  0  0  1  0  0  0  0  0  0
  162.0080  209.2150  148.9200 C   0  0  1  0  0  3  0  0  0  0  0  0
  160.9730  204.9220  149.3550 C   0  0  2  0  0  0  0  0  0  0  0  0
  160.6250  214.4530  147.3080 F   0  0  0  0  0  0  0  0  0  0  0  0
  160.5850  212.1010  146.9240 C   0  0  0  0  0  3  0  0  0  0  0  0
  161.6790  213.0090  148.8850 C   0  0  0  0  0  3  0  0  0  0  0  0
  160.9600  213.2010  147.7010 C   0  0  0  0  0  0  0  0  0  0  0  0
  160.9300  210.8080  147.3280 C   0  0  0  0  0  3  0  0  0  0  0  0
  162.0250  211.7170  149.2900 C   0  0  0  0  0  3  0  0  0  0  0  0
  161.6510  210.6090  148.5120 C   0  0  0  0  0  0  0  0  0  0  0  0
  161.8650  203.9570  148.7120 N   0  0  0  0  0  2  0  0  0  0  0  0
  160.8580  202.8980  145.2040 N   0  0  0  0  0  0  0  0  0  0  0  0
  161.2100  201.8750  147.7700 C   0  0  0  0  0  3  0  0  0  0  0  0
  160.6350  201.5040  145.4380 C   0  0  0  0  0  3  0  0  0  0  0  0
  161.5120  203.7620  146.1890 C   0  0  0  0  0  3  0  0  0  0  0  0
  161.4960  203.1660  147.5790 C   0  0  0  0  0  0  0  0  0  0  0  0
  160.8110  201.0000  146.6570 C   0  0  0  0  0  3  0  0  0  0  0  0
  1 14  1  6  0  0  0
  1 11  1  0  0  0  0
  2  7  1  0  0  0  0
  3  2  1  1  0  0  0
  5 12  1  0  0  0  0
  6  4  1  0  0  0  0
  8  3  1  0  0  0  0
  9  7  1  0  0  0  0
 10  5  1  0  0  0  0
 10 15  1  0  0  0  0
 11  8  1  1  0  0  0
 12 16  1  0  0  0  0
 13  4  1  6  0  0  0
 13  3  1  0  0  0  0
 13  9  1  0  0  0  0
 15 23  1  6  0  0  0
 15  6  1  0  0  0  0
 16 24  1  6  0  0  0
 16  1  1  0  0  0  0
 16 11  1  0  0  0  0
 17 20  1  0  0  0  0
 18 21  2  0  0  0  0
 18 20  1  0  0  0  0
 19 22  1  0  0  0  0
 20 19  2  0  0  0  0
 21 23  1  0  0  0  0
 23 22  2  0  0  0  0
 25 27  2  0  0  0  0
 25 28  1  0  0  0  0
 27 30  1  0  0  0  0
 28 29  2  0  0  0  0
 29 26  1  0  0  0  0
 29 24  1  0  0  0  0
 30 26  2  0  0  0  0
M  END
>  <MODEL>
3

>  <REMARK>
 VINA RESULT:      -4.7      3.884      8.287
  Name = 
  3 active torsions:
  status: ('A' for Active; 'I' for Inactive)
    1  A    between atoms: N_14  and  C_17
    2  A    between atoms: N_14  and  C_29
    3  A    between atoms: C_28  and  C_30
                            x       y       z     vdW  Elec       q    Type
                         _______ _______ _______ _____ _____    ______ ____

>  <TORSDO>
F 3

$$$$
=
 OpenBabel11072411143D

 30 34  0  0  1  0  0  0  0  0999 V2000
  160.8690  208.5200  151.7390 C   0  0  2  0  0  3  0  0  0  0  0  0
  161.1270  207.2050  155.6700 C   0  0  0  0  0  2  0  0  0  0  0  0
  161.3990  208.6110  155.1850 C   0  0  1  0  0  3  0  0  0  0  0  0
  160.4790  210.8570  156.0690 C   0  0  0  0  0  2  0  0  0  0  0  0
  159.7760  211.8500  153.0270 O   0  0  0  0  0  0  0  0  0  0  0  0
  159.0110  210.8300  155.6650 C   0  0  0  0  0  2  0  0  0  0  0  0
  160.0880  207.2710  156.6920 N   0  0  0  0  0  2  0  0  0  0  0  0
  160.5820  208.8850  154.0820 O   0  0  0  0  0  0  0  0  0  0  0  0
  160.1350  208.6150  157.2590 C   0  0  0  0  0  2  0  0  0  0  0  0
  158.5230  212.1260  153.5760 C   0  0  0  0  0  2  0  0  0  0  0  0
  161.4760  209.0840  153.0230 C   0  0  2  0  0  3  0  0  0  0  0  0
  159.5740  210.7070  152.2520 C   0  0  0  0  0  2  0  0  0  0  0  0
  161.0390  209.4650  156.3860 C   0  0  1  0  0  3  0  0  0  0  0  0
  161.9900  208.0170  150.8430 C   0  0  0  0  0  1  0  0  0  0  0  0
  158.6090  212.1820  155.0970 C   0  0  1  0  0  3  0  0  0  0  0  0
  160.9070  210.0240  151.9750 C   0  0  2  0  0  0  0  0  0  0  0  0
  153.6980  213.9590  157.2600 F   0  0  0  0  0  0  0  0  0  0  0  0
  155.4810  214.2300  155.7030 C   0  0  0  0  0  3  0  0  0  0  0  0
  155.4810  212.3760  157.2610 C   0  0  0  0  0  3  0  0  0  0  0  0
  154.8740  213.5260  156.7470 C   0  0  0  0  0  0  0  0  0  0  0  0
  156.6960  213.7860  155.1720 C   0  0  0  0  0  3  0  0  0  0  0  0
  156.6950  211.9310  156.7310 C   0  0  0  0  0  3  0  0  0  0  0  0
  157.3090  212.6350  155.6820 C   0  0  0  0  0  0  0  0  0  0  0  0
  161.9270  210.7870  151.2570 N   0  0  0  0  0  2  0  0  0  0  0  0
  160.4440  213.2590  148.7790 N   0  0  0  0  0  0  0  0  0  0  0  0
  162.2560  211.1500  148.9300 C   0  0  0  0  0  3  0  0  0  0  0  0
  161.1530  212.8590  147.6010 C   0  0  0  0  0  3  0  0  0  0  0  0
  160.8150  212.7840  150.1130 C   0  0  0  0  0  3  0  0  0  0  0  0
  161.6680  211.5370  150.0660 C   0  0  0  0  0  0  0  0  0  0  0  0
  162.0300  211.8610  147.6620 C   0  0  0  0  0  3  0  0  0  0  0  0
  1 14  1  6  0  0  0
  1 16  1  0  0  0  0
  1 11  1  0  0  0  0
  2  7  1  0  0  0  0
  3  2  1  1  0  0  0
  3 13  1  0  0  0  0
  5 10  1  0  0  0  0
  6  4  1  0  0  0  0
  7  9  1  0  0  0  0
  8  3  1  0  0  0  0
 10 15  1  0  0  0  0
 11  8  1  1  0  0  0
 12  5  1  0  0  0  0
 13  4  1  6  0  0  0
 13  9  1  0  0  0  0
 15  6  1  0  0  0  0
 15 23  1  1  0  0  0
 16 24  1  6  0  0  0
 16 12  1  0  0  0  0
 16 11  1  0  0  0  0
 18 20  1  0  0  0  0
 20 17  1  0  0  0  0
 20 19  2  0  0  0  0
 21 23  1  0  0  0  0
 21 18  2  0  0  0  0
 22 19  1  0  0  0  0
 23 22  2  0  0  0  0
 25 28  1  0  0  0  0
 26 29  1  0  0  0  0
 27 30  1  0  0  0  0
 27 25  2  0  0  0  0
 29 28  2  0  0  0  0
 29 24  1  0  0  0  0
 30 26  2  0  0  0  0
M  END
>  <MODEL>
4

>  <REMARK>
 VINA RESULT:      -4.5      3.750      8.729
  Name = 
  3 active torsions:
  status: ('A' for Active; 'I' for Inactive)
    1  A    between atoms: N_14  and  C_17
    2  A    between atoms: N_14  and  C_29
    3  A    between atoms: C_28  and  C_30
                            x       y       z     vdW  Elec       q    Type
                         _______ _______ _______ _____ _____    ______ ____

>  <TORSDO>
F 3

$$$$
