=
 OpenBabel11072412553D

 41 43  0  0  1  0  0  0  0  0999 V2000
  160.5940  211.0570  155.4680 C   0  0  0  0  0  0  0  0  0  0  0  0
  158.8020  212.3010  156.7350 C   0  0  0  0  0  2  0  0  0  0  0  0
  157.1600  212.5940  154.3490 C   0  0  0  0  0  2  0  0  0  0  0  0
  162.0130  209.9620  153.7460 C   0  0  1  0  0  3  0  0  0  0  0  0
  157.5000  211.9980  152.9940 C   0  0  0  0  0  2  0  0  0  0  0  0
  159.8940  212.1650  155.7180 C   0  0  0  0  0  3  0  0  0  0  0  0
  161.5360  211.1140  154.4330 O   0  0  0  0  0  0  0  0  0  0  0  0
  161.2010  209.7510  152.4560 C   0  0  2  0  0  3  0  0  0  0  0  0
  156.7660  211.4690  155.2960 C   0  0  2  0  0  3  0  0  0  0  0  0
  158.9740  212.2030  152.6930 C   0  0  1  0  0  3  0  0  0  0  0  0
  156.3450  212.0340  156.6350 C   0  0  2  0  0  3  0  0  0  0  0  0
  159.8360  209.9740  152.6740 O   0  0  0  0  0  0  0  0  0  0  0  0
  157.6640  211.2960  156.5290 C   0  0  2  0  0  3  0  0  0  0  0  0
  159.5120  211.0540  151.8490 C   0  0  0  0  0  2  0  0  0  0  0  0
  159.7300  208.8250  155.4690 O   0  0  0  0  0  1  0  0  0  0  0  0
  160.3560  209.7950  156.2570 C   0  0  1  0  0  3  0  0  0  0  0  0
  161.7910  207.9010  157.0110 O   0  0  0  0  0  0  0  0  0  0  0  0
  161.6200  209.2710  156.8620 C   0  0  0  0  0  0  0  0  0  0  0  0
  162.5160  210.0560  157.2600 O   0  0  0  0  0  1  0  0  0  0  0  0
  159.2010  213.5670  152.0390 C   0  0  2  0  0  3  0  0  0  0  0  0
  158.1540  214.4530  152.3030 O   0  0  0  0  0  1  0  0  0  0  0  0
  160.7610  213.3460  150.0690 C   0  0  0  0  0  3  0  0  0  0  0  0
  157.0650  213.5150  150.1350 O   0  0  0  0  0  1  0  0  0  0  0  0
  159.4550  213.4650  150.5640 C   0  0  0  0  0  0  0  0  0  0  0  0
  159.9050  213.1650  147.8080 C   0  0  0  0  0  3  0  0  0  0  0  0
  158.3720  213.4210  149.6700 C   0  0  0  0  0  0  0  0  0  0  0  0
  160.9860  213.1990  148.6940 C   0  0  0  0  0  3  0  0  0  0  0  0
  158.6020  213.2730  148.2980 C   0  0  0  0  0  3  0  0  0  0  0  0
  163.6620  210.6420  152.1370 O   0  0  0  0  0  1  0  0  0  0  0  0
  163.4980  210.1340  153.4270 C   0  0  1  0  0  3  0  0  0  0  0  0
  164.1420  211.0860  154.4170 C   0  0  0  0  0  2  0  0  0  0  0  0
  166.1590  212.2280  154.9410 O   0  0  0  0  0  1  0  0  0  0  0  0
  165.6150  211.2550  154.1030 C   0  0  0  0  0  2  0  0  0  0  0  0
  161.4020  208.3550  151.8830 C   0  0  0  0  0  2  0  0  0  0  0  0
  161.3850  208.3920  150.4630 O   0  0  0  0  0  0  0  0  0  0  0  0
  161.2320  207.2930  148.2800 N   0  0  0  0  0  1  0  0  0  0  0  0
  161.2910  206.1100  150.2730 O   0  0  0  0  0  0  0  0  0  0  0  0
  161.2990  207.2310  149.7010 C   0  0  0  0  0  0  0  0  0  0  0  0
  155.3100  211.1260  157.2600 C   0  0  0  0  0  2  0  0  0  0  0  0
  153.6280  209.5300  156.7510 O   0  0  0  0  0  1  0  0  0  0  0  0
  154.5230  210.4270  156.1720 C   0  0  0  0  0  2  0  0  0  0  0  0
  1  6  2  0  0  0  0
  1 16  1  0  0  0  0
  4 30  1  6  0  0  0
  4  7  1  0  0  0  0
  5  3  1  0  0  0  0
  6  2  1  0  0  0  0
  7  1  1  0  0  0  0
  8 34  1  1  0  0  0
  8 12  1  0  0  0  0
  8  4  1  0  0  0  0
  9  3  1  6  0  0  0
  9 13  1  0  0  0  0
  9 11  1  0  0  0  0
 10 20  1  6  0  0  0
 10  5  1  0  0  0  0
 11 39  1  1  0  0  0
 13 11  1  0  0  0  0
 13  2  1  6  0  0  0
 14 12  1  0  0  0  0
 14 10  1  0  0  0  0
 16 15  1  6  0  0  0
 16 18  1  0  0  0  0
 18 17  2  0  0  0  0
 18 19  1  0  0  0  0
 20 21  1  6  0  0  0
 22 24  1  0  0  0  0
 24 20  1  0  0  0  0
 25 28  2  0  0  0  0
 25 27  1  0  0  0  0
 26 23  1  0  0  0  0
 26 24  2  0  0  0  0
 27 22  2  0  0  0  0
 28 26  1  0  0  0  0
 30 29  1  6  0  0  0
 30 31  1  0  0  0  0
 33 31  1  0  0  0  0
 33 32  1  0  0  0  0
 35 34  1  0  0  0  0
 36 38  1  0  0  0  0
 38 37  2  0  0  0  0
 38 35  1  0  0  0  0
 41 40  1  0  0  0  0
 41 39  1  0  0  0  0
M  END
>  <MODEL>
1

>  <REMARK>
 VINA RESULT:      -0.6      0.000      0.000
  Name = 
  12 active torsions:
  status: ('A' for Active; 'I' for Inactive)
    1  A    between atoms: C_1  and  O_19
    2  A    between atoms: C_1  and  C_26
    3  A    between atoms: C_5  and  C_6
    4  A    between atoms: C_5  and  C_28
    5  A    between atoms: C_8  and  C_16
    6  A    between atoms: C_12  and  C_40
    7  A    between atoms: C_15  and  C_29
    8  A    between atoms: C_15  and  C_37
    9  A    between atoms: C_16  and  C_24
   10  A    between atoms: C_18  and  C_29
   11  A    between atoms: O_19  and  C_41
   12  A    between atoms: C_30  and  C_40
                            x       y       z     vdW  Elec       q    Type
                         _______ _______ _______ _____ _____    ______ ____

>  <TORSDO>
F 12

$$$$
=
 OpenBabel11072412553D

 41 43  0  0  1  0  0  0  0  0999 V2000
  161.2050  211.5550  151.1130 C   0  0  0  0  0  0  0  0  0  0  0  0
  162.7900  210.1330  149.7580 C   0  0  0  0  0  2  0  0  0  0  0  0
  161.8620  207.6860  151.0340 C   0  0  0  0  0  2  0  0  0  0  0  0
  159.5250  212.4340  152.7190 C   0  0  1  0  0  3  0  0  0  0  0  0
  160.7310  207.6200  152.0450 C   0  0  0  0  0  2  0  0  0  0  0  0
  162.2640  210.7470  151.0200 C   0  0  0  0  0  3  0  0  0  0  0  0
  160.8350  211.9800  152.3950 O   0  0  0  0  0  0  0  0  0  0  0  0
  158.7000  211.2720  153.3010 C   0  0  2  0  0  3  0  0  0  0  0  0
  161.2770  207.9860  149.6610 C   0  0  2  0  0  3  0  0  0  0  0  0
  160.8580  208.7610  153.0400 C   0  0  1  0  0  3  0  0  0  0  0  0
  162.3690  207.9820  148.6130 C   0  0  2  0  0  3  0  0  0  0  0  0
  158.9210  210.0870  152.5880 O   0  0  0  0  0  0  0  0  0  0  0  0
  161.7400  209.3000  149.0160 C   0  0  2  0  0  3  0  0  0  0  0  0
  159.4820  209.2080  153.5180 C   0  0  0  0  0  2  0  0  0  0  0  0
  159.1710  212.4560  150.2300 O   0  0  0  0  0  1  0  0  0  0  0  0
  160.4350  211.9690  149.8850 C   0  0  1  0  0  3  0  0  0  0  0  0
  161.1790  214.3010  149.4170 O   0  0  0  0  0  1  0  0  0  0  0  0
  161.1930  212.9600  149.0600 C   0  0  0  0  0  0  0  0  0  0  0  0
  161.8210  212.5960  148.0340 O   0  0  0  0  0  0  0  0  0  0  0  0
  161.7790  208.3640  154.1930 C   0  0  2  0  0  3  0  0  0  0  0  0
  161.4370  207.1220  154.7310 O   0  0  0  0  0  1  0  0  0  0  0  0
  162.8230  210.4150  155.2270 C   0  0  0  0  0  3  0  0  0  0  0  0
  159.8870  208.4560  156.3370 O   0  0  0  0  0  1  0  0  0  0  0  0
  161.8460  209.4110  155.2660 C   0  0  0  0  0  0  0  0  0  0  0  0
  161.8880  211.4250  157.2220 C   0  0  0  0  0  3  0  0  0  0  0  0
  160.8800  209.4280  156.2860 C   0  0  0  0  0  0  0  0  0  0  0  0
  162.8450  211.4180  156.2040 C   0  0  0  0  0  3  0  0  0  0  0  0
  160.9070  210.4320  157.2590 C   0  0  0  0  0  3  0  0  0  0  0  0
  158.5300  214.4520  153.5610 O   0  0  0  0  0  1  0  0  0  0  0  0
  159.6140  213.5870  153.7190 C   0  0  1  0  0  3  0  0  0  0  0  0
  159.6130  213.0520  155.1390 C   0  0  0  0  0  2  0  0  0  0  0  0
  158.4790  213.3780  157.2010 O   0  0  0  0  0  1  0  0  0  0  0  0
  158.9590  214.0480  156.0760 C   0  0  0  0  0  2  0  0  0  0  0  0
  157.2110  211.5870  153.3130 C   0  0  0  0  0  2  0  0  0  0  0  0
  156.6290  211.1960  154.5500 O   0  0  0  0  0  0  0  0  0  0  0  0
  155.5580  213.3800  154.8290 N   0  0  0  0  0  1  0  0  0  0  0  0
  155.4520  211.7210  156.4450 O   0  0  0  0  0  0  0  0  0  0  0  0
  155.8730  212.0790  155.3150 C   0  0  0  0  0  0  0  0  0  0  0  0
  161.7910  207.5340  147.2880 C   0  0  0  0  0  2  0  0  0  0  0  0
  161.1490  205.3140  146.7460 O   0  0  0  0  0  1  0  0  0  0  0  0
  160.7950  206.4180  147.5190 C   0  0  0  0  0  2  0  0  0  0  0  0
  1  7  1  0  0  0  0
  2  6  1  0  0  0  0
  3  5  1  0  0  0  0
  4  8  1  0  0  0  0
  4 30  1  1  0  0  0
  5 10  1  0  0  0  0
  6  1  2  0  0  0  0
  7  4  1  0  0  0  0
  8 34  1  6  0  0  0
  9  3  1  1  0  0  0
 10 14  1  0  0  0  0
 10 20  1  1  0  0  0
 11 39  1  6  0  0  0
 11 13  1  0  0  0  0
 11  9  1  0  0  0  0
 12  8  1  0  0  0  0
 12 14  1  0  0  0  0
 13  9  1  0  0  0  0
 13  2  1  1  0  0  0
 16 15  1  1  0  0  0
 16  1  1  0  0  0  0
 18 17  1  0  0  0  0
 18 16  1  0  0  0  0
 19 18  2  0  0  0  0
 20 21  1  1  0  0  0
 20 24  1  0  0  0  0
 22 24  2  0  0  0  0
 22 27  1  0  0  0  0
 24 26  1  0  0  0  0
 25 28  1  0  0  0  0
 26 23  1  0  0  0  0
 26 28  2  0  0  0  0
 27 25  2  0  0  0  0
 30 29  1  1  0  0  0
 30 31  1  0  0  0  0
 31 33  1  0  0  0  0
 33 32  1  0  0  0  0
 34 35  1  0  0  0  0
 35 38  1  0  0  0  0
 36 38  1  0  0  0  0
 38 37  2  0  0  0  0
 39 41  1  0  0  0  0
 40 41  1  0  0  0  0
M  END
>  <MODEL>
2

>  <REMARK>
 VINA RESULT:      -0.5      2.756      7.813
  Name = 
  12 active torsions:
  status: ('A' for Active; 'I' for Inactive)
    1  A    between atoms: C_1  and  O_19
    2  A    between atoms: C_1  and  C_26
    3  A    between atoms: C_5  and  C_6
    4  A    between atoms: C_5  and  C_28
    5  A    between atoms: C_8  and  C_16
    6  A    between atoms: C_12  and  C_40
    7  A    between atoms: C_15  and  C_29
    8  A    between atoms: C_15  and  C_37
    9  A    between atoms: C_16  and  C_24
   10  A    between atoms: C_18  and  C_29
   11  A    between atoms: O_19  and  C_41
   12  A    between atoms: C_30  and  C_40
                            x       y       z     vdW  Elec       q    Type
                         _______ _______ _______ _____ _____    ______ ____

>  <TORSDO>
F 12

$$$$
=
 OpenBabel11072412553D

 41 43  0  0  1  0  0  0  0  0999 V2000
  162.0880  205.4780  150.8810 C   0  0  0  0  0  0  0  0  0  0  0  0
  162.3690  206.1420  153.3000 C   0  0  0  0  0  2  0  0  0  0  0  0
  161.2530  208.7870  152.8210 C   0  0  0  0  0  2  0  0  0  0  0  0
  161.6380  205.3970  148.4390 C   0  0  1  0  0  3  0  0  0  0  0  0
  160.6910  209.2540  151.4880 C   0  0  0  0  0  2  0  0  0  0  0  0
  162.6580  206.2230  151.8310 C   0  0  0  0  0  3  0  0  0  0  0  0
  162.4500  205.7460  149.5550 O   0  0  0  0  0  0  0  0  0  0  0  0
  160.7750  206.6030  148.0250 C   0  0  2  0  0  3  0  0  0  0  0  0
  160.3020  207.7610  153.4210 C   0  0  2  0  0  3  0  0  0  0  0  0
  161.6060  208.8150  150.3580 C   0  0  1  0  0  3  0  0  0  0  0  0
  160.7910  207.3310  154.7870 C   0  0  2  0  0  3  0  0  0  0  0  0
  160.2530  207.2600  149.1460 O   0  0  0  0  0  0  0  0  0  0  0  0
  160.8880  206.3580  153.6300 C   0  0  2  0  0  3  0  0  0  0  0  0
  160.8000  208.5450  149.0930 C   0  0  0  0  0  2  0  0  0  0  0  0
  159.9790  204.4670  150.3720 O   0  0  0  0  0  1  0  0  0  0  0  0
  161.0810  204.4120  151.2310 C   0  0  1  0  0  3  0  0  0  0  0  0
  161.0240  201.9910  150.6420 O   0  0  0  0  0  0  0  0  0  0  0  0
  161.6950  203.0490  151.2410 C   0  0  0  0  0  0  0  0  0  0  0  0
  162.7970  202.8440  151.8080 O   0  0  0  0  0  1  0  0  0  0  0  0
  162.7150  209.8430  150.1380 C   0  0  2  0  0  3  0  0  0  0  0  0
  163.4100  210.1220  151.3170 O   0  0  0  0  0  1  0  0  0  0  0  0
  161.1920  211.8540  150.1010 C   0  0  0  0  0  3  0  0  0  0  0  0
  163.8490  210.8720  147.7210 O   0  0  0  0  0  1  0  0  0  0  0  0
  162.2150  211.1060  149.5010 C   0  0  0  0  0  0  0  0  0  0  0  0
  161.3650  213.5230  148.3520 C   0  0  0  0  0  3  0  0  0  0  0  0
  162.8190  211.5820  148.3260 C   0  0  0  0  0  0  0  0  0  0  0  0
  160.7670  213.0580  149.5270 C   0  0  0  0  0  3  0  0  0  0  0  0
  162.3910  212.7860  147.7570 C   0  0  0  0  0  3  0  0  0  0  0  0
  163.8470  205.3510  147.4950 O   0  0  0  0  0  1  0  0  0  0  0  0
  162.5270  204.9470  147.2790 C   0  0  1  0  0  3  0  0  0  0  0  0
  162.4910  203.4360  147.1440 C   0  0  0  0  0  2  0  0  0  0  0  0
  160.8230  201.7900  146.7590 O   0  0  0  0  0  1  0  0  0  0  0  0
  161.1280  202.9050  147.5390 C   0  0  0  0  0  2  0  0  0  0  0  0
  159.6360  206.1920  147.1020 C   0  0  0  0  0  2  0  0  0  0  0  0
  159.9440  206.5190  145.7540 O   0  0  0  0  0  0  0  0  0  0  0  0
  161.5200  205.8390  144.0080 N   0  0  0  0  0  1  0  0  0  0  0  0
  159.8530  204.4370  144.8010 O   0  0  0  0  0  0  0  0  0  0  0  0
  160.4100  205.5640  144.8570 C   0  0  0  0  0  0  0  0  0  0  0  0
  159.6060  206.9650  155.6530 C   0  0  0  0  0  2  0  0  0  0  0  0
  161.2020  207.6820  157.2570 O   0  0  0  0  0  1  0  0  0  0  0  0
  160.0240  206.9530  157.1080 C   0  0  0  0  0  2  0  0  0  0  0  0
  1 16  1  0  0  0  0
  1  6  2  0  0  0  0
  4 30  1  6  0  0  0
  4  7  1  0  0  0  0
  5  3  1  0  0  0  0
  6  2  1  0  0  0  0
  7  1  1  0  0  0  0
  8 34  1  6  0  0  0
  8  4  1  0  0  0  0
  8 12  1  0  0  0  0
  9  3  1  6  0  0  0
  9 13  1  0  0  0  0
  9 11  1  0  0  0  0
 10 20  1  6  0  0  0
 10  5  1  0  0  0  0
 11 39  1  1  0  0  0
 13  2  1  6  0  0  0
 13 11  1  0  0  0  0
 14 12  1  0  0  0  0
 14 10  1  0  0  0  0
 16 15  1  6  0  0  0
 16 18  1  0  0  0  0
 17 18  2  0  0  0  0
 18 19  1  0  0  0  0
 20 21  1  1  0  0  0
 23 26  1  0  0  0  0
 24 22  2  0  0  0  0
 24 20  1  0  0  0  0
 25 27  2  0  0  0  0
 26 24  1  0  0  0  0
 27 22  1  0  0  0  0
 28 26  2  0  0  0  0
 28 25  1  0  0  0  0
 30 29  1  1  0  0  0
 31 30  1  0  0  0  0
 31 33  1  0  0  0  0
 32 33  1  0  0  0  0
 35 34  1  0  0  0  0
 36 38  1  0  0  0  0
 37 38  2  0  0  0  0
 38 35  1  0  0  0  0
 39 41  1  0  0  0  0
 41 40  1  0  0  0  0
M  END
>  <MODEL>
3

>  <REMARK>
 VINA RESULT:      -0.2      3.993      6.830
  Name = 
  12 active torsions:
  status: ('A' for Active; 'I' for Inactive)
    1  A    between atoms: C_1  and  O_19
    2  A    between atoms: C_1  and  C_26
    3  A    between atoms: C_5  and  C_6
    4  A    between atoms: C_5  and  C_28
    5  A    between atoms: C_8  and  C_16
    6  A    between atoms: C_12  and  C_40
    7  A    between atoms: C_15  and  C_29
    8  A    between atoms: C_15  and  C_37
    9  A    between atoms: C_16  and  C_24
   10  A    between atoms: C_18  and  C_29
   11  A    between atoms: O_19  and  C_41
   12  A    between atoms: C_30  and  C_40
                            x       y       z     vdW  Elec       q    Type
                         _______ _______ _______ _____ _____    ______ ____

>  <TORSDO>
F 12

$$$$
=
 OpenBabel11072412553D

 41 43  0  0  1  0  0  0  0  0999 V2000
  162.2140  209.8490  149.7900 C   0  0  0  0  0  0  0  0  0  0  0  0
  162.7480  207.6820  150.9670 C   0  0  0  0  0  2  0  0  0  0  0  0
  160.9330  208.2950  153.1580 C   0  0  0  0  0  2  0  0  0  0  0  0
  161.3690  212.0900  149.1280 C   0  0  1  0  0  3  0  0  0  0  0  0
  160.0420  209.5240  153.2180 C   0  0  0  0  0  2  0  0  0  0  0  0
  162.7390  209.1730  150.8140 C   0  0  0  0  0  3  0  0  0  0  0  0
  162.2530  211.2470  149.8600 O   0  0  0  0  0  0  0  0  0  0  0  0
  160.1700  212.4790  150.0110 C   0  0  2  0  0  3  0  0  0  0  0  0
  160.3960  207.3510  152.0920 C   0  0  2  0  0  3  0  0  0  0  0  0
  160.8200  210.7490  152.7700 C   0  0  1  0  0  3  0  0  0  0  0  0
  161.2140  206.0780  152.0590 C   0  0  2  0  0  3  0  0  0  0  0  0
  159.7090  211.3830  150.7500 O   0  0  0  0  0  0  0  0  0  0  0  0
  161.3450  207.0670  150.9190 C   0  0  2  0  0  3  0  0  0  0  0  0
  159.8950  211.7490  152.0860 C   0  0  0  0  0  2  0  0  0  0  0  0
  161.1980  210.0320  147.6310 O   0  0  0  0  0  1  0  0  0  0  0  0
  161.5890  209.1280  148.6230 C   0  0  1  0  0  3  0  0  0  0  0  0
  161.9560  206.8670  147.6420 O   0  0  0  0  0  0  0  0  0  0  0  0
  162.4930  208.0720  148.0710 C   0  0  0  0  0  0  0  0  0  0  0  0
  163.7360  208.2540  148.0170 O   0  0  0  0  0  1  0  0  0  0  0  0
  161.5760  211.3630  153.9490 C   0  0  2  0  0  3  0  0  0  0  0  0
  162.6570  210.5710  154.3450 O   0  0  0  0  0  1  0  0  0  0  0  0
  159.8620  212.8040  155.1110 C   0  0  0  0  0  3  0  0  0  0  0  0
  161.3960  209.6220  156.2120 O   0  0  0  0  0  1  0  0  0  0  0  0
  160.6810  211.6660  155.1140 C   0  0  0  0  0  0  0  0  0  0  0  0
  158.9320  212.1600  157.2550 C   0  0  0  0  0  3  0  0  0  0  0  0
  160.6100  210.7690  156.1930 C   0  0  0  0  0  0  0  0  0  0  0  0
  158.9910  213.0510  156.1790 C   0  0  0  0  0  3  0  0  0  0  0  0
  159.7390  211.0200  157.2570 C   0  0  0  0  0  3  0  0  0  0  0  0
  163.3250  212.9760  148.0480 O   0  0  0  0  0  1  0  0  0  0  0  0
  162.1210  213.3370  148.6580 C   0  0  1  0  0  3  0  0  0  0  0  0
  161.2800  214.1150  147.6650 C   0  0  0  0  0  2  0  0  0  0  0  0
  160.5780  213.0150  145.6800 O   0  0  0  0  0  1  0  0  0  0  0  0
  161.6390  213.7200  146.2470 C   0  0  0  0  0  2  0  0  0  0  0  0
  159.0260  213.0540  149.1880 C   0  0  0  0  0  2  0  0  0  0  0  0
  158.4700  214.1910  149.8340 O   0  0  0  0  0  0  0  0  0  0  0  0
  157.1630  213.9560  151.8910 N   0  0  0  0  0  1  0  0  0  0  0  0
  156.1790  214.2620  149.8140 O   0  0  0  0  0  0  0  0  0  0  0  0
  157.2390  214.1370  150.4800 C   0  0  0  0  0  0  0  0  0  0  0  0
  160.3340  204.9260  151.6260 C   0  0  0  0  0  2  0  0  0  0  0  0
  161.2920  203.6620  149.8590 O   0  0  0  0  0  1  0  0  0  0  0  0
  160.4470  204.7370  150.1280 C   0  0  0  0  0  2  0  0  0  0  0  0
  1  7  1  0  0  0  0
  1  6  2  0  0  0  0
  3  5  1  0  0  0  0
  4 30  1  1  0  0  0
  4  7  1  0  0  0  0
  4  8  1  0  0  0  0
  6  2  1  0  0  0  0
  8 34  1  6  0  0  0
  8 12  1  0  0  0  0
  9  3  1  1  0  0  0
 10  5  1  0  0  0  0
 10 20  1  1  0  0  0
 11 39  1  6  0  0  0
 11  9  1  0  0  0  0
 12 14  1  0  0  0  0
 13  2  1  1  0  0  0
 13 11  1  0  0  0  0
 13  9  1  0  0  0  0
 14 10  1  0  0  0  0
 16 15  1  6  0  0  0
 16  1  1  0  0  0  0
 17 18  2  0  0  0  0
 18 16  1  0  0  0  0
 19 18  1  0  0  0  0
 20 21  1  1  0  0  0
 20 24  1  0  0  0  0
 22 24  2  0  0  0  0
 22 27  1  0  0  0  0
 24 26  1  0  0  0  0
 25 28  1  0  0  0  0
 26 23  1  0  0  0  0
 26 28  2  0  0  0  0
 27 25  2  0  0  0  0
 30 29  1  6  0  0  0
 31 30  1  0  0  0  0
 32 33  1  0  0  0  0
 33 31  1  0  0  0  0
 34 35  1  0  0  0  0
 35 38  1  0  0  0  0
 37 38  2  0  0  0  0
 38 36  1  0  0  0  0
 40 41  1  0  0  0  0
 41 39  1  0  0  0  0
M  END
>  <MODEL>
4

>  <REMARK>
 VINA RESULT:       0.1      2.805      7.449
  Name = 
  12 active torsions:
  status: ('A' for Active; 'I' for Inactive)
    1  A    between atoms: C_1  and  O_19
    2  A    between atoms: C_1  and  C_26
    3  A    between atoms: C_5  and  C_6
    4  A    between atoms: C_5  and  C_28
    5  A    between atoms: C_8  and  C_16
    6  A    between atoms: C_12  and  C_40
    7  A    between atoms: C_15  and  C_29
    8  A    between atoms: C_15  and  C_37
    9  A    between atoms: C_16  and  C_24
   10  A    between atoms: C_18  and  C_29
   11  A    between atoms: O_19  and  C_41
   12  A    between atoms: C_30  and  C_40
                            x       y       z     vdW  Elec       q    Type
                         _______ _______ _______ _____ _____    ______ ____

>  <TORSDO>
F 12

$$$$
=
 OpenBabel11072412553D

 41 43  0  0  1  0  0  0  0  0999 V2000
  162.0730  208.5620  150.7530 C   0  0  0  0  0  0  0  0  0  0  0  0
  162.7130  206.2230  151.4530 C   0  0  0  0  0  2  0  0  0  0  0  0
  161.1960  206.4280  153.9290 C   0  0  0  0  0  2  0  0  0  0  0  0
  161.1890  210.8800  150.6090 C   0  0  1  0  0  3  0  0  0  0  0  0
  160.3400  207.6220  154.3160 C   0  0  0  0  0  2  0  0  0  0  0  0
  162.7100  207.7180  151.5680 C   0  0  0  0  0  3  0  0  0  0  0  0
  162.1430  209.9260  151.0630 O   0  0  0  0  0  0  0  0  0  0  0  0
  160.1160  211.0990  151.6910 C   0  0  2  0  0  3  0  0  0  0  0  0
  160.5140  205.6840  152.7890 C   0  0  2  0  0  3  0  0  0  0  0  0
  161.0760  208.9120  153.9970 C   0  0  1  0  0  3  0  0  0  0  0  0
  161.3010  204.4430  152.4290 C   0  0  2  0  0  3  0  0  0  0  0  0
  159.7320  209.8860  152.2770 O   0  0  0  0  0  0  0  0  0  0  0  0
  161.3050  205.6190  151.4750 C   0  0  2  0  0  3  0  0  0  0  0  0
  160.0890  210.0110  153.6220 C   0  0  0  0  0  2  0  0  0  0  0  0
  160.6810  209.1120  148.8850 O   0  0  0  0  0  1  0  0  0  0  0  0
  161.2940  208.0560  149.5660 C   0  0  1  0  0  3  0  0  0  0  0  0
  161.6600  206.0430  148.1420 O   0  0  0  0  0  0  0  0  0  0  0  0
  162.1480  207.2400  148.6480 C   0  0  0  0  0  0  0  0  0  0  0  0
  163.3110  207.6120  148.3500 O   0  0  0  0  0  1  0  0  0  0  0  0
  161.9830  209.3110  155.1610 C   0  0  2  0  0  3  0  0  0  0  0  0
  162.1530  208.2660  156.0720 O   0  0  0  0  0  1  0  0  0  0  0  0
  160.1590  210.9070  155.8620 C   0  0  0  0  0  3  0  0  0  0  0  0
  163.7850  211.0090  156.5960 O   0  0  0  0  0  1  0  0  0  0  0  0
  161.5160  210.5560  155.8570 C   0  0  0  0  0  0  0  0  0  0  0  0
  160.6460  212.8300  157.2550 C   0  0  0  0  0  3  0  0  0  0  0  0
  162.4360  211.3450  156.5670 C   0  0  0  0  0  0  0  0  0  0  0  0
  159.7260  212.0420  156.5570 C   0  0  0  0  0  3  0  0  0  0  0  0
  161.9980  212.4780  157.2600 C   0  0  0  0  0  3  0  0  0  0  0  0
  163.0500  211.9480  149.5290 O   0  0  0  0  0  1  0  0  0  0  0  0
  161.8960  212.1940  150.2760 C   0  0  1  0  0  3  0  0  0  0  0  0
  160.9770  213.0990  149.4780 C   0  0  0  0  0  2  0  0  0  0  0  0
  160.3060  212.2180  147.3760 O   0  0  0  0  0  1  0  0  0  0  0  0
  161.2860  212.9900  147.9980 C   0  0  0  0  0  2  0  0  0  0  0  0
  158.8870  211.8040  151.1320 C   0  0  0  0  0  2  0  0  0  0  0  0
  158.7060  213.0640  151.7630 O   0  0  0  0  0  0  0  0  0  0  0  0
  158.7420  214.1900  153.9370 N   0  0  0  0  0  1  0  0  0  0  0  0
  157.3880  212.3600  153.5000 O   0  0  0  0  0  0  0  0  0  0  0  0
  158.2520  213.1690  153.0740 C   0  0  0  0  0  0  0  0  0  0  0  0
  160.3550  203.3810  151.9130 C   0  0  0  0  0  2  0  0  0  0  0  0
  160.7610  201.5210  150.4950 O   0  0  0  0  0  1  0  0  0  0  0  0
  160.8130  202.9120  150.5490 C   0  0  0  0  0  2  0  0  0  0  0  0
  1  7  1  0  0  0  0
  1  6  2  0  0  0  0
  2  6  1  0  0  0  0
  3  5  1  0  0  0  0
  4 30  1  1  0  0  0
  4  7  1  0  0  0  0
  4  8  1  0  0  0  0
  8 34  1  6  0  0  0
  8 12  1  0  0  0  0
  9  3  1  1  0  0  0
 10  5  1  0  0  0  0
 10 20  1  1  0  0  0
 11 39  1  6  0  0  0
 11  9  1  0  0  0  0
 12 14  1  0  0  0  0
 13  2  1  1  0  0  0
 13 11  1  0  0  0  0
 13  9  1  0  0  0  0
 14 10  1  0  0  0  0
 16 15  1  6  0  0  0
 16  1  1  0  0  0  0
 17 18  2  0  0  0  0
 18 16  1  0  0  0  0
 19 18  1  0  0  0  0
 20 24  1  0  0  0  0
 20 21  1  1  0  0  0
 22 27  1  0  0  0  0
 24 22  2  0  0  0  0
 24 26  1  0  0  0  0
 25 28  1  0  0  0  0
 26 23  1  0  0  0  0
 26 28  2  0  0  0  0
 27 25  2  0  0  0  0
 30 29  1  6  0  0  0
 31 30  1  0  0  0  0
 32 33  1  0  0  0  0
 33 31  1  0  0  0  0
 34 35  1  0  0  0  0
 35 38  1  0  0  0  0
 38 37  2  0  0  0  0
 38 36  1  0  0  0  0
 40 41  1  0  0  0  0
 41 39  1  0  0  0  0
M  END
>  <MODEL>
5

>  <REMARK>
 VINA RESULT:       0.2      2.778      7.500
  Name = 
  12 active torsions:
  status: ('A' for Active; 'I' for Inactive)
    1  A    between atoms: C_1  and  O_19
    2  A    between atoms: C_1  and  C_26
    3  A    between atoms: C_5  and  C_6
    4  A    between atoms: C_5  and  C_28
    5  A    between atoms: C_8  and  C_16
    6  A    between atoms: C_12  and  C_40
    7  A    between atoms: C_15  and  C_29
    8  A    between atoms: C_15  and  C_37
    9  A    between atoms: C_16  and  C_24
   10  A    between atoms: C_18  and  C_29
   11  A    between atoms: O_19  and  C_41
   12  A    between atoms: C_30  and  C_40
                            x       y       z     vdW  Elec       q    Type
                         _______ _______ _______ _____ _____    ______ ____

>  <TORSDO>
F 12

$$$$
=
 OpenBabel11072412553D

 41 43  0  0  1  0  0  0  0  0999 V2000
  161.8010  210.8890  150.0490 C   0  0  0  0  0  0  0  0  0  0  0  0
  162.6680  208.8790  151.3040 C   0  0  0  0  0  2  0  0  0  0  0  0
  160.5750  209.0920  153.3160 C   0  0  0  0  0  2  0  0  0  0  0  0
  160.5680  212.9040  149.2770 C   0  0  1  0  0  3  0  0  0  0  0  0
  159.4440  210.1070  153.2760 C   0  0  0  0  0  2  0  0  0  0  0  0
  162.3610  210.3360  151.1270 C   0  0  0  0  0  3  0  0  0  0  0  0
  161.5390  212.2640  150.0990 O   0  0  0  0  0  0  0  0  0  0  0  0
  159.2400  213.0300  150.0440 C   0  0  2  0  0  3  0  0  0  0  0  0
  160.3460  208.0590  152.2220 C   0  0  2  0  0  3  0  0  0  0  0  0
  159.9850  211.4690  152.8780 C   0  0  1  0  0  3  0  0  0  0  0  0
  161.4120  206.9870  152.2830 C   0  0  2  0  0  3  0  0  0  0  0  0
  158.9540  211.8600  150.7580 O   0  0  0  0  0  0  0  0  0  0  0  0
  161.4350  207.9840  151.1430 C   0  0  2  0  0  3  0  0  0  0  0  0
  158.9370  212.2530  152.0990 C   0  0  0  0  0  2  0  0  0  0  0  0
  160.8340  210.8370  147.8600 O   0  0  0  0  0  1  0  0  0  0  0  0
  161.4480  210.0560  148.8430 C   0  0  1  0  0  3  0  0  0  0  0  0
  163.7490  210.0570  147.8860 O   0  0  0  0  0  0  0  0  0  0  0  0
  162.6390  209.3330  148.2990 C   0  0  0  0  0  0  0  0  0  0  0  0
  162.6350  208.0810  148.1850 O   0  0  0  0  0  1  0  0  0  0  0  0
  160.4870  212.2250  154.1090 C   0  0  2  0  0  3  0  0  0  0  0  0
  161.4250  211.4840  154.8310 O   0  0  0  0  0  1  0  0  0  0  0  0
  158.5250  213.7300  154.6060 C   0  0  0  0  0  3  0  0  0  0  0  0
  159.9340  210.9620  156.6160 O   0  0  0  0  0  1  0  0  0  0  0  0
  159.3700  212.6840  155.0000 C   0  0  0  0  0  0  0  0  0  0  0  0
  157.2180  213.4570  156.6300 C   0  0  0  0  0  3  0  0  0  0  0  0
  159.1240  212.0170  156.2110 C   0  0  0  0  0  0  0  0  0  0  0  0
  157.4530  214.1180  155.4200 C   0  0  0  0  0  3  0  0  0  0  0  0
  158.0520  212.4070  157.0200 C   0  0  0  0  0  3  0  0  0  0  0  0
  162.4220  214.4320  149.2190 O   0  0  0  0  0  1  0  0  0  0  0  0
  161.0810  214.2820  148.8560 C   0  0  1  0  0  3  0  0  0  0  0  0
  160.9570  214.4530  147.3540 C   0  0  0  0  0  2  0  0  0  0  0  0
  162.7470  213.1040  146.5680 O   0  0  0  0  0  1  0  0  0  0  0  0
  162.3260  214.4260  146.7050 C   0  0  0  0  0  2  0  0  0  0  0  0
  158.0790  213.3540  149.1130 C   0  0  0  0  0  2  0  0  0  0  0  0
  158.1050  212.5070  147.9720 O   0  0  0  0  0  0  0  0  0  0  0  0
  156.7520  214.0260  146.6090 N   0  0  0  0  0  1  0  0  0  0  0  0
  158.1150  212.3960  145.6830 O   0  0  0  0  0  0  0  0  0  0  0  0
  157.6750  212.9480  146.7240 C   0  0  0  0  0  0  0  0  0  0  0  0
  160.8360  205.6770  151.7920 C   0  0  0  0  0  2  0  0  0  0  0  0
  161.0620  204.5310  149.7250 O   0  0  0  0  0  1  0  0  0  0  0  0
  161.7870  205.0430  150.8000 C   0  0  0  0  0  2  0  0  0  0  0  0
  1  7  1  0  0  0  0
  1  6  2  0  0  0  0
  4 30  1  1  0  0  0
  4  8  1  0  0  0  0
  4  7  1  0  0  0  0
  5  3  1  0  0  0  0
  6  2  1  0  0  0  0
  8 34  1  6  0  0  0
  8 12  1  0  0  0  0
  9 11  1  0  0  0  0
  9  3  1  1  0  0  0
 10  5  1  0  0  0  0
 10 20  1  1  0  0  0
 11 39  1  6  0  0  0
 12 14  1  0  0  0  0
 13  2  1  1  0  0  0
 13  9  1  0  0  0  0
 13 11  1  0  0  0  0
 14 10  1  0  0  0  0
 16 15  1  6  0  0  0
 16  1  1  0  0  0  0
 17 18  2  0  0  0  0
 18 16  1  0  0  0  0
 19 18  1  0  0  0  0
 20 21  1  1  0  0  0
 20 24  1  0  0  0  0
 22 24  2  0  0  0  0
 22 27  1  0  0  0  0
 24 26  1  0  0  0  0
 25 28  1  0  0  0  0
 26 23  1  0  0  0  0
 26 28  2  0  0  0  0
 27 25  2  0  0  0  0
 30 29  1  6  0  0  0
 31 30  1  0  0  0  0
 32 33  1  0  0  0  0
 33 31  1  0  0  0  0
 35 34  1  0  0  0  0
 36 38  1  0  0  0  0
 37 38  2  0  0  0  0
 38 35  1  0  0  0  0
 40 41  1  0  0  0  0
 41 39  1  0  0  0  0
M  END
>  <MODEL>
6

>  <REMARK>
 VINA RESULT:       0.4      2.842      7.096
  Name = 
  12 active torsions:
  status: ('A' for Active; 'I' for Inactive)
    1  A    between atoms: C_1  and  O_19
    2  A    between atoms: C_1  and  C_26
    3  A    between atoms: C_5  and  C_6
    4  A    between atoms: C_5  and  C_28
    5  A    between atoms: C_8  and  C_16
    6  A    between atoms: C_12  and  C_40
    7  A    between atoms: C_15  and  C_29
    8  A    between atoms: C_15  and  C_37
    9  A    between atoms: C_16  and  C_24
   10  A    between atoms: C_18  and  C_29
   11  A    between atoms: O_19  and  C_41
   12  A    between atoms: C_30  and  C_40
                            x       y       z     vdW  Elec       q    Type
                         _______ _______ _______ _____ _____    ______ ____

>  <TORSDO>
F 12

$$$$
=
 OpenBabel11072412553D

 41 43  0  0  1  0  0  0  0  0999 V2000
  160.6330  211.5650  152.5350 C   0  0  0  0  0  0  0  0  0  0  0  0
  162.2540  209.9440  151.4810 C   0  0  0  0  0  2  0  0  0  0  0  0
  161.3230  207.7510  153.1530 C   0  0  0  0  0  2  0  0  0  0  0  0
  158.9140  212.6950  153.9300 C   0  0  1  0  0  3  0  0  0  0  0  0
  160.1720  207.8520  154.1400 C   0  0  0  0  0  2  0  0  0  0  0  0
  161.6990  210.7660  152.6050 C   0  0  0  0  0  3  0  0  0  0  0  0
  160.2340  212.2060  153.7150 O   0  0  0  0  0  0  0  0  0  0  0  0
  158.0870  211.6440  154.6940 C   0  0  2  0  0  3  0  0  0  0  0  0
  160.7610  207.7970  151.7390 C   0  0  2  0  0  3  0  0  0  0  0  0
  160.2710  209.1530  154.9190 C   0  0  1  0  0  3  0  0  0  0  0  0
  161.8730  207.6200  150.7280 C   0  0  2  0  0  3  0  0  0  0  0  0
  158.3320  210.3550  154.2060 O   0  0  0  0  0  0  0  0  0  0  0  0
  161.2260  208.9810  150.8800 C   0  0  2  0  0  3  0  0  0  0  0  0
  158.8820  209.6610  155.2870 C   0  0  0  0  0  2  0  0  0  0  0  0
  158.5380  212.0430  151.4790 O   0  0  0  0  0  1  0  0  0  0  0  0
  159.8830  211.7460  151.2390 C   0  0  1  0  0  3  0  0  0  0  0  0
  160.2020  214.1200  150.5490 O   0  0  0  0  0  1  0  0  0  0  0  0
  160.5200  212.7810  150.3670 C   0  0  0  0  0  0  0  0  0  0  0  0
  161.3200  212.4500  149.4560 O   0  0  0  0  0  0  0  0  0  0  0  0
  161.1730  208.9760  156.1410 C   0  0  2  0  0  3  0  0  0  0  0  0
  160.4570  208.5470  157.2610 O   0  0  0  0  0  1  0  0  0  0  0  0
  163.3370  210.2720  156.1660 C   0  0  0  0  0  3  0  0  0  0  0  0
  159.9590  211.3130  157.2610 O   0  0  0  0  0  1  0  0  0  0  0  0
  161.9670  210.2100  156.4550 C   0  0  0  0  0  0  0  0  0  0  0  0
  163.4140  212.5650  156.9500 C   0  0  0  0  0  3  0  0  0  0  0  0
  161.3210  211.3400  156.9840 C   0  0  0  0  0  0  0  0  0  0  0  0
  164.0590  211.4460  156.4150 C   0  0  0  0  0  3  0  0  0  0  0  0
  162.0470  212.5100  157.2300 C   0  0  0  0  0  3  0  0  0  0  0  0
  157.6920  214.4000  155.1010 O   0  0  0  0  0  1  0  0  0  0  0  0
  158.9740  214.0070  154.7120 C   0  0  1  0  0  3  0  0  0  0  0  0
  159.8350  213.8430  155.9500 C   0  0  0  0  0  2  0  0  0  0  0  0
  157.8520  213.5010  157.2120 O   0  0  0  0  0  1  0  0  0  0  0  0
  159.0490  214.2150  157.1910 C   0  0  0  0  0  2  0  0  0  0  0  0
  156.5960  211.9400  154.6240 C   0  0  0  0  0  2  0  0  0  0  0  0
  155.8630  210.9820  155.3760 O   0  0  0  0  0  0  0  0  0  0  0  0
  155.3820  212.5910  157.1590 N   0  0  0  0  0  1  0  0  0  0  0  0
  154.3070  210.5430  157.0010 O   0  0  0  0  0  0  0  0  0  0  0  0
  155.1600  211.3360  156.5230 C   0  0  0  0  0  0  0  0  0  0  0  0
  161.3260  206.9390  149.4930 C   0  0  0  0  0  2  0  0  0  0  0  0
  161.3340  207.0110  147.1200 O   0  0  0  0  0  1  0  0  0  0  0  0
  161.8570  207.6290  148.2550 C   0  0  0  0  0  2  0  0  0  0  0  0
  1  6  2  0  0  0  0
  1  7  1  0  0  0  0
  2  6  1  0  0  0  0
  3  5  1  0  0  0  0
  4  8  1  0  0  0  0
  4 30  1  1  0  0  0
  5 10  1  0  0  0  0
  7  4  1  0  0  0  0
  8 34  1  6  0  0  0
  9  3  1  1  0  0  0
 10 14  1  0  0  0  0
 10 20  1  1  0  0  0
 11 39  1  6  0  0  0
 11 13  1  0  0  0  0
 11  9  1  0  0  0  0
 12  8  1  0  0  0  0
 12 14  1  0  0  0  0
 13  2  1  1  0  0  0
 13  9  1  0  0  0  0
 16 15  1  1  0  0  0
 16  1  1  0  0  0  0
 18 17  1  0  0  0  0
 18 16  1  0  0  0  0
 19 18  2  0  0  0  0
 20 24  1  0  0  0  0
 20 21  1  1  0  0  0
 22 27  2  0  0  0  0
 22 24  1  0  0  0  0
 24 26  2  0  0  0  0
 25 28  2  0  0  0  0
 26 28  1  0  0  0  0
 26 23  1  0  0  0  0
 27 25  1  0  0  0  0
 30 29  1  1  0  0  0
 30 31  1  0  0  0  0
 31 33  1  0  0  0  0
 33 32  1  0  0  0  0
 34 35  1  0  0  0  0
 35 38  1  0  0  0  0
 38 37  2  0  0  0  0
 38 36  1  0  0  0  0
 40 41  1  0  0  0  0
 41 39  1  0  0  0  0
M  END
>  <MODEL>
7

>  <REMARK>
 VINA RESULT:       0.7      2.840      7.607
  Name = 
  12 active torsions:
  status: ('A' for Active; 'I' for Inactive)
    1  A    between atoms: C_1  and  O_19
    2  A    between atoms: C_1  and  C_26
    3  A    between atoms: C_5  and  C_6
    4  A    between atoms: C_5  and  C_28
    5  A    between atoms: C_8  and  C_16
    6  A    between atoms: C_12  and  C_40
    7  A    between atoms: C_15  and  C_29
    8  A    between atoms: C_15  and  C_37
    9  A    between atoms: C_16  and  C_24
   10  A    between atoms: C_18  and  C_29
   11  A    between atoms: O_19  and  C_41
   12  A    between atoms: C_30  and  C_40
                            x       y       z     vdW  Elec       q    Type
                         _______ _______ _______ _____ _____    ______ ____

>  <TORSDO>
F 12

$$$$
=
 OpenBabel11072412553D

 41 43  0  0  1  0  0  0  0  0999 V2000
  159.9300  212.4010  155.6210 C   0  0  0  0  0  0  0  0  0  0  0  0
  158.2880  214.2880  155.2860 C   0  0  0  0  0  2  0  0  0  0  0  0
  157.8620  213.5720  152.4970 C   0  0  0  0  0  2  0  0  0  0  0  0
  161.4680  210.4670  155.3610 C   0  0  1  0  0  3  0  0  0  0  0  0
  158.4830  212.3640  151.8160 C   0  0  0  0  0  2  0  0  0  0  0  0
  159.5800  213.5620  155.0620 C   0  0  0  0  0  3  0  0  0  0  0  0
  161.1590  211.8510  155.2380 O   0  0  0  0  0  0  0  0  0  0  0  0
  161.1860  209.7500  154.0270 C   0  0  2  0  0  3  0  0  0  0  0  0
  156.8020  213.0920  153.4780 C   0  0  2  0  0  3  0  0  0  0  0  0
  159.9430  212.2390  152.2140 C   0  0  1  0  0  3  0  0  0  0  0  0
  156.1080  214.2730  154.1190 C   0  0  2  0  0  3  0  0  0  0  0  0
  159.9880  210.1970  153.4560 O   0  0  0  0  0  0  0  0  0  0  0  0
  157.0580  213.4380  154.9520 C   0  0  2  0  0  3  0  0  0  0  0  0
  160.3650  210.7750  152.2410 C   0  0  0  0  0  2  0  0  0  0  0  0
  158.0460  212.5870  157.0860 O   0  0  0  0  0  1  0  0  0  0  0  0
  159.0220  211.7090  156.6060 C   0  0  1  0  0  3  0  0  0  0  0  0
  158.9280  209.2320  156.3470 O   0  0  0  0  0  1  0  0  0  0  0  0
  158.4060  210.4770  156.0230 C   0  0  0  0  0  0  0  0  0  0  0  0
  157.4400  210.5570  155.2240 O   0  0  0  0  0  0  0  0  0  0  0  0
  160.8230  213.0850  151.2930 C   0  0  2  0  0  3  0  0  0  0  0  0
  160.4530  214.4320  151.3110 O   0  0  0  0  0  1  0  0  0  0  0  0
  160.0640  213.1330  148.8880 C   0  0  0  0  0  3  0  0  0  0  0  0
  162.5690  210.9550  150.5210 O   0  0  0  0  0  1  0  0  0  0  0  0
  160.8610  212.5600  149.8880 C   0  0  0  0  0  0  0  0  0  0  0  0
  161.0250  211.6370  147.2410 C   0  0  0  0  0  3  0  0  0  0  0  0
  161.7520  211.5270  149.5530 C   0  0  0  0  0  0  0  0  0  0  0  0
  160.1440  212.6710  147.5680 C   0  0  0  0  0  3  0  0  0  0  0  0
  161.8290  211.0700  148.2330 C   0  0  0  0  0  3  0  0  0  0  0  0
  163.7570  211.0380  154.9080 O   0  0  0  0  0  1  0  0  0  0  0  0
  162.9340  210.3020  155.7630 C   0  0  1  0  0  3  0  0  0  0  0  0
  163.1470  210.7830  157.1850 C   0  0  0  0  0  2  0  0  0  0  0  0
  165.0920  211.5750  156.0750 O   0  0  0  0  0  1  0  0  0  0  0  0
  164.3660  211.6790  157.2610 C   0  0  0  0  0  2  0  0  0  0  0  0
  161.1340  208.2390  154.1990 C   0  0  0  0  0  2  0  0  0  0  0  0
  160.5160  207.6310  153.0730 O   0  0  0  0  0  0  0  0  0  0  0  0
  161.7200  207.0510  151.0220 N   0  0  0  0  0  1  0  0  0  0  0  0
  161.3200  205.5150  152.7110 O   0  0  0  0  0  0  0  0  0  0  0  0
  161.1810  206.6930  152.2900 C   0  0  0  0  0  0  0  0  0  0  0  0
  154.6820  213.8960  154.4550 C   0  0  0  0  0  2  0  0  0  0  0  0
  154.1550  214.1260  156.7580 O   0  0  0  0  0  1  0  0  0  0  0  0
  154.6400  213.2260  155.8120 C   0  0  0  0  0  2  0  0  0  0  0  0
  1 16  1  0  0  0  0
  4 30  1  6  0  0  0
  5 10  1  0  0  0  0
  5  3  1  0  0  0  0
  6  2  1  0  0  0  0
  6  1  2  0  0  0  0
  7  4  1  0  0  0  0
  7  1  1  0  0  0  0
  8 34  1  1  0  0  0
  8  4  1  0  0  0  0
  9  3  1  6  0  0  0
  9 11  1  0  0  0  0
  9 13  1  0  0  0  0
 10 20  1  6  0  0  0
 10 14  1  0  0  0  0
 11 39  1  1  0  0  0
 11 13  1  0  0  0  0
 12  8  1  0  0  0  0
 13  2  1  6  0  0  0
 14 12  1  0  0  0  0
 16 15  1  6  0  0  0
 18 17  1  0  0  0  0
 18 16  1  0  0  0  0
 19 18  2  0  0  0  0
 20 21  1  6  0  0  0
 22 24  1  0  0  0  0
 24 20  1  0  0  0  0
 25 27  1  0  0  0  0
 25 28  2  0  0  0  0
 26 24  2  0  0  0  0
 26 23  1  0  0  0  0
 27 22  2  0  0  0  0
 28 26  1  0  0  0  0
 30 29  1  6  0  0  0
 30 31  1  0  0  0  0
 31 33  1  0  0  0  0
 32 33  1  0  0  0  0
 35 34  1  0  0  0  0
 36 38  1  0  0  0  0
 38 37  2  0  0  0  0
 38 35  1  0  0  0  0
 39 41  1  0  0  0  0
 41 40  1  0  0  0  0
M  END
>  <MODEL>
8

>  <REMARK>
 VINA RESULT:       0.9      2.052      2.865
  Name = 
  12 active torsions:
  status: ('A' for Active; 'I' for Inactive)
    1  A    between atoms: C_1  and  O_19
    2  A    between atoms: C_1  and  C_26
    3  A    between atoms: C_5  and  C_6
    4  A    between atoms: C_5  and  C_28
    5  A    between atoms: C_8  and  C_16
    6  A    between atoms: C_12  and  C_40
    7  A    between atoms: C_15  and  C_29
    8  A    between atoms: C_15  and  C_37
    9  A    between atoms: C_16  and  C_24
   10  A    between atoms: C_18  and  C_29
   11  A    between atoms: O_19  and  C_41
   12  A    between atoms: C_30  and  C_40
                            x       y       z     vdW  Elec       q    Type
                         _______ _______ _______ _____ _____    ______ ____

>  <TORSDO>
F 12

$$$$
=
 OpenBabel11072412553D

 41 43  0  0  1  0  0  0  0  0999 V2000
  161.5920  208.4620  153.3830 C   0  0  0  0  0  0  0  0  0  0  0  0
  161.2850  210.7110  154.4860 C   0  0  0  0  0  2  0  0  0  0  0  0
  160.5420  211.9690  151.9690 C   0  0  0  0  0  2  0  0  0  0  0  0
  161.7880  206.5600  151.7960 C   0  0  1  0  0  3  0  0  0  0  0  0
  160.3840  211.2290  150.6510 C   0  0  0  0  0  2  0  0  0  0  0  0
  161.9510  209.7340  153.5640 C   0  0  0  0  0  3  0  0  0  0  0  0
  162.3060  207.7250  152.4300 O   0  0  0  0  0  0  0  0  0  0  0  0
  161.1590  206.9410  150.4430 C   0  0  2  0  0  3  0  0  0  0  0  0
  159.3910  211.5860  152.8880 C   0  0  2  0  0  3  0  0  0  0  0  0
  161.5240  210.2410  150.4730 C   0  0  1  0  0  3  0  0  0  0  0  0
  159.4720  212.3660  154.1820 C   0  0  2  0  0  3  0  0  0  0  0  0
  160.4170  208.1240  150.5450 O   0  0  0  0  0  0  0  0  0  0  0  0
  159.7910  210.8850  154.1930 C   0  0  2  0  0  3  0  0  0  0  0  0
  161.0560  209.0230  149.6870 C   0  0  0  0  0  2  0  0  0  0  0  0
  160.2010  206.5480  153.7470 O   0  0  0  0  0  1  0  0  0  0  0  0
  160.4480  207.8600  154.1600 C   0  0  1  0  0  3  0  0  0  0  0  0
  161.9540  207.7040  156.1400 O   0  0  0  0  0  0  0  0  0  0  0  0
  160.6800  207.9320  155.6360 C   0  0  0  0  0  0  0  0  0  0  0  0
  159.7320  208.1680  156.4260 O   0  0  0  0  0  1  0  0  0  0  0  0
  162.7290  210.9260  149.8290 C   0  0  2  0  0  3  0  0  0  0  0  0
  163.6020  211.4530  150.7840 O   0  0  0  0  0  1  0  0  0  0  0  0
  161.1970  212.7680  149.0400 C   0  0  0  0  0  3  0  0  0  0  0  0
  164.2880  211.4530  147.4880 O   0  0  0  0  0  1  0  0  0  0  0  0
  162.3330  211.9750  148.8320 C   0  0  0  0  0  0  0  0  0  0  0  0
  161.6680  214.0050  147.0090 C   0  0  0  0  0  3  0  0  0  0  0  0
  163.1430  212.2110  147.7090 C   0  0  0  0  0  0  0  0  0  0  0  0
  160.8640  213.7790  148.1300 C   0  0  0  0  0  3  0  0  0  0  0  0
  162.8060  213.2230  146.8030 C   0  0  0  0  0  3  0  0  0  0  0  0
  163.6820  205.4400  152.7610 O   0  0  0  0  0  1  0  0  0  0  0  0
  162.9100  205.5400  151.6010 C   0  0  1  0  0  3  0  0  0  0  0  0
  162.3310  204.1760  151.2760 C   0  0  0  0  0  2  0  0  0  0  0  0
  160.7980  202.5170  152.0110 O   0  0  0  0  0  1  0  0  0  0  0  0
  161.3410  203.7570  152.3440 C   0  0  0  0  0  2  0  0  0  0  0  0
  160.2710  205.8300  149.9010 C   0  0  0  0  0  2  0  0  0  0  0  0
  160.3220  205.7990  148.4810 O   0  0  0  0  0  0  0  0  0  0  0  0
  162.3270  206.1550  147.1210 N   0  0  0  0  0  1  0  0  0  0  0  0
  161.6300  204.0480  147.7910 O   0  0  0  0  0  0  0  0  0  0  0  0
  161.4220  205.2880  147.7990 C   0  0  0  0  0  0  0  0  0  0  0  0
  158.0770  212.5830  154.7260 C   0  0  0  0  0  2  0  0  0  0  0  0
  155.8850  213.2020  154.0590 O   0  0  0  0  0  1  0  0  0  0  0  0
  157.2230  213.2630  153.6770 C   0  0  0  0  0  2  0  0  0  0  0  0
  1  6  2  0  0  0  0
  1 16  1  0  0  0  0
  4 30  1  6  0  0  0
  4  7  1  0  0  0  0
  5  3  1  0  0  0  0
  6  2  1  0  0  0  0
  7  1  1  0  0  0  0
  8 34  1  1  0  0  0
  8 12  1  0  0  0  0
  8  4  1  0  0  0  0
  9  3  1  6  0  0  0
  9 11  1  0  0  0  0
  9 13  1  0  0  0  0
 10 20  1  6  0  0  0
 10  5  1  0  0  0  0
 11 13  1  0  0  0  0
 11 39  1  1  0  0  0
 13  2  1  6  0  0  0
 14 10  1  0  0  0  0
 14 12  1  0  0  0  0
 16 15  1  6  0  0  0
 16 18  1  0  0  0  0
 18 17  2  0  0  0  0
 18 19  1  0  0  0  0
 20 21  1  1  0  0  0
 23 26  1  0  0  0  0
 24 22  1  0  0  0  0
 24 20  1  0  0  0  0
 25 27  1  0  0  0  0
 26 24  2  0  0  0  0
 27 22  2  0  0  0  0
 28 25  2  0  0  0  0
 28 26  1  0  0  0  0
 30 29  1  1  0  0  0
 31 30  1  0  0  0  0
 31 33  1  0  0  0  0
 32 33  1  0  0  0  0
 35 34  1  0  0  0  0
 36 38  1  0  0  0  0
 37 38  2  0  0  0  0
 38 35  1  0  0  0  0
 41 40  1  0  0  0  0
 41 39  1  0  0  0  0
M  END
>  <MODEL>
9

>  <REMARK>
 VINA RESULT:       2.0      2.477      4.556
  Name = 
  12 active torsions:
  status: ('A' for Active; 'I' for Inactive)
    1  A    between atoms: C_1  and  O_19
    2  A    between atoms: C_1  and  C_26
    3  A    between atoms: C_5  and  C_6
    4  A    between atoms: C_5  and  C_28
    5  A    between atoms: C_8  and  C_16
    6  A    between atoms: C_12  and  C_40
    7  A    between atoms: C_15  and  C_29
    8  A    between atoms: C_15  and  C_37
    9  A    between atoms: C_16  and  C_24
   10  A    between atoms: C_18  and  C_29
   11  A    between atoms: O_19  and  C_41
   12  A    between atoms: C_30  and  C_40
                            x       y       z     vdW  Elec       q    Type
                         _______ _______ _______ _____ _____    ______ ____

>  <TORSDO>
F 12

$$$$
