=
 OpenBabel11072411303D

 35 40  0  0  1  0  0  0  0  0999 V2000
  161.3700  208.5230  152.5460 N   0  0  0  0  0  0  0  0  0  0  0  0
  162.1910  205.8440  153.8380 O   0  0  0  0  0  1  0  0  0  0  0  0
  161.7050  210.3100  151.0710 O   0  0  0  0  0  0  0  0  0  0  0  0
  161.0070  206.5820  153.8260 C   0  0  2  0  0  3  0  0  0  0  0  0
  160.3200  206.4110  152.4810 C   0  0  0  0  0  2  0  0  0  0  0  0
  161.3360  208.0630  153.9310 C   0  0  2  0  0  3  0  0  0  0  0  0
  160.8260  207.5490  151.6040 C   0  0  2  0  0  3  0  0  0  0  0  0
  162.9630  210.3330  152.9770 O   0  0  0  0  0  1  0  0  0  0  0  0
  162.0070  209.7490  152.1560 C   0  0  0  0  0  0  0  0  0  0  0  0
  160.0750  210.2840  154.4930 C   0  0  0  0  0  2  0  0  0  0  0  0
  160.4780  212.1860  155.8160 O   0  0  0  0  0  0  0  0  0  0  0  0
  160.9790  207.4100  156.8140 C   0  0  0  0  0  2  0  0  0  0  0  0
  161.0480  208.8750  157.1940 C   0  0  2  0  0  3  0  0  0  0  0  0
  162.5890  210.7810  157.2600 C   0  0  0  0  0  2  0  0  0  0  0  0
  160.2110  208.7730  154.7240 C   0  0  2  0  0  3  0  0  0  0  0  0
  162.3120  210.6980  155.7750 C   0  0  2  0  0  3  0  0  0  0  0  0
  159.9780  208.3760  156.2050 C   0  0  1  0  0  3  0  0  0  0  0  0
  160.9130  211.1170  155.4180 C   0  0  0  0  0  0  0  0  0  0  0  0
  162.3670  209.4220  156.6280 C   0  0  2  0  0  3  0  0  0  0  0  0
  161.3530  206.3170  149.4200 C   0  0  1  0  0  3  0  0  0  0  0  0
  161.3030  206.9560  147.1270 O   0  0  0  0  0  1  0  0  0  0  0  0
  162.6810  208.1610  150.1750 O   0  0  0  0  0  0  0  0  0  0  0  0
  161.9140  207.0630  150.6250 C   0  0  1  0  0  3  0  0  0  0  0  0
  162.1120  206.8840  148.2660 C   0  0  1  0  0  3  0  0  0  0  0  0
  162.5310  208.2490  148.7760 C   0  0  1  0  0  3  0  0  0  0  0  0
  160.9800  204.1310  148.4680 O   0  0  0  0  0  1  0  0  0  0  0  0
  161.5630  204.8110  149.5410 C   0  0  0  0  0  2  0  0  0  0  0  0
  161.5240  209.3480  148.4230 C   0  0  0  0  0  2  0  0  0  0  0  0
  162.2030  210.6230  148.2470 N   0  0  0  0  0  2  0  0  0  0  0  0
  161.1010  214.1560  148.3090 N   0  0  0  0  0  0  0  0  0  0  0  0
  159.8810  212.9710  146.6470 C   0  0  0  0  0  2  0  0  0  0  0  0
  160.1590  214.1560  147.3300 C   0  0  0  0  0  3  0  0  0  0  0  0
  161.5040  211.8330  147.9480 C   0  0  0  0  0  0  0  0  0  0  0  0
  161.7780  213.0230  148.6340 C   0  0  0  0  0  2  0  0  0  0  0  0
  160.5580  211.8380  146.9710 N   0  0  0  0  0  0  0  0  0  0  0  0
  3  9  2  0  0  0  0
  4  2  1  6  0  0  0
  4  6  1  0  0  0  0
  5  4  1  0  0  0  0
  6  1  1  6  0  0  0
  6 15  1  0  0  0  0
  7  5  1  1  0  0  0
  7  1  1  0  0  0  0
  9  1  1  0  0  0  0
  9  8  1  0  0  0  0
 10 18  1  0  0  0  0
 13 12  1  1  0  0  0
 15 10  1  1  0  0  0
 15 17  1  0  0  0  0
 16 19  1  0  0  0  0
 16 14  1  1  0  0  0
 17 12  1  6  0  0  0
 17 13  1  0  0  0  0
 18 16  1  0  0  0  0
 18 11  2  0  0  0  0
 19 13  1  0  0  0  0
 19 14  1  1  0  0  0
 20 27  1  1  0  0  0
 20 23  1  0  0  0  0
 23 22  1  6  0  0  0
 23  7  1  0  0  0  0
 24 21  1  6  0  0  0
 24 25  1  0  0  0  0
 24 20  1  0  0  0  0
 25 28  1  1  0  0  0
 25 22  1  0  0  0  0
 26 27  1  0  0  0  0
 29 28  1  0  0  0  0
 30 34  1  0  0  0  0
 31 35  1  0  0  0  0
 31 32  1  0  0  0  0
 32 30  2  0  0  0  0
 33 29  1  0  0  0  0
 33 34  1  0  0  0  0
 35 33  2  0  0  0  0
M  END
>  <MODEL>
1

>  <REMARK>
 VINA RESULT:      -6.2      0.000      0.000
  Name = 
  6 active torsions:
  status: ('A' for Active; 'I' for Inactive)
    1  A    between atoms: C_3  and  C_31
    2  A    between atoms: N_16  and  C_22
    3  A    between atoms: N_16  and  C_23
    4  A    between atoms: C_17  and  C_25
    5  A    between atoms: C_19  and  C_27
    6  A    between atoms: C_23  and  C_26
                            x       y       z     vdW  Elec       q    Type
                         _______ _______ _______ _____ _____    ______ ____

>  <TORSDO>
F 6

$$$$
=
 OpenBabel11072411303D

 35 40  0  0  1  0  0  0  0  0999 V2000
  161.0470  208.3970  152.8470 N   0  0  0  0  0  0  0  0  0  0  0  0
  161.9700  206.4940  155.0950 O   0  0  0  0  0  1  0  0  0  0  0  0
  161.3310  209.4800  150.7910 O   0  0  0  0  0  0  0  0  0  0  0  0
  160.7490  207.0930  154.7840 C   0  0  2  0  0  3  0  0  0  0  0  0
  160.1150  206.3670  153.6090 C   0  0  0  0  0  2  0  0  0  0  0  0
  160.9940  208.5150  154.3010 C   0  0  2  0  0  3  0  0  0  0  0  0
  160.5860  207.0990  152.3590 C   0  0  2  0  0  3  0  0  0  0  0  0
  162.5250  210.3260  152.5450 O   0  0  0  0  0  1  0  0  0  0  0  0
  161.6290  209.4090  152.0110 C   0  0  0  0  0  0  0  0  0  0  0  0
  159.8210  210.8500  154.2200 C   0  0  0  0  0  2  0  0  0  0  0  0
  160.1360  212.9530  155.2250 O   0  0  0  0  0  0  0  0  0  0  0  0
  160.1210  208.4400  157.1470 C   0  0  0  0  0  2  0  0  0  0  0  0
  160.2320  209.9470  157.2610 C   0  0  2  0  0  3  0  0  0  0  0  0
  161.8740  211.7680  157.2480 C   0  0  0  0  0  2  0  0  0  0  0  0
  159.8070  209.4080  154.7430 C   0  0  2  0  0  3  0  0  0  0  0  0
  161.8400  211.4130  155.7770 C   0  0  2  0  0  3  0  0  0  0  0  0
  159.3070  209.3110  156.2070 C   0  0  1  0  0  3  0  0  0  0  0  0
  160.5530  211.8120  155.1110 C   0  0  0  0  0  0  0  0  0  0  0  0
  161.6620  210.3230  156.8450 C   0  0  2  0  0  3  0  0  0  0  0  0
  161.2960  204.9940  151.0840 C   0  0  1  0  0  3  0  0  0  0  0  0
  161.0920  204.3080  148.8140 O   0  0  0  0  0  1  0  0  0  0  0  0
  162.2730  207.1310  150.6240 O   0  0  0  0  0  0  0  0  0  0  0  0
  161.7290  206.3380  151.6590 C   0  0  1  0  0  3  0  0  0  0  0  0
  161.9190  204.9700  149.7280 C   0  0  1  0  0  3  0  0  0  0  0  0
  162.0870  206.4430  149.4080 C   0  0  1  0  0  3  0  0  0  0  0  0
  160.8620  202.7790  151.9390 O   0  0  0  0  0  1  0  0  0  0  0  0
  161.7830  203.8300  151.9430 C   0  0  0  0  0  2  0  0  0  0  0  0
  160.8880  207.0250  148.6520 C   0  0  0  0  0  2  0  0  0  0  0  0
  161.2480  207.3120  147.2710 N   0  0  0  0  0  2  0  0  0  0  0  0
  160.3840  205.0580  144.4650 N   0  0  0  0  0  0  0  0  0  0  0  0
  162.6050  204.6120  145.1890 C   0  0  0  0  0  2  0  0  0  0  0  0
  161.5340  204.3480  144.3330 C   0  0  0  0  0  3  0  0  0  0  0  0
  161.3330  206.2940  146.2700 C   0  0  0  0  0  0  0  0  0  0  0  0
  160.2580  206.0240  145.4130 C   0  0  0  0  0  2  0  0  0  0  0  0
  162.4800  205.5770  146.1370 N   0  0  0  0  0  0  0  0  0  0  0  0
  3  9  2  0  0  0  0
  4  2  1  6  0  0  0
  5  4  1  0  0  0  0
  6  1  1  6  0  0  0
  6 15  1  0  0  0  0
  6  4  1  0  0  0  0
  7  1  1  0  0  0  0
  7  5  1  1  0  0  0
  9  8  1  0  0  0  0
  9  1  1  0  0  0  0
 10 18  1  0  0  0  0
 13 12  1  1  0  0  0
 15 10  1  1  0  0  0
 15 17  1  0  0  0  0
 16 19  1  0  0  0  0
 16 14  1  1  0  0  0
 17 12  1  1  0  0  0
 17 13  1  0  0  0  0
 18 11  2  0  0  0  0
 18 16  1  0  0  0  0
 19 14  1  1  0  0  0
 19 13  1  0  0  0  0
 20 23  1  0  0  0  0
 20 27  1  1  0  0  0
 23 22  1  6  0  0  0
 23  7  1  0  0  0  0
 24 21  1  6  0  0  0
 24 20  1  0  0  0  0
 25 28  1  1  0  0  0
 25 24  1  0  0  0  0
 25 22  1  0  0  0  0
 26 27  1  0  0  0  0
 29 28  1  0  0  0  0
 30 34  1  0  0  0  0
 31 35  1  0  0  0  0
 32 30  2  0  0  0  0
 32 31  1  0  0  0  0
 33 29  1  0  0  0  0
 34 33  1  0  0  0  0
 35 33  2  0  0  0  0
M  END
>  <MODEL>
2

>  <REMARK>
 VINA RESULT:      -5.4      2.712      3.813
  Name = 
  6 active torsions:
  status: ('A' for Active; 'I' for Inactive)
    1  A    between atoms: C_3  and  C_31
    2  A    between atoms: N_16  and  C_22
    3  A    between atoms: N_16  and  C_23
    4  A    between atoms: C_17  and  C_25
    5  A    between atoms: C_19  and  C_27
    6  A    between atoms: C_23  and  C_26
                            x       y       z     vdW  Elec       q    Type
                         _______ _______ _______ _____ _____    ______ ____

>  <TORSDO>
F 6

$$$$
=
 OpenBabel11072411303D

 35 40  0  0  1  0  0  0  0  0999 V2000
  161.4920  205.9650  149.2040 N   0  0  0  0  0  0  0  0  0  0  0  0
  159.8300  203.6570  150.4010 O   0  0  0  0  0  1  0  0  0  0  0  0
  161.8550  208.2210  148.6970 O   0  0  0  0  0  1  0  0  0  0  0  0
  161.1480  203.7610  149.9560 C   0  0  2  0  0  3  0  0  0  0  0  0
  161.9740  204.5040  150.9940 C   0  0  0  0  0  2  0  0  0  0  0  0
  161.1900  204.6260  148.7060 C   0  0  2  0  0  3  0  0  0  0  0  0
  161.9160  205.9750  150.6020 C   0  0  2  0  0  3  0  0  0  0  0  0
  160.3590  207.1220  147.3670 O   0  0  0  0  0  0  0  0  0  0  0  0
  161.2540  207.1490  148.4280 C   0  0  0  0  0  0  0  0  0  0  0  0
  162.9860  205.1670  146.8840 C   0  0  0  0  0  2  0  0  0  0  0  0
  162.9960  205.5850  144.5700 O   0  0  0  0  0  0  0  0  0  0  0  0
  160.7670  202.0950  147.1970 C   0  0  0  0  0  2  0  0  0  0  0  0
  161.1160  202.7710  145.8880 C   0  0  2  0  0  3  0  0  0  0  0  0
  160.3080  204.4740  144.3190 C   0  0  0  0  0  2  0  0  0  0  0  0
  162.3180  204.1120  147.7760 C   0  0  2  0  0  3  0  0  0  0  0  0
  160.8140  205.3500  145.4450 C   0  0  2  0  0  3  0  0  0  0  0  0
  162.1250  202.7560  147.0510 C   0  0  1  0  0  3  0  0  0  0  0  0
  162.3140  205.3510  145.5540 C   0  0  0  0  0  0  0  0  0  0  0  0
  160.1820  203.9830  145.7470 C   0  0  2  0  0  3  0  0  0  0  0  0
  161.4570  207.1130  152.8510 C   0  0  1  0  0  3  0  0  0  0  0  0
  162.0140  209.2450  153.7500 O   0  0  0  0  0  1  0  0  0  0  0  0
  160.5040  207.9300  150.8120 O   0  0  0  0  0  0  0  0  0  0  0  0
  160.9090  206.7500  151.4750 C   0  0  1  0  0  3  0  0  0  0  0  0
  161.0440  208.5350  153.0360 C   0  0  1  0  0  3  0  0  0  0  0  0
  160.8870  209.0280  151.6090 C   0  0  1  0  0  3  0  0  0  0  0  0
  160.2140  206.9690  154.9150 O   0  0  0  0  0  1  0  0  0  0  0  0
  160.8790  206.2170  153.9430 C   0  0  0  0  0  2  0  0  0  0  0  0
  162.1680  209.6590  151.0570 C   0  0  0  0  0  2  0  0  0  0  0  0
  162.0320  211.1060  150.9840 N   0  0  0  0  0  2  0  0  0  0  0  0
  161.8010  212.1460  147.4390 N   0  0  0  0  0  0  0  0  0  0  0  0
  160.2310  213.3770  148.7330 C   0  0  0  0  0  2  0  0  0  0  0  0
  160.8190  213.0810  147.5020 C   0  0  0  0  0  3  0  0  0  0  0  0
  161.6310  211.7830  149.7900 C   0  0  0  0  0  0  0  0  0  0  0  0
  162.2210  211.4920  148.5540 C   0  0  0  0  0  2  0  0  0  0  0  0
  160.6500  212.7220  149.8480 N   0  0  0  0  0  0  0  0  0  0  0  0
  1  7  1  0  0  0  0
  4  2  1  1  0  0  0
  4  5  1  0  0  0  0
  6  1  1  1  0  0  0
  6  4  1  0  0  0  0
  7  5  1  1  0  0  0
  7 23  1  0  0  0  0
  8  9  2  0  0  0  0
  9  3  1  0  0  0  0
  9  1  1  0  0  0  0
 11 18  2  0  0  0  0
 13 17  1  0  0  0  0
 13 12  1  1  0  0  0
 15 10  1  6  0  0  0
 15  6  1  0  0  0  0
 16 14  1  6  0  0  0
 16 18  1  0  0  0  0
 16 19  1  0  0  0  0
 17 12  1  1  0  0  0
 17 15  1  0  0  0  0
 18 10  1  0  0  0  0
 19 14  1  6  0  0  0
 19 13  1  0  0  0  0
 20 24  1  0  0  0  0
 20 27  1  1  0  0  0
 22 25  1  0  0  0  0
 23 22  1  6  0  0  0
 23 20  1  0  0  0  0
 24 21  1  6  0  0  0
 25 28  1  6  0  0  0
 25 24  1  0  0  0  0
 27 26  1  0  0  0  0
 29 28  1  0  0  0  0
 30 32  2  0  0  0  0
 30 34  1  0  0  0  0
 31 35  1  0  0  0  0
 32 31  1  0  0  0  0
 33 35  2  0  0  0  0
 33 29  1  0  0  0  0
 34 33  1  0  0  0  0
M  END
>  <MODEL>
3

>  <REMARK>
 VINA RESULT:      -5.2      2.409      7.172
  Name = 
  6 active torsions:
  status: ('A' for Active; 'I' for Inactive)
    1  A    between atoms: C_3  and  C_31
    2  A    between atoms: N_16  and  C_22
    3  A    between atoms: N_16  and  C_23
    4  A    between atoms: C_17  and  C_25
    5  A    between atoms: C_19  and  C_27
    6  A    between atoms: C_23  and  C_26
                            x       y       z     vdW  Elec       q    Type
                         _______ _______ _______ _____ _____    ______ ____

>  <TORSDO>
F 6

$$$$
=
 OpenBabel11072411303D

 35 40  0  0  1  0  0  0  0  0999 V2000
  161.3780  205.6320  149.2140 N   0  0  0  0  0  0  0  0  0  0  0  0
  159.9150  203.5760  150.9910 O   0  0  0  0  0  1  0  0  0  0  0  0
  161.5740  207.7260  148.1860 O   0  0  0  0  0  1  0  0  0  0  0  0
  161.2060  203.6470  150.4670 C   0  0  2  0  0  3  0  0  0  0  0  0
  162.0200  204.6540  151.2640 C   0  0  0  0  0  2  0  0  0  0  0  0
  161.1450  204.2000  149.0520 C   0  0  2  0  0  3  0  0  0  0  0  0
  161.8510  205.9890  150.5490 C   0  0  2  0  0  3  0  0  0  0  0  0
  160.1040  206.2680  147.2220 O   0  0  0  0  0  0  0  0  0  0  0  0
  161.0340  206.5900  148.2010 C   0  0  0  0  0  0  0  0  0  0  0  0
  162.7060  204.3210  146.9570 C   0  0  0  0  0  2  0  0  0  0  0  0
  162.4890  203.9530  144.6440 O   0  0  0  0  0  0  0  0  0  0  0  0
  161.0020  201.2810  148.4800 C   0  0  0  0  0  2  0  0  0  0  0  0
  161.1520  201.5260  146.9920 C   0  0  2  0  0  3  0  0  0  0  0  0
  159.9880  202.5090  145.0710 C   0  0  0  0  0  2  0  0  0  0  0  0
  162.2690  203.5470  148.2080 C   0  0  2  0  0  3  0  0  0  0  0  0
  160.4350  203.7600  145.7960 C   0  0  2  0  0  3  0  0  0  0  0  0
  162.2320  202.0150  147.9750 C   0  0  1  0  0  3  0  0  0  0  0  0
  161.9210  203.9760  145.7250 C   0  0  0  0  0  0  0  0  0  0  0  0
  160.0390  202.5040  146.5850 C   0  0  2  0  0  3  0  0  0  0  0  0
  161.2760  207.3080  152.6690 C   0  0  1  0  0  3  0  0  0  0  0  0
  161.9040  209.4550  153.4820 O   0  0  0  0  0  1  0  0  0  0  0  0
  160.5750  208.0440  150.5010 O   0  0  0  0  0  0  0  0  0  0  0  0
  160.8300  206.8880  151.2720 C   0  0  1  0  0  3  0  0  0  0  0  0
  160.9530  208.7640  152.7230 C   0  0  1  0  0  3  0  0  0  0  0  0
  160.9630  209.1660  151.2610 C   0  0  1  0  0  3  0  0  0  0  0  0
  160.7750  207.0770  155.0190 O   0  0  0  0  0  1  0  0  0  0  0  0
  160.5370  206.5310  153.7550 C   0  0  0  0  0  2  0  0  0  0  0  0
  162.3320  209.6690  150.7940 C   0  0  0  0  0  2  0  0  0  0  0  0
  162.2590  210.1430  149.4200 N   0  0  0  0  0  2  0  0  0  0  0  0
  162.6980  213.4820  147.8850 N   0  0  0  0  0  0  0  0  0  0  0  0
  160.8290  213.5220  149.3550 C   0  0  0  0  0  2  0  0  0  0  0  0
  161.6720  214.1690  148.4500 C   0  0  0  0  0  3  0  0  0  0  0  0
  162.0730  211.5210  149.0890 C   0  0  0  0  0  0  0  0  0  0  0  0
  162.9190  212.1750  148.1840 C   0  0  0  0  0  2  0  0  0  0  0  0
  161.0490  212.2140  149.6550 N   0  0  0  0  0  0  0  0  0  0  0  0
  1  7  1  0  0  0  0
  3  9  1  0  0  0  0
  4  2  1  1  0  0  0
  4  5  1  0  0  0  0
  6  1  1  1  0  0  0
  6  4  1  0  0  0  0
  7  5  1  1  0  0  0
  7 23  1  0  0  0  0
  8  9  2  0  0  0  0
  9  1  1  0  0  0  0
 11 18  2  0  0  0  0
 13 17  1  0  0  0  0
 13 12  1  1  0  0  0
 15 10  1  6  0  0  0
 15  6  1  0  0  0  0
 16 14  1  6  0  0  0
 16 19  1  0  0  0  0
 17 15  1  0  0  0  0
 17 12  1  1  0  0  0
 18 16  1  0  0  0  0
 18 10  1  0  0  0  0
 19 14  1  6  0  0  0
 19 13  1  0  0  0  0
 20 24  1  0  0  0  0
 20 27  1  1  0  0  0
 22 25  1  0  0  0  0
 23 22  1  6  0  0  0
 23 20  1  0  0  0  0
 24 21  1  1  0  0  0
 25 28  1  6  0  0  0
 25 24  1  0  0  0  0
 27 26  1  0  0  0  0
 29 28  1  0  0  0  0
 30 34  1  0  0  0  0
 30 32  2  0  0  0  0
 31 35  1  0  0  0  0
 32 31  1  0  0  0  0
 33 29  1  0  0  0  0
 33 35  2  0  0  0  0
 34 33  1  0  0  0  0
M  END
>  <MODEL>
4

>  <REMARK>
 VINA RESULT:      -5.2      2.536      7.248
  Name = 
  6 active torsions:
  status: ('A' for Active; 'I' for Inactive)
    1  A    between atoms: C_3  and  C_31
    2  A    between atoms: N_16  and  C_22
    3  A    between atoms: N_16  and  C_23
    4  A    between atoms: C_17  and  C_25
    5  A    between atoms: C_19  and  C_27
    6  A    between atoms: C_23  and  C_26
                            x       y       z     vdW  Elec       q    Type
                         _______ _______ _______ _____ _____    ______ ____

>  <TORSDO>
F 6

$$$$
=
 OpenBabel11072411303D

 35 40  0  0  1  0  0  0  0  0999 V2000
  161.3640  206.2550  151.0120 N   0  0  0  0  0  0  0  0  0  0  0  0
  162.9980  208.0920  149.1480 O   0  0  0  0  0  1  0  0  0  0  0  0
  161.0060  205.1350  153.0370 O   0  0  0  0  0  1  0  0  0  0  0  0
  161.6950  207.5950  149.1060 C   0  0  2  0  0  3  0  0  0  0  0  0
  160.8310  208.3620  150.0930 C   0  0  0  0  0  2  0  0  0  0  0  0
  161.6910  206.1540  149.5930 C   0  0  2  0  0  3  0  0  0  0  0  0
  160.8940  207.5820  151.4000 C   0  0  2  0  0  3  0  0  0  0  0  0
  162.5530  204.2060  151.6360 O   0  0  0  0  0  0  0  0  0  0  0  0
  161.6220  205.1910  151.9420 C   0  0  0  0  0  0  0  0  0  0  0  0
  160.7610  203.8420  148.8020 C   0  0  0  0  0  2  0  0  0  0  0  0
  161.2810  202.2780  147.1240 O   0  0  0  0  0  0  0  0  0  0  0  0
  160.7970  207.1550  146.9360 C   0  0  0  0  0  2  0  0  0  0  0  0
  161.0590  205.8070  146.2960 C   0  0  2  0  0  3  0  0  0  0  0  0
  162.8780  204.2700  145.7090 C   0  0  0  0  0  2  0  0  0  0  0  0
  160.5980  205.3670  148.8270 C   0  0  2  0  0  3  0  0  0  0  0  0
  162.8170  204.0710  147.2090 C   0  0  2  0  0  3  0  0  0  0  0  0
  160.0810  205.9310  147.4790 C   0  0  1  0  0  3  0  0  0  0  0  0
  161.5810  203.3380  147.6500 C   0  0  0  0  0  0  0  0  0  0  0  0
  162.5230  205.4480  146.5950 C   0  0  2  0  0  3  0  0  0  0  0  0
  161.8410  209.7630  152.3540 C   0  0  1  0  0  3  0  0  0  0  0  0
  161.0550  211.3190  153.9740 O   0  0  0  0  0  1  0  0  0  0  0  0
  161.5690  207.8110  153.7140 O   0  0  0  0  0  0  0  0  0  0  0  0
  161.8660  208.2390  152.4000 C   0  0  1  0  0  3  0  0  0  0  0  0
  161.8200  210.1630  153.7920 C   0  0  1  0  0  3  0  0  0  0  0  0
  161.2180  208.9470  154.4700 C   0  0  1  0  0  3  0  0  0  0  0  0
  162.7010  210.9990  150.4670 O   0  0  0  0  0  1  0  0  0  0  0  0
  163.0650  210.3260  151.6360 C   0  0  0  0  0  2  0  0  0  0  0  0
  159.6950  209.0390  154.6070 C   0  0  0  0  0  2  0  0  0  0  0  0
  159.3330  209.5960  155.9020 N   0  0  0  0  0  2  0  0  0  0  0  0
  157.7800  212.6700  157.2580 N   0  0  0  0  0  0  0  0  0  0  0  0
  156.8420  212.1780  155.1290 C   0  0  0  0  0  2  0  0  0  0  0  0
  156.9170  212.9920  156.2600 C   0  0  0  0  0  3  0  0  0  0  0  0
  158.5050  210.7530  156.0380 C   0  0  0  0  0  0  0  0  0  0  0  0
  158.5740  211.5700  157.1740 C   0  0  0  0  0  2  0  0  0  0  0  0
  157.6360  211.0770  155.0440 N   0  0  0  0  0  0  0  0  0  0  0  0
  1  7  1  0  0  0  0
  1  9  1  0  0  0  0
  4  2  1  1  0  0  0
  4  6  1  0  0  0  0
  4  5  1  0  0  0  0
  6  1  1  1  0  0  0
  7  5  1  6  0  0  0
  7 23  1  0  0  0  0
  8  9  2  0  0  0  0
  9  3  1  0  0  0  0
 11 18  2  0  0  0  0
 13 19  1  0  0  0  0
 13 12  1  1  0  0  0
 13 17  1  0  0  0  0
 15 10  1  6  0  0  0
 15  6  1  0  0  0  0
 16 14  1  6  0  0  0
 16 18  1  0  0  0  0
 17 12  1  1  0  0  0
 17 15  1  0  0  0  0
 18 10  1  0  0  0  0
 19 14  1  6  0  0  0
 19 16  1  0  0  0  0
 20 27  1  1  0  0  0
 20 23  1  0  0  0  0
 20 24  1  0  0  0  0
 22 25  1  0  0  0  0
 23 22  1  1  0  0  0
 24 21  1  6  0  0  0
 24 25  1  0  0  0  0
 25 28  1  6  0  0  0
 26 27  1  0  0  0  0
 28 29  1  0  0  0  0
 29 33  1  0  0  0  0
 31 32  1  0  0  0  0
 32 30  2  0  0  0  0
 33 34  1  0  0  0  0
 34 30  1  0  0  0  0
 35 31  1  0  0  0  0
 35 33  2  0  0  0  0
M  END
>  <MODEL>
5

>  <REMARK>
 VINA RESULT:      -5.0      3.198      7.931
  Name = 
  6 active torsions:
  status: ('A' for Active; 'I' for Inactive)
    1  A    between atoms: C_3  and  C_31
    2  A    between atoms: N_16  and  C_22
    3  A    between atoms: N_16  and  C_23
    4  A    between atoms: C_17  and  C_25
    5  A    between atoms: C_19  and  C_27
    6  A    between atoms: C_23  and  C_26
                            x       y       z     vdW  Elec       q    Type
                         _______ _______ _______ _____ _____    ______ ____

>  <TORSDO>
F 6

$$$$
=
 OpenBabel11072411303D

 35 40  0  0  1  0  0  0  0  0999 V2000
  161.1120  205.3230  148.6550 N   0  0  0  0  0  0  0  0  0  0  0  0
  159.7250  202.7370  149.6100 O   0  0  0  0  0  1  0  0  0  0  0  0
  161.2850  207.6520  148.4900 O   0  0  0  0  0  1  0  0  0  0  0  0
  160.9810  203.0090  149.0670 C   0  0  2  0  0  3  0  0  0  0  0  0
  161.8640  203.6410  150.1300 C   0  0  0  0  0  2  0  0  0  0  0  0
  160.8400  204.0600  147.9760 C   0  0  2  0  0  3  0  0  0  0  0  0
  161.6780  205.1460  149.9900 C   0  0  2  0  0  3  0  0  0  0  0  0
  159.7260  206.6630  147.1450 O   0  0  0  0  0  0  0  0  0  0  0  0
  160.7240  206.5920  148.1080 C   0  0  0  0  0  0  0  0  0  0  0  0
  162.1410  204.9260  145.8790 C   0  0  0  0  0  2  0  0  0  0  0  0
  161.6790  205.2360  143.5940 O   0  0  0  0  0  0  0  0  0  0  0  0
  160.7930  201.4370  146.5670 C   0  0  0  0  0  2  0  0  0  0  0  0
  160.7570  202.1200  145.2150 C   0  0  2  0  0  3  0  0  0  0  0  0
  159.3280  203.5190  143.7970 C   0  0  0  0  0  2  0  0  0  0  0  0
  161.8940  203.7840  146.8730 C   0  0  2  0  0  3  0  0  0  0  0  0
  159.7860  204.5350  144.8200 C   0  0  2  0  0  3  0  0  0  0  0  0
  161.9140  202.3910  146.1950 C   0  0  1  0  0  3  0  0  0  0  0  0
  161.2390  204.8910  144.6790 C   0  0  0  0  0  0  0  0  0  0  0  0
  159.5530  203.0730  145.2280 C   0  0  2  0  0  3  0  0  0  0  0  0
  161.2320  205.4840  152.4900 C   0  0  1  0  0  3  0  0  0  0  0  0
  161.9880  207.0790  154.0870 O   0  0  0  0  0  1  0  0  0  0  0  0
  160.5030  207.0770  150.8570 O   0  0  0  0  0  0  0  0  0  0  0  0
  160.7240  205.6970  151.0680 C   0  0  1  0  0  3  0  0  0  0  0  0
  160.9820  206.7960  153.1570 C   0  0  1  0  0  3  0  0  0  0  0  0
  160.9680  207.7690  151.9930 C   0  0  1  0  0  3  0  0  0  0  0  0
  160.8730  203.1060  152.6880 O   0  0  0  0  0  1  0  0  0  0  0  0
  160.4880  204.3510  153.1910 C   0  0  0  0  0  2  0  0  0  0  0  0
  162.3460  208.3760  151.7120 C   0  0  0  0  0  2  0  0  0  0  0  0
  162.2790  209.8290  151.7540 N   0  0  0  0  0  2  0  0  0  0  0  0
  161.1200  211.2060  154.9880 N   0  0  0  0  0  0  0  0  0  0  0  0
  159.6920  211.9630  153.2430 C   0  0  0  0  0  2  0  0  0  0  0  0
  160.0430  211.9340  154.5930 C   0  0  0  0  0  3  0  0  0  0  0  0
  161.5160  210.5380  152.7330 C   0  0  0  0  0  0  0  0  0  0  0  0
  161.8630  210.5070  154.0900 C   0  0  0  0  0  2  0  0  0  0  0  0
  160.4350  211.2650  152.3440 N   0  0  0  0  0  0  0  0  0  0  0  0
  1  7  1  0  0  0  0
  4  2  1  1  0  0  0
  4  5  1  0  0  0  0
  6  1  1  1  0  0  0
  6  4  1  0  0  0  0
  7  5  1  1  0  0  0
  7 23  1  0  0  0  0
  8  9  2  0  0  0  0
  9  3  1  0  0  0  0
  9  1  1  0  0  0  0
 11 18  2  0  0  0  0
 13 19  1  0  0  0  0
 13 17  1  0  0  0  0
 13 12  1  1  0  0  0
 15 10  1  6  0  0  0
 15  6  1  0  0  0  0
 16 14  1  6  0  0  0
 16 19  1  0  0  0  0
 17 12  1  1  0  0  0
 17 15  1  0  0  0  0
 18 16  1  0  0  0  0
 18 10  1  0  0  0  0
 19 14  1  6  0  0  0
 20 24  1  0  0  0  0
 20 27  1  1  0  0  0
 22 25  1  0  0  0  0
 23 22  1  6  0  0  0
 23 20  1  0  0  0  0
 24 21  1  1  0  0  0
 25 28  1  6  0  0  0
 25 24  1  0  0  0  0
 26 27  1  0  0  0  0
 28 29  1  0  0  0  0
 29 33  1  0  0  0  0
 31 32  1  0  0  0  0
 32 30  2  0  0  0  0
 33 34  1  0  0  0  0
 34 30  1  0  0  0  0
 35 33  2  0  0  0  0
 35 31  1  0  0  0  0
M  END
>  <MODEL>
6

>  <REMARK>
 VINA RESULT:      -4.6      3.254      8.087
  Name = 
  6 active torsions:
  status: ('A' for Active; 'I' for Inactive)
    1  A    between atoms: C_3  and  C_31
    2  A    between atoms: N_16  and  C_22
    3  A    between atoms: N_16  and  C_23
    4  A    between atoms: C_17  and  C_25
    5  A    between atoms: C_19  and  C_27
    6  A    between atoms: C_23  and  C_26
                            x       y       z     vdW  Elec       q    Type
                         _______ _______ _______ _____ _____    ______ ____

>  <TORSDO>
F 6

$$$$
=
 OpenBabel11072411303D

 35 40  0  0  1  0  0  0  0  0999 V2000
  161.1580  205.0730  149.7770 N   0  0  0  0  0  0  0  0  0  0  0  0
  162.6970  205.5190  147.1400 O   0  0  0  0  0  1  0  0  0  0  0  0
  160.9630  205.1470  152.1090 O   0  0  0  0  0  1  0  0  0  0  0  0
  161.3610  205.2510  147.4390 C   0  0  2  0  0  3  0  0  0  0  0  0
  160.6980  206.5130  147.9650 C   0  0  0  0  0  2  0  0  0  0  0  0
  161.2930  204.2480  148.5810 C   0  0  2  0  0  3  0  0  0  0  0  0
  160.8580  206.4720  149.4790 C   0  0  2  0  0  3  0  0  0  0  0  0
  162.2340  203.4490  151.2620 O   0  0  0  0  0  0  0  0  0  0  0  0
  161.4380  204.5750  151.0950 C   0  0  0  0  0  0  0  0  0  0  0  0
  159.6290  202.5070  149.5990 C   0  0  0  0  0  2  0  0  0  0  0  0
  159.6540  200.2060  150.0850 O   0  0  0  0  0  0  0  0  0  0  0  0
  161.0480  202.6610  146.0740 C   0  0  0  0  0  2  0  0  0  0  0  0
  160.8350  201.3820  146.8590 C   0  0  2  0  0  3  0  0  0  0  0  0
  161.9850  199.8300  148.3690 C   0  0  0  0  0  2  0  0  0  0  0  0
  160.0480  203.3470  148.3850 C   0  0  2  0  0  3  0  0  0  0  0  0
  161.7380  200.9960  149.3020 C   0  0  2  0  0  3  0  0  0  0  0  0
  159.8860  202.5800  147.0480 C   0  0  1  0  0  3  0  0  0  0  0  0
  160.2870  201.1590  149.6600 C   0  0  0  0  0  0  0  0  0  0  0  0
  162.0290  201.2390  147.8130 C   0  0  2  0  0  3  0  0  0  0  0  0
  161.6730  208.8760  149.8240 C   0  0  1  0  0  3  0  0  0  0  0  0
  161.3100  210.4990  151.5270 O   0  0  0  0  0  1  0  0  0  0  0  0
  162.3320  207.1020  151.2920 O   0  0  0  0  0  0  0  0  0  0  0  0
  162.0020  207.3920  149.9500 C   0  0  1  0  0  3  0  0  0  0  0  0
  162.1450  209.4550  151.1170 C   0  0  1  0  0  3  0  0  0  0  0  0
  162.1000  208.2640  152.0560 C   0  0  1  0  0  3  0  0  0  0  0  0
  161.9770  210.8360  148.4500 O   0  0  0  0  0  1  0  0  0  0  0  0
  162.3850  209.5130  148.6350 C   0  0  0  0  0  2  0  0  0  0  0  0
  160.7660  208.1470  152.8000 C   0  0  0  0  0  2  0  0  0  0  0  0
  160.9930  207.8650  154.2100 N   0  0  0  0  0  2  0  0  0  0  0  0
  160.7170  211.0910  156.0030 N   0  0  0  0  0  0  0  0  0  0  0  0
  162.1350  209.6220  157.2230 C   0  0  0  0  0  2  0  0  0  0  0  0
  161.5010  210.8580  157.0870 C   0  0  0  0  0  3  0  0  0  0  0  0
  161.1680  208.8970  155.1830 C   0  0  0  0  0  0  0  0  0  0  0  0
  160.5370  210.1410  155.0480 C   0  0  0  0  0  2  0  0  0  0  0  0
  161.9550  208.6710  156.2680 N   0  0  0  0  0  0  0  0  0  0  0  0
  1  9  1  0  0  0  0
  4  2  1  1  0  0  0
  4  5  1  0  0  0  0
  4  6  1  0  0  0  0
  6  1  1  1  0  0  0
  7  5  1  6  0  0  0
  7  1  1  0  0  0  0
  7 23  1  0  0  0  0
  9  8  2  0  0  0  0
  9  3  1  0  0  0  0
 10 18  1  0  0  0  0
 13 12  1  6  0  0  0
 13 17  1  0  0  0  0
 13 19  1  0  0  0  0
 15  6  1  0  0  0  0
 15 10  1  1  0  0  0
 16 14  1  6  0  0  0
 16 18  1  0  0  0  0
 17 12  1  6  0  0  0
 17 15  1  0  0  0  0
 18 11  2  0  0  0  0
 19 14  1  6  0  0  0
 19 16  1  0  0  0  0
 20 27  1  6  0  0  0
 20 23  1  0  0  0  0
 20 24  1  0  0  0  0
 22 25  1  0  0  0  0
 23 22  1  1  0  0  0
 24 21  1  1  0  0  0
 24 25  1  0  0  0  0
 25 28  1  6  0  0  0
 26 27  1  0  0  0  0
 28 29  1  0  0  0  0
 29 33  1  0  0  0  0
 30 32  2  0  0  0  0
 32 31  1  0  0  0  0
 33 35  2  0  0  0  0
 34 33  1  0  0  0  0
 34 30  1  0  0  0  0
 35 31  1  0  0  0  0
M  END
>  <MODEL>
7

>  <REMARK>
 VINA RESULT:      -4.5      2.976      8.221
  Name = 
  6 active torsions:
  status: ('A' for Active; 'I' for Inactive)
    1  A    between atoms: C_3  and  C_31
    2  A    between atoms: N_16  and  C_22
    3  A    between atoms: N_16  and  C_23
    4  A    between atoms: C_17  and  C_25
    5  A    between atoms: C_19  and  C_27
    6  A    between atoms: C_23  and  C_26
                            x       y       z     vdW  Elec       q    Type
                         _______ _______ _______ _____ _____    ______ ____

>  <TORSDO>
F 6

$$$$
=
 OpenBabel11072411303D

 35 40  0  0  1  0  0  0  0  0999 V2000
  160.9120  211.1630  154.1750 N   0  0  0  0  0  0  0  0  0  0  0  0
  158.6370  210.0750  152.3960 O   0  0  0  0  0  1  0  0  0  0  0  0
  162.7480  210.8910  155.6010 O   0  0  0  0  0  0  0  0  0  0  0  0
  159.2090  211.3370  152.5590 C   0  0  2  0  0  3  0  0  0  0  0  0
  160.5530  211.3770  151.8520 C   0  0  0  0  0  2  0  0  0  0  0  0
  159.5150  211.5630  154.0320 C   0  0  2  0  0  3  0  0  0  0  0  0
  161.5880  210.9730  152.8940 C   0  0  2  0  0  3  0  0  0  0  0  0
  160.6940  210.5160  156.5270 O   0  0  0  0  0  1  0  0  0  0  0  0
  161.5000  210.8540  155.4480 C   0  0  0  0  0  0  0  0  0  0  0  0
  159.2530  213.4270  155.8480 C   0  0  0  0  0  2  0  0  0  0  0  0
  157.5380  214.2080  157.2540 O   0  0  0  0  0  0  0  0  0  0  0  0
  157.5370  213.1440  152.4660 C   0  0  0  0  0  2  0  0  0  0  0  0
  156.8620  213.6270  153.7340 C   0  0  2  0  0  3  0  0  0  0  0  0
  155.5340  212.8350  155.6360 C   0  0  0  0  0  2  0  0  0  0  0  0
  159.3330  213.0670  154.3580 C   0  0  2  0  0  3  0  0  0  0  0  0
  156.9010  212.3040  156.0100 C   0  0  2  0  0  3  0  0  0  0  0  0
  158.3580  213.9040  153.4920 C   0  0  1  0  0  3  0  0  0  0  0  0
  157.8600  213.3910  156.4070 C   0  0  0  0  0  0  0  0  0  0  0  0
  156.4720  212.3780  154.5370 C   0  0  2  0  0  3  0  0  0  0  0  0
  160.8520  208.5510  152.4970 C   0  0  1  0  0  3  0  0  0  0  0  0
  160.2310  207.3270  150.5530 O   0  0  0  0  0  1  0  0  0  0  0  0
  162.9160  209.3960  151.6260 O   0  0  0  0  0  0  0  0  0  0  0  0
  162.0220  209.5040  152.7150 C   0  0  1  0  0  3  0  0  0  0  0  0
  161.3070  207.6790  151.3750 C   0  0  1  0  0  3  0  0  0  0  0  0
  162.3280  208.5480  150.6660 C   0  0  1  0  0  3  0  0  0  0  0  0
  161.3620  206.6020  153.8260 O   0  0  0  0  0  1  0  0  0  0  0  0
  160.5480  207.7350  153.7510 C   0  0  0  0  0  2  0  0  0  0  0  0
  161.7150  209.3790  149.5350 C   0  0  0  0  0  2  0  0  0  0  0  0
  162.5310  210.5550  149.2670 N   0  0  0  0  0  2  0  0  0  0  0  0
  162.7020  213.4310  146.9440 N   0  0  0  0  0  0  0  0  0  0  0  0
  160.5640  212.4020  146.7800 C   0  0  0  0  0  2  0  0  0  0  0  0
  161.4670  213.3890  146.3810 C   0  0  0  0  0  3  0  0  0  0  0  0
  162.1730  211.5330  148.2880 C   0  0  0  0  0  0  0  0  0  0  0  0
  163.0750  212.5280  147.8880 C   0  0  0  0  0  2  0  0  0  0  0  0
  160.9370  211.4980  147.7240 N   0  0  0  0  0  0  0  0  0  0  0  0
  1  9  1  0  0  0  0
  4  2  1  1  0  0  0
  4  6  1  0  0  0  0
  5  4  1  0  0  0  0
  6  1  1  6  0  0  0
  6 15  1  0  0  0  0
  7  5  1  6  0  0  0
  7  1  1  0  0  0  0
  9  3  2  0  0  0  0
  9  8  1  0  0  0  0
 10 18  1  0  0  0  0
 13 12  1  6  0  0  0
 13 19  1  0  0  0  0
 15 10  1  1  0  0  0
 16 14  1  1  0  0  0
 16 18  1  0  0  0  0
 17 12  1  6  0  0  0
 17 13  1  0  0  0  0
 17 15  1  0  0  0  0
 18 11  2  0  0  0  0
 19 14  1  1  0  0  0
 19 16  1  0  0  0  0
 20 23  1  0  0  0  0
 20 27  1  1  0  0  0
 23 22  1  6  0  0  0
 23  7  1  0  0  0  0
 24 21  1  6  0  0  0
 24 20  1  0  0  0  0
 25 28  1  6  0  0  0
 25 24  1  0  0  0  0
 25 22  1  0  0  0  0
 27 26  1  0  0  0  0
 29 28  1  0  0  0  0
 30 34  1  0  0  0  0
 31 35  1  0  0  0  0
 32 31  1  0  0  0  0
 32 30  2  0  0  0  0
 33 29  1  0  0  0  0
 34 33  1  0  0  0  0
 35 33  2  0  0  0  0
M  END
>  <MODEL>
8

>  <REMARK>
 VINA RESULT:      -4.4      2.640      4.360
  Name = 
  6 active torsions:
  status: ('A' for Active; 'I' for Inactive)
    1  A    between atoms: C_3  and  C_31
    2  A    between atoms: N_16  and  C_22
    3  A    between atoms: N_16  and  C_23
    4  A    between atoms: C_17  and  C_25
    5  A    between atoms: C_19  and  C_27
    6  A    between atoms: C_23  and  C_26
                            x       y       z     vdW  Elec       q    Type
                         _______ _______ _______ _____ _____    ______ ____

>  <TORSDO>
F 6

$$$$
=
 OpenBabel11072411303D

 35 40  0  0  1  0  0  0  0  0999 V2000
  161.2450  210.8430  154.3660 N   0  0  0  0  0  0  0  0  0  0  0  0
  158.9520  209.5040  152.7960 O   0  0  0  0  0  1  0  0  0  0  0  0
  163.1190  210.7820  155.7690 O   0  0  0  0  0  0  0  0  0  0  0  0
  159.5030  210.7860  152.7850 C   0  0  2  0  0  3  0  0  0  0  0  0
  160.8300  210.7580  152.0450 C   0  0  0  0  0  2  0  0  0  0  0  0
  159.8390  211.2000  154.2100 C   0  0  2  0  0  3  0  0  0  0  0  0
  161.8960  210.5040  153.1030 C   0  0  2  0  0  3  0  0  0  0  0  0
  161.0940  210.4940  156.7860 O   0  0  0  0  0  1  0  0  0  0  0  0
  161.8690  210.7060  155.6530 C   0  0  0  0  0  0  0  0  0  0  0  0
  159.7160  213.2910  155.7750 C   0  0  0  0  0  2  0  0  0  0  0  0
  158.1470  214.2200  157.2610 O   0  0  0  0  0  0  0  0  0  0  0  0
  157.6280  212.5000  152.6970 C   0  0  0  0  0  2  0  0  0  0  0  0
  157.0880  213.1390  153.9590 C   0  0  2  0  0  3  0  0  0  0  0  0
  156.0240  212.5880  156.0990 C   0  0  0  0  0  2  0  0  0  0  0  0
  159.6350  212.7300  154.3500 C   0  0  2  0  0  3  0  0  0  0  0  0
  157.4460  212.1460  156.3720 C   0  0  2  0  0  3  0  0  0  0  0  0
  158.5330  213.4150  153.5030 C   0  0  1  0  0  3  0  0  0  0  0  0
  158.4010  213.3000  156.4990 C   0  0  0  0  0  0  0  0  0  0  0  0
  156.8450  212.0050  154.9660 C   0  0  2  0  0  3  0  0  0  0  0  0
  161.2090  208.0430  153.2950 C   0  0  1  0  0  3  0  0  0  0  0  0
  160.2700  206.4820  151.7640 O   0  0  0  0  0  1  0  0  0  0  0  0
  163.0160  208.7370  151.8860 O   0  0  0  0  0  0  0  0  0  0  0  0
  162.3530  209.0320  153.0980 C   0  0  1  0  0  3  0  0  0  0  0  0
  161.4710  206.9870  152.2730 C   0  0  1  0  0  3  0  0  0  0  0  0
  162.2880  207.7240  151.2300 C   0  0  1  0  0  3  0  0  0  0  0  0
  159.8990  207.3780  155.2110 O   0  0  0  0  0  1  0  0  0  0  0  0
  161.2000  207.4640  154.7070 C   0  0  0  0  0  2  0  0  0  0  0  0
  161.4230  208.3310  150.1210 C   0  0  0  0  0  2  0  0  0  0  0  0
  162.0010  208.0520  148.8140 N   0  0  0  0  0  2  0  0  0  0  0  0
  161.1450  204.5100  148.1630 N   0  0  0  0  0  0  0  0  0  0  0  0
  162.2140  205.4350  146.2500 C   0  0  0  0  0  3  0  0  0  0  0  0
  161.6060  204.3560  146.8940 C   0  0  0  0  0  3  0  0  0  0  0  0
  161.8700  206.7820  148.1700 C   0  0  0  0  0  0  0  0  0  0  0  0
  161.2640  205.6960  148.8150 C   0  0  0  0  0  3  0  0  0  0  0  0
  162.3330  206.6220  146.9020 N   0  0  0  0  0  0  0  0  0  0  0  0
  1  9  1  0  0  0  0
  4  2  1  1  0  0  0
  4  6  1  0  0  0  0
  5  4  1  0  0  0  0
  6 15  1  0  0  0  0
  6  1  1  6  0  0  0
  7  5  1  6  0  0  0
  7  1  1  0  0  0  0
  9  3  2  0  0  0  0
  9  8  1  0  0  0  0
 10 18  1  0  0  0  0
 13 12  1  6  0  0  0
 13 19  1  0  0  0  0
 15 10  1  1  0  0  0
 16 14  1  1  0  0  0
 16 18  1  0  0  0  0
 17 12  1  6  0  0  0
 17 13  1  0  0  0  0
 17 15  1  0  0  0  0
 18 11  2  0  0  0  0
 19 14  1  1  0  0  0
 19 16  1  0  0  0  0
 20 27  1  1  0  0  0
 23 22  1  6  0  0  0
 23  7  1  0  0  0  0
 23 20  1  0  0  0  0
 24 21  1  6  0  0  0
 24 20  1  0  0  0  0
 25 28  1  6  0  0  0
 25 22  1  0  0  0  0
 25 24  1  0  0  0  0
 27 26  1  0  0  0  0
 29 28  1  0  0  0  0
 30 34  2  0  0  0  0
 31 32  2  0  0  0  0
 31 35  1  0  0  0  0
 32 30  1  0  0  0  0
 33 29  1  0  0  0  0
 33 34  1  0  0  0  0
 35 33  2  0  0  0  0
M  END
>  <MODEL>
9

>  <REMARK>
 VINA RESULT:      -4.2      2.852      5.331
  Name = 
  6 active torsions:
  status: ('A' for Active; 'I' for Inactive)
    1  A    between atoms: C_3  and  C_31
    2  A    between atoms: N_16  and  C_22
    3  A    between atoms: N_16  and  C_23
    4  A    between atoms: C_17  and  C_25
    5  A    between atoms: C_19  and  C_27
    6  A    between atoms: C_23  and  C_26
                            x       y       z     vdW  Elec       q    Type
                         _______ _______ _______ _____ _____    ______ ____

>  <TORSDO>
F 6

$$$$
