=
 OpenBabel11072412123D

 31 34  0  0  1  0  0  0  0  0999 V2000
  162.0630  211.2590  149.3150 N   0  0  0  0  0  0  0  0  0  0  0  0
  162.9610  205.5840  152.8610 O   0  0  0  0  0  0  0  0  0  0  0  0
  162.2500  208.9100  150.7010 C   0  0  1  0  0  3  0  0  0  0  0  0
  161.4530  206.6440  146.9560 C   0  0  0  0  0  2  0  0  0  0  0  0
  161.7980  202.9360  146.4800 C   0  0  0  0  0  2  0  0  0  0  0  0
  160.9290  206.6230  152.3540 N   0  0  0  0  0  2  0  0  0  0  0  0
  160.3910  201.6680  148.1970 C   0  0  0  0  0  3  0  0  0  0  0  0
  160.8950  201.7250  146.7710 C   0  0  0  0  0  2  0  0  0  0  0  0
  162.0280  210.0170  149.6750 C   0  0  0  0  0  0  0  0  0  0  0  0
  161.2840  204.1300  151.9950 C   0  0  1  0  0  3  0  0  0  0  0  0
  161.1340  208.9780  151.7280 C   0  0  0  0  0  2  0  0  0  0  0  0
  160.8430  204.9280  149.6320 C   0  0  0  0  0  2  0  0  0  0  0  0
  160.2670  204.1920  150.8470 C   0  0  1  0  0  3  0  0  0  0  0  0
  160.6250  202.6580  149.0680 C   0  0  0  0  0  0  0  0  0  0  0  0
  162.3960  207.8230  147.1140 C   0  0  0  0  0  2  0  0  0  0  0  0
  161.7850  205.4780  152.4160 C   0  0  0  0  0  0  0  0  0  0  0  0
  162.8500  207.9610  148.5600 C   0  0  0  0  0  2  0  0  0  0  0  0
  161.7380  208.5400  149.4200 C   0  0  1  0  0  3  0  0  0  0  0  0
  161.3620  207.9340  152.8170 C   0  0  1  0  0  3  0  0  0  0  0  0
  161.4300  203.8590  148.7320 C   0  0  1  0  0  3  0  0  0  0  0  0
  161.3340  204.1790  147.2400 C   0  0  1  0  0  3  0  0  0  0  0  0
  162.2400  205.3470  146.8900 C   0  0  0  0  0  2  0  0  0  0  0  0
  159.9340  202.7770  150.3740 C   0  0  0  0  0  2  0  0  0  0  0  0
  160.7180  203.4870  153.0980 O   0  0  0  0  0  1  0  0  0  0  0  0
  162.3810  212.6170  147.2960 O   0  0  0  0  0  0  0  0  0  0  0  0
  161.6370  211.6930  148.0220 C   0  0  0  0  0  0  0  0  0  0  0  0
  160.5750  211.2270  147.5300 O   0  0  0  0  0  1  0  0  0  0  0  0
  160.5670  207.0660  155.0360 C   0  0  0  0  0  1  0  0  0  0  0  0
  160.6600  208.2860  154.1320 C   0  0  1  0  0  3  0  0  0  0  0  0
  161.9170  208.9910  156.0440 O   0  0  0  0  0  1  0  0  0  0  0  0
  161.3340  209.4450  154.8600 C   0  0  0  0  0  2  0  0  0  0  0  0
  1  9  2  0  0  0  0
  3 11  1  1  0  0  0
  4 15  1  0  0  0  0
  5  8  1  0  0  0  0
  6 16  1  0  0  0  0
  6 19  1  0  0  0  0
  7 14  2  0  0  0  0
  8  7  1  0  0  0  0
  9  3  1  0  0  0  0
 10 16  1  0  0  0  0
 10 24  1  1  0  0  0
 11 19  1  0  0  0  0
 13 12  1  6  0  0  0
 13 10  1  0  0  0  0
 14 23  1  0  0  0  0
 15 17  1  0  0  0  0
 16  2  2  0  0  0  0
 18 17  1  6  0  0  0
 18  9  1  0  0  0  0
 18  3  1  0  0  0  0
 19 29  1  1  0  0  0
 20 14  1  0  0  0  0
 20 12  1  1  0  0  0
 21  5  1  6  0  0  0
 21 20  1  0  0  0  0
 22  4  1  0  0  0  0
 22 21  1  0  0  0  0
 23 13  1  0  0  0  0
 25 26  2  0  0  0  0
 26  1  1  0  0  0  0
 27 26  1  0  0  0  0
 29 31  1  0  0  0  0
 29 28  1  1  0  0  0
 31 30  1  0  0  0  0
M  END
>  <MODEL>
1

>  <REMARK>
 VINA RESULT:      -8.0      0.000      0.000
  Name = 
  3 active torsions:
  status: ('A' for Active; 'I' for Inactive)
    1  A    between atoms: N_1  and  C_22
    2  A    between atoms: C_21  and  C_28
    3  A    between atoms: C_28  and  C_30
                            x       y       z     vdW  Elec       q    Type
                         _______ _______ _______ _____ _____    ______ ____

>  <TORSDO>
F 3

$$$$
=
 OpenBabel11072412123D

 31 34  0  0  1  0  0  0  0  0999 V2000
  160.7550  212.1730  151.9460 N   0  0  0  0  0  0  0  0  0  0  0  0
  162.7700  205.9490  153.6200 O   0  0  0  0  0  0  0  0  0  0  0  0
  161.4120  209.5860  152.5420 C   0  0  1  0  0  3  0  0  0  0  0  0
  161.2790  208.5620  148.2140 C   0  0  0  0  0  2  0  0  0  0  0  0
  162.4630  205.3630  146.6450 C   0  0  0  0  0  2  0  0  0  0  0  0
  160.5770  206.6690  153.2470 N   0  0  0  0  0  2  0  0  0  0  0  0
  161.3140  203.3480  147.7200 C   0  0  0  0  0  3  0  0  0  0  0  0
  161.8440  203.9700  146.4450 C   0  0  0  0  0  2  0  0  0  0  0  0
  160.9860  210.9010  151.8950 C   0  0  0  0  0  0  0  0  0  0  0  0
  161.4940  204.5550  152.1690 C   0  0  1  0  0  3  0  0  0  0  0  0
  160.2730  209.0890  153.4130 C   0  0  0  0  0  2  0  0  0  0  0  0
  160.9720  205.9790  150.1400 C   0  0  0  0  0  2  0  0  0  0  0  0
  160.5310  204.7850  150.9960 C   0  0  1  0  0  3  0  0  0  0  0  0
  161.2880  204.0240  148.8760 C   0  0  0  0  0  0  0  0  0  0  0  0
  161.9290  209.7880  148.8320 C   0  0  0  0  0  2  0  0  0  0  0  0
  161.6650  205.7620  153.0400 C   0  0  0  0  0  0  0  0  0  0  0  0
  162.2870  209.5320  150.2890 C   0  0  0  0  0  2  0  0  0  0  0  0
  161.0430  209.5620  151.1620 C   0  0  1  0  0  3  0  0  0  0  0  0
  160.6890  207.8140  154.1400 C   0  0  1  0  0  3  0  0  0  0  0  0
  161.8160  205.4040  149.0200 C   0  0  1  0  0  3  0  0  0  0  0  0
  161.7050  206.1690  147.7010 C   0  0  1  0  0  3  0  0  0  0  0  0
  162.3390  207.5430  147.8320 C   0  0  0  0  0  2  0  0  0  0  0  0
  160.5410  203.5680  150.0720 C   0  0  0  0  0  2  0  0  0  0  0  0
  161.0460  203.4870  152.9490 O   0  0  0  0  0  1  0  0  0  0  0  0
  160.9770  212.8760  149.6060 O   0  0  0  0  0  0  0  0  0  0  0  0
  160.2900  212.9110  150.8150 C   0  0  0  0  0  0  0  0  0  0  0  0
  159.2400  213.5990  150.9120 O   0  0  0  0  0  1  0  0  0  0  0  0
  160.6970  206.7850  156.4310 C   0  0  0  0  0  1  0  0  0  0  0  0
  159.8780  207.5670  155.4160 C   0  0  1  0  0  3  0  0  0  0  0  0
  160.2210  209.3030  157.0300 O   0  0  0  0  0  1  0  0  0  0  0  0
  159.3520  208.8610  156.0310 C   0  0  0  0  0  2  0  0  0  0  0  0
  3 11  1  1  0  0  0
  4 15  1  0  0  0  0
  6 19  1  0  0  0  0
  7 14  2  0  0  0  0
  8  5  1  0  0  0  0
  8  7  1  0  0  0  0
  9  1  2  0  0  0  0
  9  3  1  0  0  0  0
 10 24  1  1  0  0  0
 10 16  1  0  0  0  0
 11 19  1  0  0  0  0
 12 13  1  0  0  0  0
 13 23  1  6  0  0  0
 13 10  1  0  0  0  0
 14 20  1  0  0  0  0
 14 23  1  0  0  0  0
 15 17  1  0  0  0  0
 16  6  1  0  0  0  0
 16  2  2  0  0  0  0
 18 17  1  6  0  0  0
 18  9  1  0  0  0  0
 18  3  1  0  0  0  0
 19 29  1  1  0  0  0
 20 12  1  1  0  0  0
 21  5  1  6  0  0  0
 21 22  1  0  0  0  0
 21 20  1  0  0  0  0
 22  4  1  0  0  0  0
 25 26  2  0  0  0  0
 26 27  1  0  0  0  0
 26  1  1  0  0  0  0
 29 31  1  0  0  0  0
 29 28  1  1  0  0  0
 31 30  1  0  0  0  0
M  END
>  <MODEL>
2

>  <REMARK>
 VINA RESULT:      -7.1      1.603      2.108
  Name = 
  3 active torsions:
  status: ('A' for Active; 'I' for Inactive)
    1  A    between atoms: N_1  and  C_22
    2  A    between atoms: C_21  and  C_28
    3  A    between atoms: C_28  and  C_30
                            x       y       z     vdW  Elec       q    Type
                         _______ _______ _______ _____ _____    ______ ____

>  <TORSDO>
F 3

$$$$
=
 OpenBabel11072412123D

 31 34  0  0  1  0  0  0  0  0999 V2000
  160.4520  201.5820  148.9230 N   0  0  0  0  0  0  0  0  0  0  0  0
  163.7610  207.4590  148.6020 O   0  0  0  0  0  0  0  0  0  0  0  0
  161.6260  204.0490  148.8280 C   0  0  1  0  0  3  0  0  0  0  0  0
  160.2620  204.8510  152.9870 C   0  0  0  0  0  2  0  0  0  0  0  0
  161.3230  207.7180  155.1660 C   0  0  0  0  0  2  0  0  0  0  0  0
  161.4850  207.0980  148.2060 N   0  0  0  0  0  2  0  0  0  0  0  0
  160.8770  209.9520  154.0030 C   0  0  0  0  0  3  0  0  0  0  0  0
  160.8770  209.1830  155.3080 C   0  0  0  0  0  2  0  0  0  0  0  0
  160.8330  202.7920  149.1740 C   0  0  0  0  0  0  0  0  0  0  0  0
  162.2990  208.9680  149.7260 C   0  0  1  0  0  3  0  0  0  0  0  0
  160.9090  204.7760  147.7050 C   0  0  0  0  0  2  0  0  0  0  0  0
  160.9580  207.5470  151.3370 C   0  0  0  0  0  2  0  0  0  0  0  0
  160.9890  208.8410  150.5150 C   0  0  1  0  0  3  0  0  0  0  0  0
  161.1270  209.3510  152.8320 C   0  0  0  0  0  0  0  0  0  0  0  0
  160.8930  203.5680  152.4750 C   0  0  0  0  0  2  0  0  0  0  0  0
  162.5660  207.7980  148.8300 C   0  0  0  0  0  0  0  0  0  0  0  0
  161.7320  203.8370  151.2340 C   0  0  0  0  0  2  0  0  0  0  0  0
  160.8420  204.0620  150.0220 C   0  0  1  0  0  3  0  0  0  0  0  0
  161.7120  205.9990  147.2780 C   0  0  1  0  0  3  0  0  0  0  0  0
  161.4720  207.9120  152.7160 C   0  0  1  0  0  3  0  0  0  0  0  0
  160.8360  207.1080  153.8500 C   0  0  1  0  0  3  0  0  0  0  0  0
  161.2760  205.6550  153.7800 C   0  0  0  0  0  2  0  0  0  0  0  0
  160.8760  209.9890  151.5180 C   0  0  0  0  0  2  0  0  0  0  0  0
  162.2820  210.1370  148.9600 O   0  0  0  0  0  1  0  0  0  0  0  0
  158.2110  200.7160  149.4240 O   0  0  0  0  0  0  0  0  0  0  0  0
  159.5490  200.8730  149.7730 C   0  0  0  0  0  0  0  0  0  0  0  0
  159.9700  200.3780  150.8510 O   0  0  0  0  0  1  0  0  0  0  0  0
  162.4100  205.8720  144.8680 C   0  0  0  0  0  1  0  0  0  0  0  0
  161.3970  206.4460  145.8460 C   0  0  1  0  0  3  0  0  0  0  0  0
  160.0010  205.0130  144.5320 O   0  0  0  0  0  1  0  0  0  0  0  0
  159.9760  206.0870  145.4240 C   0  0  0  0  0  2  0  0  0  0  0  0
  1  9  2  0  0  0  0
  1 26  1  0  0  0  0
  2 16  2  0  0  0  0
  3 11  1  6  0  0  0
  3  9  1  0  0  0  0
  3 18  1  0  0  0  0
  4 22  1  0  0  0  0
  5  8  1  0  0  0  0
  6 16  1  0  0  0  0
  7  8  1  0  0  0  0
  9 18  1  0  0  0  0
 10 24  1  6  0  0  0
 10 13  1  0  0  0  0
 13 12  1  1  0  0  0
 13 23  1  0  0  0  0
 14  7  2  0  0  0  0
 15  4  1  0  0  0  0
 16 10  1  0  0  0  0
 17 15  1  0  0  0  0
 18 17  1  1  0  0  0
 19 29  1  6  0  0  0
 19 11  1  0  0  0  0
 19  6  1  0  0  0  0
 20 12  1  6  0  0  0
 20 14  1  0  0  0  0
 20 21  1  0  0  0  0
 21 22  1  6  0  0  0
 21  5  1  0  0  0  0
 23 14  1  0  0  0  0
 25 26  2  0  0  0  0
 26 27  1  0  0  0  0
 29 28  1  6  0  0  0
 30 31  1  0  0  0  0
 31 29  1  0  0  0  0
M  END
>  <MODEL>
3

>  <REMARK>
 VINA RESULT:      -5.3      2.593      8.024
  Name = 
  3 active torsions:
  status: ('A' for Active; 'I' for Inactive)
    1  A    between atoms: N_1  and  C_22
    2  A    between atoms: C_21  and  C_28
    3  A    between atoms: C_28  and  C_30
                            x       y       z     vdW  Elec       q    Type
                         _______ _______ _______ _____ _____    ______ ____

>  <TORSDO>
F 3

$$$$
