=
 OpenBabel11072412443D

 55 58  0  0  1  0  0  0  0  0999 V2000
  161.1400  204.9720  149.6280 C   0  0  0  0  0  0  0  0  0  0  0  0
  161.6930  208.8620  149.2780 C   0  0  2  0  0  3  0  0  0  0  0  0
  160.7870  204.7850  148.1870 C   0  0  1  0  0  3  0  0  0  0  0  0
  161.6260  208.3670  150.7470 C   0  0  2  0  0  3  0  0  0  0  0  0
  162.2970  207.7980  148.3650 C   0  0  0  0  0  2  0  0  0  0  0  0
  161.5350  205.7280  147.2160 C   0  0  1  0  0  3  0  0  0  0  0  0
  161.0580  203.2680  147.9880 C   0  0  2  0  0  3  0  0  0  0  0  0
  161.1140  205.4410  145.7850 C   0  0  0  0  0  1  0  0  0  0  0  0
  161.2520  202.7250  149.3310 N   0  0  0  0  0  2  0  0  0  0  0  0
  160.6980  207.1970  150.9200 C   0  0  0  0  0  3  0  0  0  0  0  0
  161.5020  203.3840  151.6620 C   0  0  0  0  0  1  0  0  0  0  0  0
  161.2120  207.1870  147.4990 C   0  0  0  0  0  2  0  0  0  0  0  0
  162.2620  203.0240  147.2050 N   0  0  0  0  0  1  0  0  0  0  0  0
  160.9070  206.0640  150.3070 C   0  0  0  0  0  0  0  0  0  0  0  0
  161.3100  203.6620  150.2130 C   0  0  2  0  0  3  0  0  0  0  0  0
  162.4370  210.1990  149.1210 C   0  0  1  0  0  3  0  0  0  0  0  0
  163.3820  210.2350  147.9230 C   0  0  0  0  0  1  0  0  0  0  0  0
  161.4890  211.3980  149.1380 C   0  0  0  0  0  2  0  0  0  0  0  0
  161.5600  212.1260  147.9440 O   0  0  0  0  0  0  0  0  0  0  0  0
  160.5380  213.0790  148.0300 C   0  0  1  0  0  3  0  0  0  0  0  0
  161.1040  214.4530  148.3830 C   0  0  0  0  0  2  0  0  0  0  0  0
  162.6150  214.4530  148.2570 C   0  0  0  0  0  1  0  0  0  0  0  0
  159.7230  213.1210  146.7290 C   0  0  0  0  0  2  0  0  0  0  0  0
  160.4950  213.4560  145.4380 C   0  0  2  0  0  3  0  0  0  0  0  0
  158.8300  212.2200  144.3160 O   0  0  0  0  0  0  0  0  0  0  0  0
  159.7360  213.0350  144.2120 C   0  0  0  0  0  0  0  0  0  0  0  0
  158.9170  214.1880  142.1640 C   0  0  0  0  0  1  0  0  0  0  0  0
  160.1110  213.5410  142.8440 C   0  0  2  0  0  3  0  0  0  0  0  0
  161.7800  211.9500  142.2820 O   0  0  0  0  0  0  0  0  0  0  0  0
  160.7360  212.4980  141.9580 C   0  0  0  0  0  0  0  0  0  0  0  0
  160.0500  212.1030  140.6910 C   0  0  0  0  0  2  0  0  0  0  0  0
  161.0140  212.1940  139.5180 C   0  0  0  0  0  2  0  0  0  0  0  0
  161.7530  213.5190  139.5460 C   0  0  0  0  0  2  0  0  0  0  0  0
  162.6260  213.6250  138.3910 N   0  0  0  0  0  1  0  0  0  0  0  0
  161.7930  212.9380  145.4170 O   0  0  0  0  0  0  0  0  0  0  0  0
  162.5330  213.9170  144.9410 O   0  0  0  0  0  1  0  0  0  0  0  0
  161.1410  209.4620  151.6910 C   0  0  0  0  0  2  0  0  0  0  0  0
  162.1740  209.7900  152.7690 C   0  0  0  0  0  2  0  0  0  0  0  0
  159.6490  211.1490  155.0540 C   0  0  2  0  0  0  0  0  0  0  0  0
  158.4590  212.0350  155.0910 C   0  0  2  0  0  0  0  0  0  0  0  0
  160.6000  209.0170  154.6240 C   0  0  0  0  0  2  0  0  0  0  0  0
  161.5660  210.1010  154.1390 C   0  0  2  0  0  3  0  0  0  0  0  0
  159.4820  212.1180  156.0620 O   0  0  0  0  0  0  0  0  0  0  0  0
  160.0060  209.5450  156.9670 C   0  0  0  0  0  1  0  0  0  0  0  0
  160.8350  211.4350  154.1720 C   0  0  0  0  0  2  0  0  0  0  0  0
  159.5800  209.7030  155.5160 C   0  0  1  0  0  3  0  0  0  0  0  0
  157.1590  211.6030  155.7100 C   0  0  0  0  0  0  0  0  0  0  0  0
  156.7700  212.1240  156.7940 O   0  0  0  0  0  0  0  0  0  0  0  0
  156.3930  210.6250  155.0780 O   0  0  0  0  0  0  0  0  0  0  0  0
  155.0960  210.2790  155.5410 C   0  0  0  0  0  1  0  0  0  0  0  0
  158.4570  213.1850  154.2830 O   0  0  0  0  0  0  0  0  0  0  0  0
  157.6340  212.8980  153.1830 C   0  0  0  0  0  2  0  0  0  0  0  0
  158.4110  213.0780  151.8920 C   0  0  0  0  0  2  0  0  0  0  0  0
  157.2540  213.3420  149.7270 C   0  0  0  0  0  1  0  0  0  0  0  0
  157.7000  214.0590  150.9840 C   0  0  0  0  0  2  0  0  0  0  0  0
  1 15  1  0  0  0  0
  1 14  2  0  0  0  0
  2 16  1  1  0  0  0
  2  4  1  0  0  0  0
  3  1  1  1  0  0  0
  4 10  1  0  0  0  0
  4 37  1  1  0  0  0
  5  2  1  0  0  0  0
  6  8  1  6  0  0  0
  6 12  1  0  0  0  0
  6  3  1  0  0  0  0
  7 13  1  6  0  0  0
  7  3  1  0  0  0  0
  7  9  1  0  0  0  0
  9 15  1  0  0  0  0
 12  5  1  0  0  0  0
 14 10  2  0  0  0  0
 15 11  1  1  0  0  0
 16 17  1  6  0  0  0
 16 18  1  0  0  0  0
 19 20  1  0  0  0  0
 19 18  1  0  0  0  0
 20 23  1  6  0  0  0
 20 21  1  0  0  0  0
 22 21  1  0  0  0  0
 24 23  1  1  0  0  0
 26 25  2  0  0  0  0
 26 24  1  0  0  0  0
 28 27  1  6  0  0  0
 28 26  1  0  0  0  0
 30 29  2  0  0  0  0
 30 28  1  0  0  0  0
 31 30  1  0  0  0  0
 32 33  1  0  0  0  0
 32 31  1  0  0  0  0
 34 33  1  0  0  0  0
 35 24  1  0  0  0  0
 36 35  1  0  0  0  0
 37 38  1  0  0  0  0
 39 45  1  6  0  0  0
 39 40  1  0  0  0  0
 39 46  1  0  0  0  0
 39 43  1  0  0  0  0
 40 51  1  6  0  0  0
 40 47  1  0  0  0  0
 40 43  1  0  0  0  0
 41 46  1  0  0  0  0
 42 38  1  6  0  0  0
 42 45  1  0  0  0  0
 42 41  1  0  0  0  0
 46 44  1  1  0  0  0
 47 48  2  0  0  0  0
 49 50  1  0  0  0  0
 49 47  1  0  0  0  0
 52 51  1  0  0  0  0
 53 52  1  0  0  0  0
 54 55  1  0  0  0  0
 55 53  1  0  0  0  0
M  END
>  <MODEL>
1

>  <REMARK>
 VINA RESULT:      -5.1      0.000      0.000
  Name = 
  23 active torsions:
  status: ('A' for Active; 'I' for Inactive)
    1  A    between atoms: O_1  and  C_25
    2  A    between atoms: O_2  and  C_9
    3  A    between atoms: O_2  and  C_22
    4  A    between atoms: C_4  and  C_17
    5  A    between atoms: O_5  and  C_16
    6  A    between atoms: C_6  and  C_35
    7  A    between atoms: C_8  and  C_47
    8  A    between atoms: C_9  and  C_33
    9  A    between atoms: C_15  and  C_16
   10  A    between atoms: C_15  and  C_46
   11  A    between atoms: C_16  and  C_26
   12  A    between atoms: C_17  and  C_54
   13  A    between atoms: C_19  and  C_35
   14  A    between atoms: C_19  and  C_55
   15  A    between atoms: C_20  and  C_33
   16  A    between atoms: C_22  and  C_25
   17  A    between atoms: C_23  and  C_36
   18  A    between atoms: C_26  and  C_36
   19  A    between atoms: C_30  and  C_32
   20  A    between atoms: C_30  and  C_47
   21  A    between atoms: C_36  and  O_40
   22  A    between atoms: O_40  and  C_54
   23  A    between atoms: C_46  and  C_55
                            x       y       z     vdW  Elec       q    Type
                         _______ _______ _______ _____ _____    ______ ____

>  <TORSDO>
F 23

$$$$
