=
 OpenBabel11072414273D

 47 52  0  0  1  0  0  0  0  0999 V2000
  161.6310  205.4840  152.6050 C   0  0  0  0  0  3  0  0  0  0  0  0
  161.7300  207.6680  151.6890 C   0  0  0  0  0  0  0  0  0  0  0  0
  161.0020  210.1050  152.8200 C   0  0  0  0  0  0  0  0  0  0  0  0
  160.8460  208.9130  153.5430 C   0  0  0  0  0  3  0  0  0  0  0  0
  161.8890  208.8270  150.9140 C   0  0  0  0  0  0  0  0  0  0  0  0
  161.5210  210.0810  151.4920 C   0  0  0  0  0  0  0  0  0  0  0  0
  161.2210  207.7160  152.9490 C   0  0  0  0  0  0  0  0  0  0  0  0
  161.1440  206.4640  153.5170 O   0  0  0  0  0  0  0  0  0  0  0  0
  162.0460  206.2560  151.3360 C   0  0  0  0  0  3  0  0  0  0  0  0
  161.0740  211.4440  154.9410 C   0  0  0  0  0  2  0  0  0  0  0  0
  160.5560  211.3700  153.5040 C   0  0  2  0  0  3  0  0  0  0  0  0
  159.0890  211.4640  153.6790 C   0  0  0  0  0  0  0  0  0  0  0  0
  158.7270  211.6900  154.9870 O   0  0  0  0  0  0  0  0  0  0  0  0
  159.8690  211.8180  155.8180 C   0  0  1  0  0  3  0  0  0  0  0  0
  158.2540  211.3840  152.7400 O   0  0  0  0  0  0  0  0  0  0  0  0
  159.7400  210.6770  157.2270 S   0  0  0  0  0  0  0  0  0  0  0  0
  161.3840  210.1950  157.0990 O   0  0  0  0  0  0  0  0  0  0  0  0
  161.3630  208.8080  157.2590 C   0  0  0  0  0  2  0  0  0  0  0  0
  160.0390  206.8650  156.8680 O   0  0  0  0  0  1  0  0  0  0  0  0
  160.1200  208.2320  156.6080 C   0  0  0  0  0  2  0  0  0  0  0  0
  162.4510  208.7010  149.5260 C   0  0  0  0  0  2  0  0  0  0  0  0
  162.1800  207.3210  148.9340 C   0  0  0  0  0  2  0  0  0  0  0  0
  161.1510  206.1700  146.9130 C   0  0  2  0  0  0  0  0  0  0  0  0
  160.5100  206.3830  145.5530 C   0  0  0  0  0  1  0  0  0  0  0  0
  160.1370  206.2010  148.0350 C   0  0  0  0  0  2  0  0  0  0  0  0
  161.0990  207.3680  147.8560 C   0  0  1  0  0  3  0  0  0  0  0  0
  162.2460  205.1030  147.0920 C   0  0  1  0  0  3  0  0  0  0  0  0
  161.6970  203.8290  147.6520 C   0  0  0  0  0  0  0  0  0  0  0  0
  161.1460  202.8620  146.7620 N   0  0  0  0  0  2  0  0  0  0  0  0
  161.7420  203.6000  148.8910 O   0  0  0  0  0  0  0  0  0  0  0  0
  160.6380  201.6440  147.2350 N   0  0  0  0  0  2  0  0  0  0  0  0
  160.3980  200.0950  145.2580 C   0  0  0  0  0  0  0  0  0  0  0  0
  159.6670  200.8740  144.5980 O   0  0  0  0  0  0  0  0  0  0  0  0
  161.8300  198.2420  146.2240 C   0  0  0  0  0  2  0  0  0  0  0  0
  160.8800  198.4880  144.6710 S   0  0  0  0  0  0  0  0  0  0  0  0
  160.9160  200.4130  146.5660 C   0  0  0  0  0  0  0  0  0  0  0  0
  161.6620  199.4540  147.0870 C   0  0  0  0  0  3  0  0  0  0  0  0
  164.2380  204.2460  146.0840 O   0  0  0  0  0  1  0  0  0  0  0  0
  163.0130  204.8470  145.8020 C   0  0  0  0  0  2  0  0  0  0  0  0
  161.6730  211.3120  150.8270 O   0  0  0  0  0  0  0  0  0  0  0  0
  160.6240  212.0660  150.2370 C   0  0  0  0  0  2  0  0  0  0  0  0
  160.4650  213.8440  148.4830 C   0  0  0  0  0  3  0  0  0  0  0  0
  162.2280  212.1900  148.3300 C   0  0  0  0  0  3  0  0  0  0  0  0
  162.6980  212.8000  147.1620 C   0  0  0  0  0  3  0  0  0  0  0  0
  160.9360  214.4530  147.3150 C   0  0  0  0  0  3  0  0  0  0  0  0
  162.0520  213.9300  146.6540 C   0  0  0  0  0  3  0  0  0  0  0  0
  161.1080  212.7090  148.9880 C   0  0  0  0  0  0  0  0  0  0  0  0
  1  8  1  0  0  0  0
  2  7  1  0  0  0  0
  3  4  1  0  0  0  0
  5  6  1  0  0  0  0
  5  2  2  0  0  0  0
  6  3  2  0  0  0  0
  7  8  1  0  0  0  0
  7  4  2  0  0  0  0
  9  2  1  0  0  0  0
  9  1  2  0  0  0  0
 10 14  1  0  0  0  0
 11  3  1  1  0  0  0
 11 12  1  0  0  0  0
 11 10  1  0  0  0  0
 12 13  1  0  0  0  0
 13 14  1  0  0  0  0
 14 16  1  1  0  0  0
 15 12  2  0  0  0  0
 17 16  1  0  0  0  0
 17 18  1  0  0  0  0
 20 19  1  0  0  0  0
 20 18  1  0  0  0  0
 21  5  1  0  0  0  0
 22 21  1  0  0  0  0
 23 24  1  6  0  0  0
 23 27  1  0  0  0  0
 23 26  1  0  0  0  0
 23 25  1  0  0  0  0
 26 25  1  0  0  0  0
 26 22  1  1  0  0  0
 27 39  1  6  0  0  0
 27 28  1  0  0  0  0
 28 30  2  0  0  0  0
 29 31  1  0  0  0  0
 29 28  1  0  0  0  0
 32 36  1  0  0  0  0
 33 32  2  0  0  0  0
 34 37  1  0  0  0  0
 35 32  1  0  0  0  0
 35 34  1  0  0  0  0
 36 37  2  0  0  0  0
 36 31  1  0  0  0  0
 39 38  1  0  0  0  0
 40  6  1  0  0  0  0
 41 40  1  0  0  0  0
 42 47  1  0  0  0  0
 43 47  2  0  0  0  0
 44 43  1  0  0  0  0
 45 42  2  0  0  0  0
 46 44  2  0  0  0  0
 46 45  1  0  0  0  0
 47 41  1  0  0  0  0
M  END
>  <MODEL>
1

>  <REMARK>
 VINA RESULT:      -5.6      0.000      0.000
  Name = 
  16 active torsions:
  status: ('A' for Active; 'I' for Inactive)
    1  A    between atoms: N_2  and  N_19
    2  A    between atoms: N_2  and  C_42
    3  A    between atoms: C_6  and  C_20
    4  A    between atoms: S_8  and  O_30
    5  A    between atoms: S_8  and  C_33
    6  A    between atoms: C_15  and  O_25
    7  A    between atoms: C_15  and  C_39
    8  A    between atoms: C_18  and  C_37
    9  A    between atoms: C_22  and  C_31
   10  A    between atoms: C_23  and  C_37
   11  A    between atoms: C_24  and  O_25
   12  A    between atoms: C_27  and  C_37
   13  A    between atoms: O_30  and  C_35
   14  A    between atoms: C_31  and  C_40
   15  A    between atoms: C_35  and  C_45
   16  A    between atoms: C_36  and  C_40
                            x       y       z     vdW  Elec       q    Type
                         _______ _______ _______ _____ _____    ______ ____

>  <TORSDO>
F 16

$$$$
=
 OpenBabel11072414273D

 47 52  0  0  1  0  0  0  0  0999 V2000
  161.0040  203.9700  152.1860 C   0  0  0  0  0  3  0  0  0  0  0  0
  161.0250  206.0150  150.9880 C   0  0  0  0  0  0  0  0  0  0  0  0
  161.4390  208.6100  151.9080 C   0  0  0  0  0  0  0  0  0  0  0  0
  161.4560  207.5290  152.8030 C   0  0  0  0  0  3  0  0  0  0  0  0
  160.9790  207.0600  150.0530 C   0  0  0  0  0  0  0  0  0  0  0  0
  161.1950  208.3940  150.5190 C   0  0  0  0  0  0  0  0  0  0  0  0
  161.2480  206.2490  152.3090 C   0  0  0  0  0  0  0  0  0  0  0  0
  161.2400  205.0840  153.0430 O   0  0  0  0  0  0  0  0  0  0  0  0
  160.8500  204.5530  150.7670 C   0  0  0  0  0  3  0  0  0  0  0  0
  162.6930  209.9540  153.6160 C   0  0  0  0  0  2  0  0  0  0  0  0
  161.6470  209.9780  152.5010 C   0  0  2  0  0  3  0  0  0  0  0  0
  160.4490  210.5150  153.1860 C   0  0  0  0  0  0  0  0  0  0  0  0
  160.7090  210.8940  154.4830 O   0  0  0  0  0  0  0  0  0  0  0  0
  162.0770  210.7090  154.8050 C   0  0  1  0  0  3  0  0  0  0  0  0
  159.3200  210.6490  152.6460 O   0  0  0  0  0  0  0  0  0  0  0  0
  162.2270  209.7190  156.3220 S   0  0  0  0  0  0  0  0  0  0  0  0
  160.5440  209.8090  156.6520 O   0  0  0  0  0  0  0  0  0  0  0  0
  160.2340  208.5910  157.2610 C   0  0  0  0  0  2  0  0  0  0  0  0
  159.1460  206.9540  155.9130 O   0  0  0  0  0  1  0  0  0  0  0  0
  160.3970  207.4600  156.2640 C   0  0  0  0  0  2  0  0  0  0  0  0
  160.7220  206.7320  148.6100 C   0  0  0  0  0  2  0  0  0  0  0  0
  162.0170  206.4260  147.8640 C   0  0  0  0  0  2  0  0  0  0  0  0
  161.8550  204.6310  146.0690 C   0  0  2  0  0  0  0  0  0  0  0  0
  161.4380  203.2000  145.7750 C   0  0  0  0  0  1  0  0  0  0  0  0
  163.2860  204.7220  146.5510 C   0  0  0  0  0  2  0  0  0  0  0  0
  162.1450  204.9390  147.5360 C   0  0  1  0  0  3  0  0  0  0  0  0
  161.4440  205.7660  145.1160 C   0  0  1  0  0  3  0  0  0  0  0  0
  161.9300  205.5270  143.7210 C   0  0  0  0  0  0  0  0  0  0  0  0
  161.4640  206.3700  142.6710 N   0  0  0  0  0  2  0  0  0  0  0  0
  162.7590  204.6070  143.4790 O   0  0  0  0  0  0  0  0  0  0  0  0
  161.9050  206.1990  141.3510 N   0  0  0  0  0  2  0  0  0  0  0  0
  162.0260  207.0670  138.9850 C   0  0  0  0  0  0  0  0  0  0  0  0
  162.2710  205.9460  138.4710 O   0  0  0  0  0  0  0  0  0  0  0  0
  161.5510  209.4820  139.5840 C   0  0  0  0  0  2  0  0  0  0  0  0
  161.9030  208.5620  138.0320 S   0  0  0  0  0  0  0  0  0  0  0  0
  161.8310  207.2630  140.3990 C   0  0  0  0  0  0  0  0  0  0  0  0
  161.5870  208.5190  140.7310 C   0  0  0  0  0  3  0  0  0  0  0  0
  159.2660  204.9010  144.6390 O   0  0  0  0  0  1  0  0  0  0  0  0
  159.9420  206.0150  145.1350 C   0  0  0  0  0  2  0  0  0  0  0  0
  161.2120  209.5150  149.6710 O   0  0  0  0  0  0  0  0  0  0  0  0
  162.3740  210.1050  149.1060 C   0  0  0  0  0  2  0  0  0  0  0  0
  161.1220  212.2320  149.5230 C   0  0  0  0  0  3  0  0  0  0  0  0
  162.9130  212.2180  147.8920 C   0  0  0  0  0  3  0  0  0  0  0  0
  162.6920  213.5760  147.6380 C   0  0  0  0  0  3  0  0  0  0  0  0
  160.9020  213.5900  149.2690 C   0  0  0  0  0  3  0  0  0  0  0  0
  161.6870  214.2620  148.3260 C   0  0  0  0  0  3  0  0  0  0  0  0
  162.1240  211.5440  148.8300 C   0  0  0  0  0  0  0  0  0  0  0  0
  1  8  1  0  0  0  0
  2  7  1  0  0  0  0
  3  4  1  0  0  0  0
  5  6  1  0  0  0  0
  5  2  2  0  0  0  0
  6  3  2  0  0  0  0
  7  4  2  0  0  0  0
  7  8  1  0  0  0  0
  9  2  1  0  0  0  0
  9  1  2  0  0  0  0
 10 14  1  0  0  0  0
 11  3  1  1  0  0  0
 11 12  1  0  0  0  0
 11 10  1  0  0  0  0
 12 13  1  0  0  0  0
 13 14  1  0  0  0  0
 14 16  1  1  0  0  0
 15 12  2  0  0  0  0
 16 17  1  0  0  0  0
 17 18  1  0  0  0  0
 19 20  1  0  0  0  0
 20 18  1  0  0  0  0
 21  5  1  0  0  0  0
 22 21  1  0  0  0  0
 23 24  1  6  0  0  0
 23 25  1  0  0  0  0
 23 26  1  0  0  0  0
 25 26  1  0  0  0  0
 26 22  1  6  0  0  0
 27 39  1  6  0  0  0
 27 23  1  0  0  0  0
 28 27  1  0  0  0  0
 29 28  1  0  0  0  0
 30 28  2  0  0  0  0
 31 29  1  0  0  0  0
 32 36  1  0  0  0  0
 33 32  2  0  0  0  0
 34 37  1  0  0  0  0
 35 32  1  0  0  0  0
 35 34  1  0  0  0  0
 36 37  2  0  0  0  0
 36 31  1  0  0  0  0
 38 39  1  0  0  0  0
 40  6  1  0  0  0  0
 41 40  1  0  0  0  0
 43 47  1  0  0  0  0
 44 43  2  0  0  0  0
 44 46  1  0  0  0  0
 45 42  1  0  0  0  0
 46 45  2  0  0  0  0
 47 41  1  0  0  0  0
 47 42  2  0  0  0  0
M  END
>  <MODEL>
2

>  <REMARK>
 VINA RESULT:      -4.9      3.350      4.637
  Name = 
  16 active torsions:
  status: ('A' for Active; 'I' for Inactive)
    1  A    between atoms: N_2  and  N_19
    2  A    between atoms: N_2  and  C_42
    3  A    between atoms: C_6  and  C_20
    4  A    between atoms: S_8  and  O_30
    5  A    between atoms: S_8  and  C_33
    6  A    between atoms: C_15  and  O_25
    7  A    between atoms: C_15  and  C_39
    8  A    between atoms: C_18  and  C_37
    9  A    between atoms: C_22  and  C_31
   10  A    between atoms: C_23  and  C_37
   11  A    between atoms: C_24  and  O_25
   12  A    between atoms: C_27  and  C_37
   13  A    between atoms: O_30  and  C_35
   14  A    between atoms: C_31  and  C_40
   15  A    between atoms: C_35  and  C_45
   16  A    between atoms: C_36  and  C_40
                            x       y       z     vdW  Elec       q    Type
                         _______ _______ _______ _____ _____    ______ ____

>  <TORSDO>
F 16

$$$$
=
 OpenBabel11072414273D

 47 52  0  0  1  0  0  0  0  0999 V2000
  161.3600  205.8830  152.8900 C   0  0  0  0  0  3  0  0  0  0  0  0
  161.6050  207.9710  151.7950 C   0  0  0  0  0  0  0  0  0  0  0  0
  160.7910  210.5090  152.6020 C   0  0  0  0  0  0  0  0  0  0  0  0
  160.5310  209.3900  153.4080 C   0  0  0  0  0  3  0  0  0  0  0  0
  161.8740  209.0520  150.9400 C   0  0  0  0  0  0  0  0  0  0  0  0
  161.4620  210.3570  151.3530 C   0  0  0  0  0  0  0  0  0  0  0  0
  160.9520  208.1410  152.9760 C   0  0  0  0  0  0  0  0  0  0  0  0
  160.7870  206.9470  153.6430 O   0  0  0  0  0  0  0  0  0  0  0  0
  161.9350  206.5310  151.6130 C   0  0  0  0  0  3  0  0  0  0  0  0
  160.3580  211.9140  154.6340 C   0  0  0  0  0  2  0  0  0  0  0  0
  160.2900  211.8340  153.1090 C   0  0  2  0  0  3  0  0  0  0  0  0
  158.8560  212.0720  152.8310 C   0  0  0  0  0  0  0  0  0  0  0  0
  158.1420  212.3810  153.9660 O   0  0  0  0  0  0  0  0  0  0  0  0
  158.9880  212.4330  155.1030 C   0  0  1  0  0  3  0  0  0  0  0  0
  158.3370  212.0340  151.6840 O   0  0  0  0  0  0  0  0  0  0  0  0
  158.3280  211.3630  156.4150 S   0  0  0  0  0  0  0  0  0  0  0  0
  156.9770  212.3880  156.6920 O   0  0  0  0  0  0  0  0  0  0  0  0
  155.8740  211.5320  156.6920 C   0  0  0  0  0  2  0  0  0  0  0  0
  154.9350  209.8100  155.3380 O   0  0  0  0  0  1  0  0  0  0  0  0
  155.6090  211.0300  155.2860 C   0  0  0  0  0  2  0  0  0  0  0  0
  162.5920  208.7930  149.6470 C   0  0  0  0  0  2  0  0  0  0  0  0
  162.2580  207.4140  149.0860 C   0  0  0  0  0  2  0  0  0  0  0  0
  161.0780  206.2740  147.1420 C   0  0  2  0  0  0  0  0  0  0  0  0
  160.3430  206.4940  145.8320 C   0  0  0  0  0  1  0  0  0  0  0  0
  160.1460  206.3120  148.3340 C   0  0  0  0  0  2  0  0  0  0  0  0
  161.1030  207.4720  148.0880 C   0  0  1  0  0  3  0  0  0  0  0  0
  162.1740  205.1990  147.2420 C   0  0  1  0  0  3  0  0  0  0  0  0
  161.6260  203.8860  147.7080 C   0  0  0  0  0  0  0  0  0  0  0  0
  160.8250  203.1140  146.8170 N   0  0  0  0  0  2  0  0  0  0  0  0
  161.8880  203.4550  148.8640 O   0  0  0  0  0  0  0  0  0  0  0  0
  160.3060  201.8700  147.2000 N   0  0  0  0  0  2  0  0  0  0  0  0
  160.4170  200.2090  145.3030 C   0  0  0  0  0  0  0  0  0  0  0  0
  159.6450  200.8540  144.5490 O   0  0  0  0  0  0  0  0  0  0  0  0
  161.9950  198.6080  146.4710 C   0  0  0  0  0  2  0  0  0  0  0  0
  161.1420  198.6530  144.8440 S   0  0  0  0  0  0  0  0  0  0  0  0
  160.7890  200.6540  146.6230 C   0  0  0  0  0  0  0  0  0  0  0  0
  161.6080  199.8280  147.2490 C   0  0  0  0  0  3  0  0  0  0  0  0
  163.4510  203.7450  145.8370 O   0  0  0  0  0  1  0  0  0  0  0  0
  162.9390  205.0370  145.9350 C   0  0  0  0  0  2  0  0  0  0  0  0
  161.7120  211.5190  150.6000 O   0  0  0  0  0  0  0  0  0  0  0  0
  160.7420  212.2520  149.8670 C   0  0  0  0  0  2  0  0  0  0  0  0
  160.3910  212.8300  147.4570 C   0  0  0  0  0  3  0  0  0  0  0  0
  162.6510  212.6460  148.3100 C   0  0  0  0  0  3  0  0  0  0  0  0
  163.1540  212.9630  147.0440 C   0  0  0  0  0  3  0  0  0  0  0  0
  160.8950  213.1470  146.1920 C   0  0  0  0  0  3  0  0  0  0  0  0
  162.2770  213.2120  145.9840 C   0  0  0  0  0  3  0  0  0  0  0  0
  161.2700  212.5740  148.5160 C   0  0  0  0  0  0  0  0  0  0  0  0
  1  8  1  0  0  0  0
  2  7  1  0  0  0  0
  3  4  1  0  0  0  0
  5  6  1  0  0  0  0
  5  2  2  0  0  0  0
  6  3  2  0  0  0  0
  7  4  2  0  0  0  0
  7  8  1  0  0  0  0
  9  2  1  0  0  0  0
  9  1  2  0  0  0  0
 10 14  1  0  0  0  0
 11  3  1  1  0  0  0
 11 10  1  0  0  0  0
 12 11  1  0  0  0  0
 12 13  1  0  0  0  0
 13 14  1  0  0  0  0
 14 16  1  1  0  0  0
 15 12  2  0  0  0  0
 16 17  1  0  0  0  0
 17 18  1  0  0  0  0
 20 19  1  0  0  0  0
 20 18  1  0  0  0  0
 21  5  1  0  0  0  0
 22 21  1  0  0  0  0
 23 24  1  6  0  0  0
 23 27  1  0  0  0  0
 23 26  1  0  0  0  0
 23 25  1  0  0  0  0
 26 25  1  0  0  0  0
 26 22  1  1  0  0  0
 27 39  1  6  0  0  0
 27 28  1  0  0  0  0
 28 30  2  0  0  0  0
 29 31  1  0  0  0  0
 29 28  1  0  0  0  0
 32 36  1  0  0  0  0
 33 32  2  0  0  0  0
 34 37  1  0  0  0  0
 35 32  1  0  0  0  0
 35 34  1  0  0  0  0
 36 31  1  0  0  0  0
 36 37  2  0  0  0  0
 38 39  1  0  0  0  0
 40  6  1  0  0  0  0
 41 40  1  0  0  0  0
 42 47  1  0  0  0  0
 43 47  2  0  0  0  0
 44 43  1  0  0  0  0
 45 42  2  0  0  0  0
 46 45  1  0  0  0  0
 46 44  2  0  0  0  0
 47 41  1  0  0  0  0
M  END
>  <MODEL>
3

>  <REMARK>
 VINA RESULT:      -4.8      1.334      1.796
  Name = 
  16 active torsions:
  status: ('A' for Active; 'I' for Inactive)
    1  A    between atoms: N_2  and  N_19
    2  A    between atoms: N_2  and  C_42
    3  A    between atoms: C_6  and  C_20
    4  A    between atoms: S_8  and  O_30
    5  A    between atoms: S_8  and  C_33
    6  A    between atoms: C_15  and  O_25
    7  A    between atoms: C_15  and  C_39
    8  A    between atoms: C_18  and  C_37
    9  A    between atoms: C_22  and  C_31
   10  A    between atoms: C_23  and  C_37
   11  A    between atoms: C_24  and  O_25
   12  A    between atoms: C_27  and  C_37
   13  A    between atoms: O_30  and  C_35
   14  A    between atoms: C_31  and  C_40
   15  A    between atoms: C_35  and  C_45
   16  A    between atoms: C_36  and  C_40
                            x       y       z     vdW  Elec       q    Type
                         _______ _______ _______ _____ _____    ______ ____

>  <TORSDO>
F 16

$$$$
=
 OpenBabel11072414273D

 47 52  0  0  1  0  0  0  0  0999 V2000
  161.7040  207.1630  150.3960 C   0  0  0  0  0  3  0  0  0  0  0  0
  161.4700  209.5190  150.5190 C   0  0  0  0  0  0  0  0  0  0  0  0
  160.3460  211.0920  152.5230 C   0  0  0  0  0  0  0  0  0  0  0  0
  160.3700  209.6940  152.6480 C   0  0  0  0  0  3  0  0  0  0  0  0
  161.4550  210.9100  150.3330 C   0  0  0  0  0  0  0  0  0  0  0  0
  160.8830  211.7210  151.3610 C   0  0  0  0  0  0  0  0  0  0  0  0
  160.9400  208.9410  151.6310 C   0  0  0  0  0  0  0  0  0  0  0  0
  161.0540  207.5690  151.5970 O   0  0  0  0  0  0  0  0  0  0  0  0
  162.0110  208.4610  149.6210 C   0  0  0  0  0  3  0  0  0  0  0  0
  160.4700  211.7020  154.9530 C   0  0  0  0  0  2  0  0  0  0  0  0
  159.6950  211.8560  153.6440 C   0  0  2  0  0  3  0  0  0  0  0  0
  158.3480  211.3540  154.0000 C   0  0  0  0  0  0  0  0  0  0  0  0
  158.2340  211.0510  155.3370 O   0  0  0  0  0  0  0  0  0  0  0  0
  159.4340  211.3440  156.0310 C   0  0  1  0  0  3  0  0  0  0  0  0
  157.3920  211.2450  153.1870 O   0  0  0  0  0  0  0  0  0  0  0  0
  159.9810  209.8860  156.9670 S   0  0  0  0  0  0  0  0  0  0  0  0
  161.3670  209.6610  155.9770 O   0  0  0  0  0  0  0  0  0  0  0  0
  162.3950  209.3450  156.8690 C   0  0  0  0  0  2  0  0  0  0  0  0
  163.8970  211.0620  156.1810 O   0  0  0  0  0  1  0  0  0  0  0  0
  163.1440  210.6030  157.2610 C   0  0  0  0  0  2  0  0  0  0  0  0
  162.0500  211.4810  149.0780 C   0  0  0  0  0  2  0  0  0  0  0  0
  161.2680  211.0520  147.8400 C   0  0  0  0  0  2  0  0  0  0  0  0
  160.6580  213.1810  146.5900 C   0  0  2  0  0  0  0  0  0  0  0  0
  159.8300  214.4530  146.6300 C   0  0  0  0  0  1  0  0  0  0  0  0
  159.8940  212.0190  145.9930 C   0  0  0  0  0  2  0  0  0  0  0  0
  160.1670  212.0510  147.4910 C   0  0  1  0  0  3  0  0  0  0  0  0
  162.1370  213.2360  146.1700 C   0  0  1  0  0  3  0  0  0  0  0  0
  162.2980  213.1750  144.6830 C   0  0  0  0  0  0  0  0  0  0  0  0
  161.1410  213.0040  143.8680 N   0  0  0  0  0  0  0  0  0  0  0  0
  163.4360  213.2960  144.1540 O   0  0  0  0  0  0  0  0  0  0  0  0
  161.2370  212.9610  142.4700 N   0  0  0  0  0  0  0  0  0  0  0  0
  159.8080  211.8910  140.6870 C   0  0  0  0  0  0  0  0  0  0  0  0
  160.5790  210.9160  140.5000 O   0  0  0  0  0  0  0  0  0  0  0  0
  157.9900  213.6540  140.7390 C   0  0  0  0  0  2  0  0  0  0  0  0
  158.2960  212.1170  139.7800 S   0  0  0  0  0  0  0  0  0  0  0  0
  160.0690  212.9340  141.6460 C   0  0  0  0  0  0  0  0  0  0  0  0
  159.1320  213.8660  141.6830 C   0  0  0  0  0  3  0  0  0  0  0  0
  163.3430  214.1580  148.0170 O   0  0  0  0  0  1  0  0  0  0  0  0
  162.8520  214.4500  146.7460 C   0  0  0  0  0  2  0  0  0  0  0  0
  160.8470  213.1270  151.3050 O   0  0  0  0  0  0  0  0  0  0  0  0
  160.1680  213.8960  150.3230 C   0  0  0  0  0  2  0  0  0  0  0  0
  158.2990  214.3770  151.9180 C   0  0  0  0  0  3  0  0  0  0  0  0
  157.7740  213.6320  149.6730 C   0  0  0  0  0  3  0  0  0  0  0  0
  156.4090  213.7060  149.9690 C   0  0  0  0  0  3  0  0  0  0  0  0
  156.9340  214.4500  152.2120 C   0  0  0  0  0  3  0  0  0  0  0  0
  155.9890  214.1140  151.2380 C   0  0  0  0  0  3  0  0  0  0  0  0
  158.7200  213.9620  150.6490 C   0  0  0  0  0  0  0  0  0  0  0  0
  1  8  1  0  0  0  0
  2  7  1  0  0  0  0
  3  4  1  0  0  0  0
  5  2  2  0  0  0  0
  5  6  1  0  0  0  0
  6  3  2  0  0  0  0
  7  4  2  0  0  0  0
  8  7  1  0  0  0  0
  9  1  2  0  0  0  0
  9  2  1  0  0  0  0
 10 14  1  0  0  0  0
 11  3  1  6  0  0  0
 11 12  1  0  0  0  0
 11 10  1  0  0  0  0
 12 13  1  0  0  0  0
 13 14  1  0  0  0  0
 14 16  1  6  0  0  0
 15 12  2  0  0  0  0
 17 18  1  0  0  0  0
 17 16  1  0  0  0  0
 18 20  1  0  0  0  0
 19 20  1  0  0  0  0
 21  5  1  0  0  0  0
 22 21  1  0  0  0  0
 23 24  1  1  0  0  0
 23 26  1  0  0  0  0
 25 23  1  0  0  0  0
 25 26  1  0  0  0  0
 26 22  1  6  0  0  0
 27 23  1  0  0  0  0
 27 39  1  6  0  0  0
 28 27  1  0  0  0  0
 29 28  1  0  0  0  0
 30 28  2  0  0  0  0
 31 29  2  0  0  0  0
 32 36  1  0  0  0  0
 33 32  2  0  0  0  0
 34 37  1  0  0  0  0
 35 32  1  0  0  0  0
 35 34  1  0  0  0  0
 36 37  2  0  0  0  0
 36 31  1  0  0  0  0
 39 38  1  0  0  0  0
 40  6  1  0  0  0  0
 41 47  1  0  0  0  0
 41 40  1  0  0  0  0
 42 45  1  0  0  0  0
 43 44  2  0  0  0  0
 43 47  1  0  0  0  0
 44 46  1  0  0  0  0
 46 45  2  0  0  0  0
 47 42  2  0  0  0  0
M  END
>  <MODEL>
4

>  <REMARK>
 VINA RESULT:      -4.3      4.894      7.213
  Name = 
  16 active torsions:
  status: ('A' for Active; 'I' for Inactive)
    1  A    between atoms: N_2  and  N_19
    2  A    between atoms: N_2  and  C_42
    3  A    between atoms: C_6  and  C_20
    4  A    between atoms: S_8  and  O_30
    5  A    between atoms: S_8  and  C_33
    6  A    between atoms: C_15  and  O_25
    7  A    between atoms: C_15  and  C_39
    8  A    between atoms: C_18  and  C_37
    9  A    between atoms: C_22  and  C_31
   10  A    between atoms: C_23  and  C_37
   11  A    between atoms: C_24  and  O_25
   12  A    between atoms: C_27  and  C_37
   13  A    between atoms: O_30  and  C_35
   14  A    between atoms: C_31  and  C_40
   15  A    between atoms: C_35  and  C_45
   16  A    between atoms: C_36  and  C_40
                            x       y       z     vdW  Elec       q    Type
                         _______ _______ _______ _____ _____    ______ ____

>  <TORSDO>
F 16

$$$$
=
 OpenBabel11072414273D

 47 52  0  0  1  0  0  0  0  0999 V2000
  161.3760  213.2800  148.0980 C   0  0  0  0  0  3  0  0  0  0  0  0
  161.7310  211.1930  149.1640 C   0  0  0  0  0  0  0  0  0  0  0  0
  161.1190  210.3950  151.7600 C   0  0  0  0  0  0  0  0  0  0  0  0
  160.8310  211.7010  151.3320 C   0  0  0  0  0  3  0  0  0  0  0  0
  162.0580  209.8820  149.5440 C   0  0  0  0  0  0  0  0  0  0  0  0
  161.7420  209.4670  150.8750 C   0  0  0  0  0  0  0  0  0  0  0  0
  161.1470  212.0630  150.0310 C   0  0  0  0  0  0  0  0  0  0  0  0
  160.9270  213.2920  149.4500 O   0  0  0  0  0  0  0  0  0  0  0  0
  161.9360  211.8650  147.8510 C   0  0  0  0  0  3  0  0  0  0  0  0
  159.3780  210.5580  153.5580 C   0  0  0  0  0  2  0  0  0  0  0  0
  160.7760  210.0650  153.1880 C   0  0  2  0  0  3  0  0  0  0  0  0
  161.6380  210.7490  154.1780 C   0  0  0  0  0  0  0  0  0  0  0  0
  160.9140  211.4570  155.1090 O   0  0  0  0  0  0  0  0  0  0  0  0
  159.5210  211.3060  154.8940 C   0  0  1  0  0  3  0  0  0  0  0  0
  162.8950  210.6710  154.2020 O   0  0  0  0  0  0  0  0  0  0  0  0
  158.7290  212.9380  154.7870 S   0  0  0  0  0  0  0  0  0  0  0  0
  157.2100  212.3340  155.3160 O   0  0  0  0  0  0  0  0  0  0  0  0
  156.8900  213.1050  156.4350 C   0  0  0  0  0  2  0  0  0  0  0  0
  155.1950  211.4920  156.8880 O   0  0  0  0  0  1  0  0  0  0  0  0
  155.4480  212.8630  156.8340 C   0  0  0  0  0  2  0  0  0  0  0  0
  162.7070  208.9750  148.5380 C   0  0  0  0  0  2  0  0  0  0  0  0
  162.0700  207.5890  148.5380 C   0  0  0  0  0  2  0  0  0  0  0  0
  161.1170  206.2170  146.6200 C   0  0  2  0  0  0  0  0  0  0  0  0
  160.4400  206.2800  145.2620 C   0  0  0  0  0  1  0  0  0  0  0  0
  160.1200  206.2370  147.7580 C   0  0  0  0  0  2  0  0  0  0  0  0
  160.9730  207.4690  147.4820 C   0  0  1  0  0  3  0  0  0  0  0  0
  162.3040  205.2650  146.8480 C   0  0  1  0  0  3  0  0  0  0  0  0
  161.8720  203.9750  147.4740 C   0  0  0  0  0  0  0  0  0  0  0  0
  161.0320  203.0940  146.7340 N   0  0  0  0  0  2  0  0  0  0  0  0
  162.2640  203.6600  148.6300 O   0  0  0  0  0  0  0  0  0  0  0  0
  160.6170  201.8660  147.2680 N   0  0  0  0  0  2  0  0  0  0  0  0
  160.3860  200.3480  145.2650 C   0  0  0  0  0  0  0  0  0  0  0  0
  159.6950  201.1560  144.5950 O   0  0  0  0  0  0  0  0  0  0  0  0
  161.7380  198.4430  146.2450 C   0  0  0  0  0  2  0  0  0  0  0  0
  160.8360  198.7350  144.6700 S   0  0  0  0  0  0  0  0  0  0  0  0
  160.8770  200.6350  146.5900 C   0  0  0  0  0  0  0  0  0  0  0  0
  161.5810  199.6490  147.1190 C   0  0  0  0  0  3  0  0  0  0  0  0
  164.1990  204.2130  145.8380 O   0  0  0  0  0  1  0  0  0  0  0  0
  163.0910  205.0140  145.5690 C   0  0  0  0  0  2  0  0  0  0  0  0
  161.9860  208.1680  151.3560 O   0  0  0  0  0  0  0  0  0  0  0  0
  161.4000  207.5940  152.5160 C   0  0  0  0  0  2  0  0  0  0  0  0
  160.8240  205.6910  150.9950 C   0  0  0  0  0  3  0  0  0  0  0  0
  161.2020  205.2500  153.3460 C   0  0  0  0  0  3  0  0  0  0  0  0
  160.9610  203.8890  153.1290 C   0  0  0  0  0  3  0  0  0  0  0  0
  160.5840  204.3310  150.7780 C   0  0  0  0  0  3  0  0  0  0  0  0
  160.6510  203.4300  151.8460 C   0  0  0  0  0  3  0  0  0  0  0  0
  161.1280  206.1520  152.2810 C   0  0  0  0  0  0  0  0  0  0  0  0
  1  8  1  0  0  0  0
  2  5  2  0  0  0  0
  2  7  1  0  0  0  0
  4  3  1  0  0  0  0
  5  6  1  0  0  0  0
  6 40  1  0  0  0  0
  6  3  2  0  0  0  0
  7  4  2  0  0  0  0
  8  7  1  0  0  0  0
  9  1  2  0  0  0  0
  9  2  1  0  0  0  0
 10 14  1  0  0  0  0
 11  3  1  6  0  0  0
 11 10  1  0  0  0  0
 11 12  1  0  0  0  0
 12 15  2  0  0  0  0
 12 13  1  0  0  0  0
 14 16  1  6  0  0  0
 14 13  1  0  0  0  0
 16 17  1  0  0  0  0
 17 18  1  0  0  0  0
 18 20  1  0  0  0  0
 20 19  1  0  0  0  0
 21 22  1  0  0  0  0
 21  5  1  0  0  0  0
 23 24  1  6  0  0  0
 23 27  1  0  0  0  0
 23 26  1  0  0  0  0
 23 25  1  0  0  0  0
 26 25  1  0  0  0  0
 26 22  1  1  0  0  0
 27 39  1  6  0  0  0
 27 28  1  0  0  0  0
 28 30  2  0  0  0  0
 29 31  1  0  0  0  0
 29 28  1  0  0  0  0
 32 36  1  0  0  0  0
 33 32  2  0  0  0  0
 34 37  1  0  0  0  0
 35 32  1  0  0  0  0
 35 34  1  0  0  0  0
 36 37  2  0  0  0  0
 36 31  1  0  0  0  0
 39 38  1  0  0  0  0
 40 41  1  0  0  0  0
 42 47  1  0  0  0  0
 44 43  1  0  0  0  0
 45 42  2  0  0  0  0
 45 46  1  0  0  0  0
 46 44  2  0  0  0  0
 47 41  1  0  0  0  0
 47 43  2  0  0  0  0
M  END
>  <MODEL>
5

>  <REMARK>
 VINA RESULT:      -4.2      1.642      4.779
  Name = 
  16 active torsions:
  status: ('A' for Active; 'I' for Inactive)
    1  A    between atoms: N_2  and  N_19
    2  A    between atoms: N_2  and  C_42
    3  A    between atoms: C_6  and  C_20
    4  A    between atoms: S_8  and  O_30
    5  A    between atoms: S_8  and  C_33
    6  A    between atoms: C_15  and  O_25
    7  A    between atoms: C_15  and  C_39
    8  A    between atoms: C_18  and  C_37
    9  A    between atoms: C_22  and  C_31
   10  A    between atoms: C_23  and  C_37
   11  A    between atoms: C_24  and  O_25
   12  A    between atoms: C_27  and  C_37
   13  A    between atoms: O_30  and  C_35
   14  A    between atoms: C_31  and  C_40
   15  A    between atoms: C_35  and  C_45
   16  A    between atoms: C_36  and  C_40
                            x       y       z     vdW  Elec       q    Type
                         _______ _______ _______ _____ _____    ______ ____

>  <TORSDO>
F 16

$$$$
=
 OpenBabel11072414273D

 47 52  0  0  1  0  0  0  0  0999 V2000
  162.1660  207.5430  149.7800 C   0  0  0  0  0  3  0  0  0  0  0  0
  161.7490  209.8570  150.0830 C   0  0  0  0  0  0  0  0  0  0  0  0
  160.6160  211.1920  152.2470 C   0  0  0  0  0  0  0  0  0  0  0  0
  160.7600  209.7960  152.2710 C   0  0  0  0  0  3  0  0  0  0  0  0
  161.6110  211.2510  149.9980 C   0  0  0  0  0  0  0  0  0  0  0  0
  161.0340  211.9410  151.1080 C   0  0  0  0  0  0  0  0  0  0  0  0
  161.3310  209.1640  151.1760 C   0  0  0  0  0  0  0  0  0  0  0  0
  161.5530  207.8110  151.0380 O   0  0  0  0  0  0  0  0  0  0  0  0
  162.3220  208.9110  149.0860 C   0  0  0  0  0  3  0  0  0  0  0  0
  160.8060  211.6100  154.7140 C   0  0  0  0  0  2  0  0  0  0  0  0
  159.9690  211.8210  153.4520 C   0  0  2  0  0  3  0  0  0  0  0  0
  158.6700  211.2110  153.8140 C   0  0  0  0  0  0  0  0  0  0  0  0
  158.6290  210.7940  155.1240 O   0  0  0  0  0  0  0  0  0  0  0  0
  159.8390  211.1030  155.7960 C   0  0  1  0  0  3  0  0  0  0  0  0
  157.6890  211.1090  153.0310 O   0  0  0  0  0  0  0  0  0  0  0  0
  160.5080  209.6100  156.5860 S   0  0  0  0  0  0  0  0  0  0  0  0
  161.0820  208.9730  155.0970 O   0  0  0  0  0  0  0  0  0  0  0  0
  160.5060  207.7040  155.0070 C   0  0  0  0  0  2  0  0  0  0  0  0
  160.7990  205.8590  153.5270 O   0  0  0  0  0  1  0  0  0  0  0  0
  161.4830  206.7370  154.3670 C   0  0  0  0  0  2  0  0  0  0  0  0
  162.0880  211.9530  148.7580 C   0  0  0  0  0  2  0  0  0  0  0  0
  161.2590  211.5620  147.5380 C   0  0  0  0  0  2  0  0  0  0  0  0
  160.0180  213.1810  146.0190 C   0  0  2  0  0  0  0  0  0  0  0  0
  159.1880  214.4510  145.9680 C   0  0  0  0  0  1  0  0  0  0  0  0
  159.1660  211.9490  146.2320 C   0  0  0  0  0  2  0  0  0  0  0  0
  160.0400  212.4660  147.3670 C   0  0  1  0  0  3  0  0  0  0  0  0
  161.1750  212.9750  145.0250 C   0  0  1  0  0  3  0  0  0  0  0  0
  160.6980  212.9680  143.6070 C   0  0  0  0  0  0  0  0  0  0  0  0
  160.2020  211.7540  143.0490 N   0  0  0  0  0  2  0  0  0  0  0  0
  160.7110  214.0250  142.9200 O   0  0  0  0  0  0  0  0  0  0  0  0
  159.7250  211.7000  141.7320 N   0  0  0  0  0  2  0  0  0  0  0  0
  160.2650  212.0120  139.2870 C   0  0  0  0  0  0  0  0  0  0  0  0
  159.1450  212.4990  138.9900 O   0  0  0  0  0  0  0  0  0  0  0  0
  162.6200  211.0930  139.4360 C   0  0  0  0  0  2  0  0  0  0  0  0
  161.5560  211.7550  138.0920 S   0  0  0  0  0  0  0  0  0  0  0  0
  160.6200  211.6000  140.6210 C   0  0  0  0  0  0  0  0  0  0  0  0
  161.8450  211.1120  140.7170 C   0  0  0  0  0  3  0  0  0  0  0  0
  163.3570  213.4120  145.8990 O   0  0  0  0  0  1  0  0  0  0  0  0
  162.2880  213.9950  145.2220 C   0  0  0  0  0  2  0  0  0  0  0  0
  160.8820  213.3390  151.1540 O   0  0  0  0  0  0  0  0  0  0  0  0
  160.1890  214.1250  150.1970 C   0  0  0  0  0  2  0  0  0  0  0  0
  158.3830  214.3320  151.9180 C   0  0  0  0  0  3  0  0  0  0  0  0
  157.7750  214.2420  149.5750 C   0  0  0  0  0  3  0  0  0  0  0  0
  156.4240  214.3510  149.9210 C   0  0  0  0  0  3  0  0  0  0  0  0
  157.0320  214.4420  152.2630 C   0  0  0  0  0  3  0  0  0  0  0  0
  156.0530  214.4500  151.2650 C   0  0  0  0  0  3  0  0  0  0  0  0
  158.7540  214.2260  150.5730 C   0  0  0  0  0  0  0  0  0  0  0  0
  1  8  1  0  0  0  0
  2  7  1  0  0  0  0
  3  4  1  0  0  0  0
  5  2  2  0  0  0  0
  5  6  1  0  0  0  0
  6 40  1  0  0  0  0
  6  3  2  0  0  0  0
  7  4  2  0  0  0  0
  8  7  1  0  0  0  0
  9  1  2  0  0  0  0
  9  2  1  0  0  0  0
 10 14  1  0  0  0  0
 11  3  1  6  0  0  0
 11 12  1  0  0  0  0
 11 10  1  0  0  0  0
 12 13  1  0  0  0  0
 13 14  1  0  0  0  0
 14 16  1  6  0  0  0
 15 12  2  0  0  0  0
 17 16  1  0  0  0  0
 18 17  1  0  0  0  0
 19 20  1  0  0  0  0
 20 18  1  0  0  0  0
 21  5  1  0  0  0  0
 22 21  1  0  0  0  0
 23 24  1  6  0  0  0
 23 25  1  0  0  0  0
 23 26  1  0  0  0  0
 25 26  1  0  0  0  0
 26 22  1  6  0  0  0
 27 39  1  6  0  0  0
 27 23  1  0  0  0  0
 28 27  1  0  0  0  0
 29 28  1  0  0  0  0
 30 28  2  0  0  0  0
 31 29  1  0  0  0  0
 32 36  1  0  0  0  0
 33 32  2  0  0  0  0
 34 37  1  0  0  0  0
 35 32  1  0  0  0  0
 35 34  1  0  0  0  0
 36 37  2  0  0  0  0
 36 31  1  0  0  0  0
 39 38  1  0  0  0  0
 41 47  1  0  0  0  0
 41 40  1  0  0  0  0
 42 45  1  0  0  0  0
 43 44  2  0  0  0  0
 43 47  1  0  0  0  0
 44 46  1  0  0  0  0
 46 45  2  0  0  0  0
 47 42  2  0  0  0  0
M  END
>  <MODEL>
6

>  <REMARK>
 VINA RESULT:      -4.2      4.794      7.064
  Name = 
  16 active torsions:
  status: ('A' for Active; 'I' for Inactive)
    1  A    between atoms: N_2  and  N_19
    2  A    between atoms: N_2  and  C_42
    3  A    between atoms: C_6  and  C_20
    4  A    between atoms: S_8  and  O_30
    5  A    between atoms: S_8  and  C_33
    6  A    between atoms: C_15  and  O_25
    7  A    between atoms: C_15  and  C_39
    8  A    between atoms: C_18  and  C_37
    9  A    between atoms: C_22  and  C_31
   10  A    between atoms: C_23  and  C_37
   11  A    between atoms: C_24  and  O_25
   12  A    between atoms: C_27  and  C_37
   13  A    between atoms: O_30  and  C_35
   14  A    between atoms: C_31  and  C_40
   15  A    between atoms: C_35  and  C_45
   16  A    between atoms: C_36  and  C_40
                            x       y       z     vdW  Elec       q    Type
                         _______ _______ _______ _____ _____    ______ ____

>  <TORSDO>
F 16

$$$$
=
 OpenBabel11072414273D

 47 52  0  0  1  0  0  0  0  0999 V2000
  161.4120  204.3410  152.2340 C   0  0  0  0  0  3  0  0  0  0  0  0
  161.4340  206.7060  152.0790 C   0  0  0  0  0  0  0  0  0  0  0  0
  160.9870  208.6220  154.0500 C   0  0  0  0  0  0  0  0  0  0  0  0
  160.9120  207.2540  154.3590 C   0  0  0  0  0  3  0  0  0  0  0  0
  161.5030  208.0590  151.7110 C   0  0  0  0  0  0  0  0  0  0  0  0
  161.2780  209.0450  152.7200 C   0  0  0  0  0  0  0  0  0  0  0  0
  161.1420  206.3280  153.3530 C   0  0  0  0  0  0  0  0  0  0  0  0
  161.1160  204.9570  153.4840 O   0  0  0  0  0  0  0  0  0  0  0  0
  161.6380  205.4960  151.2370 C   0  0  0  0  0  3  0  0  0  0  0  0
  159.3080  210.1920  155.0550 C   0  0  0  0  0  2  0  0  0  0  0  0
  160.7040  209.5810  155.1750 C   0  0  2  0  0  3  0  0  0  0  0  0
  161.5840  210.7720  155.1730 C   0  0  0  0  0  0  0  0  0  0  0  0
  160.8760  211.9510  155.1830 O   0  0  0  0  0  0  0  0  0  0  0  0
  159.4800  211.7080  155.2360 C   0  0  1  0  0  3  0  0  0  0  0  0
  162.8420  210.7270  155.1960 O   0  0  0  0  0  0  0  0  0  0  0  0
  158.6440  212.6000  153.8910 S   0  0  0  0  0  0  0  0  0  0  0  0
  157.3470  213.0910  154.9050 O   0  0  0  0  0  0  0  0  0  0  0  0
  156.1970  212.6280  154.2610 C   0  0  0  0  0  2  0  0  0  0  0  0
  154.7290  214.4200  154.8220 O   0  0  0  0  0  1  0  0  0  0  0  0
  155.3800  213.8010  153.7560 C   0  0  0  0  0  2  0  0  0  0  0  0
  161.8230  208.4070  150.2850 C   0  0  0  0  0  2  0  0  0  0  0  0
  161.8290  207.1690  149.3930 C   0  0  0  0  0  2  0  0  0  0  0  0
  161.0190  206.2100  147.1810 C   0  0  2  0  0  0  0  0  0  0  0  0
  160.4840  206.5480  145.8000 C   0  0  0  0  0  1  0  0  0  0  0  0
  159.9150  206.0880  148.2080 C   0  0  0  0  0  2  0  0  0  0  0  0
  160.8400  207.2980  148.2360 C   0  0  1  0  0  3  0  0  0  0  0  0
  162.1380  205.1660  147.3410 C   0  0  1  0  0  3  0  0  0  0  0  0
  161.6040  203.8400  147.7850 C   0  0  0  0  0  0  0  0  0  0  0  0
  160.8400  203.0600  146.8700 N   0  0  0  0  0  2  0  0  0  0  0  0
  161.8460  203.4060  148.9440 O   0  0  0  0  0  0  0  0  0  0  0  0
  160.3350  201.8030  147.2320 N   0  0  0  0  0  2  0  0  0  0  0  0
  160.4530  200.2420  145.2530 C   0  0  0  0  0  0  0  0  0  0  0  0
  159.7180  200.9460  144.5160 O   0  0  0  0  0  0  0  0  0  0  0  0
  161.9570  198.5390  146.3730 C   0  0  0  0  0  2  0  0  0  0  0  0
  161.1490  198.6920  144.7300 S   0  0  0  0  0  0  0  0  0  0  0  0
  160.8010  200.6070  146.6030 C   0  0  0  0  0  0  0  0  0  0  0  0
  161.5820  199.7270  147.2050 C   0  0  0  0  0  3  0  0  0  0  0  0
  164.1990  204.4310  146.3770 O   0  0  0  0  0  1  0  0  0  0  0  0
  162.9730  205.0220  146.0760 C   0  0  0  0  0  2  0  0  0  0  0  0
  161.3600  210.4290  152.4790 O   0  0  0  0  0  0  0  0  0  0  0  0
  160.3580  211.2190  151.8560 C   0  0  0  0  0  2  0  0  0  0  0  0
  161.9430  211.2500  149.9190 C   0  0  0  0  0  3  0  0  0  0  0  0
  160.3820  213.0820  150.1960 C   0  0  0  0  0  3  0  0  0  0  0  0
  160.8900  213.6890  149.0420 C   0  0  0  0  0  3  0  0  0  0  0  0
  162.4500  211.8570  148.7650 C   0  0  0  0  0  3  0  0  0  0  0  0
  161.9240  213.0770  148.3270 C   0  0  0  0  0  3  0  0  0  0  0  0
  160.9130  211.8660  150.6380 C   0  0  0  0  0  0  0  0  0  0  0  0
  1  8  1  0  0  0  0
  2  7  1  0  0  0  0
  3  4  1  0  0  0  0
  5  2  2  0  0  0  0
  5  6  1  0  0  0  0
  6  3  2  0  0  0  0
  7  8  1  0  0  0  0
  7  4  2  0  0  0  0
  9  2  1  0  0  0  0
  9  1  2  0  0  0  0
 10 11  1  0  0  0  0
 10 14  1  0  0  0  0
 11  3  1  6  0  0  0
 12 11  1  0  0  0  0
 12 13  1  0  0  0  0
 12 15  2  0  0  0  0
 13 14  1  0  0  0  0
 14 16  1  6  0  0  0
 16 17  1  0  0  0  0
 18 17  1  0  0  0  0
 20 18  1  0  0  0  0
 20 19  1  0  0  0  0
 21  5  1  0  0  0  0
 22 21  1  0  0  0  0
 23 24  1  6  0  0  0
 23 27  1  0  0  0  0
 23 25  1  0  0  0  0
 23 26  1  0  0  0  0
 25 26  1  0  0  0  0
 26 22  1  1  0  0  0
 27 39  1  6  0  0  0
 27 28  1  0  0  0  0
 28 30  2  0  0  0  0
 29 31  1  0  0  0  0
 29 28  1  0  0  0  0
 32 36  1  0  0  0  0
 33 32  2  0  0  0  0
 34 37  1  0  0  0  0
 35 32  1  0  0  0  0
 35 34  1  0  0  0  0
 36 37  2  0  0  0  0
 36 31  1  0  0  0  0
 39 38  1  0  0  0  0
 40  6  1  0  0  0  0
 41 40  1  0  0  0  0
 42 47  1  0  0  0  0
 43 47  2  0  0  0  0
 44 43  1  0  0  0  0
 45 42  2  0  0  0  0
 46 45  1  0  0  0  0
 46 44  2  0  0  0  0
 47 41  1  0  0  0  0
M  END
>  <MODEL>
7

>  <REMARK>
 VINA RESULT:      -4.2      1.575      2.815
  Name = 
  16 active torsions:
  status: ('A' for Active; 'I' for Inactive)
    1  A    between atoms: N_2  and  N_19
    2  A    between atoms: N_2  and  C_42
    3  A    between atoms: C_6  and  C_20
    4  A    between atoms: S_8  and  O_30
    5  A    between atoms: S_8  and  C_33
    6  A    between atoms: C_15  and  O_25
    7  A    between atoms: C_15  and  C_39
    8  A    between atoms: C_18  and  C_37
    9  A    between atoms: C_22  and  C_31
   10  A    between atoms: C_23  and  C_37
   11  A    between atoms: C_24  and  O_25
   12  A    between atoms: C_27  and  C_37
   13  A    between atoms: O_30  and  C_35
   14  A    between atoms: C_31  and  C_40
   15  A    between atoms: C_35  and  C_45
   16  A    between atoms: C_36  and  C_40
                            x       y       z     vdW  Elec       q    Type
                         _______ _______ _______ _____ _____    ______ ____

>  <TORSDO>
F 16

$$$$
=
 OpenBabel11072414273D

 47 52  0  0  1  0  0  0  0  0999 V2000
  162.1540  212.0900  148.5590 C   0  0  0  0  0  3  0  0  0  0  0  0
  161.8320  210.1930  149.9440 C   0  0  0  0  0  0  0  0  0  0  0  0
  160.6580  210.0080  152.4620 C   0  0  0  0  0  0  0  0  0  0  0  0
  160.7590  211.2500  151.8160 C   0  0  0  0  0  3  0  0  0  0  0  0
  161.7740  208.9290  150.5520 C   0  0  0  0  0  0  0  0  0  0  0  0
  161.1680  208.8290  151.8430 C   0  0  0  0  0  0  0  0  0  0  0  0
  161.3480  211.3050  150.5610 C   0  0  0  0  0  0  0  0  0  0  0  0
  161.5200  212.4320  149.7890 O   0  0  0  0  0  0  0  0  0  0  0  0
  162.3900  210.5670  148.6150 C   0  0  0  0  0  3  0  0  0  0  0  0
  158.7410  210.8290  153.8560 C   0  0  0  0  0  2  0  0  0  0  0  0
  160.0320  210.0110  153.8310 C   0  0  2  0  0  3  0  0  0  0  0  0
  160.8620  210.6760  154.8610 C   0  0  0  0  0  0  0  0  0  0  0  0
  160.1810  211.6680  155.5270 O   0  0  0  0  0  0  0  0  0  0  0  0
  158.8400  211.7600  155.0750 C   0  0  1  0  0  3  0  0  0  0  0  0
  162.0490  210.3580  155.1330 O   0  0  0  0  0  0  0  0  0  0  0  0
  158.4650  213.4710  154.5920 S   0  0  0  0  0  0  0  0  0  0  0  0
  158.7880  213.1650  152.9320 O   0  0  0  0  0  0  0  0  0  0  0  0
  157.8670  213.9530  152.2380 C   0  0  0  0  0  2  0  0  0  0  0  0
  158.1240  213.2920  149.9630 O   0  0  0  0  0  1  0  0  0  0  0  0
  158.4180  214.3090  150.8710 C   0  0  0  0  0  2  0  0  0  0  0  0
  162.3330  207.7440  149.8180 C   0  0  0  0  0  2  0  0  0  0  0  0
  162.2410  207.9260  148.3060 C   0  0  0  0  0  2  0  0  0  0  0  0
  160.8530  206.4880  146.7320 C   0  0  2  0  0  0  0  0  0  0  0  0
  159.6570  206.4660  145.7960 C   0  0  0  0  0  1  0  0  0  0  0  0
  160.4680  206.1720  148.1610 C   0  0  0  0  0  2  0  0  0  0  0  0
  160.8450  207.5980  147.7800 C   0  0  1  0  0  3  0  0  0  0  0  0
  162.1880  205.8620  146.2930 C   0  0  1  0  0  3  0  0  0  0  0  0
  162.3070  204.4360  146.7320 C   0  0  0  0  0  0  0  0  0  0  0  0
  161.1200  203.6970  147.0110 N   0  0  0  0  0  2  0  0  0  0  0  0
  163.4370  203.8860  146.8310 O   0  0  0  0  0  0  0  0  0  0  0  0
  161.1770  202.3530  147.4050 N   0  0  0  0  0  2  0  0  0  0  0  0
  161.2980  199.9280  146.7170 C   0  0  0  0  0  0  0  0  0  0  0  0
  161.9050  199.5520  147.7520 O   0  0  0  0  0  0  0  0  0  0  0  0
  160.0970  200.2400  144.5090 C   0  0  0  0  0  2  0  0  0  0  0  0
  160.8580  198.8230  145.3970 S   0  0  0  0  0  0  0  0  0  0  0  0
  160.9060  201.2960  146.4830 C   0  0  0  0  0  0  0  0  0  0  0  0
  160.2820  201.4780  145.3320 C   0  0  0  0  0  3  0  0  0  0  0  0
  161.8570  204.9030  144.1280 O   0  0  0  0  0  1  0  0  0  0  0  0
  162.4170  205.9920  144.7930 C   0  0  0  0  0  2  0  0  0  0  0  0
  161.0180  207.6120  152.5320 O   0  0  0  0  0  0  0  0  0  0  0  0
  162.0440  206.6560  152.7530 C   0  0  0  0  0  2  0  0  0  0  0  0
  160.8730  204.4580  153.0060 C   0  0  0  0  0  3  0  0  0  0  0  0
  161.9620  204.9790  150.9070 C   0  0  0  0  0  3  0  0  0  0  0  0
  161.5580  203.7430  150.3900 C   0  0  0  0  0  3  0  0  0  0  0  0
  160.4690  203.2230  152.4900 C   0  0  0  0  0  3  0  0  0  0  0  0
  160.8120  202.8650  151.1820 C   0  0  0  0  0  3  0  0  0  0  0  0
  161.6250  205.3350  152.2160 C   0  0  0  0  0  0  0  0  0  0  0  0
  1  9  2  0  0  0  0
  1  8  1  0  0  0  0
  2  5  2  0  0  0  0
  2  7  1  0  0  0  0
  4  3  1  0  0  0  0
  5  6  1  0  0  0  0
  6  3  2  0  0  0  0
  6 40  1  0  0  0  0
  7  4  2  0  0  0  0
  8  7  1  0  0  0  0
  9  2  1  0  0  0  0
 10 14  1  0  0  0  0
 11  3  1  6  0  0  0
 11 10  1  0  0  0  0
 11 12  1  0  0  0  0
 12 15  2  0  0  0  0
 12 13  1  0  0  0  0
 14 16  1  6  0  0  0
 14 13  1  0  0  0  0
 17 16  1  0  0  0  0
 18 17  1  0  0  0  0
 19 20  1  0  0  0  0
 20 18  1  0  0  0  0
 21  5  1  0  0  0  0
 22 21  1  0  0  0  0
 23 24  1  6  0  0  0
 23 26  1  0  0  0  0
 23 25  1  0  0  0  0
 26 25  1  0  0  0  0
 26 22  1  1  0  0  0
 27 39  1  6  0  0  0
 27 23  1  0  0  0  0
 27 28  1  0  0  0  0
 28 30  2  0  0  0  0
 28 29  1  0  0  0  0
 29 31  1  0  0  0  0
 32 33  2  0  0  0  0
 34 37  1  0  0  0  0
 34 35  1  0  0  0  0
 35 32  1  0  0  0  0
 36 32  1  0  0  0  0
 36 31  1  0  0  0  0
 37 36  2  0  0  0  0
 38 39  1  0  0  0  0
 40 41  1  0  0  0  0
 43 47  1  0  0  0  0
 44 43  2  0  0  0  0
 44 46  1  0  0  0  0
 45 42  1  0  0  0  0
 46 45  2  0  0  0  0
 47 41  1  0  0  0  0
 47 42  2  0  0  0  0
M  END
>  <MODEL>
8

>  <REMARK>
 VINA RESULT:      -4.0      1.790      5.134
  Name = 
  16 active torsions:
  status: ('A' for Active; 'I' for Inactive)
    1  A    between atoms: N_2  and  N_19
    2  A    between atoms: N_2  and  C_42
    3  A    between atoms: C_6  and  C_20
    4  A    between atoms: S_8  and  O_30
    5  A    between atoms: S_8  and  C_33
    6  A    between atoms: C_15  and  O_25
    7  A    between atoms: C_15  and  C_39
    8  A    between atoms: C_18  and  C_37
    9  A    between atoms: C_22  and  C_31
   10  A    between atoms: C_23  and  C_37
   11  A    between atoms: C_24  and  O_25
   12  A    between atoms: C_27  and  C_37
   13  A    between atoms: O_30  and  C_35
   14  A    between atoms: C_31  and  C_40
   15  A    between atoms: C_35  and  C_45
   16  A    between atoms: C_36  and  C_40
                            x       y       z     vdW  Elec       q    Type
                         _______ _______ _______ _____ _____    ______ ____

>  <TORSDO>
F 16

$$$$
=
 OpenBabel11072414273D

 47 52  0  0  1  0  0  0  0  0999 V2000
  162.0090  212.2040  147.5720 C   0  0  0  0  0  3  0  0  0  0  0  0
  161.4970  211.6700  149.8240 C   0  0  0  0  0  0  0  0  0  0  0  0
  159.8390  212.9880  151.6320 C   0  0  0  0  0  0  0  0  0  0  0  0
  160.0130  213.4900  150.3320 C   0  0  0  0  0  3  0  0  0  0  0  0
  161.3740  211.1350  151.1160 C   0  0  0  0  0  0  0  0  0  0  0  0
  160.5210  211.8060  152.0460 C   0  0  0  0  0  0  0  0  0  0  0  0
  160.8450  212.8060  149.4570 C   0  0  0  0  0  0  0  0  0  0  0  0
  161.1200  213.1530  148.1530 O   0  0  0  0  0  0  0  0  0  0  0  0
  162.2990  211.1660  148.6760 C   0  0  0  0  0  3  0  0  0  0  0  0
  158.8900  213.1760  153.9470 C   0  0  0  0  0  2  0  0  0  0  0  0
  158.9450  213.7830  152.5450 C   0  0  2  0  0  3  0  0  0  0  0  0
  157.5230  213.7810  152.1310 C   0  0  0  0  0  0  0  0  0  0  0  0
  156.6810  213.3680  153.1370 O   0  0  0  0  0  0  0  0  0  0  0  0
  157.4030  213.0930  154.3270 C   0  0  1  0  0  3  0  0  0  0  0  0
  157.1110  214.1490  151.0000 O   0  0  0  0  0  0  0  0  0  0  0  0
  157.0010  211.4250  154.9240 S   0  0  0  0  0  0  0  0  0  0  0  0
  155.7690  212.0030  155.9740 O   0  0  0  0  0  0  0  0  0  0  0  0
  156.3260  213.1240  156.5930 C   0  0  0  0  0  2  0  0  0  0  0  0
  154.5030  214.1630  155.4640 O   0  0  0  0  0  1  0  0  0  0  0  0
  155.3310  214.2680  156.5810 C   0  0  0  0  0  2  0  0  0  0  0  0
  162.1270  209.8810  151.4570 C   0  0  0  0  0  2  0  0  0  0  0  0
  161.6390  208.6920  150.6350 C   0  0  0  0  0  2  0  0  0  0  0  0
  161.2480  206.1820  150.7550 C   0  0  2  0  0  0  0  0  0  0  0  0
  160.4080  205.0820  151.3810 C   0  0  0  0  0  1  0  0  0  0  0  0
  162.4490  206.5370  151.6030 C   0  0  0  0  0  2  0  0  0  0  0  0
  161.2740  207.5020  151.5200 C   0  0  1  0  0  3  0  0  0  0  0  0
  161.5330  206.1690  149.2430 C   0  0  1  0  0  3  0  0  0  0  0  0
  161.6170  204.7750  148.7030 C   0  0  0  0  0  0  0  0  0  0  0  0
  162.1350  204.5710  147.3910 N   0  0  0  0  0  2  0  0  0  0  0  0
  161.2560  203.7920  149.4050 O   0  0  0  0  0  0  0  0  0  0  0  0
  162.2520  203.2840  146.8480 N   0  0  0  0  0  2  0  0  0  0  0  0
  160.8520  201.3540  146.0220 C   0  0  0  0  0  0  0  0  0  0  0  0
  161.3650  200.5090  146.7970 O   0  0  0  0  0  0  0  0  0  0  0  0
  159.5590  202.7040  144.3120 C   0  0  0  0  0  2  0  0  0  0  0  0
  159.5870  200.9440  144.8420 S   0  0  0  0  0  0  0  0  0  0  0  0
  161.2400  202.7420  145.9960 C   0  0  0  0  0  0  0  0  0  0  0  0
  160.5790  203.4610  145.1050 C   0  0  0  0  0  3  0  0  0  0  0  0
  161.1680  207.7160  147.4570 O   0  0  0  0  0  1  0  0  0  0  0  0
  160.5230  206.9970  148.4610 C   0  0  0  0  0  2  0  0  0  0  0  0
  160.2880  211.3420  153.3530 O   0  0  0  0  0  0  0  0  0  0  0  0
  159.7740  210.0630  153.6960 C   0  0  0  0  0  2  0  0  0  0  0  0
  161.2230  210.3780  155.7130 C   0  0  0  0  0  3  0  0  0  0  0  0
  160.4870  208.1460  155.1250 C   0  0  0  0  0  3  0  0  0  0  0  0
  161.1720  207.6290  156.2300 C   0  0  0  0  0  3  0  0  0  0  0  0
  161.9080  209.8600  156.8170 C   0  0  0  0  0  3  0  0  0  0  0  0
  161.8830  208.4860  157.0750 C   0  0  0  0  0  3  0  0  0  0  0  0
  160.5170  209.5190  154.8630 C   0  0  0  0  0  0  0  0  0  0  0  0
  1  8  1  0  0  0  0
  1  9  2  0  0  0  0
  2  5  1  0  0  0  0
  3  6  1  0  0  0  0
  4  3  2  0  0  0  0
  5 21  1  0  0  0  0
  5  6  2  0  0  0  0
  6 40  1  0  0  0  0
  7  2  2  0  0  0  0
  7  4  1  0  0  0  0
  8  7  1  0  0  0  0
  9  2  1  0  0  0  0
 10 14  1  0  0  0  0
 11  3  1  6  0  0  0
 11 10  1  0  0  0  0
 12 11  1  0  0  0  0
 12 13  1  0  0  0  0
 13 14  1  0  0  0  0
 14 16  1  6  0  0  0
 15 12  2  0  0  0  0
 16 17  1  0  0  0  0
 17 18  1  0  0  0  0
 19 20  1  0  0  0  0
 20 18  1  0  0  0  0
 22 21  1  0  0  0  0
 23 24  1  1  0  0  0
 23 26  1  0  0  0  0
 23 25  1  0  0  0  0
 26 22  1  6  0  0  0
 26 25  1  0  0  0  0
 27 39  1  6  0  0  0
 27 23  1  0  0  0  0
 28 27  1  0  0  0  0
 28 30  2  0  0  0  0
 29 28  1  0  0  0  0
 31 29  1  0  0  0  0
 32 33  2  0  0  0  0
 34 35  1  0  0  0  0
 34 37  1  0  0  0  0
 35 32  1  0  0  0  0
 36 32  1  0  0  0  0
 36 31  1  0  0  0  0
 37 36  2  0  0  0  0
 38 39  1  0  0  0  0
 40 41  1  0  0  0  0
 41 47  1  0  0  0  0
 42 45  1  0  0  0  0
 43 44  2  0  0  0  0
 44 46  1  0  0  0  0
 45 46  2  0  0  0  0
 47 43  1  0  0  0  0
 47 42  2  0  0  0  0
M  END
>  <MODEL>
9

>  <REMARK>
 VINA RESULT:      -4.0      2.291      5.407
  Name = 
  16 active torsions:
  status: ('A' for Active; 'I' for Inactive)
    1  A    between atoms: N_2  and  N_19
    2  A    between atoms: N_2  and  C_42
    3  A    between atoms: C_6  and  C_20
    4  A    between atoms: S_8  and  O_30
    5  A    between atoms: S_8  and  C_33
    6  A    between atoms: C_15  and  O_25
    7  A    between atoms: C_15  and  C_39
    8  A    between atoms: C_18  and  C_37
    9  A    between atoms: C_22  and  C_31
   10  A    between atoms: C_23  and  C_37
   11  A    between atoms: C_24  and  O_25
   12  A    between atoms: C_27  and  C_37
   13  A    between atoms: O_30  and  C_35
   14  A    between atoms: C_31  and  C_40
   15  A    between atoms: C_35  and  C_45
   16  A    between atoms: C_36  and  C_40
                            x       y       z     vdW  Elec       q    Type
                         _______ _______ _______ _____ _____    ______ ____

>  <TORSDO>
F 16

$$$$
