=
 OpenBabel11072411093D

 46 51  0  0  1  0  0  0  0  0999 V2000
  159.4900  210.3830  154.8850 C   0  0  0  0  0  0  0  0  0  0  0  0
  156.3250  212.0460  152.7700 O   0  0  0  0  0  0  0  0  0  0  0  0
  158.9480  212.3970  153.1440 O   0  0  0  0  0  1  0  0  0  0  0  0
  156.6990  212.3140  153.9430 C   0  0  0  0  0  0  0  0  0  0  0  0
  160.8060  209.2680  150.8590 C   0  0  0  0  0  2  0  0  0  0  0  0
  161.8680  207.0200  153.7650 N   0  0  0  0  0  2  0  0  0  0  0  0
  157.7860  210.9160  156.4570 C   0  0  0  0  0  3  0  0  0  0  0  0
  159.4770  206.5670  154.4380 C   0  0  0  0  0  1  0  0  0  0  0  0
  158.5120  211.1930  155.1980 C   0  0  0  0  0  0  0  0  0  0  0  0
  160.8190  208.4620  155.5150 C   0  0  1  0  0  3  0  0  0  0  0  0
  155.7240  212.5400  154.9610 N   0  0  0  0  0  2  0  0  0  0  0  0
  160.8500  208.2100  149.9400 O   0  0  0  0  0  0  0  0  0  0  0  0
  160.4610  209.5700  154.5730 C   0  0  0  0  0  0  0  0  0  0  0  0
  162.4620  207.0670  151.3930 C   0  0  0  0  0  2  0  0  0  0  0  0
  160.6940  208.7190  152.2810 C   0  0  1  0  0  3  0  0  0  0  0  0
  161.3550  207.3210  152.4220 C   0  0  2  0  0  3  0  0  0  0  0  0
  158.1550  212.3520  154.2970 C   0  0  1  0  0  3  0  0  0  0  0  0
  156.7490  211.6020  156.9550 C   0  0  0  0  0  3  0  0  0  0  0  0
  156.1310  212.8240  156.3320 C   0  0  2  0  0  3  0  0  0  0  0  0
  162.1570  207.6930  150.0190 C   0  0  1  0  0  3  0  0  0  0  0  0
  161.1840  209.7560  153.2800 C   0  0  0  0  0  2  0  0  0  0  0  0
  160.8560  207.0890  154.8320 C   0  0  2  0  0  3  0  0  0  0  0  0
  162.5280  205.3750  145.3440 C   0  0  0  0  0  2  0  0  0  0  0  0
  163.1670  204.0120  145.5770 C   0  0  0  0  0  2  0  0  0  0  0  0
  161.6900  204.6480  147.6360 C   0  0  1  0  0  3  0  0  0  0  0  0
  161.5320  205.7010  148.7090 C   0  0  0  0  0  3  0  0  0  0  0  0
  163.5760  206.9570  148.0010 C   0  0  0  0  0  2  0  0  0  0  0  0
  162.8960  204.9370  146.7420 C   0  0  0  0  0  0  0  0  0  0  0  0
  164.0800  205.6800  147.3350 C   0  0  0  0  0  2  0  0  0  0  0  0
  162.4030  206.7090  148.9180 C   0  0  0  0  0  0  0  0  0  0  0  0
  159.4750  200.2170  143.4610 Cl  0  0  0  0  0  0  0  0  0  0  0  0
  161.4950  198.7150  146.7920 C   0  0  0  0  0  3  0  0  0  0  0  0
  161.5760  202.2290  147.6270 C   0  0  0  0  0  0  0  0  0  0  0  0
  160.7730  198.7840  145.5070 C   0  0  0  0  0  0  0  0  0  0  0  0
  161.8380  203.3170  148.2930 C   0  0  0  0  0  3  0  0  0  0  0  0
  161.3180  201.1400  146.9600 C   0  0  0  0  0  0  0  0  0  0  0  0
  160.3350  200.0980  144.9850 C   0  0  0  0  0  0  0  0  0  0  0  0
  160.5330  197.7270  144.8670 O   0  0  0  0  0  0  0  0  0  0  0  0
  161.7530  199.8310  147.4800 C   0  0  0  0  0  3  0  0  0  0  0  0
  160.5960  201.2120  145.6770 C   0  0  0  0  0  3  0  0  0  0  0  0
  154.9300  213.2920  157.1540 C   0  0  1  0  0  3  0  0  0  0  0  0
  154.3130  214.4520  156.5300 N   0  0  0  0  0  1  0  0  0  0  0  0
  153.8930  212.1870  157.2610 C   0  0  0  0  0  1  0  0  0  0  0  0
  162.1410  208.7740  156.2110 C   0  0  0  0  0  2  0  0  0  0  0  0
  163.4250  210.7890  156.1040 O   0  0  0  0  0  1  0  0  0  0  0  0
  162.2330  210.2450  156.5810 C   0  0  0  0  0  2  0  0  0  0  0  0
  1  9  2  0  0  0  0
  2  4  2  0  0  0  0
  4 17  1  0  0  0  0
  4 11  1  0  0  0  0
  6 22  1  0  0  0  0
  7 18  2  0  0  0  0
  9  7  1  0  0  0  0
 10 44  1  6  0  0  0
 11 19  1  0  0  0  0
 12 20  1  0  0  0  0
 12  5  1  0  0  0  0
 13  1  2  0  0  0  0
 13 10  1  0  0  0  0
 15  5  1  6  0  0  0
 15 16  1  0  0  0  0
 15 21  1  0  0  0  0
 16 14  1  6  0  0  0
 16  6  1  0  0  0  0
 17  3  1  6  0  0  0
 17  9  1  0  0  0  0
 19 18  1  0  0  0  0
 19 41  1  1  0  0  0
 20 30  1  6  0  0  0
 20 14  1  0  0  0  0
 21 13  1  0  0  0  0
 22  8  1  6  0  0  0
 22 10  1  0  0  0  0
 23 24  1  0  0  0  0
 23 28  1  0  0  0  0
 24 28  1  0  0  0  0
 25 35  1  1  0  0  0
 25 26  1  0  0  0  0
 26 30  2  0  0  0  0
 27 30  1  0  0  0  0
 28 29  1  0  0  0  0
 28 25  1  0  0  0  0
 29 27  1  0  0  0  0
 31 37  1  0  0  0  0
 32 39  2  0  0  0  0
 33 35  2  0  0  0  0
 34 32  1  0  0  0  0
 36 39  1  0  0  0  0
 36 33  2  0  0  0  0
 37 34  1  0  0  0  0
 37 40  2  0  0  0  0
 38 34  2  0  0  0  0
 40 36  1  0  0  0  0
 41 43  1  6  0  0  0
 42 41  1  0  0  0  0
 44 46  1  0  0  0  0
 45 46  1  0  0  0  0
M  END
>  <MODEL>
1

>  <REMARK>
 VINA RESULT:       3.7      0.000      0.000
  Name = 
  5 active torsions:
  status: ('A' for Active; 'I' for Inactive)
    1  A    between atoms: C_10  and  C_19
    2  A    between atoms: C_10  and  C_44
    3  A    between atoms: C_14  and  C_21
    4  A    between atoms: C_27  and  C_40
    5  A    between atoms: C_33  and  C_41
                            x       y       z     vdW  Elec       q    Type
                         _______ _______ _______ _____ _____    ______ ____

>  <TORSDO>
F 5

$$$$
=
 OpenBabel11072411093D

 46 51  0  0  1  0  0  0  0  0999 V2000
  160.5000  212.5920  150.5350 C   0  0  0  0  0  0  0  0  0  0  0  0
  156.5980  212.6950  151.9540 O   0  0  0  0  0  0  0  0  0  0  0  0
  158.5090  214.3530  151.0940 O   0  0  0  0  0  1  0  0  0  0  0  0
  157.6660  212.7220  152.6220 C   0  0  0  0  0  0  0  0  0  0  0  0
  158.5450  213.8600  146.8260 C   0  0  0  0  0  2  0  0  0  0  0  0
  161.7780  211.8400  146.5320 N   0  0  0  0  0  2  0  0  0  0  0  0
  160.4790  211.4790  152.6370 C   0  0  0  0  0  3  0  0  0  0  0  0
  160.8130  209.8930  147.8170 C   0  0  0  0  0  1  0  0  0  0  0  0
  159.9630  212.5230  151.7250 C   0  0  0  0  0  0  0  0  0  0  0  0
  162.1560  211.7240  148.9990 C   0  0  1  0  0  3  0  0  0  0  0  0
  157.7550  211.9880  153.8420 N   0  0  0  0  0  2  0  0  0  0  0  0
  158.0700  213.4030  145.5880 O   0  0  0  0  0  0  0  0  0  0  0  0
  161.0340  212.6530  149.3460 C   0  0  0  0  0  0  0  0  0  0  0  0
  160.3880  213.0060  144.8920 C   0  0  0  0  0  2  0  0  0  0  0  0
  159.6250  212.9150  147.3520 C   0  0  1  0  0  3  0  0  0  0  0  0
  160.3960  212.2120  146.2020 C   0  0  2  0  0  3  0  0  0  0  0  0
  158.8620  213.4780  152.1280 C   0  0  1  0  0  3  0  0  0  0  0  0
  160.0610  211.2230  153.8840 C   0  0  0  0  0  3  0  0  0  0  0  0
  158.9900  211.9800  154.6180 C   0  0  2  0  0  3  0  0  0  0  0  0
  159.0610  213.7510  144.6510 C   0  0  1  0  0  3  0  0  0  0  0  0
  160.5060  213.6400  148.3570 C   0  0  0  0  0  2  0  0  0  0  0  0
  161.9070  210.9510  147.6980 C   0  0  2  0  0  3  0  0  0  0  0  0
  156.2680  212.2530  140.4890 C   0  0  0  0  0  2  0  0  0  0  0  0
  156.9310  212.8730  139.2660 C   0  0  0  0  0  2  0  0  0  0  0  0
  158.7510  212.2980  141.0510 C   0  0  1  0  0  3  0  0  0  0  0  0
  159.1590  212.5970  142.4740 C   0  0  0  0  0  3  0  0  0  0  0  0
  157.3420  214.2830  142.8100 C   0  0  0  0  0  2  0  0  0  0  0  0
  157.5120  213.0950  140.6440 C   0  0  0  0  0  0  0  0  0  0  0  0
  157.2700  214.4460  141.2950 C   0  0  0  0  0  2  0  0  0  0  0  0
  158.5690  213.5260  143.2550 C   0  0  0  0  0  0  0  0  0  0  0  0
  161.4050  206.6660  139.2590 Cl  0  0  0  0  0  0  0  0  0  0  0  0
  162.7450  210.0370  137.1920 C   0  0  0  0  0  3  0  0  0  0  0  0
  160.5390  211.6650  139.5450 C   0  0  0  0  0  0  0  0  0  0  0  0
  162.5610  208.6350  137.6120 C   0  0  0  0  0  0  0  0  0  0  0  0
  159.8940  212.6210  140.1500 C   0  0  0  0  0  3  0  0  0  0  0  0
  161.1820  210.7080  138.9380 C   0  0  0  0  0  0  0  0  0  0  0  0
  161.6490  208.3220  138.7340 C   0  0  0  0  0  0  0  0  0  0  0  0
  163.1820  207.7170  137.0140 O   0  0  0  0  0  0  0  0  0  0  0  0
  162.0920  211.0190  137.8200 C   0  0  0  0  0  3  0  0  0  0  0  0
  160.9970  209.3080  139.3590 C   0  0  0  0  0  3  0  0  0  0  0  0
  158.7460  211.3600  155.9940 C   0  0  1  0  0  3  0  0  0  0  0  0
  157.5620  210.5160  155.9640 N   0  0  0  0  0  1  0  0  0  0  0  0
  159.9350  210.5140  156.4170 C   0  0  0  0  0  1  0  0  0  0  0  0
  163.4730  212.4920  148.9460 C   0  0  0  0  0  2  0  0  0  0  0  0
  163.4930  214.3000  147.3810 O   0  0  0  0  0  1  0  0  0  0  0  0
  163.7880  212.9460  147.5300 C   0  0  0  0  0  2  0  0  0  0  0  0
  1  9  2  0  0  0  0
  2  4  2  0  0  0  0
  4 11  1  0  0  0  0
  6 22  1  0  0  0  0
  7 18  2  0  0  0  0
  9 17  1  0  0  0  0
  9  7  1  0  0  0  0
 10 44  1  6  0  0  0
 10 13  1  0  0  0  0
 11 19  1  0  0  0  0
 12  5  1  0  0  0  0
 13  1  2  0  0  0  0
 15  5  1  6  0  0  0
 15 21  1  0  0  0  0
 16 14  1  6  0  0  0
 16  6  1  0  0  0  0
 16 15  1  0  0  0  0
 17  3  1  6  0  0  0
 17  4  1  0  0  0  0
 18 19  1  0  0  0  0
 19 41  1  1  0  0  0
 20 30  1  6  0  0  0
 20 14  1  0  0  0  0
 20 12  1  0  0  0  0
 21 13  1  0  0  0  0
 22  8  1  1  0  0  0
 22 10  1  0  0  0  0
 23 28  1  0  0  0  0
 24 23  1  0  0  0  0
 24 28  1  0  0  0  0
 25 35  1  6  0  0  0
 25 26  1  0  0  0  0
 26 30  2  0  0  0  0
 27 30  1  0  0  0  0
 28 25  1  0  0  0  0
 28 29  1  0  0  0  0
 29 27  1  0  0  0  0
 32 34  1  0  0  0  0
 32 39  2  0  0  0  0
 33 35  2  0  0  0  0
 34 37  1  0  0  0  0
 36 40  1  0  0  0  0
 36 33  2  0  0  0  0
 37 31  1  0  0  0  0
 37 40  2  0  0  0  0
 38 34  2  0  0  0  0
 39 36  1  0  0  0  0
 41 43  1  6  0  0  0
 42 41  1  0  0  0  0
 45 46  1  0  0  0  0
 46 44  1  0  0  0  0
M  END
>  <MODEL>
2

>  <REMARK>
 VINA RESULT:       4.7      6.928      8.891
  Name = 
  5 active torsions:
  status: ('A' for Active; 'I' for Inactive)
    1  A    between atoms: C_10  and  C_19
    2  A    between atoms: C_10  and  C_44
    3  A    between atoms: C_14  and  C_21
    4  A    between atoms: C_27  and  C_40
    5  A    between atoms: C_33  and  C_41
                            x       y       z     vdW  Elec       q    Type
                         _______ _______ _______ _____ _____    ______ ____

>  <TORSDO>
F 5

$$$$
=
 OpenBabel11072411093D

 46 51  0  0  1  0  0  0  0  0999 V2000
  161.7840  203.8020  147.6540 C   0  0  0  0  0  0  0  0  0  0  0  0
  160.5250  200.5810  149.9540 O   0  0  0  0  0  0  0  0  0  0  0  0
  162.6680  202.1410  149.6140 O   0  0  0  0  0  1  0  0  0  0  0  0
  161.0690  200.5550  148.8180 C   0  0  0  0  0  0  0  0  0  0  0  0
  161.6330  205.8490  151.5230 C   0  0  0  0  0  2  0  0  0  0  0  0
  161.0470  207.9430  148.3780 N   0  0  0  0  0  2  0  0  0  0  0  0
  161.0640  202.0990  146.1580 C   0  0  0  0  0  3  0  0  0  0  0  0
  159.0790  206.5310  147.6660 C   0  0  0  0  0  1  0  0  0  0  0  0
  161.6760  202.5160  147.4380 C   0  0  0  0  0  0  0  0  0  0  0  0
  161.4400  206.0410  146.8060 C   0  0  1  0  0  3  0  0  0  0  0  0
  160.6110  199.6270  147.8360 N   0  0  0  0  0  2  0  0  0  0  0  0
  160.8550  206.7050  152.3170 O   0  0  0  0  0  0  0  0  0  0  0  0
  161.8850  205.0840  147.8690 C   0  0  0  0  0  0  0  0  0  0  0  0
  161.3190  208.5240  150.7380 C   0  0  0  0  0  2  0  0  0  0  0  0
  161.2800  206.0410  150.0480 C   0  0  1  0  0  3  0  0  0  0  0  0
  160.7870  207.4820  149.7480 C   0  0  2  0  0  3  0  0  0  0  0  0
  162.1600  201.5200  148.4660 C   0  0  1  0  0  3  0  0  0  0  0  0
  160.8410  200.8440  145.7450 C   0  0  0  0  0  3  0  0  0  0  0  0
  161.2050  199.5980  146.5040 C   0  0  2  0  0  3  0  0  0  0  0  0
  161.4320  207.9810  152.1750 C   0  0  1  0  0  3  0  0  0  0  0  0
  162.4290  205.5680  149.1720 C   0  0  0  0  0  2  0  0  0  0  0  0
  160.4560  207.0960  147.3290 C   0  0  2  0  0  3  0  0  0  0  0  0
  158.6400  210.1210  156.0470 C   0  0  0  0  0  2  0  0  0  0  0  0
  159.0840  211.5740  156.1610 C   0  0  0  0  0  2  0  0  0  0  0  0
  159.2110  210.8120  153.6640 C   0  0  1  0  0  3  0  0  0  0  0  0
  159.8710  209.7970  152.7610 C   0  0  0  0  0  3  0  0  0  0  0  0
  161.2680  208.8340  154.5990 C   0  0  0  0  0  2  0  0  0  0  0  0
  159.6890  210.6710  155.1090 C   0  0  0  0  0  0  0  0  0  0  0  0
  161.0890  210.1420  155.3640 C   0  0  0  0  0  2  0  0  0  0  0  0
  160.8360  208.9420  153.1570 C   0  0  0  0  0  0  0  0  0  0  0  0
  162.7060  210.0610  148.2610 Cl  0  0  0  0  0  0  0  0  0  0  0  0
  161.3340  213.9330  149.0050 C   0  0  0  0  0  3  0  0  0  0  0  0
  160.1120  212.3230  151.9990 C   0  0  0  0  0  0  0  0  0  0  0  0
  161.9770  212.7790  148.3490 C   0  0  0  0  0  0  0  0  0  0  0  0
  159.5160  212.1780  153.1480 C   0  0  0  0  0  3  0  0  0  0  0  0
  160.7060  212.4690  150.8490 C   0  0  0  0  0  0  0  0  0  0  0  0
  161.9530  211.4560  149.0120 C   0  0  0  0  0  0  0  0  0  0  0  0
  162.5430  212.9280  147.2340 O   0  0  0  0  0  0  0  0  0  0  0  0
  160.7310  213.7870  150.1890 C   0  0  0  0  0  3  0  0  0  0  0  0
  161.3490  211.3130  150.1960 C   0  0  0  0  0  3  0  0  0  0  0  0
  160.7390  198.3560  145.7450 C   0  0  1  0  0  3  0  0  0  0  0  0
  159.6110  198.6820  144.8870 N   0  0  0  0  0  1  0  0  0  0  0  0
  161.8620  197.8030  144.8840 C   0  0  0  0  0  1  0  0  0  0  0  0
  162.6520  206.6910  146.1460 C   0  0  0  0  0  2  0  0  0  0  0  0
  161.9940  205.2380  144.3630 O   0  0  0  0  0  1  0  0  0  0  0  0
  163.0810  205.9220  144.9070 C   0  0  0  0  0  2  0  0  0  0  0  0
  1 13  2  0  0  0  0
  4  2  2  0  0  0  0
  5 12  1  0  0  0  0
  6 16  1  0  0  0  0
  7  9  1  0  0  0  0
  9  1  2  0  0  0  0
  9 17  1  0  0  0  0
 10 44  1  1  0  0  0
 10 22  1  0  0  0  0
 10 13  1  0  0  0  0
 11  4  1  0  0  0  0
 13 21  1  0  0  0  0
 14 20  1  0  0  0  0
 15 21  1  6  0  0  0
 15  5  1  0  0  0  0
 16 15  1  0  0  0  0
 16 14  1  1  0  0  0
 17  4  1  0  0  0  0
 17  3  1  1  0  0  0
 18  7  2  0  0  0  0
 18 19  1  0  0  0  0
 19 41  1  6  0  0  0
 19 11  1  0  0  0  0
 20 12  1  0  0  0  0
 20 30  1  1  0  0  0
 22  8  1  1  0  0  0
 22  6  1  0  0  0  0
 23 24  1  0  0  0  0
 25 35  1  6  0  0  0
 25 28  1  0  0  0  0
 26 30  2  0  0  0  0
 26 25  1  0  0  0  0
 27 29  1  0  0  0  0
 28 29  1  0  0  0  0
 28 23  1  0  0  0  0
 28 24  1  0  0  0  0
 30 27  1  0  0  0  0
 31 37  1  0  0  0  0
 32 39  2  0  0  0  0
 33 35  2  0  0  0  0
 34 32  1  0  0  0  0
 34 37  1  0  0  0  0
 36 33  2  0  0  0  0
 37 40  2  0  0  0  0
 38 34  2  0  0  0  0
 39 36  1  0  0  0  0
 40 36  1  0  0  0  0
 41 43  1  6  0  0  0
 42 41  1  0  0  0  0
 45 46  1  0  0  0  0
 46 44  1  0  0  0  0
M  END
>  <MODEL>
3

>  <REMARK>
 VINA RESULT:       6.2      3.937     11.703
  Name = 
  5 active torsions:
  status: ('A' for Active; 'I' for Inactive)
    1  A    between atoms: C_10  and  C_19
    2  A    between atoms: C_10  and  C_44
    3  A    between atoms: C_14  and  C_21
    4  A    between atoms: C_27  and  C_40
    5  A    between atoms: C_33  and  C_41
                            x       y       z     vdW  Elec       q    Type
                         _______ _______ _______ _____ _____    ______ ____

>  <TORSDO>
F 5

$$$$
