=
 OpenBabel11072414143D

 34 35  0  0  1  0  0  0  0  0999 V2000
  161.0370  207.9280  152.6660 C   0  0  0  0  0  0  0  0  0  0  0  0
  162.0290  207.1050  152.0330 N   0  0  0  0  0  2  0  0  0  0  0  0
  160.5800  208.9530  152.0260 N   0  0  0  0  0  2  0  0  0  0  0  0
  160.8800  203.7230  151.5920 C   0  0  0  0  0  3  0  0  0  0  0  0
  161.6170  204.7320  151.9640 C   0  0  0  0  0  0  0  0  0  0  0  0
  162.3580  205.7410  152.3360 C   0  0  0  0  0  3  0  0  0  0  0  0
  160.4200  203.6180  150.1810 C   0  0  0  0  0  2  0  0  0  0  0  0
  161.5920  203.7940  149.2260 C   0  0  0  0  0  2  0  0  0  0  0  0
  161.2710  204.8130  148.1360 C   0  0  2  0  0  3  0  0  0  0  0  0
  162.3680  205.7690  146.1340 N   0  0  0  0  0  2  0  0  0  0  0  0
  161.3750  204.4220  144.6320 C   0  0  0  0  0  2  0  0  0  0  0  0
  161.3860  203.7100  145.9070 C   0  0  0  0  0  0  0  0  0  0  0  0
  162.0960  204.5380  146.8680 C   0  0  2  0  0  3  0  0  0  0  0  0
  160.2810  201.7720  145.1200 O   0  0  0  0  0  1  0  0  0  0  0  0
  162.2300  205.5310  144.7880 O   0  0  0  0  0  0  0  0  0  0  0  0
  160.9070  202.4910  146.1320 C   0  0  0  0  0  3  0  0  0  0  0  0
  161.3590  206.2560  148.6480 C   0  0  0  0  0  2  0  0  0  0  0  0
  160.1500  206.6670  149.2150 O   0  0  0  0  0  1  0  0  0  0  0  0
  160.4860  207.6150  154.0340 C   0  0  1  0  0  3  0  0  0  0  0  0
  161.5410  207.4020  154.9450 O   0  0  0  0  0  0  0  0  0  0  0  0
  160.8150  208.5910  155.1250 C   0  0  1  0  0  3  0  0  0  0  0  0
  161.6990  209.7700  154.7360 C   0  0  0  0  0  2  0  0  0  0  0  0
  161.4350  210.9210  155.6400 C   0  0  0  0  0  0  0  0  0  0  0  0
  161.8430  210.8830  156.8320 O   0  0  0  0  0  0  0  0  0  0  0  0
  160.7170  212.0210  155.1640 O   0  0  0  0  0  0  0  0  0  0  0  0
  159.6220  212.5860  155.8780 C   0  0  0  0  0  2  0  0  0  0  0  0
  158.3370  212.4780  155.0630 C   0  0  1  0  0  3  0  0  0  0  0  0
  158.5510  212.7710  153.6100 C   0  0  0  0  0  0  0  0  0  0  0  0
  158.5190  211.7270  152.6410 N   0  0  0  0  0  1  0  0  0  0  0  0
  158.7380  213.9590  153.2380 O   0  0  0  0  0  0  0  0  0  0  0  0
  157.6140  211.1460  155.2920 C   0  0  0  0  0  2  0  0  0  0  0  0
  156.1300  211.2830  155.4610 C   0  0  0  0  0  0  0  0  0  0  0  0
  155.2420  210.1300  155.1450 C   0  0  0  0  0  1  0  0  0  0  0  0
  155.6430  212.3410  155.8230 O   0  0  0  0  0  0  0  0  0  0  0  0
  2  6  1  0  0  0  0
  2  1  1  0  0  0  0
  3  1  2  0  0  0  0
  4  5  2  0  0  0  0
  5  6  2  0  0  0  0
  7  4  1  0  0  0  0
  8  7  1  0  0  0  0
  9 17  1  1  0  0  0
  9  8  1  0  0  0  0
 10 13  1  0  0  0  0
 11 15  1  0  0  0  0
 11 12  1  0  0  0  0
 12 16  2  0  0  0  0
 12 13  1  0  0  0  0
 13  9  1  1  0  0  0
 14 16  1  0  0  0  0
 15 10  1  0  0  0  0
 17 18  1  0  0  0  0
 19  1  1  6  0  0  0
 19 20  1  0  0  0  0
 19 21  1  0  0  0  0
 20 21  1  0  0  0  0
 21 22  1  6  0  0  0
 22 23  1  0  0  0  0
 23 24  2  0  0  0  0
 25 23  1  0  0  0  0
 25 26  1  0  0  0  0
 27 31  1  6  0  0  0
 27 26  1  0  0  0  0
 28 27  1  0  0  0  0
 29 28  1  0  0  0  0
 30 28  2  0  0  0  0
 31 32  1  0  0  0  0
 32 34  2  0  0  0  0
 33 32  1  0  0  0  0
M  END
>  <MODEL>
1

>  <REMARK>
 VINA RESULT:      -6.6      0.000      0.000
  Name = 
  15 active torsions:
  status: ('A' for Active; 'I' for Inactive)
    1  A    between atoms: C_1  and  C_33
    2  A    between atoms: C_2  and  C_21
    3  A    between atoms: C_4  and  C_18
    4  A    between atoms: C_4  and  O_28
    5  A    between atoms: C_5  and  C_15
    6  A    between atoms: C_6  and  C_21
    7  A    between atoms: C_6  and  C_33
    8  A    between atoms: C_10  and  C_34
    9  A    between atoms: C_11  and  O_28
   10  A    between atoms: C_11  and  C_34
   11  A    between atoms: C_12  and  C_32
   12  A    between atoms: C_13  and  C_33
   13  A    between atoms: N_17  and  C_30
   14  A    between atoms: C_18  and  C_26
   15  A    between atoms: C_32  and  C_34
                            x       y       z     vdW  Elec       q    Type
                         _______ _______ _______ _____ _____    ______ ____

>  <TORSDO>
F 15

$$$$
=
 OpenBabel11072414143D

 34 35  0  0  1  0  0  0  0  0999 V2000
  160.2720  201.5650  149.9240 C   0  0  0  0  0  0  0  0  0  0  0  0
  160.4990  202.5740  150.9210 N   0  0  0  0  0  2  0  0  0  0  0  0
  159.0550  201.2600  149.6160 N   0  0  0  0  0  2  0  0  0  0  0  0
  161.6690  205.6860  152.2980 C   0  0  0  0  0  3  0  0  0  0  0  0
  161.6750  204.5250  151.7070 C   0  0  0  0  0  0  0  0  0  0  0  0
  161.6840  203.3600  151.1150 C   0  0  0  0  0  3  0  0  0  0  0  0
  160.9770  205.8510  153.6060 C   0  0  0  0  0  2  0  0  0  0  0  0
  161.6040  206.9870  154.4000 C   0  0  0  0  0  2  0  0  0  0  0  0
  160.5970  208.1040  154.6590 C   0  0  2  0  0  3  0  0  0  0  0  0
  160.5710  210.4470  155.4580 N   0  0  0  0  0  2  0  0  0  0  0  0
  160.6790  211.4090  153.4290 C   0  0  0  0  0  2  0  0  0  0  0  0
  161.2750  210.0810  153.3080 C   0  0  0  0  0  0  0  0  0  0  0  0
  161.2840  209.4790  154.6310 C   0  0  2  0  0  3  0  0  0  0  0  0
  161.7650  210.2380  150.9980 O   0  0  0  0  0  1  0  0  0  0  0  0
  160.5360  211.6570  154.8080 O   0  0  0  0  0  0  0  0  0  0  0  0
  161.7930  209.5490  152.2050 C   0  0  0  0  0  3  0  0  0  0  0  0
  159.7530  207.8440  155.9140 C   0  0  0  0  0  2  0  0  0  0  0  0
  160.3760  206.9250  156.7620 O   0  0  0  0  0  1  0  0  0  0  0  0
  161.4030  200.8790  149.2020 C   0  0  1  0  0  3  0  0  0  0  0  0
  160.9450  200.3410  147.9820 O   0  0  0  0  0  0  0  0  0  0  0  0
  161.7940  201.4550  147.8740 C   0  0  1  0  0  3  0  0  0  0  0  0
  160.9800  202.6480  147.3860 C   0  0  0  0  0  2  0  0  0  0  0  0
  161.2230  202.8680  145.9350 C   0  0  0  0  0  0  0  0  0  0  0  0
  160.5530  202.2200  145.0870 O   0  0  0  0  0  0  0  0  0  0  0  0
  162.2090  203.7720  145.5310 O   0  0  0  0  0  0  0  0  0  0  0  0
  162.6390  204.8500  146.3550 C   0  0  0  0  0  2  0  0  0  0  0  0
  161.6560  206.0150  146.2700 C   0  0  1  0  0  3  0  0  0  0  0  0
  160.8210  205.9730  145.0270 C   0  0  0  0  0  0  0  0  0  0  0  0
  161.4270  205.8610  143.7420 N   0  0  0  0  0  1  0  0  0  0  0  0
  159.5670  206.0120  145.1210 O   0  0  0  0  0  0  0  0  0  0  0  0
  160.8110  206.1550  147.5400 C   0  0  0  0  0  2  0  0  0  0  0  0
  161.3530  207.1490  148.5230 C   0  0  0  0  0  0  0  0  0  0  0  0
  162.6210  207.8710  148.2200 C   0  0  0  0  0  1  0  0  0  0  0  0
  160.7830  207.3460  149.5830 O   0  0  0  0  0  0  0  0  0  0  0  0
  1  2  1  0  0  0  0
  2  6  1  0  0  0  0
  3  1  2  0  0  0  0
  4  7  1  0  0  0  0
  5  4  2  0  0  0  0
  6  5  2  0  0  0  0
  7  8  1  0  0  0  0
  9  8  1  1  0  0  0
  9 17  1  0  0  0  0
 11 15  1  0  0  0  0
 12 11  1  0  0  0  0
 12 13  1  0  0  0  0
 13  9  1  6  0  0  0
 13 10  1  0  0  0  0
 14 16  1  0  0  0  0
 15 10  1  0  0  0  0
 16 12  2  0  0  0  0
 17 18  1  0  0  0  0
 19  1  1  1  0  0  0
 20 19  1  0  0  0  0
 21 22  1  1  0  0  0
 21 20  1  0  0  0  0
 21 19  1  0  0  0  0
 23 22  1  0  0  0  0
 24 23  2  0  0  0  0
 25 23  1  0  0  0  0
 25 26  1  0  0  0  0
 27 26  1  1  0  0  0
 27 31  1  0  0  0  0
 28 30  2  0  0  0  0
 28 27  1  0  0  0  0
 29 28  1  0  0  0  0
 31 32  1  0  0  0  0
 32 34  2  0  0  0  0
 33 32  1  0  0  0  0
M  END
>  <MODEL>
2

>  <REMARK>
 VINA RESULT:      -6.5      2.562      9.546
  Name = 
  15 active torsions:
  status: ('A' for Active; 'I' for Inactive)
    1  A    between atoms: C_1  and  C_33
    2  A    between atoms: C_2  and  C_21
    3  A    between atoms: C_4  and  C_18
    4  A    between atoms: C_4  and  O_28
    5  A    between atoms: C_5  and  C_15
    6  A    between atoms: C_6  and  C_21
    7  A    between atoms: C_6  and  C_33
    8  A    between atoms: C_10  and  C_34
    9  A    between atoms: C_11  and  O_28
   10  A    between atoms: C_11  and  C_34
   11  A    between atoms: C_12  and  C_32
   12  A    between atoms: C_13  and  C_33
   13  A    between atoms: N_17  and  C_30
   14  A    between atoms: C_18  and  C_26
   15  A    between atoms: C_32  and  C_34
                            x       y       z     vdW  Elec       q    Type
                         _______ _______ _______ _____ _____    ______ ____

>  <TORSDO>
F 15

$$$$
=
 OpenBabel11072414143D

 34 35  0  0  1  0  0  0  0  0999 V2000
  161.2010  206.2720  146.1300 C   0  0  0  0  0  0  0  0  0  0  0  0
  161.1840  206.8590  147.4410 N   0  0  0  0  0  2  0  0  0  0  0  0
  160.1400  206.3600  145.3970 N   0  0  0  0  0  2  0  0  0  0  0  0
  162.1490  209.0310  150.1440 C   0  0  0  0  0  3  0  0  0  0  0  0
  162.2290  208.1460  149.1900 C   0  0  0  0  0  0  0  0  0  0  0  0
  162.3110  207.2590  148.2350 C   0  0  0  0  0  3  0  0  0  0  0  0
  161.0770  208.9210  151.1710 C   0  0  0  0  0  2  0  0  0  0  0  0
  161.6820  208.7090  152.5500 C   0  0  0  0  0  2  0  0  0  0  0  0
  160.7570  209.2270  153.6480 C   0  0  2  0  0  3  0  0  0  0  0  0
  161.4650  210.8590  155.3680 N   0  0  0  0  0  2  0  0  0  0  0  0
  159.7290  212.2660  155.1130 C   0  0  0  0  0  2  0  0  0  0  0  0
  159.8940  211.5520  153.8500 C   0  0  0  0  0  0  0  0  0  0  0  0
  161.0620  210.6970  153.9750 C   0  0  2  0  0  3  0  0  0  0  0  0
  158.0850  212.5960  152.7370 O   0  0  0  0  0  1  0  0  0  0  0  0
  160.8820  211.9940  155.8770 O   0  0  0  0  0  0  0  0  0  0  0  0
  159.1590  211.7140  152.7530 C   0  0  0  0  0  3  0  0  0  0  0  0
  160.7300  208.2980  154.8690 C   0  0  0  0  0  2  0  0  0  0  0  0
  160.5290  206.9690  154.4910 O   0  0  0  0  0  1  0  0  0  0  0  0
  162.4230  205.5930  145.5680 C   0  0  1  0  0  3  0  0  0  0  0  0
  162.8850  204.6060  146.4620 O   0  0  0  0  0  0  0  0  0  0  0  0
  162.2980  204.1270  145.2790 C   0  0  1  0  0  3  0  0  0  0  0  0
  160.9610  203.4790  145.6210 C   0  0  0  0  0  2  0  0  0  0  0  0
  161.1800  202.3070  146.5100 C   0  0  0  0  0  0  0  0  0  0  0  0
  160.9560  201.1460  146.0730 O   0  0  0  0  0  0  0  0  0  0  0  0
  161.6070  202.5090  147.8240 O   0  0  0  0  0  0  0  0  0  0  0  0
  161.1290  203.5830  148.6260 C   0  0  0  0  0  2  0  0  0  0  0  0
  160.4290  203.0520  149.8740 C   0  0  1  0  0  3  0  0  0  0  0  0
  160.1760  201.5760  149.8060 C   0  0  0  0  0  0  0  0  0  0  0  0
  161.1600  200.6450  150.2480 N   0  0  0  0  0  1  0  0  0  0  0  0
  159.0710  201.1560  149.3760 O   0  0  0  0  0  0  0  0  0  0  0  0
  161.1480  203.4640  151.1620 C   0  0  0  0  0  2  0  0  0  0  0  0
  161.2970  204.9470  151.3260 C   0  0  0  0  0  0  0  0  0  0  0  0
  162.5110  205.4980  151.9910 C   0  0  0  0  0  1  0  0  0  0  0  0
  160.4170  205.7030  150.9490 O   0  0  0  0  0  0  0  0  0  0  0  0
  1  2  1  0  0  0  0
  2  6  1  0  0  0  0
  3  1  2  0  0  0  0
  4  7  1  0  0  0  0
  5  4  2  0  0  0  0
  6  5  2  0  0  0  0
  7  8  1  0  0  0  0
  9  8  1  6  0  0  0
  9 17  1  0  0  0  0
 10 15  1  0  0  0  0
 11 15  1  0  0  0  0
 12 13  1  0  0  0  0
 12 11  1  0  0  0  0
 13  9  1  1  0  0  0
 13 10  1  0  0  0  0
 14 16  1  0  0  0  0
 16 12  2  0  0  0  0
 18 17  1  0  0  0  0
 19  1  1  1  0  0  0
 19 20  1  0  0  0  0
 21 19  1  0  0  0  0
 21 22  1  1  0  0  0
 21 20  1  0  0  0  0
 22 23  1  0  0  0  0
 23 25  1  0  0  0  0
 24 23  2  0  0  0  0
 25 26  1  0  0  0  0
 27 26  1  6  0  0  0
 27 31  1  0  0  0  0
 28 27  1  0  0  0  0
 28 29  1  0  0  0  0
 30 28  2  0  0  0  0
 31 32  1  0  0  0  0
 32 33  1  0  0  0  0
 34 32  2  0  0  0  0
M  END
>  <MODEL>
3

>  <REMARK>
 VINA RESULT:      -6.5      2.172      9.902
  Name = 
  15 active torsions:
  status: ('A' for Active; 'I' for Inactive)
    1  A    between atoms: C_1  and  C_33
    2  A    between atoms: C_2  and  C_21
    3  A    between atoms: C_4  and  C_18
    4  A    between atoms: C_4  and  O_28
    5  A    between atoms: C_5  and  C_15
    6  A    between atoms: C_6  and  C_21
    7  A    between atoms: C_6  and  C_33
    8  A    between atoms: C_10  and  C_34
    9  A    between atoms: C_11  and  O_28
   10  A    between atoms: C_11  and  C_34
   11  A    between atoms: C_12  and  C_32
   12  A    between atoms: C_13  and  C_33
   13  A    between atoms: N_17  and  C_30
   14  A    between atoms: C_18  and  C_26
   15  A    between atoms: C_32  and  C_34
                            x       y       z     vdW  Elec       q    Type
                         _______ _______ _______ _____ _____    ______ ____

>  <TORSDO>
F 15

$$$$
=
 OpenBabel11072414143D

 34 35  0  0  1  0  0  0  0  0999 V2000
  161.6000  208.0020  151.4060 C   0  0  0  0  0  0  0  0  0  0  0  0
  161.1560  207.5740  150.1090 N   0  0  0  0  0  2  0  0  0  0  0  0
  161.3630  207.2440  152.4250 N   0  0  0  0  0  2  0  0  0  0  0  0
  162.1870  206.3370  146.8910 C   0  0  0  0  0  3  0  0  0  0  0  0
  161.9200  207.1650  147.8610 C   0  0  0  0  0  0  0  0  0  0  0  0
  161.6510  207.9980  148.8300 C   0  0  0  0  0  3  0  0  0  0  0  0
  161.1920  205.3000  146.5030 C   0  0  0  0  0  2  0  0  0  0  0  0
  161.8440  203.9260  146.4630 C   0  0  0  0  0  2  0  0  0  0  0  0
  160.9560  202.8710  147.1160 C   0  0  2  0  0  3  0  0  0  0  0  0
  161.4450  200.8760  148.4960 N   0  0  0  0  0  2  0  0  0  0  0  0
  160.5820  201.6740  150.4120 C   0  0  0  0  0  2  0  0  0  0  0  0
  160.9730  202.8250  149.6040 C   0  0  0  0  0  0  0  0  0  0  0  0
  161.6050  202.3220  148.3960 C   0  0  2  0  0  3  0  0  0  0  0  0
  160.2620  204.4680  151.1520 O   0  0  0  0  0  1  0  0  0  0  0  0
  161.1530  200.5420  149.7960 O   0  0  0  0  0  0  0  0  0  0  0  0
  160.8500  204.1040  149.9460 C   0  0  0  0  0  3  0  0  0  0  0  0
  160.5090  201.7920  146.1200 C   0  0  0  0  0  2  0  0  0  0  0  0
  160.3440  202.3230  144.8390 O   0  0  0  0  0  1  0  0  0  0  0  0
  162.3630  209.2850  151.6110 C   0  0  1  0  0  3  0  0  0  0  0  0
  161.8210  210.3070  150.8060 O   0  0  0  0  0  0  0  0  0  0  0  0
  161.5920  210.4360  152.1860 C   0  0  1  0  0  3  0  0  0  0  0  0
  160.1140  210.1910  152.4640 C   0  0  0  0  0  2  0  0  0  0  0  0
  159.4440  211.4740  152.8070 C   0  0  0  0  0  0  0  0  0  0  0  0
  158.3300  211.7530  152.2860 O   0  0  0  0  0  0  0  0  0  0  0  0
  160.0680  212.3630  153.6850 O   0  0  0  0  0  0  0  0  0  0  0  0
  159.6670  212.5020  155.0440 C   0  0  0  0  0  2  0  0  0  0  0  0
  158.9830  211.2290  155.5340 C   0  0  1  0  0  3  0  0  0  0  0  0
  159.8990  210.3590  156.3410 C   0  0  0  0  0  0  0  0  0  0  0  0
  159.8700  208.9410  156.2010 N   0  0  0  0  0  1  0  0  0  0  0  0
  160.7190  210.8890  157.1330 O   0  0  0  0  0  0  0  0  0  0  0  0
  157.6640  211.5190  156.2570 C   0  0  0  0  0  2  0  0  0  0  0  0
  156.4920  211.6870  155.3360 C   0  0  0  0  0  0  0  0  0  0  0  0
  155.6670  210.5020  154.9690 C   0  0  0  0  0  1  0  0  0  0  0  0
  156.2300  212.7790  154.8590 O   0  0  0  0  0  0  0  0  0  0  0  0
  1  3  2  0  0  0  0
  2  1  1  0  0  0  0
  4  5  2  0  0  0  0
  5  6  2  0  0  0  0
  6  2  1  0  0  0  0
  7  4  1  0  0  0  0
  8  7  1  0  0  0  0
  8  9  1  0  0  0  0
  9 17  1  6  0  0  0
 10 15  1  0  0  0  0
 12 16  2  0  0  0  0
 12 11  1  0  0  0  0
 13  9  1  6  0  0  0
 13 10  1  0  0  0  0
 13 12  1  0  0  0  0
 15 11  1  0  0  0  0
 16 14  1  0  0  0  0
 18 17  1  0  0  0  0
 19  1  1  6  0  0  0
 19 21  1  0  0  0  0
 20 19  1  0  0  0  0
 20 21  1  0  0  0  0
 21 22  1  6  0  0  0
 22 23  1  0  0  0  0
 23 25  1  0  0  0  0
 24 23  2  0  0  0  0
 25 26  1  0  0  0  0
 27 26  1  1  0  0  0
 27 31  1  0  0  0  0
 27 28  1  0  0  0  0
 28 30  2  0  0  0  0
 29 28  1  0  0  0  0
 32 31  1  0  0  0  0
 33 32  1  0  0  0  0
 34 32  2  0  0  0  0
M  END
>  <MODEL>
4

>  <REMARK>
 VINA RESULT:      -6.4      2.219      4.064
  Name = 
  15 active torsions:
  status: ('A' for Active; 'I' for Inactive)
    1  A    between atoms: C_1  and  C_33
    2  A    between atoms: C_2  and  C_21
    3  A    between atoms: C_4  and  C_18
    4  A    between atoms: C_4  and  O_28
    5  A    between atoms: C_5  and  C_15
    6  A    between atoms: C_6  and  C_21
    7  A    between atoms: C_6  and  C_33
    8  A    between atoms: C_10  and  C_34
    9  A    between atoms: C_11  and  O_28
   10  A    between atoms: C_11  and  C_34
   11  A    between atoms: C_12  and  C_32
   12  A    between atoms: C_13  and  C_33
   13  A    between atoms: N_17  and  C_30
   14  A    between atoms: C_18  and  C_26
   15  A    between atoms: C_32  and  C_34
                            x       y       z     vdW  Elec       q    Type
                         _______ _______ _______ _____ _____    ______ ____

>  <TORSDO>
F 15

$$$$
=
 OpenBabel11072414143D

 34 35  0  0  1  0  0  0  0  0999 V2000
  161.0680  207.9420  152.5760 C   0  0  0  0  0  0  0  0  0  0  0  0
  162.1400  207.2290  151.9400 N   0  0  0  0  0  2  0  0  0  0  0  0
  160.4940  208.9040  151.9330 N   0  0  0  0  0  2  0  0  0  0  0  0
  161.1240  203.7800  152.0970 C   0  0  0  0  0  3  0  0  0  0  0  0
  161.8700  204.8460  152.1730 C   0  0  0  0  0  0  0  0  0  0  0  0
  162.6210  205.9120  152.2490 C   0  0  0  0  0  3  0  0  0  0  0  0
  160.3110  203.5280  150.8760 C   0  0  0  0  0  2  0  0  0  0  0  0
  160.8150  204.3750  149.7170 C   0  0  0  0  0  2  0  0  0  0  0  0
  161.2380  203.5040  148.5370 C   0  0  2  0  0  3  0  0  0  0  0  0
  161.5980  203.4850  146.0890 N   0  0  0  0  0  2  0  0  0  0  0  0
  162.7740  205.3990  145.9890 C   0  0  0  0  0  2  0  0  0  0  0  0
  161.9320  205.4720  147.1810 C   0  0  0  0  0  0  0  0  0  0  0  0
  161.1090  204.2740  147.2130 C   0  0  2  0  0  3  0  0  0  0  0  0
  162.6780  207.6050  147.8820 O   0  0  0  0  0  1  0  0  0  0  0  0
  162.3100  204.2990  145.2410 O   0  0  0  0  0  0  0  0  0  0  0  0
  161.8680  206.4860  148.0370 C   0  0  0  0  0  3  0  0  0  0  0  0
  160.5390  202.1380  148.5450 C   0  0  0  0  0  2  0  0  0  0  0  0
  161.4680  201.0940  148.5570 O   0  0  0  0  0  1  0  0  0  0  0  0
  160.5660  207.5810  153.9510 C   0  0  1  0  0  3  0  0  0  0  0  0
  161.6470  207.4690  154.8490 O   0  0  0  0  0  0  0  0  0  0  0  0
  160.8150  208.5850  155.0370 C   0  0  1  0  0  3  0  0  0  0  0  0
  161.5790  209.8410  154.6370 C   0  0  0  0  0  2  0  0  0  0  0  0
  161.6660  210.7710  155.7950 C   0  0  0  0  0  0  0  0  0  0  0  0
  162.7730  210.9460  156.3710 O   0  0  0  0  0  0  0  0  0  0  0  0
  160.5140  211.4210  156.2440 O   0  0  0  0  0  0  0  0  0  0  0  0
  160.0680  212.6540  155.6900 C   0  0  0  0  0  2  0  0  0  0  0  0
  158.7620  212.4590  154.9260 C   0  0  1  0  0  3  0  0  0  0  0  0
  158.9180  212.6850  153.4530 C   0  0  0  0  0  0  0  0  0  0  0  0
  157.8660  213.2650  152.6870 N   0  0  0  0  0  1  0  0  0  0  0  0
  160.0010  212.3800  152.8900 O   0  0  0  0  0  0  0  0  0  0  0  0
  158.0980  211.1150  155.2450 C   0  0  0  0  0  2  0  0  0  0  0  0
  156.6930  211.2390  155.7570 C   0  0  0  0  0  0  0  0  0  0  0  0
  155.5680  210.6670  154.9670 C   0  0  0  0  0  1  0  0  0  0  0  0
  156.4630  211.8340  156.7960 O   0  0  0  0  0  0  0  0  0  0  0  0
  2  6  1  0  0  0  0
  2  1  1  0  0  0  0
  3  1  2  0  0  0  0
  4  5  2  0  0  0  0
  5  6  2  0  0  0  0
  7  4  1  0  0  0  0
  8  7  1  0  0  0  0
  9 17  1  6  0  0  0
  9  8  1  0  0  0  0
 10 13  1  0  0  0  0
 11 12  1  0  0  0  0
 12 13  1  0  0  0  0
 12 16  2  0  0  0  0
 13  9  1  1  0  0  0
 14 16  1  0  0  0  0
 15 11  1  0  0  0  0
 15 10  1  0  0  0  0
 17 18  1  0  0  0  0
 19  1  1  6  0  0  0
 19 20  1  0  0  0  0
 19 21  1  0  0  0  0
 20 21  1  0  0  0  0
 21 22  1  6  0  0  0
 22 23  1  0  0  0  0
 23 25  1  0  0  0  0
 23 24  2  0  0  0  0
 26 25  1  0  0  0  0
 27 31  1  6  0  0  0
 27 26  1  0  0  0  0
 28 27  1  0  0  0  0
 29 28  1  0  0  0  0
 30 28  2  0  0  0  0
 31 32  1  0  0  0  0
 32 34  2  0  0  0  0
 33 32  1  0  0  0  0
M  END
>  <MODEL>
5

>  <REMARK>
 VINA RESULT:      -6.3      1.288      2.134
  Name = 
  15 active torsions:
  status: ('A' for Active; 'I' for Inactive)
    1  A    between atoms: C_1  and  C_33
    2  A    between atoms: C_2  and  C_21
    3  A    between atoms: C_4  and  C_18
    4  A    between atoms: C_4  and  O_28
    5  A    between atoms: C_5  and  C_15
    6  A    between atoms: C_6  and  C_21
    7  A    between atoms: C_6  and  C_33
    8  A    between atoms: C_10  and  C_34
    9  A    between atoms: C_11  and  O_28
   10  A    between atoms: C_11  and  C_34
   11  A    between atoms: C_12  and  C_32
   12  A    between atoms: C_13  and  C_33
   13  A    between atoms: N_17  and  C_30
   14  A    between atoms: C_18  and  C_26
   15  A    between atoms: C_32  and  C_34
                            x       y       z     vdW  Elec       q    Type
                         _______ _______ _______ _____ _____    ______ ____

>  <TORSDO>
F 15

$$$$
=
 OpenBabel11072414143D

 34 35  0  0  1  0  0  0  0  0999 V2000
  161.4780  212.0060  148.0450 C   0  0  0  0  0  0  0  0  0  0  0  0
  161.8170  210.8410  148.8140 N   0  0  0  0  0  2  0  0  0  0  0  0
  160.8270  211.8520  146.9400 N   0  0  0  0  0  2  0  0  0  0  0  0
  161.8070  208.6230  151.6480 C   0  0  0  0  0  3  0  0  0  0  0  0
  161.9680  209.6990  150.9300 C   0  0  0  0  0  0  0  0  0  0  0  0
  162.1330  210.7770  150.2130 C   0  0  0  0  0  3  0  0  0  0  0  0
  162.3290  207.3170  151.1590 C   0  0  0  0  0  2  0  0  0  0  0  0
  161.1960  206.4660  150.6060 C   0  0  0  0  0  2  0  0  0  0  0  0
  161.6510  205.0310  150.3560 C   0  0  2  0  0  3  0  0  0  0  0  0
  160.4620  202.9730  149.6660 N   0  0  0  0  0  2  0  0  0  0  0  0
  161.3840  202.8210  147.6210 C   0  0  0  0  0  2  0  0  0  0  0  0
  161.4330  204.2270  148.0110 C   0  0  0  0  0  0  0  0  0  0  0  0
  160.7680  204.3510  149.2980 C   0  0  2  0  0  3  0  0  0  0  0  0
  162.5000  204.9950  146.0440 O   0  0  0  0  0  1  0  0  0  0  0  0
  160.5380  202.1800  148.5470 O   0  0  0  0  0  0  0  0  0  0  0  0
  161.9210  205.2280  147.2860 C   0  0  0  0  0  3  0  0  0  0  0  0
  161.8030  204.2360  151.6600 C   0  0  0  0  0  2  0  0  0  0  0  0
  160.9370  204.7110  152.6470 O   0  0  0  0  0  1  0  0  0  0  0  0
  161.8230  213.4000  148.5020 C   0  0  1  0  0  3  0  0  0  0  0  0
  160.9550  214.3360  147.9050 O   0  0  0  0  0  0  0  0  0  0  0  0
  160.7680  214.1270  149.2820 C   0  0  1  0  0  3  0  0  0  0  0  0
  159.4510  213.3890  149.4930 C   0  0  0  0  0  2  0  0  0  0  0  0
  158.9140  213.6890  150.8470 C   0  0  0  0  0  0  0  0  0  0  0  0
  157.9190  214.4530  150.9660 O   0  0  0  0  0  0  0  0  0  0  0  0
  159.5340  213.1390  151.9710 O   0  0  0  0  0  0  0  0  0  0  0  0
  159.3120  211.7940  152.3840 C   0  0  0  0  0  2  0  0  0  0  0  0
  159.3160  211.6930  153.9070 C   0  0  1  0  0  3  0  0  0  0  0  0
  157.9440  211.8240  154.4950 C   0  0  0  0  0  0  0  0  0  0  0  0
  157.1120  212.9330  154.1680 N   0  0  0  0  0  1  0  0  0  0  0  0
  157.5140  210.9310  155.2690 O   0  0  0  0  0  0  0  0  0  0  0  0
  160.0500  210.4430  154.4030 C   0  0  0  0  0  2  0  0  0  0  0  0
  161.3170  210.7390  155.1490 C   0  0  0  0  0  0  0  0  0  0  0  0
  161.2520  211.1450  156.5810 C   0  0  0  0  0  1  0  0  0  0  0  0
  162.3960  210.6840  154.5830 O   0  0  0  0  0  0  0  0  0  0  0  0
  1  2  1  0  0  0  0
  2  6  1  0  0  0  0
  3  1  2  0  0  0  0
  5  4  2  0  0  0  0
  6  5  2  0  0  0  0
  7  4  1  0  0  0  0
  8  7  1  0  0  0  0
  9  8  1  1  0  0  0
  9 17  1  0  0  0  0
 11 12  1  0  0  0  0
 11 15  1  0  0  0  0
 12 13  1  0  0  0  0
 13 10  1  0  0  0  0
 13  9  1  1  0  0  0
 14 16  1  0  0  0  0
 15 10  1  0  0  0  0
 16 12  2  0  0  0  0
 17 18  1  0  0  0  0
 19  1  1  6  0  0  0
 19 21  1  0  0  0  0
 20 19  1  0  0  0  0
 20 21  1  0  0  0  0
 21 22  1  6  0  0  0
 22 23  1  0  0  0  0
 23 24  2  0  0  0  0
 23 25  1  0  0  0  0
 25 26  1  0  0  0  0
 27 26  1  6  0  0  0
 27 31  1  0  0  0  0
 27 28  1  0  0  0  0
 28 30  2  0  0  0  0
 29 28  1  0  0  0  0
 31 32  1  0  0  0  0
 32 33  1  0  0  0  0
 34 32  2  0  0  0  0
M  END
>  <MODEL>
6

>  <REMARK>
 VINA RESULT:      -6.3      3.127      5.118
  Name = 
  15 active torsions:
  status: ('A' for Active; 'I' for Inactive)
    1  A    between atoms: C_1  and  C_33
    2  A    between atoms: C_2  and  C_21
    3  A    between atoms: C_4  and  C_18
    4  A    between atoms: C_4  and  O_28
    5  A    between atoms: C_5  and  C_15
    6  A    between atoms: C_6  and  C_21
    7  A    between atoms: C_6  and  C_33
    8  A    between atoms: C_10  and  C_34
    9  A    between atoms: C_11  and  O_28
   10  A    between atoms: C_11  and  C_34
   11  A    between atoms: C_12  and  C_32
   12  A    between atoms: C_13  and  C_33
   13  A    between atoms: N_17  and  C_30
   14  A    between atoms: C_18  and  C_26
   15  A    between atoms: C_32  and  C_34
                            x       y       z     vdW  Elec       q    Type
                         _______ _______ _______ _____ _____    ______ ____

>  <TORSDO>
F 15

$$$$
=
 OpenBabel11072414143D

 34 35  0  0  1  0  0  0  0  0999 V2000
  161.7210  208.6740  151.5710 C   0  0  0  0  0  0  0  0  0  0  0  0
  160.6730  208.3390  152.4940 N   0  0  0  0  0  2  0  0  0  0  0  0
  161.7910  209.8840  151.1230 N   0  0  0  0  0  2  0  0  0  0  0  0
  160.9710  207.5510  155.9930 C   0  0  0  0  0  3  0  0  0  0  0  0
  160.8080  207.4000  154.7090 C   0  0  0  0  0  0  0  0  0  0  0  0
  160.6410  207.2450  153.4230 C   0  0  0  0  0  3  0  0  0  0  0  0
  160.1980  208.5930  156.7240 C   0  0  0  0  0  2  0  0  0  0  0  0
  160.9070  209.9360  156.6430 C   0  0  0  0  0  2  0  0  0  0  0  0
  159.9430  211.0480  156.2390 C   0  0  2  0  0  3  0  0  0  0  0  0
  160.4630  211.6110  153.8850 N   0  0  0  0  0  2  0  0  0  0  0  0
  158.4480  212.4710  153.3780 C   0  0  0  0  0  2  0  0  0  0  0  0
  158.2500  211.5320  154.4790 C   0  0  0  0  0  0  0  0  0  0  0  0
  159.5330  210.9100  154.7640 C   0  0  2  0  0  3  0  0  0  0  0  0
  155.9170  211.8690  154.6780 O   0  0  0  0  0  1  0  0  0  0  0  0
  159.7550  212.2520  152.8980 O   0  0  0  0  0  0  0  0  0  0  0  0
  157.0930  211.2360  155.0630 C   0  0  0  0  0  3  0  0  0  0  0  0
  160.4680  212.4380  156.6220 C   0  0  0  0  0  2  0  0  0  0  0  0
  159.4570  213.2270  157.1750 O   0  0  0  0  0  1  0  0  0  0  0  0
  162.7610  207.6730  151.1370 C   0  0  1  0  0  3  0  0  0  0  0  0
  162.1420  206.4710  150.7380 O   0  0  0  0  0  0  0  0  0  0  0  0
  162.7090  207.2350  149.7040 C   0  0  1  0  0  3  0  0  0  0  0  0
  161.5870  207.8220  148.8550 C   0  0  0  0  0  2  0  0  0  0  0  0
  161.0850  206.7980  147.9000 C   0  0  0  0  0  0  0  0  0  0  0  0
  159.9440  206.2930  148.0730 O   0  0  0  0  0  0  0  0  0  0  0  0
  161.8950  206.3930  146.8360 O   0  0  0  0  0  0  0  0  0  0  0  0
  162.4470  205.0840  146.7530 C   0  0  0  0  0  2  0  0  0  0  0  0
  161.3440  204.0310  146.8240 C   0  0  1  0  0  3  0  0  0  0  0  0
  160.9390  203.5310  145.4710 C   0  0  0  0  0  0  0  0  0  0  0  0
  160.6260  202.1570  145.2640 N   0  0  0  0  0  1  0  0  0  0  0  0
  160.8520  204.3400  144.5110 O   0  0  0  0  0  0  0  0  0  0  0  0
  161.6890  202.8930  147.7900 C   0  0  0  0  0  2  0  0  0  0  0  0
  160.8340  202.8630  149.0220 C   0  0  0  0  0  0  0  0  0  0  0  0
  160.0150  201.6560  149.3230 C   0  0  0  0  0  1  0  0  0  0  0  0
  160.7780  203.8330  149.7600 O   0  0  0  0  0  0  0  0  0  0  0  0
  1  2  1  0  0  0  0
  2  6  1  0  0  0  0
  3  1  2  0  0  0  0
  4  7  1  0  0  0  0
  5  4  2  0  0  0  0
  6  5  2  0  0  0  0
  8  7  1  0  0  0  0
  9 17  1  6  0  0  0
  9  8  1  0  0  0  0
 10 13  1  0  0  0  0
 11 12  1  0  0  0  0
 12 13  1  0  0  0  0
 12 16  2  0  0  0  0
 13  9  1  1  0  0  0
 14 16  1  0  0  0  0
 15 11  1  0  0  0  0
 15 10  1  0  0  0  0
 17 18  1  0  0  0  0
 19  1  1  6  0  0  0
 20 19  1  0  0  0  0
 21 22  1  6  0  0  0
 21 20  1  0  0  0  0
 21 19  1  0  0  0  0
 23 24  2  0  0  0  0
 23 22  1  0  0  0  0
 25 23  1  0  0  0  0
 26 25  1  0  0  0  0
 27 26  1  6  0  0  0
 27 31  1  0  0  0  0
 28 27  1  0  0  0  0
 29 28  1  0  0  0  0
 30 28  2  0  0  0  0
 31 32  1  0  0  0  0
 32 33  1  0  0  0  0
 32 34  2  0  0  0  0
M  END
>  <MODEL>
7

>  <REMARK>
 VINA RESULT:      -6.2      1.972      9.771
  Name = 
  15 active torsions:
  status: ('A' for Active; 'I' for Inactive)
    1  A    between atoms: C_1  and  C_33
    2  A    between atoms: C_2  and  C_21
    3  A    between atoms: C_4  and  C_18
    4  A    between atoms: C_4  and  O_28
    5  A    between atoms: C_5  and  C_15
    6  A    between atoms: C_6  and  C_21
    7  A    between atoms: C_6  and  C_33
    8  A    between atoms: C_10  and  C_34
    9  A    between atoms: C_11  and  O_28
   10  A    between atoms: C_11  and  C_34
   11  A    between atoms: C_12  and  C_32
   12  A    between atoms: C_13  and  C_33
   13  A    between atoms: N_17  and  C_30
   14  A    between atoms: C_18  and  C_26
   15  A    between atoms: C_32  and  C_34
                            x       y       z     vdW  Elec       q    Type
                         _______ _______ _______ _____ _____    ______ ____

>  <TORSDO>
F 15

$$$$
=
 OpenBabel11072414143D

 34 35  0  0  1  0  0  0  0  0999 V2000
  161.4250  207.4860  151.7150 C   0  0  0  0  0  0  0  0  0  0  0  0
  160.6830  208.0780  152.7940 N   0  0  0  0  0  2  0  0  0  0  0  0
  161.1140  207.8030  150.5020 N   0  0  0  0  0  2  0  0  0  0  0  0
  160.1860  210.1030  155.7270 C   0  0  0  0  0  3  0  0  0  0  0  0
  160.6380  209.1650  154.9440 C   0  0  0  0  0  0  0  0  0  0  0  0
  161.0920  208.2220  154.1620 C   0  0  0  0  0  3  0  0  0  0  0  0
  158.7210  210.3510  155.8210 C   0  0  0  0  0  2  0  0  0  0  0  0
  158.4140  211.8210  155.5730 C   0  0  0  0  0  2  0  0  0  0  0  0
  157.5730  212.0070  154.3130 C   0  0  2  0  0  3  0  0  0  0  0  0
  157.0960  213.8600  152.7440 N   0  0  0  0  0  2  0  0  0  0  0  0
  158.4490  213.1510  151.0940 C   0  0  0  0  0  2  0  0  0  0  0  0
  158.9720  212.6060  152.3440 C   0  0  0  0  0  0  0  0  0  0  0  0
  158.1520  213.1210  153.4270 C   0  0  2  0  0  3  0  0  0  0  0  0
  160.7870  211.4430  151.3680 O   0  0  0  0  0  1  0  0  0  0  0  0
  157.4880  214.1170  151.4520 O   0  0  0  0  0  0  0  0  0  0  0  0
  160.0530  211.8430  152.4780 C   0  0  0  0  0  3  0  0  0  0  0  0
  156.0800  212.1610  154.6300 C   0  0  0  0  0  2  0  0  0  0  0  0
  155.5780  211.0250  155.2710 O   0  0  0  0  0  1  0  0  0  0  0  0
  162.5730  206.5400  151.9540 C   0  0  1  0  0  3  0  0  0  0  0  0
  162.3080  205.7270  153.0740 O   0  0  0  0  0  0  0  0  0  0  0  0
  162.2680  205.0760  151.8300 C   0  0  1  0  0  3  0  0  0  0  0  0
  160.8230  204.7090  151.5140 C   0  0  0  0  0  2  0  0  0  0  0  0
  160.7880  203.6070  150.5160 C   0  0  0  0  0  0  0  0  0  0  0  0
  160.9860  202.4200  150.8920 O   0  0  0  0  0  0  0  0  0  0  0  0
  160.5580  203.9030  149.1700 O   0  0  0  0  0  0  0  0  0  0  0  0
  161.6130  204.2270  148.2700 C   0  0  0  0  0  2  0  0  0  0  0  0
  161.0880  204.3200  146.8400 C   0  0  1  0  0  3  0  0  0  0  0  0
  161.3100  205.6720  146.2330 C   0  0  0  0  0  0  0  0  0  0  0  0
  160.3940  206.2040  145.2800 N   0  0  0  0  0  1  0  0  0  0  0  0
  162.3050  206.3550  146.5870 O   0  0  0  0  0  0  0  0  0  0  0  0
  161.6130  203.1860  145.9530 C   0  0  0  0  0  2  0  0  0  0  0  0
  160.7730  201.9440  145.9960 C   0  0  0  0  0  0  0  0  0  0  0  0
  159.8200  201.6590  144.8880 C   0  0  0  0  0  1  0  0  0  0  0  0
  160.8400  201.1840  146.9480 O   0  0  0  0  0  0  0  0  0  0  0  0
  1  2  1  0  0  0  0
  2  6  1  0  0  0  0
  3  1  2  0  0  0  0
  4  7  1  0  0  0  0
  5  4  2  0  0  0  0
  6  5  2  0  0  0  0
  8  7  1  0  0  0  0
  9 17  1  1  0  0  0
  9  8  1  0  0  0  0
 10 13  1  0  0  0  0
 11 15  1  0  0  0  0
 11 12  1  0  0  0  0
 12 16  2  0  0  0  0
 12 13  1  0  0  0  0
 13  9  1  6  0  0  0
 14 16  1  0  0  0  0
 15 10  1  0  0  0  0
 17 18  1  0  0  0  0
 19  1  1  6  0  0  0
 19 20  1  0  0  0  0
 21 22  1  6  0  0  0
 21 19  1  0  0  0  0
 21 20  1  0  0  0  0
 23 24  2  0  0  0  0
 23 22  1  0  0  0  0
 25 23  1  0  0  0  0
 26 25  1  0  0  0  0
 27 31  1  6  0  0  0
 27 26  1  0  0  0  0
 28 30  2  0  0  0  0
 28 27  1  0  0  0  0
 29 28  1  0  0  0  0
 31 32  1  0  0  0  0
 32 34  2  0  0  0  0
 33 32  1  0  0  0  0
M  END
>  <MODEL>
8

>  <REMARK>
 VINA RESULT:      -6.2      1.895      9.785
  Name = 
  15 active torsions:
  status: ('A' for Active; 'I' for Inactive)
    1  A    between atoms: C_1  and  C_33
    2  A    between atoms: C_2  and  C_21
    3  A    between atoms: C_4  and  C_18
    4  A    between atoms: C_4  and  O_28
    5  A    between atoms: C_5  and  C_15
    6  A    between atoms: C_6  and  C_21
    7  A    between atoms: C_6  and  C_33
    8  A    between atoms: C_10  and  C_34
    9  A    between atoms: C_11  and  O_28
   10  A    between atoms: C_11  and  C_34
   11  A    between atoms: C_12  and  C_32
   12  A    between atoms: C_13  and  C_33
   13  A    between atoms: N_17  and  C_30
   14  A    between atoms: C_18  and  C_26
   15  A    between atoms: C_32  and  C_34
                            x       y       z     vdW  Elec       q    Type
                         _______ _______ _______ _____ _____    ______ ____

>  <TORSDO>
F 15

$$$$
=
 OpenBabel11072414143D

 34 35  0  0  1  0  0  0  0  0999 V2000
  161.4800  207.8660  151.2900 C   0  0  0  0  0  0  0  0  0  0  0  0
  161.2220  207.5020  149.9250 N   0  0  0  0  0  2  0  0  0  0  0  0
  160.9770  207.1380  152.2320 N   0  0  0  0  0  2  0  0  0  0  0  0
  162.5060  206.2010  146.8250 C   0  0  0  0  0  3  0  0  0  0  0  0
  162.2440  207.0320  147.7940 C   0  0  0  0  0  0  0  0  0  0  0  0
  161.9810  207.8670  148.7630 C   0  0  0  0  0  3  0  0  0  0  0  0
  161.4130  205.3850  146.2290 C   0  0  0  0  0  2  0  0  0  0  0  0
  161.8760  203.9510  146.0160 C   0  0  0  0  0  2  0  0  0  0  0  0
  160.9180  202.9570  146.6660 C   0  0  2  0  0  3  0  0  0  0  0  0
  161.3640  200.8700  147.9200 N   0  0  0  0  0  2  0  0  0  0  0  0
  160.5120  201.5640  149.8810 C   0  0  0  0  0  2  0  0  0  0  0  0
  160.9280  202.7560  149.1470 C   0  0  0  0  0  0  0  0  0  0  0  0
  161.5530  202.3170  147.9110 C   0  0  2  0  0  3  0  0  0  0  0  0
  160.2460  204.3130  150.7930 O   0  0  0  0  0  1  0  0  0  0  0  0
  161.0620  200.4630  149.1970 O   0  0  0  0  0  0  0  0  0  0  0  0
  160.8290  204.0130  149.5670 C   0  0  0  0  0  3  0  0  0  0  0  0
  160.3520  201.9500  145.6550 C   0  0  0  0  0  2  0  0  0  0  0  0
  159.8640  202.5960  144.5170 O   0  0  0  0  0  1  0  0  0  0  0  0
  162.3460  209.0430  151.6590 C   0  0  1  0  0  3  0  0  0  0  0  0
  161.9120  210.1980  150.9770 O   0  0  0  0  0  0  0  0  0  0  0  0
  161.6640  210.1800  152.3600 C   0  0  1  0  0  3  0  0  0  0  0  0
  160.1630  210.0340  152.5870 C   0  0  0  0  0  2  0  0  0  0  0  0
  159.7350  210.9080  153.7120 C   0  0  0  0  0  0  0  0  0  0  0  0
  159.5010  210.3990  154.8410 O   0  0  0  0  0  0  0  0  0  0  0  0
  159.5740  212.2790  153.4970 O   0  0  0  0  0  0  0  0  0  0  0  0
  158.7090  213.0800  154.2950 C   0  0  0  0  0  2  0  0  0  0  0  0
  157.3150  213.1430  153.6770 C   0  0  1  0  0  3  0  0  0  0  0  0
  156.2300  212.9010  154.6830 C   0  0  0  0  0  0  0  0  0  0  0  0
  156.1960  211.6990  155.4460 N   0  0  0  0  0  1  0  0  0  0  0  0
  155.3520  213.7820  154.8710 O   0  0  0  0  0  0  0  0  0  0  0  0
  157.0920  214.4270  152.8730 C   0  0  0  0  0  2  0  0  0  0  0  0
  156.6340  214.1900  151.4650 C   0  0  0  0  0  0  0  0  0  0  0  0
  157.6370  214.1060  150.3670 C   0  0  0  0  0  1  0  0  0  0  0  0
  155.4450  214.0990  151.2080 O   0  0  0  0  0  0  0  0  0  0  0  0
  1  3  2  0  0  0  0
  2  1  1  0  0  0  0
  4  5  2  0  0  0  0
  5  6  2  0  0  0  0
  6  2  1  0  0  0  0
  7  4  1  0  0  0  0
  8  7  1  0  0  0  0
  8  9  1  0  0  0  0
  9 17  1  6  0  0  0
 10 15  1  0  0  0  0
 12 16  2  0  0  0  0
 12 11  1  0  0  0  0
 13  9  1  6  0  0  0
 13 10  1  0  0  0  0
 13 12  1  0  0  0  0
 15 11  1  0  0  0  0
 16 14  1  0  0  0  0
 18 17  1  0  0  0  0
 19  1  1  6  0  0  0
 19 21  1  0  0  0  0
 20 19  1  0  0  0  0
 20 21  1  0  0  0  0
 21 22  1  6  0  0  0
 22 23  1  0  0  0  0
 23 24  2  0  0  0  0
 25 23  1  0  0  0  0
 25 26  1  0  0  0  0
 27 31  1  1  0  0  0
 27 26  1  0  0  0  0
 27 28  1  0  0  0  0
 28 30  2  0  0  0  0
 28 29  1  0  0  0  0
 32 31  1  0  0  0  0
 33 32  1  0  0  0  0
 34 32  2  0  0  0  0
M  END
>  <MODEL>
9

>  <REMARK>
 VINA RESULT:      -6.1      2.413      4.174
  Name = 
  15 active torsions:
  status: ('A' for Active; 'I' for Inactive)
    1  A    between atoms: C_1  and  C_33
    2  A    between atoms: C_2  and  C_21
    3  A    between atoms: C_4  and  C_18
    4  A    between atoms: C_4  and  O_28
    5  A    between atoms: C_5  and  C_15
    6  A    between atoms: C_6  and  C_21
    7  A    between atoms: C_6  and  C_33
    8  A    between atoms: C_10  and  C_34
    9  A    between atoms: C_11  and  O_28
   10  A    between atoms: C_11  and  C_34
   11  A    between atoms: C_12  and  C_32
   12  A    between atoms: C_13  and  C_33
   13  A    between atoms: N_17  and  C_30
   14  A    between atoms: C_18  and  C_26
   15  A    between atoms: C_32  and  C_34
                            x       y       z     vdW  Elec       q    Type
                         _______ _______ _______ _____ _____    ______ ____

>  <TORSDO>
F 15

$$$$
