=
 OpenBabel11072411303D

 35 39  0  0  1  0  0  0  0  0999 V2000
  160.4380  209.4610  154.7020 C   0  0  0  0  0  0  0  0  0  0  0  0
  161.8880  207.9010  151.0070 C   0  0  0  0  0  0  0  0  0  0  0  0
  161.2240  209.8850  152.3260 C   0  0  0  0  0  3  0  0  0  0  0  0
  161.5720  207.1190  152.1240 C   0  0  0  0  0  0  0  0  0  0  0  0
  160.9280  209.0590  153.4310 C   0  0  0  0  0  0  0  0  0  0  0  0
  160.8910  206.7760  154.1780 C   0  0  0  0  0  0  0  0  0  0  0  0
  160.2030  208.4430  155.6800 C   0  0  0  0  0  3  0  0  0  0  0  0
  160.4290  207.1140  155.4080 N   0  0  0  0  0  0  0  0  0  0  0  0
  161.1980  205.4780  153.6700 N   0  0  0  0  0  0  0  0  0  0  0  0
  161.1230  207.7100  153.2470 C   0  0  0  0  0  0  0  0  0  0  0  0
  161.6080  205.6750  152.4390 C   0  0  0  0  0  3  0  0  0  0  0  0
  161.7050  209.3050  151.1190 C   0  0  0  0  0  3  0  0  0  0  0  0
  160.2130  210.8890  155.0450 C   0  0  0  0  0  0  0  0  0  0  0  0
  161.1330  211.5300  155.6220 O   0  0  0  0  0  0  0  0  0  0  0  0
  157.6670  213.1220  153.3900 N   0  0  0  0  0  0  0  0  0  0  0  0
  156.5370  212.8500  154.0960 C   0  0  0  0  0  0  0  0  0  0  0  0
  158.8540  212.5180  153.6730 C   0  0  0  0  0  0  0  0  0  0  0  0
  159.9460  212.8450  152.9380 F   0  0  0  0  0  0  0  0  0  0  0  0
  155.2640  213.5330  153.7510 C   0  0  0  0  0  1  0  0  0  0  0  0
  156.5720  211.9310  155.1430 C   0  0  0  0  0  3  0  0  0  0  0  0
  158.9410  211.5870  154.7270 C   0  0  0  0  0  0  0  0  0  0  0  0
  157.7760  211.2990  155.4520 C   0  0  0  0  0  3  0  0  0  0  0  0
  162.4110  207.3010  149.7440 C   0  0  0  0  0  2  0  0  0  0  0  0
  161.5600  207.6900  148.5400 C   0  0  0  0  0  2  0  0  0  0  0  0
  161.8690  206.8250  147.3240 C   0  0  0  0  0  2  0  0  0  0  0  0
  160.9820  205.6660  147.2770 N   0  0  0  0  0  2  0  0  0  0  0  0
  161.7380  204.4300  147.0420 C   0  0  1  0  0  3  0  0  0  0  0  0
  163.0800  204.6740  146.7860 F   0  0  0  0  0  0  0  0  0  0  0  0
  160.8230  200.8540  149.7810 C   0  0  0  0  0  2  0  0  0  0  0  0
  161.3440  200.8950  148.3470 C   0  0  0  0  0  2  0  0  0  0  0  0
  160.8540  202.1390  147.6100 C   0  0  0  0  0  2  0  0  0  0  0  0
  161.5470  203.3900  148.1480 C   0  0  2  0  0  3  0  0  0  0  0  0
  160.8680  203.9830  149.3930 C   0  0  0  0  0  2  0  0  0  0  0  0
  160.4170  202.9390  150.4160 C   0  0  0  0  0  2  0  0  0  0  0  0
  161.3580  201.9100  150.5280 O   0  0  0  0  0  0  0  0  0  0  0  0
  1 13  1  0  0  0  0
  1  7  2  0  0  0  0
  2 12  2  0  0  0  0
  2  4  1  0  0  0  0
  3  5  2  0  0  0  0
  4 11  1  0  0  0  0
  4 10  2  0  0  0  0
  5  1  1  0  0  0  0
  6  8  2  0  0  0  0
  8  7  1  0  0  0  0
  9  6  1  0  0  0  0
 10  5  1  0  0  0  0
 10  6  1  0  0  0  0
 11  9  2  0  0  0  0
 12  3  1  0  0  0  0
 13 14  2  0  0  0  0
 15 17  2  0  0  0  0
 15 16  1  0  0  0  0
 16 20  2  0  0  0  0
 17 21  1  0  0  0  0
 18 17  1  0  0  0  0
 19 16  1  0  0  0  0
 20 22  1  0  0  0  0
 21 13  1  0  0  0  0
 21 22  2  0  0  0  0
 23  2  1  0  0  0  0
 24 23  1  0  0  0  0
 25 24  1  0  0  0  0
 26 25  1  0  0  0  0
 27 28  1  1  0  0  0
 27 26  1  0  0  0  0
 29 35  1  0  0  0  0
 30 29  1  0  0  0  0
 31 32  1  0  0  0  0
 31 30  1  0  0  0  0
 32 27  1  6  0  0  0
 32 33  1  0  0  0  0
 33 34  1  0  0  0  0
 34 35  1  0  0  0  0
M  END
>  <MODEL>
1

>  <REMARK>
 VINA RESULT:      -9.5      0.000      0.000
  Name = 
  8 active torsions:
  status: ('A' for Active; 'I' for Inactive)
    1  A    between atoms: C_2  and  C_3
    2  A    between atoms: C_3  and  C_28
    3  A    between atoms: C_4  and  C_10
    4  A    between atoms: N_9  and  C_19
    5  A    between atoms: N_9  and  C_34
    6  A    between atoms: C_10  and  C_33
    7  A    between atoms: C_19  and  C_25
    8  A    between atoms: C_33  and  C_34
                            x       y       z     vdW  Elec       q    Type
                         _______ _______ _______ _____ _____    ______ ____

>  <TORSDO>
F 8

$$$$
=
 OpenBabel11072411303D

 35 39  0  0  1  0  0  0  0  0999 V2000
  161.4390  209.8100  152.8970 C   0  0  0  0  0  0  0  0  0  0  0  0
  161.4590  205.6050  152.1880 C   0  0  0  0  0  0  0  0  0  0  0  0
  161.1720  207.4540  153.8040 C   0  0  0  0  0  3  0  0  0  0  0  0
  161.7050  206.5720  151.2060 C   0  0  0  0  0  0  0  0  0  0  0  0
  161.4150  208.3950  152.7800 C   0  0  0  0  0  0  0  0  0  0  0  0
  161.9300  208.6130  150.4440 C   0  0  0  0  0  0  0  0  0  0  0  0
  161.7120  210.5740  151.7180 C   0  0  0  0  0  3  0  0  0  0  0  0
  161.9570  209.9680  150.5070 N   0  0  0  0  0  0  0  0  0  0  0  0
  162.1480  207.7720  149.3130 N   0  0  0  0  0  0  0  0  0  0  0  0
  161.6720  207.8780  151.5320 C   0  0  0  0  0  0  0  0  0  0  0  0
  162.0140  206.5460  149.7610 C   0  0  0  0  0  3  0  0  0  0  0  0
  161.1930  206.0640  153.5050 C   0  0  0  0  0  3  0  0  0  0  0  0
  161.1470  210.5010  154.1800 C   0  0  0  0  0  0  0  0  0  0  0  0
  162.0750  210.6430  155.0220 O   0  0  0  0  0  0  0  0  0  0  0  0
  157.7200  210.8900  155.6990 N   0  0  0  0  0  0  0  0  0  0  0  0
  157.2880  212.0560  155.1510 C   0  0  0  0  0  0  0  0  0  0  0  0
  158.9410  210.3660  155.4040 C   0  0  0  0  0  0  0  0  0  0  0  0
  159.3050  209.1910  155.9760 F   0  0  0  0  0  0  0  0  0  0  0  0
  155.9460  212.5900  155.5030 C   0  0  0  0  0  1  0  0  0  0  0  0
  158.1010  212.7530  154.2590 C   0  0  0  0  0  3  0  0  0  0  0  0
  159.7970  211.0300  154.5030 C   0  0  0  0  0  0  0  0  0  0  0  0
  159.3570  212.2370  153.9410 C   0  0  0  0  0  3  0  0  0  0  0  0
  161.4610  204.1440  151.8770 C   0  0  0  0  0  2  0  0  0  0  0  0
  160.5510  203.8170  150.6980 C   0  0  0  0  0  2  0  0  0  0  0  0
  160.6430  202.3500  150.3010 C   0  0  0  0  0  2  0  0  0  0  0  0
  160.1000  202.1420  148.9620 N   0  0  0  0  0  2  0  0  0  0  0  0
  161.1710  202.0770  147.9610 C   0  0  1  0  0  3  0  0  0  0  0  0
  161.1810  200.8690  147.2770 F   0  0  0  0  0  0  0  0  0  0  0  0
  161.1390  205.1070  144.5040 C   0  0  0  0  0  2  0  0  0  0  0  0
  160.3490  203.8160  144.6960 C   0  0  0  0  0  2  0  0  0  0  0  0
  161.1180  202.8110  145.5490 C   0  0  0  0  0  2  0  0  0  0  0  0
  161.1730  203.2730  147.0060 C   0  0  2  0  0  3  0  0  0  0  0  0
  162.3220  204.2500  147.2990 C   0  0  0  0  0  2  0  0  0  0  0  0
  162.5280  205.3150  146.2200 C   0  0  0  0  0  2  0  0  0  0  0  0
  161.3020  205.7710  145.7260 O   0  0  0  0  0  0  0  0  0  0  0  0
  1 13  1  0  0  0  0
  2 12  1  0  0  0  0
  4 10  1  0  0  0  0
  4  2  2  0  0  0  0
  5  1  1  0  0  0  0
  5  3  1  0  0  0  0
  6  8  2  0  0  0  0
  6 10  1  0  0  0  0
  7  1  2  0  0  0  0
  8  7  1  0  0  0  0
  9 11  2  0  0  0  0
  9  6  1  0  0  0  0
 10  5  2  0  0  0  0
 11  4  1  0  0  0  0
 12  3  2  0  0  0  0
 13 21  1  0  0  0  0
 13 14  2  0  0  0  0
 16 19  1  0  0  0  0
 16 15  2  0  0  0  0
 17 15  1  0  0  0  0
 17 18  1  0  0  0  0
 20 16  1  0  0  0  0
 21 17  2  0  0  0  0
 22 20  2  0  0  0  0
 22 21  1  0  0  0  0
 23  2  1  0  0  0  0
 24 23  1  0  0  0  0
 25 24  1  0  0  0  0
 26 25  1  0  0  0  0
 27 28  1  6  0  0  0
 27 26  1  0  0  0  0
 29 30  1  0  0  0  0
 29 35  1  0  0  0  0
 30 31  1  0  0  0  0
 31 32  1  0  0  0  0
 32 33  1  0  0  0  0
 32 27  1  1  0  0  0
 34 33  1  0  0  0  0
 35 34  1  0  0  0  0
M  END
>  <MODEL>
2

>  <REMARK>
 VINA RESULT:      -9.3      2.326      3.652
  Name = 
  8 active torsions:
  status: ('A' for Active; 'I' for Inactive)
    1  A    between atoms: C_2  and  C_3
    2  A    between atoms: C_3  and  C_28
    3  A    between atoms: C_4  and  C_10
    4  A    between atoms: N_9  and  C_19
    5  A    between atoms: N_9  and  C_34
    6  A    between atoms: C_10  and  C_33
    7  A    between atoms: C_19  and  C_25
    8  A    between atoms: C_33  and  C_34
                            x       y       z     vdW  Elec       q    Type
                         _______ _______ _______ _____ _____    ______ ____

>  <TORSDO>
F 8

$$$$
=
 OpenBabel11072411303D

 35 39  0  0  1  0  0  0  0  0999 V2000
  160.2110  210.6400  154.2970 C   0  0  0  0  0  0  0  0  0  0  0  0
  161.4270  206.6850  153.2680 C   0  0  0  0  0  0  0  0  0  0  0  0
  160.4570  208.2030  154.9620 C   0  0  0  0  0  3  0  0  0  0  0  0
  161.5360  207.7900  152.4160 C   0  0  0  0  0  0  0  0  0  0  0  0
  160.5750  209.2870  154.0660 C   0  0  0  0  0  0  0  0  0  0  0  0
  161.3130  209.8980  151.8630 C   0  0  0  0  0  0  0  0  0  0  0  0
  160.4250  211.5800  153.2390 C   0  0  0  0  0  3  0  0  0  0  0  0
  160.9750  211.2000  152.0370 N   0  0  0  0  0  0  0  0  0  0  0  0
  161.8900  209.2750  150.7160 N   0  0  0  0  0  0  0  0  0  0  0  0
  161.1190  208.9990  152.8360 C   0  0  0  0  0  0  0  0  0  0  0  0
  162.0260  208.0100  151.0400 C   0  0  0  0  0  3  0  0  0  0  0  0
  160.8810  206.9060  154.5600 C   0  0  0  0  0  3  0  0  0  0  0  0
  159.5840  211.0820  155.5700 C   0  0  0  0  0  0  0  0  0  0  0  0
  160.0870  210.7030  156.6620 O   0  0  0  0  0  0  0  0  0  0  0  0
  156.0020  212.2550  155.5020 N   0  0  0  0  0  0  0  0  0  0  0  0
  156.1290  213.5920  155.7060 C   0  0  0  0  0  0  0  0  0  0  0  0
  157.0840  211.4300  155.4480 C   0  0  0  0  0  0  0  0  0  0  0  0
  156.8880  210.1060  155.2290 F   0  0  0  0  0  0  0  0  0  0  0  0
  154.9180  214.4530  155.7580 C   0  0  0  0  0  1  0  0  0  0  0  0
  157.3920  214.1590  155.8650 C   0  0  0  0  0  3  0  0  0  0  0  0
  158.3830  211.9560  155.5960 C   0  0  0  0  0  0  0  0  0  0  0  0
  158.5170  213.3350  155.8130 C   0  0  0  0  0  3  0  0  0  0  0  0
  161.8520  205.3160  152.8460 C   0  0  0  0  0  2  0  0  0  0  0  0
  160.6640  204.3690  152.7230 C   0  0  0  0  0  2  0  0  0  0  0  0
  160.9370  203.2450  151.7310 C   0  0  0  0  0  2  0  0  0  0  0  0
  161.6610  203.7480  150.5680 N   0  0  0  0  0  2  0  0  0  0  0  0
  160.7400  204.3080  149.5720 C   0  0  1  0  0  3  0  0  0  0  0  0
  160.0950  205.4470  150.0320 F   0  0  0  0  0  0  0  0  0  0  0  0
  162.2570  205.6680  145.4520 C   0  0  0  0  0  2  0  0  0  0  0  0
  161.9710  206.4720  146.7160 C   0  0  0  0  0  2  0  0  0  0  0  0
  160.8790  205.8190  147.5590 C   0  0  0  0  0  2  0  0  0  0  0  0
  161.3960  204.5360  148.2080 C   0  0  2  0  0  3  0  0  0  0  0  0
  161.2930  203.3010  147.2990 C   0  0  0  0  0  2  0  0  0  0  0  0
  161.6940  203.5600  145.8460 C   0  0  0  0  0  2  0  0  0  0  0  0
  162.7960  204.4170  145.7760 O   0  0  0  0  0  0  0  0  0  0  0  0
  1 13  1  0  0  0  0
  2 12  1  0  0  0  0
  4 10  1  0  0  0  0
  4  2  2  0  0  0  0
  5  1  1  0  0  0  0
  5  3  1  0  0  0  0
  6  8  2  0  0  0  0
  6 10  1  0  0  0  0
  7  1  2  0  0  0  0
  8  7  1  0  0  0  0
  9 11  2  0  0  0  0
  9  6  1  0  0  0  0
 10  5  2  0  0  0  0
 11  4  1  0  0  0  0
 12  3  2  0  0  0  0
 13 21  1  0  0  0  0
 13 14  2  0  0  0  0
 15 16  1  0  0  0  0
 16 19  1  0  0  0  0
 16 20  2  0  0  0  0
 17 15  2  0  0  0  0
 17 21  1  0  0  0  0
 18 17  1  0  0  0  0
 21 22  2  0  0  0  0
 22 20  1  0  0  0  0
 23  2  1  0  0  0  0
 24 23  1  0  0  0  0
 25 24  1  0  0  0  0
 26 25  1  0  0  0  0
 27 28  1  1  0  0  0
 27 26  1  0  0  0  0
 29 35  1  0  0  0  0
 29 30  1  0  0  0  0
 30 31  1  0  0  0  0
 31 32  1  0  0  0  0
 32 27  1  1  0  0  0
 33 32  1  0  0  0  0
 34 33  1  0  0  0  0
 35 34  1  0  0  0  0
M  END
>  <MODEL>
3

>  <REMARK>
 VINA RESULT:      -8.1      2.327      3.637
  Name = 
  8 active torsions:
  status: ('A' for Active; 'I' for Inactive)
    1  A    between atoms: C_2  and  C_3
    2  A    between atoms: C_3  and  C_28
    3  A    between atoms: C_4  and  C_10
    4  A    between atoms: N_9  and  C_19
    5  A    between atoms: N_9  and  C_34
    6  A    between atoms: C_10  and  C_33
    7  A    between atoms: C_19  and  C_25
    8  A    between atoms: C_33  and  C_34
                            x       y       z     vdW  Elec       q    Type
                         _______ _______ _______ _____ _____    ______ ____

>  <TORSDO>
F 8

$$$$
=
 OpenBabel11072411303D

 35 39  0  0  1  0  0  0  0  0999 V2000
  161.3470  207.3300  152.8140 C   0  0  0  0  0  0  0  0  0  0  0  0
  159.8680  211.2600  153.5560 C   0  0  0  0  0  0  0  0  0  0  0  0
  160.8750  209.6710  151.9520 C   0  0  0  0  0  3  0  0  0  0  0  0
  159.9000  210.2360  154.5100 C   0  0  0  0  0  0  0  0  0  0  0  0
  160.8790  208.6650  152.9420 C   0  0  0  0  0  0  0  0  0  0  0  0
  160.3140  208.2100  155.2330 C   0  0  0  0  0  0  0  0  0  0  0  0
  161.2560  206.4770  153.9600 C   0  0  0  0  0  3  0  0  0  0  0  0
  160.7440  206.9260  155.1550 N   0  0  0  0  0  0  0  0  0  0  0  0
  159.7500  208.8920  156.3520 N   0  0  0  0  0  0  0  0  0  0  0  0
  160.3850  209.0260  154.1740 C   0  0  0  0  0  0  0  0  0  0  0  0
  159.4980  210.1080  155.9260 C   0  0  0  0  0  3  0  0  0  0  0  0
  160.3690  210.9640  152.2610 C   0  0  0  0  0  3  0  0  0  0  0  0
  161.8750  206.7990  151.5310 C   0  0  0  0  0  0  0  0  0  0  0  0
  162.7190  207.4820  150.8890 O   0  0  0  0  0  0  0  0  0  0  0  0
  160.5070  204.1650  149.2090 N   0  0  0  0  0  0  0  0  0  0  0  0
  160.6840  203.0230  149.9250 C   0  0  0  0  0  0  0  0  0  0  0  0
  160.8700  205.3830  149.6960 C   0  0  0  0  0  0  0  0  0  0  0  0
  160.6540  206.4840  148.9340 F   0  0  0  0  0  0  0  0  0  0  0  0
  160.2720  201.7160  149.3510 C   0  0  0  0  0  1  0  0  0  0  0  0
  161.2520  203.0770  151.1960 C   0  0  0  0  0  3  0  0  0  0  0  0
  161.4420  205.4900  150.9800 C   0  0  0  0  0  0  0  0  0  0  0  0
  161.6320  204.3130  151.7180 C   0  0  0  0  0  3  0  0  0  0  0  0
  159.3200  212.6140  153.8680 C   0  0  0  0  0  2  0  0  0  0  0  0
  157.8850  212.7690  153.3780 C   0  0  0  0  0  2  0  0  0  0  0  0
  157.7510  213.8960  152.3610 C   0  0  0  0  0  2  0  0  0  0  0  0
  158.0890  213.4250  151.0210 N   0  0  0  0  0  2  0  0  0  0  0  0
  159.2370  214.1600  150.4760 C   0  0  1  0  0  3  0  0  0  0  0  0
  160.1880  214.4470  151.4440 F   0  0  0  0  0  0  0  0  0  0  0  0
  161.7080  212.6510  146.9060 C   0  0  0  0  0  2  0  0  0  0  0  0
  162.1460  213.0750  148.3040 C   0  0  0  0  0  2  0  0  0  0  0  0
  161.2000  214.1170  148.8940 C   0  0  0  0  0  2  0  0  0  0  0  0
  159.8560  213.4820  149.2510 C   0  0  2  0  0  3  0  0  0  0  0  0
  158.8760  213.4080  148.0690 C   0  0  0  0  0  2  0  0  0  0  0  0
  159.5220  212.9840  146.7480 C   0  0  0  0  0  2  0  0  0  0  0  0
  160.4780  211.9850  146.9570 O   0  0  0  0  0  0  0  0  0  0  0  0
  1  5  1  0  0  0  0
  1  7  2  0  0  0  0
  2 23  1  0  0  0  0
  2  4  1  0  0  0  0
  3 12  1  0  0  0  0
  3  5  2  0  0  0  0
  4 11  1  0  0  0  0
  5 10  1  0  0  0  0
  6  9  1  0  0  0  0
  7  8  1  0  0  0  0
  8  6  2  0  0  0  0
 10  4  2  0  0  0  0
 10  6  1  0  0  0  0
 11  9  2  0  0  0  0
 12  2  2  0  0  0  0
 13  1  1  0  0  0  0
 14 13  2  0  0  0  0
 15 17  2  0  0  0  0
 15 16  1  0  0  0  0
 16 20  2  0  0  0  0
 17 21  1  0  0  0  0
 18 17  1  0  0  0  0
 19 16  1  0  0  0  0
 20 22  1  0  0  0  0
 21 13  1  0  0  0  0
 21 22  2  0  0  0  0
 24 23  1  0  0  0  0
 25 24  1  0  0  0  0
 26 25  1  0  0  0  0
 27 26  1  0  0  0  0
 27 28  1  1  0  0  0
 29 35  1  0  0  0  0
 29 30  1  0  0  0  0
 30 31  1  0  0  0  0
 31 32  1  0  0  0  0
 32 27  1  1  0  0  0
 33 32  1  0  0  0  0
 34 35  1  0  0  0  0
 34 33  1  0  0  0  0
M  END
>  <MODEL>
4

>  <REMARK>
 VINA RESULT:      -8.0      3.161      8.288
  Name = 
  8 active torsions:
  status: ('A' for Active; 'I' for Inactive)
    1  A    between atoms: C_2  and  C_3
    2  A    between atoms: C_3  and  C_28
    3  A    between atoms: C_4  and  C_10
    4  A    between atoms: N_9  and  C_19
    5  A    between atoms: N_9  and  C_34
    6  A    between atoms: C_10  and  C_33
    7  A    between atoms: C_19  and  C_25
    8  A    between atoms: C_33  and  C_34
                            x       y       z     vdW  Elec       q    Type
                         _______ _______ _______ _____ _____    ______ ____

>  <TORSDO>
F 8

$$$$
=
 OpenBabel11072411303D

 35 39  0  0  1  0  0  0  0  0999 V2000
  161.3670  205.5420  150.3970 C   0  0  0  0  0  0  0  0  0  0  0  0
  161.2270  207.9780  153.8930 C   0  0  0  0  0  0  0  0  0  0  0  0
  161.0690  205.7150  152.9120 C   0  0  0  0  0  3  0  0  0  0  0  0
  161.4450  208.4670  152.6000 C   0  0  0  0  0  0  0  0  0  0  0  0
  161.3030  206.2490  151.6270 C   0  0  0  0  0  0  0  0  0  0  0  0
  161.7010  208.2950  150.4310 C   0  0  0  0  0  0  0  0  0  0  0  0
  161.6140  206.2940  149.2050 C   0  0  0  0  0  3  0  0  0  0  0  0
  161.7750  207.6600  149.2340 N   0  0  0  0  0  0  0  0  0  0  0  0
  161.8360  209.6880  150.7080 N   0  0  0  0  0  0  0  0  0  0  0  0
  161.4750  207.6120  151.5600 C   0  0  0  0  0  0  0  0  0  0  0  0
  161.6850  209.7990  152.0070 C   0  0  0  0  0  3  0  0  0  0  0  0
  161.0330  206.5800  154.0400 C   0  0  0  0  0  3  0  0  0  0  0  0
  161.2310  204.0630  150.3290 C   0  0  0  0  0  0  0  0  0  0  0  0
  161.2670  203.3980  151.3990 O   0  0  0  0  0  0  0  0  0  0  0  0
  160.2830  201.4480  147.7870 N   0  0  0  0  0  0  0  0  0  0  0  0
  160.6650  202.0250  146.6170 C   0  0  0  0  0  0  0  0  0  0  0  0
  160.4560  202.0690  148.9850 C   0  0  0  0  0  0  0  0  0  0  0  0
  160.0630  201.4320  150.1160 F   0  0  0  0  0  0  0  0  0  0  0  0
  160.4560  201.3080  145.3320 C   0  0  0  0  0  1  0  0  0  0  0  0
  161.2530  203.2880  146.6210 C   0  0  0  0  0  3  0  0  0  0  0  0
  161.0520  203.3450  149.0420 C   0  0  0  0  0  0  0  0  0  0  0  0
  161.4420  203.9460  147.8360 C   0  0  0  0  0  3  0  0  0  0  0  0
  161.2060  208.8790  155.0850 C   0  0  0  0  0  2  0  0  0  0  0  0
  159.8790  208.7980  155.8310 C   0  0  0  0  0  2  0  0  0  0  0  0
  159.7080  209.9520  156.8100 C   0  0  0  0  0  2  0  0  0  0  0  0
  159.4050  211.1910  156.1000 N   0  0  0  0  0  2  0  0  0  0  0  0
  158.1230  211.0930  155.3910 C   0  0  1  0  0  3  0  0  0  0  0  0
  157.0430  211.3860  156.2110 F   0  0  0  0  0  0  0  0  0  0  0  0
  158.8190  213.6650  151.6450 C   0  0  0  0  0  2  0  0  0  0  0  0
  159.6910  212.5870  152.2810 C   0  0  0  0  0  2  0  0  0  0  0  0
  159.4650  212.5030  153.7890 C   0  0  0  0  0  2  0  0  0  0  0  0
  158.0920  211.9060  154.0940 C   0  0  2  0  0  3  0  0  0  0  0  0
  156.9550  212.9400  154.0830 C   0  0  0  0  0  2  0  0  0  0  0  0
  157.0390  213.9490  152.9360 C   0  0  0  0  0  2  0  0  0  0  0  0
  157.4650  213.3310  151.7560 O   0  0  0  0  0  0  0  0  0  0  0  0
  1  5  1  0  0  0  0
  2 12  1  0  0  0  0
  2 23  1  0  0  0  0
  3 12  2  0  0  0  0
  4  2  2  0  0  0  0
  5  3  1  0  0  0  0
  6  9  1  0  0  0  0
  6 10  1  0  0  0  0
  7  8  1  0  0  0  0
  7  1  2  0  0  0  0
  8  6  2  0  0  0  0
  9 11  2  0  0  0  0
 10  5  2  0  0  0  0
 10  4  1  0  0  0  0
 11  4  1  0  0  0  0
 13  1  1  0  0  0  0
 13 14  2  0  0  0  0
 15 17  1  0  0  0  0
 16 20  1  0  0  0  0
 16 15  2  0  0  0  0
 17 21  2  0  0  0  0
 17 18  1  0  0  0  0
 19 16  1  0  0  0  0
 20 22  2  0  0  0  0
 21 13  1  0  0  0  0
 22 21  1  0  0  0  0
 23 24  1  0  0  0  0
 24 25  1  0  0  0  0
 26 25  1  0  0  0  0
 27 26  1  0  0  0  0
 27 28  1  1  0  0  0
 29 35  1  0  0  0  0
 29 30  1  0  0  0  0
 30 31  1  0  0  0  0
 31 32  1  0  0  0  0
 32 27  1  1  0  0  0
 33 32  1  0  0  0  0
 34 33  1  0  0  0  0
 35 34  1  0  0  0  0
M  END
>  <MODEL>
5

>  <REMARK>
 VINA RESULT:      -7.8      2.364      9.682
  Name = 
  8 active torsions:
  status: ('A' for Active; 'I' for Inactive)
    1  A    between atoms: C_2  and  C_3
    2  A    between atoms: C_3  and  C_28
    3  A    between atoms: C_4  and  C_10
    4  A    between atoms: N_9  and  C_19
    5  A    between atoms: N_9  and  C_34
    6  A    between atoms: C_10  and  C_33
    7  A    between atoms: C_19  and  C_25
    8  A    between atoms: C_33  and  C_34
                            x       y       z     vdW  Elec       q    Type
                         _______ _______ _______ _____ _____    ______ ____

>  <TORSDO>
F 8

$$$$
=
 OpenBabel11072411303D

 35 39  0  0  1  0  0  0  0  0999 V2000
  161.1150  202.1520  148.3280 C   0  0  0  0  0  0  0  0  0  0  0  0
  161.0000  205.9500  150.2610 C   0  0  0  0  0  0  0  0  0  0  0  0
  161.1460  204.6830  148.1430 C   0  0  0  0  0  3  0  0  0  0  0  0
  160.9480  204.7230  150.9310 C   0  0  0  0  0  0  0  0  0  0  0  0
  161.0800  203.4680  148.8590 C   0  0  0  0  0  0  0  0  0  0  0  0
  160.9220  202.5370  151.0670 C   0  0  0  0  0  0  0  0  0  0  0  0
  161.0380  201.0570  149.2470 C   0  0  0  0  0  3  0  0  0  0  0  0
  160.9450  201.2610  150.6040 N   0  0  0  0  0  0  0  0  0  0  0  0
  160.8300  202.9910  152.4170 N   0  0  0  0  0  0  0  0  0  0  0  0
  160.9880  203.5760  150.2270 C   0  0  0  0  0  0  0  0  0  0  0  0
  160.8440  204.3010  152.3430 C   0  0  0  0  0  3  0  0  0  0  0  0
  161.1030  205.9190  148.8450 C   0  0  0  0  0  3  0  0  0  0  0  0
  161.1810  201.8920  146.8660 C   0  0  0  0  0  0  0  0  0  0  0  0
  161.1360  200.7010  146.4550 O   0  0  0  0  0  0  0  0  0  0  0  0
  160.4070  204.2690  144.0450 N   0  0  0  0  0  0  0  0  0  0  0  0
  161.4890  205.0910  144.0500 C   0  0  0  0  0  0  0  0  0  0  0  0
  160.2840  203.2380  144.9250 C   0  0  0  0  0  0  0  0  0  0  0  0
  159.1830  202.4470  144.8570 F   0  0  0  0  0  0  0  0  0  0  0  0
  161.5810  206.2040  143.0700 C   0  0  0  0  0  1  0  0  0  0  0  0
  162.5140  204.8920  144.9740 C   0  0  0  0  0  3  0  0  0  0  0  0
  161.2960  202.9910  145.8730 C   0  0  0  0  0  0  0  0  0  0  0  0
  162.4110  203.8410  145.8860 C   0  0  0  0  0  3  0  0  0  0  0  0
  160.9370  207.2520  150.9910 C   0  0  0  0  0  2  0  0  0  0  0  0
  162.2280  208.0480  150.8380 C   0  0  0  0  0  2  0  0  0  0  0  0
  161.9970  209.5430  151.0190 C   0  0  0  0  0  2  0  0  0  0  0  0
  162.3340  209.9560  152.3780 N   0  0  0  0  0  2  0  0  0  0  0  0
  161.1250  210.2620  153.1530 C   0  0  1  0  0  3  0  0  0  0  0  0
  159.9700  210.1520  152.3920 F   0  0  0  0  0  0  0  0  0  0  0  0
  160.4420  207.3140  156.6130 C   0  0  0  0  0  2  0  0  0  0  0  0
  160.8310  207.0610  155.1590 C   0  0  0  0  0  2  0  0  0  0  0  0
  160.2830  208.1470  154.2380 C   0  0  0  0  0  2  0  0  0  0  0  0
  161.0300  209.4640  154.4550 C   0  0  2  0  0  3  0  0  0  0  0  0
  160.4690  210.3050  155.6140 C   0  0  0  0  0  2  0  0  0  0  0  0
  160.1070  209.4920  156.8580 C   0  0  0  0  0  2  0  0  0  0  0  0
  161.0480  208.4830  157.0880 O   0  0  0  0  0  0  0  0  0  0  0  0
  1  5  1  0  0  0  0
  1  7  2  0  0  0  0
  2  4  1  0  0  0  0
  2 23  1  0  0  0  0
  3 12  1  0  0  0  0
  3  5  2  0  0  0  0
  4 11  1  0  0  0  0
  5 10  1  0  0  0  0
  6  9  1  0  0  0  0
  7  8  1  0  0  0  0
  8  6  2  0  0  0  0
 10  4  2  0  0  0  0
 10  6  1  0  0  0  0
 11  9  2  0  0  0  0
 12  2  2  0  0  0  0
 13  1  1  0  0  0  0
 14 13  2  0  0  0  0
 15 16  2  0  0  0  0
 15 17  1  0  0  0  0
 16 20  1  0  0  0  0
 17 21  2  0  0  0  0
 18 17  1  0  0  0  0
 19 16  1  0  0  0  0
 20 22  2  0  0  0  0
 21 22  1  0  0  0  0
 21 13  1  0  0  0  0
 24 23  1  0  0  0  0
 24 25  1  0  0  0  0
 25 26  1  0  0  0  0
 26 27  1  0  0  0  0
 27 28  1  6  0  0  0
 29 35  1  0  0  0  0
 30 29  1  0  0  0  0
 31 32  1  0  0  0  0
 31 30  1  0  0  0  0
 32 27  1  6  0  0  0
 32 33  1  0  0  0  0
 33 34  1  0  0  0  0
 34 35  1  0  0  0  0
M  END
>  <MODEL>
6

>  <REMARK>
 VINA RESULT:      -7.7      2.775      9.273
  Name = 
  8 active torsions:
  status: ('A' for Active; 'I' for Inactive)
    1  A    between atoms: C_2  and  C_3
    2  A    between atoms: C_3  and  C_28
    3  A    between atoms: C_4  and  C_10
    4  A    between atoms: N_9  and  C_19
    5  A    between atoms: N_9  and  C_34
    6  A    between atoms: C_10  and  C_33
    7  A    between atoms: C_19  and  C_25
    8  A    between atoms: C_33  and  C_34
                            x       y       z     vdW  Elec       q    Type
                         _______ _______ _______ _____ _____    ______ ____

>  <TORSDO>
F 8

$$$$
=
 OpenBabel11072411303D

 35 39  0  0  1  0  0  0  0  0999 V2000
  161.2130  204.6190  149.6660 C   0  0  0  0  0  0  0  0  0  0  0  0
  161.6620  208.3680  151.6490 C   0  0  0  0  0  0  0  0  0  0  0  0
  161.5580  207.1290  149.5110 C   0  0  0  0  0  3  0  0  0  0  0  0
  161.4830  207.1450  152.3060 C   0  0  0  0  0  0  0  0  0  0  0  0
  161.3680  205.9200  150.2140 C   0  0  0  0  0  0  0  0  0  0  0  0
  161.1840  204.9780  152.4160 C   0  0  0  0  0  0  0  0  0  0  0  0
  161.0350  203.5280  150.5750 C   0  0  0  0  0  3  0  0  0  0  0  0
  161.0260  203.7180  151.9370 N   0  0  0  0  0  0  0  0  0  0  0  0
  161.2060  205.4160  153.7740 N   0  0  0  0  0  0  0  0  0  0  0  0
  161.3470  206.0150  151.5860 C   0  0  0  0  0  0  0  0  0  0  0  0
  161.3840  206.7150  153.7160 C   0  0  0  0  0  3  0  0  0  0  0  0
  161.7020  208.3490  150.2300 C   0  0  0  0  0  3  0  0  0  0  0  0
  161.1850  204.3790  148.2000 C   0  0  0  0  0  0  0  0  0  0  0  0
  161.1750  205.3700  147.4200 O   0  0  0  0  0  0  0  0  0  0  0  0
  161.1530  201.5290  145.7340 N   0  0  0  0  0  0  0  0  0  0  0  0
  161.1980  200.4400  146.5460 C   0  0  0  0  0  0  0  0  0  0  0  0
  161.1420  202.7960  146.2310 C   0  0  0  0  0  0  0  0  0  0  0  0
  161.0840  203.8390  145.3660 F   0  0  0  0  0  0  0  0  0  0  0  0
  161.2090  199.0750  145.9570 C   0  0  0  0  0  1  0  0  0  0  0  0
  161.2330  200.6010  147.9300 C   0  0  0  0  0  3  0  0  0  0  0  0
  161.1690  203.0100  147.6240 C   0  0  0  0  0  0  0  0  0  0  0  0
  161.2210  201.8890  148.4640 C   0  0  0  0  0  3  0  0  0  0  0  0
  161.7950  209.6540  152.3960 C   0  0  0  0  0  2  0  0  0  0  0  0
  160.7040  210.6470  152.0100 C   0  0  0  0  0  2  0  0  0  0  0  0
  159.7610  210.9330  153.1710 C   0  0  0  0  0  2  0  0  0  0  0  0
  160.0840  212.2130  153.7950 N   0  0  0  0  0  2  0  0  0  0  0  0
  160.0690  212.1070  155.2590 C   0  0  1  0  0  3  0  0  0  0  0  0
  158.8040  212.3170  155.7890 F   0  0  0  0  0  0  0  0  0  0  0  0
  161.2230  208.0800  157.1500 C   0  0  0  0  0  2  0  0  0  0  0  0
  159.9330  208.5170  156.4630 C   0  0  0  0  0  2  0  0  0  0  0  0
  159.6970  210.0170  156.6190 C   0  0  0  0  0  2  0  0  0  0  0  0
  160.6950  210.8080  155.7730 C   0  0  2  0  0  3  0  0  0  0  0  0
  162.0410  211.0490  156.4740 C   0  0  0  0  0  2  0  0  0  0  0  0
  162.5770  209.8330  157.2320 C   0  0  0  0  0  2  0  0  0  0  0  0
  162.3340  208.6530  156.5210 O   0  0  0  0  0  0  0  0  0  0  0  0
  1  5  1  0  0  0  0
  1  7  2  0  0  0  0
  2  4  1  0  0  0  0
  2 23  1  0  0  0  0
  3  5  2  0  0  0  0
  3 12  1  0  0  0  0
  4 11  1  0  0  0  0
  5 10  1  0  0  0  0
  6  9  1  0  0  0  0
  7  8  1  0  0  0  0
  8  6  2  0  0  0  0
 10  4  2  0  0  0  0
 10  6  1  0  0  0  0
 11  9  2  0  0  0  0
 12  2  2  0  0  0  0
 13  1  1  0  0  0  0
 14 13  2  0  0  0  0
 15 17  2  0  0  0  0
 15 16  1  0  0  0  0
 16 20  2  0  0  0  0
 17 21  1  0  0  0  0
 18 17  1  0  0  0  0
 19 16  1  0  0  0  0
 20 22  1  0  0  0  0
 21 13  1  0  0  0  0
 21 22  2  0  0  0  0
 24 23  1  0  0  0  0
 24 25  1  0  0  0  0
 25 26  1  0  0  0  0
 26 27  1  0  0  0  0
 27 28  1  6  0  0  0
 30 31  1  0  0  0  0
 30 29  1  0  0  0  0
 32 27  1  1  0  0  0
 32 33  1  0  0  0  0
 32 31  1  0  0  0  0
 33 34  1  0  0  0  0
 35 29  1  0  0  0  0
 35 34  1  0  0  0  0
M  END
>  <MODEL>
7

>  <REMARK>
 VINA RESULT:      -7.6      2.220      9.453
  Name = 
  8 active torsions:
  status: ('A' for Active; 'I' for Inactive)
    1  A    between atoms: C_2  and  C_3
    2  A    between atoms: C_3  and  C_28
    3  A    between atoms: C_4  and  C_10
    4  A    between atoms: N_9  and  C_19
    5  A    between atoms: N_9  and  C_34
    6  A    between atoms: C_10  and  C_33
    7  A    between atoms: C_19  and  C_25
    8  A    between atoms: C_33  and  C_34
                            x       y       z     vdW  Elec       q    Type
                         _______ _______ _______ _____ _____    ______ ____

>  <TORSDO>
F 8

$$$$
=
 OpenBabel11072411303D

 35 39  0  0  1  0  0  0  0  0999 V2000
  161.0940  204.2900  148.6640 C   0  0  0  0  0  0  0  0  0  0  0  0
  161.3420  207.4680  151.4960 C   0  0  0  0  0  0  0  0  0  0  0  0
  160.7640  205.1070  151.0440 C   0  0  0  0  0  3  0  0  0  0  0  0
  161.6910  207.5860  150.1460 C   0  0  0  0  0  0  0  0  0  0  0  0
  161.1380  205.2670  149.6930 C   0  0  0  0  0  0  0  0  0  0  0  0
  161.9700  206.8590  148.0980 C   0  0  0  0  0  0  0  0  0  0  0  0
  161.5210  204.6780  147.3540 C   0  0  0  0  0  3  0  0  0  0  0  0
  161.9510  205.9560  147.0850 N   0  0  0  0  0  0  0  0  0  0  0  0
  162.3720  208.2280  148.0610 N   0  0  0  0  0  0  0  0  0  0  0  0
  161.5800  206.5190  149.3320 C   0  0  0  0  0  0  0  0  0  0  0  0
  162.2090  208.6700  149.2860 C   0  0  0  0  0  3  0  0  0  0  0  0
  160.8690  206.2060  151.9410 C   0  0  0  0  0  3  0  0  0  0  0  0
  160.6680  202.8900  148.9230 C   0  0  0  0  0  0  0  0  0  0  0  0
  160.1220  202.6130  150.0260 O   0  0  0  0  0  0  0  0  0  0  0  0
  161.5690  199.5850  147.3530 N   0  0  0  0  0  0  0  0  0  0  0  0
  161.1740  199.7560  146.0640 C   0  0  0  0  0  0  0  0  0  0  0  0
  161.4270  200.5660  148.2850 C   0  0  0  0  0  0  0  0  0  0  0  0
  161.8540  200.3340  149.5510 F   0  0  0  0  0  0  0  0  0  0  0  0
  161.3490  198.6550  145.0810 C   0  0  0  0  0  1  0  0  0  0  0  0
  160.6050  200.9630  145.6620 C   0  0  0  0  0  3  0  0  0  0  0  0
  160.8630  201.8070  147.9260 C   0  0  0  0  0  0  0  0  0  0  0  0
  160.4480  201.9850  146.5980 C   0  0  0  0  0  3  0  0  0  0  0  0
  161.4680  208.6120  152.4480 C   0  0  0  0  0  2  0  0  0  0  0  0
  160.5860  209.7870  152.0370 C   0  0  0  0  0  2  0  0  0  0  0  0
  160.9910  211.0730  152.7460 C   0  0  0  0  0  2  0  0  0  0  0  0
  159.8370  211.6890  153.3940 N   0  0  0  0  0  2  0  0  0  0  0  0
  160.0500  211.8190  154.8410 C   0  0  1  0  0  3  0  0  0  0  0  0
  158.9080  212.2430  155.5050 F   0  0  0  0  0  0  0  0  0  0  0  0
  161.0660  207.8670  156.9560 C   0  0  0  0  0  2  0  0  0  0  0  0
  159.8990  208.2280  156.0420 C   0  0  0  0  0  2  0  0  0  0  0  0
  159.5560  209.7130  156.1360 C   0  0  0  0  0  2  0  0  0  0  0  0
  160.6440  210.5590  155.4750 C   0  0  2  0  0  3  0  0  0  0  0  0
  161.8260  210.8770  156.4040 C   0  0  0  0  0  2  0  0  0  0  0  0
  162.2830  209.6950  157.2610 C   0  0  0  0  0  2  0  0  0  0  0  0
  162.2390  208.5020  156.5320 O   0  0  0  0  0  0  0  0  0  0  0  0
  1 13  1  0  0  0  0
  1  5  1  0  0  0  0
  2 12  1  0  0  0  0
  2 23  1  0  0  0  0
  3 12  2  0  0  0  0
  4  2  2  0  0  0  0
  5  3  1  0  0  0  0
  6 10  1  0  0  0  0
  7  1  2  0  0  0  0
  8  7  1  0  0  0  0
  8  6  2  0  0  0  0
  9  6  1  0  0  0  0
  9 11  2  0  0  0  0
 10  5  2  0  0  0  0
 10  4  1  0  0  0  0
 11  4  1  0  0  0  0
 13 14  2  0  0  0  0
 15 17  1  0  0  0  0
 16 15  2  0  0  0  0
 17 18  1  0  0  0  0
 19 16  1  0  0  0  0
 20 16  1  0  0  0  0
 20 22  2  0  0  0  0
 21 17  2  0  0  0  0
 21 13  1  0  0  0  0
 22 21  1  0  0  0  0
 24 23  1  0  0  0  0
 24 25  1  0  0  0  0
 25 26  1  0  0  0  0
 26 27  1  0  0  0  0
 27 28  1  1  0  0  0
 30 31  1  0  0  0  0
 30 29  1  0  0  0  0
 32 27  1  1  0  0  0
 32 31  1  0  0  0  0
 32 33  1  0  0  0  0
 33 34  1  0  0  0  0
 35 29  1  0  0  0  0
 35 34  1  0  0  0  0
M  END
>  <MODEL>
8

>  <REMARK>
 VINA RESULT:      -7.6      2.465      9.981
  Name = 
  8 active torsions:
  status: ('A' for Active; 'I' for Inactive)
    1  A    between atoms: C_2  and  C_3
    2  A    between atoms: C_3  and  C_28
    3  A    between atoms: C_4  and  C_10
    4  A    between atoms: N_9  and  C_19
    5  A    between atoms: N_9  and  C_34
    6  A    between atoms: C_10  and  C_33
    7  A    between atoms: C_19  and  C_25
    8  A    between atoms: C_33  and  C_34
                            x       y       z     vdW  Elec       q    Type
                         _______ _______ _______ _____ _____    ______ ____

>  <TORSDO>
F 8

$$$$
=
 OpenBabel11072411303D

 35 39  0  0  1  0  0  0  0  0999 V2000
  161.1540  204.7270  149.1970 C   0  0  0  0  0  0  0  0  0  0  0  0
  161.2900  208.0000  151.9260 C   0  0  0  0  0  0  0  0  0  0  0  0
  160.8740  205.5900  151.5680 C   0  0  0  0  0  3  0  0  0  0  0  0
  161.5650  208.1030  150.5570 C   0  0  0  0  0  0  0  0  0  0  0  0
  161.1700  205.7360  150.1960 C   0  0  0  0  0  0  0  0  0  0  0  0
  161.8020  207.3360  148.5190 C   0  0  0  0  0  0  0  0  0  0  0  0
  161.4870  205.1050  147.8580 C   0  0  0  0  0  3  0  0  0  0  0  0
  161.8040  206.4040  147.5330 N   0  0  0  0  0  0  0  0  0  0  0  0
  162.0960  208.7300  148.4250 N   0  0  0  0  0  0  0  0  0  0  0  0
  161.4970  207.0060  149.7800 C   0  0  0  0  0  0  0  0  0  0  0  0
  161.9570  209.1960  149.6440 C   0  0  0  0  0  3  0  0  0  0  0  0
  160.9370  206.7210  152.4290 C   0  0  0  0  0  3  0  0  0  0  0  0
  160.8480  203.3070  149.5150 C   0  0  0  0  0  0  0  0  0  0  0  0
  160.4510  203.0140  150.6760 O   0  0  0  0  0  0  0  0  0  0  0  0
  161.4500  199.9350  147.9440 N   0  0  0  0  0  0  0  0  0  0  0  0
  161.2110  200.1790  146.6280 C   0  0  0  0  0  0  0  0  0  0  0  0
  161.3490  200.9120  148.8860 C   0  0  0  0  0  0  0  0  0  0  0  0
  161.6130  200.6040  150.1800 F   0  0  0  0  0  0  0  0  0  0  0  0
  161.3340  199.0800  145.6350 C   0  0  0  0  0  1  0  0  0  0  0  0
  160.8510  201.4580  146.2090 C   0  0  0  0  0  3  0  0  0  0  0  0
  160.9940  202.2240  148.5100 C   0  0  0  0  0  0  0  0  0  0  0  0
  160.7410  202.4770  147.1550 C   0  0  0  0  0  3  0  0  0  0  0  0
  161.3720  209.1800  152.8390 C   0  0  0  0  0  2  0  0  0  0  0  0
  160.1150  210.0400  152.7640 C   0  0  0  0  0  2  0  0  0  0  0  0
  160.4470  211.5100  152.5420 C   0  0  0  0  0  2  0  0  0  0  0  0
  159.9860  212.3180  153.6680 N   0  0  0  0  0  2  0  0  0  0  0  0
  158.8330  213.1440  153.2880 C   0  0  1  0  0  3  0  0  0  0  0  0
  158.3630  212.8410  152.0190 F   0  0  0  0  0  0  0  0  0  0  0  0
  155.5550  212.2810  156.3920 C   0  0  0  0  0  2  0  0  0  0  0  0
  156.9240  211.6370  156.1940 C   0  0  0  0  0  2  0  0  0  0  0  0
  157.3610  211.6940  154.7320 C   0  0  0  0  0  2  0  0  0  0  0  0
  157.7130  213.1260  154.3320 C   0  0  2  0  0  3  0  0  0  0  0  0
  156.4980  213.9600  153.8950 C   0  0  0  0  0  2  0  0  0  0  0  0
  155.2590  213.7640  154.7710 C   0  0  0  0  0  2  0  0  0  0  0  0
  155.6120  213.6530  156.1190 O   0  0  0  0  0  0  0  0  0  0  0  0
  1 13  1  0  0  0  0
  1  5  1  0  0  0  0
  2 12  1  0  0  0  0
  2 23  1  0  0  0  0
  3 12  2  0  0  0  0
  4  2  2  0  0  0  0
  5  3  1  0  0  0  0
  6 10  1  0  0  0  0
  7  1  2  0  0  0  0
  8  7  1  0  0  0  0
  8  6  2  0  0  0  0
  9  6  1  0  0  0  0
  9 11  2  0  0  0  0
 10  5  2  0  0  0  0
 10  4  1  0  0  0  0
 11  4  1  0  0  0  0
 13 14  2  0  0  0  0
 15 17  1  0  0  0  0
 16 15  2  0  0  0  0
 17 18  1  0  0  0  0
 19 16  1  0  0  0  0
 20 16  1  0  0  0  0
 20 22  2  0  0  0  0
 21 17  2  0  0  0  0
 21 13  1  0  0  0  0
 22 21  1  0  0  0  0
 24 23  1  0  0  0  0
 25 24  1  0  0  0  0
 25 26  1  0  0  0  0
 27 28  1  6  0  0  0
 27 26  1  0  0  0  0
 30 29  1  0  0  0  0
 31 30  1  0  0  0  0
 32 27  1  6  0  0  0
 32 31  1  0  0  0  0
 33 32  1  0  0  0  0
 33 34  1  0  0  0  0
 34 35  1  0  0  0  0
 35 29  1  0  0  0  0
M  END
>  <MODEL>
9

>  <REMARK>
 VINA RESULT:      -7.5      2.354     10.342
  Name = 
  8 active torsions:
  status: ('A' for Active; 'I' for Inactive)
    1  A    between atoms: C_2  and  C_3
    2  A    between atoms: C_3  and  C_28
    3  A    between atoms: C_4  and  C_10
    4  A    between atoms: N_9  and  C_19
    5  A    between atoms: N_9  and  C_34
    6  A    between atoms: C_10  and  C_33
    7  A    between atoms: C_19  and  C_25
    8  A    between atoms: C_33  and  C_34
                            x       y       z     vdW  Elec       q    Type
                         _______ _______ _______ _____ _____    ______ ____

>  <TORSDO>
F 8

$$$$
