=
 OpenBabel11072414233D

 26 28  0  0  0  0  0  0  0  0999 V2000
  161.3650  206.0020  148.5650 C   0  0  0  0  0  0  0  0  0  0  0  0
  161.4730  209.9050  151.4370 N   0  0  0  0  0  2  0  0  0  0  0  0
  161.1400  207.3660  151.9470 C   0  0  0  0  0  2  0  0  0  0  0  0
  160.9810  204.8940  151.1400 C   0  0  0  0  0  0  0  0  0  0  0  0
  161.4570  208.2140  149.7650 N   0  0  0  0  0  0  0  0  0  0  0  0
  161.1350  206.2680  150.9510 C   0  0  0  0  0  0  0  0  0  0  0  0
  161.5680  206.5870  147.2110 C   0  0  0  0  0  1  0  0  0  0  0  0
  161.0210  204.0580  150.0050 C   0  0  0  0  0  0  0  0  0  0  0  0
  161.3490  208.5400  151.0170 C   0  0  0  0  0  0  0  0  0  0  0  0
  160.8630  202.5830  150.1400 C   0  0  0  0  0  1  0  0  0  0  0  0
  161.3210  206.8060  149.7060 C   0  0  0  0  0  0  0  0  0  0  0  0
  160.7960  204.3720  152.4150 O   0  0  0  0  0  1  0  0  0  0  0  0
  161.2120  204.6150  148.7240 C   0  0  0  0  0  3  0  0  0  0  0  0
  160.1350  211.1660  153.0580 C   0  0  0  0  0  0  0  0  0  0  0  0
  162.0270  210.6920  155.0730 C   0  0  0  0  0  0  0  0  0  0  0  0
  159.1850  211.4090  152.0730 O   0  0  0  0  0  1  0  0  0  0  0  0
  160.8810  211.4410  155.3470 C   0  0  0  0  0  3  0  0  0  0  0  0
  161.2860  210.4190  152.7640 C   0  0  0  0  0  0  0  0  0  0  0  0
  162.2200  210.1780  153.7820 C   0  0  0  0  0  3  0  0  0  0  0  0
  159.9360  211.6760  154.3440 C   0  0  0  0  0  3  0  0  0  0  0  0
  162.9570  210.4740  156.0940 O   0  0  0  0  0  0  0  0  0  0  0  0
  162.6660  209.7080  157.2600 C   0  0  0  0  0  2  0  0  0  0  0  0
  162.0400  208.3720  156.8880 C   0  0  0  0  0  2  0  0  0  0  0  0
  160.5670  208.3260  157.2610 C   0  0  0  0  0  2  0  0  0  0  0  0
  159.8450  207.3470  156.4000 C   0  0  0  0  0  3  0  0  0  0  0  0
  160.3360  207.0210  155.2090 C   0  0  0  0  0  2  0  0  0  0  0  0
  1 13  2  0  0  0  0
  1 11  1  0  0  0  0
  2 18  1  0  0  0  0
  4 12  1  0  0  0  0
  5  9  2  0  0  0  0
  6  4  1  0  0  0  0
  6  3  1  0  0  0  0
  7  1  1  0  0  0  0
  8 10  1  0  0  0  0
  8  4  2  0  0  0  0
  9  2  1  0  0  0  0
  9  3  1  0  0  0  0
 11  5  1  0  0  0  0
 11  6  2  0  0  0  0
 13  8  1  0  0  0  0
 14 20  1  0  0  0  0
 15 17  1  0  0  0  0
 15 21  1  0  0  0  0
 16 14  1  0  0  0  0
 18 14  2  0  0  0  0
 18 19  1  0  0  0  0
 19 15  2  0  0  0  0
 20 17  2  0  0  0  0
 21 22  1  0  0  0  0
 23 22  1  0  0  0  0
 23 24  1  0  0  0  0
 25 24  1  0  0  0  0
 26 25  2  0  0  0  0
M  END
>  <MODEL>
1

>  <REMARK>
 VINA RESULT:      -7.9      0.000      0.000
  Name = 
  6 active torsions:
  status: ('A' for Active; 'I' for Inactive)
    1  A    between atoms: C_1  and  C_23
    2  A    between atoms: C_1  and  O_26
    3  A    between atoms: C_2  and  C_6
    4  A    between atoms: N_5  and  C_19
    5  A    between atoms: C_6  and  C_23
    6  A    between atoms: C_7  and  O_26
                            x       y       z     vdW  Elec       q    Type
                         _______ _______ _______ _____ _____    ______ ____

>  <TORSDO>
F 6

$$$$
=
 OpenBabel11072414233D

 26 28  0  0  0  0  0  0  0  0999 V2000
  161.0060  202.4790  148.9400 C   0  0  0  0  0  0  0  0  0  0  0  0
  160.9800  206.0610  152.2070 N   0  0  0  0  0  2  0  0  0  0  0  0
  161.2160  206.0660  149.6070 C   0  0  0  0  0  2  0  0  0  0  0  0
  161.3050  204.7910  147.3360 C   0  0  0  0  0  0  0  0  0  0  0  0
  160.9680  204.0900  150.8760 N   0  0  0  0  0  0  0  0  0  0  0  0
  161.2020  204.8740  148.7260 C   0  0  0  0  0  0  0  0  0  0  0  0
  160.8480  201.2650  149.7860 C   0  0  0  0  0  1  0  0  0  0  0  0
  161.2570  203.5140  146.7400 C   0  0  0  0  0  0  0  0  0  0  0  0
  161.0650  205.3820  150.9470 C   0  0  0  0  0  0  0  0  0  0  0  0
  161.3630  203.3580  145.2630 C   0  0  0  0  0  1  0  0  0  0  0  0
  161.0570  203.7570  149.5030 C   0  0  0  0  0  0  0  0  0  0  0  0
  161.4490  205.9410  146.5680 O   0  0  0  0  0  1  0  0  0  0  0  0
  161.1090  202.3650  147.5440 C   0  0  0  0  0  3  0  0  0  0  0  0
  160.9210  207.9840  153.7250 C   0  0  0  0  0  0  0  0  0  0  0  0
  161.7510  209.7020  151.6700 C   0  0  0  0  0  0  0  0  0  0  0  0
  160.5110  207.1480  154.7560 O   0  0  0  0  0  1  0  0  0  0  0  0
  161.5010  210.2060  152.9490 C   0  0  0  0  0  3  0  0  0  0  0  0
  161.1600  207.4650  152.4430 C   0  0  0  0  0  0  0  0  0  0  0  0
  161.5860  208.3310  151.4260 C   0  0  0  0  0  3  0  0  0  0  0  0
  161.0890  209.3500  153.9740 C   0  0  0  0  0  3  0  0  0  0  0  0
  162.1600  210.5810  150.6630 O   0  0  0  0  0  0  0  0  0  0  0  0
  162.0230  210.2910  149.2750 C   0  0  0  0  0  2  0  0  0  0  0  0
  162.2440  211.5410  148.4350 C   0  0  0  0  0  2  0  0  0  0  0  0
  161.2780  212.6480  148.8220 C   0  0  0  0  0  2  0  0  0  0  0  0
  161.5550  213.8790  148.0290 C   0  0  0  0  0  3  0  0  0  0  0  0
  162.8070  214.2770  147.8370 C   0  0  0  0  0  2  0  0  0  0  0  0
  1 11  1  0  0  0  0
  1  7  1  0  0  0  0
  2 18  1  0  0  0  0
  3  9  1  0  0  0  0
  4  6  1  0  0  0  0
  5  9  2  0  0  0  0
  6 11  2  0  0  0  0
  6  3  1  0  0  0  0
  8  4  2  0  0  0  0
  8 13  1  0  0  0  0
  9  2  1  0  0  0  0
 10  8  1  0  0  0  0
 11  5  1  0  0  0  0
 12  4  1  0  0  0  0
 13  1  2  0  0  0  0
 14 20  1  0  0  0  0
 14 16  1  0  0  0  0
 15 17  1  0  0  0  0
 17 20  2  0  0  0  0
 18 14  2  0  0  0  0
 19 15  2  0  0  0  0
 19 18  1  0  0  0  0
 21 15  1  0  0  0  0
 22 21  1  0  0  0  0
 23 24  1  0  0  0  0
 23 22  1  0  0  0  0
 25 24  1  0  0  0  0
 26 25  2  0  0  0  0
M  END
>  <MODEL>
2

>  <REMARK>
 VINA RESULT:      -7.8      3.104      5.507
  Name = 
  6 active torsions:
  status: ('A' for Active; 'I' for Inactive)
    1  A    between atoms: C_1  and  C_23
    2  A    between atoms: C_1  and  O_26
    3  A    between atoms: C_2  and  C_6
    4  A    between atoms: N_5  and  C_19
    5  A    between atoms: C_6  and  C_23
    6  A    between atoms: C_7  and  O_26
                            x       y       z     vdW  Elec       q    Type
                         _______ _______ _______ _____ _____    ______ ____

>  <TORSDO>
F 6

$$$$
=
 OpenBabel11072414233D

 26 28  0  0  0  0  0  0  0  0999 V2000
  161.8870  209.9190  150.7350 C   0  0  0  0  0  0  0  0  0  0  0  0
  161.6500  206.8140  147.0200 N   0  0  0  0  0  2  0  0  0  0  0  0
  161.1960  206.5240  149.5740 C   0  0  0  0  0  2  0  0  0  0  0  0
  161.0670  207.5140  151.9800 C   0  0  0  0  0  0  0  0  0  0  0  0
  161.8760  208.5690  148.6090 N   0  0  0  0  0  0  0  0  0  0  0  0
  161.3060  207.5810  150.6070 C   0  0  0  0  0  0  0  0  0  0  0  0
  162.3170  211.1830  150.0770 C   0  0  0  0  0  1  0  0  0  0  0  0
  161.2460  208.6860  152.7450 C   0  0  0  0  0  0  0  0  0  0  0  0
  161.6030  207.3250  148.3580 C   0  0  0  0  0  0  0  0  0  0  0  0
  161.0070  208.6800  154.2150 C   0  0  0  0  0  1  0  0  0  0  0  0
  161.7020  208.7430  150.0030 C   0  0  0  0  0  0  0  0  0  0  0  0
  160.6630  206.3220  152.5710 O   0  0  0  0  0  1  0  0  0  0  0  0
  161.6550  209.8820  152.1200 C   0  0  0  0  0  3  0  0  0  0  0  0
  161.0310  205.1780  145.3040 C   0  0  0  0  0  0  0  0  0  0  0  0
  161.5250  203.0560  147.0690 C   0  0  0  0  0  0  0  0  0  0  0  0
  160.7830  206.2160  144.4140 O   0  0  0  0  0  1  0  0  0  0  0  0
  161.0860  202.7990  145.7690 C   0  0  0  0  0  3  0  0  0  0  0  0
  161.4630  205.4510  146.6100 C   0  0  0  0  0  0  0  0  0  0  0  0
  161.7180  204.3820  147.4810 C   0  0  0  0  0  3  0  0  0  0  0  0
  160.8410  203.8560  144.8880 C   0  0  0  0  0  3  0  0  0  0  0  0
  161.7600  201.9800  147.9310 O   0  0  0  0  0  0  0  0  0  0  0  0
  160.7850  200.9800  148.2110 C   0  0  0  0  0  2  0  0  0  0  0  0
  159.9570  201.3560  149.4320 C   0  0  0  0  0  2  0  0  0  0  0  0
  160.8400  201.6390  150.6350 C   0  0  0  0  0  2  0  0  0  0  0  0
  160.8210  203.0940  150.9610 C   0  0  0  0  0  3  0  0  0  0  0  0
  161.8250  203.6340  151.6420 C   0  0  0  0  0  2  0  0  0  0  0  0
  1 13  1  0  0  0  0
  2  9  1  0  0  0  0
  3  6  1  0  0  0  0
  4 12  1  0  0  0  0
  4  8  1  0  0  0  0
  5 11  1  0  0  0  0
  6  4  2  0  0  0  0
  7  1  1  0  0  0  0
  8 10  1  0  0  0  0
  9  5  2  0  0  0  0
  9  3  1  0  0  0  0
 11  6  1  0  0  0  0
 11  1  2  0  0  0  0
 13  8  2  0  0  0  0
 14 18  1  0  0  0  0
 15 19  1  0  0  0  0
 15 21  1  0  0  0  0
 16 14  1  0  0  0  0
 17 15  2  0  0  0  0
 18  2  1  0  0  0  0
 18 19  2  0  0  0  0
 20 14  2  0  0  0  0
 20 17  1  0  0  0  0
 21 22  1  0  0  0  0
 22 23  1  0  0  0  0
 23 24  1  0  0  0  0
 24 25  1  0  0  0  0
 25 26  2  0  0  0  0
M  END
>  <MODEL>
3

>  <REMARK>
 VINA RESULT:      -7.8      2.671      7.775
  Name = 
  6 active torsions:
  status: ('A' for Active; 'I' for Inactive)
    1  A    between atoms: C_1  and  C_23
    2  A    between atoms: C_1  and  O_26
    3  A    between atoms: C_2  and  C_6
    4  A    between atoms: N_5  and  C_19
    5  A    between atoms: C_6  and  C_23
    6  A    between atoms: C_7  and  O_26
                            x       y       z     vdW  Elec       q    Type
                         _______ _______ _______ _____ _____    ______ ____

>  <TORSDO>
F 6

$$$$
=
 OpenBabel11072414233D

 26 28  0  0  0  0  0  0  0  0999 V2000
  161.5940  204.4130  146.6550 C   0  0  0  0  0  0  0  0  0  0  0  0
  161.7360  208.0700  149.8330 N   0  0  0  0  0  2  0  0  0  0  0  0
  161.2410  205.5230  150.1190 C   0  0  0  0  0  2  0  0  0  0  0  0
  161.0010  203.1330  149.1080 C   0  0  0  0  0  0  0  0  0  0  0  0
  161.7310  206.5170  148.0330 N   0  0  0  0  0  0  0  0  0  0  0  0
  161.2370  204.5070  149.0390 C   0  0  0  0  0  0  0  0  0  0  0  0
  161.9080  205.0870  145.3660 C   0  0  0  0  0  1  0  0  0  0  0  0
  161.0640  202.3860  147.9140 C   0  0  0  0  0  0  0  0  0  0  0  0
  161.5650  206.7510  149.2990 C   0  0  0  0  0  0  0  0  0  0  0  0
  160.8210  200.9170  147.9210 C   0  0  0  0  0  1  0  0  0  0  0  0
  161.5240  205.1270  147.8540 C   0  0  0  0  0  0  0  0  0  0  0  0
  160.7130  202.5260  150.3250 O   0  0  0  0  0  1  0  0  0  0  0  0
  161.3600  203.0290  146.6940 C   0  0  0  0  0  3  0  0  0  0  0  0
  161.4610  209.8600  151.4850 C   0  0  0  0  0  0  0  0  0  0  0  0
  161.0580  207.9860  153.5320 C   0  0  0  0  0  0  0  0  0  0  0  0
  161.6560  210.8040  150.4830 O   0  0  0  0  0  1  0  0  0  0  0  0
  161.0340  209.3530  153.8160 C   0  0  0  0  0  3  0  0  0  0  0  0
  161.4970  208.4900  151.1850 C   0  0  0  0  0  0  0  0  0  0  0  0
  161.2830  207.5620  152.2140 C   0  0  0  0  0  3  0  0  0  0  0  0
  161.2320  210.2880  152.7960 C   0  0  0  0  0  3  0  0  0  0  0  0
  160.8590  207.0730  154.5710 O   0  0  0  0  0  0  0  0  0  0  0  0
  159.7970  207.1870  155.5140 C   0  0  0  0  0  2  0  0  0  0  0  0
  160.3400  207.3640  156.9250 C   0  0  0  0  0  2  0  0  0  0  0  0
  160.7500  208.8040  157.1850 C   0  0  0  0  0  2  0  0  0  0  0  0
  162.2350  208.9160  157.2580 C   0  0  0  0  0  3  0  0  0  0  0  0
  162.8280  210.0700  156.9740 C   0  0  0  0  0  2  0  0  0  0  0  0
  1 13  2  0  0  0  0
  1 11  1  0  0  0  0
  2 18  1  0  0  0  0
  4 12  1  0  0  0  0
  5  9  2  0  0  0  0
  6  4  1  0  0  0  0
  6  3  1  0  0  0  0
  7  1  1  0  0  0  0
  8 10  1  0  0  0  0
  8  4  2  0  0  0  0
  9  2  1  0  0  0  0
  9  3  1  0  0  0  0
 11  5  1  0  0  0  0
 11  6  2  0  0  0  0
 13  8  1  0  0  0  0
 14 20  1  0  0  0  0
 15 17  1  0  0  0  0
 15 21  1  0  0  0  0
 16 14  1  0  0  0  0
 18 14  2  0  0  0  0
 18 19  1  0  0  0  0
 19 15  2  0  0  0  0
 20 17  2  0  0  0  0
 21 22  1  0  0  0  0
 22 23  1  0  0  0  0
 23 24  1  0  0  0  0
 24 25  1  0  0  0  0
 26 25  2  0  0  0  0
M  END
>  <MODEL>
4

>  <REMARK>
 VINA RESULT:      -7.6      1.728      2.834
  Name = 
  6 active torsions:
  status: ('A' for Active; 'I' for Inactive)
    1  A    between atoms: C_1  and  C_23
    2  A    between atoms: C_1  and  O_26
    3  A    between atoms: C_2  and  C_6
    4  A    between atoms: N_5  and  C_19
    5  A    between atoms: C_6  and  C_23
    6  A    between atoms: C_7  and  O_26
                            x       y       z     vdW  Elec       q    Type
                         _______ _______ _______ _____ _____    ______ ____

>  <TORSDO>
F 6

$$$$
=
 OpenBabel11072414233D

 26 28  0  0  0  0  0  0  0  0999 V2000
  161.0560  208.6910  155.9930 C   0  0  0  0  0  0  0  0  0  0  0  0
  161.4300  205.1720  152.6810 N   0  0  0  0  0  2  0  0  0  0  0  0
  160.8110  207.7010  152.4840 C   0  0  0  0  0  2  0  0  0  0  0  0
  160.4360  210.0340  153.5810 C   0  0  0  0  0  0  0  0  0  0  0  0
  161.3190  206.6520  154.5380 N   0  0  0  0  0  0  0  0  0  0  0  0
  160.7400  208.6730  153.6010 C   0  0  0  0  0  0  0  0  0  0  0  0
  161.3830  207.9840  157.2600 C   0  0  0  0  0  1  0  0  0  0  0  0
  160.4430  210.7370  154.8040 C   0  0  0  0  0  0  0  0  0  0  0  0
  161.1850  206.4600  153.2620 C   0  0  0  0  0  0  0  0  0  0  0  0
  160.1260  212.1910  154.8480 C   0  0  0  0  0  1  0  0  0  0  0  0
  161.0400  208.0220  154.7670 C   0  0  0  0  0  0  0  0  0  0  0  0
  160.1370  210.6740  152.3830 O   0  0  0  0  0  1  0  0  0  0  0  0
  160.7520  210.0630  156.0030 C   0  0  0  0  0  3  0  0  0  0  0  0
  161.0190  203.4450  150.9910 C   0  0  0  0  0  0  0  0  0  0  0  0
  161.0480  205.3600  148.9440 C   0  0  0  0  0  0  0  0  0  0  0  0
  160.9990  202.4810  151.9930 O   0  0  0  0  0  1  0  0  0  0  0  0
  160.8450  204.0120  148.6410 C   0  0  0  0  0  3  0  0  0  0  0  0
  161.2330  204.7940  151.3100 C   0  0  0  0  0  0  0  0  0  0  0  0
  161.2350  205.7450  150.2790 C   0  0  0  0  0  3  0  0  0  0  0  0
  160.8280  203.0570  149.6610 C   0  0  0  0  0  3  0  0  0  0  0  0
  161.0630  206.2950  147.9040 O   0  0  0  0  0  0  0  0  0  0  0  0
  162.2390  206.6240  147.1700 C   0  0  0  0  0  2  0  0  0  0  0  0
  162.3170  205.8210  145.8800 C   0  0  0  0  0  2  0  0  0  0  0  0
  160.9370  205.5830  145.2900 C   0  0  0  0  0  2  0  0  0  0  0  0
  160.9000  204.2830  144.5610 C   0  0  0  0  0  3  0  0  0  0  0  0
  160.8340  203.1440  145.2400 C   0  0  0  0  0  2  0  0  0  0  0  0
  1 13  1  0  0  0  0
  1  7  1  0  0  0  0
  2  9  1  0  0  0  0
  3  9  1  0  0  0  0
  3  6  1  0  0  0  0
  4  6  2  0  0  0  0
  4  8  1  0  0  0  0
  5 11  1  0  0  0  0
  6 11  1  0  0  0  0
  8 10  1  0  0  0  0
  8 13  2  0  0  0  0
  9  5  2  0  0  0  0
 11  1  2  0  0  0  0
 12  4  1  0  0  0  0
 14 18  1  0  0  0  0
 14 16  1  0  0  0  0
 15 19  1  0  0  0  0
 17 15  2  0  0  0  0
 17 20  1  0  0  0  0
 18  2  1  0  0  0  0
 19 18  2  0  0  0  0
 20 14  2  0  0  0  0
 21 15  1  0  0  0  0
 22 21  1  0  0  0  0
 23 22  1  0  0  0  0
 24 23  1  0  0  0  0
 25 26  2  0  0  0  0
 25 24  1  0  0  0  0
M  END
>  <MODEL>
5

>  <REMARK>
 VINA RESULT:      -7.5      2.181      8.379
  Name = 
  6 active torsions:
  status: ('A' for Active; 'I' for Inactive)
    1  A    between atoms: C_1  and  C_23
    2  A    between atoms: C_1  and  O_26
    3  A    between atoms: C_2  and  C_6
    4  A    between atoms: N_5  and  C_19
    5  A    between atoms: C_6  and  C_23
    6  A    between atoms: C_7  and  O_26
                            x       y       z     vdW  Elec       q    Type
                         _______ _______ _______ _____ _____    ______ ____

>  <TORSDO>
F 6

$$$$
=
 OpenBabel11072414233D

 26 28  0  0  0  0  0  0  0  0999 V2000
  161.1480  207.3960  153.1780 C   0  0  0  0  0  0  0  0  0  0  0  0
  160.8900  203.3410  150.5360 N   0  0  0  0  0  2  0  0  0  0  0  0
  161.3420  205.8280  149.8830 C   0  0  0  0  0  2  0  0  0  0  0  0
  161.6470  208.3270  150.5530 C   0  0  0  0  0  0  0  0  0  0  0  0
  160.9360  205.1290  152.1020 N   0  0  0  0  0  0  0  0  0  0  0  0
  161.3970  206.9800  150.8150 C   0  0  0  0  0  0  0  0  0  0  0  0
  160.8860  206.9050  154.5580 C   0  0  0  0  0  1  0  0  0  0  0  0
  161.6450  209.2280  151.6380 C   0  0  0  0  0  0  0  0  0  0  0  0
  161.0300  204.7270  150.8720 C   0  0  0  0  0  0  0  0  0  0  0  0
  161.9050  210.6780  151.4240 C   0  0  0  0  0  1  0  0  0  0  0  0
  161.1550  206.5280  152.0840 C   0  0  0  0  0  0  0  0  0  0  0  0
  161.8920  208.7610  149.2550 O   0  0  0  0  0  1  0  0  0  0  0  0
  161.3950  208.7590  152.9440 C   0  0  0  0  0  3  0  0  0  0  0  0
  160.2610  201.5270  149.0120 C   0  0  0  0  0  0  0  0  0  0  0  0
  161.4460  202.8600  146.8470 C   0  0  0  0  0  0  0  0  0  0  0  0
  159.6660  200.8540  150.0710 O   0  0  0  0  0  1  0  0  0  0  0  0
  160.8350  201.6180  146.6590 C   0  0  0  0  0  3  0  0  0  0  0  0
  160.8790  202.7700  149.2190 C   0  0  0  0  0  0  0  0  0  0  0  0
  161.4590  203.4320  148.1280 C   0  0  0  0  0  3  0  0  0  0  0  0
  160.2420  200.9550  147.7360 C   0  0  0  0  0  3  0  0  0  0  0  0
  162.0340  203.5010  145.7530 O   0  0  0  0  0  0  0  0  0  0  0  0
  163.0410  204.5000  145.8850 C   0  0  0  0  0  2  0  0  0  0  0  0
  162.5640  205.8290  145.3150 C   0  0  0  0  0  2  0  0  0  0  0  0
  161.2870  205.6600  144.5080 C   0  0  0  0  0  2  0  0  0  0  0  0
  160.1230  206.2120  145.2590 C   0  0  0  0  0  3  0  0  0  0  0  0
  160.2670  206.5870  146.5250 C   0  0  0  0  0  2  0  0  0  0  0  0
  1  7  1  0  0  0  0
  2  9  1  0  0  0  0
  3  6  1  0  0  0  0
  3  9  1  0  0  0  0
  4  6  2  0  0  0  0
  4  8  1  0  0  0  0
  6 11  1  0  0  0  0
  8 13  2  0  0  0  0
  9  5  2  0  0  0  0
 10  8  1  0  0  0  0
 11  5  1  0  0  0  0
 11  1  2  0  0  0  0
 12  4  1  0  0  0  0
 13  1  1  0  0  0  0
 14 18  1  0  0  0  0
 14 16  1  0  0  0  0
 15 19  1  0  0  0  0
 17 15  2  0  0  0  0
 17 20  1  0  0  0  0
 18  2  1  0  0  0  0
 19 18  2  0  0  0  0
 20 14  2  0  0  0  0
 21 22  1  0  0  0  0
 21 15  1  0  0  0  0
 23 22  1  0  0  0  0
 24 25  1  0  0  0  0
 24 23  1  0  0  0  0
 25 26  2  0  0  0  0
M  END
>  <MODEL>
6

>  <REMARK>
 VINA RESULT:      -7.5      2.974      8.772
  Name = 
  6 active torsions:
  status: ('A' for Active; 'I' for Inactive)
    1  A    between atoms: C_1  and  C_23
    2  A    between atoms: C_1  and  O_26
    3  A    between atoms: C_2  and  C_6
    4  A    between atoms: N_5  and  C_19
    5  A    between atoms: C_6  and  C_23
    6  A    between atoms: C_7  and  O_26
                            x       y       z     vdW  Elec       q    Type
                         _______ _______ _______ _____ _____    ______ ____

>  <TORSDO>
F 6

$$$$
=
 OpenBabel11072414233D

 26 28  0  0  0  0  0  0  0  0999 V2000
  161.2030  203.8460  150.7500 C   0  0  0  0  0  0  0  0  0  0  0  0
  161.0440  207.1670  154.2770 N   0  0  0  0  0  2  0  0  0  0  0  0
  161.0960  207.3790  151.6750 C   0  0  0  0  0  2  0  0  0  0  0  0
  161.1540  206.2820  149.3130 C   0  0  0  0  0  0  0  0  0  0  0  0
  161.1380  205.3040  152.8020 N   0  0  0  0  0  0  0  0  0  0  0  0
  161.1400  206.2570  150.7080 C   0  0  0  0  0  0  0  0  0  0  0  0
  161.2290  202.5650  151.5080 C   0  0  0  0  0  1  0  0  0  0  0  0
  161.1940  205.0520  148.6240 C   0  0  0  0  0  0  0  0  0  0  0  0
  161.1090  206.5910  152.9660 C   0  0  0  0  0  0  0  0  0  0  0  0
  161.2100  205.0120  147.1360 C   0  0  0  0  0  1  0  0  0  0  0  0
  161.1640  205.0790  151.4040 C   0  0  0  0  0  0  0  0  0  0  0  0
  161.1260  207.4920  148.6270 O   0  0  0  0  0  1  0  0  0  0  0  0
  161.2190  203.8400  149.3450 C   0  0  0  0  0  3  0  0  0  0  0  0
  161.5720  208.9520  155.8710 C   0  0  0  0  0  0  0  0  0  0  0  0
  160.7530  210.9090  154.0360 C   0  0  0  0  0  0  0  0  0  0  0  0
  161.9840  207.9980  156.7920 O   0  0  0  0  0  1  0  0  0  0  0  0
  161.2190  211.2810  155.2980 C   0  0  0  0  0  3  0  0  0  0  0  0
  161.0970  208.5620  154.6090 C   0  0  0  0  0  0  0  0  0  0  0  0
  160.7010  209.5490  153.6950 C   0  0  0  0  0  3  0  0  0  0  0  0
  161.6290  210.3070  156.2120 C   0  0  0  0  0  3  0  0  0  0  0  0
  160.3470  211.9040  153.1410 O   0  0  0  0  0  0  0  0  0  0  0  0
  159.0280  211.9780  152.6060 C   0  0  0  0  0  2  0  0  0  0  0  0
  158.1130  212.7720  153.5280 C   0  0  0  0  0  2  0  0  0  0  0  0
  157.1240  211.8680  154.2430 C   0  0  0  0  0  2  0  0  0  0  0  0
  157.4960  211.7270  155.6810 C   0  0  0  0  0  3  0  0  0  0  0  0
  158.0070  212.7610  156.3380 C   0  0  0  0  0  2  0  0  0  0  0  0
  1 11  1  0  0  0  0
  1  7  1  0  0  0  0
  2 18  1  0  0  0  0
  3  9  1  0  0  0  0
  4  6  1  0  0  0  0
  5  9  2  0  0  0  0
  6 11  2  0  0  0  0
  6  3  1  0  0  0  0
  8  4  2  0  0  0  0
  8 13  1  0  0  0  0
  9  2  1  0  0  0  0
 10  8  1  0  0  0  0
 11  5  1  0  0  0  0
 12  4  1  0  0  0  0
 13  1  2  0  0  0  0
 14 20  1  0  0  0  0
 14 16  1  0  0  0  0
 15 17  1  0  0  0  0
 17 20  2  0  0  0  0
 18 14  2  0  0  0  0
 19 15  2  0  0  0  0
 19 18  1  0  0  0  0
 21 15  1  0  0  0  0
 22 21  1  0  0  0  0
 22 23  1  0  0  0  0
 23 24  1  0  0  0  0
 24 25  1  0  0  0  0
 25 26  2  0  0  0  0
M  END
>  <MODEL>
7

>  <REMARK>
 VINA RESULT:      -7.4      2.132      4.016
  Name = 
  6 active torsions:
  status: ('A' for Active; 'I' for Inactive)
    1  A    between atoms: C_1  and  C_23
    2  A    between atoms: C_1  and  O_26
    3  A    between atoms: C_2  and  C_6
    4  A    between atoms: N_5  and  C_19
    5  A    between atoms: C_6  and  C_23
    6  A    between atoms: C_7  and  O_26
                            x       y       z     vdW  Elec       q    Type
                         _______ _______ _______ _____ _____    ______ ____

>  <TORSDO>
F 6

$$$$
=
 OpenBabel11072414233D

 26 28  0  0  0  0  0  0  0  0999 V2000
  161.5790  203.8130  146.7960 C   0  0  0  0  0  0  0  0  0  0  0  0
  162.1450  208.3400  148.4330 N   0  0  0  0  0  2  0  0  0  0  0  0
  161.3550  206.1430  149.6020 C   0  0  0  0  0  2  0  0  0  0  0  0
  160.8390  203.5910  149.5180 C   0  0  0  0  0  0  0  0  0  0  0  0
  161.9600  206.2460  147.3210 N   0  0  0  0  0  0  0  0  0  0  0  0
  161.2340  204.8100  148.9650 C   0  0  0  0  0  0  0  0  0  0  0  0
  161.9700  203.9320  145.3650 C   0  0  0  0  0  1  0  0  0  0  0  0
  160.8150  202.4570  148.6800 C   0  0  0  0  0  0  0  0  0  0  0  0
  161.8220  206.9440  148.4070 C   0  0  0  0  0  0  0  0  0  0  0  0
  160.4020  201.1280  149.2090 C   0  0  0  0  0  1  0  0  0  0  0  0
  161.5920  204.9190  147.6490 C   0  0  0  0  0  0  0  0  0  0  0  0
  160.4810  203.5050  150.8590 O   0  0  0  0  0  1  0  0  0  0  0  0
  161.1840  202.5730  147.3240 C   0  0  0  0  0  3  0  0  0  0  0  0
  161.7630  210.6130  149.2670 C   0  0  0  0  0  0  0  0  0  0  0  0
  161.7670  209.7010  151.9190 C   0  0  0  0  0  0  0  0  0  0  0  0
  161.7560  211.0830  147.9600 O   0  0  0  0  0  1  0  0  0  0  0  0
  161.5840  211.0570  151.6430 C   0  0  0  0  0  3  0  0  0  0  0  0
  161.9570  209.2480  149.5290 C   0  0  0  0  0  0  0  0  0  0  0  0
  161.9460  208.8010  150.8580 C   0  0  0  0  0  3  0  0  0  0  0  0
  161.5800  211.5120  150.3220 C   0  0  0  0  0  3  0  0  0  0  0  0
  161.7690  209.2730  153.2500 O   0  0  0  0  0  0  0  0  0  0  0  0
  160.7880  209.6800  154.2000 C   0  0  0  0  0  2  0  0  0  0  0  0
  160.6820  208.6720  155.3360 C   0  0  0  0  0  2  0  0  0  0  0  0
  160.2450  207.3080  154.8290 C   0  0  0  0  0  2  0  0  0  0  0  0
  161.4030  206.5820  154.2320 C   0  0  0  0  0  3  0  0  0  0  0  0
  161.2020  205.7010  153.2580 C   0  0  0  0  0  2  0  0  0  0  0  0
  1 13  2  0  0  0  0
  1 11  1  0  0  0  0
  2 18  1  0  0  0  0
  4 12  1  0  0  0  0
  5 11  1  0  0  0  0
  5  9  2  0  0  0  0
  6  4  1  0  0  0  0
  6  3  1  0  0  0  0
  7  1  1  0  0  0  0
  8 10  1  0  0  0  0
  8  4  2  0  0  0  0
  9  2  1  0  0  0  0
  9  3  1  0  0  0  0
 11  6  2  0  0  0  0
 13  8  1  0  0  0  0
 14 18  2  0  0  0  0
 14 20  1  0  0  0  0
 15 21  1  0  0  0  0
 16 14  1  0  0  0  0
 17 15  1  0  0  0  0
 18 19  1  0  0  0  0
 19 15  2  0  0  0  0
 20 17  2  0  0  0  0
 21 22  1  0  0  0  0
 22 23  1  0  0  0  0
 24 23  1  0  0  0  0
 25 24  1  0  0  0  0
 26 25  2  0  0  0  0
M  END
>  <MODEL>
8

>  <REMARK>
 VINA RESULT:      -7.1      2.096      3.100
  Name = 
  6 active torsions:
  status: ('A' for Active; 'I' for Inactive)
    1  A    between atoms: C_1  and  C_23
    2  A    between atoms: C_1  and  O_26
    3  A    between atoms: C_2  and  C_6
    4  A    between atoms: N_5  and  C_19
    5  A    between atoms: C_6  and  C_23
    6  A    between atoms: C_7  and  O_26
                            x       y       z     vdW  Elec       q    Type
                         _______ _______ _______ _____ _____    ______ ____

>  <TORSDO>
F 6

$$$$
=
 OpenBabel11072414233D

 26 28  0  0  0  0  0  0  0  0999 V2000
  161.2210  204.0420  150.8100 C   0  0  0  0  0  0  0  0  0  0  0  0
  161.0200  207.2980  154.3950 N   0  0  0  0  0  2  0  0  0  0  0  0
  161.1080  207.5580  151.7980 C   0  0  0  0  0  2  0  0  0  0  0  0
  161.1960  206.5050  149.4170 C   0  0  0  0  0  0  0  0  0  0  0  0
  161.1310  205.4620  152.8870 N   0  0  0  0  0  0  0  0  0  0  0  0
  161.1630  206.4530  150.8110 C   0  0  0  0  0  0  0  0  0  0  0  0
  161.2330  202.7470  151.5440 C   0  0  0  0  0  1  0  0  0  0  0  0
  161.2430  205.2870  148.7070 C   0  0  0  0  0  0  0  0  0  0  0  0
  161.1010  206.7460  153.0740 C   0  0  0  0  0  0  0  0  0  0  0  0
  161.2800  205.2750  147.2190 C   0  0  0  0  0  1  0  0  0  0  0  0
  161.1760  205.2630  151.4860 C   0  0  0  0  0  0  0  0  0  0  0  0
  161.1810  207.7270  148.7540 O   0  0  0  0  0  1  0  0  0  0  0  0
  161.2560  204.0630  149.4060 C   0  0  0  0  0  3  0  0  0  0  0  0
  161.5760  209.0560  156.0100 C   0  0  0  0  0  0  0  0  0  0  0  0
  160.6940  211.0410  154.2370 C   0  0  0  0  0  0  0  0  0  0  0  0
  162.0200  208.0860  156.9010 O   0  0  0  0  0  1  0  0  0  0  0  0
  161.1900  211.3920  155.4940 C   0  0  0  0  0  3  0  0  0  0  0  0
  161.0710  208.6870  154.7530 C   0  0  0  0  0  0  0  0  0  0  0  0
  160.6440  209.6890  153.8700 C   0  0  0  0  0  3  0  0  0  0  0  0
  161.6320  210.4040  156.3770 C   0  0  0  0  0  3  0  0  0  0  0  0
  160.2570  212.0510  153.3730 O   0  0  0  0  0  0  0  0  0  0  0  0
  159.0830  211.9360  152.5740 C   0  0  0  0  0  2  0  0  0  0  0  0
  158.4760  213.3050  152.3020 C   0  0  0  0  0  2  0  0  0  0  0  0
  158.5600  213.6670  150.8290 C   0  0  0  0  0  2  0  0  0  0  0  0
  159.9800  213.8880  150.4290 C   0  0  0  0  0  3  0  0  0  0  0  0
  160.4240  213.4090  149.2730 C   0  0  0  0  0  2  0  0  0  0  0  0
  1 11  1  0  0  0  0
  1  7  1  0  0  0  0
  2 18  1  0  0  0  0
  3  9  1  0  0  0  0
  4  6  1  0  0  0  0
  5  9  2  0  0  0  0
  6 11  2  0  0  0  0
  6  3  1  0  0  0  0
  8 13  1  0  0  0  0
  8  4  2  0  0  0  0
  9  2  1  0  0  0  0
 10  8  1  0  0  0  0
 11  5  1  0  0  0  0
 12  4  1  0  0  0  0
 13  1  2  0  0  0  0
 14 20  1  0  0  0  0
 14 16  1  0  0  0  0
 15 17  1  0  0  0  0
 17 20  2  0  0  0  0
 18 14  2  0  0  0  0
 19 15  2  0  0  0  0
 19 18  1  0  0  0  0
 21 15  1  0  0  0  0
 22 21  1  0  0  0  0
 23 22  1  0  0  0  0
 24 23  1  0  0  0  0
 25 24  1  0  0  0  0
 26 25  2  0  0  0  0
M  END
>  <MODEL>
9

>  <REMARK>
 VINA RESULT:      -7.1      2.351      4.647
  Name = 
  6 active torsions:
  status: ('A' for Active; 'I' for Inactive)
    1  A    between atoms: C_1  and  C_23
    2  A    between atoms: C_1  and  O_26
    3  A    between atoms: C_2  and  C_6
    4  A    between atoms: N_5  and  C_19
    5  A    between atoms: C_6  and  C_23
    6  A    between atoms: C_7  and  O_26
                            x       y       z     vdW  Elec       q    Type
                         _______ _______ _______ _____ _____    ______ ____

>  <TORSDO>
F 6

$$$$
