=
 OpenBabel11072413163D

 27 30  0  0  1  0  0  0  0  0999 V2000
  160.9150  208.0970  151.7880 C   0  0  1  0  0  3  0  0  0  0  0  0
  161.7000  208.7000  150.6250 C   0  0  2  0  0  0  0  0  0  0  0  0
  162.0430  207.8040  149.5990 O   0  0  0  0  0  0  0  0  0  0  0  0
  162.7730  207.6810  150.7960 C   0  0  2  0  0  3  0  0  0  0  0  0
  161.9720  207.0160  151.9150 C   0  0  2  0  0  3  0  0  0  0  0  0
  160.0780  212.3890  153.3610 O   0  0  0  0  0  0  0  0  0  0  0  0
  160.5710  209.8240  155.9030 C   0  0  0  0  0  0  0  0  0  0  0  0
  159.8560  210.0810  152.8630 C   0  0  0  0  0  2  0  0  0  0  0  0
  160.5720  208.2240  154.1530 O   0  0  0  0  0  0  0  0  0  0  0  0
  160.0730  211.2160  153.8170 C   0  0  0  0  0  0  0  0  0  0  0  0
  161.3390  208.7590  155.1900 C   0  0  0  0  0  2  0  0  0  0  0  0
  160.1600  211.0230  155.2360 N   0  0  0  0  0  2  0  0  0  0  0  0
  160.8990  208.9890  153.0290 C   0  0  1  0  0  3  0  0  0  0  0  0
  160.3390  209.6920  157.1330 O   0  0  0  0  0  0  0  0  0  0  0  0
  160.9590  203.9960  149.8150 C   0  0  0  0  0  0  0  0  0  0  0  0
  160.7370  203.4160  152.1600 C   0  0  0  0  0  3  0  0  0  0  0  0
  160.6370  203.0640  150.8130 C   0  0  0  0  0  3  0  0  0  0  0  0
  161.4520  205.6520  151.5300 C   0  0  0  0  0  0  0  0  0  0  0  0
  161.1520  204.7010  152.5180 C   0  0  0  0  0  3  0  0  0  0  0  0
  161.3750  205.2800  150.1800 C   0  0  0  0  0  3  0  0  0  0  0  0
  160.8720  203.6430  148.3640 C   0  0  0  0  0  3  0  0  0  0  0  0
  161.8860  204.4280  147.5490 C   0  0  0  0  0  1  0  0  0  0  0  0
  161.0690  202.1550  148.1480 C   0  0  0  0  0  1  0  0  0  0  0  0
  162.3770  210.0640  150.6460 C   0  0  0  0  0  2  0  0  0  0  0  0
  161.8420  210.9180  149.5500 C   0  0  0  0  0  0  0  0  0  0  0  0
  161.9830  210.5650  148.3500 O   0  0  0  0  0  0  0  0  0  0  0  0
  161.2160  212.1200  149.8480 O   0  0  0  0  0  1  0  0  0  0  0  0
  1  5  1  0  0  0  0
  1 13  1  1  0  0  0
  2 24  1  6  0  0  0
  2  4  1  0  0  0  0
  2  1  1  0  0  0  0
  3  2  1  0  0  0  0
  4  3  1  6  0  0  0
  4  5  1  0  0  0  0
  5 18  1  6  0  0  0
  6 10  2  0  0  0  0
  7 14  2  0  0  0  0
  8 10  1  0  0  0  0
  9 11  1  0  0  0  0
 10 12  1  0  0  0  0
 11  7  1  0  0  0  0
 12  7  1  0  0  0  0
 13  8  1  6  0  0  0
 13  9  1  0  0  0  0
 15 20  2  0  0  0  0
 15 17  1  0  0  0  0
 16 19  1  0  0  0  0
 17 16  2  0  0  0  0
 18 19  2  0  0  0  0
 20 18  1  0  0  0  0
 21 15  1  0  0  0  0
 22 21  1  0  0  0  0
 23 21  1  0  0  0  0
 25 27  1  0  0  0  0
 25 24  1  0  0  0  0
 26 25  2  0  0  0  0
M  END
>  <MODEL>
1

>  <REMARK>
 VINA RESULT:      -8.7      0.000      0.000
  Name = 
  5 active torsions:
  status: ('A' for Active; 'I' for Inactive)
    1  A    between atoms: C_1  and  C_17
    2  A    between atoms: C_4  and  C_7
    3  A    between atoms: C_9  and  C_24
    4  A    between atoms: C_10  and  C_17
    5  A    between atoms: C_21  and  C_27
                            x       y       z     vdW  Elec       q    Type
                         _______ _______ _______ _____ _____    ______ ____

>  <TORSDO>
F 5

$$$$
=
 OpenBabel11072413163D

 27 30  0  0  1  0  0  0  0  0999 V2000
  160.6880  208.0110  152.6610 C   0  0  1  0  0  3  0  0  0  0  0  0
  161.0090  209.1300  151.6740 C   0  0  2  0  0  0  0  0  0  0  0  0
  161.1730  208.7280  150.3380 O   0  0  0  0  0  0  0  0  0  0  0  0
  162.2260  208.4020  151.2140 C   0  0  2  0  0  3  0  0  0  0  0  0
  161.8850  207.2370  152.1430 C   0  0  2  0  0  3  0  0  0  0  0  0
  159.7670  206.8950  157.0780 O   0  0  0  0  0  0  0  0  0  0  0  0
  162.2290  209.5350  156.5780 C   0  0  0  0  0  0  0  0  0  0  0  0
  160.8820  207.1830  155.0050 C   0  0  0  0  0  2  0  0  0  0  0  0
  162.1350  209.0550  154.2580 O   0  0  0  0  0  0  0  0  0  0  0  0
  160.6540  207.5260  156.4450 C   0  0  0  0  0  0  0  0  0  0  0  0
  161.9230  210.0540  155.2100 C   0  0  0  0  0  2  0  0  0  0  0  0
  161.4790  208.4610  157.1560 N   0  0  0  0  0  2  0  0  0  0  0  0
  160.8960  208.4190  154.1200 C   0  0  1  0  0  3  0  0  0  0  0  0
  163.1220  210.1010  157.2610 O   0  0  0  0  0  0  0  0  0  0  0  0
  161.1750  204.8110  149.2850 C   0  0  0  0  0  0  0  0  0  0  0  0
  160.9260  203.6240  151.3850 C   0  0  0  0  0  3  0  0  0  0  0  0
  160.8950  203.6310  149.9900 C   0  0  0  0  0  3  0  0  0  0  0  0
  161.4850  205.9890  151.3920 C   0  0  0  0  0  0  0  0  0  0  0  0
  161.2290  204.7950  152.0840 C   0  0  0  0  0  3  0  0  0  0  0  0
  161.4790  205.9800  149.9900 C   0  0  0  0  0  3  0  0  0  0  0  0
  161.1610  204.8460  147.7890 C   0  0  0  0  0  3  0  0  0  0  0  0
  162.0940  205.9200  147.2580 C   0  0  0  0  0  1  0  0  0  0  0  0
  161.5330  203.4970  147.2050 C   0  0  0  0  0  1  0  0  0  0  0  0
  161.4550  210.5340  152.0620 C   0  0  0  0  0  2  0  0  0  0  0  0
  160.2840  211.4540  152.0880 C   0  0  0  0  0  0  0  0  0  0  0  0
  160.2550  212.4580  151.3310 O   0  0  0  0  0  0  0  0  0  0  0  0
  159.2390  211.2230  152.9720 O   0  0  0  0  0  1  0  0  0  0  0  0
  1 13  1  1  0  0  0
  2 24  1  1  0  0  0
  2  1  1  0  0  0  0
  3  2  1  0  0  0  0
  4  3  1  6  0  0  0
  4  2  1  0  0  0  0
  4  5  1  0  0  0  0
  5 18  1  6  0  0  0
  5  1  1  0  0  0  0
  7 12  1  0  0  0  0
  7 14  2  0  0  0  0
  8 10  1  0  0  0  0
  9 11  1  0  0  0  0
 10  6  2  0  0  0  0
 10 12  1  0  0  0  0
 11  7  1  0  0  0  0
 13  9  1  0  0  0  0
 13  8  1  1  0  0  0
 15 17  2  0  0  0  0
 15 20  1  0  0  0  0
 16 19  2  0  0  0  0
 17 16  1  0  0  0  0
 18 19  1  0  0  0  0
 20 18  2  0  0  0  0
 21 15  1  0  0  0  0
 22 21  1  0  0  0  0
 23 21  1  0  0  0  0
 24 25  1  0  0  0  0
 25 27  1  0  0  0  0
 26 25  2  0  0  0  0
M  END
>  <MODEL>
2

>  <REMARK>
 VINA RESULT:      -8.1      1.606      2.492
  Name = 
  5 active torsions:
  status: ('A' for Active; 'I' for Inactive)
    1  A    between atoms: C_1  and  C_17
    2  A    between atoms: C_4  and  C_7
    3  A    between atoms: C_9  and  C_24
    4  A    between atoms: C_10  and  C_17
    5  A    between atoms: C_21  and  C_27
                            x       y       z     vdW  Elec       q    Type
                         _______ _______ _______ _____ _____    ______ ____

>  <TORSDO>
F 5

$$$$
=
 OpenBabel11072413163D

 27 30  0  0  1  0  0  0  0  0999 V2000
  160.5850  205.0300  149.8640 C   0  0  1  0  0  3  0  0  0  0  0  0
  160.6470  203.6980  150.6080 C   0  0  2  0  0  0  0  0  0  0  0  0
  160.6000  203.7860  152.0100 O   0  0  0  0  0  0  0  0  0  0  0  0
  161.8100  204.1760  151.4070 C   0  0  2  0  0  3  0  0  0  0  0  0
  161.7220  205.5420  150.7270 C   0  0  2  0  0  3  0  0  0  0  0  0
  159.6630  206.4150  145.5250 O   0  0  0  0  0  0  0  0  0  0  0  0
  162.8160  204.6500  146.0020 C   0  0  0  0  0  0  0  0  0  0  0  0
  160.6600  206.2020  147.6660 C   0  0  0  0  0  2  0  0  0  0  0  0
  162.4040  204.7390  148.3360 O   0  0  0  0  0  0  0  0  0  0  0  0
  160.6600  206.0140  146.1790 C   0  0  0  0  0  0  0  0  0  0  0  0
  162.6010  203.8710  147.2590 C   0  0  0  0  0  2  0  0  0  0  0  0
  161.7960  205.5020  145.4670 N   0  0  0  0  0  2  0  0  0  0  0  0
  161.0180  204.9220  148.4020 C   0  0  1  0  0  3  0  0  0  0  0  0
  163.8910  204.5010  145.3660 O   0  0  0  0  0  0  0  0  0  0  0  0
  160.9220  207.4360  153.9400 C   0  0  0  0  0  0  0  0  0  0  0  0
  160.6690  208.9550  152.0660 C   0  0  0  0  0  3  0  0  0  0  0  0
  160.6220  208.7120  153.4400 C   0  0  0  0  0  3  0  0  0  0  0  0
  161.2840  206.6370  151.6700 C   0  0  0  0  0  0  0  0  0  0  0  0
  161.0070  207.9250  151.1850 C   0  0  0  0  0  3  0  0  0  0  0  0
  161.2620  206.4100  153.0540 C   0  0  0  0  0  3  0  0  0  0  0  0
  160.8920  207.1500  155.4090 C   0  0  0  0  0  3  0  0  0  0  0  0
  161.6740  208.1940  156.1860 C   0  0  0  0  0  1  0  0  0  0  0  0
  159.4670  207.0760  155.9240 C   0  0  0  0  0  1  0  0  0  0  0  0
  161.0540  202.3690  149.9840 C   0  0  0  0  0  2  0  0  0  0  0  0
  159.9310  201.8150  149.1790 C   0  0  0  0  0  0  0  0  0  0  0  0
  158.8950  201.3910  149.7520 O   0  0  0  0  0  1  0  0  0  0  0  0
  160.0390  201.7380  147.7970 O   0  0  0  0  0  0  0  0  0  0  0  0
  1 13  1  6  0  0  0
  1  2  1  0  0  0  0
  1  5  1  0  0  0  0
  2 24  1  6  0  0  0
  2  4  1  0  0  0  0
  2  3  1  0  0  0  0
  4  3  1  1  0  0  0
  5  4  1  0  0  0  0
  5 18  1  1  0  0  0
  6 10  2  0  0  0  0
  7 11  1  0  0  0  0
  9 13  1  0  0  0  0
 10  8  1  0  0  0  0
 11  9  1  0  0  0  0
 12  7  1  0  0  0  0
 12 10  1  0  0  0  0
 13  8  1  6  0  0  0
 14  7  2  0  0  0  0
 15 21  1  0  0  0  0
 16 17  2  0  0  0  0
 17 15  1  0  0  0  0
 18 20  1  0  0  0  0
 19 18  2  0  0  0  0
 19 16  1  0  0  0  0
 20 15  2  0  0  0  0
 21 23  1  0  0  0  0
 21 22  1  0  0  0  0
 25 26  1  0  0  0  0
 25 24  1  0  0  0  0
 27 25  2  0  0  0  0
M  END
>  <MODEL>
3

>  <REMARK>
 VINA RESULT:      -8.1      4.018      7.781
  Name = 
  5 active torsions:
  status: ('A' for Active; 'I' for Inactive)
    1  A    between atoms: C_1  and  C_17
    2  A    between atoms: C_4  and  C_7
    3  A    between atoms: C_9  and  C_24
    4  A    between atoms: C_10  and  C_17
    5  A    between atoms: C_21  and  C_27
                            x       y       z     vdW  Elec       q    Type
                         _______ _______ _______ _____ _____    ______ ____

>  <TORSDO>
F 5

$$$$
=
 OpenBabel11072413163D

 27 30  0  0  1  0  0  0  0  0999 V2000
  160.6550  204.7320  150.0470 C   0  0  1  0  0  3  0  0  0  0  0  0
  160.6750  203.3320  150.6560 C   0  0  2  0  0  0  0  0  0  0  0  0
  160.6820  203.2850  152.0600 O   0  0  0  0  0  0  0  0  0  0  0  0
  161.8890  203.6750  151.4500 C   0  0  2  0  0  3  0  0  0  0  0  0
  161.8460  205.1040  150.9090 C   0  0  2  0  0  3  0  0  0  0  0  0
  159.5790  206.4920  145.8820 O   0  0  0  0  0  0  0  0  0  0  0  0
  162.7330  204.6760  146.0820 C   0  0  0  0  0  0  0  0  0  0  0  0
  160.6560  206.0900  147.9560 C   0  0  0  0  0  2  0  0  0  0  0  0
  162.4110  204.5650  148.4290 O   0  0  0  0  0  0  0  0  0  0  0  0
  160.5980  206.0310  146.4600 C   0  0  0  0  0  0  0  0  0  0  0  0
  162.5600  203.7930  147.2760 C   0  0  0  0  0  2  0  0  0  0  0  0
  161.7000  205.5760  145.6630 N   0  0  0  0  0  2  0  0  0  0  0  0
  161.0310  204.7490  148.5650 C   0  0  1  0  0  3  0  0  0  0  0  0
  163.7820  204.5770  145.3950 O   0  0  0  0  0  0  0  0  0  0  0  0
  160.8950  208.3970  152.5850 C   0  0  0  0  0  0  0  0  0  0  0  0
  160.8730  206.6430  154.2610 C   0  0  0  0  0  3  0  0  0  0  0  0
  160.6920  207.9820  153.9100 C   0  0  0  0  0  3  0  0  0  0  0  0
  161.4960  206.1200  151.9700 C   0  0  0  0  0  0  0  0  0  0  0  0
  161.2640  205.7140  153.2940 C   0  0  0  0  0  3  0  0  0  0  0  0
  161.2850  207.4620  151.6210 C   0  0  0  0  0  3  0  0  0  0  0  0
  160.6980  209.8230  152.1770 C   0  0  0  0  0  3  0  0  0  0  0  0
  160.7090  210.7440  153.3850 C   0  0  0  0  0  1  0  0  0  0  0  0
  161.7530  210.2600  151.1790 C   0  0  0  0  0  1  0  0  0  0  0  0
  160.9940  202.0540  149.8910 C   0  0  0  0  0  2  0  0  0  0  0  0
  159.8410  201.6710  149.0310 C   0  0  0  0  0  0  0  0  0  0  0  0
  158.7300  201.3960  149.5530 O   0  0  0  0  0  1  0  0  0  0  0  0
  159.9980  201.5880  147.6540 O   0  0  0  0  0  0  0  0  0  0  0  0
  1 13  1  6  0  0  0
  1  2  1  0  0  0  0
  1  5  1  0  0  0  0
  2 24  1  6  0  0  0
  2  4  1  0  0  0  0
  2  3  1  0  0  0  0
  4  3  1  1  0  0  0
  5  4  1  0  0  0  0
  5 18  1  1  0  0  0
  6 10  2  0  0  0  0
  7 11  1  0  0  0  0
  9 13  1  0  0  0  0
 10  8  1  0  0  0  0
 11  9  1  0  0  0  0
 12  7  1  0  0  0  0
 12 10  1  0  0  0  0
 13  8  1  1  0  0  0
 14  7  2  0  0  0  0
 15 17  1  0  0  0  0
 17 16  2  0  0  0  0
 18 19  2  0  0  0  0
 19 16  1  0  0  0  0
 20 18  1  0  0  0  0
 20 15  2  0  0  0  0
 21 15  1  0  0  0  0
 21 22  1  0  0  0  0
 23 21  1  0  0  0  0
 25 26  1  0  0  0  0
 25 24  1  0  0  0  0
 27 25  2  0  0  0  0
M  END
>  <MODEL>
4

>  <REMARK>
 VINA RESULT:      -7.7      3.983      7.622
  Name = 
  5 active torsions:
  status: ('A' for Active; 'I' for Inactive)
    1  A    between atoms: C_1  and  C_17
    2  A    between atoms: C_4  and  C_7
    3  A    between atoms: C_9  and  C_24
    4  A    between atoms: C_10  and  C_17
    5  A    between atoms: C_21  and  C_27
                            x       y       z     vdW  Elec       q    Type
                         _______ _______ _______ _____ _____    ______ ____

>  <TORSDO>
F 5

$$$$
=
 OpenBabel11072413163D

 27 30  0  0  1  0  0  0  0  0999 V2000
  161.9710  206.9890  149.3880 C   0  0  1  0  0  3  0  0  0  0  0  0
  161.4540  206.1360  150.5450 C   0  0  2  0  0  0  0  0  0  0  0  0
  161.3070  204.7670  150.2680 O   0  0  0  0  0  0  0  0  0  0  0  0
  160.3450  205.6210  149.6950 C   0  0  2  0  0  3  0  0  0  0  0  0
  160.8850  206.4080  148.5020 C   0  0  2  0  0  3  0  0  0  0  0  0
  161.3380  210.3110  152.5750 O   0  0  0  0  0  0  0  0  0  0  0  0
  161.9610  211.4600  149.1730 C   0  0  0  0  0  0  0  0  0  0  0  0
  162.3290  208.9020  150.9460 C   0  0  0  0  0  2  0  0  0  0  0  0
  162.4070  209.2040  148.5940 O   0  0  0  0  0  0  0  0  0  0  0  0
  161.7900  210.2220  151.4040 C   0  0  0  0  0  0  0  0  0  0  0  0
  161.5730  210.2910  148.3260 C   0  0  0  0  0  2  0  0  0  0  0  0
  161.8730  211.4090  150.6020 N   0  0  0  0  0  2  0  0  0  0  0  0
  161.7540  208.4870  149.6020 C   0  0  1  0  0  3  0  0  0  0  0  0
  162.3070  212.5320  148.6140 O   0  0  0  0  0  0  0  0  0  0  0  0
  161.5290  203.3470  146.3190 C   0  0  0  0  0  0  0  0  0  0  0  0
  162.6850  205.2450  145.3470 C   0  0  0  0  0  3  0  0  0  0  0  0
  162.3400  203.8930  145.3130 C   0  0  0  0  0  3  0  0  0  0  0  0
  161.4400  205.5170  147.4170 C   0  0  0  0  0  0  0  0  0  0  0  0
  162.2290  206.0560  146.3890 C   0  0  0  0  0  3  0  0  0  0  0  0
  161.0750  204.1640  147.3590 C   0  0  0  0  0  3  0  0  0  0  0  0
  161.1340  201.9030  146.3020 C   0  0  0  0  0  3  0  0  0  0  0  0
  160.6810  201.4450  147.6770 C   0  0  0  0  0  1  0  0  0  0  0  0
  160.0430  201.6460  145.2800 C   0  0  0  0  0  1  0  0  0  0  0  0
  160.8200  206.6860  151.8170 C   0  0  0  0  0  2  0  0  0  0  0  0
  161.3450  205.9600  153.0060 C   0  0  0  0  0  0  0  0  0  0  0  0
  161.9730  206.5860  153.8990 O   0  0  0  0  0  1  0  0  0  0  0  0
  161.1700  204.5880  153.1150 O   0  0  0  0  0  0  0  0  0  0  0  0
  1 13  1  1  0  0  0
  1  2  1  0  0  0  0
  2 24  1  1  0  0  0
  3  2  1  0  0  0  0
  4  3  1  6  0  0  0
  4  2  1  0  0  0  0
  5 18  1  6  0  0  0
  5  1  1  0  0  0  0
  5  4  1  0  0  0  0
  7 12  1  0  0  0  0
  8 10  1  0  0  0  0
  9 13  1  0  0  0  0
 10  6  2  0  0  0  0
 11  9  1  0  0  0  0
 11  7  1  0  0  0  0
 12 10  1  0  0  0  0
 13  8  1  1  0  0  0
 14  7  2  0  0  0  0
 15 20  1  0  0  0  0
 16 19  2  0  0  0  0
 17 16  1  0  0  0  0
 17 15  2  0  0  0  0
 19 18  1  0  0  0  0
 20 18  2  0  0  0  0
 21 15  1  0  0  0  0
 21 22  1  0  0  0  0
 23 21  1  0  0  0  0
 24 25  1  0  0  0  0
 25 27  2  0  0  0  0
 25 26  1  0  0  0  0
M  END
>  <MODEL>
5

>  <REMARK>
 VINA RESULT:      -7.7      2.385      5.069
  Name = 
  5 active torsions:
  status: ('A' for Active; 'I' for Inactive)
    1  A    between atoms: C_1  and  C_17
    2  A    between atoms: C_4  and  C_7
    3  A    between atoms: C_9  and  C_24
    4  A    between atoms: C_10  and  C_17
    5  A    between atoms: C_21  and  C_27
                            x       y       z     vdW  Elec       q    Type
                         _______ _______ _______ _____ _____    ______ ____

>  <TORSDO>
F 5

$$$$
=
 OpenBabel11072413163D

 27 30  0  0  1  0  0  0  0  0999 V2000
  161.0980  206.1560  150.8370 C   0  0  1  0  0  3  0  0  0  0  0  0
  161.4480  205.1390  151.9210 C   0  0  2  0  0  0  0  0  0  0  0  0
  161.4150  205.6260  153.2390 O   0  0  0  0  0  0  0  0  0  0  0  0
  162.5070  206.0420  152.4540 C   0  0  2  0  0  3  0  0  0  0  0  0
  162.1260  207.1050  151.4230 C   0  0  2  0  0  3  0  0  0  0  0  0
  161.4330  202.5150  147.9680 O   0  0  0  0  0  0  0  0  0  0  0  0
  161.9590  205.7900  146.4590 C   0  0  0  0  0  0  0  0  0  0  0  0
  160.6810  204.5050  149.0160 C   0  0  0  0  0  2  0  0  0  0  0  0
  161.2910  206.7450  148.5250 O   0  0  0  0  0  0  0  0  0  0  0  0
  161.3030  203.7630  147.8730 C   0  0  0  0  0  0  0  0  0  0  0  0
  162.3460  206.6560  147.6140 C   0  0  0  0  0  2  0  0  0  0  0  0
  161.6500  204.4030  146.6360 N   0  0  0  0  0  2  0  0  0  0  0  0
  161.5120  205.7060  149.4360 C   0  0  1  0  0  3  0  0  0  0  0  0
  161.9710  206.2770  145.2990 O   0  0  0  0  0  0  0  0  0  0  0  0
  160.5970  209.4590  154.0070 C   0  0  0  0  0  0  0  0  0  0  0  0
  160.8630  210.6690  151.9210 C   0  0  0  0  0  3  0  0  0  0  0  0
  160.4670  210.6390  153.2590 C   0  0  0  0  0  3  0  0  0  0  0  0
  161.4950  208.3260  152.0490 C   0  0  0  0  0  0  0  0  0  0  0  0
  161.3830  209.5200  151.3200 C   0  0  0  0  0  3  0  0  0  0  0  0
  161.1210  208.3130  153.4000 C   0  0  0  0  0  3  0  0  0  0  0  0
  160.1920  209.4010  155.4460 C   0  0  0  0  0  3  0  0  0  0  0  0
  158.9840  210.2820  155.7100 C   0  0  0  0  0  1  0  0  0  0  0  0
  159.9030  207.9760  155.8770 C   0  0  0  0  0  1  0  0  0  0  0  0
  162.1040  203.7880  151.6700 C   0  0  0  0  0  2  0  0  0  0  0  0
  161.0860  202.7030  151.7420 C   0  0  0  0  0  0  0  0  0  0  0  0
  160.1340  202.7860  152.5600 O   0  0  0  0  0  1  0  0  0  0  0  0
  161.2050  201.5850  150.9280 O   0  0  0  0  0  0  0  0  0  0  0  0
  1 13  1  6  0  0  0
  1  5  1  0  0  0  0
  1  2  1  0  0  0  0
  2 24  1  6  0  0  0
  2  4  1  0  0  0  0
  2  3  1  0  0  0  0
  4  3  1  1  0  0  0
  5 18  1  1  0  0  0
  5  4  1  0  0  0  0
  7 12  1  0  0  0  0
  7 11  1  0  0  0  0
  9 13  1  0  0  0  0
 10  6  2  0  0  0  0
 10  8  1  0  0  0  0
 11  9  1  0  0  0  0
 12 10  1  0  0  0  0
 13  8  1  6  0  0  0
 14  7  2  0  0  0  0
 15 21  1  0  0  0  0
 16 17  1  0  0  0  0
 17 15  2  0  0  0  0
 18 20  2  0  0  0  0
 19 16  2  0  0  0  0
 19 18  1  0  0  0  0
 20 15  1  0  0  0  0
 21 22  1  0  0  0  0
 21 23  1  0  0  0  0
 24 25  1  0  0  0  0
 25 26  1  0  0  0  0
 27 25  2  0  0  0  0
M  END
>  <MODEL>
6

>  <REMARK>
 VINA RESULT:      -7.5      3.255      7.756
  Name = 
  5 active torsions:
  status: ('A' for Active; 'I' for Inactive)
    1  A    between atoms: C_1  and  C_17
    2  A    between atoms: C_4  and  C_7
    3  A    between atoms: C_9  and  C_24
    4  A    between atoms: C_10  and  C_17
    5  A    between atoms: C_21  and  C_27
                            x       y       z     vdW  Elec       q    Type
                         _______ _______ _______ _____ _____    ______ ____

>  <TORSDO>
F 5

$$$$
=
 OpenBabel11072413163D

 27 30  0  0  1  0  0  0  0  0999 V2000
  161.1210  207.8140  150.5910 C   0  0  1  0  0  3  0  0  0  0  0  0
  161.6870  208.9420  149.7300 C   0  0  2  0  0  0  0  0  0  0  0  0
  161.9820  208.5970  148.4010 O   0  0  0  0  0  0  0  0  0  0  0  0
  162.8690  208.1050  149.3770 C   0  0  2  0  0  3  0  0  0  0  0  0
  162.2870  206.9380  150.1740 C   0  0  2  0  0  3  0  0  0  0  0  0
  160.9720  211.1830  153.7890 O   0  0  0  0  0  0  0  0  0  0  0  0
  160.7960  207.7700  155.0550 C   0  0  0  0  0  0  0  0  0  0  0  0
  160.3680  209.3650  152.3910 C   0  0  0  0  0  2  0  0  0  0  0  0
  160.6330  207.0440  152.8040 O   0  0  0  0  0  0  0  0  0  0  0  0
  160.7180  209.9520  153.7250 C   0  0  0  0  0  0  0  0  0  0  0  0
  161.4070  206.9530  153.9630 C   0  0  0  0  0  2  0  0  0  0  0  0
  160.6630  209.1920  154.9400 N   0  0  0  0  0  2  0  0  0  0  0  0
  161.1780  208.1150  152.0880 C   0  0  1  0  0  3  0  0  0  0  0  0
  160.4540  207.2030  156.1250 O   0  0  0  0  0  0  0  0  0  0  0  0
  160.9670  203.5330  149.0670 C   0  0  0  0  0  0  0  0  0  0  0  0
  161.3090  204.9070  147.0960 C   0  0  0  0  0  3  0  0  0  0  0  0
  160.9110  203.7000  147.6750 C   0  0  0  0  0  3  0  0  0  0  0  0
  161.8580  205.7870  149.2950 C   0  0  0  0  0  0  0  0  0  0  0  0
  161.7720  205.9490  147.9030 C   0  0  0  0  0  3  0  0  0  0  0  0
  161.4290  204.5810  149.8690 C   0  0  0  0  0  3  0  0  0  0  0  0
  160.5360  202.2560  149.7150 C   0  0  0  0  0  3  0  0  0  0  0  0
  161.0070  201.0520  148.9180 C   0  0  0  0  0  1  0  0  0  0  0  0
  161.0420  202.1670  151.1420 C   0  0  0  0  0  1  0  0  0  0  0  0
  162.2250  210.2620  150.2670 C   0  0  0  0  0  2  0  0  0  0  0  0
  161.9560  211.3580  149.2950 C   0  0  0  0  0  0  0  0  0  0  0  0
  162.6170  211.4280  148.2270 O   0  0  0  0  0  0  0  0  0  0  0  0
  160.9990  212.3210  149.5810 O   0  0  0  0  0  1  0  0  0  0  0  0
  1 13  1  1  0  0  0
  2 24  1  1  0  0  0
  2  1  1  0  0  0  0
  3  2  1  0  0  0  0
  4  3  1  6  0  0  0
  4  2  1  0  0  0  0
  4  5  1  0  0  0  0
  5 18  1  6  0  0  0
  5  1  1  0  0  0  0
  7 14  2  0  0  0  0
  8 10  1  0  0  0  0
  9 11  1  0  0  0  0
 10  6  2  0  0  0  0
 10 12  1  0  0  0  0
 11  7  1  0  0  0  0
 12  7  1  0  0  0  0
 13  8  1  6  0  0  0
 13  9  1  0  0  0  0
 15 21  1  0  0  0  0
 15 20  1  0  0  0  0
 16 17  1  0  0  0  0
 16 19  2  0  0  0  0
 17 15  2  0  0  0  0
 18 20  2  0  0  0  0
 19 18  1  0  0  0  0
 21 23  1  0  0  0  0
 22 21  1  0  0  0  0
 25 27  1  0  0  0  0
 25 24  1  0  0  0  0
 26 25  2  0  0  0  0
M  END
>  <MODEL>
7

>  <REMARK>
 VINA RESULT:      -7.5      1.407      2.260
  Name = 
  5 active torsions:
  status: ('A' for Active; 'I' for Inactive)
    1  A    between atoms: C_1  and  C_17
    2  A    between atoms: C_4  and  C_7
    3  A    between atoms: C_9  and  C_24
    4  A    between atoms: C_10  and  C_17
    5  A    between atoms: C_21  and  C_27
                            x       y       z     vdW  Elec       q    Type
                         _______ _______ _______ _____ _____    ______ ____

>  <TORSDO>
F 5

$$$$
=
 OpenBabel11072413163D

 27 30  0  0  1  0  0  0  0  0999 V2000
  161.7190  204.8900  148.3180 C   0  0  1  0  0  3  0  0  0  0  0  0
  161.2630  206.0320  147.4130 C   0  0  2  0  0  0  0  0  0  0  0  0
  161.0700  207.2690  148.0510 O   0  0  0  0  0  0  0  0  0  0  0  0
  160.0900  206.2890  148.2950 C   0  0  2  0  0  3  0  0  0  0  0  0
  160.5660  205.1980  149.2550 C   0  0  2  0  0  3  0  0  0  0  0  0
  161.5820  200.3200  149.1480 O   0  0  0  0  0  0  0  0  0  0  0  0
  160.5590  201.3680  145.8110 C   0  0  0  0  0  0  0  0  0  0  0  0
  160.9330  202.5540  148.6880 C   0  0  0  0  0  2  0  0  0  0  0  0
  160.6940  203.6090  146.5760 O   0  0  0  0  0  0  0  0  0  0  0  0
  161.1270  201.1220  148.2920 C   0  0  0  0  0  0  0  0  0  0  0  0
  161.2070  202.7050  145.6430 C   0  0  0  0  0  2  0  0  0  0  0  0
  160.7090  200.6110  147.0170 N   0  0  0  0  0  2  0  0  0  0  0  0
  161.5470  203.5120  147.6800 C   0  0  1  0  0  3  0  0  0  0  0  0
  159.9260  200.8710  144.8440 O   0  0  0  0  0  0  0  0  0  0  0  0
  161.5330  207.6590  152.0050 C   0  0  0  0  0  0  0  0  0  0  0  0
  161.5790  205.4150  152.9260 C   0  0  0  0  0  3  0  0  0  0  0  0
  161.7420  206.7920  153.0880 C   0  0  0  0  0  3  0  0  0  0  0  0
  161.0310  205.7500  150.5810 C   0  0  0  0  0  0  0  0  0  0  0  0
  161.2170  204.8960  151.6800 C   0  0  0  0  0  3  0  0  0  0  0  0
  161.1690  207.1340  150.7620 C   0  0  0  0  0  3  0  0  0  0  0  0
  161.6880  209.1400  152.1530 C   0  0  0  0  0  3  0  0  0  0  0  0
  161.9590  209.7980  150.8120 C   0  0  0  0  0  1  0  0  0  0  0  0
  160.4630  209.7580  152.8000 C   0  0  0  0  0  1  0  0  0  0  0  0
  160.7240  205.8610  145.9990 C   0  0  0  0  0  2  0  0  0  0  0  0
  161.8480  205.8280  145.0230 C   0  0  0  0  0  0  0  0  0  0  0  0
  163.0380  205.8290  145.4320 O   0  0  0  0  0  1  0  0  0  0  0  0
  161.5850  205.8280  143.6600 O   0  0  0  0  0  0  0  0  0  0  0  0
  1 13  1  6  0  0  0
  1  5  1  0  0  0  0
  2 24  1  6  0  0  0
  2  3  1  0  0  0  0
  2  4  1  0  0  0  0
  2  1  1  0  0  0  0
  4  3  1  1  0  0  0
  4  5  1  0  0  0  0
  5 18  1  1  0  0  0
  7 12  1  0  0  0  0
  9 13  1  0  0  0  0
 10  8  1  0  0  0  0
 10  6  2  0  0  0  0
 11  7  1  0  0  0  0
 11  9  1  0  0  0  0
 12 10  1  0  0  0  0
 13  8  1  1  0  0  0
 14  7  2  0  0  0  0
 15 21  1  0  0  0  0
 15 17  1  0  0  0  0
 16 17  2  0  0  0  0
 18 20  1  0  0  0  0
 18 19  2  0  0  0  0
 19 16  1  0  0  0  0
 20 15  2  0  0  0  0
 21 23  1  0  0  0  0
 22 21  1  0  0  0  0
 25 26  1  0  0  0  0
 25 24  1  0  0  0  0
 27 25  2  0  0  0  0
M  END
>  <MODEL>
8

>  <REMARK>
 VINA RESULT:      -7.4      4.087      7.943
  Name = 
  5 active torsions:
  status: ('A' for Active; 'I' for Inactive)
    1  A    between atoms: C_1  and  C_17
    2  A    between atoms: C_4  and  C_7
    3  A    between atoms: C_9  and  C_24
    4  A    between atoms: C_10  and  C_17
    5  A    between atoms: C_21  and  C_27
                            x       y       z     vdW  Elec       q    Type
                         _______ _______ _______ _____ _____    ______ ____

>  <TORSDO>
F 5

$$$$
=
 OpenBabel11072413163D

 27 30  0  0  1  0  0  0  0  0999 V2000
  160.8520  207.7420  151.6510 C   0  0  1  0  0  3  0  0  0  0  0  0
  161.6020  208.5760  150.6150 C   0  0  2  0  0  0  0  0  0  0  0  0
  161.9530  207.8990  149.4350 O   0  0  0  0  0  0  0  0  0  0  0  0
  162.7050  207.5750  150.5800 C   0  0  2  0  0  3  0  0  0  0  0  0
  161.9390  206.6880  151.5620 C   0  0  2  0  0  3  0  0  0  0  0  0
  159.5430  207.1700  156.0740 O   0  0  0  0  0  0  0  0  0  0  0  0
  161.7120  210.0220  155.4070 C   0  0  0  0  0  0  0  0  0  0  0  0
  160.8580  207.3020  154.1050 C   0  0  0  0  0  2  0  0  0  0  0  0
  161.9580  209.1970  153.1960 O   0  0  0  0  0  0  0  0  0  0  0  0
  160.4170  207.8170  155.4410 C   0  0  0  0  0  0  0  0  0  0  0  0
  161.5140  210.2870  153.9490 C   0  0  0  0  0  2  0  0  0  0  0  0
  161.0320  208.9500  156.0710 N   0  0  0  0  0  2  0  0  0  0  0  0
  160.8310  208.3840  153.0380 C   0  0  1  0  0  3  0  0  0  0  0  0
  162.4410  210.7990  156.0750 O   0  0  0  0  0  0  0  0  0  0  0  0
  161.3120  203.9310  149.0010 C   0  0  0  0  0  0  0  0  0  0  0  0
  160.4560  203.1980  151.1490 C   0  0  0  0  0  3  0  0  0  0  0  0
  160.6850  202.9580  149.7930 C   0  0  0  0  0  3  0  0  0  0  0  0
  161.4500  205.4060  150.9320 C   0  0  0  0  0  0  0  0  0  0  0  0
  160.8450  204.4130  151.7190 C   0  0  0  0  0  3  0  0  0  0  0  0
  161.7010  205.1440  149.5770 C   0  0  0  0  0  3  0  0  0  0  0  0
  161.5810  203.6960  147.5470 C   0  0  0  0  0  3  0  0  0  0  0  0
  160.8380  202.4700  147.0450 C   0  0  0  0  0  1  0  0  0  0  0  0
  161.2070  204.9090  146.7180 C   0  0  0  0  0  1  0  0  0  0  0  0
  162.2430  209.9310  150.8850 C   0  0  0  0  0  2  0  0  0  0  0  0
  161.6870  210.9540  149.9580 C   0  0  0  0  0  0  0  0  0  0  0  0
  162.0160  210.9480  148.7430 O   0  0  0  0  0  0  0  0  0  0  0  0
  160.8310  211.9360  150.4380 O   0  0  0  0  0  1  0  0  0  0  0  0
  1 13  1  1  0  0  0
  2 24  1  1  0  0  0
  2  1  1  0  0  0  0
  3  2  1  0  0  0  0
  4  3  1  6  0  0  0
  4  2  1  0  0  0  0
  4  5  1  0  0  0  0
  5 18  1  6  0  0  0
  5  1  1  0  0  0  0
  7 12  1  0  0  0  0
  7 14  2  0  0  0  0
  8 10  1  0  0  0  0
  9 11  1  0  0  0  0
 10 12  1  0  0  0  0
 10  6  2  0  0  0  0
 11  7  1  0  0  0  0
 13  9  1  0  0  0  0
 13  8  1  1  0  0  0
 15 20  2  0  0  0  0
 15 17  1  0  0  0  0
 16 19  1  0  0  0  0
 17 16  2  0  0  0  0
 18 19  2  0  0  0  0
 20 18  1  0  0  0  0
 21 15  1  0  0  0  0
 22 21  1  0  0  0  0
 23 21  1  0  0  0  0
 25 27  1  0  0  0  0
 25 24  1  0  0  0  0
 26 25  2  0  0  0  0
M  END
>  <MODEL>
9

>  <REMARK>
 VINA RESULT:      -7.4      1.281      1.962
  Name = 
  5 active torsions:
  status: ('A' for Active; 'I' for Inactive)
    1  A    between atoms: C_1  and  C_17
    2  A    between atoms: C_4  and  C_7
    3  A    between atoms: C_9  and  C_24
    4  A    between atoms: C_10  and  C_17
    5  A    between atoms: C_21  and  C_27
                            x       y       z     vdW  Elec       q    Type
                         _______ _______ _______ _____ _____    ______ ____

>  <TORSDO>
F 5

$$$$
