=
 OpenBabel11072409473D

 49 55  0  0  1  0  0  0  0  0999 V2000
  161.6500  209.4930  153.0070 C   0  0  0  0  0  0  0  0  0  0  0  0
  160.9890  209.1610  151.8400 C   0  0  0  0  0  3  0  0  0  0  0  0
  161.8010  209.7430  150.8770 C   0  0  0  0  0  0  0  0  0  0  0  0
  162.8240  210.3280  151.4520 O   0  0  0  0  0  0  0  0  0  0  0  0
  162.7740  210.1860  152.7430 N   0  0  0  0  0  0  0  0  0  0  0  0
  161.2580  208.9990  154.3630 C   0  0  0  0  0  2  0  0  0  0  0  0
  159.8520  209.4590  154.7640 C   0  0  2  0  0  3  0  0  0  0  0  0
  157.7080  211.1160  156.5380 O   0  0  0  0  0  0  0  0  0  0  0  0
  159.2810  213.3540  155.0850 C   0  0  0  0  0  2  0  0  0  0  0  0
  157.5820  211.4830  155.1860 C   0  0  2  0  0  3  0  0  0  0  0  0
  158.1530  214.3320  154.7780 C   0  0  0  0  0  2  0  0  0  0  0  0
  156.8960  213.8940  155.5040 C   0  0  0  0  0  2  0  0  0  0  0  0
  159.8270  210.8800  155.4160 C   0  0  2  0  0  0  0  0  0  0  0  0
  161.2500  211.3770  155.6810 C   0  0  0  0  0  1  0  0  0  0  0  0
  159.0710  210.8080  156.7400 C   0  0  0  0  0  2  0  0  0  0  0  0
  158.9540  211.8970  154.6540 C   0  0  2  0  0  0  0  0  0  0  0  0
  156.4740  212.5260  154.9900 C   0  0  0  0  0  2  0  0  0  0  0  0
  158.9710  211.7580  153.1170 C   0  0  0  0  0  2  0  0  0  0  0  0
  160.1010  212.5370  152.4450 C   0  0  0  0  0  2  0  0  0  0  0  0
  159.5590  213.5390  151.4340 C   0  0  0  0  0  2  0  0  0  0  0  0
  158.0970  213.2580  151.1030 C   0  0  0  0  0  2  0  0  0  0  0  0
  158.4070  213.6230  148.7080 N   0  0  0  0  0  2  0  0  0  0  0  0
  157.1740  213.1000  148.1370 C   0  0  0  0  0  2  0  0  0  0  0  0
  156.3510  213.5080  149.3330 C   0  0  0  0  0  2  0  0  0  0  0  0
  157.6520  214.0500  149.8760 C   0  0  1  0  0  3  0  0  0  0  0  0
  159.1620  208.3730  155.5990 C   0  0  0  0  0  2  0  0  0  0  0  0
  160.0980  207.4980  156.1590 O   0  0  0  0  0  1  0  0  0  0  0  0
  161.6000  209.6970  149.3910 C   0  0  1  0  0  3  0  0  0  0  0  0
  161.4130  211.4890  147.7340 C   0  0  0  0  0  2  0  0  0  0  0  0
  161.6730  212.1160  149.0390 N   0  0  0  0  0  2  0  0  0  0  0  0
  162.3180  210.8430  148.6810 C   0  0  1  0  0  3  0  0  0  0  0  0
  161.9460  208.3360  148.7860 C   0  0  0  0  0  2  0  0  0  0  0  0
  160.8250  207.3160  148.9750 C   0  0  0  0  0  2  0  0  0  0  0  0
  162.1190  205.1700  146.0840 C   0  0  1  0  0  3  0  0  0  0  0  0
  161.1940  206.2330  146.6810 C   0  0  0  0  0  2  0  0  0  0  0  0
  161.0990  206.0810  148.1740 C   0  0  1  0  0  3  0  0  0  0  0  0
  161.3130  204.8760  148.7440 C   0  0  0  0  0  0  0  0  0  0  0  0
  161.7270  203.7820  147.9080 N   0  0  0  0  0  0  0  0  0  0  0  0
  161.6570  203.8510  146.5030 N   0  0  0  0  0  2  0  0  0  0  0  0
  160.6870  203.4700  150.7350 C   0  0  0  0  0  0  0  0  0  0  0  0
  161.5660  205.4970  152.4660 C   0  0  0  0  0  3  0  0  0  0  0  0
  160.5810  203.3170  152.1280 C   0  0  0  0  0  3  0  0  0  0  0  0
  161.0190  204.3240  152.9870 C   0  0  0  0  0  3  0  0  0  0  0  0
  161.2430  204.6550  150.2070 C   0  0  0  0  0  0  0  0  0  0  0  0
  161.6730  205.6620  151.0840 C   0  0  0  0  0  3  0  0  0  0  0  0
  160.8190  201.1510  149.8750 C   0  0  0  0  0  1  0  0  0  0  0  0
  160.2590  202.4560  149.8690 O   0  0  0  0  0  0  0  0  0  0  0  0
  160.9300  205.8560  144.1240 O   0  0  0  0  0  1  0  0  0  0  0  0
  162.1070  205.2510  144.5680 C   0  0  0  0  0  2  0  0  0  0  0  0
  1  6  1  0  0  0  0
  2  1  1  0  0  0  0
  3  4  1  0  0  0  0
  3  2  2  0  0  0  0
  4  5  1  0  0  0  0
  5  1  2  0  0  0  0
  7  6  1  1  0  0  0
  7 13  1  0  0  0  0
  7 26  1  0  0  0  0
  8 15  1  0  0  0  0
 10 17  1  1  0  0  0
 10  8  1  0  0  0  0
 11  9  1  0  0  0  0
 11 12  1  0  0  0  0
 13 14  1  1  0  0  0
 13 15  1  0  0  0  0
 16 18  1  6  0  0  0
 16  9  1  0  0  0  0
 16 10  1  0  0  0  0
 16 13  1  0  0  0  0
 17 12  1  0  0  0  0
 19 18  1  0  0  0  0
 20 19  1  0  0  0  0
 21 20  1  0  0  0  0
 22 25  1  0  0  0  0
 23 22  1  0  0  0  0
 23 24  1  0  0  0  0
 24 25  1  0  0  0  0
 25 21  1  1  0  0  0
 26 27  1  0  0  0  0
 28 32  1  6  0  0  0
 28  3  1  0  0  0  0
 29 31  1  0  0  0  0
 29 30  1  0  0  0  0
 31 30  1  0  0  0  0
 31 28  1  1  0  0  0
 32 33  1  0  0  0  0
 34 49  1  6  0  0  0
 34 39  1  0  0  0  0
 34 35  1  0  0  0  0
 35 36  1  0  0  0  0
 36 37  1  0  0  0  0
 36 33  1  1  0  0  0
 37 44  1  0  0  0  0
 38 37  2  0  0  0  0
 39 38  1  0  0  0  0
 40 42  1  0  0  0  0
 41 43  1  0  0  0  0
 42 43  2  0  0  0  0
 44 40  2  0  0  0  0
 44 45  1  0  0  0  0
 45 41  2  0  0  0  0
 47 46  1  0  0  0  0
 47 40  1  0  0  0  0
 48 49  1  0  0  0  0
M  END
>  <MODEL>
1

>  <REMARK>
 VINA RESULT:      -7.3      0.000      0.000
  Name = 
  17 active torsions:
  status: ('A' for Active; 'I' for Inactive)
    1  A    between atoms: C_3  and  C_20
    2  A    between atoms: C_3  and  C_43
    3  A    between atoms: C_4  and  C_31
    4  A    between atoms: C_5  and  C_23
    5  A    between atoms: C_9  and  C_19
    6  A    between atoms: C_9  and  C_37
    7  A    between atoms: C_11  and  C_20
    8  A    between atoms: C_11  and  C_35
    9  A    between atoms: C_14  and  O_44
   10  A    between atoms: C_21  and  C_25
   11  A    between atoms: C_21  and  C_37
   12  A    between atoms: C_21  and  C_40
   13  A    between atoms: C_22  and  C_34
   14  A    between atoms: C_23  and  C_45
   15  A    between atoms: C_30  and  C_45
   16  A    between atoms: C_35  and  C_47
   17  A    between atoms: C_36  and  C_45
                            x       y       z     vdW  Elec       q    Type
                         _______ _______ _______ _____ _____    ______ ____

>  <TORSDO>
F 17

$$$$
=
 OpenBabel11072409473D

 49 55  0  0  1  0  0  0  0  0999 V2000
  161.3750  207.7870  153.7120 C   0  0  0  0  0  0  0  0  0  0  0  0
  161.0720  207.2250  152.4860 C   0  0  0  0  0  3  0  0  0  0  0  0
  161.3090  205.8790  152.7240 C   0  0  0  0  0  0  0  0  0  0  0  0
  161.6900  205.7060  153.9670 O   0  0  0  0  0  0  0  0  0  0  0  0
  161.7300  206.8400  154.6010 N   0  0  0  0  0  0  0  0  0  0  0  0
  161.1690  209.2300  154.0470 C   0  0  0  0  0  2  0  0  0  0  0  0
  159.9430  209.4500  154.9400 C   0  0  2  0  0  3  0  0  0  0  0  0
  157.6140  211.0840  156.4880 O   0  0  0  0  0  0  0  0  0  0  0  0
  158.8410  213.2290  154.6210 C   0  0  0  0  0  2  0  0  0  0  0  0
  157.4200  211.1920  155.0990 C   0  0  2  0  0  3  0  0  0  0  0  0
  157.5830  213.9800  154.1960 C   0  0  0  0  0  2  0  0  0  0  0  0
  156.4090  213.5080  155.0310 C   0  0  0  0  0  2  0  0  0  0  0  0
  159.7290  210.9460  155.3430 C   0  0  2  0  0  0  0  0  0  0  0  0
  161.0740  211.6680  155.4680 C   0  0  0  0  0  1  0  0  0  0  0  0
  159.0100  211.0010  156.6880 C   0  0  0  0  0  2  0  0  0  0  0  0
  158.7140  211.6890  154.4540 C   0  0  2  0  0  0  0  0  0  0  0  0
  156.1750  212.0270  154.7720 C   0  0  0  0  0  2  0  0  0  0  0  0
  158.7290  211.2920  152.9630 C   0  0  0  0  0  2  0  0  0  0  0  0
  158.6940  212.4860  152.0110 C   0  0  0  0  0  2  0  0  0  0  0  0
  159.9830  212.5930  151.2070 C   0  0  0  0  0  2  0  0  0  0  0  0
  159.9080  213.7220  150.1840 C   0  0  0  0  0  2  0  0  0  0  0  0
  161.4450  212.2410  148.9960 N   0  0  0  0  0  2  0  0  0  0  0  0
  160.9790  212.3280  147.6190 C   0  0  0  0  0  2  0  0  0  0  0  0
  160.5460  213.7650  147.7700 C   0  0  0  0  0  2  0  0  0  0  0  0
  161.0580  213.6310  149.1850 C   0  0  1  0  0  3  0  0  0  0  0  0
  159.9760  208.4780  156.1260 C   0  0  0  0  0  2  0  0  0  0  0  0
  159.0380  207.4530  155.9640 O   0  0  0  0  0  1  0  0  0  0  0  0
  161.1250  204.7530  151.7500 C   0  0  1  0  0  3  0  0  0  0  0  0
  160.7610  202.3470  151.4840 C   0  0  0  0  0  2  0  0  0  0  0  0
  162.1570  202.5400  151.9040 N   0  0  0  0  0  2  0  0  0  0  0  0
  161.0890  203.3940  152.4480 C   0  0  1  0  0  3  0  0  0  0  0  0
  159.9270  204.9580  150.8220 C   0  0  0  0  0  2  0  0  0  0  0  0
  160.0590  204.1690  149.5210 C   0  0  0  0  0  2  0  0  0  0  0  0
  162.2710  206.9590  148.1220 C   0  0  1  0  0  3  0  0  0  0  0  0
  160.9730  206.4320  148.7360 C   0  0  0  0  0  2  0  0  0  0  0  0
  160.8370  204.9520  148.5100 C   0  0  1  0  0  3  0  0  0  0  0  0
  161.4510  204.3720  147.4560 C   0  0  0  0  0  0  0  0  0  0  0  0
  162.3070  205.1780  146.6280 N   0  0  0  0  0  0  0  0  0  0  0  0
  162.3160  206.5840  146.7140 N   0  0  0  0  0  2  0  0  0  0  0  0
  160.9080  202.4490  145.9260 C   0  0  0  0  0  0  0  0  0  0  0  0
  161.5580  200.6260  147.9580 C   0  0  0  0  0  3  0  0  0  0  0  0
  160.7830  201.0660  145.7120 C   0  0  0  0  0  3  0  0  0  0  0  0
  161.1080  200.1600  146.7220 C   0  0  0  0  0  3  0  0  0  0  0  0
  161.3660  202.9200  147.1750 C   0  0  0  0  0  0  0  0  0  0  0  0
  161.6820  201.9970  148.1830 C   0  0  0  0  0  3  0  0  0  0  0  0
  159.3820  203.3090  144.1730 C   0  0  0  0  0  1  0  0  0  0  0  0
  160.5950  203.3610  144.9110 O   0  0  0  0  0  0  0  0  0  0  0  0
  162.0160  208.8660  149.5450 O   0  0  0  0  0  1  0  0  0  0  0  0
  162.3380  208.4710  148.2450 C   0  0  0  0  0  2  0  0  0  0  0  0
  1  6  1  0  0  0  0
  1  5  2  0  0  0  0
  2  3  2  0  0  0  0
  2  1  1  0  0  0  0
  3  4  1  0  0  0  0
  4  5  1  0  0  0  0
  7  6  1  1  0  0  0
  7 13  1  0  0  0  0
  7 26  1  0  0  0  0
  8 15  1  0  0  0  0
 10 17  1  1  0  0  0
 10  8  1  0  0  0  0
 11  9  1  0  0  0  0
 11 12  1  0  0  0  0
 13 14  1  1  0  0  0
 13 15  1  0  0  0  0
 16 18  1  6  0  0  0
 16  9  1  0  0  0  0
 16 10  1  0  0  0  0
 16 13  1  0  0  0  0
 17 12  1  0  0  0  0
 19 18  1  0  0  0  0
 20 19  1  0  0  0  0
 21 20  1  0  0  0  0
 22 25  1  0  0  0  0
 23 24  1  0  0  0  0
 23 22  1  0  0  0  0
 24 25  1  0  0  0  0
 25 21  1  1  0  0  0
 27 26  1  0  0  0  0
 28 32  1  1  0  0  0
 28  3  1  0  0  0  0
 29 30  1  0  0  0  0
 29 31  1  0  0  0  0
 30 31  1  0  0  0  0
 31 28  1  6  0  0  0
 33 32  1  0  0  0  0
 34 49  1  6  0  0  0
 34 35  1  0  0  0  0
 36 35  1  0  0  0  0
 36 33  1  1  0  0  0
 37 36  1  0  0  0  0
 38 39  1  0  0  0  0
 38 37  2  0  0  0  0
 39 34  1  0  0  0  0
 40 44  1  0  0  0  0
 41 45  1  0  0  0  0
 42 40  2  0  0  0  0
 42 43  1  0  0  0  0
 43 41  2  0  0  0  0
 44 37  1  0  0  0  0
 44 45  2  0  0  0  0
 46 47  1  0  0  0  0
 47 40  1  0  0  0  0
 49 48  1  0  0  0  0
M  END
>  <MODEL>
2

>  <REMARK>
 VINA RESULT:      -5.6      1.878      4.124
  Name = 
  17 active torsions:
  status: ('A' for Active; 'I' for Inactive)
    1  A    between atoms: C_3  and  C_20
    2  A    between atoms: C_3  and  C_43
    3  A    between atoms: C_4  and  C_31
    4  A    between atoms: C_5  and  C_23
    5  A    between atoms: C_9  and  C_19
    6  A    between atoms: C_9  and  C_37
    7  A    between atoms: C_11  and  C_20
    8  A    between atoms: C_11  and  C_35
    9  A    between atoms: C_14  and  O_44
   10  A    between atoms: C_21  and  C_25
   11  A    between atoms: C_21  and  C_37
   12  A    between atoms: C_21  and  C_40
   13  A    between atoms: C_22  and  C_34
   14  A    between atoms: C_23  and  C_45
   15  A    between atoms: C_30  and  C_45
   16  A    between atoms: C_35  and  C_47
   17  A    between atoms: C_36  and  C_45
                            x       y       z     vdW  Elec       q    Type
                         _______ _______ _______ _____ _____    ______ ____

>  <TORSDO>
F 17

$$$$
=
 OpenBabel11072409473D

 49 55  0  0  1  0  0  0  0  0999 V2000
  161.7210  209.6740  153.5540 C   0  0  0  0  0  0  0  0  0  0  0  0
  161.1080  209.2950  152.3750 C   0  0  0  0  0  3  0  0  0  0  0  0
  161.9180  209.9020  151.4260 C   0  0  0  0  0  0  0  0  0  0  0  0
  162.8970  210.5430  152.0190 O   0  0  0  0  0  0  0  0  0  0  0  0
  162.8170  210.4170  153.3100 N   0  0  0  0  0  0  0  0  0  0  0  0
  161.3150  209.1810  154.9070 C   0  0  0  0  0  2  0  0  0  0  0  0
  159.8780  209.5780  155.2630 C   0  0  2  0  0  3  0  0  0  0  0  0
  157.7190  211.0800  157.1530 O   0  0  0  0  0  0  0  0  0  0  0  0
  158.9660  213.4110  155.5410 C   0  0  0  0  0  2  0  0  0  0  0  0
  157.4630  211.3950  155.8060 C   0  0  2  0  0  3  0  0  0  0  0  0
  157.7320  214.2720  155.2960 C   0  0  0  0  0  2  0  0  0  0  0  0
  156.5760  213.7410  156.1210 C   0  0  0  0  0  2  0  0  0  0  0  0
  159.7650  211.0090  155.8830 C   0  0  2  0  0  0  0  0  0  0  0  0
  161.1510  211.6430  156.0330 C   0  0  0  0  0  1  0  0  0  0  0  0
  159.1160  210.9050  157.2610 C   0  0  0  0  0  2  0  0  0  0  0  0
  158.7490  211.9190  155.1660 C   0  0  2  0  0  0  0  0  0  0  0  0
  156.2510  212.3250  155.6700 C   0  0  0  0  0  2  0  0  0  0  0  0
  158.6690  211.7390  153.6360 C   0  0  0  0  0  2  0  0  0  0  0  0
  159.7090  212.5540  152.8680 C   0  0  0  0  0  2  0  0  0  0  0  0
  159.1290  213.8740  152.3780 C   0  0  0  0  0  2  0  0  0  0  0  0
  157.8470  213.6540  151.5810 C   0  0  0  0  0  2  0  0  0  0  0  0
  156.9310  213.1980  149.3640 N   0  0  0  0  0  2  0  0  0  0  0  0
  157.4090  214.3260  148.5770 C   0  0  0  0  0  2  0  0  0  0  0  0
  158.6910  214.4380  149.3640 C   0  0  0  0  0  2  0  0  0  0  0  0
  158.1600  213.2560  150.1410 C   0  0  1  0  0  3  0  0  0  0  0  0
  159.2200  208.4760  156.1020 C   0  0  0  0  0  2  0  0  0  0  0  0
  160.1690  207.5490  156.5480 O   0  0  0  0  0  1  0  0  0  0  0  0
  161.7610  209.8240  149.9360 C   0  0  1  0  0  3  0  0  0  0  0  0
  161.8570  211.0680  147.8300 C   0  0  0  0  0  2  0  0  0  0  0  0
  161.0260  211.8420  148.7650 N   0  0  0  0  0  2  0  0  0  0  0  0
  162.2090  211.1120  149.2470 C   0  0  1  0  0  3  0  0  0  0  0  0
  162.4210  208.5850  149.3310 C   0  0  0  0  0  2  0  0  0  0  0  0
  161.4040  207.6280  148.7150 C   0  0  0  0  0  2  0  0  0  0  0  0
  160.9130  205.1050  151.5480 C   0  0  1  0  0  3  0  0  0  0  0  0
  161.5800  206.3290  150.9180 C   0  0  0  0  0  2  0  0  0  0  0  0
  161.4290  206.3090  149.4220 C   0  0  0  0  0  0  0  0  0  0  0  0
  161.2690  205.1340  148.7760 C   0  0  0  0  0  0  0  0  0  0  0  0
  161.1470  203.9310  149.5560 N   0  0  0  0  0  2  0  0  0  0  0  0
  161.4530  203.9000  150.9290 N   0  0  0  0  0  2  0  0  0  0  0  0
  161.4300  203.8490  146.6180 C   0  0  0  0  0  0  0  0  0  0  0  0
  160.5870  206.1130  145.1880 C   0  0  0  0  0  3  0  0  0  0  0  0
  161.3220  203.8110  145.2170 C   0  0  0  0  0  3  0  0  0  0  0  0
  160.9020  204.9360  144.5080 C   0  0  0  0  0  3  0  0  0  0  0  0
  161.1080  205.0380  147.3070 C   0  0  0  0  0  0  0  0  0  0  0  0
  160.6940  206.1630  146.5780 C   0  0  0  0  0  3  0  0  0  0  0  0
  160.9290  201.7370  147.8120 C   0  0  0  0  0  1  0  0  0  0  0  0
  161.8390  202.7190  147.3360 O   0  0  0  0  0  0  0  0  0  0  0  0
  162.0570  206.0960  153.4020 O   0  0  0  0  0  1  0  0  0  0  0  0
  161.1810  205.0700  153.0430 C   0  0  0  0  0  2  0  0  0  0  0  0
  1  6  1  0  0  0  0
  2  1  1  0  0  0  0
  3  4  1  0  0  0  0
  3  2  2  0  0  0  0
  4  5  1  0  0  0  0
  5  1  2  0  0  0  0
  7  6  1  1  0  0  0
  7 13  1  0  0  0  0
  7 26  1  0  0  0  0
  8 15  1  0  0  0  0
 10 17  1  1  0  0  0
 10  8  1  0  0  0  0
 11  9  1  0  0  0  0
 11 12  1  0  0  0  0
 13 14  1  1  0  0  0
 13 15  1  0  0  0  0
 16 18  1  6  0  0  0
 16  9  1  0  0  0  0
 16 10  1  0  0  0  0
 16 13  1  0  0  0  0
 17 12  1  0  0  0  0
 19 18  1  0  0  0  0
 20 19  1  0  0  0  0
 21 20  1  0  0  0  0
 22 25  1  0  0  0  0
 23 24  1  0  0  0  0
 23 22  1  0  0  0  0
 24 25  1  0  0  0  0
 25 21  1  1  0  0  0
 26 27  1  0  0  0  0
 28 32  1  6  0  0  0
 28  3  1  0  0  0  0
 29 30  1  0  0  0  0
 29 31  1  0  0  0  0
 30 31  1  0  0  0  0
 31 28  1  1  0  0  0
 33 32  1  0  0  0  0
 33 36  1  0  0  0  0
 34 49  1  1  0  0  0
 35 34  1  0  0  0  0
 36 35  1  0  0  0  0
 37 36  2  0  0  0  0
 37 38  1  0  0  0  0
 38 39  1  0  0  0  0
 39 34  1  0  0  0  0
 40 44  1  0  0  0  0
 40 47  1  0  0  0  0
 41 45  1  0  0  0  0
 42 40  2  0  0  0  0
 43 41  2  0  0  0  0
 43 42  1  0  0  0  0
 44 37  1  0  0  0  0
 45 44  2  0  0  0  0
 47 46  1  0  0  0  0
 49 48  1  0  0  0  0
M  END
>  <MODEL>
3

>  <REMARK>
 VINA RESULT:      -5.5      1.303      3.175
  Name = 
  17 active torsions:
  status: ('A' for Active; 'I' for Inactive)
    1  A    between atoms: C_3  and  C_20
    2  A    between atoms: C_3  and  C_43
    3  A    between atoms: C_4  and  C_31
    4  A    between atoms: C_5  and  C_23
    5  A    between atoms: C_9  and  C_19
    6  A    between atoms: C_9  and  C_37
    7  A    between atoms: C_11  and  C_20
    8  A    between atoms: C_11  and  C_35
    9  A    between atoms: C_14  and  O_44
   10  A    between atoms: C_21  and  C_25
   11  A    between atoms: C_21  and  C_37
   12  A    between atoms: C_21  and  C_40
   13  A    between atoms: C_22  and  C_34
   14  A    between atoms: C_23  and  C_45
   15  A    between atoms: C_30  and  C_45
   16  A    between atoms: C_35  and  C_47
   17  A    between atoms: C_36  and  C_45
                            x       y       z     vdW  Elec       q    Type
                         _______ _______ _______ _____ _____    ______ ____

>  <TORSDO>
F 17

$$$$
=
 OpenBabel11072409473D

 49 55  0  0  1  0  0  0  0  0999 V2000
  161.0490  209.3670  152.5290 C   0  0  0  0  0  0  0  0  0  0  0  0
  161.0830  208.0110  152.7940 C   0  0  0  0  0  3  0  0  0  0  0  0
  161.3030  207.4790  151.5320 C   0  0  0  0  0  0  0  0  0  0  0  0
  161.3980  208.4470  150.6510 O   0  0  0  0  0  0  0  0  0  0  0  0
  161.2620  209.6070  151.2220 N   0  0  0  0  0  0  0  0  0  0  0  0
  160.9580  210.4250  153.5820 C   0  0  0  0  0  2  0  0  0  0  0  0
  159.7280  210.2470  154.4800 C   0  0  2  0  0  3  0  0  0  0  0  0
  157.0450  211.1550  156.0510 O   0  0  0  0  0  0  0  0  0  0  0  0
  157.9810  213.7820  154.7040 C   0  0  0  0  0  2  0  0  0  0  0  0
  156.9250  211.4840  154.6880 C   0  0  2  0  0  3  0  0  0  0  0  0
  156.6380  214.3780  154.2930 C   0  0  0  0  0  2  0  0  0  0  0  0
  155.5180  213.5700  154.9190 C   0  0  0  0  0  2  0  0  0  0  0  0
  159.2200  211.5860  155.1090 C   0  0  2  0  0  0  0  0  0  0  0  0
  160.4000  212.4870  155.4840 C   0  0  0  0  0  1  0  0  0  0  0  0
  158.4170  211.2710  156.3680 C   0  0  0  0  0  2  0  0  0  0  0  0
  158.1470  212.3000  154.2650 C   0  0  2  0  0  0  0  0  0  0  0  0
  155.5740  212.1450  154.3900 C   0  0  0  0  0  2  0  0  0  0  0  0
  158.3300  212.1930  152.7380 C   0  0  0  0  0  2  0  0  0  0  0  0
  158.8240  213.4850  152.0880 C   0  0  0  0  0  2  0  0  0  0  0  0
  158.9110  213.3470  150.5740 C   0  0  0  0  0  2  0  0  0  0  0  0
  160.3590  213.3960  150.0950 C   0  0  0  0  0  2  0  0  0  0  0  0
  161.6700  213.4850  148.0360 N   0  0  0  0  0  2  0  0  0  0  0  0
  160.8600  212.7140  147.1030 C   0  0  0  0  0  2  0  0  0  0  0  0
  159.5640  213.1500  147.7390 C   0  0  0  0  0  2  0  0  0  0  0  0
  160.4450  213.9450  148.6740 C   0  0  1  0  0  3  0  0  0  0  0  0
  159.9780  209.1290  155.5000 C   0  0  0  0  0  2  0  0  0  0  0  0
  161.2650  209.2210  156.0420 O   0  0  0  0  0  1  0  0  0  0  0  0
  161.4600  206.0270  151.1870 C   0  0  1  0  0  3  0  0  0  0  0  0
  160.7140  203.9910  152.3210 C   0  0  0  0  0  2  0  0  0  0  0  0
  162.1540  203.8510  152.0600 N   0  0  0  0  0  2  0  0  0  0  0  0
  161.5870  205.1550  152.4350 C   0  0  1  0  0  3  0  0  0  0  0  0
  160.3740  205.5210  150.2370 C   0  0  0  0  0  2  0  0  0  0  0  0
  160.9030  205.2910  148.8230 C   0  0  0  0  0  2  0  0  0  0  0  0
  160.2340  201.5410  149.1690 C   0  0  1  0  0  3  0  0  0  0  0  0
  160.7730  202.8780  149.6790 C   0  0  0  0  0  2  0  0  0  0  0  0
  161.0170  203.8260  148.5380 C   0  0  1  0  0  3  0  0  0  0  0  0
  161.2710  203.3430  147.3020 C   0  0  0  0  0  0  0  0  0  0  0  0
  161.2040  201.9220  147.0910 N   0  0  0  0  0  0  0  0  0  0  0  0
  161.1490  201.0120  148.1640 N   0  0  0  0  0  2  0  0  0  0  0  0
  160.7020  204.1280  144.9800 C   0  0  0  0  0  0  0  0  0  0  0  0
  162.8850  205.8920  145.0230 C   0  0  0  0  0  3  0  0  0  0  0  0
  160.9960  204.9300  143.8630 C   0  0  0  0  0  3  0  0  0  0  0  0
  162.0800  205.8060  143.8860 C   0  0  0  0  0  3  0  0  0  0  0  0
  161.5140  204.2160  146.1310 C   0  0  0  0  0  0  0  0  0  0  0  0
  162.6050  205.0980  146.1360 C   0  0  0  0  0  3  0  0  0  0  0  0
  159.6860  201.9270  144.4680 C   0  0  0  0  0  1  0  0  0  0  0  0
  159.6070  203.2560  144.9660 O   0  0  0  0  0  0  0  0  0  0  0  0
  161.2470  200.6050  151.1250 O   0  0  0  0  0  1  0  0  0  0  0  0
  160.1120  200.5500  150.3140 C   0  0  0  0  0  2  0  0  0  0  0  0
  1  2  1  0  0  0  0
  1  6  1  0  0  0  0
  3  2  2  0  0  0  0
  4  5  1  0  0  0  0
  4  3  1  0  0  0  0
  5  1  2  0  0  0  0
  7  6  1  1  0  0  0
  7 13  1  0  0  0  0
  7 26  1  0  0  0  0
  8 15  1  0  0  0  0
 10 17  1  1  0  0  0
 10  8  1  0  0  0  0
 11  9  1  0  0  0  0
 11 12  1  0  0  0  0
 13 14  1  1  0  0  0
 13 15  1  0  0  0  0
 16 18  1  6  0  0  0
 16 10  1  0  0  0  0
 16  9  1  0  0  0  0
 16 13  1  0  0  0  0
 17 12  1  0  0  0  0
 19 18  1  0  0  0  0
 20 19  1  0  0  0  0
 21 20  1  0  0  0  0
 22 25  1  0  0  0  0
 23 24  1  0  0  0  0
 23 22  1  0  0  0  0
 24 25  1  0  0  0  0
 25 21  1  1  0  0  0
 26 27  1  0  0  0  0
 28 32  1  1  0  0  0
 28  3  1  0  0  0  0
 29 31  1  0  0  0  0
 30 29  1  0  0  0  0
 30 31  1  0  0  0  0
 31 28  1  6  0  0  0
 33 32  1  0  0  0  0
 34 35  1  0  0  0  0
 34 49  1  1  0  0  0
 36 33  1  6  0  0  0
 36 35  1  0  0  0  0
 37 36  1  0  0  0  0
 38 37  2  0  0  0  0
 38 39  1  0  0  0  0
 39 34  1  0  0  0  0
 40 44  1  0  0  0  0
 41 45  1  0  0  0  0
 42 43  1  0  0  0  0
 42 40  2  0  0  0  0
 43 41  2  0  0  0  0
 44 45  2  0  0  0  0
 44 37  1  0  0  0  0
 46 47  1  0  0  0  0
 47 40  1  0  0  0  0
 49 48  1  0  0  0  0
M  END
>  <MODEL>
4

>  <REMARK>
 VINA RESULT:      -4.7      1.700      4.267
  Name = 
  17 active torsions:
  status: ('A' for Active; 'I' for Inactive)
    1  A    between atoms: C_3  and  C_20
    2  A    between atoms: C_3  and  C_43
    3  A    between atoms: C_4  and  C_31
    4  A    between atoms: C_5  and  C_23
    5  A    between atoms: C_9  and  C_19
    6  A    between atoms: C_9  and  C_37
    7  A    between atoms: C_11  and  C_20
    8  A    between atoms: C_11  and  C_35
    9  A    between atoms: C_14  and  O_44
   10  A    between atoms: C_21  and  C_25
   11  A    between atoms: C_21  and  C_37
   12  A    between atoms: C_21  and  C_40
   13  A    between atoms: C_22  and  C_34
   14  A    between atoms: C_23  and  C_45
   15  A    between atoms: C_30  and  C_45
   16  A    between atoms: C_35  and  C_47
   17  A    between atoms: C_36  and  C_45
                            x       y       z     vdW  Elec       q    Type
                         _______ _______ _______ _____ _____    ______ ____

>  <TORSDO>
F 17

$$$$
=
 OpenBabel11072409473D

 49 55  0  0  1  0  0  0  0  0999 V2000
  161.0360  206.7890  152.8380 C   0  0  0  0  0  0  0  0  0  0  0  0
  160.5830  207.2550  154.0580 C   0  0  0  0  0  3  0  0  0  0  0  0
  160.8440  208.6140  153.9580 C   0  0  0  0  0  0  0  0  0  0  0  0
  161.3760  208.8810  152.7890 O   0  0  0  0  0  0  0  0  0  0  0  0
  161.4970  207.8010  152.0780 N   0  0  0  0  0  0  0  0  0  0  0  0
  160.8770  205.3790  152.3670 C   0  0  0  0  0  2  0  0  0  0  0  0
  161.6450  205.1110  151.0670 C   0  0  2  0  0  3  0  0  0  0  0  0
  161.4420  203.3920  148.3300 O   0  0  0  0  0  0  0  0  0  0  0  0
  160.4330  206.1890  147.4660 C   0  0  0  0  0  2  0  0  0  0  0  0
  162.2340  204.5340  148.1090 C   0  0  2  0  0  3  0  0  0  0  0  0
  161.0550  206.2930  146.0780 C   0  0  0  0  0  2  0  0  0  0  0  0
  161.6420  204.9510  145.6880 C   0  0  0  0  0  2  0  0  0  0  0  0
  160.7450  205.1760  149.7900 C   0  0  2  0  0  0  0  0  0  0  0  0
  159.4070  205.8510  150.1070 C   0  0  0  0  0  1  0  0  0  0  0  0
  160.4790  203.7570  149.2950 C   0  0  0  0  0  2  0  0  0  0  0  0
  161.4560  205.7710  148.5590 C   0  0  2  0  0  0  0  0  0  0  0  0
  162.7490  204.5870  146.6660 C   0  0  0  0  0  2  0  0  0  0  0  0
  162.4440  206.9170  148.8590 C   0  0  0  0  0  2  0  0  0  0  0  0
  162.0400  208.2530  148.2370 C   0  0  0  0  0  2  0  0  0  0  0  0
  162.0290  209.3670  149.2750 C   0  0  0  0  0  2  0  0  0  0  0  0
  162.7050  210.6270  148.7440 C   0  0  0  0  0  2  0  0  0  0  0  0
  162.4110  213.0110  148.3000 N   0  0  0  0  0  2  0  0  0  0  0  0
  161.7020  213.0180  147.0270 C   0  0  0  0  0  2  0  0  0  0  0  0
  160.9670  211.7380  147.3360 C   0  0  0  0  0  2  0  0  0  0  0  0
  161.7120  211.7820  148.6490 C   0  0  1  0  0  3  0  0  0  0  0  0
  162.4600  203.8180  151.1950 C   0  0  0  0  0  2  0  0  0  0  0  0
  161.6980  202.7970  151.7730 O   0  0  0  0  0  1  0  0  0  0  0  0
  160.5380  209.6610  154.9890 C   0  0  1  0  0  3  0  0  0  0  0  0
  161.7310  211.3570  156.2880 C   0  0  0  0  0  2  0  0  0  0  0  0
  162.7360  210.4450  155.7220 N   0  0  0  0  0  2  0  0  0  0  0  0
  161.5410  210.8130  154.9470 C   0  0  1  0  0  3  0  0  0  0  0  0
  159.0910  210.1520  154.9270 C   0  0  0  0  0  2  0  0  0  0  0  0
  158.9090  211.2980  153.9360 C   0  0  0  0  0  2  0  0  0  0  0  0
  156.1850  212.8950  156.0950 C   0  0  1  0  0  3  0  0  0  0  0  0
  156.9140  211.6910  155.4970 C   0  0  0  0  0  2  0  0  0  0  0  0
  157.6810  212.0870  154.2660 C   0  0  1  0  0  3  0  0  0  0  0  0
  157.2830  213.1520  153.5380 C   0  0  0  0  0  0  0  0  0  0  0  0
  156.1840  213.9450  154.0200 N   0  0  0  0  0  0  0  0  0  0  0  0
  155.3500  213.5020  155.0650 N   0  0  0  0  0  2  0  0  0  0  0  0
  157.2760  214.0480  151.1850 C   0  0  0  0  0  0  0  0  0  0  0  0
  160.0780  213.8970  151.1020 C   0  0  0  0  0  3  0  0  0  0  0  0
  157.9780  214.4140  150.0240 C   0  0  0  0  0  3  0  0  0  0  0  0
  159.3700  214.3400  149.9840 C   0  0  0  0  0  3  0  0  0  0  0  0
  157.9920  213.6040  152.3180 C   0  0  0  0  0  0  0  0  0  0  0  0
  159.3910  213.5280  152.2600 C   0  0  0  0  0  3  0  0  0  0  0  0
  155.0650  214.1240  150.0710 C   0  0  0  0  0  1  0  0  0  0  0  0
  155.8800  214.1330  151.2350 O   0  0  0  0  0  0  0  0  0  0  0  0
  154.8920  211.1400  157.0830 O   0  0  0  0  0  1  0  0  0  0  0  0
  155.3150  212.4600  157.2600 C   0  0  0  0  0  2  0  0  0  0  0  0
  1  2  1  0  0  0  0
  3  2  2  0  0  0  0
  3 28  1  0  0  0  0
  4  3  1  0  0  0  0
  5  4  1  0  0  0  0
  5  1  2  0  0  0  0
  6  1  1  0  0  0  0
  7 26  1  1  0  0  0
  7  6  1  0  0  0  0
  8 15  1  0  0  0  0
  9 16  1  0  0  0  0
 10 17  1  6  0  0  0
 10  8  1  0  0  0  0
 10 16  1  0  0  0  0
 11  9  1  0  0  0  0
 12 11  1  0  0  0  0
 12 17  1  0  0  0  0
 13 14  1  1  0  0  0
 13  7  1  0  0  0  0
 15 13  1  0  0  0  0
 16 18  1  1  0  0  0
 16 13  1  0  0  0  0
 19 18  1  0  0  0  0
 19 20  1  0  0  0  0
 21 20  1  0  0  0  0
 22 25  1  0  0  0  0
 23 24  1  0  0  0  0
 23 22  1  0  0  0  0
 24 25  1  0  0  0  0
 25 21  1  6  0  0  0
 26 27  1  0  0  0  0
 28 32  1  6  0  0  0
 30 29  1  0  0  0  0
 31 28  1  1  0  0  0
 31 30  1  0  0  0  0
 31 29  1  0  0  0  0
 33 32  1  0  0  0  0
 34 49  1  1  0  0  0
 35 34  1  0  0  0  0
 36 33  1  1  0  0  0
 36 35  1  0  0  0  0
 37 38  2  0  0  0  0
 37 36  1  0  0  0  0
 38 39  1  0  0  0  0
 39 34  1  0  0  0  0
 40 47  1  0  0  0  0
 40 44  1  0  0  0  0
 41 45  1  0  0  0  0
 42 40  2  0  0  0  0
 43 42  1  0  0  0  0
 43 41  2  0  0  0  0
 44 37  1  0  0  0  0
 45 44  2  0  0  0  0
 46 47  1  0  0  0  0
 48 49  1  0  0  0  0
M  END
>  <MODEL>
5

>  <REMARK>
 VINA RESULT:      -4.5      2.190      9.347
  Name = 
  17 active torsions:
  status: ('A' for Active; 'I' for Inactive)
    1  A    between atoms: C_3  and  C_20
    2  A    between atoms: C_3  and  C_43
    3  A    between atoms: C_4  and  C_31
    4  A    between atoms: C_5  and  C_23
    5  A    between atoms: C_9  and  C_19
    6  A    between atoms: C_9  and  C_37
    7  A    between atoms: C_11  and  C_20
    8  A    between atoms: C_11  and  C_35
    9  A    between atoms: C_14  and  O_44
   10  A    between atoms: C_21  and  C_25
   11  A    between atoms: C_21  and  C_37
   12  A    between atoms: C_21  and  C_40
   13  A    between atoms: C_22  and  C_34
   14  A    between atoms: C_23  and  C_45
   15  A    between atoms: C_30  and  C_45
   16  A    between atoms: C_35  and  C_47
   17  A    between atoms: C_36  and  C_45
                            x       y       z     vdW  Elec       q    Type
                         _______ _______ _______ _____ _____    ______ ____

>  <TORSDO>
F 17

$$$$
=
 OpenBabel11072409473D

 49 55  0  0  1  0  0  0  0  0999 V2000
  161.8770  207.3490  147.7730 C   0  0  0  0  0  0  0  0  0  0  0  0
  162.6320  208.4670  148.0710 C   0  0  0  0  0  3  0  0  0  0  0  0
  161.9470  208.9930  149.1570 C   0  0  0  0  0  0  0  0  0  0  0  0
  160.9190  208.2300  149.4460 O   0  0  0  0  0  0  0  0  0  0  0  0
  160.8520  207.2160  148.6360 N   0  0  0  0  0  0  0  0  0  0  0  0
  162.2520  206.3340  146.7410 C   0  0  0  0  0  2  0  0  0  0  0  0
  161.2160  205.2090  146.6280 C   0  0  2  0  0  3  0  0  0  0  0  0
  160.0200  202.1990  146.6330 O   0  0  0  0  0  0  0  0  0  0  0  0
  162.3710  202.0130  148.6410 C   0  0  0  0  0  2  0  0  0  0  0  0
  160.0380  202.7000  147.9480 C   0  0  2  0  0  3  0  0  0  0  0  0
  161.7640  201.0940  149.6960 C   0  0  0  0  0  2  0  0  0  0  0  0
  160.4540  200.5320  149.1790 C   0  0  0  0  0  2  0  0  0  0  0  0
  161.8130  203.7880  146.8900 C   0  0  2  0  0  0  0  0  0  0  0  0
  163.3170  203.7730  146.6050 C   0  0  0  0  0  1  0  0  0  0  0  0
  161.1240  202.7820  145.9730 C   0  0  0  0  0  2  0  0  0  0  0  0
  161.4450  203.2040  148.2690 C   0  0  2  0  0  0  0  0  0  0  0  0
  159.4790  201.6760  148.9440 C   0  0  0  0  0  2  0  0  0  0  0  0
  161.3720  204.2290  149.4190 C   0  0  0  0  0  2  0  0  0  0  0  0
  160.1190  204.0920  150.2830 C   0  0  0  0  0  2  0  0  0  0  0  0
  160.4710  203.9820  151.7600 C   0  0  0  0  0  2  0  0  0  0  0  0
  161.9720  204.1370  151.9860 C   0  0  0  0  0  2  0  0  0  0  0  0
  162.1280  206.5730  151.8940 N   0  0  0  0  0  2  0  0  0  0  0  0
  160.9990  207.0010  152.7090 C   0  0  0  0  0  2  0  0  0  0  0  0
  161.1050  205.8090  153.6270 C   0  0  0  0  0  2  0  0  0  0  0  0
  162.2790  205.4150  152.7620 C   0  0  1  0  0  3  0  0  0  0  0  0
  160.4460  205.3330  145.3080 C   0  0  0  0  0  2  0  0  0  0  0  0
  161.2840  205.7650  144.2750 O   0  0  0  0  0  1  0  0  0  0  0  0
  162.3160  210.2190  149.9390 C   0  0  1  0  0  3  0  0  0  0  0  0
  162.5840  212.2720  148.6350 C   0  0  0  0  0  2  0  0  0  0  0  0
  161.6190  211.4190  147.9250 N   0  0  0  0  0  2  0  0  0  0  0  0
  161.6290  211.4710  149.3960 C   0  0  1  0  0  3  0  0  0  0  0  0
  162.1040  210.0500  151.4440 C   0  0  0  0  0  2  0  0  0  0  0  0
  160.6700  210.3650  151.8670 C   0  0  0  0  0  2  0  0  0  0  0  0
  161.8420  210.7840  155.4840 C   0  0  1  0  0  3  0  0  0  0  0  0
  161.3760  209.9420  154.2940 C   0  0  0  0  0  2  0  0  0  0  0  0
  160.6280  210.7870  153.3020 C   0  0  0  0  0  0  0  0  0  0  0  0
  159.9980  211.9100  153.7110 C   0  0  0  0  0  0  0  0  0  0  0  0
  160.1450  212.3210  155.0810 N   0  0  0  0  0  2  0  0  0  0  0  0
  160.6900  211.4680  156.0600 N   0  0  0  0  0  2  0  0  0  0  0  0
  157.8430  212.9050  152.8730 C   0  0  0  0  0  0  0  0  0  0  0  0
  159.2390  214.2760  150.8610 C   0  0  0  0  0  3  0  0  0  0  0  0
  157.1560  213.7060  151.9450 C   0  0  0  0  0  3  0  0  0  0  0  0
  157.8510  214.3880  150.9470 C   0  0  0  0  0  3  0  0  0  0  0  0
  159.2480  212.7930  152.7890 C   0  0  0  0  0  0  0  0  0  0  0  0
  159.9310  213.4800  151.7740 C   0  0  0  0  0  3  0  0  0  0  0  0
  156.5730  212.8920  155.0000 C   0  0  0  0  0  1  0  0  0  0  0  0
  157.1520  212.2280  153.8850 O   0  0  0  0  0  0  0  0  0  0  0  0
  161.9540  208.6080  156.4740 O   0  0  0  0  0  1  0  0  0  0  0  0
  162.4830  209.8990  156.5380 C   0  0  0  0  0  2  0  0  0  0  0  0
  1  2  1  0  0  0  0
  1  5  2  0  0  0  0
  2  3  2  0  0  0  0
  3  4  1  0  0  0  0
  3 28  1  0  0  0  0
  5  4  1  0  0  0  0
  6  1  1  0  0  0  0
  7 26  1  6  0  0  0
  7  6  1  0  0  0  0
  7 13  1  0  0  0  0
  8 10  1  0  0  0  0
  9 11  1  0  0  0  0
 10 16  1  0  0  0  0
 10 17  1  1  0  0  0
 12 11  1  0  0  0  0
 13 14  1  6  0  0  0
 13 16  1  0  0  0  0
 15  8  1  0  0  0  0
 15 13  1  0  0  0  0
 16  9  1  0  0  0  0
 16 18  1  1  0  0  0
 17 12  1  0  0  0  0
 18 19  1  0  0  0  0
 19 20  1  0  0  0  0
 20 21  1  0  0  0  0
 22 23  1  0  0  0  0
 22 25  1  0  0  0  0
 23 24  1  0  0  0  0
 25 21  1  6  0  0  0
 25 24  1  0  0  0  0
 27 26  1  0  0  0  0
 28 32  1  1  0  0  0
 29 31  1  0  0  0  0
 30 29  1  0  0  0  0
 30 31  1  0  0  0  0
 31 28  1  1  0  0  0
 32 33  1  0  0  0  0
 33 36  1  0  0  0  0
 34 39  1  0  0  0  0
 34 49  1  1  0  0  0
 35 34  1  0  0  0  0
 36 37  2  0  0  0  0
 36 35  1  0  0  0  0
 37 38  1  0  0  0  0
 38 39  1  0  0  0  0
 40 47  1  0  0  0  0
 41 43  2  0  0  0  0
 41 45  1  0  0  0  0
 42 40  2  0  0  0  0
 43 42  1  0  0  0  0
 44 40  1  0  0  0  0
 44 37  1  0  0  0  0
 45 44  2  0  0  0  0
 47 46  1  0  0  0  0
 48 49  1  0  0  0  0
M  END
>  <MODEL>
6

>  <REMARK>
 VINA RESULT:      -4.4      1.971      9.804
  Name = 
  17 active torsions:
  status: ('A' for Active; 'I' for Inactive)
    1  A    between atoms: C_3  and  C_20
    2  A    between atoms: C_3  and  C_43
    3  A    between atoms: C_4  and  C_31
    4  A    between atoms: C_5  and  C_23
    5  A    between atoms: C_9  and  C_19
    6  A    between atoms: C_9  and  C_37
    7  A    between atoms: C_11  and  C_20
    8  A    between atoms: C_11  and  C_35
    9  A    between atoms: C_14  and  O_44
   10  A    between atoms: C_21  and  C_25
   11  A    between atoms: C_21  and  C_37
   12  A    between atoms: C_21  and  C_40
   13  A    between atoms: C_22  and  C_34
   14  A    between atoms: C_23  and  C_45
   15  A    between atoms: C_30  and  C_45
   16  A    between atoms: C_35  and  C_47
   17  A    between atoms: C_36  and  C_45
                            x       y       z     vdW  Elec       q    Type
                         _______ _______ _______ _____ _____    ______ ____

>  <TORSDO>
F 17

$$$$
=
 OpenBabel11072409473D

 49 55  0  0  1  0  0  0  0  0999 V2000
  162.0020  207.4160  148.2730 C   0  0  0  0  0  0  0  0  0  0  0  0
  162.6130  208.5740  148.7170 C   0  0  0  0  0  3  0  0  0  0  0  0
  161.7840  208.9500  149.7640 C   0  0  0  0  0  0  0  0  0  0  0  0
  160.8150  208.0770  149.9010 O   0  0  0  0  0  0  0  0  0  0  0  0
  160.9210  207.1250  149.0210 N   0  0  0  0  0  0  0  0  0  0  0  0
  162.5660  206.5220  147.2160 C   0  0  0  0  0  2  0  0  0  0  0  0
  161.5130  205.5690  146.6380 C   0  0  2  0  0  3  0  0  0  0  0  0
  160.7460  203.2500  144.5110 O   0  0  0  0  0  0  0  0  0  0  0  0
  161.9980  201.6540  146.8510 C   0  0  0  0  0  2  0  0  0  0  0  0
  160.1400  202.9700  145.7490 C   0  0  2  0  0  3  0  0  0  0  0  0
  161.0900  200.4300  146.8700 C   0  0  0  0  0  2  0  0  0  0  0  0
  160.1990  200.4460  145.6430 C   0  0  0  0  0  2  0  0  0  0  0  0
  162.0790  204.1490  146.3060 C   0  0  2  0  0  0  0  0  0  0  0  0
  163.5500  204.0450  146.7140 C   0  0  0  0  0  1  0  0  0  0  0  0
  161.9620  203.9060  144.8030 C   0  0  0  0  0  2  0  0  0  0  0  0
  161.2100  202.9940  146.8420 C   0  0  2  0  0  0  0  0  0  0  0  0
  159.3120  201.6810  145.6870 C   0  0  0  0  0  2  0  0  0  0  0  0
  160.5410  203.2520  148.2080 C   0  0  0  0  0  2  0  0  0  0  0  0
  161.0700  202.3560  149.3270 C   0  0  0  0  0  2  0  0  0  0  0  0
  160.8150  202.9690  150.6970 C   0  0  0  0  0  2  0  0  0  0  0  0
  161.1480  204.4580  150.7090 C   0  0  0  0  0  2  0  0  0  0  0  0
  162.4700  206.1950  151.8050 N   0  0  0  0  0  2  0  0  0  0  0  0
  161.6930  206.4870  153.0020 C   0  0  0  0  0  2  0  0  0  0  0  0
  161.2060  205.0650  153.1320 C   0  0  0  0  0  2  0  0  0  0  0  0
  162.0390  204.8080  151.8980 C   0  0  1  0  0  3  0  0  0  0  0  0
  160.7780  206.2410  145.4730 C   0  0  0  0  0  2  0  0  0  0  0  0
  159.3920  206.1840  145.6520 O   0  0  0  0  0  1  0  0  0  0  0  0
  161.9590  210.1410  150.6590 C   0  0  1  0  0  3  0  0  0  0  0  0
  161.6350  211.4100  148.5920 C   0  0  0  0  0  2  0  0  0  0  0  0
  161.1430  212.2390  149.7020 N   0  0  0  0  0  2  0  0  0  0  0  0
  162.3360  211.3950  149.8730 C   0  0  1  0  0  3  0  0  0  0  0  0
  160.7600  210.3750  151.5790 C   0  0  0  0  0  2  0  0  0  0  0  0
  161.1580  210.4080  153.0530 C   0  0  0  0  0  2  0  0  0  0  0  0
  158.3190  212.8920  153.6920 C   0  0  1  0  0  3  0  0  0  0  0  0
  159.7030  212.5160  153.1600 C   0  0  0  0  0  2  0  0  0  0  0  0
  160.2150  211.2720  153.8310 C   0  0  0  0  0  0  0  0  0  0  0  0
  159.7790  210.9450  155.0660 C   0  0  0  0  0  0  0  0  0  0  0  0
  158.7530  211.7510  155.6710 N   0  0  0  0  0  2  0  0  0  0  0  0
  158.3850  213.0040  155.1450 N   0  0  0  0  0  2  0  0  0  0  0  0
  161.4010  209.7550  156.5790 C   0  0  0  0  0  0  0  0  0  0  0  0
  159.9780  207.3590  156.2490 C   0  0  0  0  0  3  0  0  0  0  0  0
  161.8380  208.5720  157.2000 C   0  0  0  0  0  3  0  0  0  0  0  0
  161.1300  207.3820  157.0360 C   0  0  0  0  0  3  0  0  0  0  0  0
  160.2350  209.7320  155.7850 C   0  0  0  0  0  0  0  0  0  0  0  0
  159.5370  208.5260  155.6240 C   0  0  0  0  0  3  0  0  0  0  0  0
  163.5040  211.0660  156.5470 C   0  0  0  0  0  1  0  0  0  0  0  0
  162.1020  210.9550  156.7510 O   0  0  0  0  0  0  0  0  0  0  0  0
  157.0920  213.9990  151.9620 O   0  0  0  0  0  1  0  0  0  0  0  0
  157.8680  214.2160  153.1030 C   0  0  0  0  0  2  0  0  0  0  0  0
  1  2  1  0  0  0  0
  1  5  2  0  0  0  0
  2  3  2  0  0  0  0
  3  4  1  0  0  0  0
  3 28  1  0  0  0  0
  5  4  1  0  0  0  0
  6  1  1  0  0  0  0
  7 26  1  6  0  0  0
  7  6  1  0  0  0  0
  8 15  1  0  0  0  0
  8 10  1  0  0  0  0
  9 11  1  0  0  0  0
 10 17  1  6  0  0  0
 10 16  1  0  0  0  0
 12 17  1  0  0  0  0
 12 11  1  0  0  0  0
 13  7  1  0  0  0  0
 13 14  1  1  0  0  0
 13 16  1  0  0  0  0
 15 13  1  0  0  0  0
 16  9  1  0  0  0  0
 16 18  1  1  0  0  0
 18 19  1  0  0  0  0
 19 20  1  0  0  0  0
 20 21  1  0  0  0  0
 22 25  1  0  0  0  0
 22 23  1  0  0  0  0
 23 24  1  0  0  0  0
 25 21  1  6  0  0  0
 25 24  1  0  0  0  0
 26 27  1  0  0  0  0
 28 32  1  6  0  0  0
 29 30  1  0  0  0  0
 29 31  1  0  0  0  0
 30 31  1  0  0  0  0
 31 28  1  1  0  0  0
 32 33  1  0  0  0  0
 33 36  1  0  0  0  0
 34 49  1  6  0  0  0
 34 39  1  0  0  0  0
 35 34  1  0  0  0  0
 35 36  1  0  0  0  0
 36 37  2  0  0  0  0
 37 38  1  0  0  0  0
 37 44  1  0  0  0  0
 39 38  1  0  0  0  0
 40 47  1  0  0  0  0
 40 42  1  0  0  0  0
 41 43  1  0  0  0  0
 43 42  2  0  0  0  0
 44 40  2  0  0  0  0
 45 44  1  0  0  0  0
 45 41  2  0  0  0  0
 46 47  1  0  0  0  0
 48 49  1  0  0  0  0
M  END
>  <MODEL>
7

>  <REMARK>
 VINA RESULT:      -4.3      2.468      9.875
  Name = 
  17 active torsions:
  status: ('A' for Active; 'I' for Inactive)
    1  A    between atoms: C_3  and  C_20
    2  A    between atoms: C_3  and  C_43
    3  A    between atoms: C_4  and  C_31
    4  A    between atoms: C_5  and  C_23
    5  A    between atoms: C_9  and  C_19
    6  A    between atoms: C_9  and  C_37
    7  A    between atoms: C_11  and  C_20
    8  A    between atoms: C_11  and  C_35
    9  A    between atoms: C_14  and  O_44
   10  A    between atoms: C_21  and  C_25
   11  A    between atoms: C_21  and  C_37
   12  A    between atoms: C_21  and  C_40
   13  A    between atoms: C_22  and  C_34
   14  A    between atoms: C_23  and  C_45
   15  A    between atoms: C_30  and  C_45
   16  A    between atoms: C_35  and  C_47
   17  A    between atoms: C_36  and  C_45
                            x       y       z     vdW  Elec       q    Type
                         _______ _______ _______ _____ _____    ______ ____

>  <TORSDO>
F 17

$$$$
