=
 OpenBabel11072414253D

 26 28  0  0  1  0  0  0  0  0999 V2000
  160.5520  202.9810  150.5790 O   0  0  0  0  0  1  0  0  0  0  0  0
  160.6640  204.3610  150.4040 C   0  0  2  0  0  3  0  0  0  0  0  0
  160.7660  206.7540  147.5050 C   0  0  0  0  0  3  0  0  0  0  0  0
  161.3110  206.1790  146.2580 C   0  0  0  0  0  3  0  0  0  0  0  0
  162.1000  204.2690  148.4000 N   0  0  0  0  0  2  0  0  0  0  0  0
  161.9530  203.8130  147.0130 C   0  0  2  0  0  3  0  0  0  0  0  0
  161.8210  204.9610  146.0420 C   0  0  0  0  0  3  0  0  0  0  0  0
  160.7990  204.6850  148.9160 C   0  0  2  0  0  3  0  0  0  0  0  0
  160.5610  206.1360  148.6680 C   0  0  0  0  0  3  0  0  0  0  0  0
  160.9180  200.5000  146.5020 C   0  0  0  0  0  2  0  0  0  0  0  0
  160.3250  201.1920  145.3770 N   0  0  0  0  0  2  0  0  0  0  0  0
  161.3190  201.5750  147.4620 C   0  0  0  0  0  2  0  0  0  0  0  0
  160.8780  202.8200  146.8580 N   0  0  2  0  0  0  0  0  0  0  0  0
  160.7350  202.5330  145.4860 N   0  0  0  0  0  2  0  0  0  0  0  0
  161.8390  204.8960  151.2160 C   0  0  0  0  0  2  0  0  0  0  0  0
  161.6600  208.8830  152.5440 C   0  0  0  0  0  2  0  0  0  0  0  0
  161.1080  209.1360  153.8750 N   0  0  0  0  0  0  0  0  0  0  0  0
  161.0430  206.5120  152.9330 C   0  0  0  0  0  0  0  0  0  0  0  0
  160.7680  210.4670  154.3090 C   0  0  0  0  0  0  0  0  0  0  0  0
  161.2060  208.0580  154.8600 C   0  0  0  0  0  2  0  0  0  0  0  0
  160.5540  206.7880  154.3210 C   0  0  0  0  0  2  0  0  0  0  0  0
  160.7400  210.7300  155.5410 O   0  0  0  0  0  0  0  0  0  0  0  0
  161.3890  205.2660  152.5950 C   0  0  0  0  0  3  0  0  0  0  0  0
  161.0230  207.6370  151.9340 C   0  0  0  0  0  2  0  0  0  0  0  0
  160.4220  211.5480  153.3700 C   0  0  0  0  0  3  0  0  0  0  0  0
  159.2950  211.5820  152.7400 N   0  0  0  0  0  2  0  0  0  0  0  0
  2  1  1  6  0  0  0
  2 15  1  0  0  0  0
  3  9  2  0  0  0  0
  4  3  1  0  0  0  0
  5  8  1  0  0  0  0
  6  7  1  6  0  0  0
  6  5  1  0  0  0  0
  7  4  2  0  0  0  0
  8  2  1  1  0  0  0
  9  8  1  0  0  0  0
 10 12  1  0  0  0  0
 11 14  1  0  0  0  0
 11 10  1  0  0  0  0
 13  6  1  0  0  0  0
 13 12  1  1  0  0  0
 14 13  1  0  0  0  0
 15 23  1  0  0  0  0
 16 17  1  0  0  0  0
 17 19  1  0  0  0  0
 17 20  1  0  0  0  0
 18 21  1  0  0  0  0
 19 22  2  0  0  0  0
 21 20  1  0  0  0  0
 23 18  2  0  0  0  0
 24 16  1  0  0  0  0
 24 18  1  0  0  0  0
 25 19  1  0  0  0  0
 26 25  2  0  0  0  0
M  END
>  <MODEL>
1

>  <REMARK>
 VINA RESULT:      -7.9      0.000      0.000
  Name = 
  5 active torsions:
  status: ('A' for Active; 'I' for Inactive)
    1  A    between atoms: C_2  and  C_15
    2  A    between atoms: C_6  and  C_14
    3  A    between atoms: C_6  and  C_25
    4  A    between atoms: C_10  and  N_22
    5  A    between atoms: C_14  and  C_17
                            x       y       z     vdW  Elec       q    Type
                         _______ _______ _______ _____ _____    ______ ____

>  <TORSDO>
F 5

$$$$
=
 OpenBabel11072414253D

 26 28  0  0  1  0  0  0  0  0999 V2000
  159.9800  206.4440  149.6110 O   0  0  0  0  0  1  0  0  0  0  0  0
  160.7710  206.8710  148.5430 C   0  0  2  0  0  3  0  0  0  0  0  0
  160.6250  205.7310  144.9630 C   0  0  0  0  0  3  0  0  0  0  0  0
  161.1090  204.3530  144.7410 C   0  0  0  0  0  3  0  0  0  0  0  0
  162.0840  205.0880  147.4560 N   0  0  0  0  0  2  0  0  0  0  0  0
  161.8670  203.6820  147.0990 C   0  0  2  0  0  3  0  0  0  0  0  0
  161.6410  203.4940  145.6180 C   0  0  0  0  0  3  0  0  0  0  0  0
  160.8050  205.7930  147.4610 C   0  0  2  0  0  3  0  0  0  0  0  0
  160.5090  206.3800  146.1220 C   0  0  0  0  0  3  0  0  0  0  0  0
  160.8830  201.8960  149.9540 C   0  0  0  0  0  2  0  0  0  0  0  0
  160.4520  201.0300  148.8780 N   0  0  0  0  0  2  0  0  0  0  0  0
  161.1610  203.2190  149.3120 C   0  0  0  0  0  2  0  0  0  0  0  0
  160.8140  203.0520  147.9120 N   0  0  2  0  0  0  0  0  0  0  0  0
  160.8540  201.6610  147.6860 N   0  0  0  0  0  2  0  0  0  0  0  0
  162.1680  207.2320  149.0390 C   0  0  0  0  0  2  0  0  0  0  0  0
  160.9430  207.5160  153.0520 C   0  0  0  0  0  2  0  0  0  0  0  0
  161.0480  208.8200  153.7080 N   0  0  0  0  0  0  0  0  0  0  0  0
  162.0410  208.6030  151.1110 C   0  0  0  0  0  0  0  0  0  0  0  0
  160.9040  208.9600  155.1340 C   0  0  0  0  0  0  0  0  0  0  0  0
  160.9880  210.0090  152.8560 C   0  0  0  0  0  2  0  0  0  0  0  0
  162.0670  209.9430  151.7780 C   0  0  0  0  0  2  0  0  0  0  0  0
  160.5440  210.0670  155.6160 O   0  0  0  0  0  0  0  0  0  0  0  0
  162.1350  208.5320  149.7800 C   0  0  0  0  0  3  0  0  0  0  0  0
  162.0210  207.3750  151.9800 C   0  0  0  0  0  2  0  0  0  0  0  0
  161.1810  207.8620  156.0760 C   0  0  0  0  0  3  0  0  0  0  0  0
  160.2390  207.1890  156.6490 N   0  0  0  0  0  2  0  0  0  0  0  0
  2 15  1  0  0  0  0
  2  1  1  1  0  0  0
  3  9  2  0  0  0  0
  4  3  1  0  0  0  0
  4  7  2  0  0  0  0
  5  8  1  0  0  0  0
  6  7  1  6  0  0  0
  6  5  1  0  0  0  0
  6 13  1  0  0  0  0
  8  2  1  1  0  0  0
  9  8  1  0  0  0  0
 11 10  1  0  0  0  0
 12 10  1  0  0  0  0
 13 12  1  1  0  0  0
 14 13  1  0  0  0  0
 14 11  1  0  0  0  0
 15 23  1  0  0  0  0
 16 17  1  0  0  0  0
 17 19  1  0  0  0  0
 18 21  1  0  0  0  0
 18 24  1  0  0  0  0
 19 22  2  0  0  0  0
 19 25  1  0  0  0  0
 20 17  1  0  0  0  0
 21 20  1  0  0  0  0
 23 18  2  0  0  0  0
 24 16  1  0  0  0  0
 25 26  2  0  0  0  0
M  END
>  <MODEL>
2

>  <REMARK>
 VINA RESULT:      -7.9      1.851      2.897
  Name = 
  5 active torsions:
  status: ('A' for Active; 'I' for Inactive)
    1  A    between atoms: C_2  and  C_15
    2  A    between atoms: C_6  and  C_14
    3  A    between atoms: C_6  and  C_25
    4  A    between atoms: C_10  and  N_22
    5  A    between atoms: C_14  and  C_17
                            x       y       z     vdW  Elec       q    Type
                         _______ _______ _______ _____ _____    ______ ____

>  <TORSDO>
F 5

$$$$
=
 OpenBabel11072414253D

 26 28  0  0  1  0  0  0  0  0999 V2000
  162.3320  208.5240  149.8120 O   0  0  0  0  0  1  0  0  0  0  0  0
  162.0300  207.7600  150.9400 C   0  0  2  0  0  3  0  0  0  0  0  0
  161.5600  204.1140  151.7300 C   0  0  0  0  0  3  0  0  0  0  0  0
  161.0630  203.3030  150.5980 C   0  0  0  0  0  3  0  0  0  0  0  0
  160.5710  206.1290  149.8020 N   0  0  0  0  0  2  0  0  0  0  0  0
  160.7410  205.0870  148.7830 C   0  0  2  0  0  3  0  0  0  0  0  0
  160.7060  203.6970  149.3710 C   0  0  0  0  0  3  0  0  0  0  0  0
  161.8210  206.3000  150.5360 C   0  0  2  0  0  3  0  0  0  0  0  0
  161.8690  205.4110  151.7320 C   0  0  0  0  0  3  0  0  0  0  0  0
  162.1710  205.8230  145.6650 C   0  0  0  0  0  2  0  0  0  0  0  0
  162.7380  204.5280  145.9730 N   0  0  0  0  0  2  0  0  0  0  0  0
  161.6020  206.3240  146.9550 C   0  0  0  0  0  2  0  0  0  0  0  0
  161.9290  205.3110  147.9430 N   0  0  2  0  0  0  0  0  0  0  0  0
  162.1730  204.1380  147.2010 N   0  0  0  0  0  2  0  0  0  0  0  0
  160.8120  208.3390  151.6530 C   0  0  0  0  0  2  0  0  0  0  0  0
  160.0350  211.9910  153.5870 C   0  0  0  0  0  2  0  0  0  0  0  0
  160.2760  212.0660  155.0280 N   0  0  0  0  0  0  0  0  0  0  0  0
  160.6130  209.5880  153.7950 C   0  0  0  0  0  0  0  0  0  0  0  0
  159.8000  213.1750  155.8150 C   0  0  0  0  0  0  0  0  0  0  0  0
  161.2760  211.1580  155.5910 C   0  0  0  0  0  2  0  0  0  0  0  0
  160.9260  209.7110  155.2540 C   0  0  0  0  0  2  0  0  0  0  0  0
  160.3770  213.4600  156.8980 O   0  0  0  0  0  0  0  0  0  0  0  0
  161.1170  208.5630  153.1010 C   0  0  0  0  0  3  0  0  0  0  0  0
  159.6470  210.5690  153.1890 C   0  0  0  0  0  2  0  0  0  0  0  0
  158.6400  213.9920  155.4230 C   0  0  0  0  0  3  0  0  0  0  0  0
  157.4280  213.5480  155.4900 N   0  0  0  0  0  2  0  0  0  0  0  0
  2  1  1  6  0  0  0
  2 15  1  0  0  0  0
  3  9  2  0  0  0  0
  4  3  1  0  0  0  0
  5  8  1  0  0  0  0
  6  7  1  1  0  0  0
  6  5  1  0  0  0  0
  7  4  2  0  0  0  0
  8  2  1  1  0  0  0
  8  9  1  0  0  0  0
 10 11  1  0  0  0  0
 10 12  1  0  0  0  0
 11 14  1  0  0  0  0
 13 12  1  6  0  0  0
 13  6  1  0  0  0  0
 14 13  1  0  0  0  0
 15 23  1  0  0  0  0
 16 17  1  0  0  0  0
 17 20  1  0  0  0  0
 17 19  1  0  0  0  0
 18 21  1  0  0  0  0
 19 22  2  0  0  0  0
 21 20  1  0  0  0  0
 23 18  2  0  0  0  0
 24 16  1  0  0  0  0
 24 18  1  0  0  0  0
 25 26  2  0  0  0  0
 25 19  1  0  0  0  0
M  END
>  <MODEL>
3

>  <REMARK>
 VINA RESULT:      -7.8      2.343      3.784
  Name = 
  5 active torsions:
  status: ('A' for Active; 'I' for Inactive)
    1  A    between atoms: C_2  and  C_15
    2  A    between atoms: C_6  and  C_14
    3  A    between atoms: C_6  and  C_25
    4  A    between atoms: C_10  and  N_22
    5  A    between atoms: C_14  and  C_17
                            x       y       z     vdW  Elec       q    Type
                         _______ _______ _______ _____ _____    ______ ____

>  <TORSDO>
F 5

$$$$
=
 OpenBabel11072414253D

 26 28  0  0  1  0  0  0  0  0999 V2000
  161.7570  210.3620  151.1620 O   0  0  0  0  0  1  0  0  0  0  0  0
  161.2470  209.0730  151.3280 C   0  0  2  0  0  3  0  0  0  0  0  0
  160.7850  206.9730  154.4120 C   0  0  0  0  0  3  0  0  0  0  0  0
  160.5350  207.7470  155.6460 C   0  0  0  0  0  3  0  0  0  0  0  0
  161.5690  209.7310  153.6840 N   0  0  0  0  0  2  0  0  0  0  0  0
  160.7060  210.1590  154.7900 C   0  0  2  0  0  3  0  0  0  0  0  0
  160.5130  209.0730  155.8200 C   0  0  0  0  0  3  0  0  0  0  0  0
  160.8110  208.8720  152.7790 C   0  0  2  0  0  3  0  0  0  0  0  0
  160.9320  207.4380  153.1720 C   0  0  0  0  0  3  0  0  0  0  0  0
  158.4770  212.8570  154.5450 C   0  0  0  0  0  2  0  0  0  0  0  0
  157.6860  211.8570  155.2300 N   0  0  0  0  0  2  0  0  0  0  0  0
  159.6480  212.1170  153.9780 C   0  0  0  0  0  2  0  0  0  0  0  0
  159.4290  210.7230  154.3220 N   0  0  2  0  0  0  0  0  0  0  0  0
  158.5330  210.7480  155.4090 N   0  0  0  0  0  2  0  0  0  0  0  0
  162.2820  208.0420  150.8910 C   0  0  0  0  0  2  0  0  0  0  0  0
  161.5220  204.0090  149.9690 C   0  0  0  0  0  2  0  0  0  0  0  0
  161.1500  203.6810  148.5930 N   0  0  0  0  0  0  0  0  0  0  0  0
  161.4630  206.3780  149.2330 C   0  0  0  0  0  0  0  0  0  0  0  0
  160.6230  202.3870  148.2420 C   0  0  0  0  0  0  0  0  0  0  0  0
  161.6180  204.5800  147.5360 C   0  0  0  0  0  2  0  0  0  0  0  0
  161.1560  206.0090  147.8140 C   0  0  0  0  0  2  0  0  0  0  0  0
  160.7400  201.9690  147.0600 O   0  0  0  0  0  0  0  0  0  0  0  0
  161.9930  207.5750  149.4980 C   0  0  0  0  0  3  0  0  0  0  0  0
  161.0590  205.4200  150.3210 C   0  0  0  0  0  2  0  0  0  0  0  0
  159.9240  201.5230  149.2080 C   0  0  0  0  0  3  0  0  0  0  0  0
  160.5440  200.9020  150.1560 N   0  0  0  0  0  2  0  0  0  0  0  0
  2  1  1  1  0  0  0
  3  4  1  0  0  0  0
  4  7  2  0  0  0  0
  5  6  1  0  0  0  0
  6  7  1  1  0  0  0
  8  2  1  6  0  0  0
  8  9  1  0  0  0  0
  8  5  1  0  0  0  0
  9  3  2  0  0  0  0
 10 11  1  0  0  0  0
 11 14  1  0  0  0  0
 12 10  1  0  0  0  0
 13 12  1  1  0  0  0
 13  6  1  0  0  0  0
 13 14  1  0  0  0  0
 15  2  1  0  0  0  0
 16 24  1  0  0  0  0
 17 16  1  0  0  0  0
 18 23  2  0  0  0  0
 18 24  1  0  0  0  0
 19 17  1  0  0  0  0
 19 25  1  0  0  0  0
 20 21  1  0  0  0  0
 20 17  1  0  0  0  0
 21 18  1  0  0  0  0
 22 19  2  0  0  0  0
 23 15  1  0  0  0  0
 25 26  2  0  0  0  0
M  END
>  <MODEL>
4

>  <REMARK>
 VINA RESULT:      -7.7      2.021      9.139
  Name = 
  5 active torsions:
  status: ('A' for Active; 'I' for Inactive)
    1  A    between atoms: C_2  and  C_15
    2  A    between atoms: C_6  and  C_14
    3  A    between atoms: C_6  and  C_25
    4  A    between atoms: C_10  and  N_22
    5  A    between atoms: C_14  and  C_17
                            x       y       z     vdW  Elec       q    Type
                         _______ _______ _______ _____ _____    ______ ____

>  <TORSDO>
F 5

$$$$
=
 OpenBabel11072414253D

 26 28  0  0  1  0  0  0  0  0999 V2000
  160.4580  203.5650  152.7420 O   0  0  0  0  0  1  0  0  0  0  0  0
  160.7740  204.3350  151.6220 C   0  0  2  0  0  3  0  0  0  0  0  0
  161.2940  200.9540  150.0600 C   0  0  0  0  0  3  0  0  0  0  0  0
  161.2440  200.9500  148.5830 C   0  0  0  0  0  3  0  0  0  0  0  0
  160.0630  203.5600  149.3890 N   0  0  0  0  0  2  0  0  0  0  0  0
  160.6940  203.4040  148.0740 C   0  0  2  0  0  3  0  0  0  0  0  0
  160.9820  201.9590  147.7440 C   0  0  0  0  0  3  0  0  0  0  0  0
  161.0750  203.4210  150.4330 C   0  0  2  0  0  3  0  0  0  0  0  0
  161.1980  202.0020  150.8770 C   0  0  0  0  0  3  0  0  0  0  0  0
  162.2490  206.2040  146.6440 C   0  0  0  0  0  2  0  0  0  0  0  0
  163.0840  205.1140  146.1870 N   0  0  0  0  0  2  0  0  0  0  0  0
  161.4240  205.6340  147.7550 C   0  0  0  0  0  2  0  0  0  0  0  0
  161.8780  204.2630  147.9110 N   0  0  2  0  0  0  0  0  0  0  0  0
  162.4950  203.9380  146.6870 N   0  0  0  0  0  2  0  0  0  0  0  0
  161.9400  205.2660  151.9400 C   0  0  0  0  0  2  0  0  0  0  0  0
  161.3570  209.4080  152.3720 C   0  0  0  0  0  2  0  0  0  0  0  0
  161.0650  209.9210  153.7100 N   0  0  0  0  0  0  0  0  0  0  0  0
  161.2580  207.1560  153.4070 C   0  0  0  0  0  0  0  0  0  0  0  0
  160.5980  211.2680  153.9160 C   0  0  0  0  0  0  0  0  0  0  0  0
  161.5560  209.1460  154.8510 C   0  0  0  0  0  2  0  0  0  0  0  0
  161.0350  207.7120  154.7790 C   0  0  0  0  0  2  0  0  0  0  0  0
  160.7870  211.8280  155.0290 O   0  0  0  0  0  0  0  0  0  0  0  0
  161.7350  205.9140  153.2730 C   0  0  0  0  0  3  0  0  0  0  0  0
  160.8310  207.9830  152.2250 C   0  0  0  0  0  2  0  0  0  0  0  0
  159.8790  212.0300  152.8810 C   0  0  0  0  0  3  0  0  0  0  0  0
  158.6490  211.7840  152.5710 N   0  0  0  0  0  2  0  0  0  0  0  0
  2 15  1  0  0  0  0
  2  1  1  1  0  0  0
  3  9  2  0  0  0  0
  4  3  1  0  0  0  0
  5  8  1  0  0  0  0
  6  7  1  1  0  0  0
  6  5  1  0  0  0  0
  7  4  2  0  0  0  0
  8  9  1  0  0  0  0
  8  2  1  1  0  0  0
 10 12  1  0  0  0  0
 11 10  1  0  0  0  0
 11 14  1  0  0  0  0
 13 12  1  6  0  0  0
 13  6  1  0  0  0  0
 14 13  1  0  0  0  0
 15 23  1  0  0  0  0
 16 17  1  0  0  0  0
 17 19  1  0  0  0  0
 17 20  1  0  0  0  0
 18 21  1  0  0  0  0
 19 22  2  0  0  0  0
 21 20  1  0  0  0  0
 23 18  2  0  0  0  0
 24 16  1  0  0  0  0
 24 18  1  0  0  0  0
 25 19  1  0  0  0  0
 26 25  2  0  0  0  0
M  END
>  <MODEL>
5

>  <REMARK>
 VINA RESULT:      -7.6      1.451      2.924
  Name = 
  5 active torsions:
  status: ('A' for Active; 'I' for Inactive)
    1  A    between atoms: C_2  and  C_15
    2  A    between atoms: C_6  and  C_14
    3  A    between atoms: C_6  and  C_25
    4  A    between atoms: C_10  and  N_22
    5  A    between atoms: C_14  and  C_17
                            x       y       z     vdW  Elec       q    Type
                         _______ _______ _______ _____ _____    ______ ____

>  <TORSDO>
F 5

$$$$
=
 OpenBabel11072414253D

 26 28  0  0  1  0  0  0  0  0999 V2000
  162.3400  209.5980  151.6180 O   0  0  0  0  0  1  0  0  0  0  0  0
  161.1260  208.9190  151.7290 C   0  0  2  0  0  3  0  0  0  0  0  0
  160.6590  207.0330  154.9480 C   0  0  0  0  0  3  0  0  0  0  0  0
  160.4690  207.8910  156.1360 C   0  0  0  0  0  3  0  0  0  0  0  0
  161.5310  209.7080  154.0310 N   0  0  0  0  0  2  0  0  0  0  0  0
  160.7120  210.2380  155.1280 C   0  0  2  0  0  3  0  0  0  0  0  0
  160.5020  209.2250  156.2280 C   0  0  0  0  0  3  0  0  0  0  0  0
  160.7180  208.8250  153.1990 C   0  0  2  0  0  3  0  0  0  0  0  0
  160.7940  207.4140  153.6780 C   0  0  0  0  0  3  0  0  0  0  0  0
  158.5440  212.9800  154.8390 C   0  0  0  0  0  2  0  0  0  0  0  0
  157.7330  212.0120  155.5460 N   0  0  0  0  0  2  0  0  0  0  0  0
  159.6960  212.2030  154.2830 C   0  0  0  0  0  2  0  0  0  0  0  0
  159.4460  210.8210  154.6530 N   0  0  2  0  0  0  0  0  0  0  0  0
  158.5550  210.8870  155.7420 N   0  0  0  0  0  2  0  0  0  0  0  0
  161.2340  207.5460  151.0740 C   0  0  0  0  0  2  0  0  0  0  0  0
  161.5120  204.2350  148.4950 C   0  0  0  0  0  2  0  0  0  0  0  0
  161.6260  204.4950  147.0600 N   0  0  0  0  0  0  0  0  0  0  0  0
  161.2490  206.6900  148.7380 C   0  0  0  0  0  0  0  0  0  0  0  0
  161.4650  203.4440  146.0880 C   0  0  0  0  0  0  0  0  0  0  0  0
  162.2140  205.7710  146.6510 C   0  0  0  0  0  2  0  0  0  0  0  0
  161.4440  206.9330  147.2730 C   0  0  0  0  0  2  0  0  0  0  0  0
  161.9970  203.5610  144.9520 O   0  0  0  0  0  0  0  0  0  0  0  0
  161.4550  207.6900  149.6010 C   0  0  0  0  0  3  0  0  0  0  0  0
  160.7210  205.3510  149.1740 C   0  0  0  0  0  2  0  0  0  0  0  0
  160.6790  202.2270  146.3530 C   0  0  0  0  0  3  0  0  0  0  0  0
  160.3480  201.4010  145.4170 N   0  0  0  0  0  2  0  0  0  0  0  0
  2  1  1  1  0  0  0
  3  4  1  0  0  0  0
  4  7  2  0  0  0  0
  5  6  1  0  0  0  0
  6  7  1  1  0  0  0
  8  2  1  6  0  0  0
  8  9  1  0  0  0  0
  8  5  1  0  0  0  0
  9  3  2  0  0  0  0
 10 11  1  0  0  0  0
 11 14  1  0  0  0  0
 12 10  1  0  0  0  0
 13 12  1  1  0  0  0
 13  6  1  0  0  0  0
 13 14  1  0  0  0  0
 15  2  1  0  0  0  0
 16 24  1  0  0  0  0
 17 16  1  0  0  0  0
 18 24  1  0  0  0  0
 18 23  2  0  0  0  0
 19 25  1  0  0  0  0
 19 17  1  0  0  0  0
 20 17  1  0  0  0  0
 20 21  1  0  0  0  0
 21 18  1  0  0  0  0
 22 19  2  0  0  0  0
 23 15  1  0  0  0  0
 26 25  2  0  0  0  0
M  END
>  <MODEL>
6

>  <REMARK>
 VINA RESULT:      -7.5      2.081      9.549
  Name = 
  5 active torsions:
  status: ('A' for Active; 'I' for Inactive)
    1  A    between atoms: C_2  and  C_15
    2  A    between atoms: C_6  and  C_14
    3  A    between atoms: C_6  and  C_25
    4  A    between atoms: C_10  and  N_22
    5  A    between atoms: C_14  and  C_17
                            x       y       z     vdW  Elec       q    Type
                         _______ _______ _______ _____ _____    ______ ____

>  <TORSDO>
F 5

$$$$
=
 OpenBabel11072414253D

 26 28  0  0  1  0  0  0  0  0999 V2000
  161.2240  205.4840  153.3550 O   0  0  0  0  0  1  0  0  0  0  0  0
  161.1620  205.8960  152.0230 C   0  0  2  0  0  3  0  0  0  0  0  0
  161.2640  202.1910  151.3850 C   0  0  0  0  0  3  0  0  0  0  0  0
  161.0310  201.8080  149.9770 C   0  0  0  0  0  3  0  0  0  0  0  0
  160.1310  204.6390  150.1670 N   0  0  0  0  0  2  0  0  0  0  0  0
  160.5810  204.0850  148.8850 C   0  0  2  0  0  3  0  0  0  0  0  0
  160.7320  202.5840  148.9290 C   0  0  0  0  0  3  0  0  0  0  0  0
  161.2530  204.6800  151.1010 C   0  0  2  0  0  3  0  0  0  0  0  0
  161.3380  203.4200  151.8950 C   0  0  0  0  0  3  0  0  0  0  0  0
  162.1470  206.1620  146.5300 C   0  0  0  0  0  2  0  0  0  0  0  0
  162.8810  204.9230  146.3940 N   0  0  0  0  0  2  0  0  0  0  0  0
  161.3940  206.0380  147.8180 C   0  0  0  0  0  2  0  0  0  0  0  0
  161.7890  204.7560  148.3760 N   0  0  2  0  0  0  0  0  0  0  0  0
  162.2790  204.0140  147.2830 N   0  0  0  0  0  2  0  0  0  0  0  0
  162.2610  206.9150  151.7390 C   0  0  0  0  0  2  0  0  0  0  0  0
  160.3470  209.2530  154.6640 C   0  0  0  0  0  2  0  0  0  0  0  0
  159.8880  210.5880  154.2790 N   0  0  0  0  0  0  0  0  0  0  0  0
  161.3240  209.1260  152.3870 C   0  0  0  0  0  0  0  0  0  0  0  0
  159.4630  211.5510  155.2620 C   0  0  0  0  0  0  0  0  0  0  0  0
  159.5720  210.8100  152.8670 C   0  0  0  0  0  2  0  0  0  0  0  0
  160.7770  210.4640  151.9950 C   0  0  0  0  0  2  0  0  0  0  0  0
  158.6710  212.4720  154.9270 O   0  0  0  0  0  0  0  0  0  0  0  0
  161.6610  208.2520  151.4350 C   0  0  0  0  0  3  0  0  0  0  0  0
  161.5740  208.8590  153.8460 C   0  0  0  0  0  2  0  0  0  0  0  0
  159.9330  211.5270  156.6580 C   0  0  0  0  0  3  0  0  0  0  0  0
  161.1430  211.8390  156.9850 N   0  0  0  0  0  2  0  0  0  0  0  0
  2  1  1  1  0  0  0
  3  9  2  0  0  0  0
  4  3  1  0  0  0  0
  5  8  1  0  0  0  0
  6  7  1  1  0  0  0
  6  5  1  0  0  0  0
  7  4  2  0  0  0  0
  8  9  1  0  0  0  0
  8  2  1  1  0  0  0
 10 12  1  0  0  0  0
 11 10  1  0  0  0  0
 11 14  1  0  0  0  0
 13 12  1  6  0  0  0
 13  6  1  0  0  0  0
 14 13  1  0  0  0  0
 15  2  1  0  0  0  0
 17 16  1  0  0  0  0
 17 19  1  0  0  0  0
 18 24  1  0  0  0  0
 19 25  1  0  0  0  0
 20 17  1  0  0  0  0
 21 18  1  0  0  0  0
 21 20  1  0  0  0  0
 22 19  2  0  0  0  0
 23 15  1  0  0  0  0
 23 18  2  0  0  0  0
 24 16  1  0  0  0  0
 25 26  2  0  0  0  0
M  END
>  <MODEL>
7

>  <REMARK>
 VINA RESULT:      -7.2      1.977      3.641
  Name = 
  5 active torsions:
  status: ('A' for Active; 'I' for Inactive)
    1  A    between atoms: C_2  and  C_15
    2  A    between atoms: C_6  and  C_14
    3  A    between atoms: C_6  and  C_25
    4  A    between atoms: C_10  and  N_22
    5  A    between atoms: C_14  and  C_17
                            x       y       z     vdW  Elec       q    Type
                         _______ _______ _______ _____ _____    ______ ____

>  <TORSDO>
F 5

$$$$
=
 OpenBabel11072414253D

 26 28  0  0  1  0  0  0  0  0999 V2000
  161.3330  208.2710  154.6880 O   0  0  0  0  0  1  0  0  0  0  0  0
  161.1760  209.2160  153.6730 C   0  0  2  0  0  3  0  0  0  0  0  0
  158.5970  210.5910  156.0390 C   0  0  0  0  0  3  0  0  0  0  0  0
  158.1910  211.9830  155.7570 C   0  0  0  0  0  3  0  0  0  0  0  0
  160.6950  211.5780  154.2000 N   0  0  0  0  0  2  0  0  0  0  0  0
  159.7090  212.5770  153.7750 C   0  0  2  0  0  3  0  0  0  0  0  0
  158.6540  212.8260  154.8260 C   0  0  0  0  0  3  0  0  0  0  0  0
  160.1180  210.2420  154.0790 C   0  0  2  0  0  3  0  0  0  0  0  0
  159.4440  209.8310  155.3450 C   0  0  0  0  0  3  0  0  0  0  0  0
  159.1810  213.4100  150.4080 C   0  0  0  0  0  2  0  0  0  0  0  0
  157.8320  213.3320  150.9280 N   0  0  0  0  0  2  0  0  0  0  0  0
  160.0410  212.7430  151.4350 C   0  0  0  0  0  2  0  0  0  0  0  0
  159.1260  212.2680  152.4590 N   0  0  2  0  0  0  0  0  0  0  0  0
  157.9600  213.0430  152.2990 N   0  0  0  0  0  2  0  0  0  0  0  0
  160.8260  208.5200  152.3610 C   0  0  0  0  0  2  0  0  0  0  0  0
  160.8380  205.9230  149.0530 C   0  0  0  0  0  2  0  0  0  0  0  0
  161.1050  204.5060  149.2980 N   0  0  0  0  0  0  0  0  0  0  0  0
  161.2910  206.2440  151.4710 C   0  0  0  0  0  0  0  0  0  0  0  0
  161.3860  203.5940  148.2190 C   0  0  0  0  0  0  0  0  0  0  0  0
  160.7720  203.9760  150.6210 C   0  0  0  0  0  2  0  0  0  0  0  0
  161.4860  204.7780  151.7070 C   0  0  0  0  0  2  0  0  0  0  0  0
  161.1630  202.3630  148.3710 O   0  0  0  0  0  0  0  0  0  0  0  0
  160.9880  207.0390  152.5020 C   0  0  0  0  0  3  0  0  0  0  0  0
  161.5530  206.7840  150.0920 C   0  0  0  0  0  2  0  0  0  0  0  0
  161.9510  204.0320  146.9310 C   0  0  0  0  0  3  0  0  0  0  0  0
  161.3590  203.8100  145.8050 N   0  0  0  0  0  2  0  0  0  0  0  0
  2  1  1  1  0  0  0
  4  3  1  0  0  0  0
  6  5  1  0  0  0  0
  6  7  1  1  0  0  0
  7  4  2  0  0  0  0
  8  2  1  1  0  0  0
  8  5  1  0  0  0  0
  8  9  1  0  0  0  0
  9  3  2  0  0  0  0
 10 11  1  0  0  0  0
 10 12  1  0  0  0  0
 11 14  1  0  0  0  0
 13 12  1  6  0  0  0
 13  6  1  0  0  0  0
 14 13  1  0  0  0  0
 15 23  1  0  0  0  0
 15  2  1  0  0  0  0
 16 17  1  0  0  0  0
 16 24  1  0  0  0  0
 17 20  1  0  0  0  0
 18 21  1  0  0  0  0
 18 23  2  0  0  0  0
 19 22  2  0  0  0  0
 19 17  1  0  0  0  0
 20 21  1  0  0  0  0
 24 18  1  0  0  0  0
 25 19  1  0  0  0  0
 26 25  2  0  0  0  0
M  END
>  <MODEL>
8

>  <REMARK>
 VINA RESULT:      -7.1      1.915      9.081
  Name = 
  5 active torsions:
  status: ('A' for Active; 'I' for Inactive)
    1  A    between atoms: C_2  and  C_15
    2  A    between atoms: C_6  and  C_14
    3  A    between atoms: C_6  and  C_25
    4  A    between atoms: C_10  and  N_22
    5  A    between atoms: C_14  and  C_17
                            x       y       z     vdW  Elec       q    Type
                         _______ _______ _______ _____ _____    ______ ____

>  <TORSDO>
F 5

$$$$
=
 OpenBabel11072414253D

 26 28  0  0  1  0  0  0  0  0999 V2000
  161.1430  203.2740  152.0840 O   0  0  0  0  0  1  0  0  0  0  0  0
  160.9410  204.6170  151.7610 C   0  0  2  0  0  3  0  0  0  0  0  0
  161.3710  203.3640  148.2420 C   0  0  0  0  0  3  0  0  0  0  0  0
  161.2130  204.4010  147.2010 C   0  0  0  0  0  3  0  0  0  0  0  0
  160.0750  205.6060  149.6740 N   0  0  0  0  0  2  0  0  0  0  0  0
  160.6080  206.4610  148.6070 C   0  0  2  0  0  3  0  0  0  0  0  0
  160.8830  205.6900  147.3380 C   0  0  0  0  0  3  0  0  0  0  0  0
  161.1610  204.8280  150.2630 C   0  0  2  0  0  3  0  0  0  0  0  0
  161.3270  203.5210  149.5650 C   0  0  0  0  0  3  0  0  0  0  0  0
  161.9570  209.4230  149.9140 C   0  0  0  0  0  2  0  0  0  0  0  0
  162.6250  209.3120  148.6350 N   0  0  0  0  0  2  0  0  0  0  0  0
  161.3590  208.0760  150.1690 C   0  0  0  0  0  2  0  0  0  0  0  0
  161.7700  207.2500  149.0470 N   0  0  2  0  0  0  0  0  0  0  0  0
  162.1000  208.1590  148.0220 N   0  0  0  0  0  2  0  0  0  0  0  0
  161.8540  205.5000  152.6060 C   0  0  0  0  0  2  0  0  0  0  0  0
  161.3250  209.4300  154.0060 C   0  0  0  0  0  2  0  0  0  0  0  0
  160.5890  209.6170  155.2560 N   0  0  0  0  0  0  0  0  0  0  0  0
  160.7660  207.0250  154.2430 C   0  0  0  0  0  0  0  0  0  0  0  0
  160.1360  210.9180  155.6770 C   0  0  0  0  0  0  0  0  0  0  0  0
  160.6010  208.5120  156.2160 C   0  0  0  0  0  2  0  0  0  0  0  0
  160.0830  207.2350  155.5590 C   0  0  0  0  0  2  0  0  0  0  0  0
  159.9310  211.1390  156.9000 O   0  0  0  0  0  0  0  0  0  0  0  0
  161.2070  205.8050  153.9210 C   0  0  0  0  0  3  0  0  0  0  0  0
  160.8300  208.1810  153.2820 C   0  0  0  0  0  2  0  0  0  0  0  0
  159.8730  212.0150  154.7310 C   0  0  0  0  0  3  0  0  0  0  0  0
  158.7830  212.0850  154.0400 N   0  0  0  0  0  2  0  0  0  0  0  0
  2  1  1  1  0  0  0
  2 15  1  0  0  0  0
  3  9  2  0  0  0  0
  4  7  2  0  0  0  0
  4  3  1  0  0  0  0
  5  8  1  0  0  0  0
  6  7  1  6  0  0  0
  6 13  1  0  0  0  0
  6  5  1  0  0  0  0
  8  2  1  1  0  0  0
  9  8  1  0  0  0  0
 10 12  1  0  0  0  0
 11 10  1  0  0  0  0
 13 12  1  1  0  0  0
 14 11  1  0  0  0  0
 14 13  1  0  0  0  0
 15 23  1  0  0  0  0
 16 17  1  0  0  0  0
 17 19  1  0  0  0  0
 17 20  1  0  0  0  0
 18 21  1  0  0  0  0
 19 22  2  0  0  0  0
 21 20  1  0  0  0  0
 23 18  2  0  0  0  0
 24 16  1  0  0  0  0
 24 18  1  0  0  0  0
 25 19  1  0  0  0  0
 26 25  2  0  0  0  0
M  END
>  <MODEL>
9

>  <REMARK>
 VINA RESULT:      -7.0      2.280      3.772
  Name = 
  5 active torsions:
  status: ('A' for Active; 'I' for Inactive)
    1  A    between atoms: C_2  and  C_15
    2  A    between atoms: C_6  and  C_14
    3  A    between atoms: C_6  and  C_25
    4  A    between atoms: C_10  and  N_22
    5  A    between atoms: C_14  and  C_17
                            x       y       z     vdW  Elec       q    Type
                         _______ _______ _______ _____ _____    ______ ____

>  <TORSDO>
F 5

$$$$
