=
 OpenBabel11072411513D

 32 35  0  0  1  0  0  0  0  0999 V2000
  160.9540  208.3160  151.8510 C   0  0  0  0  0  3  0  0  0  0  0  0
  160.6010  209.8510  153.8240 C   0  0  0  0  0  0  0  0  0  0  0  0
  160.0390  208.4050  157.2390 O   0  0  0  0  0  0  0  0  0  0  0  0
  159.9230  211.5900  155.4410 C   0  0  0  0  0  0  0  0  0  0  0  0
  160.4690  208.8280  154.9180 C   0  0  0  0  0  0  0  0  0  0  0  0
  160.3550  211.1910  154.1750 O   0  0  0  0  0  0  0  0  0  0  0  0
  160.9130  209.6180  152.5290 C   0  0  0  0  0  0  0  0  0  0  0  0
  160.7480  206.5980  155.9780 O   0  0  0  0  0  0  0  0  0  0  0  0
  159.7910  210.6850  156.4020 C   0  0  0  0  0  3  0  0  0  0  0  0
  160.9280  207.0600  152.2840 C   0  0  0  0  0  0  0  0  0  0  0  0
  160.9030  206.6680  153.6930 C   0  0  0  0  0  3  0  0  0  0  0  0
  160.1100  209.2740  156.1480 C   0  0  0  0  0  0  0  0  0  0  0  0
  160.7850  207.2010  157.2610 C   0  0  0  0  0  2  0  0  0  0  0  0
  160.7320  207.3640  154.8080 C   0  0  0  0  0  0  0  0  0  0  0  0
  161.2400  205.2320  148.9490 C   0  0  0  0  0  0  0  0  0  0  0  0
  160.9020  203.6000  150.7130 C   0  0  0  0  0  3  0  0  0  0  0  0
  160.9880  205.9690  151.2710 C   0  0  0  0  0  0  0  0  0  0  0  0
  161.1080  203.9010  149.3660 C   0  0  0  0  0  3  0  0  0  0  0  0
  161.1930  206.2550  149.9080 C   0  0  0  0  0  3  0  0  0  0  0  0
  160.8410  204.6260  151.6570 C   0  0  0  0  0  3  0  0  0  0  0  0
  160.3160  205.8620  146.8670 F   0  0  0  0  0  0  0  0  0  0  0  0
  162.3650  206.6490  147.3910 O   0  0  0  0  0  1  0  0  0  0  0  0
  161.5090  205.5490  147.4990 C   0  0  1  0  0  0  0  0  0  0  0  0
  161.2480  203.8070  145.8790 F   0  0  0  0  0  0  0  0  0  0  0  0
  162.1330  204.3400  146.8000 C   0  0  1  0  0  3  0  0  0  0  0  0
  163.3170  204.6970  146.1500 O   0  0  0  0  0  1  0  0  0  0  0  0
  158.8410  213.7620  154.7700 N   0  0  0  0  0  1  0  0  0  0  0  0
  159.6220  213.0060  155.6920 C   0  0  0  0  0  0  0  0  0  0  0  0
  160.0560  213.5630  156.7340 O   0  0  0  0  0  0  0  0  0  0  0  0
  161.1340  210.7580  151.6000 C   0  0  0  0  0  0  0  0  0  0  0  0
  162.0910  210.6660  150.4580 C   0  0  0  0  0  1  0  0  0  0  0  0
  160.4580  211.8140  151.7270 O   0  0  0  0  0  0  0  0  0  0  0  0
  1 10  2  0  0  0  0
  1  7  1  0  0  0  0
  2  6  1  0  0  0  0
  2  5  1  0  0  0  0
  3 13  1  0  0  0  0
  4 28  1  0  0  0  0
  4  9  2  0  0  0  0
  5 12  2  0  0  0  0
  6  4  1  0  0  0  0
  7  2  2  0  0  0  0
  8 13  1  0  0  0  0
 10 11  1  0  0  0  0
 11 14  2  0  0  0  0
 12  9  1  0  0  0  0
 12  3  1  0  0  0  0
 14  5  1  0  0  0  0
 14  8  1  0  0  0  0
 15 18  2  0  0  0  0
 15 19  1  0  0  0  0
 16 20  2  0  0  0  0
 17 20  1  0  0  0  0
 17 10  1  0  0  0  0
 18 16  1  0  0  0  0
 19 17  2  0  0  0  0
 22 23  1  0  0  0  0
 23 21  1  6  0  0  0
 23 15  1  0  0  0  0
 25 24  1  6  0  0  0
 25 23  1  0  0  0  0
 26 25  1  0  0  0  0
 27 28  1  0  0  0  0
 28 29  2  0  0  0  0
 30 32  2  0  0  0  0
 30  7  1  0  0  0  0
 31 30  1  0  0  0  0
M  END
>  <MODEL>
1

>  <REMARK>
 VINA RESULT:      -9.6      0.000      0.000
  Name = 
  5 active torsions:
  status: ('A' for Active; 'I' for Inactive)
    1  A    between atoms: C_6  and  C_10
    2  A    between atoms: C_9  and  C_25
    3  A    between atoms: C_12  and  C_20
    4  A    between atoms: C_15  and  C_19
    5  A    between atoms: C_24  and  C_25
                            x       y       z     vdW  Elec       q    Type
                         _______ _______ _______ _____ _____    ______ ____

>  <TORSDO>
F 5

$$$$
=
 OpenBabel11072411513D

 32 35  0  0  1  0  0  0  0  0999 V2000
  161.3280  206.7190  148.2200 C   0  0  0  0  0  3  0  0  0  0  0  0
  160.9720  204.2290  148.0040 C   0  0  0  0  0  0  0  0  0  0  0  0
  160.9470  202.0710  151.0710 O   0  0  0  0  0  0  0  0  0  0  0  0
  160.9790  201.8300  147.4200 C   0  0  0  0  0  0  0  0  0  0  0  0
  161.0040  203.8430  149.4560 C   0  0  0  0  0  0  0  0  0  0  0  0
  160.9190  203.1790  147.0680 O   0  0  0  0  0  0  0  0  0  0  0  0
  161.0080  205.4820  147.4950 C   0  0  0  0  0  0  0  0  0  0  0  0
  160.8380  204.2280  151.9060 O   0  0  0  0  0  0  0  0  0  0  0  0
  161.0240  201.4890  148.7010 C   0  0  0  0  0  3  0  0  0  0  0  0
  161.4480  207.0170  149.5100 C   0  0  0  0  0  0  0  0  0  0  0  0
  161.2070  206.0780  150.6050 C   0  0  0  0  0  3  0  0  0  0  0  0
  160.9960  202.5180  149.7490 C   0  0  0  0  0  0  0  0  0  0  0  0
  160.4120  202.8900  152.0970 C   0  0  0  0  0  2  0  0  0  0  0  0
  161.0050  204.7680  150.6260 C   0  0  0  0  0  0  0  0  0  0  0  0
  162.0900  210.7700  149.2520 C   0  0  0  0  0  0  0  0  0  0  0  0
  162.4860  210.0580  151.5380 C   0  0  0  0  0  3  0  0  0  0  0  0
  161.7930  208.4200  149.8740 C   0  0  0  0  0  0  0  0  0  0  0  0
  162.4420  211.0680  150.5750 C   0  0  0  0  0  3  0  0  0  0  0  0
  161.7560  209.4500  148.9150 C   0  0  0  0  0  3  0  0  0  0  0  0
  162.1670  208.7450  151.1890 C   0  0  0  0  0  3  0  0  0  0  0  0
  163.2280  212.0320  147.6090 F   0  0  0  0  0  0  0  0  0  0  0  0
  161.0540  211.5480  147.2450 O   0  0  0  0  0  1  0  0  0  0  0  0
  161.9980  211.8720  148.2260 C   0  0  1  0  0  0  0  0  0  0  0  0
  162.3780  214.2280  148.4010 F   0  0  0  0  0  0  0  0  0  0  0  0
  161.6100  213.1900  148.8980 C   0  0  1  0  0  3  0  0  0  0  0  0
  160.2580  213.4740  148.6920 O   0  0  0  0  0  1  0  0  0  0  0  0
  160.3480  201.0360  145.1160 N   0  0  0  0  0  1  0  0  0  0  0  0
  160.9900  200.8050  146.3670 C   0  0  0  0  0  0  0  0  0  0  0  0
  161.5740  199.7080  146.5680 O   0  0  0  0  0  0  0  0  0  0  0  0
  160.8340  205.6990  146.0350 C   0  0  0  0  0  0  0  0  0  0  0  0
  161.9450  205.4590  145.0670 C   0  0  0  0  0  1  0  0  0  0  0  0
  159.7070  206.0320  145.5790 O   0  0  0  0  0  0  0  0  0  0  0  0
  1 10  2  0  0  0  0
  2  5  1  0  0  0  0
  3 13  1  0  0  0  0
  4  9  2  0  0  0  0
  5 12  2  0  0  0  0
  5 14  1  0  0  0  0
  6  4  1  0  0  0  0
  6  2  1  0  0  0  0
  7  2  2  0  0  0  0
  7  1  1  0  0  0  0
  8 13  1  0  0  0  0
  9 12  1  0  0  0  0
 10 17  1  0  0  0  0
 10 11  1  0  0  0  0
 11 14  2  0  0  0  0
 12  3  1  0  0  0  0
 14  8  1  0  0  0  0
 15 18  1  0  0  0  0
 17 20  2  0  0  0  0
 18 16  2  0  0  0  0
 19 15  2  0  0  0  0
 19 17  1  0  0  0  0
 20 16  1  0  0  0  0
 21 23  1  0  0  0  0
 23 22  1  6  0  0  0
 23 25  1  0  0  0  0
 23 15  1  0  0  0  0
 25 24  1  6  0  0  0
 26 25  1  0  0  0  0
 27 28  1  0  0  0  0
 28 29  2  0  0  0  0
 28  4  1  0  0  0  0
 30  7  1  0  0  0  0
 31 30  1  0  0  0  0
 32 30  2  0  0  0  0
M  END
>  <MODEL>
2

>  <REMARK>
 VINA RESULT:      -9.5      5.035      8.713
  Name = 
  5 active torsions:
  status: ('A' for Active; 'I' for Inactive)
    1  A    between atoms: C_6  and  C_10
    2  A    between atoms: C_9  and  C_25
    3  A    between atoms: C_12  and  C_20
    4  A    between atoms: C_15  and  C_19
    5  A    between atoms: C_24  and  C_25
                            x       y       z     vdW  Elec       q    Type
                         _______ _______ _______ _____ _____    ______ ____

>  <TORSDO>
F 5

$$$$
=
 OpenBabel11072411513D

 32 35  0  0  1  0  0  0  0  0999 V2000
  161.0490  205.5220  152.7540 C   0  0  0  0  0  3  0  0  0  0  0  0
  161.3370  204.9810  150.3050 C   0  0  0  0  0  0  0  0  0  0  0  0
  161.6920  207.7560  147.8060 O   0  0  0  0  0  0  0  0  0  0  0  0
  161.2230  204.1310  147.9890 C   0  0  0  0  0  0  0  0  0  0  0  0
  161.4710  206.3730  149.7540 C   0  0  0  0  0  0  0  0  0  0  0  0
  161.2620  203.9320  149.3700 O   0  0  0  0  0  0  0  0  0  0  0  0
  161.2610  204.6280  151.6080 C   0  0  0  0  0  0  0  0  0  0  0  0
  161.9340  208.8130  149.8530 O   0  0  0  0  0  0  0  0  0  0  0  0
  161.3250  205.3610  147.5030 C   0  0  0  0  0  3  0  0  0  0  0  0
  161.0880  206.8430  152.9010 C   0  0  0  0  0  0  0  0  0  0  0  0
  161.4430  207.7860  151.8410 C   0  0  0  0  0  3  0  0  0  0  0  0
  161.4940  206.5090  148.4040 C   0  0  0  0  0  0  0  0  0  0  0  0
  162.3590  208.7970  148.5000 C   0  0  0  0  0  2  0  0  0  0  0  0
  161.6250  207.6330  150.5370 C   0  0  0  0  0  0  0  0  0  0  0  0
  160.9830  209.2290  155.8770 C   0  0  0  0  0  0  0  0  0  0  0  0
  159.8500  207.1690  156.4790 C   0  0  0  0  0  3  0  0  0  0  0  0
  160.8100  207.4040  154.2530 C   0  0  0  0  0  0  0  0  0  0  0  0
  160.2750  208.4570  156.8080 C   0  0  0  0  0  3  0  0  0  0  0  0
  161.2330  208.7010  154.6020 C   0  0  0  0  0  3  0  0  0  0  0  0
  160.1180  206.6460  155.2130 C   0  0  0  0  0  3  0  0  0  0  0  0
  161.3740  211.4180  155.0760 F   0  0  0  0  0  0  0  0  0  0  0  0
  160.5130  211.1940  157.1510 O   0  0  0  0  0  1  0  0  0  0  0  0
  161.3980  210.6380  156.2210 C   0  0  1  0  0  0  0  0  0  0  0  0
  163.1570  209.3880  157.2560 F   0  0  0  0  0  0  0  0  0  0  0  0
  162.8170  210.6460  156.7910 C   0  0  1  0  0  3  0  0  0  0  0  0
  163.7400  211.0470  155.8220 O   0  0  0  0  0  1  0  0  0  0  0  0
  161.2140  203.1230  145.6830 N   0  0  0  0  0  1  0  0  0  0  0  0
  161.0700  202.9770  147.0930 C   0  0  0  0  0  0  0  0  0  0  0  0
  160.8100  201.8420  147.5730 O   0  0  0  0  0  0  0  0  0  0  0  0
  161.2640  203.1910  151.9920 C   0  0  0  0  0  0  0  0  0  0  0  0
  162.4220  202.3000  151.6890 C   0  0  0  0  0  1  0  0  0  0  0  0
  160.2990  202.7140  152.6480 O   0  0  0  0  0  0  0  0  0  0  0  0
  1 10  2  0  0  0  0
  2  7  2  0  0  0  0
  3 12  1  0  0  0  0
  3 13  1  0  0  0  0
  4  6  1  0  0  0  0
  5  2  1  0  0  0  0
  5 14  1  0  0  0  0
  6  2  1  0  0  0  0
  7 30  1  0  0  0  0
  7  1  1  0  0  0  0
  8 14  1  0  0  0  0
  9  4  2  0  0  0  0
  9 12  1  0  0  0  0
 10 17  1  0  0  0  0
 11 10  1  0  0  0  0
 12  5  2  0  0  0  0
 13  8  1  0  0  0  0
 14 11  2  0  0  0  0
 15 23  1  0  0  0  0
 15 18  1  0  0  0  0
 16 18  2  0  0  0  0
 17 19  1  0  0  0  0
 17 20  2  0  0  0  0
 19 15  2  0  0  0  0
 20 16  1  0  0  0  0
 23 21  1  6  0  0  0
 23 25  1  0  0  0  0
 23 22  1  0  0  0  0
 25 26  1  6  0  0  0
 25 24  1  0  0  0  0
 27 28  1  0  0  0  0
 28 29  2  0  0  0  0
 28  4  1  0  0  0  0
 30 32  2  0  0  0  0
 31 30  1  0  0  0  0
M  END
>  <MODEL>
3

>  <REMARK>
 VINA RESULT:      -9.3      4.234      8.895
  Name = 
  5 active torsions:
  status: ('A' for Active; 'I' for Inactive)
    1  A    between atoms: C_6  and  C_10
    2  A    between atoms: C_9  and  C_25
    3  A    between atoms: C_12  and  C_20
    4  A    between atoms: C_15  and  C_19
    5  A    between atoms: C_24  and  C_25
                            x       y       z     vdW  Elec       q    Type
                         _______ _______ _______ _____ _____    ______ ____

>  <TORSDO>
F 5

$$$$
=
 OpenBabel11072411513D

 32 35  0  0  1  0  0  0  0  0999 V2000
  161.0840  204.3780  150.7260 C   0  0  0  0  0  3  0  0  0  0  0  0
  161.2070  203.2870  148.4530 C   0  0  0  0  0  0  0  0  0  0  0  0
  161.7090  205.3970  145.3920 O   0  0  0  0  0  0  0  0  0  0  0  0
  160.9070  201.9680  146.3870 C   0  0  0  0  0  0  0  0  0  0  0  0
  161.4470  204.5040  147.6030 C   0  0  0  0  0  0  0  0  0  0  0  0
  160.9900  202.0730  147.7770 O   0  0  0  0  0  0  0  0  0  0  0  0
  161.1570  203.2380  149.8040 C   0  0  0  0  0  0  0  0  0  0  0  0
  162.1420  206.8460  147.1460 O   0  0  0  0  0  0  0  0  0  0  0  0
  161.1030  203.0440  145.6380 C   0  0  0  0  0  3  0  0  0  0  0  0
  161.2540  205.6880  150.5750 C   0  0  0  0  0  0  0  0  0  0  0  0
  161.6470  206.3350  149.3240 C   0  0  0  0  0  3  0  0  0  0  0  0
  161.4210  204.3380  146.2560 C   0  0  0  0  0  0  0  0  0  0  0  0
  162.5010  206.4910  145.8210 C   0  0  0  0  0  2  0  0  0  0  0  0
  161.7540  205.8820  148.0830 C   0  0  0  0  0  0  0  0  0  0  0  0
  160.9260  208.7810  152.7850 C   0  0  0  0  0  0  0  0  0  0  0  0
  160.8060  206.7990  154.1810 C   0  0  0  0  0  3  0  0  0  0  0  0
  161.0920  206.5570  151.7740 C   0  0  0  0  0  0  0  0  0  0  0  0
  160.7810  208.1890  154.0470 C   0  0  0  0  0  3  0  0  0  0  0  0
  161.0670  207.9600  151.6570 C   0  0  0  0  0  3  0  0  0  0  0  0
  160.9630  205.9910  153.0540 C   0  0  0  0  0  3  0  0  0  0  0  0
  161.6630  210.8770  153.5920 F   0  0  0  0  0  0  0  0  0  0  0  0
  161.3000  210.6710  151.3740 O   0  0  0  0  0  1  0  0  0  0  0  0
  160.8510  210.2810  152.6400 C   0  0  1  0  0  0  0  0  0  0  0  0
  159.1830  211.0190  154.1880 F   0  0  0  0  0  0  0  0  0  0  0  0
  159.4140  210.7620  152.8480 C   0  0  1  0  0  3  0  0  0  0  0  0
  159.1650  211.9190  152.1050 O   0  0  0  0  0  1  0  0  0  0  0  0
  161.2210  199.4740  146.2530 N   0  0  0  0  0  1  0  0  0  0  0  0
  160.6060  200.6670  145.7750 C   0  0  0  0  0  0  0  0  0  0  0  0
  159.7930  200.6010  144.8150 O   0  0  0  0  0  0  0  0  0  0  0  0
  161.0420  201.9280  150.4970 C   0  0  0  0  0  0  0  0  0  0  0  0
  161.8590  201.6040  151.7050 C   0  0  0  0  0  1  0  0  0  0  0  0
  160.1930  201.0820  150.1070 O   0  0  0  0  0  0  0  0  0  0  0  0
  2  7  2  0  0  0  0
  3 13  1  0  0  0  0
  3 12  1  0  0  0  0
  4  6  1  0  0  0  0
  5 14  1  0  0  0  0
  5  2  1  0  0  0  0
  6  2  1  0  0  0  0
  7 30  1  0  0  0  0
  7  1  1  0  0  0  0
  8 14  1  0  0  0  0
  9 12  1  0  0  0  0
  9  4  2  0  0  0  0
 10  1  2  0  0  0  0
 10 17  1  0  0  0  0
 11 10  1  0  0  0  0
 12  5  2  0  0  0  0
 13  8  1  0  0  0  0
 14 11  2  0  0  0  0
 15 18  1  0  0  0  0
 17 20  2  0  0  0  0
 18 16  2  0  0  0  0
 19 17  1  0  0  0  0
 19 15  2  0  0  0  0
 20 16  1  0  0  0  0
 23 22  1  6  0  0  0
 23 15  1  0  0  0  0
 23 25  1  0  0  0  0
 23 21  1  0  0  0  0
 25 26  1  6  0  0  0
 25 24  1  0  0  0  0
 28 27  1  0  0  0  0
 28  4  1  0  0  0  0
 29 28  2  0  0  0  0
 30 31  1  0  0  0  0
 32 30  2  0  0  0  0
M  END
>  <MODEL>
4

>  <REMARK>
 VINA RESULT:      -9.3      4.496      9.594
  Name = 
  5 active torsions:
  status: ('A' for Active; 'I' for Inactive)
    1  A    between atoms: C_6  and  C_10
    2  A    between atoms: C_9  and  C_25
    3  A    between atoms: C_12  and  C_20
    4  A    between atoms: C_15  and  C_19
    5  A    between atoms: C_24  and  C_25
                            x       y       z     vdW  Elec       q    Type
                         _______ _______ _______ _____ _____    ______ ____

>  <TORSDO>
F 5

$$$$
=
 OpenBabel11072411513D

 32 35  0  0  1  0  0  0  0  0999 V2000
  161.4270  205.8300  150.0880 C   0  0  0  0  0  3  0  0  0  0  0  0
  161.4910  207.8010  151.6650 C   0  0  0  0  0  0  0  0  0  0  0  0
  162.2170  211.2340  150.3390 O   0  0  0  0  0  0  0  0  0  0  0  0
  161.8480  209.4190  153.4960 C   0  0  0  0  0  0  0  0  0  0  0  0
  161.7660  208.9020  150.6800 C   0  0  0  0  0  0  0  0  0  0  0  0
  161.5100  208.1490  153.0290 O   0  0  0  0  0  0  0  0  0  0  0  0
  161.2440  206.5010  151.3820 C   0  0  0  0  0  0  0  0  0  0  0  0
  161.8330  209.9700  148.4370 O   0  0  0  0  0  0  0  0  0  0  0  0
  162.1070  210.3880  152.6270 C   0  0  0  0  0  3  0  0  0  0  0  0
  161.6490  206.2710  148.8540 C   0  0  0  0  0  0  0  0  0  0  0  0
  161.7110  207.6830  148.4750 C   0  0  0  0  0  3  0  0  0  0  0  0
  162.0260  210.1360  151.1820 C   0  0  0  0  0  0  0  0  0  0  0  0
  161.6760  211.2480  149.0300 C   0  0  0  0  0  2  0  0  0  0  0  0
  161.7470  208.7960  149.1930 C   0  0  0  0  0  0  0  0  0  0  0  0
  161.3290  203.0330  146.8600 C   0  0  0  0  0  0  0  0  0  0  0  0
  162.6330  204.6260  145.5730 C   0  0  0  0  0  3  0  0  0  0  0  0
  161.7840  205.2630  147.7660 C   0  0  0  0  0  0  0  0  0  0  0  0
  162.0410  203.3680  145.7000 C   0  0  0  0  0  3  0  0  0  0  0  0
  161.1960  203.9890  147.8780 C   0  0  0  0  0  3  0  0  0  0  0  0
  162.5070  205.5640  146.5990 C   0  0  0  0  0  3  0  0  0  0  0  0
  159.6300  201.7660  147.9050 F   0  0  0  0  0  0  0  0  0  0  0  0
  160.0990  201.3190  145.7420 O   0  0  0  0  0  1  0  0  0  0  0  0
  160.6530  201.6900  146.9720 C   0  0  1  0  0  0  0  0  0  0  0  0
  161.4220  200.2810  148.7460 F   0  0  0  0  0  0  0  0  0  0  0  0
  161.6550  200.6290  147.4270 C   0  0  1  0  0  3  0  0  0  0  0  0
  161.5690  199.4870  146.6260 O   0  0  0  0  0  1  0  0  0  0  0  0
  161.5050  208.6690  155.8740 N   0  0  0  0  0  1  0  0  0  0  0  0
  161.9110  209.6680  154.9420 C   0  0  0  0  0  0  0  0  0  0  0  0
  162.3300  210.7760  155.3690 O   0  0  0  0  0  0  0  0  0  0  0  0
  160.8580  205.5630  152.4680 C   0  0  0  0  0  0  0  0  0  0  0  0
  160.8720  204.0830  152.2690 C   0  0  0  0  0  1  0  0  0  0  0  0
  160.5710  206.0080  153.6120 O   0  0  0  0  0  0  0  0  0  0  0  0
  1  7  1  0  0  0  0
  2  6  1  0  0  0  0
  3 12  1  0  0  0  0
  4 28  1  0  0  0  0
  5 12  2  0  0  0  0
  5  2  1  0  0  0  0
  6  4  1  0  0  0  0
  7  2  2  0  0  0  0
  7 30  1  0  0  0  0
  8 13  1  0  0  0  0
  8 14  1  0  0  0  0
  9  4  2  0  0  0  0
 10  1  2  0  0  0  0
 11 10  1  0  0  0  0
 11 14  2  0  0  0  0
 12  9  1  0  0  0  0
 13  3  1  0  0  0  0
 14  5  1  0  0  0  0
 15 23  1  0  0  0  0
 15 19  1  0  0  0  0
 16 18  1  0  0  0  0
 16 20  2  0  0  0  0
 17 19  2  0  0  0  0
 17 10  1  0  0  0  0
 18 15  2  0  0  0  0
 20 17  1  0  0  0  0
 23 22  1  6  0  0  0
 23 25  1  0  0  0  0
 23 21  1  0  0  0  0
 25 26  1  6  0  0  0
 25 24  1  0  0  0  0
 28 29  2  0  0  0  0
 28 27  1  0  0  0  0
 30 32  2  0  0  0  0
 31 30  1  0  0  0  0
M  END
>  <MODEL>
5

>  <REMARK>
 VINA RESULT:      -9.0      2.641      5.109
  Name = 
  5 active torsions:
  status: ('A' for Active; 'I' for Inactive)
    1  A    between atoms: C_6  and  C_10
    2  A    between atoms: C_9  and  C_25
    3  A    between atoms: C_12  and  C_20
    4  A    between atoms: C_15  and  C_19
    5  A    between atoms: C_24  and  C_25
                            x       y       z     vdW  Elec       q    Type
                         _______ _______ _______ _____ _____    ______ ____

>  <TORSDO>
F 5

$$$$
=
 OpenBabel11072411513D

 32 35  0  0  1  0  0  0  0  0999 V2000
  161.2550  207.3730  150.7020 C   0  0  0  0  0  3  0  0  0  0  0  0
  160.8690  209.1370  152.4660 C   0  0  0  0  0  0  0  0  0  0  0  0
  159.9420  208.1200  155.9560 O   0  0  0  0  0  0  0  0  0  0  0  0
  160.2030  211.0860  153.8280 C   0  0  0  0  0  0  0  0  0  0  0  0
  160.5780  208.2530  153.6470 C   0  0  0  0  0  0  0  0  0  0  0  0
  160.6980  210.5220  152.6520 O   0  0  0  0  0  0  0  0  0  0  0  0
  161.2600  208.7420  151.2330 C   0  0  0  0  0  0  0  0  0  0  0  0
  160.6080  206.1410  154.9560 O   0  0  0  0  0  0  0  0  0  0  0  0
  159.9300  210.3040  154.8650 C   0  0  0  0  0  3  0  0  0  0  0  0
  161.1010  206.1770  151.2620 C   0  0  0  0  0  0  0  0  0  0  0  0
  160.9400  205.9470  152.6970 C   0  0  0  0  0  3  0  0  0  0  0  0
  160.1610  208.8560  154.7890 C   0  0  0  0  0  0  0  0  0  0  0  0
  160.5920  206.8790  156.1660 C   0  0  0  0  0  2  0  0  0  0  0  0
  160.7380  206.7710  153.7140 C   0  0  0  0  0  0  0  0  0  0  0  0
  161.4650  203.9800  148.1630 C   0  0  0  0  0  0  0  0  0  0  0  0
  161.0000  202.5670  150.0800 C   0  0  0  0  0  3  0  0  0  0  0  0
  161.1570  204.9790  150.3770 C   0  0  0  0  0  0  0  0  0  0  0  0
  161.2660  202.7090  148.7170 C   0  0  0  0  0  3  0  0  0  0  0  0
  161.4210  205.1050  149.0000 C   0  0  0  0  0  3  0  0  0  0  0  0
  160.9440  203.6930  150.9020 C   0  0  0  0  0  3  0  0  0  0  0  0
  163.1740  204.1690  146.5410 F   0  0  0  0  0  0  0  0  0  0  0  0
  161.3080  203.0300  145.9770 O   0  0  0  0  0  1  0  0  0  0  0  0
  161.7980  204.1240  146.6980 C   0  0  1  0  0  0  0  0  0  0  0  0
  162.1480  206.4230  146.1350 F   0  0  0  0  0  0  0  0  0  0  0  0
  161.1980  205.4170  146.1440 C   0  0  1  0  0  3  0  0  0  0  0  0
  160.7160  205.2260  144.8470 O   0  0  0  0  0  1  0  0  0  0  0  0
  159.7970  213.1840  155.1580 N   0  0  0  0  0  1  0  0  0  0  0  0
  159.9900  212.5380  153.9030 C   0  0  0  0  0  0  0  0  0  0  0  0
  159.9800  213.2240  152.8480 O   0  0  0  0  0  0  0  0  0  0  0  0
  161.6360  209.7550  150.2110 C   0  0  0  0  0  0  0  0  0  0  0  0
  161.9480  209.3700  148.8030 C   0  0  0  0  0  1  0  0  0  0  0  0
  161.6340  210.9800  150.5090 O   0  0  0  0  0  0  0  0  0  0  0  0
  1  7  1  0  0  0  0
  1 10  2  0  0  0  0
  2  6  1  0  0  0  0
  2  5  1  0  0  0  0
  3 13  1  0  0  0  0
  4 28  1  0  0  0  0
  4  9  2  0  0  0  0
  5 14  1  0  0  0  0
  5 12  2  0  0  0  0
  6  4  1  0  0  0  0
  7  2  2  0  0  0  0
  8 13  1  0  0  0  0
 10 11  1  0  0  0  0
 11 14  2  0  0  0  0
 12  9  1  0  0  0  0
 12  3  1  0  0  0  0
 14  8  1  0  0  0  0
 15 18  2  0  0  0  0
 15 19  1  0  0  0  0
 16 20  2  0  0  0  0
 17 20  1  0  0  0  0
 17 10  1  0  0  0  0
 18 16  1  0  0  0  0
 19 17  2  0  0  0  0
 21 23  1  0  0  0  0
 23 22  1  6  0  0  0
 23 15  1  0  0  0  0
 24 25  1  0  0  0  0
 25 26  1  6  0  0  0
 25 23  1  0  0  0  0
 28 27  1  0  0  0  0
 29 28  2  0  0  0  0
 30 32  2  0  0  0  0
 30  7  1  0  0  0  0
 31 30  1  0  0  0  0
M  END
>  <MODEL>
6

>  <REMARK>
 VINA RESULT:      -8.8      1.583      1.939
  Name = 
  5 active torsions:
  status: ('A' for Active; 'I' for Inactive)
    1  A    between atoms: C_6  and  C_10
    2  A    between atoms: C_9  and  C_25
    3  A    between atoms: C_12  and  C_20
    4  A    between atoms: C_15  and  C_19
    5  A    between atoms: C_24  and  C_25
                            x       y       z     vdW  Elec       q    Type
                         _______ _______ _______ _____ _____    ______ ____

>  <TORSDO>
F 5

$$$$
=
 OpenBabel11072411513D

 32 35  0  0  1  0  0  0  0  0999 V2000
  161.3250  206.4340  150.6090 C   0  0  0  0  0  3  0  0  0  0  0  0
  161.0040  208.6830  151.7110 C   0  0  0  0  0  0  0  0  0  0  0  0
  160.2400  208.8740  155.3790 O   0  0  0  0  0  0  0  0  0  0  0  0
  160.3820  210.9750  152.3860 C   0  0  0  0  0  0  0  0  0  0  0  0
  160.7730  208.2370  153.1280 C   0  0  0  0  0  0  0  0  0  0  0  0
  160.8300  210.0520  151.4400 O   0  0  0  0  0  0  0  0  0  0  0  0
  161.3430  207.9020  150.6600 C   0  0  0  0  0  0  0  0  0  0  0  0
  160.8770  206.6710  155.0550 O   0  0  0  0  0  0  0  0  0  0  0  0
  160.1620  210.5790  153.6330 C   0  0  0  0  0  3  0  0  0  0  0  0
  161.2060  205.4900  151.5360 C   0  0  0  0  0  0  0  0  0  0  0  0
  161.1110  205.7440  152.9730 C   0  0  0  0  0  3  0  0  0  0  0  0
  160.4010  209.1840  154.0270 C   0  0  0  0  0  0  0  0  0  0  0  0
  160.9090  207.7660  155.9560 C   0  0  0  0  0  2  0  0  0  0  0  0
  160.9470  206.8590  153.6710 C   0  0  0  0  0  0  0  0  0  0  0  0
  161.0080  202.3830  149.3290 C   0  0  0  0  0  0  0  0  0  0  0  0
  161.5270  201.7040  151.6010 C   0  0  0  0  0  3  0  0  0  0  0  0
  161.2330  204.0670  151.0920 C   0  0  0  0  0  0  0  0  0  0  0  0
  161.2910  201.3780  150.2640 C   0  0  0  0  0  3  0  0  0  0  0  0
  160.9950  203.7210  149.7490 C   0  0  0  0  0  3  0  0  0  0  0  0
  161.4960  203.0370  152.0110 C   0  0  0  0  0  3  0  0  0  0  0  0
  161.5820  200.9320  147.5530 F   0  0  0  0  0  0  0  0  0  0  0  0
  159.4610  201.7000  147.6430 O   0  0  0  0  0  1  0  0  0  0  0  0
  160.8000  202.0300  147.8770 C   0  0  1  0  0  0  0  0  0  0  0  0
  162.4670  203.6560  147.3290 F   0  0  0  0  0  0  0  0  0  0  0  0
  161.2060  203.2030  146.9840 C   0  0  1  0  0  3  0  0  0  0  0  0
  161.2020  202.8280  145.6380 O   0  0  0  0  0  1  0  0  0  0  0  0
  160.4560  212.8120  150.6660 N   0  0  0  0  0  1  0  0  0  0  0  0
  160.1620  212.3730  151.9900 C   0  0  0  0  0  0  0  0  0  0  0  0
  159.7060  213.1960  152.8260 O   0  0  0  0  0  0  0  0  0  0  0  0
  161.6650  208.5200  149.3470 C   0  0  0  0  0  0  0  0  0  0  0  0
  161.5820  207.7460  148.0730 C   0  0  0  0  0  1  0  0  0  0  0  0
  161.9560  209.7450  149.2830 O   0  0  0  0  0  0  0  0  0  0  0  0
  1  7  1  0  0  0  0
  1 10  2  0  0  0  0
  2  5  1  0  0  0  0
  3 13  1  0  0  0  0
  4  9  2  0  0  0  0
  5 14  1  0  0  0  0
  5 12  2  0  0  0  0
  6  2  1  0  0  0  0
  6  4  1  0  0  0  0
  7  2  2  0  0  0  0
  8 13  1  0  0  0  0
  9 12  1  0  0  0  0
 10 11  1  0  0  0  0
 11 14  2  0  0  0  0
 12  3  1  0  0  0  0
 14  8  1  0  0  0  0
 15 19  2  0  0  0  0
 15 18  1  0  0  0  0
 16 20  1  0  0  0  0
 17 10  1  0  0  0  0
 17 20  2  0  0  0  0
 18 16  2  0  0  0  0
 19 17  1  0  0  0  0
 22 23  1  0  0  0  0
 23 21  1  6  0  0  0
 23 15  1  0  0  0  0
 25 26  1  6  0  0  0
 25 24  1  0  0  0  0
 25 23  1  0  0  0  0
 27 28  1  0  0  0  0
 28  4  1  0  0  0  0
 28 29  2  0  0  0  0
 30  7  1  0  0  0  0
 31 30  1  0  0  0  0
 32 30  2  0  0  0  0
M  END
>  <MODEL>
7

>  <REMARK>
 VINA RESULT:      -8.8      2.102      2.922
  Name = 
  5 active torsions:
  status: ('A' for Active; 'I' for Inactive)
    1  A    between atoms: C_6  and  C_10
    2  A    between atoms: C_9  and  C_25
    3  A    between atoms: C_12  and  C_20
    4  A    between atoms: C_15  and  C_19
    5  A    between atoms: C_24  and  C_25
                            x       y       z     vdW  Elec       q    Type
                         _______ _______ _______ _____ _____    ______ ____

>  <TORSDO>
F 5

$$$$
=
 OpenBabel11072411513D

 32 35  0  0  1  0  0  0  0  0999 V2000
  161.2320  207.2390  150.9220 C   0  0  0  0  0  3  0  0  0  0  0  0
  161.3780  205.7050  148.9220 C   0  0  0  0  0  0  0  0  0  0  0  0
  161.0210  201.9990  149.3780 O   0  0  0  0  0  0  0  0  0  0  0  0
  161.9410  204.4820  146.8520 C   0  0  0  0  0  0  0  0  0  0  0  0
  161.1400  204.3850  149.6000 C   0  0  0  0  0  0  0  0  0  0  0  0
  161.7290  205.6660  147.5600 O   0  0  0  0  0  0  0  0  0  0  0  0
  161.3110  206.9320  149.4880 C   0  0  0  0  0  0  0  0  0  0  0  0
  160.3450  202.8800  151.4110 O   0  0  0  0  0  0  0  0  0  0  0  0
  161.7460  203.3160  147.4550 C   0  0  0  0  0  3  0  0  0  0  0  0
  160.9960  206.5010  152.0020 C   0  0  0  0  0  0  0  0  0  0  0  0
  160.6760  205.0740  151.9790 C   0  0  0  0  0  3  0  0  0  0  0  0
  161.2960  203.2630  148.8520 C   0  0  0  0  0  0  0  0  0  0  0  0
  160.1280  201.8440  150.4680 C   0  0  0  0  0  2  0  0  0  0  0  0
  160.7070  204.1700  151.0110 C   0  0  0  0  0  0  0  0  0  0  0  0
  161.2950  209.1990  154.6850 C   0  0  0  0  0  0  0  0  0  0  0  0
  160.7030  207.0970  155.7440 C   0  0  0  0  0  3  0  0  0  0  0  0
  160.9970  207.1820  153.3270 C   0  0  0  0  0  0  0  0  0  0  0  0
  160.9880  208.4600  155.8350 C   0  0  0  0  0  3  0  0  0  0  0  0
  161.2840  208.5560  153.4380 C   0  0  0  0  0  3  0  0  0  0  0  0
  160.7100  206.4630  154.5000 C   0  0  0  0  0  3  0  0  0  0  0  0
  162.9200  210.9030  154.8930 F   0  0  0  0  0  0  0  0  0  0  0  0
  161.0970  211.3350  153.6360 O   0  0  0  0  0  1  0  0  0  0  0  0
  161.5570  210.6810  154.7840 C   0  0  1  0  0  0  0  0  0  0  0  0
  161.8030  211.6770  156.9450 F   0  0  0  0  0  0  0  0  0  0  0  0
  160.8640  211.2600  156.0190 C   0  0  1  0  0  3  0  0  0  0  0  0
  160.0460  212.3370  155.6710 O   0  0  0  0  0  1  0  0  0  0  0  0
  161.4720  204.9400  144.4220 N   0  0  0  0  0  1  0  0  0  0  0  0
  162.3750  204.5420  145.4500 C   0  0  0  0  0  0  0  0  0  0  0  0
  163.5600  204.2410  145.1480 O   0  0  0  0  0  0  0  0  0  0  0  0
  161.4450  208.1490  148.6450 C   0  0  0  0  0  0  0  0  0  0  0  0
  162.0650  209.4030  149.1690 C   0  0  0  0  0  1  0  0  0  0  0  0
  161.0900  208.1190  147.4360 O   0  0  0  0  0  0  0  0  0  0  0  0
  1 10  2  0  0  0  0
  2  7  2  0  0  0  0
  2  5  1  0  0  0  0
  3 13  1  0  0  0  0
  4  9  2  0  0  0  0
  4  6  1  0  0  0  0
  5 14  1  0  0  0  0
  6  2  1  0  0  0  0
  7  1  1  0  0  0  0
  9 12  1  0  0  0  0
 10 17  1  0  0  0  0
 11 10  1  0  0  0  0
 12  3  1  0  0  0  0
 12  5  2  0  0  0  0
 13  8  1  0  0  0  0
 14  8  1  0  0  0  0
 14 11  2  0  0  0  0
 15 23  1  0  0  0  0
 15 18  1  0  0  0  0
 16 18  2  0  0  0  0
 17 19  1  0  0  0  0
 17 20  2  0  0  0  0
 19 15  2  0  0  0  0
 20 16  1  0  0  0  0
 23 22  1  6  0  0  0
 23 21  1  0  0  0  0
 23 25  1  0  0  0  0
 25 26  1  6  0  0  0
 25 24  1  0  0  0  0
 27 28  1  0  0  0  0
 28  4  1  0  0  0  0
 29 28  2  0  0  0  0
 30 31  1  0  0  0  0
 30  7  1  0  0  0  0
 32 30  2  0  0  0  0
M  END
>  <MODEL>
8

>  <REMARK>
 VINA RESULT:      -8.7      4.048      8.568
  Name = 
  5 active torsions:
  status: ('A' for Active; 'I' for Inactive)
    1  A    between atoms: C_6  and  C_10
    2  A    between atoms: C_9  and  C_25
    3  A    between atoms: C_12  and  C_20
    4  A    between atoms: C_15  and  C_19
    5  A    between atoms: C_24  and  C_25
                            x       y       z     vdW  Elec       q    Type
                         _______ _______ _______ _____ _____    ______ ____

>  <TORSDO>
F 5

$$$$
=
 OpenBabel11072411513D

 32 35  0  0  1  0  0  0  0  0999 V2000
  161.1500  206.5180  148.2640 C   0  0  0  0  0  3  0  0  0  0  0  0
  160.8530  204.0310  147.9470 C   0  0  0  0  0  0  0  0  0  0  0  0
  160.8310  201.7560  150.9290 O   0  0  0  0  0  0  0  0  0  0  0  0
  160.9230  201.6570  147.2720 C   0  0  0  0  0  0  0  0  0  0  0  0
  160.8730  203.5900  149.3840 C   0  0  0  0  0  0  0  0  0  0  0  0
  160.8380  203.0170  146.9710 O   0  0  0  0  0  0  0  0  0  0  0  0
  160.8690  205.3030  147.4870 C   0  0  0  0  0  0  0  0  0  0  0  0
  160.6610  203.8770  151.8430 O   0  0  0  0  0  0  0  0  0  0  0  0
  160.9570  201.2680  148.5400 C   0  0  0  0  0  3  0  0  0  0  0  0
  161.2440  206.7690  149.5660 C   0  0  0  0  0  0  0  0  0  0  0  0
  161.0080  205.7830  150.6200 C   0  0  0  0  0  3  0  0  0  0  0  0
  160.8900  202.2550  149.6260 C   0  0  0  0  0  0  0  0  0  0  0  0
  160.2630  202.5230  151.9770 C   0  0  0  0  0  2  0  0  0  0  0  0
  160.8350  204.4700  150.5880 C   0  0  0  0  0  0  0  0  0  0  0  0
  161.6490  209.8910  151.7220 C   0  0  0  0  0  0  0  0  0  0  0  0
  162.3310  210.4080  149.4510 C   0  0  0  0  0  3  0  0  0  0  0  0
  161.5530  208.1640  149.9890 C   0  0  0  0  0  0  0  0  0  0  0  0
  162.1450  210.8000  150.7780 C   0  0  0  0  0  3  0  0  0  0  0  0
  161.3690  208.5760  151.3220 C   0  0  0  0  0  3  0  0  0  0  0  0
  162.0350  209.1010  149.0600 C   0  0  0  0  0  3  0  0  0  0  0  0
  162.7470  210.4470  153.7400 F   0  0  0  0  0  0  0  0  0  0  0  0
  160.8310  211.5340  153.2500 O   0  0  0  0  0  1  0  0  0  0  0  0
  161.4940  210.3060  153.1640 C   0  0  1  0  0  0  0  0  0  0  0  0
  161.5830  208.3450  154.5320 F   0  0  0  0  0  0  0  0  0  0  0  0
  160.7140  209.2440  153.9400 C   0  0  1  0  0  3  0  0  0  0  0  0
  159.9150  209.8330  154.9230 O   0  0  0  0  0  1  0  0  0  0  0  0
  160.3430  200.9380  144.9300 N   0  0  0  0  0  1  0  0  0  0  0  0
  160.9730  200.6740  146.1810 C   0  0  0  0  0  0  0  0  0  0  0  0
  161.5800  199.5840  146.3480 O   0  0  0  0  0  0  0  0  0  0  0  0
  160.7110  205.5730  146.0340 C   0  0  0  0  0  0  0  0  0  0  0  0
  161.6830  205.0490  145.0280 C   0  0  0  0  0  1  0  0  0  0  0  0
  159.7030  206.2030  145.6160 O   0  0  0  0  0  0  0  0  0  0  0  0
  1 10  2  0  0  0  0
  2  5  1  0  0  0  0
  3 13  1  0  0  0  0
  4  9  2  0  0  0  0
  5 12  2  0  0  0  0
  5 14  1  0  0  0  0
  6  4  1  0  0  0  0
  6  2  1  0  0  0  0
  7  2  2  0  0  0  0
  7  1  1  0  0  0  0
  8 13  1  0  0  0  0
  9 12  1  0  0  0  0
 10 17  1  0  0  0  0
 10 11  1  0  0  0  0
 12  3  1  0  0  0  0
 14 11  2  0  0  0  0
 14  8  1  0  0  0  0
 15 23  1  0  0  0  0
 16 18  1  0  0  0  0
 17 19  2  0  0  0  0
 18 15  2  0  0  0  0
 19 15  1  0  0  0  0
 20 16  2  0  0  0  0
 20 17  1  0  0  0  0
 23 22  1  1  0  0  0
 23 21  1  0  0  0  0
 23 25  1  0  0  0  0
 25 24  1  1  0  0  0
 25 26  1  0  0  0  0
 27 28  1  0  0  0  0
 28 29  2  0  0  0  0
 28  4  1  0  0  0  0
 30  7  1  0  0  0  0
 31 30  1  0  0  0  0
 32 30  2  0  0  0  0
M  END
>  <MODEL>
9

>  <REMARK>
 VINA RESULT:      -8.7      4.266      8.964
  Name = 
  5 active torsions:
  status: ('A' for Active; 'I' for Inactive)
    1  A    between atoms: C_6  and  C_10
    2  A    between atoms: C_9  and  C_25
    3  A    between atoms: C_12  and  C_20
    4  A    between atoms: C_15  and  C_19
    5  A    between atoms: C_24  and  C_25
                            x       y       z     vdW  Elec       q    Type
                         _______ _______ _______ _____ _____    ______ ____

>  <TORSDO>
F 5

$$$$
