=
 OpenBabel11072410063D

 69 76  0  0  1  0  0  0  0  0999 V2000
  159.8040  206.8030  150.7370 C   0  0  0  0  0  2  0  0  0  0  0  0
  160.8940  206.5240  151.7910 C   0  0  2  0  0  0  0  0  0  0  0  0
  162.3510  207.1070  149.6780 C   0  0  1  0  0  3  0  0  0  0  0  0
  162.2650  206.4180  151.0500 C   0  0  1  0  0  3  0  0  0  0  0  0
  163.4020  206.6400  151.8300 O   0  0  0  0  0  1  0  0  0  0  0  0
  161.1630  206.7330  148.7790 C   0  0  0  0  0  2  0  0  0  0  0  0
  160.0710  206.0740  149.5010 N   0  0  0  0  0  2  0  0  0  0  0  0
  163.1470  209.1780  150.8500 O   0  0  0  0  0  1  0  0  0  0  0  0
  161.9880  209.3240  148.8820 O   0  0  0  0  0  0  0  0  0  0  0  0
  162.4870  208.5950  149.7760 C   0  0  0  0  0  0  0  0  0  0  0  0
  161.0370  203.9310  151.9440 C   0  0  0  0  0  0  0  0  0  0  0  0
  160.5830  205.2200  152.3820 N   0  0  0  0  0  2  0  0  0  0  0  0
  160.5150  202.8990  152.4460 O   0  0  0  0  0  0  0  0  0  0  0  0
  162.0740  203.7870  150.8730 C   0  0  0  0  0  2  0  0  0  0  0  0
  160.6290  200.8540  148.9170 C   0  0  0  0  0  3  0  0  0  0  0  0
  161.6220  202.9040  149.7530 C   0  0  0  0  0  0  0  0  0  0  0  0
  161.0600  201.6370  149.9910 C   0  0  0  0  0  0  0  0  0  0  0  0
  160.9150  201.1530  151.2890 O   0  0  0  0  0  1  0  0  0  0  0  0
  161.7710  203.3600  148.4370 C   0  0  0  0  0  3  0  0  0  0  0  0
  161.3630  202.5680  147.3600 C   0  0  0  0  0  0  0  0  0  0  0  0
  160.7740  201.3190  147.6070 C   0  0  0  0  0  3  0  0  0  0  0  0
  161.5150  203.1080  145.9710 C   0  0  0  0  0  2  0  0  0  0  0  0
  161.5790  204.6350  145.9410 C   0  0  1  0  0  3  0  0  0  0  0  0
  162.9170  205.0350  145.9510 O   0  0  0  0  0  1  0  0  0  0  0  0
  159.8350  204.2490  144.1650 C   0  0  0  0  0  1  0  0  0  0  0  0
  160.8160  205.2550  144.7500 C   0  0  0  0  0  0  0  0  0  0  0  0
  160.0110  206.4590  145.2370 C   0  0  0  0  0  1  0  0  0  0  0  0
  161.8310  205.6610  143.6500 C   0  0  1  0  0  0  0  0  0  0  0  0
  163.3280  206.8000  141.2050 O   0  0  0  0  0  1  0  0  0  0  0  0
  161.4440  205.5610  142.1870 C   0  0  2  0  0  3  0  0  0  0  0  0
  161.9500  206.7670  141.4310 C   0  0  1  0  0  0  0  0  0  0  0  0
  161.5560  206.9350  142.8780 C   0  0  2  0  0  3  0  0  0  0  0  0
  163.1910  205.4450  143.8950 O   0  0  0  0  0  1  0  0  0  0  0  0
  161.0270  207.4210  140.4160 C   0  0  0  0  0  2  0  0  0  0  0  0
  161.7930  208.3960  139.5210 C   0  0  1  0  0  3  0  0  0  0  0  0
  160.4880  207.9240  137.5480 O   0  0  0  0  0  1  0  0  0  0  0  0
  162.4270  206.5760  137.9080 C   0  0  0  0  0  1  0  0  0  0  0  0
  161.7880  207.9460  138.0610 C   0  0  2  0  0  3  0  0  0  0  0  0
  161.2260  209.7340  139.6290 N   0  0  0  0  0  2  0  0  0  0  0  0
  162.0140  210.8610  140.0210 C   0  0  0  0  0  0  0  0  0  0  0  0
  163.2310  210.7160  140.3190 O   0  0  0  0  0  0  0  0  0  0  0  0
  161.3690  212.2040  140.1620 C   0  0  0  0  0  3  0  0  0  0  0  0
  159.9260  212.0440  140.6080 C   0  0  0  0  0  2  0  0  0  0  0  0
  160.2360  212.3480  139.1590 C   0  0  0  0  0  2  0  0  0  0  0  0
  160.3400  208.8320  152.5150 C   0  0  0  0  0  2  0  0  0  0  0  0
  160.7930  207.6210  152.8610 C   0  0  0  0  0  0  0  0  0  0  0  0
  160.9290  207.3470  154.3320 C   0  0  0  0  0  2  0  0  0  0  0  0
  159.7160  207.8350  155.1060 C   0  0  0  0  0  2  0  0  0  0  0  0
  161.6520  211.3920  154.2350 C   0  0  0  0  0  2  0  0  0  0  0  0
  158.9230  211.4150  156.3970 C   0  0  2  0  0  3  0  0  0  0  0  0
  157.6280  213.2280  154.5420 O   0  0  0  0  0  1  0  0  0  0  0  0
  162.0060  210.5360  155.4280 C   0  0  0  0  0  0  0  0  0  0  0  0
  163.2060  210.7040  155.9610 C   0  0  0  0  0  2  0  0  0  0  0  0
  157.5920  209.5800  155.6440 O   0  0  0  0  0  0  0  0  0  0  0  0
  159.7540  212.9290  153.3920 C   0  0  2  0  0  3  0  0  0  0  0  0
  161.1660  209.5580  156.0000 O   0  0  0  0  0  0  0  0  0  0  0  0
  159.7030  212.3720  155.4610 C   0  0  1  0  0  3  0  0  0  0  0  0
  158.7530  210.0200  155.8580 C   0  0  0  0  0  0  0  0  0  0  0  0
  159.9080  209.2170  155.5250 N   0  0  0  0  0  0  0  0  0  0  0  0
  160.1720  211.7050  154.1820 C   0  0  2  0  0  3  0  0  0  0  0  0
  159.0080  213.4570  154.6330 C   0  0  2  0  0  3  0  0  0  0  0  0
  158.4380  213.7860  151.4730 C   0  0  0  0  0  1  0  0  0  0  0  0
  158.8510  212.5410  152.2230 C   0  0  0  0  0  2  0  0  0  0  0  0
  157.7170  211.9450  156.8860 O   0  0  0  0  0  0  0  0  0  0  0  0
  155.6360  212.3440  155.9730 O   0  0  0  0  0  0  0  0  0  0  0  0
  156.6950  211.4210  156.0800 C   0  0  2  0  0  3  0  0  0  0  0  0
  155.4600  211.2820  156.8840 C   0  0  2  0  0  3  0  0  0  0  0  0
  153.6490  210.0610  157.2600 C   0  0  0  0  0  1  0  0  0  0  0  0
  154.6480  210.3010  156.3110 O   0  0  0  0  0  0  0  0  0  0  0  0
  1  2  1  0  0  0  0
  2 12  1  1  0  0  0
  2 46  1  0  0  0  0
  3 10  1  1  0  0  0
  3  4  1  0  0  0  0
  4  2  1  0  0  0  0
  4  5  1  1  0  0  0
  6  7  1  0  0  0  0
  6  3  1  0  0  0  0
  7  1  1  0  0  0  0
  9 10  2  0  0  0  0
 10  8  1  0  0  0  0
 11 12  1  0  0  0  0
 11 13  2  0  0  0  0
 14 11  1  0  0  0  0
 15 17  1  0  0  0  0
 16 17  2  0  0  0  0
 16 14  1  0  0  0  0
 17 18  1  0  0  0  0
 19 16  1  0  0  0  0
 20 21  1  0  0  0  0
 20 19  2  0  0  0  0
 21 15  2  0  0  0  0
 22 20  1  0  0  0  0
 23 24  1  6  0  0  0
 23 22  1  0  0  0  0
 25 26  1  0  0  0  0
 26 27  1  0  0  0  0
 26 23  1  0  0  0  0
 28 33  1  0  0  0  0
 28 26  1  0  0  0  0
 29 31  1  0  0  0  0
 30 32  1  0  0  0  0
 30 28  1  0  0  0  0
 31 30  1  0  0  0  0
 31 32  1  0  0  0  0
 32 28  1  0  0  0  0
 34 31  1  0  0  0  0
 35 39  1  0  0  0  0
 35 34  1  0  0  0  0
 36 38  1  0  0  0  0
 37 38  1  0  0  0  0
 38 35  1  0  0  0  0
 39 40  1  0  0  0  0
 40 42  1  0  0  0  0
 40 41  2  0  0  0  0
 42 43  1  0  0  0  0
 44 42  1  0  0  0  0
 44 43  1  0  0  0  0
 45 46  2  0  0  0  0
 46 47  1  0  0  0  0
 47 48  1  0  0  0  0
 48 59  1  0  0  0  0
 49 52  1  0  0  0  0
 50 64  1  0  0  0  0
 51 61  1  0  0  0  0
 52 53  2  0  0  0  0
 52 56  1  0  0  0  0
 54 58  2  0  0  0  0
 55 60  1  0  0  0  0
 55 61  1  0  0  0  0
 57 50  1  0  0  0  0
 58 50  1  0  0  0  0
 59 58  1  0  0  0  0
 59 56  1  0  0  0  0
 60 49  1  0  0  0  0
 60 57  1  0  0  0  0
 61 57  1  0  0  0  0
 62 63  1  0  0  0  0
 63 55  1  0  0  0  0
 65 66  1  0  0  0  0
 65 67  1  0  0  0  0
 66 67  1  0  0  0  0
 66 64  1  0  0  0  0
 69 67  1  0  0  0  0
 69 68  1  0  0  0  0
M  END
>  <MODEL>
1

>  <REMARK>
 VINA RESULT:       0.0      0.000      0.000
  Name = 
  21 active torsions:
  status: ('A' for Active; 'I' for Inactive)
    1  A    between atoms: C_2  and  C_52
    2  A    between atoms: N_3  and  C_42
    3  A    between atoms: C_5  and  C_35
    4  A    between atoms: C_5  and  C_42
    5  A    between atoms: C_6  and  C_33
    6  A    between atoms: C_6  and  N_59
    7  A    between atoms: C_7  and  N_24
    8  A    between atoms: C_7  and  C_43
    9  A    between atoms: C_9  and  C_22
   10  A    between atoms: C_13  and  C_21
   11  A    between atoms: C_15  and  C_16
   12  A    between atoms: C_15  and  C_62
   13  A    between atoms: C_16  and  C_52
   14  A    between atoms: C_17  and  C_21
   15  A    between atoms: C_18  and  C_63
   16  A    between atoms: C_19  and  O_45
   17  A    between atoms: C_20  and  O_45
   18  A    between atoms: C_33  and  C_43
   19  A    between atoms: C_42  and  C_50
   20  A    between atoms: C_46  and  C_67
   21  A    between atoms: O_64  and  C_69
                            x       y       z     vdW  Elec       q    Type
                         _______ _______ _______ _____ _____    ______ ____

>  <TORSDO>
F 21

$$$$
=
 OpenBabel11072410063D

 69 76  0  0  1  0  0  0  0  0999 V2000
  162.2320  204.3990  148.8260 C   0  0  0  0  0  2  0  0  0  0  0  0
  160.8520  204.6060  149.4790 C   0  0  2  0  0  0  0  0  0  0  0  0
  160.9200  201.9870  149.2250 C   0  0  1  0  0  3  0  0  0  0  0  0
  160.0680  203.2580  149.3890 C   0  0  1  0  0  3  0  0  0  0  0  0
  159.0300  203.0890  150.3070 O   0  0  0  0  0  1  0  0  0  0  0  0
  161.9610  202.1420  148.1080 C   0  0  0  0  0  2  0  0  0  0  0  0
  162.1340  203.5260  147.6590 N   0  0  0  0  0  2  0  0  0  0  0  0
  160.8400  201.4310  151.6700 O   0  0  0  0  0  1  0  0  0  0  0  0
  162.8090  201.3080  150.5090 O   0  0  0  0  0  0  0  0  0  0  0  0
  161.5760  201.5530  150.4990 C   0  0  0  0  0  0  0  0  0  0  0  0
  160.6050  206.9200  148.3170 C   0  0  0  0  0  0  0  0  0  0  0  0
  160.1490  205.6060  148.6710 N   0  0  0  0  0  2  0  0  0  0  0  0
  159.7920  207.7220  147.7820 O   0  0  0  0  0  0  0  0  0  0  0  0
  162.0010  207.3740  148.6150 C   0  0  0  0  0  2  0  0  0  0  0  0
  162.7190  210.9300  149.7790 C   0  0  0  0  0  3  0  0  0  0  0  0
  162.1230  208.8650  148.6540 C   0  0  0  0  0  0  0  0  0  0  0  0
  162.5990  209.5380  149.7930 C   0  0  0  0  0  0  0  0  0  0  0  0
  162.9670  208.8340  150.9370 O   0  0  0  0  0  1  0  0  0  0  0  0
  161.7450  209.5990  147.5230 C   0  0  0  0  0  3  0  0  0  0  0  0
  161.8400  210.9930  147.5150 C   0  0  0  0  0  0  0  0  0  0  0  0
  162.3480  211.6550  148.6430 C   0  0  0  0  0  3  0  0  0  0  0  0
  161.4520  211.7350  146.2740 C   0  0  0  0  0  2  0  0  0  0  0  0
  160.9310  213.1410  146.5710 C   0  0  1  0  0  3  0  0  0  0  0  0
  161.6470  214.0630  145.8060 O   0  0  0  0  0  1  0  0  0  0  0  0
  158.7050  211.9620  146.5970 C   0  0  0  0  0  1  0  0  0  0  0  0
  159.4090  213.2890  146.3500 C   0  0  0  0  0  0  0  0  0  0  0  0
  158.8500  214.3030  147.3460 C   0  0  0  0  0  1  0  0  0  0  0  0
  159.1470  213.7290  144.8860 C   0  0  1  0  0  0  0  0  0  0  0  0
  159.1380  214.1980  141.8370 O   0  0  0  0  0  1  0  0  0  0  0  0
  160.3040  214.1530  144.0030 C   0  0  2  0  0  3  0  0  0  0  0  0
  160.1300  213.5910  142.6110 C   0  0  1  0  0  0  0  0  0  0  0  0
  159.6020  212.7970  143.7820 C   0  0  2  0  0  3  0  0  0  0  0  0
  157.9430  214.3810  144.5990 O   0  0  0  0  0  1  0  0  0  0  0  0
  161.3460  213.0050  141.9120 C   0  0  0  0  0  2  0  0  0  0  0  0
  161.2590  213.1980  140.3980 C   0  0  1  0  0  3  0  0  0  0  0  0
  163.4550  214.1660  140.6360 O   0  0  0  0  0  1  0  0  0  0  0  0
  162.5230  214.1310  138.4370 C   0  0  0  0  0  1  0  0  0  0  0  0
  162.6360  213.4270  139.7770 C   0  0  2  0  0  3  0  0  0  0  0  0
  160.6200  212.0440  139.7770 N   0  0  0  0  0  2  0  0  0  0  0  0
  161.2240  210.7480  139.7880 C   0  0  0  0  0  0  0  0  0  0  0  0
  162.3570  210.5770  140.3150 O   0  0  0  0  0  0  0  0  0  0  0  0
  160.5460  209.6090  139.0950 C   0  0  0  0  0  3  0  0  0  0  0  0
  161.0280  208.2890  139.6710 C   0  0  0  0  0  2  0  0  0  0  0  0
  161.5680  208.7720  138.3430 C   0  0  0  0  0  2  0  0  0  0  0  0
  161.9820  204.5450  151.6880 C   0  0  0  0  0  2  0  0  0  0  0  0
  161.0880  205.1500  150.8960 C   0  0  0  0  0  0  0  0  0  0  0  0
  160.5650  206.4800  151.3620 C   0  0  0  0  0  2  0  0  0  0  0  0
  161.5810  207.2070  152.2260 C   0  0  0  0  0  2  0  0  0  0  0  0
  161.7500  207.9640  156.2960 C   0  0  0  0  0  2  0  0  0  0  0  0
  159.6820  209.9080  154.2780 C   0  0  2  0  0  3  0  0  0  0  0  0
  161.2080  212.2140  155.1520 O   0  0  0  0  0  1  0  0  0  0  0  0
  160.7230  207.0470  155.6730 C   0  0  0  0  0  0  0  0  0  0  0  0
  160.1410  206.1610  156.4660 C   0  0  0  0  0  2  0  0  0  0  0  0
  160.7850  209.8920  152.1590 O   0  0  0  0  0  0  0  0  0  0  0  0
  162.3440  210.4760  156.4240 C   0  0  2  0  0  3  0  0  0  0  0  0
  160.3570  207.0480  154.3110 O   0  0  0  0  0  0  0  0  0  0  0  0
  160.4120  209.9770  155.6430 C   0  0  1  0  0  3  0  0  0  0  0  0
  160.4690  209.2340  153.1860 C   0  0  0  0  0  0  0  0  0  0  0  0
  160.9140  207.8680  153.3410 N   0  0  0  0  0  0  0  0  0  0  0  0
  161.7790  209.3200  155.6230 C   0  0  2  0  0  3  0  0  0  0  0  0
  161.0450  211.2660  156.1720 C   0  0  2  0  0  3  0  0  0  0  0  0
  164.4040  211.8140  156.7640 C   0  0  0  0  0  1  0  0  0  0  0  0
  163.5840  211.0540  155.7460 C   0  0  0  0  0  2  0  0  0  0  0  0
  159.1340  211.1320  153.8570 O   0  0  0  0  0  0  0  0  0  0  0  0
  156.9460  210.5540  154.3080 O   0  0  0  0  0  0  0  0  0  0  0  0
  158.0270  211.3780  154.6820 C   0  0  2  0  0  3  0  0  0  0  0  0
  156.9070  211.8910  153.8600 C   0  0  2  0  0  3  0  0  0  0  0  0
  155.8870  213.8530  154.0040 C   0  0  0  0  0  1  0  0  0  0  0  0
  156.0460  212.6340  154.6700 O   0  0  0  0  0  0  0  0  0  0  0  0
  1  2  1  0  0  0  0
  2 12  1  6  0  0  0
  2 46  1  0  0  0  0
  3  4  1  0  0  0  0
  3 10  1  1  0  0  0
  4  2  1  0  0  0  0
  4  5  1  1  0  0  0
  6  3  1  0  0  0  0
  7  6  1  0  0  0  0
  7  1  1  0  0  0  0
 10  9  2  0  0  0  0
 10  8  1  0  0  0  0
 11 14  1  0  0  0  0
 11 12  1  0  0  0  0
 13 11  2  0  0  0  0
 14 16  1  0  0  0  0
 15 17  1  0  0  0  0
 16 17  2  0  0  0  0
 17 18  1  0  0  0  0
 19 16  1  0  0  0  0
 20 19  2  0  0  0  0
 20 21  1  0  0  0  0
 21 15  2  0  0  0  0
 22 23  1  0  0  0  0
 22 20  1  0  0  0  0
 23 24  1  6  0  0  0
 26 23  1  0  0  0  0
 26 25  1  0  0  0  0
 26 27  1  0  0  0  0
 28 26  1  0  0  0  0
 29 31  1  0  0  0  0
 30 28  1  0  0  0  0
 31 32  1  0  0  0  0
 31 30  1  0  0  0  0
 32 30  1  0  0  0  0
 32 28  1  0  0  0  0
 33 28  1  0  0  0  0
 34 31  1  0  0  0  0
 35 34  1  0  0  0  0
 37 38  1  0  0  0  0
 38 35  1  0  0  0  0
 38 36  1  0  0  0  0
 39 40  1  0  0  0  0
 39 35  1  0  0  0  0
 40 41  2  0  0  0  0
 42 43  1  0  0  0  0
 42 40  1  0  0  0  0
 44 42  1  0  0  0  0
 44 43  1  0  0  0  0
 46 47  1  0  0  0  0
 46 45  2  0  0  0  0
 47 48  1  0  0  0  0
 48 59  1  0  0  0  0
 50 57  1  0  0  0  0
 51 61  1  0  0  0  0
 52 49  1  0  0  0  0
 52 53  2  0  0  0  0
 54 58  2  0  0  0  0
 56 52  1  0  0  0  0
 57 61  1  0  0  0  0
 58 59  1  0  0  0  0
 58 50  1  0  0  0  0
 59 56  1  0  0  0  0
 60 57  1  0  0  0  0
 60 49  1  0  0  0  0
 60 55  1  0  0  0  0
 61 55  1  0  0  0  0
 63 55  1  0  0  0  0
 63 62  1  0  0  0  0
 64 50  1  0  0  0  0
 64 66  1  0  0  0  0
 65 66  1  0  0  0  0
 67 65  1  0  0  0  0
 67 69  1  0  0  0  0
 67 66  1  0  0  0  0
 68 69  1  0  0  0  0
M  END
>  <MODEL>
2

>  <REMARK>
 VINA RESULT:       1.6      2.754      5.951
  Name = 
  21 active torsions:
  status: ('A' for Active; 'I' for Inactive)
    1  A    between atoms: C_2  and  C_52
    2  A    between atoms: N_3  and  C_42
    3  A    between atoms: C_5  and  C_35
    4  A    between atoms: C_5  and  C_42
    5  A    between atoms: C_6  and  C_33
    6  A    between atoms: C_6  and  N_59
    7  A    between atoms: C_7  and  N_24
    8  A    between atoms: C_7  and  C_43
    9  A    between atoms: C_9  and  C_22
   10  A    between atoms: C_13  and  C_21
   11  A    between atoms: C_15  and  C_16
   12  A    between atoms: C_15  and  C_62
   13  A    between atoms: C_16  and  C_52
   14  A    between atoms: C_17  and  C_21
   15  A    between atoms: C_18  and  C_63
   16  A    between atoms: C_19  and  O_45
   17  A    between atoms: C_20  and  O_45
   18  A    between atoms: C_33  and  C_43
   19  A    between atoms: C_42  and  C_50
   20  A    between atoms: C_46  and  C_67
   21  A    between atoms: O_64  and  C_69
                            x       y       z     vdW  Elec       q    Type
                         _______ _______ _______ _____ _____    ______ ____

>  <TORSDO>
F 21

$$$$
=
 OpenBabel11072410063D

 69 76  0  0  1  0  0  0  0  0999 V2000
  162.7820  212.3810  147.5730 C   0  0  0  0  0  2  0  0  0  0  0  0
  161.3070  212.1490  147.9530 C   0  0  2  0  0  0  0  0  0  0  0  0
  161.0830  214.0330  146.1290 C   0  0  1  0  0  3  0  0  0  0  0  0
  160.4610  213.3070  147.3340 C   0  0  1  0  0  3  0  0  0  0  0  0
  159.1020  213.0440  147.1540 O   0  0  0  0  0  1  0  0  0  0  0  0
  162.5370  214.4440  146.4030 C   0  0  0  0  0  2  0  0  0  0  0  0
  163.1100  213.8040  147.5900 N   0  0  0  0  0  2  0  0  0  0  0  0
  162.1350  212.7850  144.2230 O   0  0  0  0  0  0  0  0  0  0  0  0
  159.8610  213.0130  144.3550 O   0  0  0  0  0  1  0  0  0  0  0  0
  160.9900  213.2470  144.8580 C   0  0  0  0  0  0  0  0  0  0  0  0
  160.2380  212.9330  150.1920 C   0  0  0  0  0  0  0  0  0  0  0  0
  161.2290  212.2460  149.4130 N   0  0  0  0  0  2  0  0  0  0  0  0
  160.4320  213.0820  151.4280 O   0  0  0  0  0  0  0  0  0  0  0  0
  159.0120  213.5190  149.5620 C   0  0  0  0  0  2  0  0  0  0  0  0
  155.6220  214.2910  151.1190 C   0  0  0  0  0  3  0  0  0  0  0  0
  157.9270  213.7850  150.5570 C   0  0  0  0  0  0  0  0  0  0  0  0
  156.6100  214.0720  150.1560 C   0  0  0  0  0  0  0  0  0  0  0  0
  156.2720  214.1300  148.8070 O   0  0  0  0  0  1  0  0  0  0  0  0
  158.2440  213.7480  151.9200 C   0  0  0  0  0  3  0  0  0  0  0  0
  157.2630  213.9910  152.8850 C   0  0  0  0  0  0  0  0  0  0  0  0
  155.9450  214.2440  152.4790 C   0  0  0  0  0  3  0  0  0  0  0  0
  157.6410  213.9130  154.3320 C   0  0  0  0  0  2  0  0  0  0  0  0
  157.7830  212.4720  154.8230 C   0  0  1  0  0  3  0  0  0  0  0  0
  157.5010  211.6020  153.7680 O   0  0  0  0  0  1  0  0  0  0  0  0
  160.2740  212.4960  154.4560 C   0  0  0  0  0  1  0  0  0  0  0  0
  159.1640  212.1720  155.4450 C   0  0  0  0  0  0  0  0  0  0  0  0
  159.3680  213.0560  156.6750 C   0  0  0  0  0  1  0  0  0  0  0  0
  159.2430  210.6670  155.8110 C   0  0  1  0  0  0  0  0  0  0  0  0
  159.9090  207.6690  156.1040 O   0  0  0  0  0  1  0  0  0  0  0  0
  159.3650  209.6260  154.7160 C   0  0  2  0  0  3  0  0  0  0  0  0
  160.3530  208.5570  155.1220 C   0  0  1  0  0  0  0  0  0  0  0  0
  160.5720  209.9670  155.6140 C   0  0  2  0  0  3  0  0  0  0  0  0
  158.5470  210.2260  156.9410 O   0  0  0  0  0  1  0  0  0  0  0  0
  161.3450  208.0600  154.0830 C   0  0  0  0  0  2  0  0  0  0  0  0
  160.7970  208.2380  152.6660 C   0  0  1  0  0  3  0  0  0  0  0  0
  162.4790  208.5180  150.9600 O   0  0  0  0  0  1  0  0  0  0  0  0
  162.4850  210.0980  152.7510 C   0  0  0  0  0  1  0  0  0  0  0  0
  161.6490  209.2070  151.8480 C   0  0  2  0  0  3  0  0  0  0  0  0
  160.7210  206.9500  151.9880 N   0  0  0  0  0  2  0  0  0  0  0  0
  161.6590  205.9020  152.2460 C   0  0  0  0  0  0  0  0  0  0  0  0
  162.6090  206.0820  153.0560 O   0  0  0  0  0  0  0  0  0  0  0  0
  161.5620  204.6160  151.4870 C   0  0  0  0  0  3  0  0  0  0  0  0
  160.1050  204.2480  151.2720 C   0  0  0  0  0  2  0  0  0  0  0  0
  160.9060  203.5490  152.3480 C   0  0  0  0  0  2  0  0  0  0  0  0
  160.2890  210.5600  146.3400 C   0  0  0  0  0  2  0  0  0  0  0  0
  160.9320  210.7290  147.5020 C   0  0  0  0  0  0  0  0  0  0  0  0
  161.4700  209.4910  148.1620 C   0  0  0  0  0  2  0  0  0  0  0  0
  160.6260  208.2710  147.8310 C   0  0  0  0  0  2  0  0  0  0  0  0
  162.9160  204.8900  148.5280 C   0  0  0  0  0  2  0  0  0  0  0  0
  161.8290  205.5830  145.2930 C   0  0  2  0  0  3  0  0  0  0  0  0
  160.4640  203.0250  145.3390 O   0  0  0  0  0  1  0  0  0  0  0  0
  163.5140  206.2150  148.1180 C   0  0  0  0  0  0  0  0  0  0  0  0
  164.7950  206.4110  148.3840 C   0  0  0  0  0  2  0  0  0  0  0  0
  159.7780  206.7630  145.6280 O   0  0  0  0  0  0  0  0  0  0  0  0
  161.4850  202.9730  147.5490 C   0  0  2  0  0  3  0  0  0  0  0  0
  162.8050  207.2650  147.4970 O   0  0  0  0  0  0  0  0  0  0  0  0
  162.2990  204.3840  146.1550 C   0  0  1  0  0  3  0  0  0  0  0  0
  160.9590  206.5710  146.0240 C   0  0  0  0  0  0  0  0  0  0  0  0
  161.4490  207.2430  147.2060 N   0  0  0  0  0  0  0  0  0  0  0  0
  161.8110  204.4530  147.5900 C   0  0  2  0  0  3  0  0  0  0  0  0
  161.6880  202.9860  146.0210 C   0  0  2  0  0  3  0  0  0  0  0  0
  159.9990  201.4510  148.8220 C   0  0  0  0  0  1  0  0  0  0  0  0
  160.0490  202.7180  147.9990 C   0  0  0  0  0  2  0  0  0  0  0  0
  161.2860  205.2180  144.0490 O   0  0  0  0  0  0  0  0  0  0  0  0
  161.4840  206.9260  142.5110 O   0  0  0  0  0  0  0  0  0  0  0  0
  162.1090  205.7930  143.0710 C   0  0  2  0  0  3  0  0  0  0  0  0
  161.4240  205.7350  141.7590 C   0  0  2  0  0  3  0  0  0  0  0  0
  162.2990  207.0680  140.2190 C   0  0  0  0  0  1  0  0  0  0  0  0
  162.3790  205.7730  140.7410 O   0  0  0  0  0  0  0  0  0  0  0  0
  1  7  1  0  0  0  0
  1  2  1  0  0  0  0
  2 46  1  6  0  0  0
  2 12  1  0  0  0  0
  3 10  1  6  0  0  0
  3  6  1  0  0  0  0
  3  4  1  0  0  0  0
  4  5  1  6  0  0  0
  4  2  1  0  0  0  0
  6  7  1  0  0  0  0
  8 10  2  0  0  0  0
  9 10  1  0  0  0  0
 11 13  2  0  0  0  0
 12 11  1  0  0  0  0
 14 11  1  0  0  0  0
 14 16  1  0  0  0  0
 15 21  1  0  0  0  0
 16 19  2  0  0  0  0
 17 16  1  0  0  0  0
 17 15  2  0  0  0  0
 18 17  1  0  0  0  0
 19 20  1  0  0  0  0
 20 22  1  0  0  0  0
 21 20  2  0  0  0  0
 22 23  1  0  0  0  0
 23 24  1  6  0  0  0
 23 26  1  0  0  0  0
 25 26  1  0  0  0  0
 26 28  1  0  0  0  0
 26 27  1  0  0  0  0
 28 33  1  0  0  0  0
 30 31  1  0  0  0  0
 30 32  1  0  0  0  0
 30 28  1  0  0  0  0
 31 32  1  0  0  0  0
 31 29  1  0  0  0  0
 32 28  1  0  0  0  0
 34 31  1  0  0  0  0
 35 34  1  0  0  0  0
 36 38  1  0  0  0  0
 38 35  1  0  0  0  0
 38 37  1  0  0  0  0
 39 40  1  0  0  0  0
 39 35  1  0  0  0  0
 40 41  2  0  0  0  0
 42 40  1  0  0  0  0
 42 44  1  0  0  0  0
 43 42  1  0  0  0  0
 43 44  1  0  0  0  0
 45 46  2  0  0  0  0
 46 47  1  0  0  0  0
 48 47  1  0  0  0  0
 50 58  1  0  0  0  0
 50 57  1  0  0  0  0
 51 61  1  0  0  0  0
 52 53  2  0  0  0  0
 52 49  1  0  0  0  0
 54 58  2  0  0  0  0
 55 60  1  0  0  0  0
 55 63  1  0  0  0  0
 56 52  1  0  0  0  0
 57 60  1  0  0  0  0
 58 59  1  0  0  0  0
 59 56  1  0  0  0  0
 59 48  1  0  0  0  0
 60 49  1  0  0  0  0
 61 57  1  0  0  0  0
 61 55  1  0  0  0  0
 63 62  1  0  0  0  0
 64 50  1  0  0  0  0
 65 66  1  0  0  0  0
 66 64  1  0  0  0  0
 67 65  1  0  0  0  0
 67 66  1  0  0  0  0
 68 69  1  0  0  0  0
 69 67  1  0  0  0  0
M  END
>  <MODEL>
3

>  <REMARK>
 VINA RESULT:       1.6      2.938     12.134
  Name = 
  21 active torsions:
  status: ('A' for Active; 'I' for Inactive)
    1  A    between atoms: C_2  and  C_52
    2  A    between atoms: N_3  and  C_42
    3  A    between atoms: C_5  and  C_35
    4  A    between atoms: C_5  and  C_42
    5  A    between atoms: C_6  and  C_33
    6  A    between atoms: C_6  and  N_59
    7  A    between atoms: C_7  and  N_24
    8  A    between atoms: C_7  and  C_43
    9  A    between atoms: C_9  and  C_22
   10  A    between atoms: C_13  and  C_21
   11  A    between atoms: C_15  and  C_16
   12  A    between atoms: C_15  and  C_62
   13  A    between atoms: C_16  and  C_52
   14  A    between atoms: C_17  and  C_21
   15  A    between atoms: C_18  and  C_63
   16  A    between atoms: C_19  and  O_45
   17  A    between atoms: C_20  and  O_45
   18  A    between atoms: C_33  and  C_43
   19  A    between atoms: C_42  and  C_50
   20  A    between atoms: C_46  and  C_67
   21  A    between atoms: O_64  and  C_69
                            x       y       z     vdW  Elec       q    Type
                         _______ _______ _______ _____ _____    ______ ____

>  <TORSDO>
F 21

$$$$
=
 OpenBabel11072410063D

 69 76  0  0  1  0  0  0  0  0999 V2000
  159.8280  206.7000  150.5970 C   0  0  0  0  0  2  0  0  0  0  0  0
  161.0000  206.5090  151.5810 C   0  0  2  0  0  0  0  0  0  0  0  0
  162.2620  207.3270  149.4210 C   0  0  1  0  0  3  0  0  0  0  0  0
  162.3300  206.5850  150.7670 C   0  0  1  0  0  3  0  0  0  0  0  0
  163.4770  206.9060  151.4950 O   0  0  0  0  0  1  0  0  0  0  0  0
  161.0750  206.8530  148.5710 C   0  0  0  0  0  2  0  0  0  0  0  0
  160.1050  206.0500  149.3200 N   0  0  0  0  0  2  0  0  0  0  0  0
  162.7550  209.4220  150.7110 O   0  0  0  0  0  1  0  0  0  0  0  0
  161.7330  209.5250  148.6660 O   0  0  0  0  0  0  0  0  0  0  0  0
  162.2380  208.8160  149.5740 C   0  0  0  0  0  0  0  0  0  0  0  0
  161.3420  203.9300  151.5610 C   0  0  0  0  0  0  0  0  0  0  0  0
  160.8690  205.1580  152.1330 N   0  0  0  0  0  2  0  0  0  0  0  0
  160.9710  202.8390  152.0700 O   0  0  0  0  0  0  0  0  0  0  0  0
  162.2180  203.9170  150.3460 C   0  0  0  0  0  2  0  0  0  0  0  0
  160.1580  201.4180  148.3400 C   0  0  0  0  0  3  0  0  0  0  0  0
  161.6120  203.1530  149.2100 C   0  0  0  0  0  0  0  0  0  0  0  0
  160.7190  202.0890  149.4290 C   0  0  0  0  0  0  0  0  0  0  0  0
  160.3740  201.7010  150.7200 O   0  0  0  0  0  1  0  0  0  0  0  0
  161.9550  203.5140  147.9020 C   0  0  0  0  0  3  0  0  0  0  0  0
  161.4140  202.8280  146.8110 C   0  0  0  0  0  0  0  0  0  0  0  0
  160.4990  201.7890  147.0350 C   0  0  0  0  0  3  0  0  0  0  0  0
  161.7870  203.2650  145.4280 C   0  0  0  0  0  2  0  0  0  0  0  0
  160.8070  204.2880  144.8540 C   0  0  1  0  0  3  0  0  0  0  0  0
  159.6940  204.3730  145.6940 O   0  0  0  0  0  1  0  0  0  0  0  0
  160.3740  206.7620  144.6640 C   0  0  0  0  0  1  0  0  0  0  0  0
  161.4400  205.6770  144.6190 C   0  0  0  0  0  0  0  0  0  0  0  0
  162.4450  205.9690  145.7330 C   0  0  0  0  0  1  0  0  0  0  0  0
  162.1180  205.7000  143.2250 C   0  0  1  0  0  0  0  0  0  0  0  0
  163.0430  206.2490  140.3340 O   0  0  0  0  0  1  0  0  0  0  0  0
  161.2700  205.7700  141.9710 C   0  0  2  0  0  3  0  0  0  0  0  0
  161.8930  206.7190  140.9730 C   0  0  1  0  0  0  0  0  0  0  0  0
  162.0730  206.9980  142.4460 C   0  0  2  0  0  3  0  0  0  0  0  0
  163.3170  204.9980  143.0630 O   0  0  0  0  0  1  0  0  0  0  0  0
  160.9830  207.6800  140.2260 C   0  0  0  0  0  2  0  0  0  0  0  0
  161.6990  208.9980  139.9250 C   0  0  1  0  0  3  0  0  0  0  0  0
  162.8110  209.9300  137.9990 O   0  0  0  0  0  1  0  0  0  0  0  0
  160.4600  210.3090  138.1760 C   0  0  0  0  0  1  0  0  0  0  0  0
  161.6150  209.3600  138.4430 C   0  0  2  0  0  3  0  0  0  0  0  0
  161.1390  210.0740  140.7320 N   0  0  0  0  0  2  0  0  0  0  0  0
  161.9190  211.2010  141.1370 C   0  0  0  0  0  0  0  0  0  0  0  0
  163.1400  211.2770  140.8280 O   0  0  0  0  0  0  0  0  0  0  0  0
  161.3060  212.2540  142.0050 C   0  0  0  0  0  3  0  0  0  0  0  0
  159.9770  212.7010  141.4200 C   0  0  0  0  0  2  0  0  0  0  0  0
  161.2060  213.5660  141.2440 C   0  0  0  0  0  2  0  0  0  0  0  0
  161.0640  207.1860  153.9680 C   0  0  0  0  0  2  0  0  0  0  0  0
  160.8380  207.5500  152.7000 C   0  0  0  0  0  0  0  0  0  0  0  0
  160.6900  209.0210  152.4360 C   0  0  0  0  0  2  0  0  0  0  0  0
  159.3070  209.5210  152.8180 C   0  0  0  0  0  2  0  0  0  0  0  0
  157.9610  213.4360  152.6800 C   0  0  0  0  0  2  0  0  0  0  0  0
  159.5010  212.2570  155.5720 C   0  0  2  0  0  3  0  0  0  0  0  0
  157.0460  212.8830  156.9830 O   0  0  0  0  0  1  0  0  0  0  0  0
  159.3740  213.0410  152.3180 C   0  0  0  0  0  0  0  0  0  0  0  0
  160.0630  213.8790  151.5600 C   0  0  0  0  0  2  0  0  0  0  0  0
  158.9890  209.9230  155.5720 O   0  0  0  0  0  0  0  0  0  0  0  0
  156.4240  213.6260  154.7490 C   0  0  2  0  0  3  0  0  0  0  0  0
  160.0020  211.8390  152.7060 O   0  0  0  0  0  0  0  0  0  0  0  0
  158.5200  213.3670  155.1190 C   0  0  1  0  0  3  0  0  0  0  0  0
  159.3010  210.9330  154.8850 C   0  0  0  0  0  0  0  0  0  0  0  0
  159.4000  210.8320  153.4460 N   0  0  0  0  0  0  0  0  0  0  0  0
  157.5570  212.9090  154.0400 C   0  0  2  0  0  3  0  0  0  0  0  0
  157.3340  213.8170  155.9780 C   0  0  2  0  0  3  0  0  0  0  0  0
  155.6600  211.2680  154.6660 C   0  0  0  0  0  1  0  0  0  0  0  0
  155.2400  212.6880  154.9710 C   0  0  0  0  0  2  0  0  0  0  0  0
  159.6080  212.1190  156.9670 O   0  0  0  0  0  0  0  0  0  0  0  0
  161.7330  212.3260  156.0930 O   0  0  0  0  0  0  0  0  0  0  0  0
  160.9790  212.0930  157.2610 C   0  0  2  0  0  3  0  0  0  0  0  0
  161.6190  210.9850  156.5160 C   0  0  2  0  0  3  0  0  0  0  0  0
  162.7090  209.2060  157.2610 C   0  0  0  0  0  1  0  0  0  0  0  0
  162.7850  210.6000  157.1790 O   0  0  0  0  0  0  0  0  0  0  0  0
  1  2  1  0  0  0  0
  2 12  1  1  0  0  0
  2 46  1  0  0  0  0
  3 10  1  1  0  0  0
  3  4  1  0  0  0  0
  4  5  1  1  0  0  0
  4  2  1  0  0  0  0
  6  7  1  0  0  0  0
  6  3  1  0  0  0  0
  7  1  1  0  0  0  0
  9 10  2  0  0  0  0
 10  8  1  0  0  0  0
 11 13  2  0  0  0  0
 11 12  1  0  0  0  0
 14 11  1  0  0  0  0
 15 17  1  0  0  0  0
 16 17  2  0  0  0  0
 16 14  1  0  0  0  0
 17 18  1  0  0  0  0
 19 16  1  0  0  0  0
 20 21  1  0  0  0  0
 20 19  2  0  0  0  0
 21 15  2  0  0  0  0
 22 20  1  0  0  0  0
 23 22  1  0  0  0  0
 23 24  1  1  0  0  0
 26 25  1  0  0  0  0
 26 23  1  0  0  0  0
 26 27  1  0  0  0  0
 28 26  1  0  0  0  0
 29 31  1  0  0  0  0
 30 32  1  0  0  0  0
 30 28  1  0  0  0  0
 31 30  1  0  0  0  0
 31 32  1  0  0  0  0
 32 28  1  0  0  0  0
 33 28  1  0  0  0  0
 34 31  1  0  0  0  0
 35 34  1  0  0  0  0
 35 39  1  0  0  0  0
 36 38  1  0  0  0  0
 37 38  1  0  0  0  0
 38 35  1  0  0  0  0
 39 40  1  0  0  0  0
 40 42  1  0  0  0  0
 41 40  2  0  0  0  0
 43 42  1  0  0  0  0
 44 43  1  0  0  0  0
 44 42  1  0  0  0  0
 46 45  2  0  0  0  0
 47 46  1  0  0  0  0
 47 48  1  0  0  0  0
 48 59  1  0  0  0  0
 49 60  1  0  0  0  0
 50 64  1  0  0  0  0
 52 49  1  0  0  0  0
 52 56  1  0  0  0  0
 53 52  2  0  0  0  0
 55 63  1  0  0  0  0
 55 61  1  0  0  0  0
 56 59  1  0  0  0  0
 57 50  1  0  0  0  0
 57 61  1  0  0  0  0
 58 54  2  0  0  0  0
 58 50  1  0  0  0  0
 59 58  1  0  0  0  0
 60 55  1  0  0  0  0
 60 57  1  0  0  0  0
 61 51  1  0  0  0  0
 62 63  1  0  0  0  0
 64 66  1  0  0  0  0
 65 67  1  0  0  0  0
 65 66  1  0  0  0  0
 67 69  1  0  0  0  0
 67 66  1  0  0  0  0
 69 68  1  0  0  0  0
M  END
>  <MODEL>
4

>  <REMARK>
 VINA RESULT:       1.9      1.413      2.807
  Name = 
  21 active torsions:
  status: ('A' for Active; 'I' for Inactive)
    1  A    between atoms: C_2  and  C_52
    2  A    between atoms: N_3  and  C_42
    3  A    between atoms: C_5  and  C_35
    4  A    between atoms: C_5  and  C_42
    5  A    between atoms: C_6  and  C_33
    6  A    between atoms: C_6  and  N_59
    7  A    between atoms: C_7  and  N_24
    8  A    between atoms: C_7  and  C_43
    9  A    between atoms: C_9  and  C_22
   10  A    between atoms: C_13  and  C_21
   11  A    between atoms: C_15  and  C_16
   12  A    between atoms: C_15  and  C_62
   13  A    between atoms: C_16  and  C_52
   14  A    between atoms: C_17  and  C_21
   15  A    between atoms: C_18  and  C_63
   16  A    between atoms: C_19  and  O_45
   17  A    between atoms: C_20  and  O_45
   18  A    between atoms: C_33  and  C_43
   19  A    between atoms: C_42  and  C_50
   20  A    between atoms: C_46  and  C_67
   21  A    between atoms: O_64  and  C_69
                            x       y       z     vdW  Elec       q    Type
                         _______ _______ _______ _____ _____    ______ ____

>  <TORSDO>
F 21

$$$$
