=
 OpenBabel11072415243D

 25 27  0  0  1  0  0  0  0  0999 V2000
  162.0030  208.1060  149.7950 N   0  0  0  0  0  2  0  0  0  0  0  0
  161.8010  206.6760  147.7640 N   0  0  0  0  0  0  0  0  0  0  0  0
  160.9910  207.4620  150.5800 C   0  0  0  0  0  0  0  0  0  0  0  0
  160.0230  206.8910  150.0090 O   0  0  0  0  0  0  0  0  0  0  0  0
  161.1290  205.3380  147.7510 C   0  0  1  0  0  3  0  0  0  0  0  0
  161.7060  205.7850  146.5660 C   0  0  2  0  0  3  0  0  0  0  0  0
  162.9640  208.6810  147.7620 O   0  0  0  0  0  0  0  0  0  0  0  0
  162.2640  207.8610  148.4100 C   0  0  0  0  0  0  0  0  0  0  0  0
  160.8470  208.6770  152.8110 C   0  0  0  0  0  0  0  0  0  0  0  0
  160.5920  209.8960  152.1940 O   0  0  0  0  0  1  0  0  0  0  0  0
  161.2040  207.4110  156.2640 O   0  0  0  0  0  1  0  0  0  0  0  0
  161.1530  207.4370  154.8760 C   0  0  0  0  0  0  0  0  0  0  0  0
  161.3590  206.2650  154.1460 C   0  0  0  0  0  3  0  0  0  0  0  0
  161.3060  206.2950  152.7490 C   0  0  0  0  0  3  0  0  0  0  0  0
  161.0450  207.4930  152.0610 C   0  0  0  0  0  0  0  0  0  0  0  0
  160.9040  208.6380  154.2090 C   0  0  0  0  0  3  0  0  0  0  0  0
  163.0640  205.2270  146.2480 C   0  0  0  0  0  3  0  0  0  0  0  0
  163.1860  204.3740  145.3840 O   0  0  0  0  0  0  0  0  0  0  0  0
  161.9110  204.4220  148.4710 O   0  0  0  0  0  0  0  0  0  0  0  0
  160.6480  201.1760  150.6070 O   0  0  0  0  0  0  0  0  0  0  0  0
  160.5090  202.4120  151.2670 C   0  0  0  0  0  2  0  0  0  0  0  0
  160.9900  203.6150  149.1440 C   0  0  0  0  0  3  0  0  0  0  0  0
  161.4080  203.4580  150.6070 C   0  0  0  0  0  2  0  0  0  0  0  0
  160.0520  201.3200  149.3400 C   0  0  0  0  0  2  0  0  0  0  0  0
  160.9000  202.2480  148.4670 C   0  0  0  0  0  2  0  0  0  0  0  0
  1  3  1  0  0  0  0
  2  8  1  0  0  0  0
  3 15  1  0  0  0  0
  4  3  2  0  0  0  0
  5  2  1  0  0  0  0
  5 19  1  1  0  0  0
  6 17  1  1  0  0  0
  6  5  1  0  0  0  0
  6  2  1  0  0  0  0
  7  8  2  0  0  0  0
  8  1  1  0  0  0  0
  9 16  1  0  0  0  0
 10  9  1  0  0  0  0
 12 11  1  0  0  0  0
 13 12  1  0  0  0  0
 14 13  2  0  0  0  0
 15 14  1  0  0  0  0
 15  9  2  0  0  0  0
 16 12  2  0  0  0  0
 18 17  2  0  0  0  0
 19 22  1  0  0  0  0
 20 21  1  0  0  0  0
 22 23  1  0  0  0  0
 23 21  1  0  0  0  0
 24 20  1  0  0  0  0
 25 22  1  0  0  0  0
 25 24  1  0  0  0  0
M  END
>  <MODEL>
1

>  <REMARK>
 VINA RESULT:      -6.9      0.000      0.000
  Name = 
  4 active torsions:
  status: ('A' for Active; 'I' for Inactive)
    1  A    between atoms: C_4  and  O_13
    2  A    between atoms: C_7  and  C_24
    3  A    between atoms: C_9  and  C_14
    4  A    between atoms: C_12  and  O_13
                            x       y       z     vdW  Elec       q    Type
                         _______ _______ _______ _____ _____    ______ ____

>  <TORSDO>
F 4

$$$$
=
 OpenBabel11072415243D

 25 27  0  0  1  0  0  0  0  0999 V2000
  161.6350  207.3610  149.5210 N   0  0  0  0  0  2  0  0  0  0  0  0
  161.8480  209.3470  151.0120 N   0  0  0  0  0  0  0  0  0  0  0  0
  162.0370  206.3680  150.4720 C   0  0  0  0  0  0  0  0  0  0  0  0
  162.8270  206.6760  151.4050 O   0  0  0  0  0  0  0  0  0  0  0  0
  161.9160  209.2640  152.5050 C   0  0  1  0  0  3  0  0  0  0  0  0
  161.9340  210.5290  151.9260 C   0  0  2  0  0  3  0  0  0  0  0  0
  161.6150  209.5380  148.7140 O   0  0  0  0  0  0  0  0  0  0  0  0
  161.7170  208.7780  149.7110 C   0  0  0  0  0  0  0  0  0  0  0  0
  161.2430  204.3730  149.1070 C   0  0  0  0  0  0  0  0  0  0  0  0
  161.3400  205.0790  147.9140 O   0  0  0  0  0  1  0  0  0  0  0  0
  160.2770  200.9680  150.1680 O   0  0  0  0  0  1  0  0  0  0  0  0
  160.7030  202.2880  150.2290 C   0  0  0  0  0  0  0  0  0  0  0  0
  161.0130  202.8670  151.4610 C   0  0  0  0  0  3  0  0  0  0  0  0
  161.4410  204.1970  151.5200 C   0  0  0  0  0  3  0  0  0  0  0  0
  161.5690  204.9660  150.3500 C   0  0  0  0  0  0  0  0  0  0  0  0
  160.8120  203.0420  149.0590 C   0  0  0  0  0  3  0  0  0  0  0  0
  160.6240  211.2630  151.9190 C   0  0  0  0  0  3  0  0  0  0  0  0
  160.3950  212.1100  152.7670 O   0  0  0  0  0  0  0  0  0  0  0  0
  160.6660  208.8670  153.0040 O   0  0  0  0  0  0  0  0  0  0  0  0
  159.6610  207.7490  156.8030 O   0  0  0  0  0  0  0  0  0  0  0  0
  160.5930  206.9090  156.1630 C   0  0  0  0  0  2  0  0  0  0  0  0
  160.8880  208.5900  154.3550 C   0  0  0  0  0  3  0  0  0  0  0  0
  160.5410  207.1310  154.6510 C   0  0  0  0  0  2  0  0  0  0  0  0
  160.1470  209.0650  156.6810 C   0  0  0  0  0  2  0  0  0  0  0  0
  160.0490  209.5240  155.2250 C   0  0  0  0  0  2  0  0  0  0  0  0
  1  8  1  0  0  0  0
  1  3  1  0  0  0  0
  2  6  1  0  0  0  0
  2  5  1  0  0  0  0
  3  4  2  0  0  0  0
  5 19  1  1  0  0  0
  6 17  1  1  0  0  0
  6  5  1  0  0  0  0
  7  8  2  0  0  0  0
  8  2  1  0  0  0  0
  9 15  1  0  0  0  0
 10  9  1  0  0  0  0
 11 12  1  0  0  0  0
 12 13  2  0  0  0  0
 13 14  1  0  0  0  0
 15  3  1  0  0  0  0
 15 14  2  0  0  0  0
 16  9  2  0  0  0  0
 16 12  1  0  0  0  0
 17 18  2  0  0  0  0
 19 22  1  0  0  0  0
 21 20  1  0  0  0  0
 22 23  1  0  0  0  0
 22 25  1  0  0  0  0
 23 21  1  0  0  0  0
 24 20  1  0  0  0  0
 25 24  1  0  0  0  0
M  END
>  <MODEL>
2

>  <REMARK>
 VINA RESULT:      -6.8      1.792      6.580
  Name = 
  4 active torsions:
  status: ('A' for Active; 'I' for Inactive)
    1  A    between atoms: C_4  and  O_13
    2  A    between atoms: C_7  and  C_24
    3  A    between atoms: C_9  and  C_14
    4  A    between atoms: C_12  and  O_13
                            x       y       z     vdW  Elec       q    Type
                         _______ _______ _______ _____ _____    ______ ____

>  <TORSDO>
F 4

$$$$
=
 OpenBabel11072415243D

 25 27  0  0  1  0  0  0  0  0999 V2000
  161.6130  207.3380  149.4740 N   0  0  0  0  0  2  0  0  0  0  0  0
  161.8650  209.3050  150.9820 N   0  0  0  0  0  0  0  0  0  0  0  0
  162.0010  206.3280  150.4140 C   0  0  0  0  0  0  0  0  0  0  0  0
  162.7980  206.6140  151.3480 O   0  0  0  0  0  0  0  0  0  0  0  0
  161.9360  209.2070  152.4750 C   0  0  1  0  0  3  0  0  0  0  0  0
  161.9730  210.4770  151.9070 C   0  0  2  0  0  3  0  0  0  0  0  0
  161.6280  209.5220  148.6870 O   0  0  0  0  0  0  0  0  0  0  0  0
  161.7200  208.7510  149.6760 C   0  0  0  0  0  0  0  0  0  0  0  0
  161.1850  204.1280  151.3970 C   0  0  0  0  0  0  0  0  0  0  0  0
  161.3190  204.5950  152.6990 O   0  0  0  0  0  1  0  0  0  0  0  0
  160.0930  201.0130  149.7350 O   0  0  0  0  0  1  0  0  0  0  0  0
  160.5610  202.3090  149.9140 C   0  0  0  0  0  0  0  0  0  0  0  0
  160.8840  203.0950  148.8080 C   0  0  0  0  0  3  0  0  0  0  0  0
  161.3550  204.3990  148.9910 C   0  0  0  0  0  3  0  0  0  0  0  0
  161.5070  204.9370  150.2810 C   0  0  0  0  0  0  0  0  0  0  0  0
  160.7180  202.8230  151.2030 C   0  0  0  0  0  3  0  0  0  0  0  0
  160.6760  211.2340  151.9100 C   0  0  0  0  0  3  0  0  0  0  0  0
  160.4690  212.0840  152.7600 O   0  0  0  0  0  0  0  0  0  0  0  0
  160.6790  208.8280  152.9730 O   0  0  0  0  0  0  0  0  0  0  0  0
  159.6280  207.8760  156.8040 O   0  0  0  0  0  0  0  0  0  0  0  0
  160.5380  206.9870  156.1990 C   0  0  0  0  0  2  0  0  0  0  0  0
  160.8880  208.5930  154.3340 C   0  0  0  0  0  3  0  0  0  0  0  0
  160.4980  207.1560  154.6800 C   0  0  0  0  0  2  0  0  0  0  0  0
  160.1520  209.1720  156.6380 C   0  0  0  0  0  2  0  0  0  0  0  0
  160.0730  209.5820  155.1660 C   0  0  0  0  0  2  0  0  0  0  0  0
  1  8  1  0  0  0  0
  1  3  1  0  0  0  0
  2  6  1  0  0  0  0
  2  5  1  0  0  0  0
  3  4  2  0  0  0  0
  5 19  1  1  0  0  0
  6 17  1  1  0  0  0
  6  5  1  0  0  0  0
  7  8  2  0  0  0  0
  8  2  1  0  0  0  0
  9 10  1  0  0  0  0
 11 12  1  0  0  0  0
 12 16  2  0  0  0  0
 13 14  2  0  0  0  0
 13 12  1  0  0  0  0
 14 15  1  0  0  0  0
 15  3  1  0  0  0  0
 15  9  2  0  0  0  0
 16  9  1  0  0  0  0
 17 18  2  0  0  0  0
 19 22  1  0  0  0  0
 21 20  1  0  0  0  0
 22 23  1  0  0  0  0
 22 25  1  0  0  0  0
 23 21  1  0  0  0  0
 24 20  1  0  0  0  0
 25 24  1  0  0  0  0
M  END
>  <MODEL>
3

>  <REMARK>
 VINA RESULT:      -6.8      2.194      6.587
  Name = 
  4 active torsions:
  status: ('A' for Active; 'I' for Inactive)
    1  A    between atoms: C_4  and  O_13
    2  A    between atoms: C_7  and  C_24
    3  A    between atoms: C_9  and  C_14
    4  A    between atoms: C_12  and  O_13
                            x       y       z     vdW  Elec       q    Type
                         _______ _______ _______ _____ _____    ______ ____

>  <TORSDO>
F 4

$$$$
=
 OpenBabel11072415243D

 25 27  0  0  1  0  0  0  0  0999 V2000
  161.9080  209.4490  150.7620 N   0  0  0  0  0  2  0  0  0  0  0  0
  161.4220  207.8690  148.8970 N   0  0  0  0  0  0  0  0  0  0  0  0
  161.0700  208.8380  151.7500 C   0  0  0  0  0  0  0  0  0  0  0  0
  160.0430  208.2000  151.3940 O   0  0  0  0  0  0  0  0  0  0  0  0
  160.8110  206.5150  149.0890 C   0  0  1  0  0  3  0  0  0  0  0  0
  161.1610  206.8900  147.7950 C   0  0  2  0  0  3  0  0  0  0  0  0
  162.4880  209.9000  148.5590 O   0  0  0  0  0  0  0  0  0  0  0  0
  161.9400  209.1100  149.3710 C   0  0  0  0  0  0  0  0  0  0  0  0
  161.2640  207.9040  154.1090 C   0  0  0  0  0  0  0  0  0  0  0  0
  160.8570  206.6380  153.7010 O   0  0  0  0  0  1  0  0  0  0  0  0
  162.2930  209.5340  157.2610 O   0  0  0  0  0  1  0  0  0  0  0  0
  161.9880  209.3520  155.9180 C   0  0  0  0  0  0  0  0  0  0  0  0
  162.0900  210.4210  155.0260 C   0  0  0  0  0  3  0  0  0  0  0  0
  161.7830  210.2350  153.6750 C   0  0  0  0  0  3  0  0  0  0  0  0
  161.3720  208.9790  153.1940 C   0  0  0  0  0  0  0  0  0  0  0  0
  161.5710  208.1010  155.4600 C   0  0  0  0  0  3  0  0  0  0  0  0
  162.4670  206.3480  147.2880 C   0  0  0  0  0  3  0  0  0  0  0  0
  162.4760  205.4000  146.5200 O   0  0  0  0  0  0  0  0  0  0  0  0
  161.7390  205.6770  149.7260 O   0  0  0  0  0  0  0  0  0  0  0  0
  161.0940  201.8070  150.8650 O   0  0  0  0  0  0  0  0  0  0  0  0
  160.8470  202.7690  151.8630 C   0  0  0  0  0  2  0  0  0  0  0  0
  160.9910  204.5830  150.1690 C   0  0  0  0  0  3  0  0  0  0  0  0
  161.5440  204.0820  151.5040 C   0  0  0  0  0  2  0  0  0  0  0  0
  160.3820  202.2150  149.7210 C   0  0  0  0  0  2  0  0  0  0  0  0
  161.0260  203.4680  149.1260 C   0  0  0  0  0  2  0  0  0  0  0  0
  1  3  1  0  0  0  0
  2  5  1  0  0  0  0
  2  8  1  0  0  0  0
  3 15  1  0  0  0  0
  4  3  2  0  0  0  0
  5 19  1  1  0  0  0
  6 17  1  1  0  0  0
  6  2  1  0  0  0  0
  6  5  1  0  0  0  0
  7  8  2  0  0  0  0
  8  1  1  0  0  0  0
  9 16  1  0  0  0  0
 10  9  1  0  0  0  0
 12 11  1  0  0  0  0
 13 12  1  0  0  0  0
 14 13  2  0  0  0  0
 15 14  1  0  0  0  0
 15  9  2  0  0  0  0
 16 12  2  0  0  0  0
 18 17  2  0  0  0  0
 19 22  1  0  0  0  0
 20 21  1  0  0  0  0
 22 23  1  0  0  0  0
 23 21  1  0  0  0  0
 24 20  1  0  0  0  0
 25 24  1  0  0  0  0
 25 22  1  0  0  0  0
M  END
>  <MODEL>
4

>  <REMARK>
 VINA RESULT:      -6.5      1.568      2.084
  Name = 
  4 active torsions:
  status: ('A' for Active; 'I' for Inactive)
    1  A    between atoms: C_4  and  O_13
    2  A    between atoms: C_7  and  C_24
    3  A    between atoms: C_9  and  C_14
    4  A    between atoms: C_12  and  O_13
                            x       y       z     vdW  Elec       q    Type
                         _______ _______ _______ _____ _____    ______ ____

>  <TORSDO>
F 4

$$$$
=
 OpenBabel11072415243D

 25 27  0  0  1  0  0  0  0  0999 V2000
  160.9640  205.4390  152.5730 N   0  0  0  0  0  2  0  0  0  0  0  0
  161.2720  203.8540  150.6750 N   0  0  0  0  0  0  0  0  0  0  0  0
  161.6950  206.5400  152.0190 C   0  0  0  0  0  0  0  0  0  0  0  0
  162.6350  206.3240  151.2080 O   0  0  0  0  0  0  0  0  0  0  0  0
  161.6940  204.2710  149.3010 C   0  0  1  0  0  3  0  0  0  0  0  0
  161.4220  202.9230  149.5120 C   0  0  2  0  0  3  0  0  0  0  0  0
  160.4910  203.1730  152.7490 O   0  0  0  0  0  0  0  0  0  0  0  0
  160.9140  204.1150  152.0310 C   0  0  0  0  0  0  0  0  0  0  0  0
  161.5210  209.0320  151.5360 C   0  0  0  0  0  0  0  0  0  0  0  0
  161.9610  208.8660  150.2280 O   0  0  0  0  0  1  0  0  0  0  0  0
  160.4450  211.8280  153.6990 O   0  0  0  0  0  1  0  0  0  0  0  0
  160.7560  210.5420  153.2770 C   0  0  0  0  0  0  0  0  0  0  0  0
  160.6290  209.4670  154.1580 C   0  0  0  0  0  3  0  0  0  0  0  0
  160.9430  208.1740  153.7320 C   0  0  0  0  0  3  0  0  0  0  0  0
  161.3860  207.9340  152.4190 C   0  0  0  0  0  0  0  0  0  0  0  0
  161.2070  210.3240  151.9740 C   0  0  0  0  0  3  0  0  0  0  0  0
  160.0660  202.4530  149.0700 C   0  0  0  0  0  3  0  0  0  0  0  0
  159.6740  201.3410  149.3850 O   0  0  0  0  0  0  0  0  0  0  0  0
  160.6510  204.9900  148.6960 O   0  0  0  0  0  0  0  0  0  0  0  0
  161.5810  205.1510  144.7210 O   0  0  0  0  0  0  0  0  0  0  0  0
  160.7680  206.2040  145.1840 C   0  0  0  0  0  2  0  0  0  0  0  0
  161.2120  205.5300  147.5360 C   0  0  0  0  0  3  0  0  0  0  0  0
  160.1140  205.8110  146.5100 C   0  0  0  0  0  2  0  0  0  0  0  0
  162.6890  205.0810  145.5870 C   0  0  0  0  0  2  0  0  0  0  0  0
  162.2470  204.5670  146.9580 C   0  0  0  0  0  2  0  0  0  0  0  0
  2  8  1  0  0  0  0
  3 15  1  0  0  0  0
  3  1  1  0  0  0  0
  4  3  2  0  0  0  0
  5 19  1  6  0  0  0
  5  6  1  0  0  0  0
  5  2  1  0  0  0  0
  6 17  1  6  0  0  0
  6  2  1  0  0  0  0
  8  1  1  0  0  0  0
  8  7  2  0  0  0  0
  9 16  2  0  0  0  0
  9 15  1  0  0  0  0
 10  9  1  0  0  0  0
 12 11  1  0  0  0  0
 12 13  2  0  0  0  0
 14 13  1  0  0  0  0
 15 14  2  0  0  0  0
 16 12  1  0  0  0  0
 17 18  2  0  0  0  0
 20 21  1  0  0  0  0
 20 24  1  0  0  0  0
 21 23  1  0  0  0  0
 22 19  1  0  0  0  0
 23 22  1  0  0  0  0
 24 25  1  0  0  0  0
 25 22  1  0  0  0  0
M  END
>  <MODEL>
5

>  <REMARK>
 VINA RESULT:      -6.3      2.152      4.333
  Name = 
  4 active torsions:
  status: ('A' for Active; 'I' for Inactive)
    1  A    between atoms: C_4  and  O_13
    2  A    between atoms: C_7  and  C_24
    3  A    between atoms: C_9  and  C_14
    4  A    between atoms: C_12  and  O_13
                            x       y       z     vdW  Elec       q    Type
                         _______ _______ _______ _____ _____    ______ ____

>  <TORSDO>
F 4

$$$$
=
 OpenBabel11072415243D

 25 27  0  0  1  0  0  0  0  0999 V2000
  160.6280  208.7250  154.6250 N   0  0  0  0  0  2  0  0  0  0  0  0
  161.5440  206.7990  153.3350 N   0  0  0  0  0  0  0  0  0  0  0  0
  160.8810  209.7430  153.6490 C   0  0  0  0  0  0  0  0  0  0  0  0
  161.8390  209.6120  152.8400 O   0  0  0  0  0  0  0  0  0  0  0  0
  161.7840  206.8250  151.8580 C   0  0  1  0  0  3  0  0  0  0  0  0
  162.0520  205.6400  152.5370 C   0  0  2  0  0  3  0  0  0  0  0  0
  161.0670  206.6640  155.6000 O   0  0  0  0  0  0  0  0  0  0  0  0
  161.0990  207.3750  154.5630 C   0  0  0  0  0  0  0  0  0  0  0  0
  160.0790  211.9530  154.6220 C   0  0  0  0  0  0  0  0  0  0  0  0
  160.8880  211.8170  155.7430 O   0  0  0  0  0  1  0  0  0  0  0  0
  157.6630  214.4200  153.3070 O   0  0  0  0  0  1  0  0  0  0  0  0
  158.4510  213.2810  153.4040 C   0  0  0  0  0  0  0  0  0  0  0  0
  158.4120  212.3150  152.3970 C   0  0  0  0  0  3  0  0  0  0  0  0
  159.2060  211.1690  152.4970 C   0  0  0  0  0  3  0  0  0  0  0  0
  160.0540  210.9720  153.6010 C   0  0  0  0  0  0  0  0  0  0  0  0
  159.2770  213.0950  154.5140 C   0  0  0  0  0  3  0  0  0  0  0  0
  160.9890  204.5830  152.4550 C   0  0  0  0  0  3  0  0  0  0  0  0
  161.2400  203.5030  151.9460 O   0  0  0  0  0  0  0  0  0  0  0  0
  160.5500  206.8480  151.1890 O   0  0  0  0  0  0  0  0  0  0  0  0
  162.4650  206.6770  147.5840 O   0  0  0  0  0  0  0  0  0  0  0  0
  161.0710  206.4870  147.5270 C   0  0  0  0  0  2  0  0  0  0  0  0
  160.8550  207.2440  149.8850 C   0  0  0  0  0  3  0  0  0  0  0  0
  160.5390  206.1100  148.9100 C   0  0  0  0  0  2  0  0  0  0  0  0
  162.6850  207.8590  148.3180 C   0  0  0  0  0  2  0  0  0  0  0  0
  162.3290  207.6340  149.7890 C   0  0  0  0  0  2  0  0  0  0  0  0
  2  8  1  0  0  0  0
  3  1  1  0  0  0  0
  4  3  2  0  0  0  0
  5 19  1  6  0  0  0
  5  6  1  0  0  0  0
  5  2  1  0  0  0  0
  6 17  1  6  0  0  0
  6  2  1  0  0  0  0
  8  1  1  0  0  0  0
  8  7  2  0  0  0  0
  9 10  1  0  0  0  0
 11 12  1  0  0  0  0
 12 16  2  0  0  0  0
 13 14  2  0  0  0  0
 13 12  1  0  0  0  0
 14 15  1  0  0  0  0
 15  3  1  0  0  0  0
 15  9  2  0  0  0  0
 16  9  1  0  0  0  0
 18 17  2  0  0  0  0
 20 24  1  0  0  0  0
 21 20  1  0  0  0  0
 21 23  1  0  0  0  0
 22 19  1  0  0  0  0
 23 22  1  0  0  0  0
 24 25  1  0  0  0  0
 25 22  1  0  0  0  0
M  END
>  <MODEL>
6

>  <REMARK>
 VINA RESULT:      -6.2      2.919      5.661
  Name = 
  4 active torsions:
  status: ('A' for Active; 'I' for Inactive)
    1  A    between atoms: C_4  and  O_13
    2  A    between atoms: C_7  and  C_24
    3  A    between atoms: C_9  and  C_14
    4  A    between atoms: C_12  and  O_13
                            x       y       z     vdW  Elec       q    Type
                         _______ _______ _______ _____ _____    ______ ____

>  <TORSDO>
F 4

$$$$
=
 OpenBabel11072415243D

 25 27  0  0  1  0  0  0  0  0999 V2000
  160.8790  205.1730  152.5710 N   0  0  0  0  0  2  0  0  0  0  0  0
  161.2410  203.7040  150.5910 N   0  0  0  0  0  0  0  0  0  0  0  0
  161.5940  206.3180  152.0900 C   0  0  0  0  0  0  0  0  0  0  0  0
  162.5480  206.1660  151.2800 O   0  0  0  0  0  0  0  0  0  0  0  0
  161.6710  204.2070  149.2480 C   0  0  1  0  0  3  0  0  0  0  0  0
  161.4230  202.8440  149.3800 C   0  0  2  0  0  3  0  0  0  0  0  0
  160.4490  202.8920  152.6130 O   0  0  0  0  0  0  0  0  0  0  0  0
  160.8610  203.8820  151.9540 C   0  0  0  0  0  0  0  0  0  0  0  0
  160.9440  207.9670  153.9150 C   0  0  0  0  0  0  0  0  0  0  0  0
  160.9400  206.9750  154.8880 O   0  0  0  0  0  1  0  0  0  0  0  0
  160.3290  211.6070  153.7550 O   0  0  0  0  0  1  0  0  0  0  0  0
  160.6330  210.3110  153.3600 C   0  0  0  0  0  0  0  0  0  0  0  0
  160.9270  210.0370  152.0230 C   0  0  0  0  0  3  0  0  0  0  0  0
  161.2320  208.7310  151.6290 C   0  0  0  0  0  3  0  0  0  0  0  0
  161.2530  207.6800  152.5630 C   0  0  0  0  0  0  0  0  0  0  0  0
  160.6370  209.2770  154.2990 C   0  0  0  0  0  3  0  0  0  0  0  0
  160.0830  202.3730  148.8940 C   0  0  0  0  0  3  0  0  0  0  0  0
  159.5700  201.3810  149.3860 O   0  0  0  0  0  0  0  0  0  0  0  0
  160.6210  204.9380  148.6710 O   0  0  0  0  0  0  0  0  0  0  0  0
  161.6070  205.2020  144.7140 O   0  0  0  0  0  0  0  0  0  0  0  0
  160.7380  206.2080  145.1790 C   0  0  0  0  0  2  0  0  0  0  0  0
  161.1750  205.5210  147.5280 C   0  0  0  0  0  3  0  0  0  0  0  0
  160.0820  205.7660  146.4880 C   0  0  0  0  0  2  0  0  0  0  0  0
  162.7030  205.1700  145.5980 C   0  0  0  0  0  2  0  0  0  0  0  0
  162.2630  204.6150  146.9540 C   0  0  0  0  0  2  0  0  0  0  0  0
  2  8  1  0  0  0  0
  3 15  1  0  0  0  0
  3  1  1  0  0  0  0
  4  3  2  0  0  0  0
  5 19  1  6  0  0  0
  5  6  1  0  0  0  0
  5  2  1  0  0  0  0
  6 17  1  6  0  0  0
  6  2  1  0  0  0  0
  8  1  1  0  0  0  0
  8  7  2  0  0  0  0
  9 16  1  0  0  0  0
  9 10  1  0  0  0  0
 12 11  1  0  0  0  0
 12 16  2  0  0  0  0
 13 12  1  0  0  0  0
 14 13  2  0  0  0  0
 14 15  1  0  0  0  0
 15  9  2  0  0  0  0
 17 18  2  0  0  0  0
 20 21  1  0  0  0  0
 20 24  1  0  0  0  0
 21 23  1  0  0  0  0
 22 19  1  0  0  0  0
 23 22  1  0  0  0  0
 24 25  1  0  0  0  0
 25 22  1  0  0  0  0
M  END
>  <MODEL>
7

>  <REMARK>
 VINA RESULT:      -6.1      2.021      4.404
  Name = 
  4 active torsions:
  status: ('A' for Active; 'I' for Inactive)
    1  A    between atoms: C_4  and  O_13
    2  A    between atoms: C_7  and  C_24
    3  A    between atoms: C_9  and  C_14
    4  A    between atoms: C_12  and  O_13
                            x       y       z     vdW  Elec       q    Type
                         _______ _______ _______ _____ _____    ______ ____

>  <TORSDO>
F 4

$$$$
=
 OpenBabel11072415243D

 25 27  0  0  1  0  0  0  0  0999 V2000
  161.8210  208.5650  147.9630 N   0  0  0  0  0  2  0  0  0  0  0  0
  162.1790  208.8520  150.4120 N   0  0  0  0  0  0  0  0  0  0  0  0
  162.2480  207.2000  147.8690 C   0  0  0  0  0  0  0  0  0  0  0  0
  163.0990  206.7520  148.6830 O   0  0  0  0  0  0  0  0  0  0  0  0
  162.3310  207.7120  151.3710 C   0  0  1  0  0  3  0  0  0  0  0  0
  162.3520  209.0030  151.8910 C   0  0  2  0  0  3  0  0  0  0  0  0
  161.8190  210.6470  148.9900 O   0  0  0  0  0  0  0  0  0  0  0  0
  161.9560  209.4030  149.1160 C   0  0  0  0  0  0  0  0  0  0  0  0
  162.4680  205.2200  146.2860 C   0  0  0  0  0  0  0  0  0  0  0  0
  163.7370  204.9100  146.7620 O   0  0  0  0  0  1  0  0  0  0  0  0
  160.1150  203.8820  143.7720 O   0  0  0  0  0  1  0  0  0  0  0  0
  160.6490  204.6860  144.7700 C   0  0  0  0  0  0  0  0  0  0  0  0
  159.9170  205.7690  145.2610 C   0  0  0  0  0  3  0  0  0  0  0  0
  160.4570  206.5780  146.2660 C   0  0  0  0  0  3  0  0  0  0  0  0
  161.7310  206.3160  146.7970 C   0  0  0  0  0  0  0  0  0  0  0  0
  161.9210  204.4190  145.2780 C   0  0  0  0  0  3  0  0  0  0  0  0
  161.0670  209.4850  152.4990 C   0  0  0  0  0  3  0  0  0  0  0  0
  160.9730  209.6070  153.7100 O   0  0  0  0  0  0  0  0  0  0  0  0
  161.0990  207.0510  151.5010 O   0  0  0  0  0  0  0  0  0  0  0  0
  160.2700  203.0780  151.0380 O   0  0  0  0  0  0  0  0  0  0  0  0
  160.6580  203.7450  149.8600 C   0  0  0  0  0  2  0  0  0  0  0  0
  161.3740  205.7160  151.1960 C   0  0  0  0  0  3  0  0  0  0  0  0
  160.4890  205.2550  150.0380 C   0  0  0  0  0  2  0  0  0  0  0  0
  161.2430  203.3710  152.0120 C   0  0  0  0  0  2  0  0  0  0  0  0
  161.1410  204.8400  152.4260 C   0  0  0  0  0  2  0  0  0  0  0  0
  1  8  1  0  0  0  0
  2  5  1  0  0  0  0
  2  6  1  0  0  0  0
  3  1  1  0  0  0  0
  3  4  2  0  0  0  0
  5 19  1  1  0  0  0
  5  6  1  0  0  0  0
  6 17  1  1  0  0  0
  7  8  2  0  0  0  0
  8  2  1  0  0  0  0
  9 10  1  0  0  0  0
  9 15  1  0  0  0  0
 11 12  1  0  0  0  0
 12 13  2  0  0  0  0
 12 16  1  0  0  0  0
 13 14  1  0  0  0  0
 14 15  2  0  0  0  0
 15  3  1  0  0  0  0
 16  9  2  0  0  0  0
 17 18  2  0  0  0  0
 20 24  1  0  0  0  0
 21 23  1  0  0  0  0
 21 20  1  0  0  0  0
 22 19  1  0  0  0  0
 22 25  1  0  0  0  0
 23 22  1  0  0  0  0
 24 25  1  0  0  0  0
M  END
>  <MODEL>
8

>  <REMARK>
 VINA RESULT:      -6.1      1.833      6.305
  Name = 
  4 active torsions:
  status: ('A' for Active; 'I' for Inactive)
    1  A    between atoms: C_4  and  O_13
    2  A    between atoms: C_7  and  C_24
    3  A    between atoms: C_9  and  C_14
    4  A    between atoms: C_12  and  O_13
                            x       y       z     vdW  Elec       q    Type
                         _______ _______ _______ _____ _____    ______ ____

>  <TORSDO>
F 4

$$$$
=
 OpenBabel11072415243D

 25 27  0  0  1  0  0  0  0  0999 V2000
  160.8860  208.2350  153.6380 N   0  0  0  0  0  2  0  0  0  0  0  0
  161.5710  206.0840  152.5820 N   0  0  0  0  0  0  0  0  0  0  0  0
  161.1450  209.0870  152.5150 C   0  0  0  0  0  0  0  0  0  0  0  0
  162.0340  208.7700  151.6790 O   0  0  0  0  0  0  0  0  0  0  0  0
  161.7110  205.8890  151.1040 C   0  0  1  0  0  3  0  0  0  0  0  0
  161.9390  204.7900  151.9260 C   0  0  2  0  0  3  0  0  0  0  0  0
  161.2410  206.2970  154.8660 O   0  0  0  0  0  0  0  0  0  0  0  0
  161.2540  206.8550  153.7390 C   0  0  0  0  0  0  0  0  0  0  0  0
  160.7380  211.3100  151.3470 C   0  0  0  0  0  0  0  0  0  0  0  0
  161.7920  211.1030  150.4640 O   0  0  0  0  0  1  0  0  0  0  0  0
  158.1960  213.9190  151.9660 O   0  0  0  0  0  1  0  0  0  0  0  0
  158.9260  212.7440  152.0920 C   0  0  0  0  0  0  0  0  0  0  0  0
  158.5960  211.8180  153.0830 C   0  0  0  0  0  3  0  0  0  0  0  0
  159.3330  210.6370  153.2070 C   0  0  0  0  0  3  0  0  0  0  0  0
  160.4060  210.3600  152.3430 C   0  0  0  0  0  0  0  0  0  0  0  0
  159.9970  212.4920  151.2330 C   0  0  0  0  0  3  0  0  0  0  0  0
  160.7990  203.8210  152.0550 C   0  0  0  0  0  3  0  0  0  0  0  0
  160.8880  202.7070  151.5660 O   0  0  0  0  0  0  0  0  0  0  0  0
  160.4400  205.9200  150.5110 O   0  0  0  0  0  0  0  0  0  0  0  0
  162.6340  205.7220  147.0700 O   0  0  0  0  0  0  0  0  0  0  0  0
  161.4920  204.8980  147.0950 C   0  0  0  0  0  2  0  0  0  0  0  0
  160.6840  206.0560  149.1420 C   0  0  0  0  0  3  0  0  0  0  0  0
  161.0290  204.6940  148.5380 C   0  0  0  0  0  2  0  0  0  0  0  0
  162.2120  207.0160  147.4310 C   0  0  0  0  0  2  0  0  0  0  0  0
  161.8250  207.0450  148.9110 C   0  0  0  0  0  2  0  0  0  0  0  0
  1  8  1  0  0  0  0
  2  8  1  0  0  0  0
  3  1  1  0  0  0  0
  4  3  2  0  0  0  0
  5 19  1  6  0  0  0
  5  6  1  0  0  0  0
  5  2  1  0  0  0  0
  6 17  1  6  0  0  0
  6  2  1  0  0  0  0
  8  7  2  0  0  0  0
  9 15  1  0  0  0  0
 10  9  1  0  0  0  0
 11 12  1  0  0  0  0
 12 13  2  0  0  0  0
 13 14  1  0  0  0  0
 15  3  1  0  0  0  0
 15 14  2  0  0  0  0
 16  9  2  0  0  0  0
 16 12  1  0  0  0  0
 18 17  2  0  0  0  0
 20 21  1  0  0  0  0
 20 24  1  0  0  0  0
 21 23  1  0  0  0  0
 22 19  1  0  0  0  0
 23 22  1  0  0  0  0
 24 25  1  0  0  0  0
 25 22  1  0  0  0  0
M  END
>  <MODEL>
9

>  <REMARK>
 VINA RESULT:      -5.9      2.536      5.073
  Name = 
  4 active torsions:
  status: ('A' for Active; 'I' for Inactive)
    1  A    between atoms: C_4  and  O_13
    2  A    between atoms: C_7  and  C_24
    3  A    between atoms: C_9  and  C_14
    4  A    between atoms: C_12  and  O_13
                            x       y       z     vdW  Elec       q    Type
                         _______ _______ _______ _____ _____    ______ ____

>  <TORSDO>
F 4

$$$$
