=
 OpenBabel11072410343D

 54 61  0  0  1  0  0  0  0  0999 V2000
  160.1820  204.9140  152.8140 C   0  0  1  0  0  3  0  0  0  0  0  0
  160.7920  205.5920  154.0080 C   0  0  2  0  0  3  0  0  0  0  0  0
  161.9660  207.2530  152.4560 C   0  0  1  0  0  3  0  0  0  0  0  0
  160.7280  205.2950  151.4160 C   0  0  1  0  0  3  0  0  0  0  0  0
  161.9900  206.5210  153.7910 C   0  0  0  0  0  2  0  0  0  0  0  0
  161.1680  204.2950  153.6050 O   0  0  0  0  0  0  0  0  0  0  0  0
  161.9660  206.2190  151.3370 C   0  0  1  0  0  3  0  0  0  0  0  0
  161.8880  204.7850  148.5050 C   0  0  0  0  0  3  0  0  0  0  0  0
  161.5760  208.2730  149.8330 C   0  0  2  0  0  3  0  0  0  0  0  0
  159.9920  206.3020  147.0750 C   0  0  0  0  0  3  0  0  0  0  0  0
  161.2140  204.2160  147.4150 C   0  0  0  0  0  0  0  0  0  0  0  0
  162.2130  206.8740  149.9640 C   0  0  2  0  0  3  0  0  0  0  0  0
  160.6750  206.8410  148.1660 C   0  0  0  0  0  0  0  0  0  0  0  0
  160.5670  208.2270  148.6710 C   0  0  0  0  0  2  0  0  0  0  0  0
  160.2630  204.9780  146.7020 C   0  0  0  0  0  3  0  0  0  0  0  0
  161.5910  206.1000  148.8690 C   0  0  0  0  0  0  0  0  0  0  0  0
  161.7660  200.0760  146.4690 C   0  0  0  0  0  2  0  0  0  0  0  0
  159.8470  200.1810  144.8590 C   0  0  0  0  0  1  0  0  0  0  0  0
  160.5860  202.2980  145.9390 C   0  0  0  0  0  2  0  0  0  0  0  0
  161.5720  201.8790  148.2410 C   0  0  0  0  0  2  0  0  0  0  0  0
  161.0410  200.9320  145.4170 C   0  0  1  0  0  3  0  0  0  0  0  0
  161.5360  202.8120  147.0200 C   0  0  2  0  0  3  0  0  0  0  0  0
  161.3010  200.4100  147.8860 C   0  0  0  0  0  2  0  0  0  0  0  0
  162.6530  209.3560  149.6730 C   0  0  2  0  0  3  0  0  0  0  0  0
  162.7440  210.3610  150.8240 C   0  0  0  0  0  2  0  0  0  0  0  0
  161.5130  211.2460  150.9350 C   0  0  0  0  0  1  0  0  0  0  0  0
  162.8790  209.9310  148.2650 C   0  0  0  0  0  2  0  0  0  0  0  0
  162.9790  211.4490  148.2330 C   0  0  0  0  0  2  0  0  0  0  0  0
  161.8170  213.4450  147.8590 C   0  0  0  0  0  2  0  0  0  0  0  0
  162.3480  212.9880  146.5810 C   0  0  0  0  0  2  0  0  0  0  0  0
  161.8270  212.0070  147.5460 N   0  0  0  0  0  0  0  0  0  0  0  0
  160.7470  204.2140  150.5070 O   0  0  0  0  0  0  0  0  0  0  0  0
  160.6580  203.0160  151.2310 C   0  0  0  0  0  1  0  0  0  0  0  0
  160.7940  208.2340  152.3630 C   0  0  0  0  0  2  0  0  0  0  0  0
  159.4570  212.0090  154.1060 C   0  0  2  0  0  3  0  0  0  0  0  0
  158.4310  211.1760  156.6580 O   0  0  0  0  0  1  0  0  0  0  0  0
  160.7160  208.1320  154.8520 C   0  0  0  0  0  2  0  0  0  0  0  0
  160.6960  209.0500  153.6350 C   0  0  1  0  0  3  0  0  0  0  0  0
  161.6820  211.0510  154.8170 C   0  0  0  0  0  3  0  0  0  0  0  0
  158.4200  210.8750  154.2150 C   0  0  0  0  0  2  0  0  0  0  0  0
  158.0480  210.3380  155.6060 C   0  0  1  0  0  3  0  0  0  0  0  0
  161.8050  210.1000  153.6610 C   0  0  0  0  0  2  0  0  0  0  0  0
  158.5160  208.8960  155.8260 C   0  0  0  0  0  2  0  0  0  0  0  0
  160.0210  208.7800  156.0470 C   0  0  0  0  0  2  0  0  0  0  0  0
  160.6550  211.8880  155.0130 C   0  0  0  0  0  3  0  0  0  0  0  0
  158.8110  213.3920  154.2130 C   0  0  1  0  0  0  0  0  0  0  0  0
  159.1280  214.1860  155.3190 O   0  0  0  0  0  1  0  0  0  0  0  0
  158.4780  214.1740  152.9480 C   0  0  2  0  0  3  0  0  0  0  0  0
  157.3680  213.4910  153.7430 C   0  0  2  0  0  3  0  0  0  0  0  0
  158.7210  213.3880  151.6660 C   0  0  0  0  0  2  0  0  0  0  0  0
  159.5370  214.4520  150.4400 S   0  0  0  0  0  1  0  0  0  0  0  0
  156.6650  214.4530  154.4720 O   0  0  0  0  0  0  0  0  0  0  0  0
  155.7860  213.0710  156.0550 O   0  0  0  0  0  1  0  0  0  0  0  0
  155.5110  213.7980  154.8940 C   0  0  0  0  0  2  0  0  0  0  0  0
  1  6  1  1  0  0  0
  1  2  1  0  0  0  0
  2  5  1  6  0  0  0
  3 34  1  1  0  0  0
  3  5  1  0  0  0  0
  4 32  1  1  0  0  0
  4  1  1  0  0  0  0
  6  2  1  0  0  0  0
  7 12  1  6  0  0  0
  7  4  1  0  0  0  0
  7  3  1  0  0  0  0
  8 16  1  0  0  0  0
  9 24  1  6  0  0  0
  9 12  1  0  0  0  0
 10 13  1  0  0  0  0
 11  8  2  0  0  0  0
 12 16  1  6  0  0  0
 13 14  1  0  0  0  0
 13 16  2  0  0  0  0
 14  9  1  0  0  0  0
 15 10  2  0  0  0  0
 15 11  1  0  0  0  0
 17 23  1  0  0  0  0
 19 22  1  0  0  0  0
 21 18  1  1  0  0  0
 21 19  1  0  0  0  0
 21 17  1  0  0  0  0
 22 11  1  1  0  0  0
 22 20  1  0  0  0  0
 23 20  1  0  0  0  0
 24 27  1  6  0  0  0
 24 25  1  0  0  0  0
 25 26  1  0  0  0  0
 28 27  1  0  0  0  0
 30 31  1  0  0  0  0
 30 29  1  0  0  0  0
 31 29  1  0  0  0  0
 31 28  1  0  0  0  0
 32 33  1  0  0  0  0
 35 46  1  0  0  0  0
 35 40  1  1  0  0  0
 35 45  1  0  0  0  0
 37 44  1  0  0  0  0
 38 34  1  6  0  0  0
 38 42  1  0  0  0  0
 38 37  1  0  0  0  0
 39 45  2  0  0  0  0
 40 41  1  0  0  0  0
 41 43  1  0  0  0  0
 41 36  1  1  0  0  0
 42 39  1  0  0  0  0
 43 44  1  0  0  0  0
 46 47  1  1  0  0  0
 48 50  1  6  0  0  0
 48 49  1  0  0  0  0
 48 46  1  0  0  0  0
 49 46  1  0  0  0  0
 49 52  1  1  0  0  0
 51 50  1  0  0  0  0
 52 54  1  0  0  0  0
 54 53  1  0  0  0  0
M  END
>  <MODEL>
1

>  <REMARK>
 VINA RESULT:      -1.1      0.000      0.000
  Name = 
  14 active torsions:
  status: ('A' for Active; 'I' for Inactive)
    1  A    between atoms: C_2  and  C_29
    2  A    between atoms: O_3  and  C_20
    3  A    between atoms: C_4  and  C_46
    4  A    between atoms: O_5  and  C_31
    5  A    between atoms: O_5  and  C_49
    6  A    between atoms: C_10  and  C_17
    7  A    between atoms: C_10  and  C_24
    8  A    between atoms: C_11  and  C_36
    9  A    between atoms: C_12  and  C_13
   10  A    between atoms: C_23  and  C_42
   11  A    between atoms: C_25  and  N_43
   12  A    between atoms: C_25  and  C_44
   13  A    between atoms: C_44  and  C_46
   14  A    between atoms: C_46  and  C_47
                            x       y       z     vdW  Elec       q    Type
                         _______ _______ _______ _____ _____    ______ ____

>  <TORSDO>
F 14

$$$$
=
 OpenBabel11072410343D

 54 61  0  0  1  0  0  0  0  0999 V2000
  161.7580  212.4990  147.5580 C   0  0  1  0  0  3  0  0  0  0  0  0
  162.8440  211.5910  148.0600 C   0  0  2  0  0  3  0  0  0  0  0  0
  161.4510  211.0900  150.1470 C   0  0  1  0  0  3  0  0  0  0  0  0
  160.6290  212.8810  148.5470 C   0  0  1  0  0  3  0  0  0  0  0  0
  162.8430  211.1950  149.5400 C   0  0  0  0  0  2  0  0  0  0  0  0
  163.0060  212.9880  147.9830 O   0  0  0  0  0  0  0  0  0  0  0  0
  160.7670  212.4440  150.0240 C   0  0  1  0  0  3  0  0  0  0  0  0
  160.3150  211.2580  152.9360 C   0  0  0  0  0  3  0  0  0  0  0  0
  158.7290  213.8470  150.7410 C   0  0  2  0  0  3  0  0  0  0  0  0
  159.4220  213.4940  154.4020 C   0  0  0  0  0  3  0  0  0  0  0  0
  160.4650  211.2870  154.3290 C   0  0  0  0  0  0  0  0  0  0  0  0
  159.4670  212.4960  150.8500 C   0  0  2  0  0  3  0  0  0  0  0  0
  159.2890  213.4390  153.0140 C   0  0  0  0  0  0  0  0  0  0  0  0
  158.6390  214.4520  152.1550 C   0  0  0  0  0  2  0  0  0  0  0  0
  160.0200  212.4090  155.0610 C   0  0  0  0  0  3  0  0  0  0  0  0
  159.7320  212.3560  152.2990 C   0  0  0  0  0  0  0  0  0  0  0  0
  162.1030  208.0880  156.6590 C   0  0  0  0  0  2  0  0  0  0  0  0
  159.7890  207.3320  157.2600 C   0  0  0  0  0  1  0  0  0  0  0  0
  160.0250  209.1950  155.6270 C   0  0  0  0  0  2  0  0  0  0  0  0
  162.1310  210.5480  156.0480 C   0  0  0  0  0  2  0  0  0  0  0  0
  160.6590  207.9080  156.1590 C   0  0  1  0  0  3  0  0  0  0  0  0
  161.0830  210.1110  155.0130 C   0  0  2  0  0  3  0  0  0  0  0  0
  162.3530  209.5110  157.1580 C   0  0  0  0  0  2  0  0  0  0  0  0
  157.3660  213.6770  150.0550 C   0  0  2  0  0  3  0  0  0  0  0  0
  156.2020  213.3450  150.9910 C   0  0  0  0  0  2  0  0  0  0  0  0
  154.9700  214.1960  150.7290 C   0  0  0  0  0  1  0  0  0  0  0  0
  157.3420  212.9790  148.6860 C   0  0  0  0  0  2  0  0  0  0  0  0
  157.1260  213.9300  147.5180 C   0  0  0  0  0  2  0  0  0  0  0  0
  157.2850  213.4590  145.2320 C   0  0  0  0  0  2  0  0  0  0  0  0
  157.3940  212.2010  145.9580 C   0  0  0  0  0  2  0  0  0  0  0  0
  156.4610  213.2350  146.4290 N   0  0  0  0  0  0  0  0  0  0  0  0
  160.1490  214.1970  148.3690 O   0  0  0  0  0  0  0  0  0  0  0  0
  160.0350  214.4530  146.9950 C   0  0  0  0  0  1  0  0  0  0  0  0
  160.6400  209.9510  149.5240 C   0  0  0  0  0  2  0  0  0  0  0  0
  161.6300  205.8660  150.7100 C   0  0  2  0  0  3  0  0  0  0  0  0
  162.1700  204.6080  148.1830 O   0  0  0  0  0  1  0  0  0  0  0  0
  162.0470  208.8030  147.8170 C   0  0  0  0  0  2  0  0  0  0  0  0
  161.5350  208.7600  149.2520 C   0  0  1  0  0  3  0  0  0  0  0  0
  163.5010  207.4750  150.1780 C   0  0  0  0  0  3  0  0  0  0  0  0
  160.6200  205.9460  149.5500 C   0  0  0  0  0  2  0  0  0  0  0  0
  161.0360  205.4250  148.1650 C   0  0  1  0  0  3  0  0  0  0  0  0
  162.6600  208.7150  150.2850 C   0  0  0  0  0  2  0  0  0  0  0  0
  161.1560  206.5440  147.1260 C   0  0  0  0  0  2  0  0  0  0  0  0
  162.4010  207.4060  147.3120 C   0  0  0  0  0  2  0  0  0  0  0  0
  163.0520  206.2270  150.3650 C   0  0  0  0  0  3  0  0  0  0  0  0
  161.5560  204.5270  151.4460 C   0  0  1  0  0  0  0  0  0  0  0  0
  162.6350  203.6470  151.3280 O   0  0  0  0  0  1  0  0  0  0  0  0
  160.8000  204.4270  152.7660 C   0  0  2  0  0  3  0  0  0  0  0  0
  160.1870  203.8640  151.4870 C   0  0  2  0  0  3  0  0  0  0  0  0
  160.0640  205.7060  153.1430 C   0  0  0  0  0  2  0  0  0  0  0  0
  161.2580  207.0570  153.3730 S   0  0  0  0  0  1  0  0  0  0  0  0
  160.3010  202.4720  151.4960 O   0  0  0  0  0  0  0  0  0  0  0  0
  160.7150  201.8520  149.3430 O   0  0  0  0  0  1  0  0  0  0  0  0
  159.7180  202.0660  150.2980 C   0  0  0  0  0  2  0  0  0  0  0  0
  1  6  1  1  0  0  0
  1  2  1  0  0  0  0
  1  4  1  0  0  0  0
  2  5  1  1  0  0  0
  3 34  1  6  0  0  0
  4 32  1  1  0  0  0
  4  7  1  0  0  0  0
  5  3  1  0  0  0  0
  6  2  1  0  0  0  0
  7  3  1  0  0  0  0
  7 12  1  6  0  0  0
  8 11  1  0  0  0  0
  9 24  1  1  0  0  0
  9 12  1  0  0  0  0
  9 14  1  0  0  0  0
 10 15  1  0  0  0  0
 11 15  2  0  0  0  0
 12 16  1  1  0  0  0
 13 10  2  0  0  0  0
 14 13  1  0  0  0  0
 16  8  2  0  0  0  0
 16 13  1  0  0  0  0
 17 23  1  0  0  0  0
 19 21  1  0  0  0  0
 20 23  1  0  0  0  0
 21 17  1  0  0  0  0
 21 18  1  1  0  0  0
 22 11  1  1  0  0  0
 22 19  1  0  0  0  0
 22 20  1  0  0  0  0
 24 27  1  6  0  0  0
 24 25  1  0  0  0  0
 26 25  1  0  0  0  0
 28 27  1  0  0  0  0
 29 30  1  0  0  0  0
 29 31  1  0  0  0  0
 30 31  1  0  0  0  0
 31 28  1  0  0  0  0
 33 32  1  0  0  0  0
 35 40  1  6  0  0  0
 35 46  1  0  0  0  0
 37 38  1  0  0  0  0
 38 34  1  1  0  0  0
 38 42  1  0  0  0  0
 39 42  1  0  0  0  0
 39 45  2  0  0  0  0
 41 36  1  1  0  0  0
 41 40  1  0  0  0  0
 43 44  1  0  0  0  0
 43 41  1  0  0  0  0
 44 37  1  0  0  0  0
 45 35  1  0  0  0  0
 46 47  1  6  0  0  0
 46 49  1  0  0  0  0
 46 48  1  0  0  0  0
 48 50  1  6  0  0  0
 49 52  1  1  0  0  0
 49 48  1  0  0  0  0
 50 51  1  0  0  0  0
 53 54  1  0  0  0  0
 54 52  1  0  0  0  0
M  END
>  <MODEL>
2

>  <REMARK>
 VINA RESULT:      -0.0      3.286      9.189
  Name = 
  14 active torsions:
  status: ('A' for Active; 'I' for Inactive)
    1  A    between atoms: C_2  and  C_29
    2  A    between atoms: O_3  and  C_20
    3  A    between atoms: C_4  and  C_46
    4  A    between atoms: O_5  and  C_31
    5  A    between atoms: O_5  and  C_49
    6  A    between atoms: C_10  and  C_17
    7  A    between atoms: C_10  and  C_24
    8  A    between atoms: C_11  and  C_36
    9  A    between atoms: C_12  and  C_13
   10  A    between atoms: C_23  and  C_42
   11  A    between atoms: C_25  and  N_43
   12  A    between atoms: C_25  and  C_44
   13  A    between atoms: C_44  and  C_46
   14  A    between atoms: C_46  and  C_47
                            x       y       z     vdW  Elec       q    Type
                         _______ _______ _______ _____ _____    ______ ____

>  <TORSDO>
F 14

$$$$
=
 OpenBabel11072410343D

 54 61  0  0  1  0  0  0  0  0999 V2000
  162.2990  208.8920  155.3440 C   0  0  1  0  0  3  0  0  0  0  0  0
  161.5600  207.6040  155.5700 C   0  0  2  0  0  3  0  0  0  0  0  0
  160.3890  207.8880  153.3130 C   0  0  1  0  0  3  0  0  0  0  0  0
  161.8300  209.7930  154.1750 C   0  0  1  0  0  3  0  0  0  0  0  0
  160.3200  207.3110  154.7200 C   0  0  0  0  0  2  0  0  0  0  0  0
  161.3040  208.7620  156.3300 O   0  0  0  0  0  0  0  0  0  0  0  0
  160.5410  209.3990  153.4160 C   0  0  1  0  0  3  0  0  0  0  0  0
  158.6750  211.8890  152.7760 C   0  0  0  0  0  3  0  0  0  0  0  0
  161.6590  210.2200  151.2470 C   0  0  2  0  0  3  0  0  0  0  0  0
  160.4610  213.7440  151.6310 C   0  0  0  0  0  3  0  0  0  0  0  0
  158.3730  213.2580  152.8000 C   0  0  0  0  0  0  0  0  0  0  0  0
  160.3480  210.0800  152.0480 C   0  0  2  0  0  3  0  0  0  0  0  0
  160.7360  212.3760  151.6250 C   0  0  0  0  0  0  0  0  0  0  0  0
  161.9030  211.7190  150.9970 C   0  0  0  0  0  2  0  0  0  0  0  0
  159.2700  214.1850  152.2280 C   0  0  0  0  0  3  0  0  0  0  0  0
  159.8730  211.4730  152.1910 C   0  0  0  0  0  0  0  0  0  0  0  0
  154.5390  214.1450  154.4880 C   0  0  0  0  0  2  0  0  0  0  0  0
  154.9680  212.5120  156.3410 C   0  0  0  0  0  1  0  0  0  0  0  0
  156.8110  212.9670  154.7310 C   0  0  0  0  0  2  0  0  0  0  0  0
  155.9160  213.5820  152.4360 C   0  0  0  0  0  2  0  0  0  0  0  0
  155.5940  213.5630  155.4430 C   0  0  1  0  0  3  0  0  0  0  0  0
  157.0890  213.7030  153.4210 C   0  0  2  0  0  3  0  0  0  0  0  0
  154.5550  213.4410  153.1320 C   0  0  0  0  0  2  0  0  0  0  0  0
  161.6130  209.3800  149.9620 C   0  0  2  0  0  3  0  0  0  0  0  0
  162.7100  208.3200  149.8360 C   0  0  0  0  0  2  0  0  0  0  0  0
  162.9090  207.8400  148.4070 C   0  0  0  0  0  1  0  0  0  0  0  0
  161.2220  210.0960  148.6590 C   0  0  0  0  0  2  0  0  0  0  0  0
  162.1510  211.2430  148.2900 C   0  0  0  0  0  2  0  0  0  0  0  0
  161.8260  212.8950  146.6650 C   0  0  0  0  0  2  0  0  0  0  0  0
  160.5930  212.1270  146.7780 C   0  0  0  0  0  2  0  0  0  0  0  0
  161.3750  212.4320  147.9860 N   0  0  0  0  0  0  0  0  0  0  0  0
  161.9500  211.1730  154.4470 O   0  0  0  0  0  0  0  0  0  0  0  0
  161.0820  211.5010  155.4990 C   0  0  0  0  0  1  0  0  0  0  0  0
  161.4940  207.2320  152.4800 C   0  0  0  0  0  2  0  0  0  0  0  0
  161.8490  205.0070  148.7380 C   0  0  2  0  0  3  0  0  0  0  0  0
  161.2530  202.3200  149.5650 O   0  0  0  0  0  1  0  0  0  0  0  0
  160.1820  205.1140  152.5310 C   0  0  0  0  0  2  0  0  0  0  0  0
  160.9190  206.1100  151.6420 C   0  0  1  0  0  3  0  0  0  0  0  0
  159.5530  205.6490  149.5690 C   0  0  0  0  0  3  0  0  0  0  0  0
  162.5920  204.3550  149.9200 C   0  0  0  0  0  2  0  0  0  0  0  0
  162.1060  202.9940  150.4440 C   0  0  1  0  0  3  0  0  0  0  0  0
  160.0370  206.6900  150.5380 C   0  0  0  0  0  2  0  0  0  0  0  0
  161.5190  203.0810  151.8550 C   0  0  0  0  0  2  0  0  0  0  0  0
  160.1370  203.7270  151.8920 C   0  0  0  0  0  2  0  0  0  0  0  0
  160.3460  204.9120  148.7800 C   0  0  0  0  0  3  0  0  0  0  0  0
  162.4020  204.5490  147.3870 C   0  0  1  0  0  0  0  0  0  0  0  0
  163.7500  204.7930  147.1080 O   0  0  0  0  0  1  0  0  0  0  0  0
  161.8320  203.3060  146.7160 C   0  0  2  0  0  3  0  0  0  0  0  0
  161.4630  204.6940  146.1990 C   0  0  2  0  0  3  0  0  0  0  0  0
  160.6320  202.7170  147.4450 C   0  0  0  0  0  2  0  0  0  0  0  0
  160.3860  200.9920  146.9300 S   0  0  0  0  0  1  0  0  0  0  0  0
  162.1740  204.9520  145.0240 O   0  0  0  0  0  0  0  0  0  0  0  0
  160.3110  206.2630  145.0200 O   0  0  0  0  0  1  0  0  0  0  0  0
  161.2770  205.6480  144.2190 C   0  0  0  0  0  2  0  0  0  0  0  0
  1  2  1  0  0  0  0
  1  6  1  1  0  0  0
  2  5  1  6  0  0  0
  2  6  1  0  0  0  0
  3 34  1  1  0  0  0
  3  7  1  0  0  0  0
  3  5  1  0  0  0  0
  4 32  1  1  0  0  0
  4  1  1  0  0  0  0
  7 12  1  6  0  0  0
  7  4  1  0  0  0  0
  8 11  1  0  0  0  0
  9 24  1  6  0  0  0
  9 12  1  0  0  0  0
 10 15  1  0  0  0  0
 12 16  1  1  0  0  0
 13 10  2  0  0  0  0
 13 16  1  0  0  0  0
 14  9  1  0  0  0  0
 14 13  1  0  0  0  0
 15 11  2  0  0  0  0
 16  8  2  0  0  0  0
 17 21  1  0  0  0  0
 19 21  1  0  0  0  0
 20 23  1  0  0  0  0
 20 22  1  0  0  0  0
 21 18  1  6  0  0  0
 22 11  1  6  0  0  0
 22 19  1  0  0  0  0
 23 17  1  0  0  0  0
 24 27  1  6  0  0  0
 25 24  1  0  0  0  0
 26 25  1  0  0  0  0
 28 27  1  0  0  0  0
 29 30  1  0  0  0  0
 29 31  1  0  0  0  0
 30 31  1  0  0  0  0
 31 28  1  0  0  0  0
 32 33  1  0  0  0  0
 35 45  1  6  0  0  0
 35 40  1  0  0  0  0
 38 34  1  1  0  0  0
 38 37  1  0  0  0  0
 39 42  1  0  0  0  0
 40 41  1  0  0  0  0
 41 36  1  6  0  0  0
 41 43  1  0  0  0  0
 42 38  1  0  0  0  0
 43 44  1  0  0  0  0
 44 37  1  0  0  0  0
 45 39  2  0  0  0  0
 46 47  1  6  0  0  0
 46 35  1  0  0  0  0
 48 46  1  0  0  0  0
 48 50  1  1  0  0  0
 49 52  1  6  0  0  0
 49 48  1  0  0  0  0
 49 46  1  0  0  0  0
 51 50  1  0  0  0  0
 54 53  1  0  0  0  0
 54 52  1  0  0  0  0
M  END
>  <MODEL>
3

>  <REMARK>
 VINA RESULT:       0.6      2.883      9.454
  Name = 
  14 active torsions:
  status: ('A' for Active; 'I' for Inactive)
    1  A    between atoms: C_2  and  C_29
    2  A    between atoms: O_3  and  C_20
    3  A    between atoms: C_4  and  C_46
    4  A    between atoms: O_5  and  C_31
    5  A    between atoms: O_5  and  C_49
    6  A    between atoms: C_10  and  C_17
    7  A    between atoms: C_10  and  C_24
    8  A    between atoms: C_11  and  C_36
    9  A    between atoms: C_12  and  C_13
   10  A    between atoms: C_23  and  C_42
   11  A    between atoms: C_25  and  N_43
   12  A    between atoms: C_25  and  C_44
   13  A    between atoms: C_44  and  C_46
   14  A    between atoms: C_46  and  C_47
                            x       y       z     vdW  Elec       q    Type
                         _______ _______ _______ _____ _____    ______ ____

>  <TORSDO>
F 14

$$$$
=
 OpenBabel11072410343D

 54 61  0  0  1  0  0  0  0  0999 V2000
  162.0040  212.4130  148.0200 C   0  0  1  0  0  3  0  0  0  0  0  0
  163.0290  211.4720  148.5860 C   0  0  2  0  0  3  0  0  0  0  0  0
  161.4900  211.0070  150.5770 C   0  0  1  0  0  3  0  0  0  0  0  0
  160.8250  212.8260  148.9350 C   0  0  1  0  0  3  0  0  0  0  0  0
  162.9210  211.0720  150.0620 C   0  0  0  0  0  2  0  0  0  0  0  0
  163.2370  212.8640  148.5260 O   0  0  0  0  0  0  0  0  0  0  0  0
  160.8550  212.3810  150.4160 C   0  0  1  0  0  3  0  0  0  0  0  0
  160.0900  210.9600  153.1520 C   0  0  0  0  0  3  0  0  0  0  0  0
  158.8950  213.8860  151.1430 C   0  0  2  0  0  3  0  0  0  0  0  0
  159.2830  213.1110  154.7830 C   0  0  0  0  0  3  0  0  0  0  0  0
  160.1390  210.8360  154.5470 C   0  0  0  0  0  0  0  0  0  0  0  0
  159.5060  212.4700  151.1570 C   0  0  2  0  0  3  0  0  0  0  0  0
  159.2490  213.2060  153.3910 C   0  0  0  0  0  0  0  0  0  0  0  0
  158.7520  214.3540  152.6030 C   0  0  0  0  0  2  0  0  0  0  0  0
  159.7370  211.9160  155.3620 C   0  0  0  0  0  3  0  0  0  0  0  0
  159.6510  212.1630  152.5970 C   0  0  0  0  0  0  0  0  0  0  0  0
  161.0850  206.9820  156.1560 C   0  0  0  0  0  2  0  0  0  0  0  0
  161.0430  206.0010  153.8480 C   0  0  0  0  0  1  0  0  0  0  0  0
  160.7790  208.4650  154.0780 C   0  0  0  0  0  2  0  0  0  0  0  0
  159.6780  209.0870  156.2800 C   0  0  0  0  0  2  0  0  0  0  0  0
  161.4290  207.2130  154.6740 C   0  0  1  0  0  3  0  0  0  0  0  0
  160.6040  209.5470  155.1430 C   0  0  2  0  0  3  0  0  0  0  0  0
  159.7220  207.5710  156.5170 C   0  0  0  0  0  2  0  0  0  0  0  0
  157.5760  213.9100  150.3550 C   0  0  2  0  0  3  0  0  0  0  0  0
  156.3430  214.3220  151.1610 C   0  0  0  0  0  2  0  0  0  0  0  0
  155.0530  214.2220  150.3630 C   0  0  0  0  0  1  0  0  0  0  0  0
  157.3530  212.8050  149.3100 C   0  0  0  0  0  2  0  0  0  0  0  0
  156.7140  213.3010  148.0220 C   0  0  0  0  0  2  0  0  0  0  0  0
  157.5750  212.4710  146.0110 C   0  0  0  0  0  2  0  0  0  0  0  0
  157.0340  213.7990  145.7540 C   0  0  0  0  0  2  0  0  0  0  0  0
  157.7380  213.5310  147.0170 N   0  0  0  0  0  0  0  0  0  0  0  0
  160.3970  214.1560  148.7330 O   0  0  0  0  0  0  0  0  0  0  0  0
  160.4810  214.4530  147.3640 C   0  0  0  0  0  1  0  0  0  0  0  0
  160.6870  209.8950  149.8980 C   0  0  0  0  0  2  0  0  0  0  0  0
  160.9890  205.5540  150.2860 C   0  0  2  0  0  3  0  0  0  0  0  0
  162.3740  204.8180  147.8780 O   0  0  0  0  0  1  0  0  0  0  0  0
  162.5780  208.9710  148.5610 C   0  0  0  0  0  2  0  0  0  0  0  0
  161.5670  208.6840  149.6660 C   0  0  1  0  0  3  0  0  0  0  0  0
  162.9910  206.9780  150.8660 C   0  0  0  0  0  3  0  0  0  0  0  0
  160.4870  206.0200  148.9050 C   0  0  0  0  0  2  0  0  0  0  0  0
  161.3650  205.7640  147.6700 C   0  0  1  0  0  3  0  0  0  0  0  0
  162.2240  208.2650  150.9800 C   0  0  0  0  0  2  0  0  0  0  0  0
  161.9100  207.0560  147.0560 C   0  0  0  0  0  2  0  0  0  0  0  0
  163.0330  207.6840  147.8770 C   0  0  0  0  0  2  0  0  0  0  0  0
  162.4510  205.7900  150.5620 C   0  0  0  0  0  3  0  0  0  0  0  0
  160.5880  204.1090  150.5860 C   0  0  1  0  0  0  0  0  0  0  0  0
  159.9040  203.8460  151.7770 O   0  0  0  0  0  1  0  0  0  0  0  0
  160.2500  203.1610  149.4420 C   0  0  2  0  0  3  0  0  0  0  0  0
  161.5860  203.0400  150.1690 C   0  0  2  0  0  3  0  0  0  0  0  0
  160.4930  203.7620  148.0630 C   0  0  0  0  0  2  0  0  0  0  0  0
  160.4240  202.4540  146.8030 S   0  0  0  0  0  1  0  0  0  0  0  0
  161.5420  201.9440  151.0340 O   0  0  0  0  0  0  0  0  0  0  0  0
  162.7240  201.1130  152.7960 O   0  0  0  0  0  1  0  0  0  0  0  0
  162.7700  201.9660  151.6900 C   0  0  0  0  0  2  0  0  0  0  0  0
  1  6  1  1  0  0  0
  1  2  1  0  0  0  0
  1  4  1  0  0  0  0
  2  5  1  1  0  0  0
  3 34  1  6  0  0  0
  4 32  1  1  0  0  0
  4  7  1  0  0  0  0
  5  3  1  0  0  0  0
  6  2  1  0  0  0  0
  7  3  1  0  0  0  0
  7 12  1  6  0  0  0
  8 11  1  0  0  0  0
  9 24  1  1  0  0  0
  9 12  1  0  0  0  0
  9 14  1  0  0  0  0
 10 15  1  0  0  0  0
 11 15  2  0  0  0  0
 12 16  1  1  0  0  0
 13 10  2  0  0  0  0
 14 13  1  0  0  0  0
 16  8  2  0  0  0  0
 16 13  1  0  0  0  0
 17 23  1  0  0  0  0
 19 21  1  0  0  0  0
 19 22  1  0  0  0  0
 20 23  1  0  0  0  0
 21 18  1  6  0  0  0
 21 17  1  0  0  0  0
 22 11  1  6  0  0  0
 22 20  1  0  0  0  0
 24 27  1  1  0  0  0
 24 25  1  0  0  0  0
 26 25  1  0  0  0  0
 28 27  1  0  0  0  0
 29 31  1  0  0  0  0
 30 29  1  0  0  0  0
 30 31  1  0  0  0  0
 31 28  1  0  0  0  0
 33 32  1  0  0  0  0
 35 40  1  6  0  0  0
 35 45  1  0  0  0  0
 35 46  1  0  0  0  0
 37 38  1  0  0  0  0
 38 34  1  1  0  0  0
 38 42  1  0  0  0  0
 39 42  1  0  0  0  0
 41 36  1  1  0  0  0
 41 40  1  0  0  0  0
 43 41  1  0  0  0  0
 43 44  1  0  0  0  0
 44 37  1  0  0  0  0
 45 39  2  0  0  0  0
 46 47  1  1  0  0  0
 48 50  1  6  0  0  0
 48 49  1  0  0  0  0
 48 46  1  0  0  0  0
 49 46  1  0  0  0  0
 49 52  1  1  0  0  0
 51 50  1  0  0  0  0
 52 54  1  0  0  0  0
 54 53  1  0  0  0  0
M  END
>  <MODEL>
4

>  <REMARK>
 VINA RESULT:       1.2      3.298      9.143
  Name = 
  14 active torsions:
  status: ('A' for Active; 'I' for Inactive)
    1  A    between atoms: C_2  and  C_29
    2  A    between atoms: O_3  and  C_20
    3  A    between atoms: C_4  and  C_46
    4  A    between atoms: O_5  and  C_31
    5  A    between atoms: O_5  and  C_49
    6  A    between atoms: C_10  and  C_17
    7  A    between atoms: C_10  and  C_24
    8  A    between atoms: C_11  and  C_36
    9  A    between atoms: C_12  and  C_13
   10  A    between atoms: C_23  and  C_42
   11  A    between atoms: C_25  and  N_43
   12  A    between atoms: C_25  and  C_44
   13  A    between atoms: C_44  and  C_46
   14  A    between atoms: C_46  and  C_47
                            x       y       z     vdW  Elec       q    Type
                         _______ _______ _______ _____ _____    ______ ____

>  <TORSDO>
F 14

$$$$
=
 OpenBabel11072410343D

 54 61  0  0  1  0  0  0  0  0999 V2000
  161.4670  205.7940  153.2720 C   0  0  1  0  0  3  0  0  0  0  0  0
  160.8110  205.6420  151.9290 C   0  0  2  0  0  3  0  0  0  0  0  0
  161.0710  208.1550  151.5260 C   0  0  1  0  0  3  0  0  0  0  0  0
  161.6670  207.2300  153.8140 C   0  0  1  0  0  3  0  0  0  0  0  0
  160.2710  206.8940  151.2310 C   0  0  0  0  0  2  0  0  0  0  0  0
  160.1030  205.4760  153.1350 O   0  0  0  0  0  0  0  0  0  0  0  0
  161.0420  208.4060  153.0280 C   0  0  1  0  0  3  0  0  0  0  0  0
  160.9270  211.0090  151.2110 C   0  0  0  0  0  3  0  0  0  0  0  0
  161.3470  210.2050  154.8450 C   0  0  2  0  0  3  0  0  0  0  0  0
  159.6400  212.8880  152.8720 C   0  0  0  0  0  3  0  0  0  0  0  0
  160.2590  212.1030  150.6440 C   0  0  0  0  0  0  0  0  0  0  0  0
  161.5960  209.8010  153.3770 C   0  0  2  0  0  3  0  0  0  0  0  0
  160.3100  211.7870  153.4080 C   0  0  0  0  0  0  0  0  0  0  0  0
  160.4950  211.4880  154.8440 C   0  0  0  0  0  2  0  0  0  0  0  0
  159.6130  213.0410  151.4780 C   0  0  0  0  0  3  0  0  0  0  0  0
  160.9280  210.8670  152.6000 C   0  0  0  0  0  0  0  0  0  0  0  0
  160.3840  212.9600  146.4500 C   0  0  0  0  0  2  0  0  0  0  0  0
  162.8760  213.2110  146.5680 C   0  0  0  0  0  1  0  0  0  0  0  0
  161.6760  212.4570  148.6150 C   0  0  0  0  0  2  0  0  0  0  0  0
  159.3140  213.3830  148.7080 C   0  0  0  0  0  2  0  0  0  0  0  0
  161.6820  212.4310  147.0840 C   0  0  1  0  0  3  0  0  0  0  0  0
  160.2620  212.2600  149.1580 C   0  0  2  0  0  3  0  0  0  0  0  0
  159.6940  213.9850  147.3480 C   0  0  0  0  0  2  0  0  0  0  0  0
  162.6720  210.3440  155.6110 C   0  0  2  0  0  3  0  0  0  0  0  0
  162.5390  210.8160  157.0610 C   0  0  0  0  0  2  0  0  0  0  0  0
  161.5600  211.9670  157.2220 C   0  0  0  0  0  1  0  0  0  0  0  0
  163.8840  210.8880  154.8400 C   0  0  0  0  0  2  0  0  0  0  0  0
  164.9380  211.5300  155.7310 C   0  0  0  0  0  2  0  0  0  0  0  0
  166.4900  213.2230  155.2830 C   0  0  0  0  0  2  0  0  0  0  0  0
  167.1990  212.1200  155.9180 C   0  0  0  0  0  2  0  0  0  0  0  0
  166.1260  211.8360  154.9530 N   0  0  0  0  0  0  0  0  0  0  0  0
  161.5270  207.3250  155.2160 O   0  0  0  0  0  0  0  0  0  0  0  0
  160.2270  207.7600  155.5100 C   0  0  0  0  0  1  0  0  0  0  0  0
  162.4920  208.0770  150.9610 C   0  0  0  0  0  2  0  0  0  0  0  0
  162.1310  204.6610  148.2630 C   0  0  2  0  0  3  0  0  0  0  0  0
  160.5140  205.7250  146.1390 O   0  0  0  0  0  1  0  0  0  0  0  0
  161.9990  208.7870  148.6230 C   0  0  0  0  0  2  0  0  0  0  0  0
  162.4530  207.6350  149.5130 C   0  0  1  0  0  3  0  0  0  0  0  0
  163.8120  206.4680  147.7330 C   0  0  0  0  0  3  0  0  0  0  0  0
  160.7910  205.3610  148.5580 C   0  0  0  0  0  2  0  0  0  0  0  0
  160.0600  206.0800  147.4130 C   0  0  1  0  0  3  0  0  0  0  0  0
  163.8140  207.0700  149.1090 C   0  0  0  0  0  2  0  0  0  0  0  0
  160.0190  207.5990  147.6020 C   0  0  0  0  0  2  0  0  0  0  0  0
  161.3610  208.2740  147.3340 C   0  0  0  0  0  2  0  0  0  0  0  0
  163.0760  205.4120  147.3610 C   0  0  0  0  0  3  0  0  0  0  0  0
  161.9350  203.2190  147.7910 C   0  0  1  0  0  0  0  0  0  0  0  0
  162.9170  202.6510  146.9740 O   0  0  0  0  0  1  0  0  0  0  0  0
  161.1990  202.2230  148.6790 C   0  0  2  0  0  3  0  0  0  0  0  0
  160.5070  202.8160  147.4550 C   0  0  2  0  0  3  0  0  0  0  0  0
  160.6040  202.8500  149.9330 C   0  0  0  0  0  2  0  0  0  0  0  0
  161.3110  202.0610  151.4090 S   0  0  0  0  0  1  0  0  0  0  0  0
  160.4790  201.8620  146.4340 O   0  0  0  0  0  0  0  0  0  0  0  0
  159.5240  202.3090  144.4150 O   0  0  0  0  0  1  0  0  0  0  0  0
  159.2760  202.0920  145.7730 C   0  0  0  0  0  2  0  0  0  0  0  0
  1  6  1  1  0  0  0
  1  4  1  0  0  0  0
  2  5  1  1  0  0  0
  2  6  1  0  0  0  0
  2  1  1  0  0  0  0
  3 34  1  1  0  0  0
  3  7  1  0  0  0  0
  4 32  1  1  0  0  0
  5  3  1  0  0  0  0
  7 12  1  6  0  0  0
  7  4  1  0  0  0  0
  8 16  1  0  0  0  0
  9 24  1  6  0  0  0
 10 13  1  0  0  0  0
 11  8  2  0  0  0  0
 11 15  1  0  0  0  0
 12 16  1  6  0  0  0
 12  9  1  0  0  0  0
 13 14  1  0  0  0  0
 14  9  1  0  0  0  0
 15 10  2  0  0  0  0
 16 13  2  0  0  0  0
 17 21  1  0  0  0  0
 17 23  1  0  0  0  0
 19 22  1  0  0  0  0
 20 22  1  0  0  0  0
 21 18  1  6  0  0  0
 21 19  1  0  0  0  0
 22 11  1  1  0  0  0
 23 20  1  0  0  0  0
 24 27  1  6  0  0  0
 24 25  1  0  0  0  0
 25 26  1  0  0  0  0
 27 28  1  0  0  0  0
 29 30  1  0  0  0  0
 31 29  1  0  0  0  0
 31 28  1  0  0  0  0
 31 30  1  0  0  0  0
 32 33  1  0  0  0  0
 35 45  1  6  0  0  0
 35 40  1  0  0  0  0
 37 38  1  0  0  0  0
 38 34  1  1  0  0  0
 39 42  1  0  0  0  0
 41 36  1  6  0  0  0
 41 43  1  0  0  0  0
 41 40  1  0  0  0  0
 42 38  1  0  0  0  0
 44 43  1  0  0  0  0
 44 37  1  0  0  0  0
 45 39  2  0  0  0  0
 46 47  1  6  0  0  0
 46 35  1  0  0  0  0
 46 48  1  0  0  0  0
 48 50  1  1  0  0  0
 49 52  1  6  0  0  0
 49 46  1  0  0  0  0
 49 48  1  0  0  0  0
 50 51  1  0  0  0  0
 53 54  1  0  0  0  0
 54 52  1  0  0  0  0
M  END
>  <MODEL>
5

>  <REMARK>
 VINA RESULT:       1.6      3.281      9.263
  Name = 
  14 active torsions:
  status: ('A' for Active; 'I' for Inactive)
    1  A    between atoms: C_2  and  C_29
    2  A    between atoms: O_3  and  C_20
    3  A    between atoms: C_4  and  C_46
    4  A    between atoms: O_5  and  C_31
    5  A    between atoms: O_5  and  C_49
    6  A    between atoms: C_10  and  C_17
    7  A    between atoms: C_10  and  C_24
    8  A    between atoms: C_11  and  C_36
    9  A    between atoms: C_12  and  C_13
   10  A    between atoms: C_23  and  C_42
   11  A    between atoms: C_25  and  N_43
   12  A    between atoms: C_25  and  C_44
   13  A    between atoms: C_44  and  C_46
   14  A    between atoms: C_46  and  C_47
                            x       y       z     vdW  Elec       q    Type
                         _______ _______ _______ _____ _____    ______ ____

>  <TORSDO>
F 14

$$$$
=
 OpenBabel11072410343D

 54 61  0  0  1  0  0  0  0  0999 V2000
  161.4230  205.4620  152.5670 C   0  0  1  0  0  3  0  0  0  0  0  0
  160.9350  204.7690  151.3270 C   0  0  2  0  0  3  0  0  0  0  0  0
  160.7630  207.0300  150.1410 C   0  0  1  0  0  3  0  0  0  0  0  0
  161.3030  207.0050  152.6210 C   0  0  1  0  0  3  0  0  0  0  0  0
  160.2400  205.6040  150.2460 C   0  0  0  0  0  2  0  0  0  0  0  0
  160.1600  204.8460  152.5010 O   0  0  0  0  0  0  0  0  0  0  0  0
  160.5480  207.7240  151.4790 C   0  0  1  0  0  3  0  0  0  0  0  0
  159.6480  209.9500  153.5570 C   0  0  0  0  0  3  0  0  0  0  0  0
  162.2080  209.5890  150.8480 C   0  0  2  0  0  3  0  0  0  0  0  0
  162.0720  211.2320  154.2080 C   0  0  0  0  0  3  0  0  0  0  0  0
  159.7690  210.6450  154.7690 C   0  0  0  0  0  0  0  0  0  0  0  0
  160.8010  209.2410  151.3740 C   0  0  2  0  0  3  0  0  0  0  0  0
  161.9230  210.5300  153.0100 C   0  0  0  0  0  0  0  0  0  0  0  0
  162.9280  210.4120  151.9320 C   0  0  0  0  0  2  0  0  0  0  0  0
  160.9860  211.2840  155.0940 C   0  0  0  0  0  3  0  0  0  0  0  0
  160.7470  209.8980  152.6980 C   0  0  0  0  0  0  0  0  0  0  0  0
  156.3310  211.2210  157.2560 C   0  0  0  0  0  2  0  0  0  0  0  0
  154.8590  211.2490  155.2270 C   0  0  0  0  0  1  0  0  0  0  0  0
  157.2750  210.7390  154.9140 C   0  0  0  0  0  2  0  0  0  0  0  0
  158.7070  211.8810  156.6710 C   0  0  0  0  0  2  0  0  0  0  0  0
  156.0810  210.6160  155.8640 C   0  0  1  0  0  3  0  0  0  0  0  0
  158.5930  210.7070  155.6870 C   0  0  2  0  0  3  0  0  0  0  0  0
  157.3480  212.3590  157.2020 C   0  0  0  0  0  2  0  0  0  0  0  0
  162.1290  210.2970  149.4870 C   0  0  2  0  0  3  0  0  0  0  0  0
  163.4700  210.7630  148.9160 C   0  0  0  0  0  2  0  0  0  0  0  0
  163.3280  211.9160  147.9350 C   0  0  0  0  0  1  0  0  0  0  0  0
  160.9370  211.2360  149.2430 C   0  0  0  0  0  2  0  0  0  0  0  0
  161.1020  212.6110  149.8740 C   0  0  0  0  0  2  0  0  0  0  0  0
  159.6470  213.2390  151.5960 C   0  0  0  0  0  2  0  0  0  0  0  0
  160.0390  214.4440  150.8760 C   0  0  0  0  0  2  0  0  0  0  0  0
  159.7990  213.1980  150.1330 N   0  0  0  0  0  0  0  0  0  0  0  0
  161.0180  207.5010  153.9120 O   0  0  0  0  0  0  0  0  0  0  0  0
  161.2230  206.4730  154.8440 C   0  0  0  0  0  1  0  0  0  0  0  0
  162.2200  207.0720  149.6730 C   0  0  0  0  0  2  0  0  0  0  0  0
  161.7740  203.4480  147.2760 C   0  0  2  0  0  3  0  0  0  0  0  0
  160.6810  204.4670  144.8210 O   0  0  0  0  0  1  0  0  0  0  0  0
  162.2070  207.5690  147.2300 C   0  0  0  0  0  2  0  0  0  0  0  0
  162.3400  206.4760  148.2860 C   0  0  1  0  0  3  0  0  0  0  0  0
  163.7670  204.9440  146.8760 C   0  0  0  0  0  3  0  0  0  0  0  0
  160.5240  204.3490  147.2750 C   0  0  0  0  0  2  0  0  0  0  0  0
  160.0940  205.0230  145.9620 C   0  0  1  0  0  3  0  0  0  0  0  0
  163.6470  205.6940  148.1720 C   0  0  0  0  0  2  0  0  0  0  0  0
  160.2530  206.5450  146.0020 C   0  0  0  0  0  2  0  0  0  0  0  0
  161.7060  207.0010  145.9040 C   0  0  0  0  0  2  0  0  0  0  0  0
  162.9480  203.9590  146.4830 C   0  0  0  0  0  3  0  0  0  0  0  0
  161.4390  202.0000  146.9120 C   0  0  1  0  0  0  0  0  0  0  0  0
  162.3240  201.3060  146.0820 O   0  0  0  0  0  1  0  0  0  0  0  0
  160.6820  201.1230  147.9020 C   0  0  2  0  0  3  0  0  0  0  0  0
  159.9670  201.6940  146.6800 C   0  0  2  0  0  3  0  0  0  0  0  0
  160.2120  201.8730  149.1420 C   0  0  0  0  0  2  0  0  0  0  0  0
  161.1840  201.3450  150.5830 S   0  0  0  0  0  1  0  0  0  0  0  0
  159.8060  200.6850  145.7280 O   0  0  0  0  0  0  0  0  0  0  0  0
  158.7820  202.4070  144.6440 O   0  0  0  0  0  1  0  0  0  0  0  0
  159.7000  201.3610  144.5160 C   0  0  0  0  0  2  0  0  0  0  0  0
  1  6  1  1  0  0  0
  1  4  1  0  0  0  0
  2  5  1  6  0  0  0
  2  6  1  0  0  0  0
  2  1  1  0  0  0  0
  3 34  1  1  0  0  0
  3  5  1  0  0  0  0
  3  7  1  0  0  0  0
  4 32  1  1  0  0  0
  7 12  1  6  0  0  0
  7  4  1  0  0  0  0
  8 11  1  0  0  0  0
  9 24  1  6  0  0  0
  9 12  1  0  0  0  0
  9 14  1  0  0  0  0
 10 15  1  0  0  0  0
 11 15  2  0  0  0  0
 12 16  1  1  0  0  0
 13 10  2  0  0  0  0
 14 13  1  0  0  0  0
 16 13  1  0  0  0  0
 16  8  2  0  0  0  0
 19 22  1  0  0  0  0
 19 21  1  0  0  0  0
 20 23  1  0  0  0  0
 21 18  1  6  0  0  0
 21 17  1  0  0  0  0
 22 11  1  6  0  0  0
 22 20  1  0  0  0  0
 23 17  1  0  0  0  0
 24 25  1  1  0  0  0
 26 25  1  0  0  0  0
 27 24  1  0  0  0  0
 27 28  1  0  0  0  0
 28 31  1  0  0  0  0
 30 29  1  0  0  0  0
 31 30  1  0  0  0  0
 31 29  1  0  0  0  0
 32 33  1  0  0  0  0
 35 45  1  6  0  0  0
 37 38  1  0  0  0  0
 38 34  1  1  0  0  0
 39 42  1  0  0  0  0
 40 35  1  0  0  0  0
 41 36  1  6  0  0  0
 41 43  1  0  0  0  0
 41 40  1  0  0  0  0
 42 38  1  0  0  0  0
 44 43  1  0  0  0  0
 44 37  1  0  0  0  0
 45 39  2  0  0  0  0
 46 47  1  6  0  0  0
 46 35  1  0  0  0  0
 46 48  1  0  0  0  0
 48 50  1  1  0  0  0
 49 52  1  6  0  0  0
 49 46  1  0  0  0  0
 49 48  1  0  0  0  0
 50 51  1  0  0  0  0
 54 53  1  0  0  0  0
 54 52  1  0  0  0  0
M  END
>  <MODEL>
6

>  <REMARK>
 VINA RESULT:       1.6      3.063      9.855
  Name = 
  14 active torsions:
  status: ('A' for Active; 'I' for Inactive)
    1  A    between atoms: C_2  and  C_29
    2  A    between atoms: O_3  and  C_20
    3  A    between atoms: C_4  and  C_46
    4  A    between atoms: O_5  and  C_31
    5  A    between atoms: O_5  and  C_49
    6  A    between atoms: C_10  and  C_17
    7  A    between atoms: C_10  and  C_24
    8  A    between atoms: C_11  and  C_36
    9  A    between atoms: C_12  and  C_13
   10  A    between atoms: C_23  and  C_42
   11  A    between atoms: C_25  and  N_43
   12  A    between atoms: C_25  and  C_44
   13  A    between atoms: C_44  and  C_46
   14  A    between atoms: C_46  and  C_47
                            x       y       z     vdW  Elec       q    Type
                         _______ _______ _______ _____ _____    ______ ____

>  <TORSDO>
F 14

$$$$
=
 OpenBabel11072410343D

 54 61  0  0  1  0  0  0  0  0999 V2000
  163.7970  212.4610  146.9920 C   0  0  1  0  0  3  0  0  0  0  0  0
  164.4710  211.4330  147.8540 C   0  0  2  0  0  3  0  0  0  0  0  0
  162.2180  210.8680  148.9280 C   0  0  1  0  0  3  0  0  0  0  0  0
  162.3380  212.8450  147.3400 C   0  0  1  0  0  3  0  0  0  0  0  0
  163.7310  210.9160  149.0920 C   0  0  0  0  0  2  0  0  0  0  0  0
  164.6860  212.8150  148.0230 O   0  0  0  0  0  0  0  0  0  0  0  0
  161.7180  212.2760  148.6380 C   0  0  1  0  0  3  0  0  0  0  0  0
  159.9390  211.8990  151.2420 C   0  0  0  0  0  3  0  0  0  0  0  0
  159.5830  213.4960  147.8730 C   0  0  2  0  0  3  0  0  0  0  0  0
  158.4550  214.2920  151.3510 C   0  0  0  0  0  3  0  0  0  0  0  0
  159.4100  212.3400  152.4640 C   0  0  0  0  0  0  0  0  0  0  0  0
  160.1820  212.3590  148.7270 C   0  0  2  0  0  3  0  0  0  0  0  0
  158.9970  213.8310  150.1510 C   0  0  0  0  0  0  0  0  0  0  0  0
  158.8320  214.4510  148.8180 C   0  0  0  0  0  2  0  0  0  0  0  0
  158.6680  213.5400  152.5160 C   0  0  0  0  0  3  0  0  0  0  0  0
  159.7280  212.6720  150.0990 C   0  0  0  0  0  0  0  0  0  0  0  0
  160.4530  209.9420  155.8550 C   0  0  0  0  0  2  0  0  0  0  0  0
  161.7890  211.8430  156.7970 C   0  0  0  0  0  1  0  0  0  0  0  0
  160.4700  212.2520  154.7260 C   0  0  0  0  0  2  0  0  0  0  0  0
  160.2300  210.1400  153.3380 C   0  0  0  0  0  2  0  0  0  0  0  0
  160.5300  211.4670  156.0400 C   0  0  1  0  0  3  0  0  0  0  0  0
  159.6300  211.5110  153.6870 C   0  0  2  0  0  3  0  0  0  0  0  0
  161.0100  209.5090  154.5000 C   0  0  0  0  0  2  0  0  0  0  0  0
  158.7090  212.9340  146.7410 C   0  0  2  0  0  3  0  0  0  0  0  0
  157.2940  212.5240  147.1530 C   0  0  0  0  0  2  0  0  0  0  0  0
  156.2480  212.8750  146.1070 C   0  0  0  0  0  1  0  0  0  0  0  0
  159.3900  212.0320  145.6990 C   0  0  0  0  0  2  0  0  0  0  0  0
  159.4050  212.6220  144.2970 C   0  0  0  0  0  2  0  0  0  0  0  0
  159.7680  212.1140  142.0420 C   0  0  0  0  0  2  0  0  0  0  0  0
  161.0010  212.6730  142.5800 C   0  0  0  0  0  2  0  0  0  0  0  0
  160.1850  211.7750  143.4110 N   0  0  0  0  0  0  0  0  0  0  0  0
  162.0420  214.2050  147.0990 O   0  0  0  0  0  0  0  0  0  0  0  0
  162.1520  214.4520  145.7230 C   0  0  0  0  0  1  0  0  0  0  0  0
  161.7900  209.8520  147.8660 C   0  0  0  0  0  2  0  0  0  0  0  0
  161.8800  205.4960  147.5530 C   0  0  2  0  0  3  0  0  0  0  0  0
  162.3030  204.6940  150.2810 O   0  0  0  0  0  1  0  0  0  0  0  0
  161.2000  208.7530  150.0240 C   0  0  0  0  0  2  0  0  0  0  0  0
  161.3840  208.5490  148.5240 C   0  0  1  0  0  3  0  0  0  0  0  0
  159.7610  206.6250  148.3350 C   0  0  0  0  0  3  0  0  0  0  0  0
  163.0380  206.0820  148.3840 C   0  0  0  0  0  2  0  0  0  0  0  0
  163.1070  205.7690  149.8880 C   0  0  1  0  0  3  0  0  0  0  0  0
  160.1370  207.9920  147.8410 C   0  0  0  0  0  2  0  0  0  0  0  0
  162.8710  207.0070  150.7580 C   0  0  0  0  0  2  0  0  0  0  0  0
  161.4100  207.4490  150.7910 C   0  0  0  0  0  2  0  0  0  0  0  0
  160.5240  205.5300  148.2090 C   0  0  0  0  0  3  0  0  0  0  0  0
  162.2060  204.1020  147.0140 C   0  0  1  0  0  0  0  0  0  0  0  0
  163.3920  203.9330  146.2930 O   0  0  0  0  0  1  0  0  0  0  0  0
  161.7510  202.8660  147.7800 C   0  0  2  0  0  3  0  0  0  0  0  0
  161.0240  203.2900  146.5070 C   0  0  2  0  0  3  0  0  0  0  0  0
  160.8680  203.1850  148.9800 C   0  0  0  0  0  2  0  0  0  0  0  0
  159.9200  201.7090  149.4540 S   0  0  0  0  0  1  0  0  0  0  0  0
  161.4040  202.4480  145.4580 O   0  0  0  0  0  0  0  0  0  0  0  0
  159.2800  201.7600  145.9140 O   0  0  0  0  0  1  0  0  0  0  0  0
  160.2020  202.0240  144.8970 C   0  0  0  0  0  2  0  0  0  0  0  0
  1  4  1  0  0  0  0
  1  2  1  0  0  0  0
  1  6  1  1  0  0  0
  2  6  1  0  0  0  0
  2  5  1  1  0  0  0
  3 34  1  6  0  0  0
  3  5  1  0  0  0  0
  4 32  1  1  0  0  0
  4  7  1  0  0  0  0
  7 12  1  6  0  0  0
  7  3  1  0  0  0  0
  8 11  1  0  0  0  0
  9 24  1  6  0  0  0
  9 12  1  0  0  0  0
  9 14  1  0  0  0  0
 10 15  1  0  0  0  0
 11 15  2  0  0  0  0
 12 16  1  1  0  0  0
 13 10  2  0  0  0  0
 14 13  1  0  0  0  0
 16 13  1  0  0  0  0
 16  8  2  0  0  0  0
 17 21  1  0  0  0  0
 19 21  1  0  0  0  0
 20 22  1  0  0  0  0
 20 23  1  0  0  0  0
 21 18  1  6  0  0  0
 22 11  1  6  0  0  0
 22 19  1  0  0  0  0
 23 17  1  0  0  0  0
 24 27  1  1  0  0  0
 24 25  1  0  0  0  0
 26 25  1  0  0  0  0
 28 27  1  0  0  0  0
 29 30  1  0  0  0  0
 29 31  1  0  0  0  0
 30 31  1  0  0  0  0
 31 28  1  0  0  0  0
 33 32  1  0  0  0  0
 35 45  1  1  0  0  0
 35 40  1  0  0  0  0
 37 44  1  0  0  0  0
 38 34  1  6  0  0  0
 38 37  1  0  0  0  0
 40 41  1  0  0  0  0
 41 36  1  1  0  0  0
 41 43  1  0  0  0  0
 42 39  1  0  0  0  0
 42 38  1  0  0  0  0
 43 44  1  0  0  0  0
 45 39  2  0  0  0  0
 46 47  1  6  0  0  0
 46 35  1  0  0  0  0
 46 48  1  0  0  0  0
 48 50  1  1  0  0  0
 49 52  1  6  0  0  0
 49 46  1  0  0  0  0
 49 48  1  0  0  0  0
 50 51  1  0  0  0  0
 54 52  1  0  0  0  0
 54 53  1  0  0  0  0
M  END
>  <MODEL>
7

>  <REMARK>
 VINA RESULT:       1.9      3.671      9.849
  Name = 
  14 active torsions:
  status: ('A' for Active; 'I' for Inactive)
    1  A    between atoms: C_2  and  C_29
    2  A    between atoms: O_3  and  C_20
    3  A    between atoms: C_4  and  C_46
    4  A    between atoms: O_5  and  C_31
    5  A    between atoms: O_5  and  C_49
    6  A    between atoms: C_10  and  C_17
    7  A    between atoms: C_10  and  C_24
    8  A    between atoms: C_11  and  C_36
    9  A    between atoms: C_12  and  C_13
   10  A    between atoms: C_23  and  C_42
   11  A    between atoms: C_25  and  N_43
   12  A    between atoms: C_25  and  C_44
   13  A    between atoms: C_44  and  C_46
   14  A    between atoms: C_46  and  C_47
                            x       y       z     vdW  Elec       q    Type
                         _______ _______ _______ _____ _____    ______ ____

>  <TORSDO>
F 14

$$$$
