=
 OpenBabel11072413473D

 29 32  0  0  1  0  0  0  0  0999 V2000
  160.8710  209.1240  155.2120 C   0  0  1  0  0  3  0  0  0  0  0  0
  161.7690  207.9800  149.0850 C   0  0  0  0  0  0  0  0  0  0  0  0
  160.8250  204.6760  152.6620 C   0  0  0  0  0  3  0  0  0  0  0  0
  160.9800  203.8790  150.3880 C   0  0  0  0  0  0  0  0  0  0  0  0
  161.5920  208.6300  151.4220 C   0  0  0  0  0  0  0  0  0  0  0  0
  161.5540  207.5990  150.4420 C   0  0  0  0  0  0  0  0  0  0  0  0
  160.7730  203.6300  151.7430 C   0  0  0  0  0  3  0  0  0  0  0  0
  161.9910  209.3180  148.7760 C   0  0  0  0  0  3  0  0  0  0  0  0
  160.8180  207.3060  156.7520 O   0  0  0  0  0  0  0  0  0  0  0  0
  161.7730  207.0380  147.9270 C   0  0  0  0  0  1  0  0  0  0  0  0
  161.0870  205.9880  152.2410 C   0  0  0  0  0  0  0  0  0  0  0  0
  161.4620  209.3800  153.8590 C   0  0  0  0  0  0  0  0  0  0  0  0
  159.4450  209.6440  155.2650 C   0  0  0  0  0  1  0  0  0  0  0  0
  161.3960  208.3380  152.7930 C   0  0  0  0  0  0  0  0  0  0  0  0
  160.9500  206.7010  154.5440 O   0  0  0  0  0  0  0  0  0  0  0  0
  162.0090  210.5320  153.6420 N   0  0  0  0  0  2  0  0  0  0  0  0
  161.2990  206.2640  150.8650 C   0  0  0  0  0  0  0  0  0  0  0  0
  161.2440  205.1860  149.9620 C   0  0  0  0  0  3  0  0  0  0  0  0
  160.8940  207.6680  155.5490 C   0  0  0  0  0  0  0  0  0  0  0  0
  161.8110  209.9140  151.0290 N   0  0  0  0  0  0  0  0  0  0  0  0
  161.1380  207.0150  153.1900 C   0  0  0  0  0  0  0  0  0  0  0  0
  162.0050  210.2490  149.7560 N   0  0  0  0  0  0  0  0  0  0  0  0
  160.9230  202.7900  149.4620 N   0  0  0  0  0  2  0  0  0  0  0  0
  161.3070  202.8970  148.0620 C   0  0  0  0  0  2  0  0  0  0  0  0
  160.7200  201.8060  147.2990 N   0  0  0  0  0  2  0  0  0  0  0  0
  160.8640  202.1430  145.8940 C   0  0  0  0  0  2  0  0  0  0  0  0
  161.5130  203.5100  145.7480 C   0  0  0  0  0  2  0  0  0  0  0  0
  161.2310  205.5340  144.3790 C   0  0  0  0  0  2  0  0  0  0  0  0
  160.8150  204.3110  144.6980 C   0  0  0  0  0  3  0  0  0  0  0  0
  1 13  1  6  0  0  0
  1 19  1  0  0  0  0
  2  6  1  0  0  0  0
  4  7  1  0  0  0  0
  5 14  1  0  0  0  0
  6 17  1  0  0  0  0
  6  5  2  0  0  0  0
  7  3  2  0  0  0  0
  8  2  2  0  0  0  0
  8 22  1  0  0  0  0
 10  2  1  0  0  0  0
 11  3  1  0  0  0  0
 11 21  1  0  0  0  0
 12  1  1  0  0  0  0
 14 21  2  0  0  0  0
 14 12  1  0  0  0  0
 15 19  1  0  0  0  0
 16 12  2  0  0  0  0
 17 11  2  0  0  0  0
 18  4  2  0  0  0  0
 18 17  1  0  0  0  0
 19  9  2  0  0  0  0
 20  5  1  0  0  0  0
 21 15  1  0  0  0  0
 22 20  2  0  0  0  0
 23  4  1  0  0  0  0
 24 23  1  0  0  0  0
 25 24  1  0  0  0  0
 26 25  1  0  0  0  0
 27 26  1  0  0  0  0
 28 29  2  0  0  0  0
 29 27  1  0  0  0  0
M  END
>  <MODEL>
1

>  <REMARK>
 VINA RESULT:      -9.6      0.000      0.000
  Name = 
  6 active torsions:
  status: ('A' for Active; 'I' for Inactive)
    1  A    between atoms: C_5  and  C_15
    2  A    between atoms: C_5  and  C_21
    3  A    between atoms: C_6  and  N_11
    4  A    between atoms: N_11  and  C_23
    5  A    between atoms: C_21  and  N_29
    6  A    between atoms: C_23  and  N_29
                            x       y       z     vdW  Elec       q    Type
                         _______ _______ _______ _____ _____    ______ ____

>  <TORSDO>
F 6

$$$$
=
 OpenBabel11072413473D

 29 32  0  0  1  0  0  0  0  0999 V2000
  160.8590  203.6420  144.8520 C   0  0  1  0  0  3  0  0  0  0  0  0
  161.0700  203.8320  151.1430 C   0  0  0  0  0  0  0  0  0  0  0  0
  161.6840  207.6120  147.9900 C   0  0  0  0  0  3  0  0  0  0  0  0
  161.7000  208.0900  150.3560 C   0  0  0  0  0  0  0  0  0  0  0  0
  161.0850  203.5070  148.7320 C   0  0  0  0  0  0  0  0  0  0  0  0
  161.1880  204.3970  149.8390 C   0  0  0  0  0  0  0  0  0  0  0  0
  161.7880  208.5260  149.0360 C   0  0  0  0  0  3  0  0  0  0  0  0
  160.8480  202.4670  151.2810 C   0  0  0  0  0  3  0  0  0  0  0  0
  161.5710  205.5360  143.5940 O   0  0  0  0  0  0  0  0  0  0  0  0
  161.1600  204.6070  152.4160 C   0  0  0  0  0  1  0  0  0  0  0  0
  161.4900  206.2470  148.2470 C   0  0  0  0  0  0  0  0  0  0  0  0
  161.1310  203.0830  146.2150 C   0  0  0  0  0  0  0  0  0  0  0  0
  159.3700  203.5870  144.5540 C   0  0  0  0  0  1  0  0  0  0  0  0
  161.1990  203.9820  147.4040 C   0  0  0  0  0  0  0  0  0  0  0  0
  161.5210  205.8460  145.8650 O   0  0  0  0  0  0  0  0  0  0  0  0
  161.2850  201.8030  146.3290 N   0  0  0  0  0  2  0  0  0  0  0  0
  161.3960  205.7820  149.5840 C   0  0  0  0  0  0  0  0  0  0  0  0
  161.5090  206.7290  150.6190 C   0  0  0  0  0  3  0  0  0  0  0  0
  161.3500  205.0490  144.7330 C   0  0  0  0  0  0  0  0  0  0  0  0
  160.8630  202.1840  148.9610 N   0  0  0  0  0  0  0  0  0  0  0  0
  161.3950  205.3540  147.1730 C   0  0  0  0  0  0  0  0  0  0  0  0
  160.7500  201.6800  150.1860 N   0  0  0  0  0  0  0  0  0  0  0  0
  161.8110  209.0460  151.4150 N   0  0  0  0  0  2  0  0  0  0  0  0
  160.8030  209.2280  152.4500 C   0  0  0  0  0  2  0  0  0  0  0  0
  161.4320  209.6510  153.6900 N   0  0  0  0  0  2  0  0  0  0  0  0
  160.6190  209.1380  154.7780 C   0  0  0  0  0  2  0  0  0  0  0  0
  160.6050  207.6180  154.7460 C   0  0  0  0  0  2  0  0  0  0  0  0
  160.3910  207.2490  157.1690 C   0  0  0  0  0  2  0  0  0  0  0  0
  159.8970  207.0760  155.9460 C   0  0  0  0  0  3  0  0  0  0  0  0
  1 13  1  1  0  0  0
  1 12  1  0  0  0  0
  2  8  1  0  0  0  0
  2 10  1  0  0  0  0
  3 11  2  0  0  0  0
  3  7  1  0  0  0  0
  4 18  1  0  0  0  0
  4 23  1  0  0  0  0
  5 20  2  0  0  0  0
  5  6  1  0  0  0  0
  6  2  2  0  0  0  0
  7  4  2  0  0  0  0
  9 19  2  0  0  0  0
 11 17  1  0  0  0  0
 12 16  2  0  0  0  0
 12 14  1  0  0  0  0
 14  5  1  0  0  0  0
 15 21  1  0  0  0  0
 17  6  1  0  0  0  0
 17 18  2  0  0  0  0
 19  1  1  0  0  0  0
 19 15  1  0  0  0  0
 20 22  1  0  0  0  0
 21 14  2  0  0  0  0
 21 11  1  0  0  0  0
 22  8  2  0  0  0  0
 23 24  1  0  0  0  0
 24 25  1  0  0  0  0
 25 26  1  0  0  0  0
 27 26  1  0  0  0  0
 27 29  1  0  0  0  0
 29 28  2  0  0  0  0
M  END
>  <MODEL>
2

>  <REMARK>
 VINA RESULT:      -9.4      2.792      8.523
  Name = 
  6 active torsions:
  status: ('A' for Active; 'I' for Inactive)
    1  A    between atoms: C_5  and  C_15
    2  A    between atoms: C_5  and  C_21
    3  A    between atoms: C_6  and  N_11
    4  A    between atoms: N_11  and  C_23
    5  A    between atoms: C_21  and  N_29
    6  A    between atoms: C_23  and  N_29
                            x       y       z     vdW  Elec       q    Type
                         _______ _______ _______ _____ _____    ______ ____

>  <TORSDO>
F 6

$$$$
=
 OpenBabel11072413473D

 29 32  0  0  1  0  0  0  0  0999 V2000
  160.8380  203.6750  144.8120 C   0  0  1  0  0  3  0  0  0  0  0  0
  161.0820  203.7580  151.1040 C   0  0  0  0  0  0  0  0  0  0  0  0
  161.6970  207.5880  148.0120 C   0  0  0  0  0  3  0  0  0  0  0  0
  161.7280  208.0260  150.3860 C   0  0  0  0  0  0  0  0  0  0  0  0
  161.0830  203.4740  148.6880 C   0  0  0  0  0  0  0  0  0  0  0  0
  161.1960  204.3440  149.8090 C   0  0  0  0  0  0  0  0  0  0  0  0
  161.8110  208.4840  149.0730 C   0  0  0  0  0  3  0  0  0  0  0  0
  160.8550  202.3910  151.2210 C   0  0  0  0  0  3  0  0  0  0  0  0
  161.5510  205.5860  143.5830 O   0  0  0  0  0  0  0  0  0  0  0  0
  161.1820  204.5110  152.3900 C   0  0  0  0  0  1  0  0  0  0  0  0
  161.4990  206.2190  148.2470 C   0  0  0  0  0  0  0  0  0  0  0  0
  161.1140  203.0910  146.1640 C   0  0  0  0  0  0  0  0  0  0  0  0
  159.3470  203.6310  144.5210 C   0  0  0  0  0  1  0  0  0  0  0  0
  161.1920  203.9710  147.3680 C   0  0  0  0  0  0  0  0  0  0  0  0
  161.5150  205.8590  145.8590 O   0  0  0  0  0  0  0  0  0  0  0  0
  161.2630  201.8100  146.2560 N   0  0  0  0  0  2  0  0  0  0  0  0
  161.4090  205.7320  149.5770 C   0  0  0  0  0  0  0  0  0  0  0  0
  161.5310  206.6610  150.6270 C   0  0  0  0  0  3  0  0  0  0  0  0
  161.3340  205.0810  144.7140 C   0  0  0  0  0  0  0  0  0  0  0  0
  160.8560  202.1480  148.8960 N   0  0  0  0  0  0  0  0  0  0  0  0
  161.3940  205.3450  147.1590 C   0  0  0  0  0  0  0  0  0  0  0  0
  160.7480  201.6240  150.1130 N   0  0  0  0  0  0  0  0  0  0  0  0
  161.8480  208.9630  151.4610 N   0  0  0  0  0  2  0  0  0  0  0  0
  160.7710  209.2720  152.3900 C   0  0  0  0  0  2  0  0  0  0  0  0
  161.0030  208.6050  153.6610 N   0  0  0  0  0  2  0  0  0  0  0  0
  161.0140  209.6330  154.6870 C   0  0  0  0  0  2  0  0  0  0  0  0
  159.8240  209.4560  155.6170 C   0  0  0  0  0  2  0  0  0  0  0  0
  158.4220  211.2200  154.6310 C   0  0  0  0  0  2  0  0  0  0  0  0
  159.0340  210.7210  155.7020 C   0  0  0  0  0  3  0  0  0  0  0  0
  1 13  1  1  0  0  0
  1 12  1  0  0  0  0
  2  8  1  0  0  0  0
  2 10  1  0  0  0  0
  3 11  2  0  0  0  0
  3  7  1  0  0  0  0
  4 18  1  0  0  0  0
  4 23  1  0  0  0  0
  5 20  2  0  0  0  0
  5  6  1  0  0  0  0
  6  2  2  0  0  0  0
  7  4  2  0  0  0  0
  9 19  2  0  0  0  0
 11 17  1  0  0  0  0
 12 16  2  0  0  0  0
 12 14  1  0  0  0  0
 14  5  1  0  0  0  0
 15 21  1  0  0  0  0
 17  6  1  0  0  0  0
 17 18  2  0  0  0  0
 19  1  1  0  0  0  0
 19 15  1  0  0  0  0
 20 22  1  0  0  0  0
 21 14  2  0  0  0  0
 21 11  1  0  0  0  0
 22  8  2  0  0  0  0
 23 24  1  0  0  0  0
 24 25  1  0  0  0  0
 25 26  1  0  0  0  0
 26 27  1  0  0  0  0
 27 29  1  0  0  0  0
 28 29  2  0  0  0  0
M  END
>  <MODEL>
3

>  <REMARK>
 VINA RESULT:      -8.8      2.841      8.604
  Name = 
  6 active torsions:
  status: ('A' for Active; 'I' for Inactive)
    1  A    between atoms: C_5  and  C_15
    2  A    between atoms: C_5  and  C_21
    3  A    between atoms: C_6  and  N_11
    4  A    between atoms: N_11  and  C_23
    5  A    between atoms: C_21  and  N_29
    6  A    between atoms: C_23  and  N_29
                            x       y       z     vdW  Elec       q    Type
                         _______ _______ _______ _____ _____    ______ ____

>  <TORSDO>
F 6

$$$$
=
 OpenBabel11072413473D

 29 32  0  0  1  0  0  0  0  0999 V2000
  161.6540  204.5570  147.0640 C   0  0  1  0  0  3  0  0  0  0  0  0
  161.7630  209.5830  150.8570 C   0  0  0  0  0  0  0  0  0  0  0  0
  161.0570  204.8460  152.1480 C   0  0  0  0  0  3  0  0  0  0  0  0
  161.1680  206.4990  153.9040 C   0  0  0  0  0  0  0  0  0  0  0  0
  161.6210  207.8060  149.2020 C   0  0  0  0  0  0  0  0  0  0  0  0
  161.5890  208.1970  150.5700 C   0  0  0  0  0  0  0  0  0  0  0  0
  161.0210  205.1730  153.5020 C   0  0  0  0  0  3  0  0  0  0  0  0
  161.9670  210.4780  149.8130 C   0  0  0  0  0  3  0  0  0  0  0  0
  160.9130  202.4580  147.9140 O   0  0  0  0  0  0  0  0  0  0  0  0
  161.7500  210.1760  152.2270 C   0  0  0  0  0  1  0  0  0  0  0  0
  161.2390  205.8390  151.1740 C   0  0  0  0  0  0  0  0  0  0  0  0
  161.4400  206.0000  147.4060 C   0  0  0  0  0  0  0  0  0  0  0  0
  163.1240  204.3000  146.7820 C   0  0  0  0  0  1  0  0  0  0  0  0
  161.4480  206.4520  148.8280 C   0  0  0  0  0  0  0  0  0  0  0  0
  161.0820  204.1290  149.4750 O   0  0  0  0  0  0  0  0  0  0  0  0
  161.2700  206.8370  146.4340 N   0  0  0  0  0  2  0  0  0  0  0  0
  161.3930  207.1940  151.5620 C   0  0  0  0  0  0  0  0  0  0  0  0
  161.3490  207.4950  152.9360 C   0  0  0  0  0  3  0  0  0  0  0  0
  161.1820  203.6620  148.1640 C   0  0  0  0  0  0  0  0  0  0  0  0
  161.8310  208.7500  148.2450 N   0  0  0  0  0  0  0  0  0  0  0  0
  161.2650  205.4760  149.8220 C   0  0  0  0  0  0  0  0  0  0  0  0
  161.9960  210.0370  148.5350 N   0  0  0  0  0  0  0  0  0  0  0  0
  161.1280  206.8140  155.2990 N   0  0  0  0  0  2  0  0  0  0  0  0
  160.5020  208.0110  155.8410 C   0  0  0  0  0  2  0  0  0  0  0  0
  161.5170  208.9970  156.1760 N   0  0  0  0  0  2  0  0  0  0  0  0
  160.9690  210.3020  155.8500 C   0  0  0  0  0  2  0  0  0  0  0  0
  159.5620  210.1520  155.2940 C   0  0  0  0  0  2  0  0  0  0  0  0
  158.4660  211.4050  153.4830 C   0  0  0  0  0  2  0  0  0  0  0  0
  159.1200  211.4220  154.6410 C   0  0  0  0  0  3  0  0  0  0  0  0
  1 13  1  1  0  0  0
  1 12  1  0  0  0  0
  1 19  1  0  0  0  0
  2 10  1  0  0  0  0
  3  7  1  0  0  0  0
  4 23  1  0  0  0  0
  5  6  2  0  0  0  0
  6  2  1  0  0  0  0
  6 17  1  0  0  0  0
  7  4  2  0  0  0  0
  8  2  2  0  0  0  0
  9 19  2  0  0  0  0
 11 17  1  0  0  0  0
 11  3  2  0  0  0  0
 12 14  1  0  0  0  0
 14  5  1  0  0  0  0
 14 21  2  0  0  0  0
 15 21  1  0  0  0  0
 16 12  2  0  0  0  0
 17 18  2  0  0  0  0
 18  4  1  0  0  0  0
 19 15  1  0  0  0  0
 20 22  2  0  0  0  0
 20  5  1  0  0  0  0
 21 11  1  0  0  0  0
 22  8  1  0  0  0  0
 23 24  1  0  0  0  0
 24 25  1  0  0  0  0
 26 25  1  0  0  0  0
 27 26  1  0  0  0  0
 28 29  2  0  0  0  0
 29 27  1  0  0  0  0
M  END
>  <MODEL>
4

>  <REMARK>
 VINA RESULT:      -8.2      2.681      7.203
  Name = 
  6 active torsions:
  status: ('A' for Active; 'I' for Inactive)
    1  A    between atoms: C_5  and  C_15
    2  A    between atoms: C_5  and  C_21
    3  A    between atoms: C_6  and  N_11
    4  A    between atoms: N_11  and  C_23
    5  A    between atoms: C_21  and  N_29
    6  A    between atoms: C_23  and  N_29
                            x       y       z     vdW  Elec       q    Type
                         _______ _______ _______ _____ _____    ______ ____

>  <TORSDO>
F 6

$$$$
=
 OpenBabel11072413473D

 29 32  0  0  1  0  0  0  0  0999 V2000
  160.8350  203.6140  144.8110 C   0  0  1  0  0  3  0  0  0  0  0  0
  161.0720  203.6320  151.1040 C   0  0  0  0  0  0  0  0  0  0  0  0
  161.7520  207.4810  148.0500 C   0  0  0  0  0  3  0  0  0  0  0  0
  161.7860  207.8960  150.4290 C   0  0  0  0  0  0  0  0  0  0  0  0
  161.0720  203.3710  148.6860 C   0  0  0  0  0  0  0  0  0  0  0  0
  161.1970  204.2280  149.8150 C   0  0  0  0  0  0  0  0  0  0  0  0
  161.8780  208.3650  149.1200 C   0  0  0  0  0  3  0  0  0  0  0  0
  160.8230  202.2680  151.2070 C   0  0  0  0  0  3  0  0  0  0  0  0
  161.5800  205.5260  143.6010 O   0  0  0  0  0  0  0  0  0  0  0  0
  161.1830  204.3700  152.3970 C   0  0  0  0  0  1  0  0  0  0  0  0
  161.5310  206.1140  148.2720 C   0  0  0  0  0  0  0  0  0  0  0  0
  161.1010  203.0130  146.1580 C   0  0  0  0  0  0  0  0  0  0  0  0
  159.3440  203.5970  144.5180 C   0  0  0  0  0  1  0  0  0  0  0  0
  161.1910  203.8790  147.3700 C   0  0  0  0  0  0  0  0  0  0  0  0
  161.5450  205.7760  145.8800 O   0  0  0  0  0  0  0  0  0  0  0  0
  161.2290  201.7280  146.2370 N   0  0  0  0  0  2  0  0  0  0  0  0
  161.4320  205.6150  149.5960 C   0  0  0  0  0  0  0  0  0  0  0  0
  161.5680  206.5320  150.6560 C   0  0  0  0  0  3  0  0  0  0  0  0
  161.3540  205.0130  144.7270 C   0  0  0  0  0  0  0  0  0  0  0  0
  160.8240  202.0470  148.8800 N   0  0  0  0  0  0  0  0  0  0  0  0
  161.4140  205.2520  147.1750 C   0  0  0  0  0  0  0  0  0  0  0  0
  160.7050  201.5130  150.0920 N   0  0  0  0  0  0  0  0  0  0  0  0
  161.9200  208.8200  151.5120 N   0  0  0  0  0  2  0  0  0  0  0  0
  161.2460  210.1100  151.5650 C   0  0  0  0  0  2  0  0  0  0  0  0
  161.8740  211.0380  150.6380 N   0  0  0  0  0  2  0  0  0  0  0  0
  160.9630  212.1570  150.4720 C   0  0  0  0  0  2  0  0  0  0  0  0
  160.9910  212.6440  149.0320 C   0  0  0  0  0  2  0  0  0  0  0  0
  163.1430  212.8470  147.8590 C   0  0  0  0  0  2  0  0  0  0  0  0
  162.1630  212.0670  148.3070 C   0  0  0  0  0  3  0  0  0  0  0  0
  1 13  1  1  0  0  0
  1 12  1  0  0  0  0
  2  8  1  0  0  0  0
  2 10  1  0  0  0  0
  3 11  2  0  0  0  0
  3  7  1  0  0  0  0
  4 18  1  0  0  0  0
  4 23  1  0  0  0  0
  5 20  2  0  0  0  0
  5  6  1  0  0  0  0
  6  2  2  0  0  0  0
  7  4  2  0  0  0  0
  9 19  2  0  0  0  0
 11 17  1  0  0  0  0
 12 16  2  0  0  0  0
 12 14  1  0  0  0  0
 14  5  1  0  0  0  0
 15 21  1  0  0  0  0
 17  6  1  0  0  0  0
 17 18  2  0  0  0  0
 19  1  1  0  0  0  0
 19 15  1  0  0  0  0
 20 22  1  0  0  0  0
 21 14  2  0  0  0  0
 21 11  1  0  0  0  0
 22  8  2  0  0  0  0
 23 24  1  0  0  0  0
 25 24  1  0  0  0  0
 26 25  1  0  0  0  0
 27 26  1  0  0  0  0
 28 29  2  0  0  0  0
 29 27  1  0  0  0  0
M  END
>  <MODEL>
5

>  <REMARK>
 VINA RESULT:      -7.9      3.164      8.204
  Name = 
  6 active torsions:
  status: ('A' for Active; 'I' for Inactive)
    1  A    between atoms: C_5  and  C_15
    2  A    between atoms: C_5  and  C_21
    3  A    between atoms: C_6  and  N_11
    4  A    between atoms: N_11  and  C_23
    5  A    between atoms: C_21  and  N_29
    6  A    between atoms: C_23  and  N_29
                            x       y       z     vdW  Elec       q    Type
                         _______ _______ _______ _____ _____    ______ ____

>  <TORSDO>
F 6

$$$$
=
 OpenBabel11072413473D

 29 32  0  0  1  0  0  0  0  0999 V2000
  160.8830  201.4980  148.3900 C   0  0  1  0  0  3  0  0  0  0  0  0
  161.9590  207.6450  149.2360 C   0  0  0  0  0  0  0  0  0  0  0  0
  160.7420  204.2950  152.6860 C   0  0  0  0  0  3  0  0  0  0  0  0
  161.2110  206.5510  153.4060 C   0  0  0  0  0  0  0  0  0  0  0  0
  161.4510  205.3360  148.6640 C   0  0  0  0  0  0  0  0  0  0  0  0
  161.5810  206.3390  149.6660 C   0  0  0  0  0  0  0  0  0  0  0  0
  160.8590  205.2370  153.7060 C   0  0  0  0  0  3  0  0  0  0  0  0
  162.1950  207.8820  147.8860 C   0  0  0  0  0  3  0  0  0  0  0  0
  159.9430  200.2150  150.1640 O   0  0  0  0  0  0  0  0  0  0  0  0
  162.1350  208.8200  150.1400 C   0  0  0  0  0  1  0  0  0  0  0  0
  160.9740  204.6520  151.3490 C   0  0  0  0  0  0  0  0  0  0  0  0
  160.8900  202.9400  147.9830 C   0  0  0  0  0  0  0  0  0  0  0  0
  162.2790  200.9140  148.2620 C   0  0  0  0  0  1  0  0  0  0  0  0
  161.0720  204.0160  149.0030 C   0  0  0  0  0  0  0  0  0  0  0  0
  160.4570  202.3830  150.7060 O   0  0  0  0  0  0  0  0  0  0  0  0
  160.7540  203.2190  146.7270 N   0  0  0  0  0  2  0  0  0  0  0  0
  161.3360  205.9850  151.0230 C   0  0  0  0  0  0  0  0  0  0  0  0
  161.4430  206.9140  152.0740 C   0  0  0  0  0  3  0  0  0  0  0  0
  160.3880  201.3310  149.7910 C   0  0  0  0  0  0  0  0  0  0  0  0
  161.7050  205.6560  147.3660 N   0  0  0  0  0  0  0  0  0  0  0  0
  160.8420  203.6830  150.3480 C   0  0  0  0  0  0  0  0  0  0  0  0
  162.0620  206.8800  146.9880 N   0  0  0  0  0  0  0  0  0  0  0  0
  161.3260  207.5020  154.4690 N   0  0  0  0  0  2  0  0  0  0  0  0
  160.3820  207.6000  155.5730 C   0  0  0  0  0  2  0  0  0  0  0  0
  160.5110  208.8930  156.2260 N   0  0  0  0  0  2  0  0  0  0  0  0
  159.7280  209.8410  155.4530 C   0  0  0  0  0  2  0  0  0  0  0  0
  160.5890  211.0320  155.0620 C   0  0  0  0  0  2  0  0  0  0  0  0
  160.0410  210.3650  152.7590 C   0  0  0  0  0  2  0  0  0  0  0  0
  160.8320  211.0410  153.5880 C   0  0  0  0  0  3  0  0  0  0  0  0
  1 13  1  1  0  0  0
  1 19  1  0  0  0  0
  2  6  1  0  0  0  0
  2 10  1  0  0  0  0
  3  7  1  0  0  0  0
  4  7  2  0  0  0  0
  4 23  1  0  0  0  0
  5 14  1  0  0  0  0
  5  6  2  0  0  0  0
  6 17  1  0  0  0  0
  8  2  2  0  0  0  0
 11  3  2  0  0  0  0
 12  1  1  0  0  0  0
 12 14  1  0  0  0  0
 14 21  2  0  0  0  0
 16 12  2  0  0  0  0
 17 11  1  0  0  0  0
 17 18  2  0  0  0  0
 18  4  1  0  0  0  0
 19  9  2  0  0  0  0
 19 15  1  0  0  0  0
 20  5  1  0  0  0  0
 21 15  1  0  0  0  0
 21 11  1  0  0  0  0
 22 20  2  0  0  0  0
 22  8  1  0  0  0  0
 23 24  1  0  0  0  0
 24 25  1  0  0  0  0
 26 25  1  0  0  0  0
 27 26  1  0  0  0  0
 28 29  2  0  0  0  0
 29 27  1  0  0  0  0
M  END
>  <MODEL>
6

>  <REMARK>
 VINA RESULT:      -7.2      2.710      7.332
  Name = 
  6 active torsions:
  status: ('A' for Active; 'I' for Inactive)
    1  A    between atoms: C_5  and  C_15
    2  A    between atoms: C_5  and  C_21
    3  A    between atoms: C_6  and  N_11
    4  A    between atoms: N_11  and  C_23
    5  A    between atoms: C_21  and  N_29
    6  A    between atoms: C_23  and  N_29
                            x       y       z     vdW  Elec       q    Type
                         _______ _______ _______ _____ _____    ______ ____

>  <TORSDO>
F 6

$$$$
=
 OpenBabel11072413473D

 29 32  0  0  1  0  0  0  0  0999 V2000
  161.0040  209.7090  154.6240 C   0  0  1  0  0  3  0  0  0  0  0  0
  161.2310  204.4370  151.1870 C   0  0  0  0  0  0  0  0  0  0  0  0
  161.5970  209.1110  149.5670 C   0  0  0  0  0  3  0  0  0  0  0  0
  161.8650  207.3270  147.9630 C   0  0  0  0  0  0  0  0  0  0  0  0
  160.9760  206.3400  152.6810 C   0  0  0  0  0  0  0  0  0  0  0  0
  161.2110  205.8520  151.3640 C   0  0  0  0  0  0  0  0  0  0  0  0
  161.8340  208.6870  148.2610 C   0  0  0  0  0  3  0  0  0  0  0  0
  161.0390  203.6060  152.2850 C   0  0  0  0  0  3  0  0  0  0  0  0
  160.8220  211.8180  153.5310 O   0  0  0  0  0  0  0  0  0  0  0  0
  161.4520  203.7470  149.8820 C   0  0  0  0  0  1  0  0  0  0  0  0
  161.3860  208.1820  150.5960 C   0  0  0  0  0  0  0  0  0  0  0  0
  160.6570  208.2880  154.3000 C   0  0  0  0  0  0  0  0  0  0  0  0
  162.3870  209.7780  155.2500 C   0  0  0  0  0  1  0  0  0  0  0  0
  160.9330  207.7300  152.9440 C   0  0  0  0  0  0  0  0  0  0  0  0
  161.0960  210.0230  152.1310 O   0  0  0  0  0  0  0  0  0  0  0  0
  160.1320  207.5610  155.2330 N   0  0  0  0  0  2  0  0  0  0  0  0
  161.4150  206.7910  150.3140 C   0  0  0  0  0  0  0  0  0  0  0  0
  161.6530  206.3940  148.9850 C   0  0  0  0  0  3  0  0  0  0  0  0
  160.9530  210.5730  153.4060 C   0  0  0  0  0  0  0  0  0  0  0  0
  160.8030  205.4530  153.6980 N   0  0  0  0  0  0  0  0  0  0  0  0
  161.1450  208.6410  151.8960 C   0  0  0  0  0  0  0  0  0  0  0  0
  160.8310  204.1370  153.5110 N   0  0  0  0  0  0  0  0  0  0  0  0
  162.1090  206.9130  146.6150 N   0  0  0  0  0  2  0  0  0  0  0  0
  162.2020  205.5210  146.1990 C   0  0  0  0  0  2  0  0  0  0  0  0
  161.5800  205.3460  144.8970 N   0  0  0  0  0  2  0  0  0  0  0  0
  160.9760  204.0250  144.8860 C   0  0  0  0  0  2  0  0  0  0  0  0
  161.3610  203.2650  146.1460 C   0  0  0  0  0  2  0  0  0  0  0  0
  160.0810  201.4570  145.0780 C   0  0  0  0  0  2  0  0  0  0  0  0
  160.8310  201.8690  146.0960 C   0  0  0  0  0  3  0  0  0  0  0  0
  1 13  1  6  0  0  0
  2  6  2  0  0  0  0
  2  8  1  0  0  0  0
  3 11  1  0  0  0  0
  4  7  1  0  0  0  0
  4 18  2  0  0  0  0
  5 14  1  0  0  0  0
  5 20  2  0  0  0  0
  6  5  1  0  0  0  0
  7  3  2  0  0  0  0
  8 22  2  0  0  0  0
 10  2  1  0  0  0  0
 11 21  1  0  0  0  0
 12  1  1  0  0  0  0
 12 16  2  0  0  0  0
 14 12  1  0  0  0  0
 15 19  1  0  0  0  0
 17 11  2  0  0  0  0
 17  6  1  0  0  0  0
 18 17  1  0  0  0  0
 19  9  2  0  0  0  0
 19  1  1  0  0  0  0
 21 15  1  0  0  0  0
 21 14  2  0  0  0  0
 22 20  1  0  0  0  0
 23  4  1  0  0  0  0
 24 23  1  0  0  0  0
 25 24  1  0  0  0  0
 26 25  1  0  0  0  0
 26 27  1  0  0  0  0
 28 29  2  0  0  0  0
 29 27  1  0  0  0  0
M  END
>  <MODEL>
7

>  <REMARK>
 VINA RESULT:      -7.2      2.401      3.929
  Name = 
  6 active torsions:
  status: ('A' for Active; 'I' for Inactive)
    1  A    between atoms: C_5  and  C_15
    2  A    between atoms: C_5  and  C_21
    3  A    between atoms: C_6  and  N_11
    4  A    between atoms: N_11  and  C_23
    5  A    between atoms: C_21  and  N_29
    6  A    between atoms: C_23  and  N_29
                            x       y       z     vdW  Elec       q    Type
                         _______ _______ _______ _____ _____    ______ ____

>  <TORSDO>
F 6

$$$$
=
 OpenBabel11072413473D

 29 32  0  0  1  0  0  0  0  0999 V2000
  161.2380  206.0040  152.3110 C   0  0  1  0  0  3  0  0  0  0  0  0
  161.1380  201.6480  147.7640 C   0  0  0  0  0  0  0  0  0  0  0  0
  161.2010  206.5780  147.2160 C   0  0  0  0  0  3  0  0  0  0  0  0
  161.3010  205.2110  145.2290 C   0  0  0  0  0  0  0  0  0  0  0  0
  161.0350  203.1560  149.6700 C   0  0  0  0  0  0  0  0  0  0  0  0
  161.1110  202.9850  148.2590 C   0  0  0  0  0  0  0  0  0  0  0  0
  161.2800  206.4680  145.8300 C   0  0  0  0  0  3  0  0  0  0  0  0
  161.1030  200.5850  148.6590 C   0  0  0  0  0  3  0  0  0  0  0  0
  160.8770  208.2920  151.7560 O   0  0  0  0  0  0  0  0  0  0  0  0
  161.2070  201.2780  146.3200 C   0  0  0  0  0  1  0  0  0  0  0  0
  161.1410  205.4330  148.0250 C   0  0  0  0  0  0  0  0  0  0  0  0
  160.8820  204.6760  151.7160 C   0  0  0  0  0  0  0  0  0  0  0  0
  162.6870  205.9990  152.7680 C   0  0  0  0  0  1  0  0  0  0  0  0
  160.9960  204.4480  150.2450 C   0  0  0  0  0  0  0  0  0  0  0  0
  161.0090  206.8700  149.9620 O   0  0  0  0  0  0  0  0  0  0  0  0
  160.4940  203.7350  152.5150 N   0  0  0  0  0  2  0  0  0  0  0  0
  161.1620  204.1440  147.4330 C   0  0  0  0  0  0  0  0  0  0  0  0
  161.2390  204.0650  146.0300 C   0  0  0  0  0  3  0  0  0  0  0  0
  161.0160  207.1140  151.3360 C   0  0  0  0  0  0  0  0  0  0  0  0
  161.0100  202.0570  150.4720 N   0  0  0  0  0  0  0  0  0  0  0  0
  161.0560  205.5790  149.4140 C   0  0  0  0  0  0  0  0  0  0  0  0
  161.0410  200.8180  149.9890 N   0  0  0  0  0  0  0  0  0  0  0  0
  161.3820  205.1200  143.8030 N   0  0  0  0  0  2  0  0  0  0  0  0
  161.5630  206.2690  142.9280 C   0  0  0  0  0  2  0  0  0  0  0  0
  161.9160  205.8250  141.5890 N   0  0  0  0  0  2  0  0  0  0  0  0
  161.9910  207.0100  140.7520 C   0  0  0  0  0  2  0  0  0  0  0  0
  162.3370  206.6200  139.3240 C   0  0  0  0  0  2  0  0  0  0  0  0
  161.7510  207.3240  137.0410 C   0  0  0  0  0  2  0  0  0  0  0  0
  161.6220  207.5020  138.3530 C   0  0  0  0  0  3  0  0  0  0  0  0
  1 13  1  6  0  0  0
  2  6  2  0  0  0  0
  2  8  1  0  0  0  0
  3 11  1  0  0  0  0
  4  7  1  0  0  0  0
  4 18  2  0  0  0  0
  5 14  1  0  0  0  0
  5 20  2  0  0  0  0
  6  5  1  0  0  0  0
  7  3  2  0  0  0  0
  8 22  2  0  0  0  0
 10  2  1  0  0  0  0
 11 21  1  0  0  0  0
 12  1  1  0  0  0  0
 12 16  2  0  0  0  0
 14 12  1  0  0  0  0
 15 19  1  0  0  0  0
 17 11  2  0  0  0  0
 17  6  1  0  0  0  0
 18 17  1  0  0  0  0
 19  9  2  0  0  0  0
 19  1  1  0  0  0  0
 21 15  1  0  0  0  0
 21 14  2  0  0  0  0
 22 20  1  0  0  0  0
 23  4  1  0  0  0  0
 24 23  1  0  0  0  0
 25 24  1  0  0  0  0
 26 25  1  0  0  0  0
 27 26  1  0  0  0  0
 28 29  2  0  0  0  0
 29 27  1  0  0  0  0
M  END
>  <MODEL>
8

>  <REMARK>
 VINA RESULT:      -7.2      3.176      6.129
  Name = 
  6 active torsions:
  status: ('A' for Active; 'I' for Inactive)
    1  A    between atoms: C_5  and  C_15
    2  A    between atoms: C_5  and  C_21
    3  A    between atoms: C_6  and  N_11
    4  A    between atoms: N_11  and  C_23
    5  A    between atoms: C_21  and  N_29
    6  A    between atoms: C_23  and  N_29
                            x       y       z     vdW  Elec       q    Type
                         _______ _______ _______ _____ _____    ______ ____

>  <TORSDO>
F 6

$$$$
=
 OpenBabel11072413473D

 29 32  0  0  1  0  0  0  0  0999 V2000
  161.9700  210.1440  151.5580 C   0  0  1  0  0  3  0  0  0  0  0  0
  160.9740  203.9520  150.9960 C   0  0  0  0  0  0  0  0  0  0  0  0
  161.7470  207.2240  147.3500 C   0  0  0  0  0  3  0  0  0  0  0  0
  161.5340  204.8920  146.7600 C   0  0  0  0  0  0  0  0  0  0  0  0
  161.2010  206.3340  151.4320 C   0  0  0  0  0  0  0  0  0  0  0  0
  161.1750  205.2690  150.4890 C   0  0  0  0  0  0  0  0  0  0  0  0
  161.7350  206.2190  146.3840 C   0  0  0  0  0  3  0  0  0  0  0  0
  160.8280  203.7600  152.3660 C   0  0  0  0  0  3  0  0  0  0  0  0
  161.9270  211.5230  149.6150 O   0  0  0  0  0  0  0  0  0  0  0  0
  160.9100  202.7180  150.1590 C   0  0  0  0  0  1  0  0  0  0  0  0
  161.5590  206.9190  148.7050 C   0  0  0  0  0  0  0  0  0  0  0  0
  161.3870  208.8250  151.9620 C   0  0  0  0  0  0  0  0  0  0  0  0
  163.4240  210.2270  151.9900 C   0  0  0  0  0  1  0  0  0  0  0  0
  161.3870  207.6730  151.0130 C   0  0  0  0  0  0  0  0  0  0  0  0
  161.7480  209.2730  149.2090 O   0  0  0  0  0  0  0  0  0  0  0  0
  160.9060  208.7120  153.1580 N   0  0  0  0  0  2  0  0  0  0  0  0
  161.3550  205.5740  149.1100 C   0  0  0  0  0  0  0  0  0  0  0  0
  161.3440  204.5810  148.1120 C   0  0  0  0  0  3  0  0  0  0  0  0
  161.8650  210.3560  150.0820 C   0  0  0  0  0  0  0  0  0  0  0  0
  161.0530  206.0540  152.7560 N   0  0  0  0  0  0  0  0  0  0  0  0
  161.5710  207.9530  149.6490 C   0  0  0  0  0  0  0  0  0  0  0  0
  160.8720  204.8160  153.2080 N   0  0  0  0  0  0  0  0  0  0  0  0
  161.5250  203.8760  145.7530 N   0  0  0  0  0  2  0  0  0  0  0  0
  161.3510  202.4580  146.0350 C   0  0  0  0  0  2  0  0  0  0  0  0
  160.4570  201.8610  145.0560 N   0  0  0  0  0  2  0  0  0  0  0  0
  160.0110  200.5920  145.6040 C   0  0  0  0  0  2  0  0  0  0  0  0
  161.0560  200.0410  146.5610 C   0  0  0  0  0  2  0  0  0  0  0  0
  161.2020  198.2460  144.8850 C   0  0  0  0  0  2  0  0  0  0  0  0
  161.5900  198.7390  146.0590 C   0  0  0  0  0  3  0  0  0  0  0  0
  1 12  1  0  0  0  0
  1 13  1  6  0  0  0
  2  8  1  0  0  0  0
  3 11  1  0  0  0  0
  4 18  2  0  0  0  0
  5 20  2  0  0  0  0
  6  2  2  0  0  0  0
  6  5  1  0  0  0  0
  7  4  1  0  0  0  0
  7  3  2  0  0  0  0
  8 22  2  0  0  0  0
  9 19  2  0  0  0  0
 10  2  1  0  0  0  0
 11 17  2  0  0  0  0
 11 21  1  0  0  0  0
 12 16  2  0  0  0  0
 14  5  1  0  0  0  0
 14 12  1  0  0  0  0
 15 21  1  0  0  0  0
 15 19  1  0  0  0  0
 17  6  1  0  0  0  0
 18 17  1  0  0  0  0
 19  1  1  0  0  0  0
 20 22  1  0  0  0  0
 21 14  2  0  0  0  0
 23 24  1  0  0  0  0
 23  4  1  0  0  0  0
 25 26  1  0  0  0  0
 25 24  1  0  0  0  0
 26 27  1  0  0  0  0
 28 29  2  0  0  0  0
 29 27  1  0  0  0  0
M  END
>  <MODEL>
9

>  <REMARK>
 VINA RESULT:      -7.0      2.724      4.584
  Name = 
  6 active torsions:
  status: ('A' for Active; 'I' for Inactive)
    1  A    between atoms: C_5  and  C_15
    2  A    between atoms: C_5  and  C_21
    3  A    between atoms: C_6  and  N_11
    4  A    between atoms: N_11  and  C_23
    5  A    between atoms: C_21  and  N_29
    6  A    between atoms: C_23  and  N_29
                            x       y       z     vdW  Elec       q    Type
                         _______ _______ _______ _____ _____    ______ ____

>  <TORSDO>
F 6

$$$$
