=
 OpenBabel11072412243D

 27 31  0  0  1  0  0  0  0  0999 V2000
  162.2700  208.4780  150.6640 N   0  0  0  0  0  0  0  0  0  0  0  0
  160.9740  204.0240  149.9510 N   0  0  0  0  0  0  0  0  0  0  0  0
  161.8980  208.4420  148.3170 N   0  0  0  0  0  0  0  0  0  0  0  0
  161.4050  206.3770  147.2410 N   0  0  0  0  0  2  0  0  0  0  0  0
  161.2830  205.1030  147.8450 C   0  0  0  0  0  0  0  0  0  0  0  0
  161.1440  202.7150  147.9340 C   0  0  0  0  0  3  0  0  0  0  0  0
  160.8380  201.5740  150.1650 C   0  0  0  0  0  1  0  0  0  0  0  0
  160.9840  202.8040  149.3360 C   0  0  0  0  0  0  0  0  0  0  0  0
  162.2060  209.1290  149.5390 C   0  0  0  0  0  3  0  0  0  0  0  0
  161.2920  203.8880  147.1760 C   0  0  0  0  0  3  0  0  0  0  0  0
  161.0420  206.5760  149.6710 C   0  0  2  0  0  3  0  0  0  0  0  0
  161.1450  205.1560  149.2150 C   0  0  0  0  0  0  0  0  0  0  0  0
  161.3680  207.2540  148.3650 C   0  0  0  0  0  0  0  0  0  0  0  0
  162.0670  207.0160  150.7310 C   0  0  2  0  0  3  0  0  0  0  0  0
  160.8440  209.8820  153.4360 C   0  0  1  0  0  3  0  0  0  0  0  0
  162.0830  205.4800  152.5330 O   0  0  0  0  0  0  0  0  0  0  0  0
  160.9160  207.1660  154.4690 C   0  0  0  0  0  2  0  0  0  0  0  0
  160.4030  208.7450  152.5370 C   0  0  0  0  0  2  0  0  0  0  0  0
  160.0230  211.7590  154.4200 C   0  0  0  0  0  0  0  0  0  0  0  0
  161.6990  206.6120  152.1320 C   0  0  0  0  0  0  0  0  0  0  0  0
  160.2090  211.1530  153.1480 N   0  0  0  0  0  2  0  0  0  0  0  0
  160.3550  210.8630  155.5750 C   0  0  2  0  0  3  0  0  0  0  0  0
  161.0190  207.5080  153.0300 N   0  0  0  0  0  0  0  0  0  0  0  0
  160.3850  209.5440  154.8330 C   0  0  2  0  0  3  0  0  0  0  0  0
  161.1780  208.3810  155.3890 C   0  0  0  0  0  2  0  0  0  0  0  0
  159.6030  212.9390  154.5450 O   0  0  0  0  0  0  0  0  0  0  0  0
  159.2140  210.8210  156.5850 C   0  0  0  0  0  1  0  0  0  0  0  0
  1 14  1  0  0  0  0
  3 13  2  0  0  0  0
  3  9  1  0  0  0  0
  4  5  1  0  0  0  0
  4 13  1  0  0  0  0
  5 12  1  0  0  0  0
  6  8  2  0  0  0  0
  8  2  1  0  0  0  0
  8  7  1  0  0  0  0
  9  1  2  0  0  0  0
 10  5  2  0  0  0  0
 10  6  1  0  0  0  0
 11 13  1  6  0  0  0
 11 14  1  0  0  0  0
 12 11  1  0  0  0  0
 12  2  2  0  0  0  0
 14 20  1  1  0  0  0
 15 18  1  6  0  0  0
 15 24  1  0  0  0  0
 17 25  1  0  0  0  0
 18 23  1  0  0  0  0
 19 26  2  0  0  0  0
 19 22  1  0  0  0  0
 20 16  2  0  0  0  0
 20 23  1  0  0  0  0
 21 15  1  0  0  0  0
 21 19  1  0  0  0  0
 22 27  1  1  0  0  0
 23 17  1  0  0  0  0
 24 25  1  1  0  0  0
 24 22  1  0  0  0  0
M  END
>  <MODEL>
1

>  <REMARK>
 VINA RESULT:     -10.0      0.000      0.000
  Name = 
  1 active torsions:
  status: ('A' for Active; 'I' for Inactive)
    1  A    between atoms: C_9  and  C_27
                            x       y       z     vdW  Elec       q    Type
                         _______ _______ _______ _____ _____    ______ ____

>  <TORSDO>
F 1

$$$$
=
 OpenBabel11072412243D

 27 31  0  0  1  0  0  0  0  0999 V2000
  162.4210  206.2230  151.6710 N   0  0  0  0  0  0  0  0  0  0  0  0
  160.4220  210.4600  151.9530 N   0  0  0  0  0  0  0  0  0  0  0  0
  161.5710  206.2200  153.8910 N   0  0  0  0  0  0  0  0  0  0  0  0
  160.5950  208.2040  154.7730 N   0  0  0  0  0  2  0  0  0  0  0  0
  160.4300  209.4450  154.1140 C   0  0  0  0  0  0  0  0  0  0  0  0
  159.9960  211.7910  153.9170 C   0  0  0  0  0  3  0  0  0  0  0  0
  160.0070  212.8670  151.6340 C   0  0  0  0  0  1  0  0  0  0  0  0
  160.1420  211.6730  152.5160 C   0  0  0  0  0  0  0  0  0  0  0  0
  162.2140  205.5760  152.7810 C   0  0  0  0  0  3  0  0  0  0  0  0
  160.1390  210.6540  154.7290 C   0  0  0  0  0  3  0  0  0  0  0  0
  160.7720  207.9430  152.3280 C   0  0  2  0  0  3  0  0  0  0  0  0
  160.5870  209.3660  152.7470 C   0  0  0  0  0  0  0  0  0  0  0  0
  160.9090  207.3240  153.6950 C   0  0  0  0  0  0  0  0  0  0  0  0
  162.0430  207.6430  151.5150 C   0  0  2  0  0  3  0  0  0  0  0  0
  161.6230  204.6250  148.7310 C   0  0  1  0  0  3  0  0  0  0  0  0
  162.2770  209.1390  149.6940 O   0  0  0  0  0  0  0  0  0  0  0  0
  161.6600  207.3160  147.6330 C   0  0  0  0  0  2  0  0  0  0  0  0
  160.9190  205.7330  149.4860 C   0  0  0  0  0  2  0  0  0  0  0  0
  161.1760  202.6620  147.6780 C   0  0  0  0  0  0  0  0  0  0  0  0
  161.9210  207.9840  150.0550 C   0  0  0  0  0  0  0  0  0  0  0  0
  161.0570  203.3070  148.9380 N   0  0  0  0  0  2  0  0  0  0  0  0
  161.6480  203.5630  146.5760 C   0  0  2  0  0  3  0  0  0  0  0  0
  161.5090  207.0120  149.0760 N   0  0  0  0  0  0  0  0  0  0  0  0
  161.4180  204.8930  147.2600 C   0  0  2  0  0  3  0  0  0  0  0  0
  162.2010  206.1130  146.8260 C   0  0  0  0  0  2  0  0  0  0  0  0
  160.8920  201.4460  147.5170 O   0  0  0  0  0  0  0  0  0  0  0  0
  160.7260  203.4810  145.3640 C   0  0  0  0  0  1  0  0  0  0  0  0
  1  9  2  0  0  0  0
  2  8  2  0  0  0  0
  2 12  1  0  0  0  0
  5 10  1  0  0  0  0
  5  4  1  0  0  0  0
  6 10  2  0  0  0  0
  7  8  1  0  0  0  0
  8  6  1  0  0  0  0
  9  3  1  0  0  0  0
 11 12  1  1  0  0  0
 11 13  1  0  0  0  0
 12  5  2  0  0  0  0
 13  3  2  0  0  0  0
 13  4  1  0  0  0  0
 14 20  1  6  0  0  0
 14  1  1  0  0  0  0
 14 11  1  0  0  0  0
 15 21  1  0  0  0  0
 15 18  1  1  0  0  0
 16 20  2  0  0  0  0
 17 23  1  0  0  0  0
 19 21  1  0  0  0  0
 22 27  1  6  0  0  0
 22 24  1  0  0  0  0
 22 19  1  0  0  0  0
 23 18  1  0  0  0  0
 23 20  1  0  0  0  0
 24 25  1  6  0  0  0
 24 15  1  0  0  0  0
 25 17  1  0  0  0  0
 26 19  2  0  0  0  0
M  END
>  <MODEL>
2

>  <REMARK>
 VINA RESULT:      -9.7      2.047      8.105
  Name = 
  1 active torsions:
  status: ('A' for Active; 'I' for Inactive)
    1  A    between atoms: C_9  and  C_27
                            x       y       z     vdW  Elec       q    Type
                         _______ _______ _______ _____ _____    ______ ____

>  <TORSDO>
F 1

$$$$
=
 OpenBabel11072412243D

 27 31  0  0  1  0  0  0  0  0999 V2000
  160.6450  204.4360  151.5280 N   0  0  0  0  0  0  0  0  0  0  0  0
  161.3650  204.5400  146.8910 N   0  0  0  0  0  0  0  0  0  0  0  0
  160.8360  202.1250  151.0070 N   0  0  0  0  0  0  0  0  0  0  0  0
  161.0070  201.4490  148.7310 N   0  0  0  0  0  2  0  0  0  0  0  0
  161.0270  202.2820  147.5880 C   0  0  0  0  0  0  0  0  0  0  0  0
  160.8960  202.8280  145.2610 C   0  0  0  0  0  3  0  0  0  0  0  0
  161.2340  205.2190  144.5270 C   0  0  0  0  0  1  0  0  0  0  0  0
  161.1690  204.1750  145.5890 C   0  0  0  0  0  0  0  0  0  0  0  0
  160.7000  203.2040  151.9430 C   0  0  0  0  0  3  0  0  0  0  0  0
  160.8290  201.8640  146.2800 C   0  0  0  0  0  3  0  0  0  0  0  0
  161.5690  203.7720  149.3340 C   0  0  2  0  0  3  0  0  0  0  0  0
  161.2710  203.6070  147.8780 C   0  0  0  0  0  0  0  0  0  0  0  0
  161.2280  202.3770  149.7910 C   0  0  0  0  0  0  0  0  0  0  0  0
  160.6830  204.7760  150.0910 C   0  0  2  0  0  3  0  0  0  0  0  0
  160.8310  207.2910  153.3590 C   0  0  1  0  0  3  0  0  0  0  0  0
  161.0840  206.6830  148.7440 O   0  0  0  0  0  0  0  0  0  0  0  0
  161.5810  208.5140  150.8310 C   0  0  0  0  0  2  0  0  0  0  0  0
  161.6430  206.4830  152.3680 C   0  0  0  0  0  2  0  0  0  0  0  0
  160.9770  208.1530  155.4570 C   0  0  0  0  0  0  0  0  0  0  0  0
  161.1050  206.2080  149.9120 C   0  0  0  0  0  0  0  0  0  0  0  0
  161.0420  206.9240  154.7450 N   0  0  0  0  0  2  0  0  0  0  0  0
  160.9000  209.3630  154.5750 C   0  0  2  0  0  3  0  0  0  0  0  0
  161.4320  207.0520  151.0320 N   0  0  0  0  0  0  0  0  0  0  0  0
  161.3190  208.7170  153.2710 C   0  0  2  0  0  3  0  0  0  0  0  0
  160.9120  209.3400  151.9530 C   0  0  0  0  0  2  0  0  0  0  0  0
  160.9970  208.2010  156.7140 O   0  0  0  0  0  0  0  0  0  0  0  0
  161.9560  210.3930  154.9610 C   0  0  0  0  0  1  0  0  0  0  0  0
  1  9  2  0  0  0  0
  2 12  1  0  0  0  0
  3  9  1  0  0  0  0
  4 13  1  0  0  0  0
  5 12  2  0  0  0  0
  5  4  1  0  0  0  0
  6  8  1  0  0  0  0
  6 10  2  0  0  0  0
  7  8  1  0  0  0  0
  8  2  2  0  0  0  0
 10  5  1  0  0  0  0
 11 12  1  6  0  0  0
 11 13  1  0  0  0  0
 11 14  1  0  0  0  0
 13  3  2  0  0  0  0
 14 20  1  1  0  0  0
 14  1  1  0  0  0  0
 15 18  1  6  0  0  0
 15 21  1  0  0  0  0
 16 20  2  0  0  0  0
 17 23  1  0  0  0  0
 17 25  1  0  0  0  0
 19 26  2  0  0  0  0
 20 23  1  0  0  0  0
 21 19  1  0  0  0  0
 22 27  1  1  0  0  0
 22 19  1  0  0  0  0
 23 18  1  0  0  0  0
 24 25  1  6  0  0  0
 24 15  1  0  0  0  0
 24 22  1  0  0  0  0
M  END
>  <MODEL>
3

>  <REMARK>
 VINA RESULT:      -9.1      2.155      3.973
  Name = 
  1 active torsions:
  status: ('A' for Active; 'I' for Inactive)
    1  A    between atoms: C_9  and  C_27
                            x       y       z     vdW  Elec       q    Type
                         _______ _______ _______ _____ _____    ______ ____

>  <TORSDO>
F 1

$$$$
=
 OpenBabel11072412243D

 27 31  0  0  1  0  0  0  0  0999 V2000
  161.5320  207.0660  150.2740 N   0  0  0  0  0  0  0  0  0  0  0  0
  160.8740  207.4680  154.9050 N   0  0  0  0  0  0  0  0  0  0  0  0
  161.8470  209.3960  150.6160 N   0  0  0  0  0  0  0  0  0  0  0  0
  161.4410  210.3290  152.7690 N   0  0  0  0  0  2  0  0  0  0  0  0
  161.0300  209.6450  153.9360 C   0  0  0  0  0  0  0  0  0  0  0  0
  160.1720  209.4040  156.1580 C   0  0  0  0  0  3  0  0  0  0  0  0
  159.9890  207.1000  157.1730 C   0  0  0  0  0  1  0  0  0  0  0  0
  160.3590  208.0070  156.0500 C   0  0  0  0  0  0  0  0  0  0  0  0
  161.8540  208.2270  149.7840 C   0  0  0  0  0  3  0  0  0  0  0  0
  160.5190  210.2360  155.0810 C   0  0  0  0  0  3  0  0  0  0  0  0
  161.8630  207.9080  152.5750 C   0  0  2  0  0  3  0  0  0  0  0  0
  161.1830  208.2770  153.8540 C   0  0  0  0  0  0  0  0  0  0  0  0
  161.8400  209.2610  151.9120 C   0  0  0  0  0  0  0  0  0  0  0  0
  161.1140  206.9030  151.6830 C   0  0  2  0  0  3  0  0  0  0  0  0
  160.9320  203.8910  148.8670 C   0  0  1  0  0  3  0  0  0  0  0  0
  161.1560  205.2060  153.3340 O   0  0  0  0  0  0  0  0  0  0  0  0
  161.4000  203.0000  151.5930 C   0  0  0  0  0  2  0  0  0  0  0  0
  161.8390  204.7120  149.7600 C   0  0  0  0  0  2  0  0  0  0  0  0
  160.9900  202.6830  146.9430 C   0  0  0  0  0  0  0  0  0  0  0  0
  161.2880  205.4710  152.1080 C   0  0  0  0  0  0  0  0  0  0  0  0
  161.2380  203.9860  147.4540 N   0  0  0  0  0  2  0  0  0  0  0  0
  160.6890  201.6630  148.0000 C   0  0  2  0  0  3  0  0  0  0  0  0
  161.5000  204.4130  151.1550 N   0  0  0  0  0  0  0  0  0  0  0  0
  161.1740  202.4410  149.2050 C   0  0  2  0  0  3  0  0  0  0  0  0
  160.6340  202.1170  150.5820 C   0  0  0  0  0  2  0  0  0  0  0  0
  161.0360  202.4260  145.7120 O   0  0  0  0  0  0  0  0  0  0  0  0
  161.5700  200.4290  147.8400 C   0  0  0  0  0  1  0  0  0  0  0  0
  1 14  1  0  0  0  0
  2  8  1  0  0  0  0
  3 13  2  0  0  0  0
  4  5  1  0  0  0  0
  5 10  2  0  0  0  0
  8  6  2  0  0  0  0
  8  7  1  0  0  0  0
  9  1  2  0  0  0  0
  9  3  1  0  0  0  0
 10  6  1  0  0  0  0
 11 13  1  6  0  0  0
 11 12  1  0  0  0  0
 12  5  1  0  0  0  0
 12  2  2  0  0  0  0
 13  4  1  0  0  0  0
 14 20  1  1  0  0  0
 14 11  1  0  0  0  0
 15 24  1  0  0  0  0
 15 18  1  1  0  0  0
 18 23  1  0  0  0  0
 19 21  1  0  0  0  0
 19 22  1  0  0  0  0
 20 16  2  0  0  0  0
 21 15  1  0  0  0  0
 22 27  1  6  0  0  0
 22 24  1  0  0  0  0
 23 17  1  0  0  0  0
 23 20  1  0  0  0  0
 24 25  1  1  0  0  0
 25 17  1  0  0  0  0
 26 19  2  0  0  0  0
M  END
>  <MODEL>
4

>  <REMARK>
 VINA RESULT:      -8.9      2.071      7.693
  Name = 
  1 active torsions:
  status: ('A' for Active; 'I' for Inactive)
    1  A    between atoms: C_9  and  C_27
                            x       y       z     vdW  Elec       q    Type
                         _______ _______ _______ _____ _____    ______ ____

>  <TORSDO>
F 1

$$$$
=
 OpenBabel11072412243D

 27 31  0  0  1  0  0  0  0  0999 V2000
  162.0060  210.0930  150.3760 N   0  0  0  0  0  0  0  0  0  0  0  0
  159.0060  211.2110  153.8080 N   0  0  0  0  0  0  0  0  0  0  0  0
  161.2520  212.2400  149.6910 N   0  0  0  0  0  0  0  0  0  0  0  0
  159.5130  213.3140  150.9110 N   0  0  0  0  0  2  0  0  0  0  0  0
  158.8430  212.8270  152.0580 C   0  0  0  0  0  0  0  0  0  0  0  0
  157.1320  212.7250  153.7290 C   0  0  0  0  0  3  0  0  0  0  0  0
  157.2940  211.0020  155.5670 C   0  0  0  0  0  1  0  0  0  0  0  0
  157.8310  211.6600  154.3410 C   0  0  0  0  0  0  0  0  0  0  0  0
  162.0940  211.0880  149.5420 C   0  0  0  0  0  3  0  0  0  0  0  0
  157.6520  213.3210  152.5680 C   0  0  0  0  0  3  0  0  0  0  0  0
  160.8040  211.5180  151.9990 C   0  0  2  0  0  3  0  0  0  0  0  0
  159.4910  211.7740  152.6670 C   0  0  0  0  0  0  0  0  0  0  0  0
  160.6400  212.4450  150.8220 C   0  0  0  0  0  0  0  0  0  0  0  0
  161.0240  210.0870  151.4800 C   0  0  2  0  0  3  0  0  0  0  0  0
  160.8380  206.0280  150.7550 C   0  0  1  0  0  3  0  0  0  0  0  0
  161.5470  209.5490  153.7260 O   0  0  0  0  0  0  0  0  0  0  0  0
  161.8280  206.7640  153.3870 C   0  0  0  0  0  2  0  0  0  0  0  0
  161.7470  207.2330  150.8840 C   0  0  0  0  0  2  0  0  0  0  0  0
  160.7730  203.9770  149.7800 C   0  0  0  0  0  0  0  0  0  0  0  0
  161.4550  209.1170  152.5450 C   0  0  0  0  0  0  0  0  0  0  0  0
  160.9130  205.3570  149.4730 N   0  0  0  0  0  2  0  0  0  0  0  0
  160.7780  203.6770  151.2490 C   0  0  2  0  0  3  0  0  0  0  0  0
  161.6660  207.7200  152.2650 N   0  0  0  0  0  0  0  0  0  0  0  0
  161.3260  204.9980  151.7450 C   0  0  2  0  0  3  0  0  0  0  0  0
  161.0490  205.4480  153.1630 C   0  0  0  0  0  2  0  0  0  0  0  0
  160.6680  203.0980  148.8850 O   0  0  0  0  0  0  0  0  0  0  0  0
  161.7860  202.5840  151.5840 C   0  0  0  0  0  1  0  0  0  0  0  0
  1 14  1  0  0  0  0
  2  8  1  0  0  0  0
  3 13  2  0  0  0  0
  4  5  1  0  0  0  0
  5 10  2  0  0  0  0
  5 12  1  0  0  0  0
  6  8  2  0  0  0  0
  8  7  1  0  0  0  0
  9  3  1  0  0  0  0
  9  1  2  0  0  0  0
 10  6  1  0  0  0  0
 11 13  1  6  0  0  0
 11 12  1  0  0  0  0
 12  2  2  0  0  0  0
 13  4  1  0  0  0  0
 14 11  1  0  0  0  0
 14 20  1  1  0  0  0
 15 18  1  6  0  0  0
 15 24  1  0  0  0  0
 18 23  1  0  0  0  0
 19 22  1  0  0  0  0
 20 16  2  0  0  0  0
 21 19  1  0  0  0  0
 21 15  1  0  0  0  0
 22 27  1  6  0  0  0
 22 24  1  0  0  0  0
 23 20  1  0  0  0  0
 23 17  1  0  0  0  0
 24 25  1  1  0  0  0
 25 17  1  0  0  0  0
 26 19  2  0  0  0  0
M  END
>  <MODEL>
5

>  <REMARK>
 VINA RESULT:      -7.6      2.411      7.283
  Name = 
  1 active torsions:
  status: ('A' for Active; 'I' for Inactive)
    1  A    between atoms: C_9  and  C_27
                            x       y       z     vdW  Elec       q    Type
                         _______ _______ _______ _____ _____    ______ ____

>  <TORSDO>
F 1

$$$$
=
 OpenBabel11072412243D

 27 31  0  0  1  0  0  0  0  0999 V2000
  160.8770  207.5420  153.7720 N   0  0  0  0  0  0  0  0  0  0  0  0
  161.4410  206.5710  149.2150 N   0  0  0  0  0  0  0  0  0  0  0  0
  161.2020  205.1890  153.8060 N   0  0  0  0  0  0  0  0  0  0  0  0
  161.3440  203.9960  151.7510 N   0  0  0  0  0  2  0  0  0  0  0  0
  161.2730  204.5310  150.4430 C   0  0  0  0  0  0  0  0  0  0  0  0
  161.0330  204.4940  148.0610 C   0  0  0  0  0  3  0  0  0  0  0  0
  161.1900  206.6550  146.7660 C   0  0  0  0  0  1  0  0  0  0  0  0
  161.2270  205.8940  148.0470 C   0  0  0  0  0  0  0  0  0  0  0  0
  161.0250  206.4510  154.4650 C   0  0  0  0  0  3  0  0  0  0  0  0
  161.0610  203.8010  149.2830 C   0  0  0  0  0  3  0  0  0  0  0  0
  161.7720  206.4240  151.7580 C   0  0  2  0  0  3  0  0  0  0  0  0
  161.4390  205.8980  150.3980 C   0  0  0  0  0  0  0  0  0  0  0  0
  161.5370  205.1630  152.5480 C   0  0  0  0  0  0  0  0  0  0  0  0
  160.8470  207.5290  152.2950 C   0  0  2  0  0  3  0  0  0  0  0  0
  158.8480  210.8250  153.7690 C   0  0  1  0  0  3  0  0  0  0  0  0
  161.7900  208.9680  150.6670 O   0  0  0  0  0  0  0  0  0  0  0  0
  160.8210  211.4010  151.7140 C   0  0  0  0  0  2  0  0  0  0  0  0
  160.1510  210.0520  153.7690 C   0  0  0  0  0  2  0  0  0  0  0  0
  157.6710  212.2770  155.0610 C   0  0  0  0  0  0  0  0  0  0  0  0
  161.1690  208.8980  151.7620 C   0  0  0  0  0  0  0  0  0  0  0  0
  158.2440  210.9770  155.0780 N   0  0  0  0  0  2  0  0  0  0  0  0
  158.0180  213.0790  153.8420 C   0  0  2  0  0  3  0  0  0  0  0  0
  160.7080  210.0970  152.4120 N   0  0  0  0  0  0  0  0  0  0  0  0
  159.1710  212.2350  153.3410 C   0  0  2  0  0  3  0  0  0  0  0  0
  159.5560  212.2740  151.8780 C   0  0  0  0  0  2  0  0  0  0  0  0
  156.9510  212.7050  156.0010 O   0  0  0  0  0  0  0  0  0  0  0  0
  158.5590  214.4530  154.2230 C   0  0  0  0  0  1  0  0  0  0  0  0
  1  9  2  0  0  0  0
  2 12  1  0  0  0  0
  3  9  1  0  0  0  0
  4 13  1  0  0  0  0
  5  4  1  0  0  0  0
  6 10  2  0  0  0  0
  7  8  1  0  0  0  0
  8  6  1  0  0  0  0
  8  2  2  0  0  0  0
 10  5  1  0  0  0  0
 11 12  1  6  0  0  0
 11 14  1  0  0  0  0
 11 13  1  0  0  0  0
 12  5  2  0  0  0  0
 13  3  2  0  0  0  0
 14 20  1  6  0  0  0
 14  1  1  0  0  0  0
 15 18  1  1  0  0  0
 15 21  1  0  0  0  0
 16 20  2  0  0  0  0
 17 25  1  0  0  0  0
 17 23  1  0  0  0  0
 19 21  1  0  0  0  0
 19 26  2  0  0  0  0
 20 23  1  0  0  0  0
 22 27  1  1  0  0  0
 22 19  1  0  0  0  0
 23 18  1  0  0  0  0
 24 25  1  6  0  0  0
 24 15  1  0  0  0  0
 24 22  1  0  0  0  0
M  END
>  <MODEL>
6

>  <REMARK>
 VINA RESULT:      -7.5      1.941      3.729
  Name = 
  1 active torsions:
  status: ('A' for Active; 'I' for Inactive)
    1  A    between atoms: C_9  and  C_27
                            x       y       z     vdW  Elec       q    Type
                         _______ _______ _______ _____ _____    ______ ____

>  <TORSDO>
F 1

$$$$
=
 OpenBabel11072412243D

 27 31  0  0  1  0  0  0  0  0999 V2000
  161.9600  209.1600  155.0160 N   0  0  0  0  0  0  0  0  0  0  0  0
  158.5850  212.1170  153.6400 N   0  0  0  0  0  0  0  0  0  0  0  0
  160.6800  209.4060  157.0030 N   0  0  0  0  0  0  0  0  0  0  0  0
  158.8910  210.9750  157.0560 N   0  0  0  0  0  2  0  0  0  0  0  0
  158.4550  211.8140  156.0040 C   0  0  0  0  0  0  0  0  0  0  0  0
  157.2770  213.6310  154.9830 C   0  0  0  0  0  3  0  0  0  0  0  0
  157.4310  213.9620  152.4850 C   0  0  0  0  0  1  0  0  0  0  0  0
  157.7730  213.2120  153.7270 C   0  0  0  0  0  0  0  0  0  0  0  0
  161.7460  208.8080  156.2500 C   0  0  0  0  0  3  0  0  0  0  0  0
  157.6220  212.9140  156.1410 C   0  0  0  0  0  3  0  0  0  0  0  0
  159.7060  210.1640  154.8760 C   0  0  2  0  0  3  0  0  0  0  0  0
  158.9390  211.4420  154.7680 C   0  0  0  0  0  0  0  0  0  0  0  0
  159.7350  210.0460  156.3780 C   0  0  0  0  0  0  0  0  0  0  0  0
  161.1520  210.2020  154.3510 C   0  0  2  0  0  3  0  0  0  0  0  0
  161.3810  206.4440  152.6620 C   0  0  1  0  0  3  0  0  0  0  0  0
  161.5990  211.0770  152.1960 O   0  0  0  0  0  0  0  0  0  0  0  0
  161.4440  208.6480  150.7690 C   0  0  0  0  0  2  0  0  0  0  0  0
  160.4970  207.6480  152.9120 C   0  0  0  0  0  2  0  0  0  0  0  0
  161.2310  204.2140  152.2480 C   0  0  0  0  0  0  0  0  0  0  0  0
  161.2560  210.0590  152.8570 C   0  0  0  0  0  0  0  0  0  0  0  0
  160.8660  205.2010  153.2030 N   0  0  0  0  0  2  0  0  0  0  0  0
  161.8280  204.7750  150.9920 C   0  0  2  0  0  3  0  0  0  0  0  0
  161.0710  208.7930  152.1980 N   0  0  0  0  0  0  0  0  0  0  0  0
  161.4090  206.2180  151.1700 C   0  0  2  0  0  3  0  0  0  0  0  0
  162.1810  207.3210  150.4790 C   0  0  0  0  0  2  0  0  0  0  0  0
  161.0500  202.9850  152.4510 O   0  0  0  0  0  0  0  0  0  0  0  0
  161.1280  204.2210  149.7560 C   0  0  0  0  0  1  0  0  0  0  0  0
  1  9  2  0  0  0  0
  2  8  2  0  0  0  0
  2 12  1  0  0  0  0
  5 10  1  0  0  0  0
  5  4  1  0  0  0  0
  6 10  2  0  0  0  0
  7  8  1  0  0  0  0
  8  6  1  0  0  0  0
  9  3  1  0  0  0  0
 11 12  1  1  0  0  0
 11 13  1  0  0  0  0
 12  5  2  0  0  0  0
 13  3  2  0  0  0  0
 13  4  1  0  0  0  0
 14 20  1  6  0  0  0
 14 11  1  0  0  0  0
 14  1  1  0  0  0  0
 15 18  1  6  0  0  0
 15 21  1  0  0  0  0
 16 20  2  0  0  0  0
 17 23  1  0  0  0  0
 19 26  2  0  0  0  0
 19 21  1  0  0  0  0
 22 27  1  6  0  0  0
 22 24  1  0  0  0  0
 22 19  1  0  0  0  0
 23 20  1  0  0  0  0
 23 18  1  0  0  0  0
 24 25  1  6  0  0  0
 24 15  1  0  0  0  0
 25 17  1  0  0  0  0
M  END
>  <MODEL>
7

>  <REMARK>
 VINA RESULT:      -7.1      2.279      8.258
  Name = 
  1 active torsions:
  status: ('A' for Active; 'I' for Inactive)
    1  A    between atoms: C_9  and  C_27
                            x       y       z     vdW  Elec       q    Type
                         _______ _______ _______ _____ _____    ______ ____

>  <TORSDO>
F 1

$$$$
