=
 OpenBabel11072414113D

 28 31  0  0  1  0  0  0  0  0999 V2000
  160.8470  202.9460  151.6710 C   0  0  0  0  0  3  0  0  0  0  0  0
  161.6040  207.2340  148.6880 C   0  0  0  0  0  0  0  0  0  0  0  0
  161.0500  204.0840  152.4640 C   0  0  0  0  0  3  0  0  0  0  0  0
  161.2800  205.4110  150.4350 C   0  0  0  0  0  0  0  0  0  0  0  0
  161.9400  208.9190  150.9020 N   0  0  0  0  0  0  0  0  0  0  0  0
  161.5430  206.7970  152.5470 S   0  0  0  0  0  0  0  0  0  0  0  0
  161.8750  208.6010  148.5210 C   0  0  0  0  0  3  0  0  0  0  0  0
  160.8710  203.0280  150.2630 C   0  0  0  0  0  0  0  0  0  0  0  0
  161.5130  206.7270  149.9990 C   0  0  0  0  0  0  0  0  0  0  0  0
  161.2660  205.3000  151.8240 C   0  0  0  0  0  0  0  0  0  0  0  0
  161.6820  207.5990  151.0720 C   0  0  0  0  0  0  0  0  0  0  0  0
  162.0380  209.4310  149.6430 C   0  0  0  0  0  3  0  0  0  0  0  0
  161.0800  204.2760  149.6460 C   0  0  0  0  0  3  0  0  0  0  0  0
  160.2190  206.2740  146.9470 O   0  0  0  0  0  0  0  0  0  0  0  0
  161.9190  205.6500  145.4140 C   0  0  0  0  0  2  0  0  0  0  0  0
  160.5100  206.1990  145.5730 C   0  0  1  0  0  3  0  0  0  0  0  0
  161.4360  206.4140  147.5290 N   0  0  0  0  0  0  0  0  0  0  0  0
  162.5580  205.9940  146.7240 C   0  0  1  0  0  3  0  0  0  0  0  0
  163.1380  204.8540  147.2800 O   0  0  0  0  0  1  0  0  0  0  0  0
  159.5190  205.2840  144.8850 C   0  0  0  0  0  1  0  0  0  0  0  0
  160.6320  201.8320  149.4200 C   0  0  0  0  0  0  0  0  0  0  0  0
  160.7310  200.6900  149.9430 O   0  0  0  0  0  0  0  0  0  0  0  0
  160.3120  201.9060  148.0570 O   0  0  0  0  0  0  0  0  0  0  0  0
  161.1870  201.5030  147.0010 C   0  0  2  0  0  3  0  0  0  0  0  0
  160.7640  202.0990  145.6620 C   0  0  0  0  0  1  0  0  0  0  0  0
  161.3300  200.1010  146.9420 O   0  0  0  0  0  0  0  0  0  0  0  0
  160.8410  199.6480  145.7070 C   0  0  0  0  0  2  0  0  0  0  0  0
  161.4430  198.2970  145.3890 C   0  0  0  0  0  1  0  0  0  0  0  0
  1  3  1  0  0  0  0
  2  9  1  0  0  0  0
  4 10  1  0  0  0  0
  5 11  1  0  0  0  0
  7  2  2  0  0  0  0
  7 12  1  0  0  0  0
  8  1  2  0  0  0  0
  9  4  1  0  0  0  0
  9 11  2  0  0  0  0
 10  3  2  0  0  0  0
 10  6  1  0  0  0  0
 11  6  1  0  0  0  0
 12  5  2  0  0  0  0
 13  8  1  0  0  0  0
 13  4  2  0  0  0  0
 14 17  1  0  0  0  0
 15 16  1  0  0  0  0
 15 18  1  0  0  0  0
 16 20  1  6  0  0  0
 16 14  1  0  0  0  0
 17  2  1  0  0  0  0
 18 19  1  1  0  0  0
 18 17  1  0  0  0  0
 21 22  2  0  0  0  0
 21  8  1  0  0  0  0
 23 21  1  0  0  0  0
 24 25  1  6  0  0  0
 24 23  1  0  0  0  0
 26 24  1  0  0  0  0
 27 26  1  0  0  0  0
 28 27  1  0  0  0  0
M  END
>  <MODEL>
1

>  <REMARK>
 VINA RESULT:      -8.6      0.000      0.000
  Name = 
  6 active torsions:
  status: ('A' for Active; 'I' for Inactive)
    1  A    between atoms: C_2  and  N_16
    2  A    between atoms: C_9  and  O_15
    3  A    between atoms: C_9  and  O_18
    4  A    between atoms: C_11  and  C_12
    5  A    between atoms: C_12  and  O_15
    6  A    between atoms: O_18  and  C_27
                            x       y       z     vdW  Elec       q    Type
                         _______ _______ _______ _____ _____    ______ ____

>  <TORSDO>
F 6

$$$$
=
 OpenBabel11072414113D

 28 31  0  0  1  0  0  0  0  0999 V2000
  160.7460  202.6670  151.3180 C   0  0  0  0  0  3  0  0  0  0  0  0
  161.8180  207.1770  148.7950 C   0  0  0  0  0  0  0  0  0  0  0  0
  160.7840  203.7480  152.2100 C   0  0  0  0  0  3  0  0  0  0  0  0
  161.2850  205.2250  150.3380 C   0  0  0  0  0  0  0  0  0  0  0  0
  161.7460  208.7030  151.1450 N   0  0  0  0  0  0  0  0  0  0  0  0
  161.1670  206.4580  152.5560 S   0  0  0  0  0  0  0  0  0  0  0  0
  162.0660  208.5580  148.7680 C   0  0  0  0  0  3  0  0  0  0  0  0
  160.9880  202.8520  149.9400 C   0  0  0  0  0  0  0  0  0  0  0  0
  161.5400  206.5740  150.0370 C   0  0  0  0  0  0  0  0  0  0  0  0
  161.0570  205.0120  151.6970 C   0  0  0  0  0  0  0  0  0  0  0  0
  161.5090  207.3690  151.1810 C   0  0  0  0  0  0  0  0  0  0  0  0
  162.0230  209.3070  149.9550 C   0  0  0  0  0  3  0  0  0  0  0  0
  161.2500  204.1470  149.4520 C   0  0  0  0  0  3  0  0  0  0  0  0
  162.9860  205.7840  147.1920 O   0  0  0  0  0  0  0  0  0  0  0  0
  161.1170  204.9230  146.0110 C   0  0  0  0  0  2  0  0  0  0  0  0
  162.5020  204.6230  146.5630 C   0  0  1  0  0  3  0  0  0  0  0  0
  161.8610  206.4410  147.5710 N   0  0  0  0  0  0  0  0  0  0  0  0
  160.6570  206.0610  146.8680 C   0  0  1  0  0  3  0  0  0  0  0  0
  160.2290  207.1160  146.0630 O   0  0  0  0  0  1  0  0  0  0  0  0
  163.4300  204.2210  145.4360 C   0  0  0  0  0  1  0  0  0  0  0  0
  160.9240  201.7160  148.9900 C   0  0  0  0  0  0  0  0  0  0  0  0
  161.4030  200.6040  149.3390 O   0  0  0  0  0  0  0  0  0  0  0  0
  160.3680  201.8190  147.7070 O   0  0  0  0  0  0  0  0  0  0  0  0
  160.9900  201.3310  146.5170 C   0  0  2  0  0  3  0  0  0  0  0  0
  160.1510  201.6320  145.2790 C   0  0  0  0  0  1  0  0  0  0  0  0
  161.3220  199.9640  146.6200 O   0  0  0  0  0  0  0  0  0  0  0  0
  160.8480  199.2960  145.4800 C   0  0  0  0  0  2  0  0  0  0  0  0
  161.6040  197.9980  145.3030 C   0  0  0  0  0  1  0  0  0  0  0  0
  1  3  1  0  0  0  0
  2  9  1  0  0  0  0
  4 10  1  0  0  0  0
  5 11  1  0  0  0  0
  7  2  2  0  0  0  0
  7 12  1  0  0  0  0
  8  1  2  0  0  0  0
  9  4  1  0  0  0  0
  9 11  2  0  0  0  0
 10  3  2  0  0  0  0
 10  6  1  0  0  0  0
 11  6  1  0  0  0  0
 12  5  2  0  0  0  0
 13  8  1  0  0  0  0
 13  4  2  0  0  0  0
 14 17  1  0  0  0  0
 15 16  1  0  0  0  0
 15 18  1  0  0  0  0
 16 20  1  6  0  0  0
 16 14  1  0  0  0  0
 17  2  1  0  0  0  0
 18 19  1  6  0  0  0
 18 17  1  0  0  0  0
 21 22  2  0  0  0  0
 21  8  1  0  0  0  0
 23 21  1  0  0  0  0
 24 25  1  6  0  0  0
 24 26  1  0  0  0  0
 24 23  1  0  0  0  0
 27 26  1  0  0  0  0
 28 27  1  0  0  0  0
M  END
>  <MODEL>
2

>  <REMARK>
 VINA RESULT:      -7.8      0.766      1.426
  Name = 
  6 active torsions:
  status: ('A' for Active; 'I' for Inactive)
    1  A    between atoms: C_2  and  N_16
    2  A    between atoms: C_9  and  O_15
    3  A    between atoms: C_9  and  O_18
    4  A    between atoms: C_11  and  C_12
    5  A    between atoms: C_12  and  O_15
    6  A    between atoms: O_18  and  C_27
                            x       y       z     vdW  Elec       q    Type
                         _______ _______ _______ _____ _____    ______ ____

>  <TORSDO>
F 6

$$$$
=
 OpenBabel11072414113D

 28 31  0  0  1  0  0  0  0  0999 V2000
  161.3930  206.9180  151.8670 C   0  0  0  0  0  3  0  0  0  0  0  0
  161.3040  203.1500  148.1730 C   0  0  0  0  0  0  0  0  0  0  0  0
  161.2120  205.6510  152.4410 C   0  0  0  0  0  3  0  0  0  0  0  0
  161.2970  204.6710  150.2130 C   0  0  0  0  0  0  0  0  0  0  0  0
  160.9000  201.0980  150.0380 N   0  0  0  0  0  0  0  0  0  0  0  0
  160.9500  202.9350  152.0350 S   0  0  0  0  0  0  0  0  0  0  0  0
  161.1700  201.8150  147.7610 C   0  0  0  0  0  3  0  0  0  0  0  0
  161.5130  207.0720  150.4700 C   0  0  0  0  0  0  0  0  0  0  0  0
  161.2220  203.4340  149.5500 C   0  0  0  0  0  0  0  0  0  0  0  0
  161.1660  204.5490  151.5950 C   0  0  0  0  0  0  0  0  0  0  0  0
  161.0250  202.3850  150.4440 C   0  0  0  0  0  0  0  0  0  0  0  0
  160.9700  200.7990  148.7100 C   0  0  0  0  0  3  0  0  0  0  0  0
  161.4740  205.9330  149.6430 C   0  0  0  0  0  3  0  0  0  0  0  0
  160.4750  204.6650  146.4730 O   0  0  0  0  0  0  0  0  0  0  0  0
  162.3190  206.1540  146.3640 C   0  0  0  0  0  2  0  0  0  0  0  0
  160.8050  206.0230  146.3100 C   0  0  1  0  0  3  0  0  0  0  0  0
  161.5130  204.1620  147.1860 N   0  0  0  0  0  0  0  0  0  0  0  0
  162.7300  204.9400  147.1390 C   0  0  1  0  0  3  0  0  0  0  0  0
  163.7110  204.2400  146.4370 O   0  0  0  0  0  1  0  0  0  0  0  0
  160.2930  206.5210  144.9750 C   0  0  0  0  0  1  0  0  0  0  0  0
  161.7300  208.4060  149.8610 C   0  0  0  0  0  0  0  0  0  0  0  0
  161.5360  208.5490  148.6250 O   0  0  0  0  0  0  0  0  0  0  0  0
  162.1570  209.5230  150.5930 O   0  0  0  0  0  0  0  0  0  0  0  0
  161.4670  210.0580  151.7240 C   0  0  2  0  0  3  0  0  0  0  0  0
  160.7700  211.3720  151.3880 C   0  0  0  0  0  1  0  0  0  0  0  0
  162.3100  210.1710  152.8500 O   0  0  0  0  0  0  0  0  0  0  0  0
  161.5360  210.5490  153.9590 C   0  0  0  0  0  2  0  0  0  0  0  0
  160.9280  209.3180  154.5940 C   0  0  0  0  0  1  0  0  0  0  0  0
  1  3  1  0  0  0  0
  2  9  1  0  0  0  0
  4 10  1  0  0  0  0
  5 11  1  0  0  0  0
  7  2  2  0  0  0  0
  7 12  1  0  0  0  0
  8  1  2  0  0  0  0
  9  4  1  0  0  0  0
  9 11  2  0  0  0  0
 10  6  1  0  0  0  0
 10  3  2  0  0  0  0
 11  6  1  0  0  0  0
 12  5  2  0  0  0  0
 13  4  2  0  0  0  0
 13  8  1  0  0  0  0
 14 17  1  0  0  0  0
 15 18  1  0  0  0  0
 16 20  1  6  0  0  0
 16 15  1  0  0  0  0
 16 14  1  0  0  0  0
 17  2  1  0  0  0  0
 18 19  1  6  0  0  0
 18 17  1  0  0  0  0
 21  8  1  0  0  0  0
 21 23  1  0  0  0  0
 22 21  2  0  0  0  0
 23 24  1  0  0  0  0
 24 25  1  6  0  0  0
 24 26  1  0  0  0  0
 26 27  1  0  0  0  0
 27 28  1  0  0  0  0
M  END
>  <MODEL>
3

>  <REMARK>
 VINA RESULT:      -7.0      2.758      6.641
  Name = 
  6 active torsions:
  status: ('A' for Active; 'I' for Inactive)
    1  A    between atoms: C_2  and  N_16
    2  A    between atoms: C_9  and  O_15
    3  A    between atoms: C_9  and  O_18
    4  A    between atoms: C_11  and  C_12
    5  A    between atoms: C_12  and  O_15
    6  A    between atoms: O_18  and  C_27
                            x       y       z     vdW  Elec       q    Type
                         _______ _______ _______ _____ _____    ______ ____

>  <TORSDO>
F 6

$$$$
=
 OpenBabel11072414113D

 28 31  0  0  1  0  0  0  0  0999 V2000
  161.4670  207.9220  151.4060 C   0  0  0  0  0  3  0  0  0  0  0  0
  161.2590  203.5020  148.5310 C   0  0  0  0  0  0  0  0  0  0  0  0
  161.2670  206.7990  152.2200 C   0  0  0  0  0  3  0  0  0  0  0  0
  161.3070  205.3960  150.2290 C   0  0  0  0  0  0  0  0  0  0  0  0
  160.8350  201.8680  150.7680 N   0  0  0  0  0  0  0  0  0  0  0  0
  160.9440  204.0620  152.3610 S   0  0  0  0  0  0  0  0  0  0  0  0
  161.0930  202.1150  148.3920 C   0  0  0  0  0  3  0  0  0  0  0  0
  161.5750  207.7950  150.0050 C   0  0  0  0  0  0  0  0  0  0  0  0
  161.1990  204.0540  149.8250 C   0  0  0  0  0  0  0  0  0  0  0  0
  161.1890  205.5520  151.6100 C   0  0  0  0  0  0  0  0  0  0  0  0
  160.9900  203.2070  150.9100 C   0  0  0  0  0  0  0  0  0  0  0  0
  160.8830  201.3120  149.5250 C   0  0  0  0  0  3  0  0  0  0  0  0
  161.5030  206.5160  149.4190 C   0  0  0  0  0  3  0  0  0  0  0  0
  160.4350  204.8040  146.6600 O   0  0  0  0  0  0  0  0  0  0  0  0
  162.4180  205.9900  146.1250 C   0  0  0  0  0  2  0  0  0  0  0  0
  160.9020  206.0570  146.2250 C   0  0  1  0  0  3  0  0  0  0  0  0
  161.4780  204.2940  147.3610 N   0  0  0  0  0  0  0  0  0  0  0  0
  162.7650  204.8810  147.0700 C   0  0  1  0  0  3  0  0  0  0  0  0
  163.5750  203.9470  146.4250 O   0  0  0  0  0  1  0  0  0  0  0  0
  160.3110  206.3860  144.8700 C   0  0  0  0  0  1  0  0  0  0  0  0
  161.8120  208.9770  149.1430 C   0  0  0  0  0  0  0  0  0  0  0  0
  161.8250  208.8250  147.8920 O   0  0  0  0  0  0  0  0  0  0  0  0
  162.0380  210.2640  149.6510 O   0  0  0  0  0  0  0  0  0  0  0  0
  161.7270  211.4720  148.9540 C   0  0  2  0  0  3  0  0  0  0  0  0
  162.9580  212.0600  148.2710 C   0  0  0  0  0  1  0  0  0  0  0  0
  161.0780  212.4080  149.7860 O   0  0  0  0  0  0  0  0  0  0  0  0
  160.9020  213.6040  149.0710 C   0  0  0  0  0  2  0  0  0  0  0  0
  159.4320  213.7980  148.7670 C   0  0  0  0  0  1  0  0  0  0  0  0
  1  3  1  0  0  0  0
  2  9  1  0  0  0  0
  4 10  1  0  0  0  0
  5 11  1  0  0  0  0
  7  2  2  0  0  0  0
  7 12  1  0  0  0  0
  8  1  2  0  0  0  0
  9  4  1  0  0  0  0
  9 11  2  0  0  0  0
 10  3  2  0  0  0  0
 10  6  1  0  0  0  0
 11  6  1  0  0  0  0
 12  5  2  0  0  0  0
 13  8  1  0  0  0  0
 13  4  2  0  0  0  0
 14 17  1  0  0  0  0
 15 16  1  0  0  0  0
 15 18  1  0  0  0  0
 16 20  1  6  0  0  0
 16 14  1  0  0  0  0
 17  2  1  0  0  0  0
 18 19  1  6  0  0  0
 18 17  1  0  0  0  0
 21 23  1  0  0  0  0
 21  8  1  0  0  0  0
 22 21  2  0  0  0  0
 24 25  1  1  0  0  0
 24 23  1  0  0  0  0
 24 26  1  0  0  0  0
 27 26  1  0  0  0  0
 28 27  1  0  0  0  0
M  END
>  <MODEL>
4

>  <REMARK>
 VINA RESULT:      -6.9      2.690      6.866
  Name = 
  6 active torsions:
  status: ('A' for Active; 'I' for Inactive)
    1  A    between atoms: C_2  and  N_16
    2  A    between atoms: C_9  and  O_15
    3  A    between atoms: C_9  and  O_18
    4  A    between atoms: C_11  and  C_12
    5  A    between atoms: C_12  and  O_15
    6  A    between atoms: O_18  and  C_27
                            x       y       z     vdW  Elec       q    Type
                         _______ _______ _______ _____ _____    ______ ____

>  <TORSDO>
F 6

$$$$
=
 OpenBabel11072414113D

 28 31  0  0  1  0  0  0  0  0999 V2000
  161.1960  204.1730  152.4060 C   0  0  0  0  0  3  0  0  0  0  0  0
  161.1880  203.5110  147.1700 C   0  0  0  0  0  0  0  0  0  0  0  0
  160.9970  202.8270  152.0670 C   0  0  0  0  0  3  0  0  0  0  0  0
  161.1350  203.4390  149.7130 C   0  0  0  0  0  0  0  0  0  0  0  0
  160.7300  200.7530  147.3510 N   0  0  0  0  0  0  0  0  0  0  0  0
  160.7350  200.9540  150.0580 S   0  0  0  0  0  0  0  0  0  0  0  0
  161.0600  202.7230  146.0160 C   0  0  0  0  0  3  0  0  0  0  0  0
  161.3530  205.1580  151.4080 C   0  0  0  0  0  0  0  0  0  0  0  0
  161.0720  202.8820  148.4240 C   0  0  0  0  0  0  0  0  0  0  0  0
  160.9680  202.4880  150.7180 C   0  0  0  0  0  0  0  0  0  0  0  0
  160.8490  201.5080  148.4710 C   0  0  0  0  0  0  0  0  0  0  0  0
  160.8320  201.3410  146.1260 C   0  0  0  0  0  3  0  0  0  0  0  0
  161.3310  204.7790  150.0520 C   0  0  0  0  0  3  0  0  0  0  0  0
  160.8740  205.8050  147.8880 O   0  0  0  0  0  0  0  0  0  0  0  0
  162.7080  206.8050  146.7640 C   0  0  0  0  0  2  0  0  0  0  0  0
  161.8630  206.7950  148.0280 C   0  0  1  0  0  3  0  0  0  0  0  0
  161.4260  204.9130  147.0270 N   0  0  0  0  0  0  0  0  0  0  0  0
  162.5110  205.4230  146.2220 C   0  0  1  0  0  3  0  0  0  0  0  0
  162.1160  205.4910  144.8860 O   0  0  0  0  0  1  0  0  0  0  0  0
  161.2130  208.1480  148.2250 C   0  0  0  0  0  1  0  0  0  0  0  0
  161.5900  206.5780  151.7620 C   0  0  0  0  0  0  0  0  0  0  0  0
  162.6380  207.1420  151.3500 O   0  0  0  0  0  0  0  0  0  0  0  0
  160.7070  207.3290  152.5530 O   0  0  0  0  0  0  0  0  0  0  0  0
  161.0260  207.8480  153.8450 C   0  0  2  0  0  3  0  0  0  0  0  0
  160.4890  206.9540  154.9590 C   0  0  0  0  0  1  0  0  0  0  0  0
  160.6130  209.1890  153.9890 O   0  0  0  0  0  0  0  0  0  0  0  0
  161.3650  209.9910  153.1150 C   0  0  0  0  0  2  0  0  0  0  0  0
  160.4500  210.9700  152.4140 C   0  0  0  0  0  1  0  0  0  0  0  0
  2  9  1  0  0  0  0
  3  1  1  0  0  0  0
  4 13  2  0  0  0  0
  4 10  1  0  0  0  0
  5 11  1  0  0  0  0
  6 10  1  0  0  0  0
  7 12  1  0  0  0  0
  7  2  2  0  0  0  0
  8 21  1  0  0  0  0
  8  1  2  0  0  0  0
  9 11  2  0  0  0  0
  9  4  1  0  0  0  0
 10  3  2  0  0  0  0
 11  6  1  0  0  0  0
 12  5  2  0  0  0  0
 13  8  1  0  0  0  0
 14 16  1  0  0  0  0
 15 16  1  0  0  0  0
 16 20  1  6  0  0  0
 17  2  1  0  0  0  0
 17 14  1  0  0  0  0
 18 19  1  6  0  0  0
 18 15  1  0  0  0  0
 18 17  1  0  0  0  0
 21 23  1  0  0  0  0
 22 21  2  0  0  0  0
 23 24  1  0  0  0  0
 24 26  1  0  0  0  0
 24 25  1  1  0  0  0
 27 26  1  0  0  0  0
 28 27  1  0  0  0  0
M  END
>  <MODEL>
5

>  <REMARK>
 VINA RESULT:      -6.7      3.028      6.601
  Name = 
  6 active torsions:
  status: ('A' for Active; 'I' for Inactive)
    1  A    between atoms: C_2  and  N_16
    2  A    between atoms: C_9  and  O_15
    3  A    between atoms: C_9  and  O_18
    4  A    between atoms: C_11  and  C_12
    5  A    between atoms: C_12  and  O_15
    6  A    between atoms: O_18  and  C_27
                            x       y       z     vdW  Elec       q    Type
                         _______ _______ _______ _____ _____    ______ ____

>  <TORSDO>
F 6

$$$$
=
 OpenBabel11072414113D

 28 31  0  0  1  0  0  0  0  0999 V2000
  161.9570  206.5770  146.8680 C   0  0  0  0  0  3  0  0  0  0  0  0
  161.1070  204.8300  151.7740 C   0  0  0  0  0  0  0  0  0  0  0  0
  162.0910  207.6130  147.8030 C   0  0  0  0  0  3  0  0  0  0  0  0
  161.5800  206.0240  149.5780 C   0  0  0  0  0  0  0  0  0  0  0  0
  161.5090  207.3540  152.9220 N   0  0  0  0  0  0  0  0  0  0  0  0
  161.9900  208.3740  150.4530 S   0  0  0  0  0  0  0  0  0  0  0  0
  160.9870  205.0210  153.1590 C   0  0  0  0  0  3  0  0  0  0  0  0
  161.6230  205.2690  147.2750 C   0  0  0  0  0  0  0  0  0  0  0  0
  161.4280  205.9420  150.9720 C   0  0  0  0  0  0  0  0  0  0  0  0
  161.8960  207.3120  149.1470 C   0  0  0  0  0  0  0  0  0  0  0  0
  161.6240  207.1790  151.5830 C   0  0  0  0  0  0  0  0  0  0  0  0
  161.1940  206.2930  153.7170 C   0  0  0  0  0  3  0  0  0  0  0  0
  161.4440  204.9950  148.6440 C   0  0  0  0  0  3  0  0  0  0  0  0
  159.7660  203.2240  150.5510 O   0  0  0  0  0  0  0  0  0  0  0  0
  161.4510  201.6330  150.0440 C   0  0  0  0  0  2  0  0  0  0  0  0
  160.2020  202.3420  149.5460 C   0  0  1  0  0  3  0  0  0  0  0  0
  160.8980  203.5230  151.2350 N   0  0  0  0  0  0  0  0  0  0  0  0
  161.9840  202.5840  151.0720 C   0  0  1  0  0  3  0  0  0  0  0  0
  162.2060  201.9070  152.2710 O   0  0  0  0  0  1  0  0  0  0  0  0
  159.1190  201.3270  149.2450 C   0  0  0  0  0  1  0  0  0  0  0  0
  161.5050  204.1660  146.2910 C   0  0  0  0  0  0  0  0  0  0  0  0
  161.8420  204.3770  145.0960 O   0  0  0  0  0  0  0  0  0  0  0  0
  161.0200  202.8920  146.6220 O   0  0  0  0  0  0  0  0  0  0  0  0
  160.9830  201.7850  145.7200 C   0  0  2  0  0  3  0  0  0  0  0  0
  159.7050  201.7800  144.8860 C   0  0  0  0  0  1  0  0  0  0  0  0
  161.1930  200.5580  146.3840 O   0  0  0  0  0  0  0  0  0  0  0  0
  160.6530  199.5230  145.6040 C   0  0  0  0  0  2  0  0  0  0  0  0
  161.5820  198.3290  145.6360 C   0  0  0  0  0  1  0  0  0  0  0  0
  1  8  2  0  0  0  0
  1  3  1  0  0  0  0
  2  7  1  0  0  0  0
  3 10  2  0  0  0  0
  4  9  1  0  0  0  0
  5 12  1  0  0  0  0
  6 11  1  0  0  0  0
  7 12  2  0  0  0  0
  8 13  1  0  0  0  0
  9 11  1  0  0  0  0
  9  2  2  0  0  0  0
 10  4  1  0  0  0  0
 10  6  1  0  0  0  0
 11  5  2  0  0  0  0
 13  4  2  0  0  0  0
 14 17  1  0  0  0  0
 15 18  1  0  0  0  0
 16 20  1  1  0  0  0
 16 15  1  0  0  0  0
 16 14  1  0  0  0  0
 17  2  1  0  0  0  0
 18 17  1  0  0  0  0
 18 19  1  1  0  0  0
 21 23  1  0  0  0  0
 21  8  1  0  0  0  0
 22 21  2  0  0  0  0
 24 25  1  1  0  0  0
 24 26  1  0  0  0  0
 24 23  1  0  0  0  0
 27 28  1  0  0  0  0
 27 26  1  0  0  0  0
M  END
>  <MODEL>
6

>  <REMARK>
 VINA RESULT:      -6.2      1.852      4.102
  Name = 
  6 active torsions:
  status: ('A' for Active; 'I' for Inactive)
    1  A    between atoms: C_2  and  N_16
    2  A    between atoms: C_9  and  O_15
    3  A    between atoms: C_9  and  O_18
    4  A    between atoms: C_11  and  C_12
    5  A    between atoms: C_12  and  O_15
    6  A    between atoms: O_18  and  C_27
                            x       y       z     vdW  Elec       q    Type
                         _______ _______ _______ _____ _____    ______ ____

>  <TORSDO>
F 6

$$$$
=
 OpenBabel11072414113D

 28 31  0  0  1  0  0  0  0  0999 V2000
  161.2040  206.5030  153.2400 C   0  0  0  0  0  3  0  0  0  0  0  0
  161.1620  203.8130  148.7000 C   0  0  0  0  0  0  0  0  0  0  0  0
  161.0620  205.1270  153.4690 C   0  0  0  0  0  3  0  0  0  0  0  0
  161.1440  204.7570  151.0630 C   0  0  0  0  0  0  0  0  0  0  0  0
  160.8310  201.3400  149.9750 N   0  0  0  0  0  0  0  0  0  0  0  0
  160.8600  202.6020  152.3780 S   0  0  0  0  0  0  0  0  0  0  0  0
  161.0560  202.6270  147.9580 C   0  0  0  0  0  3  0  0  0  0  0  0
  161.3050  207.0150  151.9300 C   0  0  0  0  0  0  0  0  0  0  0  0
  161.0910  203.7310  150.1040 C   0  0  0  0  0  0  0  0  0  0  0  0
  161.0320  204.2790  152.3680 C   0  0  0  0  0  0  0  0  0  0  0  0
  160.9300  202.4820  150.6980 C   0  0  0  0  0  0  0  0  0  0  0  0
  160.8920  201.3960  148.6150 C   0  0  0  0  0  3  0  0  0  0  0  0
  161.2830  206.1280  150.8370 C   0  0  0  0  0  3  0  0  0  0  0  0
  161.3880  206.2260  148.6810 O   0  0  0  0  0  0  0  0  0  0  0  0
  162.3280  206.4990  146.5190 C   0  0  0  0  0  2  0  0  0  0  0  0
  162.3270  206.9870  147.9590 C   0  0  1  0  0  3  0  0  0  0  0  0
  161.3360  205.0510  148.0060 N   0  0  0  0  0  0  0  0  0  0  0  0
  161.8100  205.0990  146.6420 C   0  0  1  0  0  3  0  0  0  0  0  0
  160.7420  204.9110  145.7650 O   0  0  0  0  0  1  0  0  0  0  0  0
  161.9490  208.4520  148.0070 C   0  0  0  0  0  1  0  0  0  0  0  0
  161.4810  208.4670  151.6840 C   0  0  0  0  0  0  0  0  0  0  0  0
  162.5500  208.8680  151.1520 O   0  0  0  0  0  0  0  0  0  0  0  0
  160.5190  209.4260  152.0310 O   0  0  0  0  0  0  0  0  0  0  0  0
  160.5800  210.2420  153.2020 C   0  0  2  0  0  3  0  0  0  0  0  0
  159.9780  211.6230  152.9580 C   0  0  0  0  0  1  0  0  0  0  0  0
  161.8890  210.3140  153.7250 O   0  0  0  0  0  0  0  0  0  0  0  0
  161.8110  210.4880  155.1160 C   0  0  0  0  0  2  0  0  0  0  0  0
  161.3100  209.2120  155.7570 C   0  0  0  0  0  1  0  0  0  0  0  0
  1  3  1  0  0  0  0
  2  9  1  0  0  0  0
  4 10  1  0  0  0  0
  5 11  1  0  0  0  0
  7 12  1  0  0  0  0
  7  2  2  0  0  0  0
  8  1  2  0  0  0  0
  9 11  2  0  0  0  0
  9  4  1  0  0  0  0
 10  6  1  0  0  0  0
 10  3  2  0  0  0  0
 11  6  1  0  0  0  0
 12  5  2  0  0  0  0
 13  4  2  0  0  0  0
 13  8  1  0  0  0  0
 15 18  1  0  0  0  0
 15 16  1  0  0  0  0
 16 20  1  6  0  0  0
 16 14  1  0  0  0  0
 17 14  1  0  0  0  0
 17  2  1  0  0  0  0
 18 19  1  6  0  0  0
 18 17  1  0  0  0  0
 21  8  1  0  0  0  0
 21 23  1  0  0  0  0
 22 21  2  0  0  0  0
 23 24  1  0  0  0  0
 24 25  1  6  0  0  0
 24 26  1  0  0  0  0
 26 27  1  0  0  0  0
 27 28  1  0  0  0  0
M  END
>  <MODEL>
7

>  <REMARK>
 VINA RESULT:      -6.2      3.224      6.979
  Name = 
  6 active torsions:
  status: ('A' for Active; 'I' for Inactive)
    1  A    between atoms: C_2  and  N_16
    2  A    between atoms: C_9  and  O_15
    3  A    between atoms: C_9  and  O_18
    4  A    between atoms: C_11  and  C_12
    5  A    between atoms: C_12  and  O_15
    6  A    between atoms: O_18  and  C_27
                            x       y       z     vdW  Elec       q    Type
                         _______ _______ _______ _____ _____    ______ ____

>  <TORSDO>
F 6

$$$$
=
 OpenBabel11072414113D

 28 31  0  0  1  0  0  0  0  0999 V2000
  161.1650  206.2730  153.1640 C   0  0  0  0  0  3  0  0  0  0  0  0
  161.1630  203.6990  148.5560 C   0  0  0  0  0  0  0  0  0  0  0  0
  161.0580  204.8880  153.3580 C   0  0  0  0  0  3  0  0  0  0  0  0
  161.1350  204.5810  150.9430 C   0  0  0  0  0  0  0  0  0  0  0  0
  160.9030  201.1860  149.7700 N   0  0  0  0  0  0  0  0  0  0  0  0
  160.9140  202.3870  152.2040 S   0  0  0  0  0  0  0  0  0  0  0  0
  161.0820  202.5290  147.7850 C   0  0  0  0  0  3  0  0  0  0  0  0
  161.2440  206.8200  151.8660 C   0  0  0  0  0  0  0  0  0  0  0  0
  161.1020  203.5790  149.9580 C   0  0  0  0  0  0  0  0  0  0  0  0
  161.0430  204.0680  152.2360 C   0  0  0  0  0  0  0  0  0  0  0  0
  160.9770  202.3110  150.5220 C   0  0  0  0  0  0  0  0  0  0  0  0
  160.9540  201.2780  148.4110 C   0  0  0  0  0  3  0  0  0  0  0  0
  161.2380  205.9610  150.7510 C   0  0  0  0  0  3  0  0  0  0  0  0
  161.2280  206.1210  148.5860 O   0  0  0  0  0  0  0  0  0  0  0  0
  162.2930  206.4950  146.4990 C   0  0  0  0  0  2  0  0  0  0  0  0
  162.1600  206.9550  147.9420 C   0  0  1  0  0  3  0  0  0  0  0  0
  161.3000  204.9570  147.8930 N   0  0  0  0  0  0  0  0  0  0  0  0
  161.8630  205.0620  146.5670 C   0  0  1  0  0  3  0  0  0  0  0  0
  160.8730  204.8200  145.6140 O   0  0  0  0  0  1  0  0  0  0  0  0
  161.6830  208.3910  147.9840 C   0  0  0  0  0  1  0  0  0  0  0  0
  161.3820  208.2810  151.6560 C   0  0  0  0  0  0  0  0  0  0  0  0
  162.4590  208.7290  151.1800 O   0  0  0  0  0  0  0  0  0  0  0  0
  160.3730  209.2010  151.9780 O   0  0  0  0  0  0  0  0  0  0  0  0
  160.5890  210.4140  152.7020 C   0  0  2  0  0  3  0  0  0  0  0  0
  161.2020  210.1500  154.0740 C   0  0  0  0  0  1  0  0  0  0  0  0
  159.4180  211.1960  152.7800 O   0  0  0  0  0  0  0  0  0  0  0  0
  159.7740  212.5530  152.7240 C   0  0  0  0  0  2  0  0  0  0  0  0
  159.1210  213.1980  151.5220 C   0  0  0  0  0  1  0  0  0  0  0  0
  1  3  1  0  0  0  0
  2  9  1  0  0  0  0
  4 10  1  0  0  0  0
  5 11  1  0  0  0  0
  6 10  1  0  0  0  0
  7 12  1  0  0  0  0
  7  2  2  0  0  0  0
  8  1  2  0  0  0  0
  9 11  2  0  0  0  0
  9  4  1  0  0  0  0
 10  3  2  0  0  0  0
 11  6  1  0  0  0  0
 12  5  2  0  0  0  0
 13  4  2  0  0  0  0
 13  8  1  0  0  0  0
 15 18  1  0  0  0  0
 15 16  1  0  0  0  0
 16 20  1  6  0  0  0
 16 14  1  0  0  0  0
 17  2  1  0  0  0  0
 17 14  1  0  0  0  0
 18 19  1  6  0  0  0
 18 17  1  0  0  0  0
 21  8  1  0  0  0  0
 21 23  1  0  0  0  0
 22 21  2  0  0  0  0
 23 24  1  0  0  0  0
 24 26  1  0  0  0  0
 24 25  1  1  0  0  0
 27 26  1  0  0  0  0
 28 27  1  0  0  0  0
M  END
>  <MODEL>
8

>  <REMARK>
 VINA RESULT:      -6.0      3.159      7.085
  Name = 
  6 active torsions:
  status: ('A' for Active; 'I' for Inactive)
    1  A    between atoms: C_2  and  N_16
    2  A    between atoms: C_9  and  O_15
    3  A    between atoms: C_9  and  O_18
    4  A    between atoms: C_11  and  C_12
    5  A    between atoms: C_12  and  O_15
    6  A    between atoms: O_18  and  C_27
                            x       y       z     vdW  Elec       q    Type
                         _______ _______ _______ _____ _____    ______ ____

>  <TORSDO>
F 6

$$$$
=
 OpenBabel11072414113D

 28 31  0  0  1  0  0  0  0  0999 V2000
  161.6340  207.9670  149.5960 C   0  0  0  0  0  3  0  0  0  0  0  0
  161.0800  203.1590  147.4910 C   0  0  0  0  0  0  0  0  0  0  0  0
  161.5130  208.0370  148.2010 C   0  0  0  0  0  3  0  0  0  0  0  0
  161.3200  205.6100  148.1340 C   0  0  0  0  0  0  0  0  0  0  0  0
  160.9520  204.1400  144.8690 N   0  0  0  0  0  0  0  0  0  0  0  0
  161.2070  206.6660  145.8270 S   0  0  0  0  0  0  0  0  0  0  0  0
  160.9440  202.2880  146.4000 C   0  0  0  0  0  3  0  0  0  0  0  0
  161.6110  206.7260  150.2660 C   0  0  0  0  0  0  0  0  0  0  0  0
  161.1590  204.5420  147.2350 C   0  0  0  0  0  0  0  0  0  0  0  0
  161.3610  206.8490  147.4960 C   0  0  0  0  0  0  0  0  0  0  0  0
  161.0870  204.9880  145.9170 C   0  0  0  0  0  0  0  0  0  0  0  0
  160.8790  202.7970  145.0920 C   0  0  0  0  0  3  0  0  0  0  0  0
  161.4430  205.5420  149.5230 C   0  0  0  0  0  3  0  0  0  0  0  0
  161.2390  203.4220  149.8950 O   0  0  0  0  0  0  0  0  0  0  0  0
  160.4530  201.2850  150.5600 C   0  0  0  0  0  2  0  0  0  0  0  0
  160.4670  202.7720  150.8750 C   0  0  1  0  0  3  0  0  0  0  0  0
  161.1360  202.6130  148.8110 N   0  0  0  0  0  0  0  0  0  0  0  0
  160.7370  201.2530  149.0900 C   0  0  1  0  0  3  0  0  0  0  0  0
  161.8000  200.3880  148.8320 O   0  0  0  0  0  1  0  0  0  0  0  0
  161.0690  203.0040  152.2440 C   0  0  0  0  0  1  0  0  0  0  0  0
  161.7120  206.6490  151.7430 C   0  0  0  0  0  0  0  0  0  0  0  0
  162.6880  206.0390  152.2550 O   0  0  0  0  0  0  0  0  0  0  0  0
  160.7620  207.2120  152.6080 O   0  0  0  0  0  0  0  0  0  0  0  0
  161.0710  207.7970  153.8740 C   0  0  2  0  0  3  0  0  0  0  0  0
  160.5460  206.9500  155.0290 C   0  0  0  0  0  1  0  0  0  0  0  0
  160.6390  209.1380  153.9540 O   0  0  0  0  0  0  0  0  0  0  0  0
  161.5490  209.9490  153.2580 C   0  0  0  0  0  2  0  0  0  0  0  0
  160.8150  210.7350  152.1940 C   0  0  0  0  0  1  0  0  0  0  0  0
  1  8  1  0  0  0  0
  2 17  1  0  0  0  0
  3  1  2  0  0  0  0
  4 13  1  0  0  0  0
  5 12  2  0  0  0  0
  5 11  1  0  0  0  0
  6 11  1  0  0  0  0
  6 10  1  0  0  0  0
  7  2  2  0  0  0  0
  8 21  1  0  0  0  0
  9  2  1  0  0  0  0
  9  4  1  0  0  0  0
 10  4  2  0  0  0  0
 10  3  1  0  0  0  0
 11  9  2  0  0  0  0
 12  7  1  0  0  0  0
 13  8  2  0  0  0  0
 14 16  1  0  0  0  0
 15 16  1  0  0  0  0
 16 20  1  1  0  0  0
 17 18  1  0  0  0  0
 17 14  1  0  0  0  0
 18 19  1  1  0  0  0
 18 15  1  0  0  0  0
 21 22  2  0  0  0  0
 21 23  1  0  0  0  0
 23 24  1  0  0  0  0
 24 26  1  0  0  0  0
 24 25  1  1  0  0  0
 27 26  1  0  0  0  0
 28 27  1  0  0  0  0
M  END
>  <MODEL>
9

>  <REMARK>
 VINA RESULT:      -5.9      3.070      7.166
  Name = 
  6 active torsions:
  status: ('A' for Active; 'I' for Inactive)
    1  A    between atoms: C_2  and  N_16
    2  A    between atoms: C_9  and  O_15
    3  A    between atoms: C_9  and  O_18
    4  A    between atoms: C_11  and  C_12
    5  A    between atoms: C_12  and  O_15
    6  A    between atoms: O_18  and  C_27
                            x       y       z     vdW  Elec       q    Type
                         _______ _______ _______ _____ _____    ______ ____

>  <TORSDO>
F 6

$$$$
