=
 OpenBabel11072414433D

 60 67  0  0  1  0  0  0  0  0999 V2000
  161.8310  205.9320  148.5290 O   0  0  0  0  0  1  0  0  0  0  0  0
  162.4850  208.5790  150.0130 C   0  0  2  0  0  3  0  0  0  0  0  0
  161.9260  209.1860  148.7730 C   0  0  1  0  0  3  0  0  0  0  0  0
  162.4850  207.1450  148.3000 C   0  0  1  0  0  3  0  0  0  0  0  0
  161.5380  208.1300  147.9670 O   0  0  0  0  0  0  0  0  0  0  0  0
  163.2090  207.5120  149.4740 O   0  0  0  0  0  0  0  0  0  0  0  0
  161.3340  205.9250  152.2450 O   0  0  0  0  0  1  0  0  0  0  0  0
  161.1310  206.6150  151.0600 C   0  0  0  0  0  0  0  0  0  0  0  0
  161.4850  208.0050  150.9530 N   0  0  0  0  0  0  0  0  0  0  0  0
  160.4430  206.0750  150.1510 O   0  0  0  0  0  0  0  0  0  0  0  0
  160.6680  208.9750  151.6840 C   0  0  0  0  0  2  0  0  0  0  0  0
  160.5810  207.4040  157.1610 C   0  0  2  0  0  3  0  0  0  0  0  0
  163.2940  210.6690  153.8350 C   0  0  0  0  0  3  0  0  0  0  0  0
  161.6110  206.9810  156.1300 C   0  0  0  0  0  2  0  0  0  0  0  0
  160.8360  209.3150  154.2080 C   0  0  0  0  0  0  0  0  0  0  0  0
  161.5330  209.8650  155.3210 C   0  0  0  0  0  0  0  0  0  0  0  0
  160.1660  206.5510  155.9210 C   0  0  2  0  0  3  0  0  0  0  0  0
  162.5980  210.1450  152.7400 C   0  0  0  0  0  3  0  0  0  0  0  0
  162.7590  210.5320  155.1210 C   0  0  0  0  0  0  0  0  0  0  0  0
  163.4680  211.0560  156.2000 O   0  0  0  0  0  1  0  0  0  0  0  0
  159.9680  208.8120  157.1180 C   0  0  0  0  0  2  0  0  0  0  0  0
  159.7300  207.0890  154.5330 C   0  0  0  0  0  2  0  0  0  0  0  0
  161.3620  209.4980  152.9120 C   0  0  0  0  0  0  0  0  0  0  0  0
  159.5160  208.6020  154.3680 C   0  0  0  0  0  2  0  0  0  0  0  0
  160.8810  209.9860  156.6890 C   0  0  2  0  0  3  0  0  0  0  0  0
  160.1620  213.7060  156.2890 C   0  0  0  0  0  2  0  0  0  0  0  0
  160.9130  212.5720  157.0170 C   0  0  0  0  0  2  0  0  0  0  0  0
  159.1530  211.6580  155.5880 C   0  0  0  0  0  2  0  0  0  0  0  0
  158.8090  213.1050  155.9030 C   0  0  1  0  0  3  0  0  0  0  0  0
  160.1150  211.3200  156.7100 C   0  0  1  0  0  3  0  0  0  0  0  0
  157.7840  213.0880  156.8930 O   0  0  0  0  0  0  0  0  0  0  0  0
  156.9800  214.2480  156.8970 C   0  0  0  0  0  2  0  0  0  0  0  0
  155.5820  213.8470  156.6830 N   0  0  0  0  0  1  0  0  0  0  0  0
  161.0210  210.4170  148.7610 C   0  0  1  0  0  3  0  0  0  0  0  0
  161.1260  211.3900  147.6430 C   0  0  1  0  0  3  0  0  0  0  0  0
  160.2370  210.3240  147.5930 O   0  0  0  0  0  0  0  0  0  0  0  0
  160.3160  212.7050  147.8750 C   0  0  1  0  0  3  0  0  0  0  0  0
  161.0770  213.9160  148.3440 N   0  0  0  0  0  0  0  0  0  0  0  0
  161.1270  213.9850  149.8190 C   0  0  0  0  0  2  0  0  0  0  0  0
  157.6280  214.2650  150.6760 N   0  0  0  0  0  0  0  0  0  0  0  0
  158.6860  214.4470  149.9210 O   0  0  0  0  0  0  0  0  0  0  0  0
  159.3930  213.3800  151.6810 C   0  0  0  0  0  0  0  0  0  0  0  0
  160.1550  212.6490  152.5740 O   0  0  0  0  0  1  0  0  0  0  0  0
  158.0480  213.6330  151.7870 C   0  0  0  0  0  0  0  0  0  0  0  0
  159.7650  213.9380  150.4620 C   0  0  0  0  0  0  0  0  0  0  0  0
  155.9420  214.0060  152.9020 N   0  0  0  0  0  1  0  0  0  0  0  0
  157.1540  213.1930  152.8970 C   0  0  0  0  0  2  0  0  0  0  0  0
  162.4440  213.8390  147.7530 C   0  0  0  0  0  2  0  0  0  0  0  0
  162.5880  214.4390  146.3440 C   0  0  0  0  0  2  0  0  0  0  0  0
  162.8050  213.3000  145.3540 C   0  0  0  0  0  2  0  0  0  0  0  0
  161.2270  213.9630  141.9530 N   0  0  0  0  0  0  0  0  0  0  0  0
  161.3370  213.6520  143.2790 C   0  0  0  0  0  0  0  0  0  0  0  0
  163.7060  214.0480  143.1200 C   0  0  0  0  0  3  0  0  0  0  0  0
  160.1000  213.2580  144.0330 C   0  0  0  0  0  1  0  0  0  0  0  0
  162.3000  214.2820  141.1850 C   0  0  0  0  0  3  0  0  0  0  0  0
  162.6040  213.7310  143.9120 C   0  0  0  0  0  0  0  0  0  0  0  0
  163.5710  214.3310  141.7520 C   0  0  0  0  0  3  0  0  0  0  0  0
  159.2750  213.0100  146.7740 C   0  0  0  0  0  2  0  0  0  0  0  0
  157.9680  212.9560  147.2980 O   0  0  0  0  0  0  0  0  0  0  0  0
  157.2400  212.2600  146.3510 C   0  0  0  0  0  1  0  0  0  0  0  0
  2  9  1  1  0  0  0
  3  5  1  1  0  0  0
  3  2  1  0  0  0  0
  4  1  1  1  0  0  0
  4  6  1  0  0  0  0
  5  4  1  0  0  0  0
  6  2  1  0  0  0  0
  8  7  1  0  0  0  0
  9  8  1  0  0  0  0
  9 11  1  0  0  0  0
 10  8  2  0  0  0  0
 11 23  1  0  0  0  0
 12 14  1  6  0  0  0
 13 19  1  0  0  0  0
 15 24  1  0  0  0  0
 15 16  1  0  0  0  0
 16 25  1  0  0  0  0
 17 22  1  6  0  0  0
 17 14  1  0  0  0  0
 17 12  1  0  0  0  0
 18 23  1  0  0  0  0
 18 13  2  0  0  0  0
 19 16  2  0  0  0  0
 19 20  1  0  0  0  0
 21 12  1  0  0  0  0
 23 15  2  0  0  0  0
 24 22  1  0  0  0  0
 25 30  1  0  0  0  0
 25 21  1  6  0  0  0
 26 27  1  0  0  0  0
 28 29  1  0  0  0  0
 29 26  1  0  0  0  0
 29 31  1  1  0  0  0
 30 28  1  6  0  0  0
 30 27  1  0  0  0  0
 31 32  1  0  0  0  0
 33 32  1  0  0  0  0
 34 36  1  6  0  0  0
 34  3  1  0  0  0  0
 35 37  1  1  0  0  0
 35 34  1  0  0  0  0
 36 35  1  0  0  0  0
 37 58  1  6  0  0  0
 37 38  1  0  0  0  0
 38 39  1  0  0  0  0
 39 45  1  0  0  0  0
 40 44  2  0  0  0  0
 41 45  1  0  0  0  0
 41 40  1  0  0  0  0
 42 44  1  0  0  0  0
 42 43  1  0  0  0  0
 44 47  1  0  0  0  0
 45 42  2  0  0  0  0
 47 46  1  0  0  0  0
 48 38  1  0  0  0  0
 49 48  1  0  0  0  0
 50 49  1  0  0  0  0
 51 52  1  0  0  0  0
 52 56  2  0  0  0  0
 52 54  1  0  0  0  0
 53 56  1  0  0  0  0
 55 57  1  0  0  0  0
 55 51  2  0  0  0  0
 56 50  1  0  0  0  0
 57 53  2  0  0  0  0
 58 59  1  0  0  0  0
 60 59  1  0  0  0  0
M  END
>  <MODEL>
1

>  <REMARK>
 VINA RESULT:      -1.3      0.000      0.000
  Name = 
  18 active torsions:
  status: ('A' for Active; 'I' for Inactive)
    1  A    between atoms: C_2  and  O_3
    2  A    between atoms: O_3  and  C_34
    3  A    between atoms: C_6  and  N_58
    4  A    between atoms: O_8  and  C_16
    5  A    between atoms: C_15  and  C_21
    6  A    between atoms: C_16  and  C_50
    7  A    between atoms: C_20  and  N_38
    8  A    between atoms: C_20  and  C_52
    9  A    between atoms: C_29  and  N_38
   10  A    between atoms: C_29  and  C_51
   11  A    between atoms: N_38  and  C_50
   12  A    between atoms: C_40  and  C_44
   13  A    between atoms: C_43  and  C_50
   14  A    between atoms: C_44  and  C_52
   15  A    between atoms: C_45  and  C_56
   16  A    between atoms: C_48  and  C_57
   17  A    between atoms: C_49  and  C_53
   18  A    between atoms: C_53  and  N_58
                            x       y       z     vdW  Elec       q    Type
                         _______ _______ _______ _____ _____    ______ ____

>  <TORSDO>
F 18

$$$$
=
 OpenBabel11072414433D

 60 67  0  0  1  0  0  0  0  0999 V2000
  159.5400  208.3750  155.3190 O   0  0  0  0  0  1  0  0  0  0  0  0
  161.9150  207.6340  153.4630 C   0  0  2  0  0  3  0  0  0  0  0  0
  161.5320  206.2480  153.8480 C   0  0  1  0  0  3  0  0  0  0  0  0
  160.6940  207.5890  155.3320 C   0  0  1  0  0  3  0  0  0  0  0  0
  160.4340  206.3680  154.6820 O   0  0  0  0  0  0  0  0  0  0  0  0
  161.7480  208.2970  154.6820 O   0  0  0  0  0  0  0  0  0  0  0  0
  160.2800  207.7570  150.1980 O   0  0  0  0  0  0  0  0  0  0  0  0
  161.2170  208.3220  151.0490 C   0  0  0  0  0  0  0  0  0  0  0  0
  161.0210  208.2950  152.4740 N   0  0  0  0  0  0  0  0  0  0  0  0
  162.1300  209.0410  150.5590 O   0  0  0  0  0  1  0  0  0  0  0  0
  159.9680  209.1430  153.0340 C   0  0  0  0  0  2  0  0  0  0  0  0
  158.1700  214.1180  155.1530 C   0  0  2  0  0  3  0  0  0  0  0  0
  161.2440  212.1880  151.1650 C   0  0  0  0  0  3  0  0  0  0  0  0
  159.5670  213.5430  155.2930 C   0  0  0  0  0  2  0  0  0  0  0  0
  159.1260  211.5500  152.9330 C   0  0  0  0  0  0  0  0  0  0  0  0
  159.2470  212.8640  152.3930 C   0  0  0  0  0  0  0  0  0  0  0  0
  158.4100  212.7860  155.9290 C   0  0  2  0  0  3  0  0  0  0  0  0
  161.1140  210.8940  151.6800 C   0  0  0  0  0  3  0  0  0  0  0  0
  160.3090  213.1670  151.5180 C   0  0  0  0  0  0  0  0  0  0  0  0
  160.4580  214.4520  151.0000 O   0  0  0  0  0  1  0  0  0  0  0  0
  157.3600  213.8920  153.8660 C   0  0  0  0  0  2  0  0  0  0  0  0
  158.4230  211.3550  155.3300 C   0  0  0  0  0  2  0  0  0  0  0  0
  160.0480  210.5600  152.5340 C   0  0  0  0  0  0  0  0  0  0  0  0
  158.0020  211.1720  153.8640 C   0  0  0  0  0  2  0  0  0  0  0  0
  158.1270  213.8830  152.5210 C   0  0  2  0  0  3  0  0  0  0  0  0
  155.0250  214.1580  150.3260 C   0  0  0  0  0  2  0  0  0  0  0  0
  155.6820  213.6820  151.6390 C   0  0  0  0  0  2  0  0  0  0  0  0
  157.3830  214.4010  150.0370 C   0  0  0  0  0  2  0  0  0  0  0  0
  156.1220  214.0440  149.2670 C   0  0  1  0  0  3  0  0  0  0  0  0
  157.1680  213.6560  151.3400 C   0  0  1  0  0  3  0  0  0  0  0  0
  156.3400  212.7670  148.6720 O   0  0  0  0  0  0  0  0  0  0  0  0
  157.4950  212.7070  147.8630 C   0  0  0  0  0  2  0  0  0  0  0  0
  157.2720  213.5360  146.6700 N   0  0  0  0  0  1  0  0  0  0  0  0
  161.5200  205.0670  152.8790 C   0  0  1  0  0  3  0  0  0  0  0  0
  160.4760  204.9980  151.8250 C   0  0  1  0  0  3  0  0  0  0  0  0
  161.7000  205.6070  151.5890 O   0  0  0  0  0  0  0  0  0  0  0  0
  160.4400  203.6350  151.0620 C   0  0  1  0  0  3  0  0  0  0  0  0
  160.8910  203.6300  149.6260 N   0  0  0  0  0  0  0  0  0  0  0  0
  161.6280  204.8650  149.2870 C   0  0  0  0  0  2  0  0  0  0  0  0
  160.2740  206.3890  146.3030 N   0  0  0  0  0  0  0  0  0  0  0  0
  160.2830  206.0670  147.5760 O   0  0  0  0  0  0  0  0  0  0  0  0
  162.0930  205.2000  146.7350 C   0  0  0  0  0  0  0  0  0  0  0  0
  163.3350  204.6120  146.5780 O   0  0  0  0  0  1  0  0  0  0  0  0
  161.3710  205.8340  145.7560 C   0  0  0  0  0  0  0  0  0  0  0  0
  161.3420  205.3650  147.8950 C   0  0  0  0  0  0  0  0  0  0  0  0
  161.0250  205.0460  143.5020 N   0  0  0  0  0  1  0  0  0  0  0  0
  161.7720  205.9900  144.3280 C   0  0  0  0  0  2  0  0  0  0  0  0
  161.7350  202.4170  149.4280 C   0  0  0  0  0  2  0  0  0  0  0  0
  160.9630  201.1140  149.1600 C   0  0  0  0  0  2  0  0  0  0  0  0
  161.5730  200.4340  147.9380 C   0  0  0  0  0  2  0  0  0  0  0  0
  160.1450  200.2130  144.4160 N   0  0  0  0  0  0  0  0  0  0  0  0
  160.7400  199.8350  145.5860 C   0  0  0  0  0  0  0  0  0  0  0  0
  160.3810  202.0620  146.4260 C   0  0  0  0  0  3  0  0  0  0  0  0
  161.2560  198.4310  145.7130 C   0  0  0  0  0  1  0  0  0  0  0  0
  159.6950  201.4760  144.1990 C   0  0  0  0  0  3  0  0  0  0  0  0
  160.8340  200.7640  146.6540 C   0  0  0  0  0  0  0  0  0  0  0  0
  159.8040  202.4340  145.2020 C   0  0  0  0  0  3  0  0  0  0  0  0
  160.9640  202.4360  151.8840 C   0  0  0  0  0  2  0  0  0  0  0  0
  162.3010  202.6490  152.2760 O   0  0  0  0  0  0  0  0  0  0  0  0
  162.9720  201.5130  151.8620 C   0  0  0  0  0  1  0  0  0  0  0  0
  2  9  1  6  0  0  0
  2  3  1  0  0  0  0
  2  6  1  0  0  0  0
  3  5  1  6  0  0  0
  4  1  1  6  0  0  0
  5  4  1  0  0  0  0
  6  4  1  0  0  0  0
  7  8  2  0  0  0  0
  8  9  1  0  0  0  0
  9 11  1  0  0  0  0
 10  8  1  0  0  0  0
 12 21  1  6  0  0  0
 12 14  1  0  0  0  0
 12 17  1  0  0  0  0
 13 19  2  0  0  0  0
 13 18  1  0  0  0  0
 15 24  1  0  0  0  0
 16 25  1  0  0  0  0
 16 15  2  0  0  0  0
 17 14  1  6  0  0  0
 18 23  2  0  0  0  0
 19 16  1  0  0  0  0
 20 19  1  0  0  0  0
 22 17  1  0  0  0  0
 23 15  1  0  0  0  0
 23 11  1  0  0  0  0
 24 22  1  0  0  0  0
 25 21  1  1  0  0  0
 26 27  1  0  0  0  0
 29 31  1  1  0  0  0
 29 28  1  0  0  0  0
 29 26  1  0  0  0  0
 30 28  1  6  0  0  0
 30 27  1  0  0  0  0
 30 25  1  0  0  0  0
 32 31  1  0  0  0  0
 33 32  1  0  0  0  0
 34 36  1  6  0  0  0
 34  3  1  0  0  0  0
 35 37  1  6  0  0  0
 35 34  1  0  0  0  0
 36 35  1  0  0  0  0
 37 58  1  1  0  0  0
 38 37  1  0  0  0  0
 39 38  1  0  0  0  0
 40 41  1  0  0  0  0
 41 45  1  0  0  0  0
 42 45  2  0  0  0  0
 43 42  1  0  0  0  0
 44 40  2  0  0  0  0
 44 42  1  0  0  0  0
 45 39  1  0  0  0  0
 46 47  1  0  0  0  0
 47 44  1  0  0  0  0
 48 38  1  0  0  0  0
 49 48  1  0  0  0  0
 50 49  1  0  0  0  0
 51 52  1  0  0  0  0
 52 54  1  0  0  0  0
 52 56  2  0  0  0  0
 53 56  1  0  0  0  0
 55 51  2  0  0  0  0
 55 57  1  0  0  0  0
 56 50  1  0  0  0  0
 57 53  2  0  0  0  0
 58 59  1  0  0  0  0
 60 59  1  0  0  0  0
M  END
>  <MODEL>
2

>  <REMARK>
 VINA RESULT:       0.2      3.926      8.919
  Name = 
  18 active torsions:
  status: ('A' for Active; 'I' for Inactive)
    1  A    between atoms: C_2  and  O_3
    2  A    between atoms: O_3  and  C_34
    3  A    between atoms: C_6  and  N_58
    4  A    between atoms: O_8  and  C_16
    5  A    between atoms: C_15  and  C_21
    6  A    between atoms: C_16  and  C_50
    7  A    between atoms: C_20  and  N_38
    8  A    between atoms: C_20  and  C_52
    9  A    between atoms: C_29  and  N_38
   10  A    between atoms: C_29  and  C_51
   11  A    between atoms: N_38  and  C_50
   12  A    between atoms: C_40  and  C_44
   13  A    between atoms: C_43  and  C_50
   14  A    between atoms: C_44  and  C_52
   15  A    between atoms: C_45  and  C_56
   16  A    between atoms: C_48  and  C_57
   17  A    between atoms: C_49  and  C_53
   18  A    between atoms: C_53  and  N_58
                            x       y       z     vdW  Elec       q    Type
                         _______ _______ _______ _____ _____    ______ ____

>  <TORSDO>
F 18

$$$$
=
 OpenBabel11072414433D

 60 67  0  0  1  0  0  0  0  0999 V2000
  162.4730  208.9290  156.7920 O   0  0  0  0  0  1  0  0  0  0  0  0
  160.3340  209.2080  154.5600 C   0  0  2  0  0  3  0  0  0  0  0  0
  161.4200  208.6370  153.7160 C   0  0  1  0  0  3  0  0  0  0  0  0
  162.3450  209.4480  155.5020 C   0  0  1  0  0  3  0  0  0  0  0  0
  162.4890  208.4090  154.5650 O   0  0  0  0  0  0  0  0  0  0  0  0
  161.0690  210.0730  155.3760 O   0  0  0  0  0  0  0  0  0  0  0  0
  160.3100  206.1840  156.6110 O   0  0  0  0  0  1  0  0  0  0  0  0
  159.8430  206.8170  155.4690 C   0  0  0  0  0  0  0  0  0  0  0  0
  159.6400  208.2400  155.4530 N   0  0  0  0  0  0  0  0  0  0  0  0
  159.4000  206.1130  154.5220 O   0  0  0  0  0  0  0  0  0  0  0  0
  158.5270  208.7800  156.2340 C   0  0  0  0  0  2  0  0  0  0  0  0
  154.5340  212.8380  155.9920 C   0  0  2  0  0  3  0  0  0  0  0  0
  159.7440  212.2290  157.2400 C   0  0  0  0  0  3  0  0  0  0  0  0
  155.0870  212.2080  157.2560 C   0  0  0  0  0  2  0  0  0  0  0  0
  157.6000  211.1110  155.7670 C   0  0  0  0  0  0  0  0  0  0  0  0
  157.7330  212.5240  155.8900 C   0  0  0  0  0  0  0  0  0  0  0  0
  154.3280  211.3190  156.2820 C   0  0  2  0  0  3  0  0  0  0  0  0
  159.6230  210.8420  157.1030 C   0  0  0  0  0  3  0  0  0  0  0  0
  158.8040  213.0660  156.6300 C   0  0  0  0  0  0  0  0  0  0  0  0
  158.9370  214.4450  156.7820 O   0  0  0  0  0  1  0  0  0  0  0  0
  155.4430  213.0700  154.7750 C   0  0  0  0  0  2  0  0  0  0  0  0
  155.2840  210.1630  155.8850 C   0  0  0  0  0  2  0  0  0  0  0  0
  158.5790  210.2790  156.3470 C   0  0  0  0  0  0  0  0  0  0  0  0
  156.4800  210.4830  154.9760 C   0  0  0  0  0  2  0  0  0  0  0  0
  156.9130  213.4790  155.0370 C   0  0  2  0  0  3  0  0  0  0  0  0
  159.7180  213.3120  152.4650 C   0  0  0  0  0  2  0  0  0  0  0  0
  159.1790  213.8540  153.8050 C   0  0  0  0  0  2  0  0  0  0  0  0
  157.3930  212.7730  152.5340 C   0  0  0  0  0  2  0  0  0  0  0  0
  158.4890  213.1830  151.5640 C   0  0  1  0  0  3  0  0  0  0  0  0
  157.6750  213.6790  153.7170 C   0  0  1  0  0  3  0  0  0  0  0  0
  158.0370  214.3520  150.8860 O   0  0  0  0  0  0  0  0  0  0  0  0
  157.7230  214.1350  149.5270 C   0  0  0  0  0  2  0  0  0  0  0  0
  156.4330  213.4340  149.4530 N   0  0  0  0  0  1  0  0  0  0  0  0
  161.1900  207.5970  152.6210 C   0  0  1  0  0  3  0  0  0  0  0  0
  162.3100  207.2300  151.7150 C   0  0  1  0  0  3  0  0  0  0  0  0
  162.0730  206.5310  152.8910 O   0  0  0  0  0  0  0  0  0  0  0  0
  161.8760  206.3390  150.5070 C   0  0  1  0  0  3  0  0  0  0  0  0
  161.7620  207.0010  149.1610 N   0  0  0  0  0  0  0  0  0  0  0  0
  160.6410  206.4410  148.3780 C   0  0  0  0  0  2  0  0  0  0  0  0
  161.9290  204.3350  145.7390 N   0  0  0  0  0  0  0  0  0  0  0  0
  161.6700  205.4790  146.3290 O   0  0  0  0  0  0  0  0  0  0  0  0
  160.8840  203.9410  147.6520 C   0  0  0  0  0  0  0  0  0  0  0  0
  160.3710  203.2620  148.7420 O   0  0  0  0  0  1  0  0  0  0  0  0
  161.4220  203.3690  146.5260 C   0  0  0  0  0  0  0  0  0  0  0  0
  161.0540  205.3100  147.4730 C   0  0  0  0  0  0  0  0  0  0  0  0
  160.2030  201.3270  146.1250 N   0  0  0  0  0  1  0  0  0  0  0  0
  161.5360  201.9080  146.2490 C   0  0  0  0  0  2  0  0  0  0  0  0
  161.5880  208.4630  149.3970 C   0  0  0  0  0  2  0  0  0  0  0  0
  162.5740  209.3730  148.6450 C   0  0  0  0  0  2  0  0  0  0  0  0
  162.3060  210.8180  149.0540 C   0  0  0  0  0  2  0  0  0  0  0  0
  162.5030  213.6950  146.5690 N   0  0  0  0  0  0  0  0  0  0  0  0
  162.8420  212.8600  147.5950 C   0  0  0  0  0  0  0  0  0  0  0  0
  160.8770  211.5560  147.1120 C   0  0  0  0  0  3  0  0  0  0  0  0
  164.0770  213.1610  148.3940 C   0  0  0  0  0  1  0  0  0  0  0  0
  161.3770  213.5250  145.8280 C   0  0  0  0  0  3  0  0  0  0  0  0
  162.0370  211.7240  147.8660 C   0  0  0  0  0  0  0  0  0  0  0  0
  160.5340  212.4480  146.0840 C   0  0  0  0  0  3  0  0  0  0  0  0
  162.5610  204.9540  150.4660 C   0  0  0  0  0  2  0  0  0  0  0  0
  162.1660  204.1720  151.5710 O   0  0  0  0  0  0  0  0  0  0  0  0
  160.7920  204.0690  151.4530 C   0  0  0  0  0  1  0  0  0  0  0  0
  2  6  1  0  0  0  0
  2  9  1  1  0  0  0
  3  2  1  0  0  0  0
  3  5  1  1  0  0  0
  4  1  1  1  0  0  0
  5  4  1  0  0  0  0
  6  4  1  0  0  0  0
  8  7  1  0  0  0  0
  9  8  1  0  0  0  0
  9 11  1  0  0  0  0
 10  8  2  0  0  0  0
 11 23  1  0  0  0  0
 12 21  1  6  0  0  0
 12 17  1  0  0  0  0
 12 14  1  0  0  0  0
 15 16  2  0  0  0  0
 15 23  1  0  0  0  0
 16 19  1  0  0  0  0
 17 22  1  6  0  0  0
 17 14  1  0  0  0  0
 18 13  1  0  0  0  0
 19 20  1  0  0  0  0
 19 13  2  0  0  0  0
 23 18  2  0  0  0  0
 24 15  1  0  0  0  0
 24 22  1  0  0  0  0
 25 21  1  6  0  0  0
 25 16  1  0  0  0  0
 26 27  1  0  0  0  0
 29 31  1  1  0  0  0
 29 26  1  0  0  0  0
 29 28  1  0  0  0  0
 30 28  1  6  0  0  0
 30 27  1  0  0  0  0
 30 25  1  0  0  0  0
 32 31  1  0  0  0  0
 33 32  1  0  0  0  0
 34 36  1  1  0  0  0
 34  3  1  0  0  0  0
 35 37  1  6  0  0  0
 35 34  1  0  0  0  0
 35 36  1  0  0  0  0
 37 58  1  6  0  0  0
 38 48  1  0  0  0  0
 38 37  1  0  0  0  0
 39 38  1  0  0  0  0
 40 41  1  0  0  0  0
 40 44  2  0  0  0  0
 41 45  1  0  0  0  0
 42 43  1  0  0  0  0
 44 42  1  0  0  0  0
 45 42  2  0  0  0  0
 45 39  1  0  0  0  0
 46 47  1  0  0  0  0
 47 44  1  0  0  0  0
 49 50  1  0  0  0  0
 49 48  1  0  0  0  0
 51 52  1  0  0  0  0
 52 56  2  0  0  0  0
 52 54  1  0  0  0  0
 53 56  1  0  0  0  0
 55 57  1  0  0  0  0
 55 51  2  0  0  0  0
 56 50  1  0  0  0  0
 57 53  2  0  0  0  0
 58 59  1  0  0  0  0
 60 59  1  0  0  0  0
M  END
>  <MODEL>
3

>  <REMARK>
 VINA RESULT:       0.7      2.672      7.114
  Name = 
  18 active torsions:
  status: ('A' for Active; 'I' for Inactive)
    1  A    between atoms: C_2  and  O_3
    2  A    between atoms: O_3  and  C_34
    3  A    between atoms: C_6  and  N_58
    4  A    between atoms: O_8  and  C_16
    5  A    between atoms: C_15  and  C_21
    6  A    between atoms: C_16  and  C_50
    7  A    between atoms: C_20  and  N_38
    8  A    between atoms: C_20  and  C_52
    9  A    between atoms: C_29  and  N_38
   10  A    between atoms: C_29  and  C_51
   11  A    between atoms: N_38  and  C_50
   12  A    between atoms: C_40  and  C_44
   13  A    between atoms: C_43  and  C_50
   14  A    between atoms: C_44  and  C_52
   15  A    between atoms: C_45  and  C_56
   16  A    between atoms: C_48  and  C_57
   17  A    between atoms: C_49  and  C_53
   18  A    between atoms: C_53  and  N_58
                            x       y       z     vdW  Elec       q    Type
                         _______ _______ _______ _____ _____    ______ ____

>  <TORSDO>
F 18

$$$$
=
 OpenBabel11072414433D

 60 67  0  0  1  0  0  0  0  0999 V2000
  160.2760  206.7260  153.1420 O   0  0  0  0  0  1  0  0  0  0  0  0
  162.4540  207.5200  151.0780 C   0  0  2  0  0  3  0  0  0  0  0  0
  161.6570  206.6330  150.1850 C   0  0  1  0  0  3  0  0  0  0  0  0
  161.1460  206.1240  152.2300 C   0  0  1  0  0  3  0  0  0  0  0  0
  160.5870  206.1860  150.9410 O   0  0  0  0  0  0  0  0  0  0  0  0
  162.4040  206.7970  152.2720 O   0  0  0  0  0  0  0  0  0  0  0  0
  161.9670  211.0400  150.2260 O   0  0  0  0  0  0  0  0  0  0  0  0
  162.5070  210.1240  151.1160 C   0  0  0  0  0  0  0  0  0  0  0  0
  161.8620  208.8590  151.3450 N   0  0  0  0  0  0  0  0  0  0  0  0
  163.4430  210.4930  151.8750 O   0  0  0  0  0  1  0  0  0  0  0  0
  160.5970  208.8610  152.0810 C   0  0  0  0  0  2  0  0  0  0  0  0
  161.6010  211.0180  157.2590 C   0  0  2  0  0  3  0  0  0  0  0  0
  159.9280  212.5830  152.3780 C   0  0  0  0  0  3  0  0  0  0  0  0
  162.4710  211.2100  156.0300 C   0  0  0  0  0  2  0  0  0  0  0  0
  160.1680  210.3540  154.1050 C   0  0  0  0  0  0  0  0  0  0  0  0
  159.8590  211.6430  154.6280 C   0  0  0  0  0  0  0  0  0  0  0  0
  162.3080  209.8010  156.5830 C   0  0  2  0  0  3  0  0  0  0  0  0
  160.2130  211.3140  151.8630 C   0  0  0  0  0  3  0  0  0  0  0  0
  159.7470  212.7440  153.7550 C   0  0  0  0  0  0  0  0  0  0  0  0
  159.4700  214.0170  154.2500 O   0  0  0  0  0  1  0  0  0  0  0  0
  160.0720  210.9370  157.1260 C   0  0  0  0  0  2  0  0  0  0  0  0
  161.7440  208.9270  155.4320 C   0  0  0  0  0  2  0  0  0  0  0  0
  160.3030  210.1950  152.7110 C   0  0  0  0  0  0  0  0  0  0  0  0
  160.2870  209.1420  154.9950 C   0  0  0  0  0  2  0  0  0  0  0  0
  159.3900  211.8300  156.0620 C   0  0  2  0  0  3  0  0  0  0  0  0
  155.7770  211.8210  154.8530 C   0  0  0  0  0  2  0  0  0  0  0  0
  157.0360  212.6140  155.2630 C   0  0  0  0  0  2  0  0  0  0  0  0
  157.2780  210.2530  155.8480 C   0  0  0  0  0  2  0  0  0  0  0  0
  155.7950  210.5650  155.7250 C   0  0  1  0  0  3  0  0  0  0  0  0
  157.8650  211.6330  156.0700 C   0  0  1  0  0  3  0  0  0  0  0  0
  155.2750  210.6680  157.0480 O   0  0  0  0  0  0  0  0  0  0  0  0
  153.8920  210.3980  157.1370 C   0  0  0  0  0  2  0  0  0  0  0  0
  153.6240  209.1130  156.4760 N   0  0  0  0  0  1  0  0  0  0  0  0
  161.3680  206.9400  148.7170 C   0  0  1  0  0  3  0  0  0  0  0  0
  161.5970  205.8890  147.6920 C   0  0  1  0  0  3  0  0  0  0  0  0
  160.3630  206.0380  148.3100 O   0  0  0  0  0  0  0  0  0  0  0  0
  161.4860  206.4070  146.2220 C   0  0  1  0  0  3  0  0  0  0  0  0
  162.3950  205.7870  145.1960 N   0  0  0  0  0  0  0  0  0  0  0  0
  162.9940  204.5310  145.6920 C   0  0  0  0  0  2  0  0  0  0  0  0
  160.4610  201.9580  145.5500 N   0  0  0  0  0  0  0  0  0  0  0  0
  161.2680  202.8610  145.0460 O   0  0  0  0  0  0  0  0  0  0  0  0
  161.5960  202.9110  147.1960 C   0  0  0  0  0  0  0  0  0  0  0  0
  162.1180  203.1460  148.4550 O   0  0  0  0  0  1  0  0  0  0  0  0
  160.6240  201.9940  146.8860 C   0  0  0  0  0  0  0  0  0  0  0  0
  161.9740  203.4580  145.9740 C   0  0  0  0  0  0  0  0  0  0  0  0
  159.9070  201.7050  149.1710 N   0  0  0  0  0  1  0  0  0  0  0  0
  159.9240  201.0930  147.8460 C   0  0  0  0  0  2  0  0  0  0  0  0
  161.5850  205.5580  143.9640 C   0  0  0  0  0  2  0  0  0  0  0  0
  162.3130  205.8290  142.6370 C   0  0  0  0  0  2  0  0  0  0  0  0
  161.6810  207.0520  141.9800 C   0  0  0  0  0  2  0  0  0  0  0  0
  161.9000  208.3050  138.3920 N   0  0  0  0  0  0  0  0  0  0  0  0
  161.7010  208.3100  139.7440 C   0  0  0  0  0  0  0  0  0  0  0  0
  162.3700  205.9980  139.7960 C   0  0  0  0  0  3  0  0  0  0  0  0
  161.2150  209.5700  140.3980 C   0  0  0  0  0  1  0  0  0  0  0  0
  162.2910  207.1960  137.7130 C   0  0  0  0  0  3  0  0  0  0  0  0
  161.9790  207.1380  140.4940 C   0  0  0  0  0  0  0  0  0  0  0  0
  162.5350  206.0100  138.4020 C   0  0  0  0  0  3  0  0  0  0  0  0
  160.0340  206.6070  145.7310 C   0  0  0  0  0  2  0  0  0  0  0  0
  159.2820  205.4290  145.9110 O   0  0  0  0  0  0  0  0  0  0  0  0
  158.6480  205.2300  144.6980 C   0  0  0  0  0  1  0  0  0  0  0  0
  2  9  1  1  0  0  0
  2  6  1  0  0  0  0
  3  5  1  1  0  0  0
  3  2  1  0  0  0  0
  4  6  1  0  0  0  0
  4  1  1  1  0  0  0
  5  4  1  0  0  0  0
  7  8  2  0  0  0  0
  8  9  1  0  0  0  0
  8 10  1  0  0  0  0
  9 11  1  0  0  0  0
 11 23  1  0  0  0  0
 12 14  1  6  0  0  0
 13 19  1  0  0  0  0
 14 17  1  0  0  0  0
 15 16  1  0  0  0  0
 15 24  1  0  0  0  0
 16 25  1  0  0  0  0
 17 22  1  6  0  0  0
 17 12  1  0  0  0  0
 18 13  2  0  0  0  0
 18 23  1  0  0  0  0
 19 20  1  0  0  0  0
 19 16  2  0  0  0  0
 21 12  1  0  0  0  0
 23 15  2  0  0  0  0
 24 22  1  0  0  0  0
 25 30  1  0  0  0  0
 25 21  1  1  0  0  0
 26 27  1  0  0  0  0
 26 29  1  0  0  0  0
 28 30  1  0  0  0  0
 29 28  1  0  0  0  0
 29 31  1  1  0  0  0
 30 27  1  6  0  0  0
 31 32  1  0  0  0  0
 33 32  1  0  0  0  0
 34 36  1  1  0  0  0
 34  3  1  0  0  0  0
 35 37  1  6  0  0  0
 35 36  1  0  0  0  0
 35 34  1  0  0  0  0
 37 58  1  6  0  0  0
 38 39  1  0  0  0  0
 38 37  1  0  0  0  0
 39 45  1  0  0  0  0
 40 44  2  0  0  0  0
 41 40  1  0  0  0  0
 41 45  1  0  0  0  0
 42 43  1  0  0  0  0
 44 42  1  0  0  0  0
 44 47  1  0  0  0  0
 45 42  2  0  0  0  0
 47 46  1  0  0  0  0
 48 38  1  0  0  0  0
 49 48  1  0  0  0  0
 50 49  1  0  0  0  0
 51 52  1  0  0  0  0
 52 54  1  0  0  0  0
 52 56  2  0  0  0  0
 53 56  1  0  0  0  0
 55 51  2  0  0  0  0
 55 57  1  0  0  0  0
 56 50  1  0  0  0  0
 57 53  2  0  0  0  0
 58 59  1  0  0  0  0
 60 59  1  0  0  0  0
M  END
>  <MODEL>
4

>  <REMARK>
 VINA RESULT:       1.0      4.090      6.777
  Name = 
  18 active torsions:
  status: ('A' for Active; 'I' for Inactive)
    1  A    between atoms: C_2  and  O_3
    2  A    between atoms: O_3  and  C_34
    3  A    between atoms: C_6  and  N_58
    4  A    between atoms: O_8  and  C_16
    5  A    between atoms: C_15  and  C_21
    6  A    between atoms: C_16  and  C_50
    7  A    between atoms: C_20  and  N_38
    8  A    between atoms: C_20  and  C_52
    9  A    between atoms: C_29  and  N_38
   10  A    between atoms: C_29  and  C_51
   11  A    between atoms: N_38  and  C_50
   12  A    between atoms: C_40  and  C_44
   13  A    between atoms: C_43  and  C_50
   14  A    between atoms: C_44  and  C_52
   15  A    between atoms: C_45  and  C_56
   16  A    between atoms: C_48  and  C_57
   17  A    between atoms: C_49  and  C_53
   18  A    between atoms: C_53  and  N_58
                            x       y       z     vdW  Elec       q    Type
                         _______ _______ _______ _____ _____    ______ ____

>  <TORSDO>
F 18

$$$$
