=
 OpenBabel11072413533D

 46 51  0  0  1  0  0  0  0  0999 V2000
  161.7370  204.8530  151.4990 C   0  0  2  0  0  3  0  0  0  0  0  0
  161.6080  207.0610  152.3420 C   0  0  2  0  0  3  0  0  0  0  0  0
  161.6980  206.6740  149.8130 C   0  0  2  0  0  3  0  0  0  0  0  0
  161.1340  206.2090  151.1730 C   0  0  1  0  0  3  0  0  0  0  0  0
  160.7030  203.9770  152.1820 C   0  0  0  0  0  1  0  0  0  0  0  0
  161.5720  208.1800  149.6150 C   0  0  0  0  0  2  0  0  0  0  0  0
  162.3040  208.8990  150.7370 C   0  0  2  0  0  3  0  0  0  0  0  0
  161.6570  208.5730  152.0920 C   0  0  1  0  0  3  0  0  0  0  0  0
  162.9380  206.4660  152.7280 C   0  0  0  0  0  2  0  0  0  0  0  0
  162.8860  205.0470  152.3860 N   0  0  0  0  0  2  0  0  0  0  0  0
  161.0230  205.9760  148.6780 C   0  0  0  0  0  0  0  0  0  0  0  0
  161.7470  204.9960  147.9370 N   0  0  0  0  0  2  0  0  0  0  0  0
  159.8560  206.3030  148.3320 O   0  0  0  0  0  0  0  0  0  0  0  0
  161.1810  204.3440  146.7670 C   0  0  1  0  0  3  0  0  0  0  0  0
  159.3000  205.8440  145.1860 C   0  0  0  0  0  1  0  0  0  0  0  0
  161.6810  205.0430  145.4940 C   0  0  1  0  0  0  0  0  0  0  0  0
  161.1240  204.5910  144.2820 O   0  0  0  0  0  0  0  0  0  0  0  0
  160.7420  205.8870  144.7030 C   0  0  1  0  0  3  0  0  0  0  0  0
  163.8290  204.3150  145.4150 C   0  0  0  0  0  1  0  0  0  0  0  0
  163.0220  205.4630  145.4030 O   0  0  0  0  0  0  0  0  0  0  0  0
  161.5250  202.8610  146.7850 C   0  0  0  0  0  2  0  0  0  0  0  0
  161.2870  200.5770  149.0730 C   0  0  2  0  0  3  0  0  0  0  0  0
  161.7160  200.1680  146.7610 O   0  0  0  0  0  1  0  0  0  0  0  0
  159.0130  201.1170  149.7410 O   0  0  0  0  0  1  0  0  0  0  0  0
  160.3630  201.2210  150.1020 C   0  0  2  0  0  3  0  0  0  0  0  0
  161.1520  202.0970  149.1340 C   0  0  2  0  0  3  0  0  0  0  0  0
  160.7260  200.5850  147.6570 C   0  0  2  0  0  3  0  0  0  0  0  0
  160.5870  202.1030  147.7200 C   0  0  2  0  0  3  0  0  0  0  0  0
  162.3540  210.3980  150.4530 C   0  0  0  0  0  2  0  0  0  0  0  0
  162.2380  210.6830  148.9640 C   0  0  0  0  0  2  0  0  0  0  0  0
  162.4180  212.1630  148.6890 C   0  0  0  0  0  1  0  0  0  0  0  0
  160.2540  209.1710  152.2180 C   0  0  0  0  0  2  0  0  0  0  0  0
  159.9120  209.4840  153.6690 C   0  0  0  0  0  2  0  0  0  0  0  0
  159.1240  210.7090  156.1070 O   0  0  0  0  0  0  0  0  0  0  0  0
  158.9800  211.3740  155.0450 C   0  0  0  0  0  0  0  0  0  0  0  0
  159.6070  210.9020  153.8340 N   0  0  0  0  0  0  0  0  0  0  0  0
  156.7740  213.4230  156.9810 C   0  0  0  0  0  3  0  0  0  0  0  0
  156.3870  214.0310  153.9940 C   0  0  0  0  0  3  0  0  0  0  0  0
  158.1150  213.4210  156.3230 C   0  0  0  0  0  2  0  0  0  0  0  0
  157.3720  212.9290  154.0290 C   0  0  0  0  0  3  0  0  0  0  0  0
  158.1200  212.5830  155.0820 C   0  0  0  0  0  0  0  0  0  0  0  0
  154.4240  213.9650  157.2020 C   0  0  0  0  0  1  0  0  0  0  0  0
  155.6750  213.9090  156.4010 C   0  0  0  0  0  0  0  0  0  0  0  0
  155.6470  214.4530  155.0280 C   0  0  0  0  0  3  0  0  0  0  0  0
  159.0350  211.9460  151.8230 O   0  0  0  0  0  1  0  0  0  0  0  0
  160.0450  211.8030  152.7780 C   0  0  0  0  0  2  0  0  0  0  0  0
  1  5  1  1  0  0  0
  1 10  1  0  0  0  0
  2  9  1  6  0  0  0
  3 11  1  6  0  0  0
  3  4  1  0  0  0  0
  4  1  1  0  0  0  0
  4  2  1  0  0  0  0
  6  3  1  0  0  0  0
  6  7  1  0  0  0  0
  7  8  1  0  0  0  0
  8 32  1  0  0  0  0
  8  2  1  0  0  0  0
 10  9  1  0  0  0  0
 12 11  1  0  0  0  0
 13 11  2  0  0  0  0
 14 21  1  0  0  0  0
 14 12  1  0  0  0  0
 16 14  1  0  0  0  0
 17 18  1  0  0  0  0
 17 16  1  0  0  0  0
 18 15  1  0  0  0  0
 18 16  1  0  0  0  0
 20 19  1  0  0  0  0
 20 16  1  0  0  0  0
 21 28  1  0  0  0  0
 22 26  1  0  0  0  0
 22 25  1  0  0  0  0
 23 27  1  0  0  0  0
 24 25  1  0  0  0  0
 26 25  1  0  0  0  0
 27 28  1  0  0  0  0
 27 22  1  0  0  0  0
 28 26  1  0  0  0  0
 29  7  1  0  0  0  0
 30 29  1  0  0  0  0
 31 30  1  0  0  0  0
 32 33  1  0  0  0  0
 33 36  1  0  0  0  0
 35 41  1  0  0  0  0
 35 34  2  0  0  0  0
 36 35  1  0  0  0  0
 38 40  1  0  0  0  0
 38 44  2  0  0  0  0
 39 37  1  0  0  0  0
 40 41  2  0  0  0  0
 41 39  1  0  0  0  0
 43 37  2  0  0  0  0
 43 42  1  0  0  0  0
 44 43  1  0  0  0  0
 45 46  1  0  0  0  0
 46 36  1  0  0  0  0
M  END
>  <MODEL>
1

>  <REMARK>
 VINA RESULT:      -5.6      0.000      0.000
  Name = 
  13 active torsions:
  status: ('A' for Active; 'I' for Inactive)
    1  A    between atoms: C_5  and  C_20
    2  A    between atoms: C_7  and  C_10
    3  A    between atoms: C_13  and  N_29
    4  A    between atoms: N_15  and  C_46
    5  A    between atoms: C_16  and  O_44
    6  A    between atoms: C_16  and  C_46
    7  A    between atoms: C_17  and  C_23
    8  A    between atoms: C_20  and  C_41
    9  A    between atoms: C_24  and  C_34
   10  A    between atoms: C_24  and  C_46
   11  A    between atoms: C_25  and  N_29
   12  A    between atoms: C_25  and  C_36
   13  A    between atoms: C_36  and  C_42
                            x       y       z     vdW  Elec       q    Type
                         _______ _______ _______ _____ _____    ______ ____

>  <TORSDO>
F 13

$$$$
=
 OpenBabel11072413533D

 46 51  0  0  1  0  0  0  0  0999 V2000
  161.4770  212.1080  149.7680 C   0  0  2  0  0  3  0  0  0  0  0  0
  161.8830  209.9290  148.9370 C   0  0  2  0  0  3  0  0  0  0  0  0
  161.5680  210.2870  151.4510 C   0  0  2  0  0  3  0  0  0  0  0  0
  161.1080  210.6570  150.0250 C   0  0  1  0  0  3  0  0  0  0  0  0
  160.3920  212.7810  148.9470 C   0  0  0  0  0  1  0  0  0  0  0  0
  161.7080  208.7820  151.6460 C   0  0  0  0  0  2  0  0  0  0  0  0
  162.7040  208.2330  150.6370 C   0  0  2  0  0  3  0  0  0  0  0  0
  162.1870  208.4500  149.2060 C   0  0  1  0  0  3  0  0  0  0  0  0
  163.1130  210.7730  148.7210 C   0  0  0  0  0  2  0  0  0  0  0  0
  162.7470  212.1510  149.0400 N   0  0  0  0  0  2  0  0  0  0  0  0
  160.6310  210.8260  152.4830 C   0  0  0  0  0  0  0  0  0  0  0  0
  160.9900  210.7400  153.8600 N   0  0  0  0  0  2  0  0  0  0  0  0
  159.5050  211.2810  152.1440 O   0  0  0  0  0  0  0  0  0  0  0  0
  160.0870  211.1650  154.9170 C   0  0  1  0  0  3  0  0  0  0  0  0
  159.6800  208.4650  155.8290 C   0  0  0  0  0  1  0  0  0  0  0  0
  160.6610  210.7530  156.2810 C   0  0  1  0  0  0  0  0  0  0  0  0
  159.7190  210.3780  157.2600 O   0  0  0  0  0  0  0  0  0  0  0  0
  160.5280  209.3410  156.7370 C   0  0  1  0  0  3  0  0  0  0  0  0
  162.9300  210.7330  156.2730 C   0  0  0  0  0  1  0  0  0  0  0  0
  161.8060  211.3990  156.7860 O   0  0  0  0  0  0  0  0  0  0  0  0
  159.8470  212.6650  154.8200 C   0  0  0  0  0  2  0  0  0  0  0  0
  156.7350  212.9660  153.9640 C   0  0  2  0  0  3  0  0  0  0  0  0
  158.4890  214.4530  153.3200 O   0  0  0  0  0  1  0  0  0  0  0  0
  155.8590  213.1340  156.2250 O   0  0  0  0  0  1  0  0  0  0  0  0
  155.9980  212.2900  155.1150 C   0  0  2  0  0  3  0  0  0  0  0  0
  157.4560  211.9410  154.8350 C   0  0  2  0  0  3  0  0  0  0  0  0
  157.7190  214.0390  154.4130 C   0  0  2  0  0  3  0  0  0  0  0  0
  158.4370  213.0150  155.2870 C   0  0  2  0  0  3  0  0  0  0  0  0
  163.0020  206.7670  150.9390 C   0  0  0  0  0  2  0  0  0  0  0  0
  162.4290  206.3520  152.2850 C   0  0  0  0  0  2  0  0  0  0  0  0
  161.4110  205.2420  152.1120 C   0  0  0  0  0  1  0  0  0  0  0  0
  160.9530  207.5980  148.9040 C   0  0  0  0  0  2  0  0  0  0  0  0
  160.8280  207.3100  147.4130 C   0  0  0  0  0  2  0  0  0  0  0  0
  160.2110  205.3570  149.3800 O   0  0  0  0  0  0  0  0  0  0  0  0
  160.6710  204.9520  148.2760 C   0  0  0  0  0  0  0  0  0  0  0  0
  160.7430  205.8730  147.1690 N   0  0  0  0  0  0  0  0  0  0  0  0
  161.3960  202.1520  146.1670 C   0  0  0  0  0  3  0  0  0  0  0  0
  161.1970  201.2170  149.0870 C   0  0  0  0  0  3  0  0  0  0  0  0
  162.0450  203.1790  147.0350 C   0  0  0  0  0  2  0  0  0  0  0  0
  160.8630  202.6560  149.1300 C   0  0  0  0  0  3  0  0  0  0  0  0
  161.1720  203.5570  148.1920 C   0  0  0  0  0  0  0  0  0  0  0  0
  160.5460  199.9550  145.6040 C   0  0  0  0  0  1  0  0  0  0  0  0
  161.0790  200.9280  146.5930 C   0  0  0  0  0  0  0  0  0  0  0  0
  161.2860  200.4660  147.9810 C   0  0  0  0  0  3  0  0  0  0  0  0
  160.3940  206.5370  144.9550 O   0  0  0  0  0  1  0  0  0  0  0  0
  160.6440  205.4390  145.7830 C   0  0  0  0  0  2  0  0  0  0  0  0
  1  5  1  6  0  0  0
  1  4  1  0  0  0  0
  2  9  1  1  0  0  0
  2  8  1  0  0  0  0
  2  4  1  0  0  0  0
  3  6  1  0  0  0  0
  3 11  1  1  0  0  0
  4  3  1  0  0  0  0
  7 29  1  0  0  0  0
  7  6  1  0  0  0  0
  8  7  1  0  0  0  0
  9 10  1  0  0  0  0
 10  1  1  0  0  0  0
 11 12  1  0  0  0  0
 12 14  1  0  0  0  0
 13 11  2  0  0  0  0
 14 16  1  0  0  0  0
 15 18  1  0  0  0  0
 16 18  1  0  0  0  0
 16 20  1  0  0  0  0
 16 17  1  0  0  0  0
 18 17  1  0  0  0  0
 19 20  1  0  0  0  0
 21 14  1  0  0  0  0
 21 28  1  0  0  0  0
 22 27  1  0  0  0  0
 22 26  1  0  0  0  0
 22 25  1  0  0  0  0
 23 27  1  0  0  0  0
 25 24  1  0  0  0  0
 26 25  1  0  0  0  0
 26 28  1  0  0  0  0
 27 28  1  0  0  0  0
 29 30  1  0  0  0  0
 31 30  1  0  0  0  0
 32  8  1  0  0  0  0
 33 32  1  0  0  0  0
 35 34  2  0  0  0  0
 36 33  1  0  0  0  0
 36 35  1  0  0  0  0
 37 43  2  0  0  0  0
 37 39  1  0  0  0  0
 38 40  1  0  0  0  0
 39 41  1  0  0  0  0
 41 35  1  0  0  0  0
 41 40  2  0  0  0  0
 42 43  1  0  0  0  0
 43 44  1  0  0  0  0
 44 38  2  0  0  0  0
 45 46  1  0  0  0  0
 46 36  1  0  0  0  0
M  END
>  <MODEL>
2

>  <REMARK>
 VINA RESULT:      -4.3      1.990     10.974
  Name = 
  13 active torsions:
  status: ('A' for Active; 'I' for Inactive)
    1  A    between atoms: C_5  and  C_20
    2  A    between atoms: C_7  and  C_10
    3  A    between atoms: C_13  and  N_29
    4  A    between atoms: N_15  and  C_46
    5  A    between atoms: C_16  and  O_44
    6  A    between atoms: C_16  and  C_46
    7  A    between atoms: C_17  and  C_23
    8  A    between atoms: C_20  and  C_41
    9  A    between atoms: C_24  and  C_34
   10  A    between atoms: C_24  and  C_46
   11  A    between atoms: C_25  and  N_29
   12  A    between atoms: C_25  and  C_36
   13  A    between atoms: C_36  and  C_42
                            x       y       z     vdW  Elec       q    Type
                         _______ _______ _______ _____ _____    ______ ____

>  <TORSDO>
F 13

$$$$
=
 OpenBabel11072413533D

 46 51  0  0  1  0  0  0  0  0999 V2000
  162.1380  208.1210  149.0440 C   0  0  2  0  0  3  0  0  0  0  0  0
  161.9350  209.3470  151.0590 C   0  0  2  0  0  3  0  0  0  0  0  0
  161.2410  206.8840  151.0000 C   0  0  2  0  0  3  0  0  0  0  0  0
  162.2610  207.9510  150.5490 C   0  0  1  0  0  3  0  0  0  0  0  0
  163.5080  208.3520  148.4340 C   0  0  0  0  0  1  0  0  0  0  0  0
  160.9210  206.9760  152.4870 C   0  0  0  0  0  2  0  0  0  0  0  0
  160.3750  208.3590  152.8010 C   0  0  2  0  0  3  0  0  0  0  0  0
  161.4370  209.4310  152.5080 C   0  0  1  0  0  3  0  0  0  0  0  0
  160.9630  209.9000  150.0500 C   0  0  0  0  0  2  0  0  0  0  0  0
  161.2740  209.2720  148.7690 N   0  0  0  0  0  2  0  0  0  0  0  0
  161.7240  205.5040  150.6890 C   0  0  0  0  0  0  0  0  0  0  0  0
  161.2390  204.8460  149.5210 N   0  0  0  0  0  2  0  0  0  0  0  0
  162.4890  204.9030  151.4900 O   0  0  0  0  0  0  0  0  0  0  0  0
  161.6000  203.4720  149.2080 C   0  0  1  0  0  3  0  0  0  0  0  0
  161.6200  200.7070  148.4060 C   0  0  0  0  0  1  0  0  0  0  0  0
  160.5760  202.5150  149.8370 C   0  0  1  0  0  0  0  0  0  0  0  0
  159.6450  201.9370  148.9510 O   0  0  0  0  0  0  0  0  0  0  0  0
  160.6190  201.0660  149.4930 C   0  0  1  0  0  3  0  0  0  0  0  0
  161.0490  202.3480  152.0500 C   0  0  0  0  0  1  0  0  0  0  0  0
  160.0770  202.7680  151.1300 O   0  0  0  0  0  0  0  0  0  0  0  0
  161.7050  203.2960  147.7000 C   0  0  0  0  0  2  0  0  0  0  0  0
  162.0300  205.0370  144.9850 C   0  0  2  0  0  3  0  0  0  0  0  0
  163.7520  204.6680  146.5960 O   0  0  0  0  0  1  0  0  0  0  0  0
  160.2960  206.6580  145.5070 O   0  0  0  0  0  1  0  0  0  0  0  0
  160.6110  205.5370  144.7290 C   0  0  2  0  0  3  0  0  0  0  0  0
  160.8380  204.2900  145.5790 C   0  0  2  0  0  3  0  0  0  0  0  0
  162.5400  205.3360  146.3880 C   0  0  2  0  0  3  0  0  0  0  0  0
  161.3470  204.5940  146.9810 C   0  0  2  0  0  3  0  0  0  0  0  0
  159.8710  208.4090  154.2410 C   0  0  0  0  0  2  0  0  0  0  0  0
  160.3180  207.1860  155.0260 C   0  0  0  0  0  2  0  0  0  0  0  0
  159.5800  207.1010  156.3470 C   0  0  0  0  0  1  0  0  0  0  0  0
  162.6210  209.3480  153.4740 C   0  0  0  0  0  2  0  0  0  0  0  0
  162.7860  210.6410  154.2640 C   0  0  0  0  0  2  0  0  0  0  0  0
  160.2600  211.7840  153.6510 O   0  0  0  0  0  0  0  0  0  0  0  0
  160.5490  211.6220  154.8690 C   0  0  0  0  0  0  0  0  0  0  0  0
  161.6900  210.8100  155.2140 N   0  0  0  0  0  0  0  0  0  0  0  0
  157.3030  212.0970  156.3010 C   0  0  0  0  0  3  0  0  0  0  0  0
  159.1210  214.4530  157.0670 C   0  0  0  0  0  3  0  0  0  0  0  0
  158.6640  211.5620  156.6040 C   0  0  0  0  0  2  0  0  0  0  0  0
  159.9470  213.6170  156.1700 C   0  0  0  0  0  3  0  0  0  0  0  0
  159.7320  212.3280  155.8870 C   0  0  0  0  0  0  0  0  0  0  0  0
  155.5000  213.7120  156.3710 C   0  0  0  0  0  1  0  0  0  0  0  0
  156.9160  213.3340  156.6170 C   0  0  0  0  0  0  0  0  0  0  0  0
  157.8010  214.3300  157.2570 C   0  0  0  0  0  3  0  0  0  0  0  0
  163.1030  209.8970  156.8360 O   0  0  0  0  0  1  0  0  0  0  0  0
  161.7680  210.0580  156.4580 C   0  0  0  0  0  2  0  0  0  0  0  0
  1  5  1  1  0  0  0
  1  4  1  0  0  0  0
  2  9  1  6  0  0  0
  2  8  1  0  0  0  0
  3 11  1  1  0  0  0
  3  6  1  0  0  0  0
  4  3  1  0  0  0  0
  4  2  1  0  0  0  0
  6  7  1  0  0  0  0
  7 29  1  0  0  0  0
  8  7  1  0  0  0  0
  8 32  1  0  0  0  0
 10  1  1  0  0  0  0
 10  9  1  0  0  0  0
 11 13  2  0  0  0  0
 12 11  1  0  0  0  0
 14 12  1  0  0  0  0
 14 16  1  0  0  0  0
 15 18  1  0  0  0  0
 16 20  1  0  0  0  0
 17 18  1  0  0  0  0
 17 16  1  0  0  0  0
 18 16  1  0  0  0  0
 20 19  1  0  0  0  0
 21 14  1  0  0  0  0
 22 26  1  0  0  0  0
 22 27  1  0  0  0  0
 25 22  1  0  0  0  0
 25 24  1  0  0  0  0
 25 26  1  0  0  0  0
 26 28  1  0  0  0  0
 27 23  1  0  0  0  0
 27 28  1  0  0  0  0
 28 21  1  0  0  0  0
 29 30  1  0  0  0  0
 30 31  1  0  0  0  0
 32 33  1  0  0  0  0
 33 36  1  0  0  0  0
 34 35  2  0  0  0  0
 35 36  1  0  0  0  0
 35 41  1  0  0  0  0
 36 46  1  0  0  0  0
 37 39  1  0  0  0  0
 37 43  2  0  0  0  0
 38 44  2  0  0  0  0
 40 38  1  0  0  0  0
 41 40  2  0  0  0  0
 41 39  1  0  0  0  0
 42 43  1  0  0  0  0
 43 44  1  0  0  0  0
 46 45  1  0  0  0  0
M  END
>  <MODEL>
3

>  <REMARK>
 VINA RESULT:      -3.0      1.951      4.579
  Name = 
  13 active torsions:
  status: ('A' for Active; 'I' for Inactive)
    1  A    between atoms: C_5  and  C_20
    2  A    between atoms: C_7  and  C_10
    3  A    between atoms: C_13  and  N_29
    4  A    between atoms: N_15  and  C_46
    5  A    between atoms: C_16  and  O_44
    6  A    between atoms: C_16  and  C_46
    7  A    between atoms: C_17  and  C_23
    8  A    between atoms: C_20  and  C_41
    9  A    between atoms: C_24  and  C_34
   10  A    between atoms: C_24  and  C_46
   11  A    between atoms: C_25  and  N_29
   12  A    between atoms: C_25  and  C_36
   13  A    between atoms: C_36  and  C_42
                            x       y       z     vdW  Elec       q    Type
                         _______ _______ _______ _____ _____    ______ ____

>  <TORSDO>
F 13

$$$$
