=
 OpenBabel11072412133D

 31 35  0  0  1  0  0  0  0  0999 V2000
  160.3650  208.8580  153.6620 C   0  0  0  0  0  2  0  0  0  0  0  0
  160.4550  208.7130  152.2100 N   0  0  1  0  0  0  0  0  0  0  0  0
  160.6700  210.0410  151.6430 C   0  0  2  0  0  3  0  0  0  0  0  0
  161.8080  208.2730  151.8950 C   0  0  2  0  0  3  0  0  0  0  0  0
  162.3940  209.8110  151.1130 S   0  0  0  0  0  0  0  0  0  0  0  0
  160.6260  210.3000  154.0450 C   0  0  2  0  0  3  0  0  0  0  0  0
  160.5860  211.0720  152.7510 C   0  0  0  0  0  2  0  0  0  0  0  0
  161.9580  207.1790  149.4530 C   0  0  0  0  0  2  0  0  0  0  0  0
  161.5890  205.8610  151.2710 C   0  0  0  0  0  0  0  0  0  0  0  0
  161.6560  205.0320  150.1320 N   0  0  0  0  0  2  0  0  0  0  0  0
  161.7660  207.1160  150.9340 C   0  0  0  0  0  0  0  0  0  0  0  0
  161.8830  205.7900  148.9710 N   0  0  0  0  0  0  0  0  0  0  0  0
  160.8370  204.0770  152.6210 O   0  0  0  0  0  1  0  0  0  0  0  0
  161.4290  205.3390  152.6590 C   0  0  0  0  0  2  0  0  0  0  0  0
  160.6860  205.6780  148.1510 C   0  0  0  0  0  2  0  0  0  0  0  0
  160.8820  204.6350  147.0540 C   0  0  1  0  0  3  0  0  0  0  0  0
  162.6980  205.7380  145.4810 C   0  0  0  0  0  1  0  0  0  0  0  0
  160.4690  204.9860  144.5080 C   0  0  0  0  0  2  0  0  0  0  0  0
  161.2720  205.2770  145.7110 C   0  0  1  0  0  0  0  0  0  0  0  0
  160.3370  206.2020  145.2170 O   0  0  0  0  0  0  0  0  0  0  0  0
  161.0740  202.4940  148.1580 O   0  0  0  0  0  1  0  0  0  0  0  0
  161.8020  203.5070  147.5270 C   0  0  0  0  0  2  0  0  0  0  0  0
  162.2740  210.4350  154.8010 S   0  0  0  0  0  0  0  0  0  0  0  0
  161.9970  208.7400  156.7810 O   0  0  0  0  0  0  0  0  0  0  0  0
  161.7010  209.8610  156.3980 C   0  0  0  0  0  0  0  0  0  0  0  0
  159.8060  212.9090  156.6630 C   0  0  0  0  0  3  0  0  0  0  0  0
  161.1540  212.2420  156.9250 C   0  0  0  0  0  3  0  0  0  0  0  0
  160.8750  210.7680  157.2580 C   0  0  1  0  0  3  0  0  0  0  0  0
  159.4620  210.5460  157.0170 N   0  0  0  0  0  2  0  0  0  0  0  0
  158.8600  211.7780  156.6890 C   0  0  0  0  0  0  0  0  0  0  0  0
  157.2610  211.9270  156.3990 S   0  0  0  0  0  0  0  0  0  0  0  0
  1  6  1  0  0  0  0
  2  1  1  1  0  0  0
  3  2  1  0  0  0  0
  3  7  1  1  0  0  0
  4 11  1  6  0  0  0
  4  2  1  0  0  0  0
  5  3  1  0  0  0  0
  5  4  1  0  0  0  0
  6 23  1  6  0  0  0
  7  6  1  0  0  0  0
  8 11  1  0  0  0  0
  9 14  1  0  0  0  0
 10  9  1  0  0  0  0
 11  9  2  0  0  0  0
 12  8  1  0  0  0  0
 12 10  1  0  0  0  0
 13 14  1  0  0  0  0
 15 12  1  0  0  0  0
 16 22  1  1  0  0  0
 16 15  1  0  0  0  0
 18 20  1  0  0  0  0
 18 19  1  0  0  0  0
 19 17  1  6  0  0  0
 19 16  1  0  0  0  0
 20 19  1  0  0  0  0
 22 21  1  0  0  0  0
 23 25  1  0  0  0  0
 25 24  2  0  0  0  0
 26 30  1  0  0  0  0
 26 27  2  0  0  0  0
 27 28  1  0  0  0  0
 28 25  1  6  0  0  0
 29 28  1  0  0  0  0
 30 29  1  0  0  0  0
 31 30  2  0  0  0  0
M  END
>  <MODEL>
1

>  <REMARK>
 VINA RESULT:      -5.7      0.000      0.000
  Name = 
  9 active torsions:
  status: ('A' for Active; 'I' for Inactive)
    1  A    between atoms: S_1  and  C_17
    2  A    between atoms: S_1  and  C_24
    3  A    between atoms: C_3  and  C_29
    4  A    between atoms: C_8  and  C_17
    5  A    between atoms: C_12  and  C_14
    6  A    between atoms: C_14  and  C_21
    7  A    between atoms: C_14  and  C_28
    8  A    between atoms: C_18  and  C_20
    9  A    between atoms: N_22  and  C_28
                            x       y       z     vdW  Elec       q    Type
                         _______ _______ _______ _____ _____    ______ ____

>  <TORSDO>
F 9

$$$$
=
 OpenBabel11072412133D

 31 35  0  0  1  0  0  0  0  0999 V2000
  160.0600  204.9340  150.1030 C   0  0  0  0  0  2  0  0  0  0  0  0
  160.4920  205.6980  151.2720 N   0  0  1  0  0  0  0  0  0  0  0  0
  161.1960  204.7850  152.1660 C   0  0  2  0  0  3  0  0  0  0  0  0
  161.7110  206.4090  150.9080 C   0  0  2  0  0  3  0  0  0  0  0  0
  162.8720  205.4490  151.9330 S   0  0  0  0  0  0  0  0  0  0  0  0
  160.5850  203.5170  150.2020 C   0  0  2  0  0  3  0  0  0  0  0  0
  161.0990  203.3770  151.6130 C   0  0  0  0  0  2  0  0  0  0  0  0
  161.3890  208.3560  152.7210 C   0  0  0  0  0  2  0  0  0  0  0  0
  161.7660  208.8820  150.5390 C   0  0  0  0  0  0  0  0  0  0  0  0
  161.6700  210.0830  151.2720 N   0  0  0  0  0  2  0  0  0  0  0  0
  161.6180  207.8490  151.3340 C   0  0  0  0  0  0  0  0  0  0  0  0
  161.4360  209.8250  152.6320 N   0  0  0  0  0  0  0  0  0  0  0  0
  162.1180  210.1240  148.5630 O   0  0  0  0  0  1  0  0  0  0  0  0
  162.0830  208.8310  149.0820 C   0  0  0  0  0  2  0  0  0  0  0  0
  160.1010  210.3220  152.9350 C   0  0  0  0  0  2  0  0  0  0  0  0
  160.1680  211.7530  153.4620 C   0  0  1  0  0  3  0  0  0  0  0  0
  157.7260  212.7060  153.8030 C   0  0  0  0  0  1  0  0  0  0  0  0
  159.2330  213.6990  152.0070 C   0  0  0  0  0  2  0  0  0  0  0  0
  158.9860  212.6050  152.9660 C   0  0  1  0  0  0  0  0  0  0  0  0
  158.6970  212.4560  151.5990 O   0  0  0  0  0  0  0  0  0  0  0  0
  159.8560  210.6310  155.5790 O   0  0  0  0  0  1  0  0  0  0  0  0
  160.3930  211.7710  154.9760 C   0  0  0  0  0  2  0  0  0  0  0  0
  161.9480  203.2930  149.0180 S   0  0  0  0  0  0  0  0  0  0  0  0
  160.0430  201.6100  148.3790 O   0  0  0  0  0  0  0  0  0  0  0  0
  160.9650  202.2690  147.9250 C   0  0  0  0  0  0  0  0  0  0  0  0
  159.8640  202.9620  144.5700 C   0  0  0  0  0  3  0  0  0  0  0  0
  160.0230  201.8870  145.6430 C   0  0  0  0  0  3  0  0  0  0  0  0
  161.2750  202.2420  146.4600 C   0  0  1  0  0  3  0  0  0  0  0  0
  161.7100  203.5500  146.0100 N   0  0  0  0  0  2  0  0  0  0  0  0
  160.9040  203.9460  144.9220 C   0  0  0  0  0  0  0  0  0  0  0  0
  161.1340  205.3490  144.1200 S   0  0  0  0  0  0  0  0  0  0  0  0
  1  6  1  0  0  0  0
  2  1  1  6  0  0  0
  2  3  1  0  0  0  0
  3  7  1  6  0  0  0
  4  2  1  0  0  0  0
  4 11  1  1  0  0  0
  4  5  1  0  0  0  0
  5  3  1  0  0  0  0
  6 23  1  6  0  0  0
  6  7  1  0  0  0  0
  9 10  1  0  0  0  0
  9 11  2  0  0  0  0
 10 12  1  0  0  0  0
 11  8  1  0  0  0  0
 12  8  1  0  0  0  0
 12 15  1  0  0  0  0
 13 14  1  0  0  0  0
 14  9  1  0  0  0  0
 16 15  1  1  0  0  0
 16 22  1  0  0  0  0
 18 19  1  0  0  0  0
 19 16  1  0  0  0  0
 19 17  1  1  0  0  0
 20 18  1  0  0  0  0
 20 19  1  0  0  0  0
 22 21  1  0  0  0  0
 25 24  2  0  0  0  0
 25 23  1  0  0  0  0
 26 30  1  0  0  0  0
 26 27  2  0  0  0  0
 27 28  1  0  0  0  0
 28 25  1  1  0  0  0
 29 28  1  0  0  0  0
 30 29  1  0  0  0  0
 31 30  2  0  0  0  0
M  END
>  <MODEL>
2

>  <REMARK>
 VINA RESULT:      -5.7      3.258      9.548
  Name = 
  9 active torsions:
  status: ('A' for Active; 'I' for Inactive)
    1  A    between atoms: S_1  and  C_17
    2  A    between atoms: S_1  and  C_24
    3  A    between atoms: C_3  and  C_29
    4  A    between atoms: C_8  and  C_17
    5  A    between atoms: C_12  and  C_14
    6  A    between atoms: C_14  and  C_21
    7  A    between atoms: C_14  and  C_28
    8  A    between atoms: C_18  and  C_20
    9  A    between atoms: N_22  and  C_28
                            x       y       z     vdW  Elec       q    Type
                         _______ _______ _______ _____ _____    ______ ____

>  <TORSDO>
F 9

$$$$
=
 OpenBabel11072412133D

 31 35  0  0  1  0  0  0  0  0999 V2000
  160.1550  204.8600  152.3710 C   0  0  0  0  0  2  0  0  0  0  0  0
  161.1240  205.7660  152.9850 N   0  0  1  0  0  0  0  0  0  0  0  0
  162.4470  205.4130  152.4800 C   0  0  2  0  0  3  0  0  0  0  0  0
  161.0870  207.0190  152.2430 C   0  0  2  0  0  3  0  0  0  0  0  0
  162.7190  206.8820  151.4440 S   0  0  0  0  0  0  0  0  0  0  0  0
  160.8610  203.9670  151.3710 C   0  0  2  0  0  3  0  0  0  0  0  0
  162.3330  204.1690  151.6210 C   0  0  0  0  0  2  0  0  0  0  0  0
  160.8430  208.1120  154.6780 C   0  0  0  0  0  2  0  0  0  0  0  0
  161.1030  209.4450  152.8510 C   0  0  0  0  0  0  0  0  0  0  0  0
  161.0350  210.2700  153.9930 N   0  0  0  0  0  2  0  0  0  0  0  0
  161.0040  208.1830  153.1930 C   0  0  0  0  0  0  0  0  0  0  0  0
  160.8730  209.5030  155.1590 N   0  0  0  0  0  0  0  0  0  0  0  0
  162.6860  210.3200  151.3360 O   0  0  0  0  0  1  0  0  0  0  0  0
  161.3450  209.9650  151.4740 C   0  0  0  0  0  2  0  0  0  0  0  0
  159.5520  209.8090  155.6880 C   0  0  0  0  0  2  0  0  0  0  0  0
  159.2570  211.3020  155.5640 C   0  0  1  0  0  3  0  0  0  0  0  0
  156.6330  210.9980  155.4550 C   0  0  0  0  0  1  0  0  0  0  0  0
  157.7670  212.7420  153.9880 C   0  0  0  0  0  2  0  0  0  0  0  0
  157.9100  211.5660  154.8680 C   0  0  1  0  0  0  0  0  0  0  0  0
  157.9450  211.4390  153.4690 O   0  0  0  0  0  0  0  0  0  0  0  0
  160.7390  212.5260  157.0270 O   0  0  0  0  0  1  0  0  0  0  0  0
  159.4460  212.0120  156.9060 C   0  0  0  0  0  2  0  0  0  0  0  0
  160.4370  204.4960  149.6840 S   0  0  0  0  0  0  0  0  0  0  0  0
  160.1970  201.8900  149.5350 O   0  0  0  0  0  0  0  0  0  0  0  0
  160.7010  202.8630  148.9960 C   0  0  0  0  0  0  0  0  0  0  0  0
  160.7760  202.5020  145.4160 C   0  0  0  0  0  3  0  0  0  0  0  0
  160.8380  201.7690  146.7540 C   0  0  0  0  0  3  0  0  0  0  0  0
  161.5270  202.7070  147.7560 C   0  0  1  0  0  3  0  0  0  0  0  0
  161.6870  203.9860  147.0890 N   0  0  0  0  0  2  0  0  0  0  0  0
  161.2650  203.8530  145.7500 C   0  0  0  0  0  0  0  0  0  0  0  0
  161.3470  205.0790  144.6760 S   0  0  0  0  0  0  0  0  0  0  0  0
  2  1  1  6  0  0  0
  3  7  1  6  0  0  0
  3  2  1  0  0  0  0
  4  2  1  0  0  0  0
  4 11  1  1  0  0  0
  5  4  1  0  0  0  0
  5  3  1  0  0  0  0
  6 23  1  6  0  0  0
  6  7  1  0  0  0  0
  6  1  1  0  0  0  0
  8 12  1  0  0  0  0
  9 11  2  0  0  0  0
  9 10  1  0  0  0  0
 10 12  1  0  0  0  0
 11  8  1  0  0  0  0
 12 15  1  0  0  0  0
 13 14  1  0  0  0  0
 14  9  1  0  0  0  0
 16 15  1  1  0  0  0
 16 22  1  0  0  0  0
 18 19  1  0  0  0  0
 19 17  1  1  0  0  0
 19 16  1  0  0  0  0
 20 18  1  0  0  0  0
 20 19  1  0  0  0  0
 22 21  1  0  0  0  0
 25 24  2  0  0  0  0
 25 23  1  0  0  0  0
 26 30  1  0  0  0  0
 26 27  2  0  0  0  0
 27 28  1  0  0  0  0
 28 25  1  1  0  0  0
 29 28  1  0  0  0  0
 30 29  1  0  0  0  0
 31 30  2  0  0  0  0
M  END
>  <MODEL>
3

>  <REMARK>
 VINA RESULT:      -5.6      3.028      9.651
  Name = 
  9 active torsions:
  status: ('A' for Active; 'I' for Inactive)
    1  A    between atoms: S_1  and  C_17
    2  A    between atoms: S_1  and  C_24
    3  A    between atoms: C_3  and  C_29
    4  A    between atoms: C_8  and  C_17
    5  A    between atoms: C_12  and  C_14
    6  A    between atoms: C_14  and  C_21
    7  A    between atoms: C_14  and  C_28
    8  A    between atoms: C_18  and  C_20
    9  A    between atoms: N_22  and  C_28
                            x       y       z     vdW  Elec       q    Type
                         _______ _______ _______ _____ _____    ______ ____

>  <TORSDO>
F 9

$$$$
=
 OpenBabel11072412133D

 31 35  0  0  1  0  0  0  0  0999 V2000
  162.6870  207.3020  147.9770 C   0  0  0  0  0  2  0  0  0  0  0  0
  161.5700  207.5490  148.8880 N   0  0  1  0  0  0  0  0  0  0  0  0
  160.3970  206.8680  148.3490 C   0  0  2  0  0  3  0  0  0  0  0  0
  161.6970  206.6180  150.0020 C   0  0  2  0  0  3  0  0  0  0  0  0
  160.2710  205.5560  149.6020 S   0  0  0  0  0  0  0  0  0  0  0  0
  162.2450  206.3590  146.8780 C   0  0  2  0  0  3  0  0  0  0  0  0
  160.7450  206.2810  146.9950 C   0  0  0  0  0  2  0  0  0  0  0  0
  160.9890  208.7280  151.4950 C   0  0  0  0  0  2  0  0  0  0  0  0
  161.7970  206.8470  152.4910 C   0  0  0  0  0  0  0  0  0  0  0  0
  161.4730  207.7760  153.5010 N   0  0  0  0  0  2  0  0  0  0  0  0
  161.5270  207.3460  151.3080 C   0  0  0  0  0  0  0  0  0  0  0  0
  160.9680  208.9650  152.9480 N   0  0  0  0  0  0  0  0  0  0  0  0
  161.2020  204.6030  152.9160 O   0  0  0  0  0  1  0  0  0  0  0  0
  162.2870  205.4660  152.7700 C   0  0  0  0  0  2  0  0  0  0  0  0
  161.9390  210.0120  153.2330 C   0  0  0  0  0  2  0  0  0  0  0  0
  161.5710  210.7500  154.5170 C   0  0  1  0  0  3  0  0  0  0  0  0
  159.1140  210.2790  155.3690 C   0  0  0  0  0  1  0  0  0  0  0  0
  159.6700  212.5140  154.2840 C   0  0  0  0  0  2  0  0  0  0  0  0
  160.0780  211.1220  154.5590 C   0  0  1  0  0  0  0  0  0  0  0  0
  159.5370  211.4910  153.3170 O   0  0  0  0  0  0  0  0  0  0  0  0
  163.1440  210.6970  156.3500 O   0  0  0  0  0  1  0  0  0  0  0  0
  162.0910  210.0040  155.7480 C   0  0  0  0  0  2  0  0  0  0  0  0
  162.9780  204.7180  147.1580 S   0  0  0  0  0  0  0  0  0  0  0  0
  161.8740  204.1360  144.8530 O   0  0  0  0  0  0  0  0  0  0  0  0
  161.8290  203.9040  146.0510 C   0  0  0  0  0  0  0  0  0  0  0  0
  161.2100  200.6630  147.4870 C   0  0  0  0  0  3  0  0  0  0  0  0
  161.1890  201.4940  146.2060 C   0  0  0  0  0  3  0  0  0  0  0  0
  160.8310  202.9330  146.6040 C   0  0  1  0  0  3  0  0  0  0  0  0
  160.8290  202.9790  148.0540 N   0  0  0  0  0  2  0  0  0  0  0  0
  161.0350  201.6740  148.5470 C   0  0  0  0  0  0  0  0  0  0  0  0
  161.0450  201.3270  150.1420 S   0  0  0  0  0  0  0  0  0  0  0  0
  2  1  1  6  0  0  0
  2  4  1  0  0  0  0
  3  7  1  6  0  0  0
  3  2  1  0  0  0  0
  3  5  1  0  0  0  0
  4 11  1  1  0  0  0
  5  4  1  0  0  0  0
  6  7  1  0  0  0  0
  6 23  1  1  0  0  0
  6  1  1  0  0  0  0
  8 12  1  0  0  0  0
  9 14  1  0  0  0  0
  9 10  1  0  0  0  0
 11  8  1  0  0  0  0
 11  9  2  0  0  0  0
 12 15  1  0  0  0  0
 12 10  1  0  0  0  0
 14 13  1  0  0  0  0
 16 15  1  6  0  0  0
 16 19  1  0  0  0  0
 16 22  1  0  0  0  0
 18 19  1  0  0  0  0
 19 17  1  1  0  0  0
 20 18  1  0  0  0  0
 20 19  1  0  0  0  0
 22 21  1  0  0  0  0
 24 25  2  0  0  0  0
 25 23  1  0  0  0  0
 26 30  1  0  0  0  0
 27 28  1  0  0  0  0
 27 26  2  0  0  0  0
 28 25  1  6  0  0  0
 28 29  1  0  0  0  0
 29 30  1  0  0  0  0
 30 31  2  0  0  0  0
M  END
>  <MODEL>
4

>  <REMARK>
 VINA RESULT:      -5.6      3.055      9.310
  Name = 
  9 active torsions:
  status: ('A' for Active; 'I' for Inactive)
    1  A    between atoms: S_1  and  C_17
    2  A    between atoms: S_1  and  C_24
    3  A    between atoms: C_3  and  C_29
    4  A    between atoms: C_8  and  C_17
    5  A    between atoms: C_12  and  C_14
    6  A    between atoms: C_14  and  C_21
    7  A    between atoms: C_14  and  C_28
    8  A    between atoms: C_18  and  C_20
    9  A    between atoms: N_22  and  C_28
                            x       y       z     vdW  Elec       q    Type
                         _______ _______ _______ _____ _____    ______ ____

>  <TORSDO>
F 9

$$$$
=
 OpenBabel11072412133D

 31 35  0  0  1  0  0  0  0  0999 V2000
  160.4570  206.6460  148.8770 C   0  0  0  0  0  2  0  0  0  0  0  0
  160.5270  206.7220  150.3360 N   0  0  1  0  0  0  0  0  0  0  0  0
  160.8540  205.3900  150.8350 C   0  0  2  0  0  3  0  0  0  0  0  0
  161.8340  207.2610  150.6860 C   0  0  2  0  0  3  0  0  0  0  0  0
  162.5490  205.7410  151.3930 S   0  0  0  0  0  0  0  0  0  0  0  0
  160.8450  205.2550  148.4230 C   0  0  2  0  0  3  0  0  0  0  0  0
  160.8660  204.4150  149.6750 C   0  0  0  0  0  2  0  0  0  0  0  0
  161.3580  208.1910  153.1540 C   0  0  0  0  0  2  0  0  0  0  0  0
  161.8650  209.6360  151.4700 C   0  0  0  0  0  0  0  0  0  0  0  0
  161.6980  210.3820  152.6550 N   0  0  0  0  0  2  0  0  0  0  0  0
  161.6860  208.3580  151.7050 C   0  0  0  0  0  0  0  0  0  0  0  0
  161.3820  209.5440  153.7370 N   0  0  0  0  0  0  0  0  0  0  0  0
  161.5720  211.4240  149.9580 O   0  0  0  0  0  1  0  0  0  0  0  0
  162.2770  210.2400  150.1700 C   0  0  0  0  0  2  0  0  0  0  0  0
  160.0210  209.8670  154.1410 C   0  0  0  0  0  2  0  0  0  0  0  0
  159.8770  211.3660  154.3910 C   0  0  1  0  0  3  0  0  0  0  0  0
  157.2950  211.9270  154.3310 C   0  0  0  0  0  1  0  0  0  0  0  0
  158.8580  212.9780  152.6190 C   0  0  0  0  0  2  0  0  0  0  0  0
  158.6560  211.9570  153.6650 C   0  0  1  0  0  0  0  0  0  0  0  0
  158.5780  211.6300  152.3000 O   0  0  0  0  0  0  0  0  0  0  0  0
  159.6790  210.5540  156.6580 O   0  0  0  0  0  1  0  0  0  0  0  0
  159.9620  211.6840  155.8860 C   0  0  0  0  0  2  0  0  0  0  0  0
  162.5030  205.3020  147.6780 S   0  0  0  0  0  0  0  0  0  0  0  0
  162.6360  204.3550  145.2370 O   0  0  0  0  0  0  0  0  0  0  0  0
  162.0200  204.2790  146.2890 C   0  0  0  0  0  0  0  0  0  0  0  0
  160.0960  201.5930  144.8650 C   0  0  0  0  0  3  0  0  0  0  0  0
  160.1750  203.1010  145.0850 C   0  0  0  0  0  3  0  0  0  0  0  0
  160.8720  203.3280  146.4350 C   0  0  1  0  0  3  0  0  0  0  0  0
  161.3430  202.0320  146.8850 N   0  0  0  0  0  2  0  0  0  0  0  0
  160.8830  201.0470  145.9860 C   0  0  0  0  0  0  0  0  0  0  0  0
  161.1770  199.4550  146.1980 S   0  0  0  0  0  0  0  0  0  0  0  0
  2  1  1  6  0  0  0
  2  4  1  0  0  0  0
  2  3  1  0  0  0  0
  3  7  1  6  0  0  0
  3  5  1  0  0  0  0
  4  5  1  0  0  0  0
  4 11  1  1  0  0  0
  6 23  1  1  0  0  0
  6  1  1  0  0  0  0
  6  7  1  0  0  0  0
  8 12  1  0  0  0  0
  9 11  2  0  0  0  0
  9 10  1  0  0  0  0
 10 12  1  0  0  0  0
 11  8  1  0  0  0  0
 12 15  1  0  0  0  0
 13 14  1  0  0  0  0
 14  9  1  0  0  0  0
 16 15  1  1  0  0  0
 16 22  1  0  0  0  0
 18 19  1  0  0  0  0
 19 17  1  1  0  0  0
 19 16  1  0  0  0  0
 20 18  1  0  0  0  0
 20 19  1  0  0  0  0
 22 21  1  0  0  0  0
 24 25  2  0  0  0  0
 25 23  1  0  0  0  0
 26 27  2  0  0  0  0
 26 30  1  0  0  0  0
 27 28  1  0  0  0  0
 28 25  1  6  0  0  0
 28 29  1  0  0  0  0
 30 31  2  0  0  0  0
 30 29  1  0  0  0  0
M  END
>  <MODEL>
5

>  <REMARK>
 VINA RESULT:      -5.5      3.547      9.851
  Name = 
  9 active torsions:
  status: ('A' for Active; 'I' for Inactive)
    1  A    between atoms: S_1  and  C_17
    2  A    between atoms: S_1  and  C_24
    3  A    between atoms: C_3  and  C_29
    4  A    between atoms: C_8  and  C_17
    5  A    between atoms: C_12  and  C_14
    6  A    between atoms: C_14  and  C_21
    7  A    between atoms: C_14  and  C_28
    8  A    between atoms: C_18  and  C_20
    9  A    between atoms: N_22  and  C_28
                            x       y       z     vdW  Elec       q    Type
                         _______ _______ _______ _____ _____    ______ ____

>  <TORSDO>
F 9

$$$$
=
 OpenBabel11072412133D

 31 35  0  0  1  0  0  0  0  0999 V2000
  158.9820  210.3250  153.1330 C   0  0  0  0  0  2  0  0  0  0  0  0
  159.9410  209.9710  152.0870 N   0  0  1  0  0  0  0  0  0  0  0  0
  160.9130  211.0550  151.9890 C   0  0  2  0  0  3  0  0  0  0  0  0
  160.9080  209.0500  152.6710 C   0  0  2  0  0  3  0  0  0  0  0  0
  162.3430  210.1730  152.6840 S   0  0  0  0  0  0  0  0  0  0  0  0
  159.4050  211.6230  153.7890 C   0  0  2  0  0  3  0  0  0  0  0  0
  160.4880  212.1860  152.9050 C   0  0  0  0  0  2  0  0  0  0  0  0
  161.2910  207.8980  150.2820 C   0  0  0  0  0  2  0  0  0  0  0  0
  161.1900  206.6180  152.1620 C   0  0  0  0  0  0  0  0  0  0  0  0
  161.4310  205.7690  151.0620 N   0  0  0  0  0  2  0  0  0  0  0  0
  161.1080  207.8660  151.7650 C   0  0  0  0  0  0  0  0  0  0  0  0
  161.5040  206.5020  149.8660 N   0  0  0  0  0  0  0  0  0  0  0  0
  161.0900  204.7470  153.5950 O   0  0  0  0  0  1  0  0  0  0  0  0
  161.1340  206.1400  153.5730 C   0  0  0  0  0  2  0  0  0  0  0  0
  160.3590  206.1090  149.0570 C   0  0  0  0  0  2  0  0  0  0  0  0
  160.7370  204.9790  148.1040 C   0  0  1  0  0  3  0  0  0  0  0  0
  162.9150  205.0420  146.6070 C   0  0  0  0  0  1  0  0  0  0  0  0
  160.7300  205.9840  145.7020 C   0  0  0  0  0  2  0  0  0  0  0  0
  161.4940  205.4990  146.8680 C   0  0  1  0  0  0  0  0  0  0  0  0
  161.3310  206.8720  146.6230 O   0  0  0  0  0  0  0  0  0  0  0  0
  161.0820  202.5960  148.3040 O   0  0  0  0  0  1  0  0  0  0  0  0
  161.4230  203.8350  148.8530 C   0  0  0  0  0  2  0  0  0  0  0  0
  160.0710  211.2740  155.4450 S   0  0  0  0  0  0  0  0  0  0  0  0
  160.1280  213.7480  156.3100 O   0  0  0  0  0  0  0  0  0  0  0  0
  159.4000  212.7810  156.1440 C   0  0  0  0  0  0  0  0  0  0  0  0
  155.9870  212.9310  155.0150 C   0  0  0  0  0  3  0  0  0  0  0  0
  157.1790  213.7400  155.5220 C   0  0  0  0  0  3  0  0  0  0  0  0
  157.9490  212.8470  156.5060 C   0  0  1  0  0  3  0  0  0  0  0  0
  157.3480  211.5280  156.4330 N   0  0  0  0  0  2  0  0  0  0  0  0
  156.2210  211.5920  155.5870 C   0  0  0  0  0  0  0  0  0  0  0  0
  155.2600  210.3040  155.3020 S   0  0  0  0  0  0  0  0  0  0  0  0
  1  6  1  0  0  0  0
  2  4  1  0  0  0  0
  2  1  1  1  0  0  0
  3  2  1  0  0  0  0
  3  5  1  0  0  0  0
  3  7  1  1  0  0  0
  4 11  1  6  0  0  0
  4  5  1  0  0  0  0
  6 23  1  1  0  0  0
  7  6  1  0  0  0  0
  8 11  1  0  0  0  0
  9 14  1  0  0  0  0
 10  9  1  0  0  0  0
 11  9  2  0  0  0  0
 12  8  1  0  0  0  0
 12 10  1  0  0  0  0
 14 13  1  0  0  0  0
 15 12  1  0  0  0  0
 16 22  1  1  0  0  0
 16 15  1  0  0  0  0
 18 20  1  0  0  0  0
 18 19  1  0  0  0  0
 19 17  1  6  0  0  0
 19 16  1  0  0  0  0
 20 19  1  0  0  0  0
 21 22  1  0  0  0  0
 23 25  1  0  0  0  0
 25 24  2  0  0  0  0
 26 27  2  0  0  0  0
 26 30  1  0  0  0  0
 27 28  1  0  0  0  0
 28 25  1  6  0  0  0
 29 28  1  0  0  0  0
 30 29  1  0  0  0  0
 31 30  2  0  0  0  0
M  END
>  <MODEL>
6

>  <REMARK>
 VINA RESULT:      -5.3      1.913      2.287
  Name = 
  9 active torsions:
  status: ('A' for Active; 'I' for Inactive)
    1  A    between atoms: S_1  and  C_17
    2  A    between atoms: S_1  and  C_24
    3  A    between atoms: C_3  and  C_29
    4  A    between atoms: C_8  and  C_17
    5  A    between atoms: C_12  and  C_14
    6  A    between atoms: C_14  and  C_21
    7  A    between atoms: C_14  and  C_28
    8  A    between atoms: C_18  and  C_20
    9  A    between atoms: N_22  and  C_28
                            x       y       z     vdW  Elec       q    Type
                         _______ _______ _______ _____ _____    ______ ____

>  <TORSDO>
F 9

$$$$
=
 OpenBabel11072412133D

 31 35  0  0  1  0  0  0  0  0999 V2000
  160.6800  210.8060  152.0190 C   0  0  0  0  0  2  0  0  0  0  0  0
  161.5830  209.6620  151.9010 N   0  0  1  0  0  0  0  0  0  0  0  0
  162.2850  209.5160  153.1720 C   0  0  2  0  0  3  0  0  0  0  0  0
  160.7930  208.4550  152.1070 C   0  0  2  0  0  3  0  0  0  0  0  0
  161.4780  207.9850  153.7290 S   0  0  0  0  0  0  0  0  0  0  0  0
  160.7320  211.3490  153.4320 C   0  0  2  0  0  3  0  0  0  0  0  0
  161.9140  210.6740  154.0780 C   0  0  0  0  0  2  0  0  0  0  0  0
  161.4490  207.7350  149.6110 C   0  0  0  0  0  2  0  0  0  0  0  0
  161.1410  206.1460  151.2120 C   0  0  0  0  0  0  0  0  0  0  0  0
  161.5090  205.5000  150.0140 N   0  0  0  0  0  2  0  0  0  0  0  0
  161.0990  207.4450  151.0350 C   0  0  0  0  0  0  0  0  0  0  0  0
  161.7140  206.4300  148.9820 N   0  0  0  0  0  0  0  0  0  0  0  0
  161.0820  204.0570  152.3070 O   0  0  0  0  0  1  0  0  0  0  0  0
  160.9270  205.4280  152.5020 C   0  0  0  0  0  2  0  0  0  0  0  0
  160.6700  206.2040  147.9930 C   0  0  0  0  0  2  0  0  0  0  0  0
  161.2780  205.9910  146.6100 C   0  0  1  0  0  3  0  0  0  0  0  0
  161.3740  203.3920  147.0830 C   0  0  0  0  0  1  0  0  0  0  0  0
  163.0130  204.4400  145.4410 C   0  0  0  0  0  2  0  0  0  0  0  0
  162.0090  204.6400  146.5050 C   0  0  1  0  0  0  0  0  0  0  0  0
  163.3860  204.7030  146.7790 O   0  0  0  0  0  0  0  0  0  0  0  0
  160.7420  205.8880  144.2560 O   0  0  0  0  0  1  0  0  0  0  0  0
  160.2490  206.2610  145.5090 C   0  0  0  0  0  2  0  0  0  0  0  0
  159.2020  210.8980  154.3080 S   0  0  0  0  0  0  0  0  0  0  0  0
  159.0080  213.3210  153.3270 O   0  0  0  0  0  0  0  0  0  0  0  0
  158.3740  212.4210  153.8550 C   0  0  0  0  0  0  0  0  0  0  0  0
  155.6030  211.8340  156.0740 C   0  0  0  0  0  3  0  0  0  0  0  0
  156.3500  211.3360  154.8390 C   0  0  0  0  0  3  0  0  0  0  0  0
  156.9060  212.5710  154.1160 C   0  0  1  0  0  3  0  0  0  0  0  0
  156.6600  213.7090  154.9810 N   0  0  0  0  0  2  0  0  0  0  0  0
  155.9040  213.2770  156.0910 C   0  0  0  0  0  0  0  0  0  0  0  0
  155.3920  214.2970  157.2580 S   0  0  0  0  0  0  0  0  0  0  0  0
  1  6  1  0  0  0  0
  2  1  1  1  0  0  0
  2  4  1  0  0  0  0
  2  3  1  0  0  0  0
  3  5  1  0  0  0  0
  3  7  1  1  0  0  0
  4 11  1  6  0  0  0
  4  5  1  0  0  0  0
  6  7  1  0  0  0  0
  6 23  1  1  0  0  0
  8 11  1  0  0  0  0
  9 14  1  0  0  0  0
 10  9  1  0  0  0  0
 11  9  2  0  0  0  0
 12  8  1  0  0  0  0
 12 10  1  0  0  0  0
 13 14  1  0  0  0  0
 15 12  1  0  0  0  0
 16 22  1  6  0  0  0
 16 15  1  0  0  0  0
 18 19  1  0  0  0  0
 18 20  1  0  0  0  0
 19 16  1  0  0  0  0
 19 20  1  0  0  0  0
 19 17  1  1  0  0  0
 21 22  1  0  0  0  0
 24 25  2  0  0  0  0
 25 23  1  0  0  0  0
 26 30  1  0  0  0  0
 27 26  2  0  0  0  0
 28 25  1  1  0  0  0
 28 27  1  0  0  0  0
 28 29  1  0  0  0  0
 29 30  1  0  0  0  0
 30 31  2  0  0  0  0
M  END
>  <MODEL>
7

>  <REMARK>
 VINA RESULT:      -5.3      2.376      3.140
  Name = 
  9 active torsions:
  status: ('A' for Active; 'I' for Inactive)
    1  A    between atoms: S_1  and  C_17
    2  A    between atoms: S_1  and  C_24
    3  A    between atoms: C_3  and  C_29
    4  A    between atoms: C_8  and  C_17
    5  A    between atoms: C_12  and  C_14
    6  A    between atoms: C_14  and  C_21
    7  A    between atoms: C_14  and  C_28
    8  A    between atoms: C_18  and  C_20
    9  A    between atoms: N_22  and  C_28
                            x       y       z     vdW  Elec       q    Type
                         _______ _______ _______ _____ _____    ______ ____

>  <TORSDO>
F 9

$$$$
=
 OpenBabel11072412133D

 31 35  0  0  1  0  0  0  0  0999 V2000
  158.9220  210.3470  153.3170 C   0  0  0  0  0  2  0  0  0  0  0  0
  159.9330  209.8370  152.3920 N   0  0  1  0  0  0  0  0  0  0  0  0
  160.8370  210.9370  152.0710 C   0  0  2  0  0  3  0  0  0  0  0  0
  160.9370  209.1360  153.1800 C   0  0  2  0  0  3  0  0  0  0  0  0
  162.2980  210.3290  152.9670 S   0  0  0  0  0  0  0  0  0  0  0  0
  159.2420  211.7830  153.6760 C   0  0  2  0  0  3  0  0  0  0  0  0
  160.3140  212.2100  152.7070 C   0  0  0  0  0  2  0  0  0  0  0  0
  161.5970  207.5340  151.1350 C   0  0  0  0  0  2  0  0  0  0  0  0
  161.2680  206.6570  153.2100 C   0  0  0  0  0  0  0  0  0  0  0  0
  161.6350  205.6090  152.3410 N   0  0  0  0  0  2  0  0  0  0  0  0
  161.2390  207.7970  152.5630 C   0  0  0  0  0  0  0  0  0  0  0  0
  161.8530  206.0870  151.0390 N   0  0  0  0  0  0  0  0  0  0  0  0
  160.0740  207.3710  155.1150 O   0  0  0  0  0  1  0  0  0  0  0  0
  161.0420  206.4710  154.6730 C   0  0  0  0  0  2  0  0  0  0  0  0
  160.8110  205.5170  150.1970 C   0  0  0  0  0  2  0  0  0  0  0  0
  161.3790  204.4070  149.3170 C   0  0  1  0  0  3  0  0  0  0  0  0
  160.3530  202.0490  148.7030 C   0  0  0  0  0  1  0  0  0  0  0  0
  161.3560  202.4310  151.0120 C   0  0  0  0  0  2  0  0  0  0  0  0
  160.8740  203.0180  149.7460 C   0  0  1  0  0  0  0  0  0  0  0  0
  160.0760  203.0220  150.9020 O   0  0  0  0  0  0  0  0  0  0  0  0
  161.2990  206.1100  147.6050 O   0  0  0  0  0  1  0  0  0  0  0  0
  161.1990  204.7350  147.8330 C   0  0  0  0  0  2  0  0  0  0  0  0
  159.8780  211.8530  155.3790 S   0  0  0  0  0  0  0  0  0  0  0  0
  159.6250  214.4400  155.7110 O   0  0  0  0  0  0  0  0  0  0  0  0
  159.0180  213.3810  155.7460 C   0  0  0  0  0  0  0  0  0  0  0  0
  155.6440  212.9140  154.5860 C   0  0  0  0  0  3  0  0  0  0  0  0
  156.7220  213.9380  154.9330 C   0  0  0  0  0  3  0  0  0  0  0  0
  157.5580  213.3480  156.0780 C   0  0  1  0  0  3  0  0  0  0  0  0
  157.1110  211.9800  156.2600 N   0  0  0  0  0  2  0  0  0  0  0  0
  156.0100  211.7470  155.4100 C   0  0  0  0  0  0  0  0  0  0  0  0
  155.2070  210.3270  155.3770 S   0  0  0  0  0  0  0  0  0  0  0  0
  1  6  1  0  0  0  0
  2  4  1  0  0  0  0
  2  1  1  1  0  0  0
  3  2  1  0  0  0  0
  3  7  1  1  0  0  0
  3  5  1  0  0  0  0
  4 11  1  6  0  0  0
  5  4  1  0  0  0  0
  6 23  1  1  0  0  0
  7  6  1  0  0  0  0
  8 11  1  0  0  0  0
  9 14  1  0  0  0  0
 10  9  1  0  0  0  0
 11  9  2  0  0  0  0
 12  8  1  0  0  0  0
 12 10  1  0  0  0  0
 14 13  1  0  0  0  0
 15 12  1  0  0  0  0
 16 22  1  6  0  0  0
 16 19  1  0  0  0  0
 16 15  1  0  0  0  0
 19 17  1  6  0  0  0
 19 20  1  0  0  0  0
 19 18  1  0  0  0  0
 20 18  1  0  0  0  0
 21 22  1  0  0  0  0
 23 25  1  0  0  0  0
 24 25  2  0  0  0  0
 26 27  2  0  0  0  0
 26 30  1  0  0  0  0
 27 28  1  0  0  0  0
 28 25  1  6  0  0  0
 28 29  1  0  0  0  0
 30 29  1  0  0  0  0
 31 30  2  0  0  0  0
M  END
>  <MODEL>
8

>  <REMARK>
 VINA RESULT:      -5.1      2.450      3.554
  Name = 
  9 active torsions:
  status: ('A' for Active; 'I' for Inactive)
    1  A    between atoms: S_1  and  C_17
    2  A    between atoms: S_1  and  C_24
    3  A    between atoms: C_3  and  C_29
    4  A    between atoms: C_8  and  C_17
    5  A    between atoms: C_12  and  C_14
    6  A    between atoms: C_14  and  C_21
    7  A    between atoms: C_14  and  C_28
    8  A    between atoms: C_18  and  C_20
    9  A    between atoms: N_22  and  C_28
                            x       y       z     vdW  Elec       q    Type
                         _______ _______ _______ _____ _____    ______ ____

>  <TORSDO>
F 9

$$$$
=
 OpenBabel11072412133D

 31 35  0  0  1  0  0  0  0  0999 V2000
  160.1060  212.2170  146.9640 C   0  0  0  0  0  2  0  0  0  0  0  0
  160.6870  212.2890  148.3040 N   0  0  1  0  0  0  0  0  0  0  0  0
  162.0390  212.8230  148.1750 C   0  0  2  0  0  3  0  0  0  0  0  0
  160.1830  213.5010  148.9370 C   0  0  2  0  0  3  0  0  0  0  0  0
  161.7400  214.4490  148.9320 S   0  0  0  0  0  0  0  0  0  0  0  0
  161.0730  212.8110  145.9600 C   0  0  2  0  0  3  0  0  0  0  0  0
  162.3740  212.9740  146.7040 C   0  0  0  0  0  2  0  0  0  0  0  0
  160.4580  212.4890  151.4040 C   0  0  0  0  0  2  0  0  0  0  0  0
  158.5290  213.5450  150.8130 C   0  0  0  0  0  0  0  0  0  0  0  0
  158.4190  213.1460  152.1610 N   0  0  0  0  0  2  0  0  0  0  0  0
  159.6970  213.1950  150.3280 C   0  0  0  0  0  0  0  0  0  0  0  0
  159.5820  212.4860  152.5880 N   0  0  0  0  0  0  0  0  0  0  0  0
  156.5950  213.4650  149.4630 O   0  0  0  0  0  1  0  0  0  0  0  0
  157.4820  214.3320  150.0990 C   0  0  0  0  0  2  0  0  0  0  0  0
  159.2130  211.1020  152.8500 C   0  0  0  0  0  2  0  0  0  0  0  0
  160.4410  210.2820  153.2350 C   0  0  1  0  0  3  0  0  0  0  0  0
  159.8770  209.0970  155.5300 C   0  0  0  0  0  1  0  0  0  0  0  0
  161.8180  210.7400  155.3980 C   0  0  0  0  0  2  0  0  0  0  0  0
  160.6090  210.1790  154.7620 C   0  0  1  0  0  0  0  0  0  0  0  0
  160.5750  211.4130  155.4340 O   0  0  0  0  0  0  0  0  0  0  0  0
  161.1970  209.0520  151.2980 O   0  0  0  0  0  1  0  0  0  0  0  0
  160.4690  208.9480  152.4860 C   0  0  0  0  0  2  0  0  0  0  0  0
  160.4580  214.4350  145.4170 S   0  0  0  0  0  0  0  0  0  0  0  0
  159.6900  214.4320  142.9110 O   0  0  0  0  0  0  0  0  0  0  0  0
  160.5300  213.9950  143.6820 C   0  0  0  0  0  0  0  0  0  0  0  0
  161.7480  211.8150  141.0910 C   0  0  0  0  0  3  0  0  0  0  0  0
  161.0580  211.8860  142.4510 C   0  0  0  0  0  3  0  0  0  0  0  0
  161.6300  213.1050  143.1890 C   0  0  1  0  0  3  0  0  0  0  0  0
  162.4670  213.8130  142.2390 N   0  0  0  0  0  2  0  0  0  0  0  0
  162.5360  213.0610  141.0480 C   0  0  0  0  0  0  0  0  0  0  0  0
  163.4330  213.5220  139.7660 S   0  0  0  0  0  0  0  0  0  0  0  0
  2  1  1  6  0  0  0
  2  4  1  0  0  0  0
  3  7  1  6  0  0  0
  3  2  1  0  0  0  0
  3  5  1  0  0  0  0
  4 11  1  1  0  0  0
  5  4  1  0  0  0  0
  6 23  1  1  0  0  0
  6  7  1  0  0  0  0
  6  1  1  0  0  0  0
  8 12  1  0  0  0  0
  9 10  1  0  0  0  0
 10 12  1  0  0  0  0
 11  9  2  0  0  0  0
 11  8  1  0  0  0  0
 12 15  1  0  0  0  0
 13 14  1  0  0  0  0
 14  9  1  0  0  0  0
 15 16  1  0  0  0  0
 16 22  1  1  0  0  0
 16 19  1  0  0  0  0
 18 20  1  0  0  0  0
 19 18  1  0  0  0  0
 19 20  1  0  0  0  0
 19 17  1  1  0  0  0
 21 22  1  0  0  0  0
 24 25  2  0  0  0  0
 25 23  1  0  0  0  0
 26 27  2  0  0  0  0
 27 28  1  0  0  0  0
 28 25  1  6  0  0  0
 29 28  1  0  0  0  0
 30 26  1  0  0  0  0
 30 29  1  0  0  0  0
 31 30  2  0  0  0  0
M  END
>  <MODEL>
9

>  <REMARK>
 VINA RESULT:      -4.9      6.033     10.674
  Name = 
  9 active torsions:
  status: ('A' for Active; 'I' for Inactive)
    1  A    between atoms: S_1  and  C_17
    2  A    between atoms: S_1  and  C_24
    3  A    between atoms: C_3  and  C_29
    4  A    between atoms: C_8  and  C_17
    5  A    between atoms: C_12  and  C_14
    6  A    between atoms: C_14  and  C_21
    7  A    between atoms: C_14  and  C_28
    8  A    between atoms: C_18  and  C_20
    9  A    between atoms: N_22  and  C_28
                            x       y       z     vdW  Elec       q    Type
                         _______ _______ _______ _____ _____    ______ ____

>  <TORSDO>
F 9

$$$$
