=
 OpenBabel11072411593D

 45 48  0  0  1  0  0  0  0  0999 V2000
  162.0120  207.8870  149.0420 C   0  0  2  0  0  3  0  0  0  0  0  0
  162.3190  210.3770  150.4720 F   0  0  0  0  0  0  0  0  0  0  0  0
  161.9770  210.3980  149.1560 C   0  0  0  0  0  0  0  0  0  0  0  0
  161.8370  209.2650  148.4570 C   0  0  0  0  0  3  0  0  0  0  0  0
  161.2410  212.9930  149.2680 O   0  0  0  0  0  1  0  0  0  0  0  0
  163.3550  212.4760  147.8160 O   0  0  0  0  0  0  0  0  0  0  0  0
  161.8180  211.9700  148.3200 P   0  0  1  0  0  0  0  0  0  0  0  0
  160.7630  211.7590  147.0050 O   0  0  0  0  0  0  0  0  0  0  0  0
  161.0430  212.7900  146.1040 C   0  0  0  0  0  2  0  0  0  0  0  0
  160.3840  212.4950  144.7650 C   0  0  0  0  0  2  0  0  0  0  0  0
  160.9850  213.3370  143.6440 C   0  0  2  0  0  3  0  0  0  0  0  0
  160.0610  213.2770  142.4410 C   0  0  0  0  0  2  0  0  0  0  0  0
  162.3130  212.7430  143.1770 C   0  0  0  0  0  2  0  0  0  0  0  0
  160.6970  212.3810  141.5000 N   0  0  0  0  0  0  0  0  0  0  0  0
  158.9400  212.3940  139.9640 O   0  0  0  0  0  0  0  0  0  0  0  0
  162.0190  211.9620  141.9120 C   0  0  0  0  0  2  0  0  0  0  0  0
  160.0830  211.9600  140.2760 C   0  0  0  0  0  0  0  0  0  0  0  0
  160.7870  210.9990  139.3680 C   0  0  2  0  0  3  0  0  0  0  0  0
  162.5290  211.8520  138.2960 C   0  0  0  0  0  1  0  0  0  0  0  0
  161.1530  211.6420  138.1820 O   0  0  0  0  0  0  0  0  0  0  0  0
  159.8790  209.8170  139.0660 C   0  0  0  0  0  2  0  0  0  0  0  0
  161.8650  208.5860  139.8810 C   0  0  0  0  0  1  0  0  0  0  0  0
  160.6990  208.5500  138.9150 C   0  0  0  0  0  2  0  0  0  0  0  0
  162.6330  207.9230  150.4330 C   0  0  0  0  0  2  0  0  0  0  0  0
  162.5950  206.6540  151.0370 O   0  0  0  0  0  0  0  0  0  0  0  0
  161.2460  206.2660  151.2130 C   0  0  2  0  0  3  0  0  0  0  0  0
  161.8360  208.0410  154.1050 N   0  0  0  0  0  0  0  0  0  0  0  0
  160.3850  208.1830  152.4160 O   0  0  0  0  0  0  0  0  0  0  0  0
  161.1350  210.3050  153.5500 C   0  0  0  0  0  1  0  0  0  0  0  0
  161.6060  206.6700  153.6720 C   0  0  0  0  0  2  0  0  0  0  0  0
  160.6120  206.7880  152.5110 C   0  0  2  0  0  3  0  0  0  0  0  0
  161.1340  208.8300  153.3730 C   0  0  0  0  0  0  0  0  0  0  0  0
  161.0050  204.8030  150.9460 C   0  0  0  0  0  0  0  0  0  0  0  0
  161.2180  202.0270  150.4670 C   0  0  0  0  0  2  0  0  0  0  0  0
  160.9150  204.3700  149.6860 C   0  0  0  0  0  3  0  0  0  0  0  0
  160.8970  203.8270  152.0510 C   0  0  0  0  0  3  0  0  0  0  0  0
  160.9520  202.5510  151.8100 N   0  0  0  0  0  0  0  0  0  0  0  0
  160.5980  202.9300  149.3980 C   0  0  0  0  0  2  0  0  0  0  0  0
  162.7560  207.0370  148.1720 O   0  0  0  0  0  0  0  0  0  0  0  0
  160.9630  204.8640  145.1010 N   0  0  0  0  0  0  0  0  0  0  0  0
  160.3310  205.9510  145.6170 C   0  0  0  0  0  3  0  0  0  0  0  0
  162.1690  206.2920  147.1440 C   0  0  0  0  0  0  0  0  0  0  0  0
  162.1760  204.4620  145.5660 C   0  0  0  0  0  3  0  0  0  0  0  0
  162.8010  205.1680  146.5950 C   0  0  0  0  0  3  0  0  0  0  0  0
  160.9240  206.6840  146.6480 C   0  0  0  0  0  3  0  0  0  0  0  0
  1  4  1  6  0  0  0
  1 24  1  0  0  0  0
  3  2  1  0  0  0  0
  4  3  2  0  0  0  0
  7  6  2  6  0  0  0
  7  3  1  0  0  0  0
  7  5  1  0  0  0  0
  8  7  1  0  0  0  0
  9  8  1  0  0  0  0
 10  9  1  0  0  0  0
 11 10  1  1  0  0  0
 12 11  1  0  0  0  0
 13 11  1  0  0  0  0
 14 16  1  0  0  0  0
 14 12  1  0  0  0  0
 15 17  2  0  0  0  0
 16 13  1  0  0  0  0
 17 14  1  0  0  0  0
 18 21  1  6  0  0  0
 18 17  1  0  0  0  0
 20 19  1  0  0  0  0
 20 18  1  0  0  0  0
 23 21  1  0  0  0  0
 23 22  1  0  0  0  0
 24 25  1  0  0  0  0
 26 25  1  1  0  0  0
 28 31  1  0  0  0  0
 28 32  1  0  0  0  0
 30 27  1  0  0  0  0
 31 26  1  6  0  0  0
 31 30  1  0  0  0  0
 32 29  1  0  0  0  0
 32 27  2  0  0  0  0
 33 26  1  0  0  0  0
 33 36  1  0  0  0  0
 34 37  1  0  0  0  0
 35 33  2  0  0  0  0
 37 36  2  0  0  0  0
 38 35  1  0  0  0  0
 38 34  1  0  0  0  0
 39  1  1  0  0  0  0
 40 43  2  0  0  0  0
 40 41  1  0  0  0  0
 41 45  2  0  0  0  0
 42 39  1  0  0  0  0
 43 44  1  0  0  0  0
 44 42  2  0  0  0  0
 45 42  1  0  0  0  0
M  END
>  <MODEL>
1

>  <REMARK>
 VINA RESULT:      -7.5      0.000      0.000
  Name = 
  17 active torsions:
  status: ('A' for Active; 'I' for Inactive)
    1  A    between atoms: C_1  and  C_27
    2  A    between atoms: C_1  and  O_32
    3  A    between atoms: C_1  and  C_35
    4  A    between atoms: C_5  and  C_29
    5  A    between atoms: O_7  and  C_16
    6  A    between atoms: O_7  and  C_31
    7  A    between atoms: C_11  and  C_41
    8  A    between atoms: O_12  and  C_18
    9  A    between atoms: O_12  and  C_41
   10  A    between atoms: O_13  and  C_24
   11  A    between atoms: O_13  and  P_26
   12  A    between atoms: C_16  and  C_18
   13  A    between atoms: C_16  and  C_28
   14  A    between atoms: C_21  and  P_26
   15  A    between atoms: C_24  and  C_29
   16  A    between atoms: C_27  and  C_40
   17  A    between atoms: C_37  and  C_41
                            x       y       z     vdW  Elec       q    Type
                         _______ _______ _______ _____ _____    ______ ____

>  <TORSDO>
F 17

$$$$
=
 OpenBabel11072411593D

 45 48  0  0  1  0  0  0  0  0999 V2000
  161.7980  207.8810  148.6890 C   0  0  2  0  0  3  0  0  0  0  0  0
  162.1820  210.2430  150.3050 F   0  0  0  0  0  0  0  0  0  0  0  0
  161.9150  210.3740  148.9780 C   0  0  0  0  0  0  0  0  0  0  0  0
  161.7430  209.3030  148.1950 C   0  0  0  0  0  3  0  0  0  0  0  0
  161.3800  213.0070  149.2520 O   0  0  0  0  0  1  0  0  0  0  0  0
  163.4870  212.4210  147.8150 O   0  0  0  0  0  0  0  0  0  0  0  0
  161.9010  212.0070  148.2480 P   0  0  1  0  0  0  0  0  0  0  0  0
  160.8700  211.9680  146.9000 O   0  0  0  0  0  0  0  0  0  0  0  0
  160.8770  213.2560  146.3590 C   0  0  0  0  0  2  0  0  0  0  0  0
  160.2330  213.2400  144.9810 C   0  0  0  0  0  2  0  0  0  0  0  0
  161.0790  213.9880  143.9550 C   0  0  2  0  0  3  0  0  0  0  0  0
  160.5200  213.7130  142.5700 C   0  0  0  0  0  2  0  0  0  0  0  0
  162.5090  213.4490  143.9400 C   0  0  0  0  0  2  0  0  0  0  0  0
  161.4270  212.7650  141.9610 N   0  0  0  0  0  0  0  0  0  0  0  0
  160.1540  212.4570  140.0290 O   0  0  0  0  0  0  0  0  0  0  0  0
  162.6040  212.5030  142.7600 C   0  0  0  0  0  2  0  0  0  0  0  0
  161.1870  212.1540  140.6870 C   0  0  0  0  0  0  0  0  0  0  0  0
  162.1530  211.1510  140.1350 C   0  0  2  0  0  3  0  0  0  0  0  0
  163.8620  211.9110  138.9460 C   0  0  0  0  0  1  0  0  0  0  0  0
  162.5280  211.5110  138.8370 O   0  0  0  0  0  0  0  0  0  0  0  0
  161.5160  209.7700  140.1340 C   0  0  0  0  0  2  0  0  0  0  0  0
  161.5380  207.7430  138.7160 C   0  0  0  0  0  1  0  0  0  0  0  0
  161.3930  209.2490  138.7150 C   0  0  0  0  0  2  0  0  0  0  0  0
  162.2220  207.7910  150.1500 C   0  0  0  0  0  2  0  0  0  0  0  0
  161.1820  207.2810  150.9470 O   0  0  0  0  0  0  0  0  0  0  0  0
  161.7300  206.7390  152.1330 C   0  0  2  0  0  3  0  0  0  0  0  0
  160.1240  203.8620  151.1260 N   0  0  0  0  0  0  0  0  0  0  0  0
  162.1700  204.7180  150.8720 O   0  0  0  0  0  0  0  0  0  0  0  0
  161.2150  203.2930  149.0260 C   0  0  0  0  0  1  0  0  0  0  0  0
  160.3830  204.6210  152.3410 C   0  0  0  0  0  2  0  0  0  0  0  0
  161.7880  205.2040  152.1480 C   0  0  2  0  0  3  0  0  0  0  0  0
  161.1480  203.9540  150.3540 C   0  0  0  0  0  0  0  0  0  0  0  0
  161.1670  207.3530  153.3870 C   0  0  0  0  0  0  0  0  0  0  0  0
  160.7490  208.6450  155.8650 C   0  0  0  0  0  2  0  0  0  0  0  0
  161.0040  206.5970  154.4750 C   0  0  0  0  0  3  0  0  0  0  0  0
  160.8180  208.7890  153.4510 C   0  0  0  0  0  3  0  0  0  0  0  0
  160.5840  209.3590  154.5950 N   0  0  0  0  0  0  0  0  0  0  0  0
  160.3720  207.1700  155.7120 C   0  0  0  0  0  2  0  0  0  0  0  0
  162.6320  207.0690  147.8640 O   0  0  0  0  0  0  0  0  0  0  0  0
  161.0980  204.6230  144.8590 N   0  0  0  0  0  0  0  0  0  0  0  0
  160.3580  205.6630  145.3260 C   0  0  0  0  0  3  0  0  0  0  0  0
  162.1330  206.2340  146.8590 C   0  0  0  0  0  0  0  0  0  0  0  0
  162.3370  204.3560  145.3520 C   0  0  0  0  0  3  0  0  0  0  0  0
  162.8760  205.1560  146.3610 C   0  0  0  0  0  3  0  0  0  0  0  0
  160.8640  206.4880  146.3350 C   0  0  0  0  0  3  0  0  0  0  0  0
  1  4  1  6  0  0  0
  1 24  1  0  0  0  0
  3  2  1  0  0  0  0
  4  3  2  0  0  0  0
  7  6  2  6  0  0  0
  7  3  1  0  0  0  0
  7  5  1  0  0  0  0
  8  7  1  0  0  0  0
  9  8  1  0  0  0  0
 10  9  1  0  0  0  0
 11 10  1  1  0  0  0
 12 11  1  0  0  0  0
 13 11  1  0  0  0  0
 14 12  1  0  0  0  0
 14 16  1  0  0  0  0
 15 17  2  0  0  0  0
 16 13  1  0  0  0  0
 17 14  1  0  0  0  0
 18 21  1  6  0  0  0
 18 17  1  0  0  0  0
 20 19  1  0  0  0  0
 20 18  1  0  0  0  0
 23 22  1  0  0  0  0
 23 21  1  0  0  0  0
 24 25  1  0  0  0  0
 26 25  1  6  0  0  0
 26 33  1  0  0  0  0
 27 30  1  0  0  0  0
 28 31  1  0  0  0  0
 29 32  1  0  0  0  0
 31 26  1  6  0  0  0
 31 30  1  0  0  0  0
 32 28  1  0  0  0  0
 32 27  2  0  0  0  0
 33 36  1  0  0  0  0
 33 35  2  0  0  0  0
 35 38  1  0  0  0  0
 36 37  2  0  0  0  0
 37 34  1  0  0  0  0
 38 34  1  0  0  0  0
 39  1  1  0  0  0  0
 40 41  2  0  0  0  0
 40 43  1  0  0  0  0
 41 45  1  0  0  0  0
 42 39  1  0  0  0  0
 43 44  2  0  0  0  0
 44 42  1  0  0  0  0
 45 42  2  0  0  0  0
M  END
>  <MODEL>
2

>  <REMARK>
 VINA RESULT:      -7.2      1.079      3.129
  Name = 
  17 active torsions:
  status: ('A' for Active; 'I' for Inactive)
    1  A    between atoms: C_1  and  C_27
    2  A    between atoms: C_1  and  O_32
    3  A    between atoms: C_1  and  C_35
    4  A    between atoms: C_5  and  C_29
    5  A    between atoms: O_7  and  C_16
    6  A    between atoms: O_7  and  C_31
    7  A    between atoms: C_11  and  C_41
    8  A    between atoms: O_12  and  C_18
    9  A    between atoms: O_12  and  C_41
   10  A    between atoms: O_13  and  C_24
   11  A    between atoms: O_13  and  P_26
   12  A    between atoms: C_16  and  C_18
   13  A    between atoms: C_16  and  C_28
   14  A    between atoms: C_21  and  P_26
   15  A    between atoms: C_24  and  C_29
   16  A    between atoms: C_27  and  C_40
   17  A    between atoms: C_37  and  C_41
                            x       y       z     vdW  Elec       q    Type
                         _______ _______ _______ _____ _____    ______ ____

>  <TORSDO>
F 17

$$$$
=
 OpenBabel11072411593D

 45 48  0  0  1  0  0  0  0  0999 V2000
  161.8030  209.5690  151.4590 C   0  0  2  0  0  3  0  0  0  0  0  0
  161.0080  206.9090  152.2510 F   0  0  0  0  0  0  0  0  0  0  0  0
  161.2560  207.1710  150.9400 C   0  0  0  0  0  0  0  0  0  0  0  0
  161.6150  208.3950  150.5330 C   0  0  0  0  0  3  0  0  0  0  0  0
  162.3200  205.3050  149.3050 O   0  0  0  0  0  0  0  0  0  0  0  0
  160.0430  204.6660  150.4250 O   0  0  0  0  0  1  0  0  0  0  0  0
  160.9920  205.8850  149.7270 P   0  0  1  0  0  0  0  0  0  0  0  0
  160.2270  206.5840  148.3820 O   0  0  0  0  0  0  0  0  0  0  0  0
  161.1800  206.6220  147.3600 C   0  0  0  0  0  2  0  0  0  0  0  0
  160.4900  206.5040  146.0090 C   0  0  0  0  0  2  0  0  0  0  0  0
  161.3050  205.6610  145.0330 C   0  0  2  0  0  3  0  0  0  0  0  0
  160.4800  204.4520  144.6280 C   0  0  0  0  0  2  0  0  0  0  0  0
  162.5520  205.1010  145.7160 C   0  0  0  0  0  2  0  0  0  0  0  0
  161.0350  203.3330  145.3580 N   0  0  0  0  0  0  0  0  0  0  0  0
  159.4290  201.7940  144.6530 O   0  0  0  0  0  0  0  0  0  0  0  0
  162.2360  203.6670  146.0920 C   0  0  0  0  0  2  0  0  0  0  0  0
  160.4580  202.0220  145.3460 C   0  0  0  0  0  0  0  0  0  0  0  0
  161.0670  200.9200  146.1570 C   0  0  2  0  0  3  0  0  0  0  0  0
  161.6920  198.7950  146.2260 C   0  0  0  0  0  1  0  0  0  0  0  0
  160.9170  199.6980  145.4950 O   0  0  0  0  0  0  0  0  0  0  0  0
  160.4040  200.8620  147.5250 C   0  0  0  0  0  2  0  0  0  0  0  0
  160.7990  201.2340  149.9390 C   0  0  0  0  0  1  0  0  0  0  0  0
  161.2290  201.6280  148.5420 C   0  0  0  0  0  2  0  0  0  0  0  0
  160.4990  210.0020  152.1170 C   0  0  0  0  0  2  0  0  0  0  0  0
  160.7350  210.9420  153.1370 O   0  0  0  0  0  0  0  0  0  0  0  0
  159.8350  210.7060  154.2020 C   0  0  2  0  0  3  0  0  0  0  0  0
  156.7960  212.3250  154.3080 N   0  0  0  0  0  0  0  0  0  0  0  0
  158.3000  211.6580  155.8160 O   0  0  0  0  0  0  0  0  0  0  0  0
  155.8640  211.6690  156.4590 C   0  0  0  0  0  1  0  0  0  0  0  0
  158.0870  212.4320  153.6450 C   0  0  0  0  0  2  0  0  0  0  0  0
  159.1060  211.9660  154.6910 C   0  0  2  0  0  3  0  0  0  0  0  0
  156.9800  211.8920  155.5050 C   0  0  0  0  0  0  0  0  0  0  0  0
  160.4180  209.8560  155.3000 C   0  0  0  0  0  0  0  0  0  0  0  0
  161.8940  208.0280  156.8690 C   0  0  0  0  0  2  0  0  0  0  0  0
  159.8640  208.6750  155.5830 C   0  0  0  0  0  3  0  0  0  0  0  0
  161.6140  210.2880  156.0540 C   0  0  0  0  0  3  0  0  0  0  0  0
  162.2570  209.4470  156.8080 N   0  0  0  0  0  0  0  0  0  0  0  0
  160.3810  207.8470  156.7250 C   0  0  0  0  0  2  0  0  0  0  0  0
  162.4310  210.6650  150.7970 O   0  0  0  0  0  0  0  0  0  0  0  0
  160.5750  212.8960  147.8050 N   0  0  0  0  0  0  0  0  0  0  0  0
  160.3720  213.2170  149.1110 C   0  0  0  0  0  3  0  0  0  0  0  0
  161.8140  211.3990  149.7790 C   0  0  0  0  0  0  0  0  0  0  0  0
  161.3740  211.8550  147.4460 C   0  0  0  0  0  3  0  0  0  0  0  0
  162.0070  211.0890  148.4260 C   0  0  0  0  0  3  0  0  0  0  0  0
  160.9890  212.4730  150.1210 C   0  0  0  0  0  3  0  0  0  0  0  0
  1  4  1  6  0  0  0
  1 24  1  0  0  0  0
  3  2  1  0  0  0  0
  4  3  2  0  0  0  0
  7  5  2  6  0  0  0
  7  6  1  0  0  0  0
  7  3  1  0  0  0  0
  8  7  1  0  0  0  0
  9  8  1  0  0  0  0
 10  9  1  0  0  0  0
 11 13  1  0  0  0  0
 11 10  1  1  0  0  0
 12 11  1  0  0  0  0
 12 14  1  0  0  0  0
 13 16  1  0  0  0  0
 14 16  1  0  0  0  0
 15 17  2  0  0  0  0
 17 14  1  0  0  0  0
 17 18  1  0  0  0  0
 18 21  1  1  0  0  0
 20 18  1  0  0  0  0
 20 19  1  0  0  0  0
 21 23  1  0  0  0  0
 23 22  1  0  0  0  0
 24 25  1  0  0  0  0
 26 25  1  6  0  0  0
 26 33  1  0  0  0  0
 27 32  2  0  0  0  0
 30 27  1  0  0  0  0
 30 31  1  0  0  0  0
 31 26  1  6  0  0  0
 31 28  1  0  0  0  0
 32 28  1  0  0  0  0
 32 29  1  0  0  0  0
 33 35  2  0  0  0  0
 33 36  1  0  0  0  0
 35 38  1  0  0  0  0
 36 37  2  0  0  0  0
 37 34  1  0  0  0  0
 38 34  1  0  0  0  0
 39  1  1  0  0  0  0
 40 41  1  0  0  0  0
 41 45  2  0  0  0  0
 42 45  1  0  0  0  0
 42 39  1  0  0  0  0
 43 40  2  0  0  0  0
 43 44  1  0  0  0  0
 44 42  2  0  0  0  0
M  END
>  <MODEL>
3

>  <REMARK>
 VINA RESULT:      -6.5      4.590      8.189
  Name = 
  17 active torsions:
  status: ('A' for Active; 'I' for Inactive)
    1  A    between atoms: C_1  and  C_27
    2  A    between atoms: C_1  and  O_32
    3  A    between atoms: C_1  and  C_35
    4  A    between atoms: C_5  and  C_29
    5  A    between atoms: O_7  and  C_16
    6  A    between atoms: O_7  and  C_31
    7  A    between atoms: C_11  and  C_41
    8  A    between atoms: O_12  and  C_18
    9  A    between atoms: O_12  and  C_41
   10  A    between atoms: O_13  and  C_24
   11  A    between atoms: O_13  and  P_26
   12  A    between atoms: C_16  and  C_18
   13  A    between atoms: C_16  and  C_28
   14  A    between atoms: C_21  and  P_26
   15  A    between atoms: C_24  and  C_29
   16  A    between atoms: C_27  and  C_40
   17  A    between atoms: C_37  and  C_41
                            x       y       z     vdW  Elec       q    Type
                         _______ _______ _______ _____ _____    ______ ____

>  <TORSDO>
F 17

$$$$
=
 OpenBabel11072411593D

 45 48  0  0  1  0  0  0  0  0999 V2000
  162.0780  210.2900  150.7710 C   0  0  2  0  0  3  0  0  0  0  0  0
  160.0510  208.4380  151.6640 F   0  0  0  0  0  0  0  0  0  0  0  0
  161.3630  208.0860  151.7430 C   0  0  0  0  0  0  0  0  0  0  0  0
  162.3290  208.9130  151.3280 C   0  0  0  0  0  3  0  0  0  0  0  0
  163.1870  206.0980  151.8440 O   0  0  0  0  0  0  0  0  0  0  0  0
  161.7470  206.4270  154.0040 O   0  0  0  0  0  1  0  0  0  0  0  0
  161.7940  206.4460  152.3100 P   0  0  1  0  0  0  0  0  0  0  0  0
  160.6830  205.3510  151.6380 O   0  0  0  0  0  0  0  0  0  0  0  0
  161.0630  204.0810  152.0770 C   0  0  0  0  0  2  0  0  0  0  0  0
  160.1640  203.0280  151.4470 C   0  0  0  0  0  2  0  0  0  0  0  0
  160.9570  202.0540  150.5820 C   0  0  2  0  0  3  0  0  0  0  0  0
  161.8460  202.8500  149.6420 C   0  0  0  0  0  2  0  0  0  0  0  0
  160.0220  201.2470  149.6830 C   0  0  0  0  0  2  0  0  0  0  0  0
  161.2090  202.7820  148.3450 N   0  0  0  0  0  0  0  0  0  0  0  0
  162.7000  204.2370  147.2930 O   0  0  0  0  0  0  0  0  0  0  0  0
  160.0640  201.8980  148.3150 C   0  0  0  0  0  2  0  0  0  0  0  0
  161.6720  203.5110  147.2020 C   0  0  0  0  0  0  0  0  0  0  0  0
  160.9380  203.4210  145.9000 C   0  0  2  0  0  3  0  0  0  0  0  0
  159.8510  201.7960  144.8550 C   0  0  0  0  0  1  0  0  0  0  0  0
  161.1120  202.1520  145.3380 O   0  0  0  0  0  0  0  0  0  0  0  0
  161.4480  204.4910  144.9460 C   0  0  0  0  0  2  0  0  0  0  0  0
  160.4200  206.4070  146.1260 C   0  0  0  0  0  1  0  0  0  0  0  0
  160.4400  205.6190  144.8340 C   0  0  0  0  0  2  0  0  0  0  0  0
  160.9220  210.9960  151.4710 C   0  0  0  0  0  2  0  0  0  0  0  0
  161.3060  211.4520  152.7450 O   0  0  0  0  0  0  0  0  0  0  0  0
  160.2660  211.1850  153.6650 C   0  0  2  0  0  3  0  0  0  0  0  0
  157.0580  212.2670  154.3040 N   0  0  0  0  0  0  0  0  0  0  0  0
  159.0180  212.3750  155.3660 O   0  0  0  0  0  0  0  0  0  0  0  0
  156.9060  212.2310  156.7330 C   0  0  0  0  0  1  0  0  0  0  0  0
  158.0660  212.3420  153.2560 C   0  0  0  0  0  2  0  0  0  0  0  0
  159.4030  212.4100  154.0020 C   0  0  2  0  0  3  0  0  0  0  0  0
  157.6460  212.2900  155.4470 C   0  0  0  0  0  0  0  0  0  0  0  0
  160.7160  210.3910  154.8630 C   0  0  0  0  0  0  0  0  0  0  0  0
  161.9070  208.5600  156.6540 C   0  0  0  0  0  2  0  0  0  0  0  0
  159.9960  209.3410  155.2650 C   0  0  0  0  0  3  0  0  0  0  0  0
  161.9600  210.7300  155.5870 C   0  0  0  0  0  3  0  0  0  0  0  0
  162.4720  209.8960  156.4420 N   0  0  0  0  0  0  0  0  0  0  0  0
  160.3850  208.5820  156.5020 C   0  0  0  0  0  2  0  0  0  0  0  0
  161.8790  210.2600  149.3600 O   0  0  0  0  0  0  0  0  0  0  0  0
  161.9860  213.6800  146.9810 N   0  0  0  0  0  0  0  0  0  0  0  0
  163.1010  213.2910  147.6540 C   0  0  0  0  0  3  0  0  0  0  0  0
  161.8930  211.4070  148.5600 C   0  0  0  0  0  0  0  0  0  0  0  0
  160.8250  212.9770  147.0650 C   0  0  0  0  0  3  0  0  0  0  0  0
  160.7580  211.8290  147.8550 C   0  0  0  0  0  3  0  0  0  0  0  0
  163.0740  212.1460  148.4560 C   0  0  0  0  0  3  0  0  0  0  0  0
  1  4  1  1  0  0  0
  1 24  1  0  0  0  0
  2  3  1  0  0  0  0
  3  7  1  0  0  0  0
  4  3  2  0  0  0  0
  7  5  2  6  0  0  0
  7  6  1  0  0  0  0
  8  9  1  0  0  0  0
  8  7  1  0  0  0  0
 10  9  1  0  0  0  0
 11 10  1  1  0  0  0
 12 11  1  0  0  0  0
 13 11  1  0  0  0  0
 14 12  1  0  0  0  0
 16 14  1  0  0  0  0
 16 13  1  0  0  0  0
 17 15  2  0  0  0  0
 17 14  1  0  0  0  0
 18 21  1  6  0  0  0
 18 17  1  0  0  0  0
 19 20  1  0  0  0  0
 20 18  1  0  0  0  0
 23 21  1  0  0  0  0
 23 22  1  0  0  0  0
 24 25  1  0  0  0  0
 26 25  1  1  0  0  0
 26 33  1  0  0  0  0
 27 32  2  0  0  0  0
 28 32  1  0  0  0  0
 30 31  1  0  0  0  0
 30 27  1  0  0  0  0
 31 26  1  6  0  0  0
 31 28  1  0  0  0  0
 32 29  1  0  0  0  0
 33 35  2  0  0  0  0
 33 36  1  0  0  0  0
 35 38  1  0  0  0  0
 36 37  2  0  0  0  0
 37 34  1  0  0  0  0
 38 34  1  0  0  0  0
 39  1  1  0  0  0  0
 40 43  2  0  0  0  0
 40 41  1  0  0  0  0
 41 45  2  0  0  0  0
 42 39  1  0  0  0  0
 43 44  1  0  0  0  0
 44 42  2  0  0  0  0
 45 42  1  0  0  0  0
M  END
>  <MODEL>
4

>  <REMARK>
 VINA RESULT:      -6.3      4.353      8.406
  Name = 
  17 active torsions:
  status: ('A' for Active; 'I' for Inactive)
    1  A    between atoms: C_1  and  C_27
    2  A    between atoms: C_1  and  O_32
    3  A    between atoms: C_1  and  C_35
    4  A    between atoms: C_5  and  C_29
    5  A    between atoms: O_7  and  C_16
    6  A    between atoms: O_7  and  C_31
    7  A    between atoms: C_11  and  C_41
    8  A    between atoms: O_12  and  C_18
    9  A    between atoms: O_12  and  C_41
   10  A    between atoms: O_13  and  C_24
   11  A    between atoms: O_13  and  P_26
   12  A    between atoms: C_16  and  C_18
   13  A    between atoms: C_16  and  C_28
   14  A    between atoms: C_21  and  P_26
   15  A    between atoms: C_24  and  C_29
   16  A    between atoms: C_27  and  C_40
   17  A    between atoms: C_37  and  C_41
                            x       y       z     vdW  Elec       q    Type
                         _______ _______ _______ _____ _____    ______ ____

>  <TORSDO>
F 17

$$$$
=
 OpenBabel11072411593D

 45 48  0  0  1  0  0  0  0  0999 V2000
  160.2670  210.7540  152.9800 C   0  0  2  0  0  3  0  0  0  0  0  0
  162.8510  209.9910  151.9400 F   0  0  0  0  0  0  0  0  0  0  0  0
  161.7370  209.3380  151.5140 C   0  0  0  0  0  0  0  0  0  0  0  0
  160.5240  209.6550  151.9820 C   0  0  0  0  0  3  0  0  0  0  0  0
  160.5470  207.4300  150.0200 O   0  0  0  0  0  1  0  0  0  0  0  0
  162.7040  208.4940  148.9910 O   0  0  0  0  0  0  0  0  0  0  0  0
  161.9120  207.9580  150.3900 P   0  0  1  0  0  0  0  0  0  0  0  0
  162.7920  206.7430  151.1860 O   0  0  0  0  0  0  0  0  0  0  0  0
  161.8930  206.0970  152.0380 C   0  0  0  0  0  2  0  0  0  0  0  0
  162.0780  204.5910  151.9340 C   0  0  0  0  0  2  0  0  0  0  0  0
  160.7970  203.8950  151.4840 C   0  0  2  0  0  3  0  0  0  0  0  0
  161.1690  202.6420  150.7110 C   0  0  0  0  0  2  0  0  0  0  0  0
  160.0230  204.7740  150.5030 C   0  0  0  0  0  2  0  0  0  0  0  0
  160.9510  202.9610  149.3160 N   0  0  0  0  0  0  0  0  0  0  0  0
  161.8030  200.9490  148.4970 O   0  0  0  0  0  0  0  0  0  0  0  0
  160.3360  204.2550  149.1130 C   0  0  0  0  0  2  0  0  0  0  0  0
  161.3010  202.0780  148.2440 C   0  0  0  0  0  0  0  0  0  0  0  0
  161.0820  202.4920  146.8210 C   0  0  2  0  0  3  0  0  0  0  0  0
  159.9770  201.3820  145.2530 C   0  0  0  0  0  1  0  0  0  0  0  0
  161.1700  201.3800  145.9790 O   0  0  0  0  0  0  0  0  0  0  0  0
  162.1150  203.5350  146.4230 C   0  0  0  0  0  2  0  0  0  0  0  0
  161.9950  205.8200  145.4820 C   0  0  0  0  0  1  0  0  0  0  0  0
  161.5970  204.3750  145.2710 C   0  0  0  0  0  2  0  0  0  0  0  0
  160.3570  212.1400  152.3520 C   0  0  0  0  0  2  0  0  0  0  0  0
  159.9140  212.1180  151.0170 O   0  0  0  0  0  0  0  0  0  0  0  0
  160.2310  213.3530  150.4040 C   0  0  2  0  0  3  0  0  0  0  0  0
  156.7950  213.4880  150.1830 N   0  0  0  0  0  0  0  0  0  0  0  0
  158.3490  214.4530  151.4620 O   0  0  0  0  0  0  0  0  0  0  0  0
  156.0850  213.9740  152.4600 C   0  0  0  0  0  1  0  0  0  0  0  0
  157.9680  213.6290  149.3320 C   0  0  0  0  0  2  0  0  0  0  0  0
  159.0250  214.2880  150.2270 C   0  0  2  0  0  3  0  0  0  0  0  0
  157.0680  213.9610  151.3460 C   0  0  0  0  0  0  0  0  0  0  0  0
  161.0930  213.2080  149.1780 C   0  0  0  0  0  0  0  0  0  0  0  0
  163.2070  213.0060  147.3150 C   0  0  0  0  0  2  0  0  0  0  0  0
  161.4160  214.2920  148.4680 C   0  0  0  0  0  3  0  0  0  0  0  0
  161.6180  211.8910  148.7580 C   0  0  0  0  0  3  0  0  0  0  0  0
  162.5600  211.8110  147.8660 N   0  0  0  0  0  0  0  0  0  0  0  0
  162.2090  214.1610  147.1990 C   0  0  0  0  0  2  0  0  0  0  0  0
  161.1290  210.6490  154.1120 O   0  0  0  0  0  0  0  0  0  0  0  0
  160.4200  208.0130  157.2610 N   0  0  0  0  0  0  0  0  0  0  0  0
  159.8270  209.2360  157.2580 C   0  0  0  0  0  3  0  0  0  0  0  0
  160.9070  209.7520  155.1610 C   0  0  0  0  0  0  0  0  0  0  0  0
  161.2470  207.6230  156.2540 C   0  0  0  0  0  3  0  0  0  0  0  0
  161.5050  208.4850  155.1870 C   0  0  0  0  0  3  0  0  0  0  0  0
  160.0600  210.1280  156.2070 C   0  0  0  0  0  3  0  0  0  0  0  0
  1  4  1  6  0  0  0
  1 39  1  0  0  0  0
  3  2  1  0  0  0  0
  3  4  2  0  0  0  0
  5  7  1  0  0  0  0
  7  6  2  6  0  0  0
  7  8  1  0  0  0  0
  7  3  1  0  0  0  0
  8  9  1  0  0  0  0
 10  9  1  0  0  0  0
 11 10  1  6  0  0  0
 12 11  1  0  0  0  0
 13 11  1  0  0  0  0
 14 12  1  0  0  0  0
 16 14  1  0  0  0  0
 16 13  1  0  0  0  0
 17 15  2  0  0  0  0
 17 14  1  0  0  0  0
 18 21  1  6  0  0  0
 18 17  1  0  0  0  0
 19 20  1  0  0  0  0
 20 18  1  0  0  0  0
 23 22  1  0  0  0  0
 23 21  1  0  0  0  0
 24  1  1  0  0  0  0
 25 24  1  0  0  0  0
 26 25  1  6  0  0  0
 27 32  2  0  0  0  0
 30 27  1  0  0  0  0
 30 31  1  0  0  0  0
 31 26  1  1  0  0  0
 31 28  1  0  0  0  0
 32 28  1  0  0  0  0
 32 29  1  0  0  0  0
 33 26  1  0  0  0  0
 34 37  1  0  0  0  0
 35 33  2  0  0  0  0
 36 33  1  0  0  0  0
 37 36  2  0  0  0  0
 38 34  1  0  0  0  0
 38 35  1  0  0  0  0
 39 42  1  0  0  0  0
 41 40  1  0  0  0  0
 42 44  2  0  0  0  0
 42 45  1  0  0  0  0
 43 40  2  0  0  0  0
 44 43  1  0  0  0  0
 45 41  2  0  0  0  0
M  END
>  <MODEL>
5

>  <REMARK>
 VINA RESULT:      -6.1      4.505      9.366
  Name = 
  17 active torsions:
  status: ('A' for Active; 'I' for Inactive)
    1  A    between atoms: C_1  and  C_27
    2  A    between atoms: C_1  and  O_32
    3  A    between atoms: C_1  and  C_35
    4  A    between atoms: C_5  and  C_29
    5  A    between atoms: O_7  and  C_16
    6  A    between atoms: O_7  and  C_31
    7  A    between atoms: C_11  and  C_41
    8  A    between atoms: O_12  and  C_18
    9  A    between atoms: O_12  and  C_41
   10  A    between atoms: O_13  and  C_24
   11  A    between atoms: O_13  and  P_26
   12  A    between atoms: C_16  and  C_18
   13  A    between atoms: C_16  and  C_28
   14  A    between atoms: C_21  and  P_26
   15  A    between atoms: C_24  and  C_29
   16  A    between atoms: C_27  and  C_40
   17  A    between atoms: C_37  and  C_41
                            x       y       z     vdW  Elec       q    Type
                         _______ _______ _______ _____ _____    ______ ____

>  <TORSDO>
F 17

$$$$
=
 OpenBabel11072411593D

 45 48  0  0  1  0  0  0  0  0999 V2000
  162.2100  210.3220  150.8090 C   0  0  2  0  0  3  0  0  0  0  0  0
  160.5300  208.1690  151.7490 F   0  0  0  0  0  0  0  0  0  0  0  0
  161.3240  207.9740  150.6630 C   0  0  0  0  0  0  0  0  0  0  0  0
  162.1070  208.9520  150.1900 C   0  0  0  0  0  3  0  0  0  0  0  0
  162.5840  206.1010  149.1800 O   0  0  0  0  0  0  0  0  0  0  0  0
  160.8140  205.1980  150.8840 O   0  0  0  0  0  1  0  0  0  0  0  0
  161.2370  206.4180  149.7860 P   0  0  1  0  0  0  0  0  0  0  0  0
  160.0850  206.5790  148.5490 O   0  0  0  0  0  0  0  0  0  0  0  0
  160.5160  205.7660  147.4980 C   0  0  0  0  0  2  0  0  0  0  0  0
  160.5830  206.5780  146.2140 C   0  0  0  0  0  2  0  0  0  0  0  0
  161.2300  205.7880  145.0810 C   0  0  2  0  0  3  0  0  0  0  0  0
  160.3540  204.5890  144.7610 C   0  0  0  0  0  2  0  0  0  0  0  0
  162.5750  205.2120  145.5240 C   0  0  0  0  0  2  0  0  0  0  0  0
  161.0260  203.4450  145.3400 N   0  0  0  0  0  0  0  0  0  0  0  0
  159.3310  201.9210  144.8380 O   0  0  0  0  0  0  0  0  0  0  0  0
  162.3300  203.7600  145.8820 C   0  0  0  0  0  2  0  0  0  0  0  0
  160.4600  202.1290  145.3630 C   0  0  0  0  0  0  0  0  0  0  0  0
  161.1970  201.0000  146.0140 C   0  0  2  0  0  3  0  0  0  0  0  0
  161.5680  198.8160  146.0780 C   0  0  0  0  0  1  0  0  0  0  0  0
  161.0030  199.8200  145.2890 O   0  0  0  0  0  0  0  0  0  0  0  0
  160.7110  200.8240  147.4440 C   0  0  0  0  0  2  0  0  0  0  0  0
  160.4390  202.0530  149.5740 C   0  0  0  0  0  1  0  0  0  0  0  0
  161.2940  201.9060  148.3340 C   0  0  0  0  0  2  0  0  0  0  0  0
  162.1140  210.2790  152.3300 C   0  0  0  0  0  2  0  0  0  0  0  0
  160.8630  210.7470  152.7700 O   0  0  0  0  0  0  0  0  0  0  0  0
  160.9500  211.0810  154.1420 C   0  0  2  0  0  3  0  0  0  0  0  0
  160.6620  209.1930  157.0090 N   0  0  0  0  0  0  0  0  0  0  0  0
  160.9630  208.7620  154.8400 O   0  0  0  0  0  0  0  0  0  0  0  0
  159.6680  207.1100  156.2350 C   0  0  0  0  0  1  0  0  0  0  0  0
  161.4330  210.3140  156.4910 C   0  0  0  0  0  2  0  0  0  0  0  0
  161.6260  210.0030  155.0020 C   0  0  2  0  0  3  0  0  0  0  0  0
  160.4330  208.3690  156.0490 C   0  0  0  0  0  0  0  0  0  0  0  0
  159.6610  211.6150  154.7100 C   0  0  0  0  0  0  0  0  0  0  0  0
  157.3630  212.1700  156.2550 C   0  0  0  0  0  2  0  0  0  0  0  0
  158.5010  211.0710  154.3350 C   0  0  0  0  0  3  0  0  0  0  0  0
  159.6540  212.7120  155.7020 C   0  0  0  0  0  3  0  0  0  0  0  0
  158.5760  212.9850  156.3730 N   0  0  0  0  0  0  0  0  0  0  0  0
  157.2010  211.6390  154.8290 C   0  0  0  0  0  2  0  0  0  0  0  0
  161.2470  211.2200  150.2610 O   0  0  0  0  0  0  0  0  0  0  0  0
  162.0040  213.7680  147.0510 N   0  0  0  0  0  0  0  0  0  0  0  0
  160.8820  213.9400  147.7990 C   0  0  0  0  0  3  0  0  0  0  0  0
  161.5170  212.0620  149.1770 C   0  0  0  0  0  0  0  0  0  0  0  0
  162.8940  212.7770  147.3240 C   0  0  0  0  0  3  0  0  0  0  0  0
  162.6670  211.9070  148.3910 C   0  0  0  0  0  3  0  0  0  0  0  0
  160.6190  213.0890  148.8760 C   0  0  0  0  0  3  0  0  0  0  0  0
  1  4  1  6  0  0  0
  1 24  1  0  0  0  0
  3  2  1  0  0  0  0
  4  3  2  0  0  0  0
  7  5  2  6  0  0  0
  7  3  1  0  0  0  0
  7  6  1  0  0  0  0
  8  7  1  0  0  0  0
  9  8  1  0  0  0  0
 10  9  1  0  0  0  0
 11 13  1  0  0  0  0
 11 10  1  1  0  0  0
 12 11  1  0  0  0  0
 12 14  1  0  0  0  0
 13 16  1  0  0  0  0
 14 17  1  0  0  0  0
 14 16  1  0  0  0  0
 15 17  2  0  0  0  0
 17 18  1  0  0  0  0
 18 21  1  1  0  0  0
 20 18  1  0  0  0  0
 20 19  1  0  0  0  0
 21 23  1  0  0  0  0
 23 22  1  0  0  0  0
 24 25  1  0  0  0  0
 26 25  1  6  0  0  0
 26 33  1  0  0  0  0
 28 31  1  0  0  0  0
 28 32  1  0  0  0  0
 30 27  1  0  0  0  0
 31 26  1  6  0  0  0
 31 30  1  0  0  0  0
 32 29  1  0  0  0  0
 32 27  2  0  0  0  0
 33 36  1  0  0  0  0
 34 37  1  0  0  0  0
 35 33  2  0  0  0  0
 35 38  1  0  0  0  0
 36 37  2  0  0  0  0
 38 34  1  0  0  0  0
 39  1  1  0  0  0  0
 40 43  2  0  0  0  0
 40 41  1  0  0  0  0
 41 45  2  0  0  0  0
 42 39  1  0  0  0  0
 43 44  1  0  0  0  0
 44 42  2  0  0  0  0
 45 42  1  0  0  0  0
M  END
>  <MODEL>
6

>  <REMARK>
 VINA RESULT:      -5.8      4.546      8.285
  Name = 
  17 active torsions:
  status: ('A' for Active; 'I' for Inactive)
    1  A    between atoms: C_1  and  C_27
    2  A    between atoms: C_1  and  O_32
    3  A    between atoms: C_1  and  C_35
    4  A    between atoms: C_5  and  C_29
    5  A    between atoms: O_7  and  C_16
    6  A    between atoms: O_7  and  C_31
    7  A    between atoms: C_11  and  C_41
    8  A    between atoms: O_12  and  C_18
    9  A    between atoms: O_12  and  C_41
   10  A    between atoms: O_13  and  C_24
   11  A    between atoms: O_13  and  P_26
   12  A    between atoms: C_16  and  C_18
   13  A    between atoms: C_16  and  C_28
   14  A    between atoms: C_21  and  P_26
   15  A    between atoms: C_24  and  C_29
   16  A    between atoms: C_27  and  C_40
   17  A    between atoms: C_37  and  C_41
                            x       y       z     vdW  Elec       q    Type
                         _______ _______ _______ _____ _____    ______ ____

>  <TORSDO>
F 17

$$$$
=
 OpenBabel11072411593D

 45 48  0  0  1  0  0  0  0  0999 V2000
  161.1960  210.2350  151.9500 C   0  0  2  0  0  3  0  0  0  0  0  0
  160.6870  207.5480  152.8770 F   0  0  0  0  0  0  0  0  0  0  0  0
  161.2160  207.7420  151.6390 C   0  0  0  0  0  0  0  0  0  0  0  0
  161.4550  208.9720  151.1700 C   0  0  0  0  0  3  0  0  0  0  0  0
  162.6540  205.5180  151.1090 O   0  0  0  0  0  1  0  0  0  0  0  0
  160.0980  205.3710  150.5710 O   0  0  0  0  0  0  0  0  0  0  0  0
  161.4960  206.3290  150.5790 P   0  0  1  0  0  0  0  0  0  0  0  0
  161.8730  206.9060  149.0270 O   0  0  0  0  0  0  0  0  0  0  0  0
  161.3370  205.9860  148.1220 C   0  0  0  0  0  2  0  0  0  0  0  0
  161.1600  206.6460  146.7630 C   0  0  0  0  0  2  0  0  0  0  0  0
  161.8680  205.8630  145.6610 C   0  0  2  0  0  3  0  0  0  0  0  0
  160.8870  204.8700  145.0620 C   0  0  0  0  0  2  0  0  0  0  0  0
  163.0060  205.0240  146.2410 C   0  0  0  0  0  2  0  0  0  0  0  0
  161.2590  203.5780  145.5980 N   0  0  0  0  0  0  0  0  0  0  0  0
  159.4650  202.4250  144.6510 O   0  0  0  0  0  0  0  0  0  0  0  0
  162.4780  203.6100  146.3770 C   0  0  0  0  0  2  0  0  0  0  0  0
  160.5000  202.3840  145.3710 C   0  0  0  0  0  0  0  0  0  0  0  0
  160.9260  201.0890  145.9900 C   0  0  2  0  0  3  0  0  0  0  0  0
  161.2420  198.9210  145.6550 C   0  0  0  0  0  1  0  0  0  0  0  0
  160.5120  200.0180  145.1920 O   0  0  0  0  0  0  0  0  0  0  0  0
  160.3310  200.9650  147.3850 C   0  0  0  0  0  2  0  0  0  0  0  0
  160.4840  202.3450  149.4320 C   0  0  0  0  0  1  0  0  0  0  0  0
  161.2770  201.5530  148.4140 C   0  0  0  0  0  2  0  0  0  0  0  0
  161.4120  211.4890  151.1100 C   0  0  0  0  0  2  0  0  0  0  0  0
  160.1850  212.0850  150.7680 O   0  0  0  0  0  0  0  0  0  0  0  0
  160.4170  213.4200  150.3590 C   0  0  2  0  0  3  0  0  0  0  0  0
  157.3110  213.7240  151.8170 N   0  0  0  0  0  0  0  0  0  0  0  0
  159.3700  214.4440  152.2880 O   0  0  0  0  0  0  0  0  0  0  0  0
  157.8020  213.9290  154.1930 C   0  0  0  0  0  1  0  0  0  0  0  0
  157.9570  213.9300  150.5290 C   0  0  0  0  0  2  0  0  0  0  0  0
  159.3690  214.4180  150.8710 C   0  0  2  0  0  3  0  0  0  0  0  0
  158.1420  214.0260  152.7500 C   0  0  0  0  0  0  0  0  0  0  0  0
  160.7380  213.5490  148.8930 C   0  0  0  0  0  0  0  0  0  0  0  0
  161.4260  213.1320  146.1850 C   0  0  0  0  0  2  0  0  0  0  0  0
  161.9920  213.8030  148.5140 C   0  0  0  0  0  3  0  0  0  0  0  0
  159.6960  213.3680  147.8600 C   0  0  0  0  0  3  0  0  0  0  0  0
  160.0260  213.2220  146.6110 N   0  0  0  0  0  0  0  0  0  0  0  0
  162.3190  214.0120  147.0620 C   0  0  0  0  0  2  0  0  0  0  0  0
  161.9680  210.2830  153.1470 O   0  0  0  0  0  0  0  0  0  0  0  0
  160.2880  211.2230  156.8440 N   0  0  0  0  0  0  0  0  0  0  0  0
  159.5310  211.3050  155.7180 C   0  0  0  0  0  3  0  0  0  0  0  0
  161.4240  210.5980  154.3970 C   0  0  0  0  0  0  0  0  0  0  0  0
  161.5920  210.8400  156.7950 C   0  0  0  0  0  3  0  0  0  0  0  0
  162.1830  210.5210  155.5720 C   0  0  0  0  0  3  0  0  0  0  0  0
  160.0870  210.9930  154.4740 C   0  0  0  0  0  3  0  0  0  0  0  0
  1 24  1  6  0  0  0
  1 39  1  0  0  0  0
  3  2  1  0  0  0  0
  4  3  2  0  0  0  0
  4  1  1  0  0  0  0
  7  6  2  6  0  0  0
  7  5  1  0  0  0  0
  7  3  1  0  0  0  0
  8  7  1  0  0  0  0
  9  8  1  0  0  0  0
 10  9  1  0  0  0  0
 11 13  1  0  0  0  0
 11 10  1  1  0  0  0
 12 14  1  0  0  0  0
 12 11  1  0  0  0  0
 13 16  1  0  0  0  0
 14 16  1  0  0  0  0
 15 17  2  0  0  0  0
 17 14  1  0  0  0  0
 17 18  1  0  0  0  0
 18 21  1  1  0  0  0
 20 19  1  0  0  0  0
 20 18  1  0  0  0  0
 21 23  1  0  0  0  0
 23 22  1  0  0  0  0
 25 24  1  0  0  0  0
 26 25  1  6  0  0  0
 27 32  2  0  0  0  0
 28 32  1  0  0  0  0
 30 31  1  0  0  0  0
 30 27  1  0  0  0  0
 31 26  1  1  0  0  0
 31 28  1  0  0  0  0
 32 29  1  0  0  0  0
 33 26  1  0  0  0  0
 34 37  1  0  0  0  0
 34 38  1  0  0  0  0
 35 33  2  0  0  0  0
 36 33  1  0  0  0  0
 37 36  2  0  0  0  0
 38 35  1  0  0  0  0
 39 42  1  0  0  0  0
 41 40  2  0  0  0  0
 42 45  2  0  0  0  0
 42 44  1  0  0  0  0
 43 40  1  0  0  0  0
 44 43  2  0  0  0  0
 45 41  1  0  0  0  0
M  END
>  <MODEL>
7

>  <REMARK>
 VINA RESULT:      -5.7      4.391      9.203
  Name = 
  17 active torsions:
  status: ('A' for Active; 'I' for Inactive)
    1  A    between atoms: C_1  and  C_27
    2  A    between atoms: C_1  and  O_32
    3  A    between atoms: C_1  and  C_35
    4  A    between atoms: C_5  and  C_29
    5  A    between atoms: O_7  and  C_16
    6  A    between atoms: O_7  and  C_31
    7  A    between atoms: C_11  and  C_41
    8  A    between atoms: O_12  and  C_18
    9  A    between atoms: O_12  and  C_41
   10  A    between atoms: O_13  and  C_24
   11  A    between atoms: O_13  and  P_26
   12  A    between atoms: C_16  and  C_18
   13  A    between atoms: C_16  and  C_28
   14  A    between atoms: C_21  and  P_26
   15  A    between atoms: C_24  and  C_29
   16  A    between atoms: C_27  and  C_40
   17  A    between atoms: C_37  and  C_41
                            x       y       z     vdW  Elec       q    Type
                         _______ _______ _______ _____ _____    ______ ____

>  <TORSDO>
F 17

$$$$
=
 OpenBabel11072411593D

 45 48  0  0  1  0  0  0  0  0999 V2000
  160.1200  211.8360  152.7560 C   0  0  2  0  0  3  0  0  0  0  0  0
  162.4920  210.2590  153.2260 F   0  0  0  0  0  0  0  0  0  0  0  0
  161.5120  209.7720  152.4190 C   0  0  0  0  0  0  0  0  0  0  0  0
  160.3930  210.4680  152.1880 C   0  0  0  0  0  3  0  0  0  0  0  0
  162.2360  207.1980  152.7990 O   0  0  0  0  0  1  0  0  0  0  0  0
  160.1430  207.5740  151.2750 O   0  0  0  0  0  0  0  0  0  0  0  0
  161.6760  208.1230  151.7460 P   0  0  1  0  0  0  0  0  0  0  0  0
  162.7480  208.2000  150.4310 O   0  0  0  0  0  0  0  0  0  0  0  0
  161.9650  208.4100  149.2940 C   0  0  0  0  0  2  0  0  0  0  0  0
  162.6180  207.7470  148.0900 C   0  0  0  0  0  2  0  0  0  0  0  0
  161.6250  206.8900  147.3120 C   0  0  2  0  0  3  0  0  0  0  0  0
  160.6600  206.2500  148.2950 C   0  0  0  0  0  2  0  0  0  0  0  0
  162.3400  205.7310  146.6190 C   0  0  0  0  0  2  0  0  0  0  0  0
  161.0740  204.8680  148.4110 N   0  0  0  0  0  0  0  0  0  0  0  0
  159.5490  204.3230  150.0910 O   0  0  0  0  0  0  0  0  0  0  0  0
  162.1290  204.5070  147.4880 C   0  0  0  0  0  2  0  0  0  0  0  0
  160.4900  203.9470  149.3400 C   0  0  0  0  0  0  0  0  0  0  0  0
  160.9970  202.5410  149.4300 C   0  0  2  0  0  3  0  0  0  0  0  0
  160.9770  201.1440  147.7090 C   0  0  0  0  0  1  0  0  0  0  0  0
  160.1620  201.6830  148.7070 O   0  0  0  0  0  0  0  0  0  0  0  0
  161.0600  202.1080  150.8870 C   0  0  0  0  0  2  0  0  0  0  0  0
  160.9760  203.8170  152.6740 C   0  0  0  0  0  1  0  0  0  0  0  0
  161.8780  203.0980  151.6940 C   0  0  0  0  0  2  0  0  0  0  0  0
  159.8810  211.8020  154.2600 C   0  0  0  0  0  2  0  0  0  0  0  0
  158.5290  211.5440  154.5510 O   0  0  0  0  0  0  0  0  0  0  0  0
  158.4300  211.0110  155.8580 C   0  0  2  0  0  3  0  0  0  0  0  0
  157.1980  214.1870  156.3760 N   0  0  0  0  0  0  0  0  0  0  0  0
  156.6510  212.1340  157.0590 O   0  0  0  0  0  0  0  0  0  0  0  0
  154.8180  213.8340  156.7410 C   0  0  0  0  0  1  0  0  0  0  0  0
  158.4550  213.4560  156.4620 C   0  0  0  0  0  2  0  0  0  0  0  0
  158.0600  212.0500  156.9270 C   0  0  2  0  0  3  0  0  0  0  0  0
  156.2390  213.4030  156.7180 C   0  0  0  0  0  0  0  0  0  0  0  0
  159.5860  210.1200  156.2290 C   0  0  0  0  0  0  0  0  0  0  0  0
  162.0490  208.7490  156.4100 C   0  0  0  0  0  2  0  0  0  0  0  0
  159.6680  208.8960  155.7030 C   0  0  0  0  0  3  0  0  0  0  0  0
  160.6530  210.5830  157.1420 C   0  0  0  0  0  3  0  0  0  0  0  0
  161.7630  209.9170  157.2490 N   0  0  0  0  0  0  0  0  0  0  0  0
  160.7690  207.9620  156.1180 C   0  0  0  0  0  2  0  0  0  0  0  0
  159.0400  212.4800  152.0820 O   0  0  0  0  0  0  0  0  0  0  0  0
  159.4170  214.4520  148.4290 N   0  0  0  0  0  0  0  0  0  0  0  0
  158.2080  213.9600  148.8090 C   0  0  0  0  0  3  0  0  0  0  0  0
  159.1880  213.1410  150.8580 C   0  0  0  0  0  0  0  0  0  0  0  0
  160.5170  214.3150  149.2160 C   0  0  0  0  0  3  0  0  0  0  0  0
  160.4230  213.6570  150.4430 C   0  0  0  0  0  3  0  0  0  0  0  0
  158.0720  213.2960  150.0320 C   0  0  0  0  0  3  0  0  0  0  0  0
  1  4  1  6  0  0  0
  1 24  1  0  0  0  0
  3  2  1  0  0  0  0
  4  3  2  0  0  0  0
  7  6  2  6  0  0  0
  7  3  1  0  0  0  0
  7  5  1  0  0  0  0
  8  7  1  0  0  0  0
  9  8  1  0  0  0  0
 10  9  1  0  0  0  0
 11 10  1  1  0  0  0
 11 12  1  0  0  0  0
 12 14  1  0  0  0  0
 13 11  1  0  0  0  0
 13 16  1  0  0  0  0
 14 17  1  0  0  0  0
 16 14  1  0  0  0  0
 17 18  1  0  0  0  0
 17 15  2  0  0  0  0
 18 21  1  1  0  0  0
 19 20  1  0  0  0  0
 20 18  1  0  0  0  0
 21 23  1  0  0  0  0
 23 22  1  0  0  0  0
 24 25  1  0  0  0  0
 26 25  1  6  0  0  0
 26 33  1  0  0  0  0
 27 30  1  0  0  0  0
 27 32  2  0  0  0  0
 30 31  1  0  0  0  0
 31 26  1  6  0  0  0
 31 28  1  0  0  0  0
 32 29  1  0  0  0  0
 32 28  1  0  0  0  0
 33 36  1  0  0  0  0
 34 37  1  0  0  0  0
 35 38  1  0  0  0  0
 35 33  2  0  0  0  0
 36 37  2  0  0  0  0
 38 34  1  0  0  0  0
 39  1  1  0  0  0  0
 40 41  2  0  0  0  0
 40 43  1  0  0  0  0
 41 45  1  0  0  0  0
 42 39  1  0  0  0  0
 43 44  2  0  0  0  0
 44 42  1  0  0  0  0
 45 42  2  0  0  0  0
M  END
>  <MODEL>
8

>  <REMARK>
 VINA RESULT:      -5.5      5.256      9.023
  Name = 
  17 active torsions:
  status: ('A' for Active; 'I' for Inactive)
    1  A    between atoms: C_1  and  C_27
    2  A    between atoms: C_1  and  O_32
    3  A    between atoms: C_1  and  C_35
    4  A    between atoms: C_5  and  C_29
    5  A    between atoms: O_7  and  C_16
    6  A    between atoms: O_7  and  C_31
    7  A    between atoms: C_11  and  C_41
    8  A    between atoms: O_12  and  C_18
    9  A    between atoms: O_12  and  C_41
   10  A    between atoms: O_13  and  C_24
   11  A    between atoms: O_13  and  P_26
   12  A    between atoms: C_16  and  C_18
   13  A    between atoms: C_16  and  C_28
   14  A    between atoms: C_21  and  P_26
   15  A    between atoms: C_24  and  C_29
   16  A    between atoms: C_27  and  C_40
   17  A    between atoms: C_37  and  C_41
                            x       y       z     vdW  Elec       q    Type
                         _______ _______ _______ _____ _____    ______ ____

>  <TORSDO>
F 17

$$$$
=
 OpenBabel11072411593D

 45 48  0  0  1  0  0  0  0  0999 V2000
  160.9590  211.4060  152.1020 C   0  0  2  0  0  3  0  0  0  0  0  0
  161.8500  210.9320  154.8080 F   0  0  0  0  0  0  0  0  0  0  0  0
  161.3020  209.9120  154.0940 C   0  0  0  0  0  0  0  0  0  0  0  0
  160.8670  210.0970  152.8420 C   0  0  0  0  0  3  0  0  0  0  0  0
  161.2000  208.4770  156.3790 O   0  0  0  0  0  1  0  0  0  0  0  0
  159.5030  207.7690  154.5170 O   0  0  0  0  0  0  0  0  0  0  0  0
  161.0610  208.3260  154.8830 P   0  0  1  0  0  0  0  0  0  0  0  0
  162.2590  207.2680  154.3070 O   0  0  0  0  0  0  0  0  0  0  0  0
  161.5890  206.2270  153.6600 C   0  0  0  0  0  2  0  0  0  0  0  0
  162.0270  206.1610  152.2040 C   0  0  0  0  0  2  0  0  0  0  0  0
  160.8560  206.3840  151.2530 C   0  0  2  0  0  3  0  0  0  0  0  0
  160.5880  205.0930  150.4990 C   0  0  0  0  0  2  0  0  0  0  0  0
  161.2150  207.4200  150.1890 C   0  0  0  0  0  2  0  0  0  0  0  0
  161.1230  205.2970  149.1700 N   0  0  0  0  0  0  0  0  0  0  0  0
  160.7240  203.1170  148.4390 O   0  0  0  0  0  0  0  0  0  0  0  0
  161.5850  206.6480  148.9380 C   0  0  0  0  0  2  0  0  0  0  0  0
  161.1780  204.2640  148.1780 C   0  0  0  0  0  0  0  0  0  0  0  0
  161.7810  204.5380  146.8350 C   0  0  2  0  0  3  0  0  0  0  0  0
  163.6360  204.7070  145.6330 C   0  0  0  0  0  1  0  0  0  0  0  0
  163.1690  204.6640  146.9490 O   0  0  0  0  0  0  0  0  0  0  0  0
  161.1840  205.8100  146.2520 C   0  0  0  0  0  2  0  0  0  0  0  0
  160.4740  204.0110  144.7100 C   0  0  0  0  0  1  0  0  0  0  0  0
  160.3520  205.4860  145.0260 C   0  0  0  0  0  2  0  0  0  0  0  0
  160.0630  212.4790  152.7100 C   0  0  0  0  0  2  0  0  0  0  0  0
  158.7050  212.1800  152.5000 O   0  0  0  0  0  0  0  0  0  0  0  0
  157.9180  213.2660  152.9490 C   0  0  2  0  0  3  0  0  0  0  0  0
  157.3580  210.9630  155.4490 N   0  0  0  0  0  0  0  0  0  0  0  0
  158.3290  212.9680  155.3170 O   0  0  0  0  0  0  0  0  0  0  0  0
  159.2270  211.2940  156.9730 C   0  0  0  0  0  1  0  0  0  0  0  0
  156.6220  211.6860  154.4220 C   0  0  0  0  0  2  0  0  0  0  0  0
  157.3040  213.0560  154.3420 C   0  0  2  0  0  3  0  0  0  0  0  0
  158.2870  211.7240  155.9060 C   0  0  0  0  0  0  0  0  0  0  0  0
  156.9500  213.7720  151.9120 C   0  0  0  0  0  0  0  0  0  0  0  0
  154.9370  214.0850  149.9550 C   0  0  0  0  0  2  0  0  0  0  0  0
  157.3150  213.7960  150.6280 C   0  0  0  0  0  3  0  0  0  0  0  0
  155.5880  214.2150  152.2810 C   0  0  0  0  0  3  0  0  0  0  0  0
  154.6850  214.3990  151.3650 N   0  0  0  0  0  0  0  0  0  0  0  0
  156.3950  214.3680  149.5870 C   0  0  0  0  0  2  0  0  0  0  0  0
  160.6920  211.2450  150.7110 O   0  0  0  0  0  0  0  0  0  0  0  0
  162.3420  213.6650  147.7460 N   0  0  0  0  0  0  0  0  0  0  0  0
  162.7270  212.3650  147.8480 C   0  0  0  0  0  3  0  0  0  0  0  0
  161.2370  212.0740  149.7260 C   0  0  0  0  0  0  0  0  0  0  0  0
  161.4260  214.2020  148.5950 C   0  0  0  0  0  3  0  0  0  0  0  0
  160.8570  213.4170  149.5990 C   0  0  0  0  0  3  0  0  0  0  0  0
  162.1800  211.5460  148.8400 C   0  0  0  0  0  3  0  0  0  0  0  0
  1 24  1  1  0  0  0
  1  4  1  0  0  0  0
  3  2  1  0  0  0  0
  3  7  1  0  0  0  0
  4  3  2  0  0  0  0
  7  6  2  6  0  0  0
  7  5  1  0  0  0  0
  8  7  1  0  0  0  0
  9  8  1  0  0  0  0
 10  9  1  0  0  0  0
 11 10  1  1  0  0  0
 12 11  1  0  0  0  0
 13 11  1  0  0  0  0
 14 12  1  0  0  0  0
 16 14  1  0  0  0  0
 16 13  1  0  0  0  0
 17 15  2  0  0  0  0
 17 14  1  0  0  0  0
 18 21  1  1  0  0  0
 18 20  1  0  0  0  0
 18 17  1  0  0  0  0
 19 20  1  0  0  0  0
 22 23  1  0  0  0  0
 23 21  1  0  0  0  0
 25 24  1  0  0  0  0
 26 25  1  6  0  0  0
 27 32  2  0  0  0  0
 28 32  1  0  0  0  0
 30 27  1  0  0  0  0
 31 26  1  6  0  0  0
 31 30  1  0  0  0  0
 31 28  1  0  0  0  0
 32 29  1  0  0  0  0
 33 36  1  0  0  0  0
 33 26  1  0  0  0  0
 34 37  1  0  0  0  0
 35 33  2  0  0  0  0
 37 36  2  0  0  0  0
 38 34  1  0  0  0  0
 38 35  1  0  0  0  0
 39  1  1  0  0  0  0
 40 41  2  0  0  0  0
 40 43  1  0  0  0  0
 41 45  1  0  0  0  0
 42 39  1  0  0  0  0
 43 44  2  0  0  0  0
 44 42  1  0  0  0  0
 45 42  2  0  0  0  0
M  END
>  <MODEL>
9

>  <REMARK>
 VINA RESULT:      -5.2      4.779      8.798
  Name = 
  17 active torsions:
  status: ('A' for Active; 'I' for Inactive)
    1  A    between atoms: C_1  and  C_27
    2  A    between atoms: C_1  and  O_32
    3  A    between atoms: C_1  and  C_35
    4  A    between atoms: C_5  and  C_29
    5  A    between atoms: O_7  and  C_16
    6  A    between atoms: O_7  and  C_31
    7  A    between atoms: C_11  and  C_41
    8  A    between atoms: O_12  and  C_18
    9  A    between atoms: O_12  and  C_41
   10  A    between atoms: O_13  and  C_24
   11  A    between atoms: O_13  and  P_26
   12  A    between atoms: C_16  and  C_18
   13  A    between atoms: C_16  and  C_28
   14  A    between atoms: C_21  and  P_26
   15  A    between atoms: C_24  and  C_29
   16  A    between atoms: C_27  and  C_40
   17  A    between atoms: C_37  and  C_41
                            x       y       z     vdW  Elec       q    Type
                         _______ _______ _______ _____ _____    ______ ____

>  <TORSDO>
F 17

$$$$
