=
 OpenBabel11072411273D

 35 38  0  0  1  0  0  0  0  0999 V2000
  160.3780  211.4470  147.4990 O   0  0  0  0  0  0  0  0  0  0  0  0
  159.2890  211.3310  154.1510 C   0  0  2  0  0  3  0  0  0  0  0  0
  162.4180  205.7490  152.0250 C   0  0  0  0  0  2  0  0  0  0  0  0
  161.4690  208.8430  154.9280 F   0  0  0  0  0  0  0  0  0  0  0  0
  161.2320  212.1070  148.1530 C   0  0  0  0  0  0  0  0  0  0  0  0
  161.8080  205.7920  150.6280 C   0  0  2  0  0  3  0  0  0  0  0  0
  159.7860  213.7610  149.3380 C   0  0  0  0  0  0  0  0  0  0  0  0
  160.4250  212.3870  152.1880 C   0  0  0  0  0  2  0  0  0  0  0  0
  159.8380  211.1040  152.7560 C   0  0  1  0  0  3  0  0  0  0  0  0
  160.9070  210.0790  152.9760 C   0  0  1  0  0  3  0  0  0  0  0  0
  160.9990  213.5500  148.4700 C   0  0  2  0  0  3  0  0  0  0  0  0
  159.3580  213.2200  151.6610 N   0  0  0  0  0  2  0  0  0  0  0  0
  162.1540  207.8300  149.5450 C   0  0  0  0  0  2  0  0  0  0  0  0
  161.1640  207.7320  151.7460 C   0  0  2  0  0  3  0  0  0  0  0  0
  162.4310  211.4820  148.6170 N   0  0  0  0  0  2  0  0  0  0  0  0
  161.4850  209.8930  150.6540 N   0  0  0  0  0  0  0  0  0  0  0  0
  162.2950  207.1510  152.5600 C   0  0  0  0  0  2  0  0  0  0  0  0
  159.5240  208.3310  153.8930 F   0  0  0  0  0  0  0  0  0  0  0  0
  161.6780  209.2600  149.3680 C   0  0  1  0  0  3  0  0  0  0  0  0
  159.7170  210.2940  155.0080 O   0  0  0  0  0  0  0  0  0  0  0  0
  161.2200  207.1120  150.4130 N   0  0  2  0  0  0  0  0  0  0  0  0
  160.4010  209.3550  154.2140 C   0  0  0  0  0  0  0  0  0  0  0  0
  159.9670  214.1890  150.7610 C   0  0  0  0  0  2  0  0  0  0  0  0
  157.7740  211.3770  154.1120 C   0  0  0  0  0  1  0  0  0  0  0  0
  158.6620  213.5830  148.8950 O   0  0  0  0  0  0  0  0  0  0  0  0
  161.1710  209.2540  151.7310 C   0  0  0  0  0  0  0  0  0  0  0  0
  162.6780  210.0470  148.5270 C   0  0  0  0  0  2  0  0  0  0  0  0
  161.0790  214.4530  147.2300 C   0  0  0  0  0  3  0  0  0  0  0  0
  162.4350  214.4150  146.5450 C   0  0  0  0  0  1  0  0  0  0  0  0
  159.9840  214.1110  146.2370 C   0  0  0  0  0  1  0  0  0  0  0  0
  160.7350  204.7210  150.4870 C   0  0  0  0  0  2  0  0  0  0  0  0
  161.2010  204.1060  148.2500 C   0  0  0  0  0  1  0  0  0  0  0  0
  161.2070  203.6390  149.6310 N   0  0  0  0  0  0  0  0  0  0  0  0
  160.3190  202.4790  149.7640 C   0  0  0  0  0  2  0  0  0  0  0  0
  160.8540  201.2160  149.0880 C   0  0  0  0  0  1  0  0  0  0  0  0
  1  5  2  0  0  0  0
  2 24  1  6  0  0  0
  2 20  1  0  0  0  0
  3 17  1  0  0  0  0
  5 11  1  0  0  0  0
  5 15  1  0  0  0  0
  6 31  1  1  0  0  0
  6  3  1  0  0  0  0
  7 23  1  0  0  0  0
  9  8  1  1  0  0  0
  9 10  1  0  0  0  0
  9  2  1  0  0  0  0
 10 26  1  6  0  0  0
 10 22  1  0  0  0  0
 11 28  1  6  0  0  0
 11  7  1  0  0  0  0
 12  8  1  0  0  0  0
 14 17  1  1  0  0  0
 16 26  2  0  0  0  0
 18 22  1  0  0  0  0
 19 27  1  6  0  0  0
 19 13  1  0  0  0  0
 19 16  1  0  0  0  0
 21 13  1  6  0  0  0
 21  6  1  0  0  0  0
 21 14  1  0  0  0  0
 22  4  1  0  0  0  0
 22 20  1  0  0  0  0
 23 12  1  0  0  0  0
 25  7  2  0  0  0  0
 26 14  1  0  0  0  0
 27 15  1  0  0  0  0
 29 28  1  0  0  0  0
 30 28  1  0  0  0  0
 32 33  1  0  0  0  0
 33 34  1  0  0  0  0
 33 31  1  0  0  0  0
 35 34  1  0  0  0  0
M  END
>  <MODEL>
1

>  <REMARK>
 VINA RESULT:      -6.5      0.000      0.000
  Name = 
  4 active torsions:
  status: ('A' for Active; 'I' for Inactive)
    1  A    between atoms: C_4  and  N_20
    2  A    between atoms: C_7  and  C_14
    3  A    between atoms: C_8  and  C_26
    4  A    between atoms: N_20  and  C_26
                            x       y       z     vdW  Elec       q    Type
                         _______ _______ _______ _____ _____    ______ ____

>  <TORSDO>
F 4

$$$$
=
 OpenBabel11072411273D

 35 38  0  0  1  0  0  0  0  0999 V2000
  159.7730  204.1380  150.4020 O   0  0  0  0  0  0  0  0  0  0  0  0
  162.3090  210.1670  148.7710 C   0  0  2  0  0  3  0  0  0  0  0  0
  161.5190  209.4990  155.4340 C   0  0  0  0  0  2  0  0  0  0  0  0
  163.4490  211.0340  151.8530 F   0  0  0  0  0  0  0  0  0  0  0  0
  161.0160  204.1110  150.1870 C   0  0  0  0  0  0  0  0  0  0  0  0
  160.3480  208.5290  155.3220 C   0  0  2  0  0  3  0  0  0  0  0  0
  161.1360  204.9640  147.8430 C   0  0  0  0  0  0  0  0  0  0  0  0
  162.5740  207.6810  148.8280 C   0  0  0  0  0  2  0  0  0  0  0  0
  161.9290  208.8890  149.4910 C   0  0  1  0  0  3  0  0  0  0  0  0
  162.4800  209.0990  150.8670 C   0  0  1  0  0  3  0  0  0  0  0  0
  161.5450  203.8800  148.8060 C   0  0  2  0  0  3  0  0  0  0  0  0
  161.7960  207.2880  147.6660 N   0  0  0  0  0  2  0  0  0  0  0  0
  160.8270  206.6720  153.9930 C   0  0  0  0  0  2  0  0  0  0  0  0
  161.1590  208.9190  153.1720 C   0  0  2  0  0  3  0  0  0  0  0  0
  161.9420  204.3180  151.2550 N   0  0  0  0  0  2  0  0  0  0  0  0
  161.6610  207.0140  151.7290 N   0  0  0  0  0  0  0  0  0  0  0  0
  162.2290  209.4270  154.1080 C   0  0  0  0  0  2  0  0  0  0  0  0
  161.2250  211.0760  151.4400 F   0  0  0  0  0  0  0  0  0  0  0  0
  160.9090  206.1200  152.5820 C   0  0  1  0  0  3  0  0  0  0  0  0
  162.6870  211.1510  149.7110 O   0  0  0  0  0  0  0  0  0  0  0  0
  160.2820  208.0290  153.9500 N   0  0  2  0  0  0  0  0  0  0  0  0
  162.4520  210.6150  150.9910 C   0  0  0  0  0  0  0  0  0  0  0  0
  162.1680  205.9210  147.3330 C   0  0  0  0  0  2  0  0  0  0  0  0
  161.1390  210.6660  147.9450 C   0  0  0  0  0  1  0  0  0  0  0  0
  159.9750  205.0720  147.4780 O   0  0  0  0  0  0  0  0  0  0  0  0
  161.7310  208.2890  151.9100 C   0  0  0  0  0  0  0  0  0  0  0  0
  161.5440  204.7330  152.5970 C   0  0  0  0  0  2  0  0  0  0  0  0
  161.3100  202.4450  148.3110 C   0  0  0  0  0  3  0  0  0  0  0  0
  160.1260  201.7640  148.9780 C   0  0  0  0  0  1  0  0  0  0  0  0
  161.1470  202.4100  146.8020 C   0  0  0  0  0  1  0  0  0  0  0  0
  159.0450  209.2320  155.6760 C   0  0  0  0  0  2  0  0  0  0  0  0
  158.7000  211.1810  156.9730 C   0  0  0  0  0  1  0  0  0  0  0  0
  159.2420  210.6760  155.7180 N   0  0  0  0  0  0  0  0  0  0  0  0
  158.5440  211.3050  154.5910 C   0  0  0  0  0  2  0  0  0  0  0  0
  159.3980  212.3180  153.8280 C   0  0  0  0  0  1  0  0  0  0  0  0
  2 24  1  1  0  0  0
  2  9  1  0  0  0  0
  2 20  1  0  0  0  0
  5  1  2  0  0  0  0
  5 15  1  0  0  0  0
  6  3  1  0  0  0  0
  6 31  1  6  0  0  0
  7 11  1  0  0  0  0
  9  8  1  6  0  0  0
  9 10  1  0  0  0  0
 10 22  1  0  0  0  0
 10 26  1  1  0  0  0
 11 28  1  6  0  0  0
 11  5  1  0  0  0  0
 12  8  1  0  0  0  0
 14 21  1  0  0  0  0
 14 17  1  1  0  0  0
 15 27  1  0  0  0  0
 16 26  2  0  0  0  0
 16 19  1  0  0  0  0
 17  3  1  0  0  0  0
 19 27  1  1  0  0  0
 19 13  1  0  0  0  0
 20 22  1  0  0  0  0
 21 13  1  1  0  0  0
 21  6  1  0  0  0  0
 22 18  1  0  0  0  0
 22  4  1  0  0  0  0
 23 12  1  0  0  0  0
 23  7  1  0  0  0  0
 25  7  2  0  0  0  0
 26 14  1  0  0  0  0
 28 29  1  0  0  0  0
 30 28  1  0  0  0  0
 31 33  1  0  0  0  0
 33 32  1  0  0  0  0
 34 33  1  0  0  0  0
 35 34  1  0  0  0  0
M  END
>  <MODEL>
2

>  <REMARK>
 VINA RESULT:      -4.6      2.791      7.541
  Name = 
  4 active torsions:
  status: ('A' for Active; 'I' for Inactive)
    1  A    between atoms: C_4  and  N_20
    2  A    between atoms: C_7  and  C_14
    3  A    between atoms: C_8  and  C_26
    4  A    between atoms: N_20  and  C_26
                            x       y       z     vdW  Elec       q    Type
                         _______ _______ _______ _____ _____    ______ ____

>  <TORSDO>
F 4

$$$$
