=
 OpenBabel11072413453D

 44 46  0  0  1  0  0  0  0  0999 V2000
  162.0860  210.1820  153.5390 O   0  0  0  0  0  0  0  0  0  0  0  0
  160.9550  206.3980  150.8360 C   0  0  1  0  0  3  0  0  0  0  0  0
  160.7690  206.0830  149.3920 N   0  0  1  0  0  0  0  0  0  0  0  0
  161.3350  208.3730  149.5460 C   0  0  1  0  0  3  0  0  0  0  0  0
  162.3420  209.3110  149.2860 O   0  0  0  0  0  0  0  0  0  0  0  0
  161.9240  205.4760  151.5840 C   0  0  0  0  0  1  0  0  0  0  0  0
  161.4400  207.1650  148.6650 C   0  0  0  0  0  2  0  0  0  0  0  0
  162.1750  210.6890  151.2530 C   0  0  0  0  0  3  0  0  0  0  0  0
  161.7160  209.8860  152.2250 C   0  0  0  0  0  0  0  0  0  0  0  0
  161.8450  210.5250  149.7900 C   0  0  0  0  0  2  0  0  0  0  0  0
  161.5160  207.8000  150.9200 C   0  0  1  0  0  3  0  0  0  0  0  0
  160.8280  208.7040  151.9280 C   0  0  0  0  0  2  0  0  0  0  0  0
  161.2640  200.9530  147.3800 O   0  0  0  0  0  0  0  0  0  0  0  0
  161.7830  203.2650  147.0070 C   0  0  2  0  0  3  0  0  0  0  0  0
  161.1730  202.1380  147.8030 C   0  0  0  0  0  0  0  0  0  0  0  0
  160.5210  202.4140  149.1010 C   0  0  0  0  0  0  0  0  0  0  0  0
  159.8050  201.3370  149.8340 C   0  0  0  0  0  1  0  0  0  0  0  0
  160.5290  203.6490  149.6110 C   0  0  0  0  0  3  0  0  0  0  0  0
  161.2900  204.7750  148.9530 C   0  0  1  0  0  3  0  0  0  0  0  0
  161.1900  204.6100  147.4310 C   0  0  0  0  0  2  0  0  0  0  0  0
  160.9700  204.2520  145.2010 C   0  0  0  0  0  1  0  0  0  0  0  0
  161.5640  203.0700  145.6410 O   0  0  0  0  0  0  0  0  0  0  0  0
  161.5270  209.5360  154.6830 C   0  0  2  0  0  3  0  0  0  0  0  0
  160.6660  208.3640  154.2470 C   0  0  0  0  0  2  0  0  0  0  0  0
  161.1820  207.0830  154.8660 C   0  0  0  0  0  2  0  0  0  0  0  0
  161.1340  207.1920  156.3730 C   0  0  0  0  0  2  0  0  0  0  0  0
  159.7230  206.9520  156.8560 C   0  0  0  0  0  1  0  0  0  0  0  0
  160.7080  210.4840  155.5720 C   0  0  1  0  0  3  0  0  0  0  0  0
  162.6720  210.2350  156.5650 C   0  0  0  0  0  1  0  0  0  0  0  0
  161.5430  211.0510  156.5410 O   0  0  0  0  0  0  0  0  0  0  0  0
  159.9420  211.5820  154.8030 C   0  0  1  0  0  3  0  0  0  0  0  0
  158.4750  211.2800  154.6450 C   0  0  0  0  0  0  0  0  0  0  0  0
  157.7220  211.7520  153.5200 N   0  0  0  0  0  2  0  0  0  0  0  0
  157.9000  210.5830  155.5220 O   0  0  0  0  0  0  0  0  0  0  0  0
  157.5520  213.5290  151.8290 C   0  0  0  0  0  0  0  0  0  0  0  0
  156.3200  213.6660  152.0630 O   0  0  0  0  0  0  0  0  0  0  0  0
  158.3050  212.5380  152.5180 N   0  0  0  0  0  2  0  0  0  0  0  0
  158.2570  214.4510  150.8920 C   0  0  1  0  0  3  0  0  0  0  0  0
  159.7660  214.2960  151.0040 C   0  0  0  0  0  1  0  0  0  0  0  0
  157.7950  214.1890  149.4660 C   0  0  0  0  0  2  0  0  0  0  0  0
  158.3620  213.0860  147.4320 O   0  0  0  0  0  1  0  0  0  0  0  0
  158.8770  213.5050  148.6540 C   0  0  0  0  0  2  0  0  0  0  0  0
  160.1180  212.9410  155.4780 C   0  0  0  0  0  2  0  0  0  0  0  0
  158.9480  213.2340  156.3970 C   0  0  0  0  0  1  0  0  0  0  0  0
  1 23  1  0  0  0  0
  2 11  1  0  0  0  0
  2  6  1  6  0  0  0
  3  7  1  6  0  0  0
  3  2  1  0  0  0  0
  4  7  1  6  0  0  0
  4 11  1  0  0  0  0
  5  4  1  0  0  0  0
  5 10  1  0  0  0  0
  8  9  2  0  0  0  0
  9  1  1  0  0  0  0
 10  8  1  0  0  0  0
 11 12  1  1  0  0  0
 12  9  1  0  0  0  0
 13 15  2  0  0  0  0
 14 22  1  6  0  0  0
 14 20  1  0  0  0  0
 14 15  1  0  0  0  0
 15 16  1  0  0  0  0
 16 18  2  0  0  0  0
 16 17  1  0  0  0  0
 19 20  1  6  0  0  0
 19  3  1  0  0  0  0
 19 18  1  0  0  0  0
 21 22  1  0  0  0  0
 23 24  1  6  0  0  0
 23 28  1  0  0  0  0
 24 25  1  0  0  0  0
 25 26  1  0  0  0  0
 26 27  1  0  0  0  0
 28 30  1  1  0  0  0
 30 29  1  0  0  0  0
 31 43  1  1  0  0  0
 31 28  1  0  0  0  0
 32 31  1  0  0  0  0
 32 34  2  0  0  0  0
 33 32  1  0  0  0  0
 35 36  2  0  0  0  0
 35 37  1  0  0  0  0
 37 33  1  0  0  0  0
 38 39  1  6  0  0  0
 38 35  1  0  0  0  0
 40 38  1  0  0  0  0
 41 42  1  0  0  0  0
 42 40  1  0  0  0  0
 43 44  1  0  0  0  0
M  END
>  <MODEL>
1

>  <REMARK>
 VINA RESULT:      -6.6      0.000      0.000
  Name = 
  16 active torsions:
  status: ('A' for Active; 'I' for Inactive)
    1  A    between atoms: C_1  and  C_8
    2  A    between atoms: C_1  and  C_25
    3  A    between atoms: C_2  and  C_10
    4  A    between atoms: C_3  and  C_20
    5  A    between atoms: C_3  and  C_22
    6  A    between atoms: C_3  and  O_38
    7  A    between atoms: C_5  and  C_22
    8  A    between atoms: N_7  and  C_43
    9  A    between atoms: C_10  and  C_11
   10  A    between atoms: C_11  and  C_27
   11  A    between atoms: C_15  and  O_30
   12  A    between atoms: O_16  and  C_20
   13  A    between atoms: O_16  and  C_35
   14  A    between atoms: C_20  and  C_25
   15  A    between atoms: C_22  and  C_24
   16  A    between atoms: N_33  and  N_34
                            x       y       z     vdW  Elec       q    Type
                         _______ _______ _______ _____ _____    ______ ____

>  <TORSDO>
F 16

$$$$
=
 OpenBabel11072413453D

 44 46  0  0  1  0  0  0  0  0999 V2000
  160.8540  209.7170  153.5710 O   0  0  0  0  0  0  0  0  0  0  0  0
  161.6280  206.4370  150.1720 C   0  0  1  0  0  3  0  0  0  0  0  0
  161.7700  204.9570  150.0710 N   0  0  1  0  0  0  0  0  0  0  0  0
  161.4030  205.4760  152.3490 C   0  0  1  0  0  3  0  0  0  0  0  0
  160.4770  205.3880  153.3950 O   0  0  0  0  0  0  0  0  0  0  0  0
  160.5910  207.0580  149.2280 C   0  0  0  0  0  1  0  0  0  0  0  0
  161.1850  204.4230  151.3040 C   0  0  0  0  0  2  0  0  0  0  0  0
  160.7830  207.5390  154.4320 C   0  0  0  0  0  3  0  0  0  0  0  0
  161.1830  208.3650  153.4520 C   0  0  0  0  0  0  0  0  0  0  0  0
  161.0810  206.0610  154.4710 C   0  0  0  0  0  2  0  0  0  0  0  0
  161.1890  206.7490  151.5860 C   0  0  1  0  0  3  0  0  0  0  0  0
  161.9630  207.8680  152.2620 C   0  0  0  0  0  2  0  0  0  0  0  0
  160.8250  202.2480  145.3400 O   0  0  0  0  0  0  0  0  0  0  0  0
  160.5470  202.1930  147.7220 C   0  0  2  0  0  3  0  0  0  0  0  0
  161.0210  202.8320  146.4420 C   0  0  0  0  0  0  0  0  0  0  0  0
  161.6630  204.1640  146.4700 C   0  0  0  0  0  0  0  0  0  0  0  0
  162.2510  204.7490  145.2360 C   0  0  0  0  0  1  0  0  0  0  0  0
  161.7640  204.8400  147.6180 C   0  0  0  0  0  3  0  0  0  0  0  0
  161.1340  204.3360  148.8940 C   0  0  1  0  0  3  0  0  0  0  0  0
  161.2570  202.8060  148.9300 C   0  0  0  0  0  2  0  0  0  0  0  0
  161.7250  200.5930  148.6950 C   0  0  0  0  0  1  0  0  0  0  0  0
  160.7810  200.8160  147.6950 O   0  0  0  0  0  0  0  0  0  0  0  0
  159.6430  210.2830  153.0690 C   0  0  2  0  0  3  0  0  0  0  0  0
  159.9180  211.0440  151.7840 C   0  0  0  0  0  2  0  0  0  0  0  0
  161.4090  211.2160  151.5930 C   0  0  0  0  0  2  0  0  0  0  0  0
  161.8550  210.4580  150.3640 C   0  0  0  0  0  2  0  0  0  0  0  0
  162.0750  211.4230  149.2230 C   0  0  0  0  0  1  0  0  0  0  0  0
  158.9410  211.2000  154.0810 C   0  0  1  0  0  3  0  0  0  0  0  0
  158.8020  210.2160  156.0600 C   0  0  0  0  0  1  0  0  0  0  0  0
  159.5820  211.1040  155.3210 O   0  0  0  0  0  0  0  0  0  0  0  0
  158.8290  212.6750  153.6390 C   0  0  1  0  0  3  0  0  0  0  0  0
  157.4050  213.1360  153.4700 C   0  0  0  0  0  0  0  0  0  0  0  0
  156.9920  213.9220  152.3460 N   0  0  0  0  0  2  0  0  0  0  0  0
  156.5530  212.8100  154.3390 O   0  0  0  0  0  0  0  0  0  0  0  0
  157.7680  213.8620  150.0120 C   0  0  0  0  0  0  0  0  0  0  0  0
  156.8740  213.0230  149.7120 O   0  0  0  0  0  0  0  0  0  0  0  0
  157.8950  214.3230  151.3530 N   0  0  0  0  0  2  0  0  0  0  0  0
  158.6490  214.4470  148.9600 C   0  0  1  0  0  3  0  0  0  0  0  0
  160.1170  214.2730  149.3180 C   0  0  0  0  0  1  0  0  0  0  0  0
  158.3430  213.8030  147.6160 C   0  0  0  0  0  2  0  0  0  0  0  0
  159.5830  213.1470  145.6910 O   0  0  0  0  0  1  0  0  0  0  0  0
  159.5460  213.0550  147.0780 C   0  0  0  0  0  2  0  0  0  0  0  0
  159.5540  213.5930  154.6210 C   0  0  0  0  0  2  0  0  0  0  0  0
  158.5630  214.2740  155.5450 C   0  0  0  0  0  1  0  0  0  0  0  0
  2  6  1  6  0  0  0
  2 11  1  0  0  0  0
  3  2  1  0  0  0  0
  3  7  1  1  0  0  0
  4  7  1  6  0  0  0
  4  5  1  0  0  0  0
  5 10  1  0  0  0  0
  8 10  1  0  0  0  0
  9  1  1  0  0  0  0
  9  8  2  0  0  0  0
 11 12  1  1  0  0  0
 11  4  1  0  0  0  0
 12  9  1  0  0  0  0
 13 15  2  0  0  0  0
 14 22  1  6  0  0  0
 14 20  1  0  0  0  0
 15 16  1  0  0  0  0
 15 14  1  0  0  0  0
 16 18  2  0  0  0  0
 17 16  1  0  0  0  0
 19 18  1  6  0  0  0
 19 20  1  0  0  0  0
 19  3  1  0  0  0  0
 22 21  1  0  0  0  0
 23 24  1  6  0  0  0
 23  1  1  0  0  0  0
 23 28  1  0  0  0  0
 25 24  1  0  0  0  0
 26 25  1  0  0  0  0
 27 26  1  0  0  0  0
 28 30  1  1  0  0  0
 30 29  1  0  0  0  0
 31 28  1  0  0  0  0
 31 43  1  1  0  0  0
 32 31  1  0  0  0  0
 32 34  2  0  0  0  0
 33 32  1  0  0  0  0
 35 37  1  0  0  0  0
 36 35  2  0  0  0  0
 37 33  1  0  0  0  0
 38 39  1  1  0  0  0
 38 35  1  0  0  0  0
 40 38  1  0  0  0  0
 41 42  1  0  0  0  0
 42 40  1  0  0  0  0
 43 44  1  0  0  0  0
M  END
>  <MODEL>
2

>  <REMARK>
 VINA RESULT:      -6.3      1.710      3.474
  Name = 
  16 active torsions:
  status: ('A' for Active; 'I' for Inactive)
    1  A    between atoms: C_1  and  C_8
    2  A    between atoms: C_1  and  C_25
    3  A    between atoms: C_2  and  C_10
    4  A    between atoms: C_3  and  C_20
    5  A    between atoms: C_3  and  C_22
    6  A    between atoms: C_3  and  O_38
    7  A    between atoms: C_5  and  C_22
    8  A    between atoms: N_7  and  C_43
    9  A    between atoms: C_10  and  C_11
   10  A    between atoms: C_11  and  C_27
   11  A    between atoms: C_15  and  O_30
   12  A    between atoms: O_16  and  C_20
   13  A    between atoms: O_16  and  C_35
   14  A    between atoms: C_20  and  C_25
   15  A    between atoms: C_22  and  C_24
   16  A    between atoms: N_33  and  N_34
                            x       y       z     vdW  Elec       q    Type
                         _______ _______ _______ _____ _____    ______ ____

>  <TORSDO>
F 16

$$$$
=
 OpenBabel11072413453D

 44 46  0  0  1  0  0  0  0  0999 V2000
  160.4800  210.4350  153.2440 O   0  0  0  0  0  0  0  0  0  0  0  0
  161.4720  206.8730  150.2050 C   0  0  1  0  0  3  0  0  0  0  0  0
  161.7360  205.4070  150.2620 N   0  0  1  0  0  0  0  0  0  0  0  0
  161.3630  206.1430  152.4780 C   0  0  1  0  0  3  0  0  0  0  0  0
  160.4630  206.0970  153.5510 O   0  0  0  0  0  0  0  0  0  0  0  0
  160.3730  207.2990  149.2250 C   0  0  0  0  0  1  0  0  0  0  0  0
  161.2170  204.9670  151.5610 C   0  0  0  0  0  2  0  0  0  0  0  0
  160.6050  208.3670  154.3400 C   0  0  0  0  0  3  0  0  0  0  0  0
  160.9190  209.1090  153.2660 C   0  0  0  0  0  0  0  0  0  0  0  0
  161.0260  206.9310  154.5310 C   0  0  0  0  0  2  0  0  0  0  0  0
  161.0310  207.3030  151.5870 C   0  0  1  0  0  3  0  0  0  0  0  0
  161.7190  208.5480  152.1170 C   0  0  0  0  0  2  0  0  0  0  0  0
  160.8800  201.8090  146.1470 O   0  0  0  0  0  0  0  0  0  0  0  0
  160.3650  202.3380  148.4300 C   0  0  2  0  0  3  0  0  0  0  0  0
  161.0490  202.6050  147.1120 C   0  0  0  0  0  0  0  0  0  0  0  0
  161.8690  203.8220  146.9340 C   0  0  0  0  0  0  0  0  0  0  0  0
  162.6510  204.0340  145.6880 C   0  0  0  0  0  1  0  0  0  0  0  0
  161.9520  204.7290  147.9120 C   0  0  0  0  0  3  0  0  0  0  0  0
  161.1350  204.6100  149.1770 C   0  0  1  0  0  3  0  0  0  0  0  0
  161.0350  203.1260  149.5570 C   0  0  0  0  0  2  0  0  0  0  0  0
  161.3980  200.8470  149.6980 C   0  0  0  0  0  1  0  0  0  0  0  0
  160.4020  200.9740  148.7310 O   0  0  0  0  0  0  0  0  0  0  0  0
  160.0700  211.1510  154.4090 C   0  0  2  0  0  3  0  0  0  0  0  0
  160.2360  210.2770  155.6400 C   0  0  0  0  0  2  0  0  0  0  0  0
  160.6310  211.1260  156.8290 C   0  0  0  0  0  2  0  0  0  0  0  0
  162.1370  211.2210  156.9080 C   0  0  0  0  0  2  0  0  0  0  0  0
  162.7330  209.8330  156.9330 C   0  0  0  0  0  1  0  0  0  0  0  0
  158.6260  211.6660  154.3230 C   0  0  1  0  0  3  0  0  0  0  0  0
  156.6670  210.7690  154.8420 C   0  0  0  0  0  1  0  0  0  0  0  0
  157.8850  211.1590  155.3970 O   0  0  0  0  0  0  0  0  0  0  0  0
  158.4960  213.2020  154.2490 C   0  0  1  0  0  3  0  0  0  0  0  0
  157.3380  213.6580  153.4000 C   0  0  0  0  0  0  0  0  0  0  0  0
  157.4850  213.9200  151.9990 N   0  0  0  0  0  0  0  0  0  0  0  0
  156.2090  213.8010  153.9390 O   0  0  0  0  0  0  0  0  0  0  0  0
  158.7930  213.6920  149.9290 C   0  0  0  0  0  0  0  0  0  0  0  0
  157.7380  213.6540  149.2380 O   0  0  0  0  0  0  0  0  0  0  0  0
  158.7170  213.7870  151.3470 N   0  0  0  0  0  0  0  0  0  0  0  0
  160.1330  213.7200  149.2730 C   0  0  1  0  0  3  0  0  0  0  0  0
  161.0270  212.6110  149.8060 C   0  0  0  0  0  1  0  0  0  0  0  0
  159.9710  213.6030  147.7650 C   0  0  0  0  0  2  0  0  0  0  0  0
  160.9740  212.7850  145.7650 O   0  0  0  0  0  1  0  0  0  0  0  0
  161.1190  212.8300  147.1480 C   0  0  0  0  0  2  0  0  0  0  0  0
  158.3780  213.8050  155.6470 C   0  0  0  0  0  2  0  0  0  0  0  0
  159.6860  214.4530  156.0600 C   0  0  0  0  0  1  0  0  0  0  0  0
  1  9  1  0  0  0  0
  1 23  1  0  0  0  0
  2  6  1  6  0  0  0
  2  3  1  0  0  0  0
  2 11  1  0  0  0  0
  3  7  1  1  0  0  0
  4  7  1  6  0  0  0
  4  5  1  0  0  0  0
  5 10  1  0  0  0  0
  8 10  1  0  0  0  0
  9  8  2  0  0  0  0
 11 12  1  1  0  0  0
 11  4  1  0  0  0  0
 12  9  1  0  0  0  0
 13 15  2  0  0  0  0
 14 22  1  1  0  0  0
 14 20  1  0  0  0  0
 15 14  1  0  0  0  0
 16 15  1  0  0  0  0
 16 18  2  0  0  0  0
 17 16  1  0  0  0  0
 19 18  1  6  0  0  0
 19 20  1  0  0  0  0
 19  3  1  0  0  0  0
 22 21  1  0  0  0  0
 23 24  1  1  0  0  0
 24 25  1  0  0  0  0
 25 26  1  0  0  0  0
 26 27  1  0  0  0  0
 28 23  1  0  0  0  0
 28 30  1  1  0  0  0
 29 30  1  0  0  0  0
 31 28  1  0  0  0  0
 31 43  1  1  0  0  0
 32 34  2  0  0  0  0
 32 31  1  0  0  0  0
 33 32  1  0  0  0  0
 35 37  1  0  0  0  0
 36 35  2  0  0  0  0
 37 33  2  0  0  0  0
 38 39  1  1  0  0  0
 38 35  1  0  0  0  0
 40 38  1  0  0  0  0
 41 42  1  0  0  0  0
 42 40  1  0  0  0  0
 43 44  1  0  0  0  0
M  END
>  <MODEL>
3

>  <REMARK>
 VINA RESULT:      -6.1      1.629      3.263
  Name = 
  16 active torsions:
  status: ('A' for Active; 'I' for Inactive)
    1  A    between atoms: C_1  and  C_8
    2  A    between atoms: C_1  and  C_25
    3  A    between atoms: C_2  and  C_10
    4  A    between atoms: C_3  and  C_20
    5  A    between atoms: C_3  and  C_22
    6  A    between atoms: C_3  and  O_38
    7  A    between atoms: C_5  and  C_22
    8  A    between atoms: N_7  and  C_43
    9  A    between atoms: C_10  and  C_11
   10  A    between atoms: C_11  and  C_27
   11  A    between atoms: C_15  and  O_30
   12  A    between atoms: O_16  and  C_20
   13  A    between atoms: O_16  and  C_35
   14  A    between atoms: C_20  and  C_25
   15  A    between atoms: C_22  and  C_24
   16  A    between atoms: N_33  and  N_34
                            x       y       z     vdW  Elec       q    Type
                         _______ _______ _______ _____ _____    ______ ____

>  <TORSDO>
F 16

$$$$
=
 OpenBabel11072413453D

 44 46  0  0  1  0  0  0  0  0999 V2000
  160.2850  210.5520  152.1600 O   0  0  0  0  0  0  0  0  0  0  0  0
  161.3580  206.7120  149.5110 C   0  0  1  0  0  3  0  0  0  0  0  0
  161.7270  205.2850  149.7260 N   0  0  1  0  0  0  0  0  0  0  0  0
  161.4240  206.2630  151.8580 C   0  0  1  0  0  3  0  0  0  0  0  0
  160.5890  206.2920  152.9820 O   0  0  0  0  0  0  0  0  0  0  0  0
  160.1810  206.9450  148.5580 C   0  0  0  0  0  1  0  0  0  0  0  0
  161.3120  204.9760  151.0980 C   0  0  0  0  0  2  0  0  0  0  0  0
  160.6140  208.6460  153.4840 C   0  0  0  0  0  3  0  0  0  0  0  0
  160.8160  209.2690  152.3120 C   0  0  0  0  0  0  0  0  0  0  0  0
  161.1440  207.2750  153.8190 C   0  0  0  0  0  2  0  0  0  0  0  0
  160.9640  207.2810  150.8570 C   0  0  1  0  0  3  0  0  0  0  0  0
  161.5900  208.6230  151.1910 C   0  0  0  0  0  2  0  0  0  0  0  0
  160.9370  201.3930  145.8730 O   0  0  0  0  0  0  0  0  0  0  0  0
  160.7610  201.9050  148.2100 C   0  0  2  0  0  3  0  0  0  0  0  0
  161.1030  202.2520  146.7830 C   0  0  0  0  0  0  0  0  0  0  0  0
  161.5770  203.6110  146.4430 C   0  0  0  0  0  0  0  0  0  0  0  0
  162.0390  203.9300  145.0660 C   0  0  0  0  0  1  0  0  0  0  0  0
  161.6390  204.5590  147.3820 C   0  0  0  0  0  3  0  0  0  0  0  0
  161.1270  204.3240  148.7830 C   0  0  1  0  0  3  0  0  0  0  0  0
  161.4380  202.8740  149.1810 C   0  0  0  0  0  2  0  0  0  0  0  0
  160.7120  200.3690  149.8020 C   0  0  0  0  0  1  0  0  0  0  0  0
  161.1610  200.5990  148.5030 O   0  0  0  0  0  0  0  0  0  0  0  0
  160.2490  211.5220  153.2070 C   0  0  2  0  0  3  0  0  0  0  0  0
  159.9380  210.8460  154.5300 C   0  0  0  0  0  2  0  0  0  0  0  0
  160.8110  211.4210  155.6240 C   0  0  0  0  0  2  0  0  0  0  0  0
  162.1740  210.7670  155.5830 C   0  0  0  0  0  2  0  0  0  0  0  0
  162.3210  209.8260  156.7550 C   0  0  0  0  0  1  0  0  0  0  0  0
  159.2430  212.6530  152.9480 C   0  0  1  0  0  3  0  0  0  0  0  0
  158.2830  214.0880  154.3350 C   0  0  0  0  0  1  0  0  0  0  0  0
  159.5180  213.7280  153.8010 O   0  0  0  0  0  0  0  0  0  0  0  0
  159.1750  213.1260  151.4800 C   0  0  1  0  0  3  0  0  0  0  0  0
  157.7660  213.2550  150.9640 C   0  0  0  0  0  0  0  0  0  0  0  0
  157.4820  213.3950  149.5660 N   0  0  0  0  0  2  0  0  0  0  0  0
  156.8120  213.2260  151.7860 O   0  0  0  0  0  0  0  0  0  0  0  0
  158.2960  212.9420  147.2900 C   0  0  0  0  0  0  0  0  0  0  0  0
  157.2060  212.3810  146.9870 O   0  0  0  0  0  0  0  0  0  0  0  0
  158.5010  213.4420  148.6060 N   0  0  0  0  0  2  0  0  0  0  0  0
  159.3500  213.1660  146.2590 C   0  0  1  0  0  3  0  0  0  0  0  0
  160.7250  212.7980  146.7930 C   0  0  0  0  0  1  0  0  0  0  0  0
  159.0260  212.3630  145.0080 C   0  0  0  0  0  2  0  0  0  0  0  0
  160.0050  211.3900  143.0660 O   0  0  0  0  0  1  0  0  0  0  0  0
  160.1850  212.3740  144.0320 C   0  0  0  0  0  2  0  0  0  0  0  0
  159.9110  214.4530  151.3030 C   0  0  0  0  0  2  0  0  0  0  0  0
  160.9490  214.3440  150.2030 C   0  0  0  0  0  1  0  0  0  0  0  0
  1  9  1  0  0  0  0
  1 23  1  0  0  0  0
  2  6  1  6  0  0  0
  2  3  1  0  0  0  0
  2 11  1  0  0  0  0
  3  7  1  1  0  0  0
  4  7  1  6  0  0  0
  4  5  1  0  0  0  0
  5 10  1  0  0  0  0
  8 10  1  0  0  0  0
  9  8  2  0  0  0  0
 11 12  1  1  0  0  0
 11  4  1  0  0  0  0
 12  9  1  0  0  0  0
 13 15  2  0  0  0  0
 14 22  1  1  0  0  0
 14 20  1  0  0  0  0
 15 14  1  0  0  0  0
 16 15  1  0  0  0  0
 16 18  2  0  0  0  0
 17 16  1  0  0  0  0
 19 18  1  6  0  0  0
 19 20  1  0  0  0  0
 19  3  1  0  0  0  0
 22 21  1  0  0  0  0
 23 24  1  1  0  0  0
 24 25  1  0  0  0  0
 26 25  1  0  0  0  0
 26 27  1  0  0  0  0
 28 23  1  0  0  0  0
 28 30  1  1  0  0  0
 30 29  1  0  0  0  0
 31 43  1  1  0  0  0
 31 28  1  0  0  0  0
 32 31  1  0  0  0  0
 32 34  2  0  0  0  0
 33 32  1  0  0  0  0
 35 37  1  0  0  0  0
 36 35  2  0  0  0  0
 37 33  1  0  0  0  0
 38 39  1  1  0  0  0
 38 35  1  0  0  0  0
 40 38  1  0  0  0  0
 41 42  1  0  0  0  0
 42 40  1  0  0  0  0
 44 43  1  0  0  0  0
M  END
>  <MODEL>
4

>  <REMARK>
 VINA RESULT:      -5.7      2.056      3.941
  Name = 
  16 active torsions:
  status: ('A' for Active; 'I' for Inactive)
    1  A    between atoms: C_1  and  C_8
    2  A    between atoms: C_1  and  C_25
    3  A    between atoms: C_2  and  C_10
    4  A    between atoms: C_3  and  C_20
    5  A    between atoms: C_3  and  C_22
    6  A    between atoms: C_3  and  O_38
    7  A    between atoms: C_5  and  C_22
    8  A    between atoms: N_7  and  C_43
    9  A    between atoms: C_10  and  C_11
   10  A    between atoms: C_11  and  C_27
   11  A    between atoms: C_15  and  O_30
   12  A    between atoms: O_16  and  C_20
   13  A    between atoms: O_16  and  C_35
   14  A    between atoms: C_20  and  C_25
   15  A    between atoms: C_22  and  C_24
   16  A    between atoms: N_33  and  N_34
                            x       y       z     vdW  Elec       q    Type
                         _______ _______ _______ _____ _____    ______ ____

>  <TORSDO>
F 16

$$$$
=
 OpenBabel11072413453D

 44 46  0  0  1  0  0  0  0  0999 V2000
  161.4540  208.7140  153.4470 O   0  0  0  0  0  0  0  0  0  0  0  0
  161.7520  205.7940  149.6670 C   0  0  1  0  0  3  0  0  0  0  0  0
  161.7100  204.3300  149.3900 N   0  0  1  0  0  0  0  0  0  0  0  0
  161.4540  204.6140  151.7240 C   0  0  1  0  0  3  0  0  0  0  0  0
  160.5450  204.5130  152.7840 O   0  0  0  0  0  0  0  0  0  0  0  0
  160.7810  206.6420  148.8370 C   0  0  0  0  0  1  0  0  0  0  0  0
  161.0880  203.7260  150.5720 C   0  0  0  0  0  2  0  0  0  0  0  0
  161.1330  206.4730  154.0530 C   0  0  0  0  0  3  0  0  0  0  0  0
  161.6110  207.3560  153.1620 C   0  0  0  0  0  0  0  0  0  0  0  0
  161.2480  204.9750  153.9090 C   0  0  0  0  0  2  0  0  0  0  0  0
  161.3830  205.9860  151.1210 C   0  0  1  0  0  3  0  0  0  0  0  0
  162.3010  206.9150  151.8960 C   0  0  0  0  0  2  0  0  0  0  0  0
  160.3820  202.7260  144.2640 O   0  0  0  0  0  0  0  0  0  0  0  0
  160.4310  202.0760  146.5720 C   0  0  2  0  0  3  0  0  0  0  0  0
  160.6710  203.0520  145.4480 C   0  0  0  0  0  0  0  0  0  0  0  0
  161.1910  204.4050  145.7390 C   0  0  0  0  0  0  0  0  0  0  0  0
  161.5530  205.3320  144.6340 C   0  0  0  0  0  1  0  0  0  0  0  0
  161.3840  204.7970  147.0010 C   0  0  0  0  0  3  0  0  0  0  0  0
  160.9790  203.9340  148.1720 C   0  0  1  0  0  3  0  0  0  0  0  0
  161.2410  202.4660  147.8110 C   0  0  0  0  0  2  0  0  0  0  0  0
  161.3280  200.1950  147.3160 C   0  0  0  0  0  1  0  0  0  0  0  0
  160.7800  200.7820  146.1770 O   0  0  0  0  0  0  0  0  0  0  0  0
  160.1900  209.3790  153.4530 C   0  0  2  0  0  3  0  0  0  0  0  0
  160.1810  210.4860  152.4150 C   0  0  0  0  0  2  0  0  0  0  0  0
  161.5410  210.5940  151.7600 C   0  0  0  0  0  2  0  0  0  0  0  0
  161.3780  210.9990  150.3130 C   0  0  0  0  0  2  0  0  0  0  0  0
  162.1550  210.0530  149.4290 C   0  0  0  0  0  1  0  0  0  0  0  0
  159.8140  209.9480  154.8290 C   0  0  1  0  0  3  0  0  0  0  0  0
  159.8470  208.7900  156.7180 C   0  0  0  0  0  1  0  0  0  0  0  0
  160.6790  209.4300  155.8000 O   0  0  0  0  0  0  0  0  0  0  0  0
  159.7780  211.4890  154.8970 C   0  0  1  0  0  3  0  0  0  0  0  0
  158.4440  212.0320  155.3370 C   0  0  0  0  0  0  0  0  0  0  0  0
  157.6990  212.9530  154.5310 N   0  0  0  0  0  2  0  0  0  0  0  0
  157.9670  211.6530  156.4390 O   0  0  0  0  0  0  0  0  0  0  0  0
  157.2920  213.8110  152.2620 C   0  0  0  0  0  0  0  0  0  0  0  0
  156.0460  213.6810  152.4110 O   0  0  0  0  0  0  0  0  0  0  0  0
  158.1820  213.4170  153.3010 N   0  0  0  0  0  2  0  0  0  0  0  0
  157.8510  214.4530  151.0370 C   0  0  1  0  0  3  0  0  0  0  0  0
  159.1200  213.7500  150.5810 C   0  0  0  0  0  1  0  0  0  0  0  0
  156.8060  214.4480  149.9310 C   0  0  0  0  0  2  0  0  0  0  0  0
  157.1180  213.9140  147.6310 O   0  0  0  0  0  1  0  0  0  0  0  0
  157.0930  213.3660  148.9090 C   0  0  0  0  0  2  0  0  0  0  0  0
  160.8770  212.0170  155.8180 C   0  0  0  0  0  2  0  0  0  0  0  0
  160.2810  212.8550  156.9320 C   0  0  0  0  0  1  0  0  0  0  0  0
  1 23  1  0  0  0  0
  2  6  1  6  0  0  0
  2 11  1  0  0  0  0
  3  2  1  0  0  0  0
  3  7  1  1  0  0  0
  4  7  1  6  0  0  0
  4  5  1  0  0  0  0
  5 10  1  0  0  0  0
  9  1  1  0  0  0  0
  9  8  2  0  0  0  0
 10  8  1  0  0  0  0
 11  4  1  0  0  0  0
 11 12  1  1  0  0  0
 12  9  1  0  0  0  0
 13 15  2  0  0  0  0
 14 22  1  6  0  0  0
 14 20  1  0  0  0  0
 15 16  1  0  0  0  0
 15 14  1  0  0  0  0
 16 18  2  0  0  0  0
 17 16  1  0  0  0  0
 19 18  1  6  0  0  0
 19  3  1  0  0  0  0
 20 19  1  0  0  0  0
 22 21  1  0  0  0  0
 23 24  1  6  0  0  0
 23 28  1  0  0  0  0
 25 24  1  0  0  0  0
 26 25  1  0  0  0  0
 27 26  1  0  0  0  0
 28 31  1  0  0  0  0
 28 30  1  1  0  0  0
 30 29  1  0  0  0  0
 31 32  1  0  0  0  0
 31 43  1  1  0  0  0
 32 34  2  0  0  0  0
 33 32  1  0  0  0  0
 35 36  2  0  0  0  0
 35 37  1  0  0  0  0
 37 33  1  0  0  0  0
 38 39  1  6  0  0  0
 38 35  1  0  0  0  0
 40 38  1  0  0  0  0
 41 42  1  0  0  0  0
 42 40  1  0  0  0  0
 43 44  1  0  0  0  0
M  END
>  <MODEL>
5

>  <REMARK>
 VINA RESULT:      -5.6      1.565      3.374
  Name = 
  16 active torsions:
  status: ('A' for Active; 'I' for Inactive)
    1  A    between atoms: C_1  and  C_8
    2  A    between atoms: C_1  and  C_25
    3  A    between atoms: C_2  and  C_10
    4  A    between atoms: C_3  and  C_20
    5  A    between atoms: C_3  and  C_22
    6  A    between atoms: C_3  and  O_38
    7  A    between atoms: C_5  and  C_22
    8  A    between atoms: N_7  and  C_43
    9  A    between atoms: C_10  and  C_11
   10  A    between atoms: C_11  and  C_27
   11  A    between atoms: C_15  and  O_30
   12  A    between atoms: O_16  and  C_20
   13  A    between atoms: O_16  and  C_35
   14  A    between atoms: C_20  and  C_25
   15  A    between atoms: C_22  and  C_24
   16  A    between atoms: N_33  and  N_34
                            x       y       z     vdW  Elec       q    Type
                         _______ _______ _______ _____ _____    ______ ____

>  <TORSDO>
F 16

$$$$
=
 OpenBabel11072413453D

 44 46  0  0  1  0  0  0  0  0999 V2000
  162.1090  209.9410  153.0020 O   0  0  0  0  0  0  0  0  0  0  0  0
  160.9850  206.1070  150.3660 C   0  0  1  0  0  3  0  0  0  0  0  0
  160.8130  205.7630  148.9260 N   0  0  1  0  0  0  0  0  0  0  0  0
  161.3910  208.0530  149.0390 C   0  0  1  0  0  3  0  0  0  0  0  0
  162.4070  208.9790  148.7710 O   0  0  0  0  0  0  0  0  0  0  0  0
  161.9410  205.1960  151.1440 C   0  0  0  0  0  1  0  0  0  0  0  0
  161.4990  206.8260  148.1850 C   0  0  0  0  0  2  0  0  0  0  0  0
  162.2260  210.4000  150.7060 C   0  0  0  0  0  3  0  0  0  0  0  0
  161.7520  209.6190  151.6900 C   0  0  0  0  0  0  0  0  0  0  0  0
  161.9120  210.2060  149.2430 C   0  0  0  0  0  2  0  0  0  0  0  0
  161.5540  207.5080  150.4270 C   0  0  1  0  0  3  0  0  0  0  0  0
  160.8600  208.4360  151.4080 C   0  0  0  0  0  2  0  0  0  0  0  0
  161.2730  200.4760  147.3610 O   0  0  0  0  0  0  0  0  0  0  0  0
  161.5460  202.7570  146.6720 C   0  0  2  0  0  3  0  0  0  0  0  0
  161.1820  201.6940  147.6780 C   0  0  0  0  0  0  0  0  0  0  0  0
  160.7740  202.0760  149.0460 C   0  0  0  0  0  0  0  0  0  0  0  0
  160.2900  201.0500  150.0070 C   0  0  0  0  0  1  0  0  0  0  0  0
  160.7930  203.3580  149.4230 C   0  0  0  0  0  3  0  0  0  0  0  0
  161.3320  204.4430  148.5220 C   0  0  1  0  0  3  0  0  0  0  0  0
  160.9520  204.1090  147.0730 C   0  0  0  0  0  2  0  0  0  0  0  0
  160.6460  203.6010  144.8340 C   0  0  0  0  0  1  0  0  0  0  0  0
  161.0830  202.4050  145.4010 O   0  0  0  0  0  0  0  0  0  0  0  0
  161.1750  210.3750  153.9910 C   0  0  2  0  0  3  0  0  0  0  0  0
  160.8970  211.8580  153.8280 C   0  0  0  0  0  2  0  0  0  0  0  0
  159.6540  212.0640  152.9900 C   0  0  0  0  0  2  0  0  0  0  0  0
  159.7100  213.4190  152.3220 C   0  0  0  0  0  2  0  0  0  0  0  0
  159.7720  213.2440  150.8240 C   0  0  0  0  0  1  0  0  0  0  0  0
  161.6390  210.0840  155.4260 C   0  0  1  0  0  3  0  0  0  0  0  0
  163.3180  210.7550  156.7060 C   0  0  0  0  0  1  0  0  0  0  0  0
  162.2370  211.2290  155.9650 O   0  0  0  0  0  0  0  0  0  0  0  0
  160.5320  209.5550  156.3630 C   0  0  1  0  0  3  0  0  0  0  0  0
  159.3130  209.0690  155.6230 C   0  0  0  0  0  0  0  0  0  0  0  0
  158.0310  209.6870  155.7910 N   0  0  0  0  0  2  0  0  0  0  0  0
  159.4300  208.1010  154.8270 O   0  0  0  0  0  0  0  0  0  0  0  0
  157.5970  212.0760  156.1800 C   0  0  0  0  0  0  0  0  0  0  0  0
  157.6260  212.3080  154.9390 O   0  0  0  0  0  0  0  0  0  0  0  0
  157.8370  210.7610  156.6680 N   0  0  0  0  0  2  0  0  0  0  0  0
  157.2310  213.1510  157.1470 C   0  0  1  0  0  3  0  0  0  0  0  0
  158.0420  214.4130  156.8950 C   0  0  0  0  0  1  0  0  0  0  0  0
  155.7410  213.4420  157.0540 C   0  0  0  0  0  2  0  0  0  0  0  0
  154.1220  214.2600  155.5090 O   0  0  0  0  0  1  0  0  0  0  0  0
  155.4390  214.4130  155.9300 C   0  0  0  0  0  2  0  0  0  0  0  0
  161.0670  208.4410  157.2610 C   0  0  0  0  0  2  0  0  0  0  0  0
  160.2910  207.1570  157.0360 C   0  0  0  0  0  1  0  0  0  0  0  0
  1 23  1  0  0  0  0
  2 11  1  0  0  0  0
  2  6  1  6  0  0  0
  3  7  1  6  0  0  0
  3  2  1  0  0  0  0
  4  7  1  6  0  0  0
  4 11  1  0  0  0  0
  5  4  1  0  0  0  0
  5 10  1  0  0  0  0
  8  9  2  0  0  0  0
  9  1  1  0  0  0  0
 10  8  1  0  0  0  0
 11 12  1  1  0  0  0
 12  9  1  0  0  0  0
 13 15  2  0  0  0  0
 14 22  1  6  0  0  0
 14 20  1  0  0  0  0
 14 15  1  0  0  0  0
 15 16  1  0  0  0  0
 16 18  2  0  0  0  0
 16 17  1  0  0  0  0
 19 20  1  6  0  0  0
 19  3  1  0  0  0  0
 19 18  1  0  0  0  0
 21 22  1  0  0  0  0
 23 24  1  1  0  0  0
 23 28  1  0  0  0  0
 25 24  1  0  0  0  0
 26 25  1  0  0  0  0
 27 26  1  0  0  0  0
 28 30  1  1  0  0  0
 28 31  1  0  0  0  0
 30 29  1  0  0  0  0
 31 43  1  6  0  0  0
 32 33  1  0  0  0  0
 32 31  1  0  0  0  0
 33 37  1  0  0  0  0
 34 32  2  0  0  0  0
 35 37  1  0  0  0  0
 35 38  1  0  0  0  0
 36 35  2  0  0  0  0
 38 39  1  6  0  0  0
 40 38  1  0  0  0  0
 41 42  1  0  0  0  0
 42 40  1  0  0  0  0
 44 43  1  0  0  0  0
M  END
>  <MODEL>
6

>  <REMARK>
 VINA RESULT:      -5.3      1.758      3.781
  Name = 
  16 active torsions:
  status: ('A' for Active; 'I' for Inactive)
    1  A    between atoms: C_1  and  C_8
    2  A    between atoms: C_1  and  C_25
    3  A    between atoms: C_2  and  C_10
    4  A    between atoms: C_3  and  C_20
    5  A    between atoms: C_3  and  C_22
    6  A    between atoms: C_3  and  O_38
    7  A    between atoms: C_5  and  C_22
    8  A    between atoms: N_7  and  C_43
    9  A    between atoms: C_10  and  C_11
   10  A    between atoms: C_11  and  C_27
   11  A    between atoms: C_15  and  O_30
   12  A    between atoms: O_16  and  C_20
   13  A    between atoms: O_16  and  C_35
   14  A    between atoms: C_20  and  C_25
   15  A    between atoms: C_22  and  C_24
   16  A    between atoms: N_33  and  N_34
                            x       y       z     vdW  Elec       q    Type
                         _______ _______ _______ _____ _____    ______ ____

>  <TORSDO>
F 16

$$$$
=
 OpenBabel11072413453D

 44 46  0  0  1  0  0  0  0  0999 V2000
  162.0900  209.3160  154.1300 O   0  0  0  0  0  0  0  0  0  0  0  0
  160.9420  205.9080  150.9710 C   0  0  1  0  0  3  0  0  0  0  0  0
  160.7490  205.7800  149.4990 N   0  0  1  0  0  0  0  0  0  0  0  0
  161.3180  208.0320  149.9420 C   0  0  1  0  0  3  0  0  0  0  0  0
  162.3240  208.9950  149.7990 O   0  0  0  0  0  0  0  0  0  0  0  0
  161.9150  204.8980  151.5900 C   0  0  0  0  0  1  0  0  0  0  0  0
  161.4180  206.9460  148.9140 C   0  0  0  0  0  2  0  0  0  0  0  0
  162.1680  210.1110  151.9260 C   0  0  0  0  0  3  0  0  0  0  0  0
  161.7130  209.1900  152.7900 C   0  0  0  0  0  0  0  0  0  0  0  0
  161.8310  210.1350  150.4560 C   0  0  0  0  0  2  0  0  0  0  0  0
  161.5050  207.2880  151.2300 C   0  0  1  0  0  3  0  0  0  0  0  0
  160.8230  208.0560  152.3490 C   0  0  0  0  0  2  0  0  0  0  0  0
  161.2110  200.8760  146.9790 O   0  0  0  0  0  0  0  0  0  0  0  0
  161.6200  203.2310  146.7790 C   0  0  2  0  0  3  0  0  0  0  0  0
  161.1240  202.0140  147.5180 C   0  0  0  0  0  0  0  0  0  0  0  0
  160.5890  202.1460  148.8900 C   0  0  0  0  0  0  0  0  0  0  0  0
  159.9780  200.9790  149.5810 C   0  0  0  0  0  1  0  0  0  0  0  0
  160.6060  203.3290  149.5110 C   0  0  0  0  0  3  0  0  0  0  0  0
  161.2670  204.5390  148.8950 C   0  0  1  0  0  3  0  0  0  0  0  0
  161.0290  204.5080  147.3790 C   0  0  0  0  0  2  0  0  0  0  0  0
  160.8160  204.4250  145.0990 C   0  0  0  0  0  1  0  0  0  0  0  0
  161.2800  203.1520  145.4260 O   0  0  0  0  0  0  0  0  0  0  0  0
  161.1690  209.2590  155.2180 C   0  0  2  0  0  3  0  0  0  0  0  0
  159.7880  208.8850  154.7110 C   0  0  0  0  0  2  0  0  0  0  0  0
  158.9170  208.4310  155.8620 C   0  0  0  0  0  2  0  0  0  0  0  0
  159.2460  206.9980  156.2140 C   0  0  0  0  0  2  0  0  0  0  0  0
  160.6060  206.9340  156.8670 C   0  0  0  0  0  1  0  0  0  0  0  0
  161.0960  210.5690  156.0160 C   0  0  1  0  0  3  0  0  0  0  0  0
  163.1330  210.1170  156.7590 C   0  0  0  0  0  1  0  0  0  0  0  0
  162.3790  211.1130  156.1400 O   0  0  0  0  0  0  0  0  0  0  0  0
  160.1140  211.6140  155.4440 C   0  0  1  0  0  3  0  0  0  0  0  0
  160.0050  212.8530  156.2950 C   0  0  0  0  0  0  0  0  0  0  0  0
  158.8500  213.6990  156.2530 N   0  0  0  0  0  2  0  0  0  0  0  0
  160.9530  213.1420  157.0720 O   0  0  0  0  0  0  0  0  0  0  0  0
  156.5340  212.9440  155.9120 C   0  0  0  0  0  0  0  0  0  0  0  0
  156.4180  212.6720  157.1400 O   0  0  0  0  0  0  0  0  0  0  0  0
  157.7690  213.4340  155.4030 N   0  0  0  0  0  2  0  0  0  0  0  0
  155.3640  212.8370  154.9930 C   0  0  1  0  0  3  0  0  0  0  0  0
  155.3970  213.9290  153.9360 C   0  0  0  0  0  1  0  0  0  0  0  0
  155.3440  211.4610  154.3450 C   0  0  0  0  0  2  0  0  0  0  0  0
  154.4870  209.6810  155.6760 O   0  0  0  0  0  1  0  0  0  0  0  0
  155.6500  210.3730  155.3540 C   0  0  0  0  0  2  0  0  0  0  0  0
  160.5050  212.0020  154.0190 C   0  0  0  0  0  2  0  0  0  0  0  0
  159.2770  212.0770  153.1320 C   0  0  0  0  0  1  0  0  0  0  0  0
  1 23  1  0  0  0  0
  2 11  1  0  0  0  0
  2  6  1  6  0  0  0
  3  7  1  6  0  0  0
  3  2  1  0  0  0  0
  4  7  1  6  0  0  0
  4 11  1  0  0  0  0
  5  4  1  0  0  0  0
  5 10  1  0  0  0  0
  8  9  2  0  0  0  0
  9  1  1  0  0  0  0
 10  8  1  0  0  0  0
 11 12  1  1  0  0  0
 12  9  1  0  0  0  0
 13 15  2  0  0  0  0
 14 22  1  6  0  0  0
 14 20  1  0  0  0  0
 14 15  1  0  0  0  0
 15 16  1  0  0  0  0
 16 18  2  0  0  0  0
 16 17  1  0  0  0  0
 19 20  1  6  0  0  0
 19  3  1  0  0  0  0
 19 18  1  0  0  0  0
 21 22  1  0  0  0  0
 23 24  1  6  0  0  0
 23 28  1  0  0  0  0
 24 25  1  0  0  0  0
 25 26  1  0  0  0  0
 26 27  1  0  0  0  0
 28 30  1  6  0  0  0
 30 29  1  0  0  0  0
 31 43  1  6  0  0  0
 31 28  1  0  0  0  0
 31 32  1  0  0  0  0
 32 34  2  0  0  0  0
 33 32  1  0  0  0  0
 35 36  2  0  0  0  0
 37 35  1  0  0  0  0
 37 33  1  0  0  0  0
 38 39  1  6  0  0  0
 38 35  1  0  0  0  0
 40 38  1  0  0  0  0
 40 42  1  0  0  0  0
 42 41  1  0  0  0  0
 44 43  1  0  0  0  0
M  END
>  <MODEL>
7

>  <REMARK>
 VINA RESULT:      -5.1      2.030      2.951
  Name = 
  16 active torsions:
  status: ('A' for Active; 'I' for Inactive)
    1  A    between atoms: C_1  and  C_8
    2  A    between atoms: C_1  and  C_25
    3  A    between atoms: C_2  and  C_10
    4  A    between atoms: C_3  and  C_20
    5  A    between atoms: C_3  and  C_22
    6  A    between atoms: C_3  and  O_38
    7  A    between atoms: C_5  and  C_22
    8  A    between atoms: N_7  and  C_43
    9  A    between atoms: C_10  and  C_11
   10  A    between atoms: C_11  and  C_27
   11  A    between atoms: C_15  and  O_30
   12  A    between atoms: O_16  and  C_20
   13  A    between atoms: O_16  and  C_35
   14  A    between atoms: C_20  and  C_25
   15  A    between atoms: C_22  and  C_24
   16  A    between atoms: N_33  and  N_34
                            x       y       z     vdW  Elec       q    Type
                         _______ _______ _______ _____ _____    ______ ____

>  <TORSDO>
F 16

$$$$
=
 OpenBabel11072413453D

 44 46  0  0  1  0  0  0  0  0999 V2000
  162.2660  208.6000  151.7500 O   0  0  0  0  0  0  0  0  0  0  0  0
  159.8460  212.5510  152.9490 C   0  0  1  0  0  3  0  0  0  0  0  0
  159.4740  213.8540  152.3300 N   0  0  1  0  0  0  0  0  0  0  0  0
  160.7350  212.6500  150.7330 C   0  0  1  0  0  3  0  0  0  0  0  0
  160.6610  211.9660  149.5130 O   0  0  0  0  0  0  0  0  0  0  0  0
  158.6780  211.7510  153.5360 C   0  0  0  0  0  1  0  0  0  0  0  0
  159.6410  213.6630  150.8860 C   0  0  0  0  0  2  0  0  0  0  0  0
  162.1260  210.1090  149.9620 C   0  0  0  0  0  3  0  0  0  0  0  0
  162.0570  209.9010  151.2870 C   0  0  0  0  0  0  0  0  0  0  0  0
  161.9540  211.4560  149.3050 C   0  0  0  0  0  2  0  0  0  0  0  0
  160.4700  211.7010  151.8640 C   0  0  1  0  0  3  0  0  0  0  0  0
  161.7700  211.0210  152.2550 C   0  0  0  0  0  2  0  0  0  0  0  0
  153.9910  214.2510  152.9590 O   0  0  0  0  0  0  0  0  0  0  0  0
  156.0930  214.1150  154.1070 C   0  0  2  0  0  3  0  0  0  0  0  0
  155.2460  214.1600  152.8600 C   0  0  0  0  0  0  0  0  0  0  0  0
  155.8860  214.1540  151.5270 C   0  0  0  0  0  0  0  0  0  0  0  0
  155.0630  214.0690  150.2920 C   0  0  0  0  0  1  0  0  0  0  0  0
  157.2170  214.1810  151.4180 C   0  0  0  0  0  3  0  0  0  0  0  0
  158.1100  214.3330  152.6260 C   0  0  1  0  0  3  0  0  0  0  0  0
  157.4850  213.5620  153.7970 C   0  0  0  0  0  2  0  0  0  0  0  0
  156.5220  212.9260  155.9230 C   0  0  0  0  0  1  0  0  0  0  0  0
  155.4840  213.3210  155.0810 O   0  0  0  0  0  0  0  0  0  0  0  0
  161.3560  207.5240  151.5210 C   0  0  2  0  0  3  0  0  0  0  0  0
  160.4490  207.3460  152.7250 C   0  0  0  0  0  2  0  0  0  0  0  0
  161.0150  208.0900  153.9150 C   0  0  0  0  0  2  0  0  0  0  0  0
  160.9130  207.2260  155.1510 C   0  0  0  0  0  2  0  0  0  0  0  0
  159.8770  207.7990  156.0880 C   0  0  0  0  0  1  0  0  0  0  0  0
  162.0590  206.1980  151.1950 C   0  0  1  0  0  3  0  0  0  0  0  0
  163.4750  205.4560  152.7290 C   0  0  0  0  0  1  0  0  0  0  0  0
  162.1340  205.4120  152.3500 O   0  0  0  0  0  0  0  0  0  0  0  0
  161.4220  205.4020  150.0360 C   0  0  1  0  0  3  0  0  0  0  0  0
  160.8450  204.0810  150.4710 C   0  0  0  0  0  0  0  0  0  0  0  0
  160.7660  202.9600  149.5820 N   0  0  0  0  0  0  0  0  0  0  0  0
  160.4320  203.9580  151.6550 O   0  0  0  0  0  0  0  0  0  0  0  0
  160.8460  202.0410  147.3020 C   0  0  0  0  0  0  0  0  0  0  0  0
  160.1880  201.0270  147.6630 O   0  0  0  0  0  0  0  0  0  0  0  0
  161.2010  203.0390  148.2530 N   0  0  0  0  0  0  0  0  0  0  0  0
  161.1920  202.2550  145.8670 C   0  0  1  0  0  3  0  0  0  0  0  0
  160.0380  201.8550  144.9610 C   0  0  0  0  0  1  0  0  0  0  0  0
  161.5730  203.7110  145.6410 C   0  0  0  0  0  2  0  0  0  0  0  0
  161.2520  205.5890  144.2110 O   0  0  0  0  0  1  0  0  0  0  0  0
  160.7660  204.3210  144.5120 C   0  0  0  0  0  2  0  0  0  0  0  0
  160.3440  206.2300  149.3380 C   0  0  0  0  0  2  0  0  0  0  0  0
  160.8580  206.7690  148.0170 C   0  0  0  0  0  1  0  0  0  0  0  0
  2  6  1  6  0  0  0
  3  7  1  6  0  0  0
  3 19  1  0  0  0  0
  3  2  1  0  0  0  0
  4  7  1  6  0  0  0
  4 11  1  0  0  0  0
  5  4  1  0  0  0  0
  8  9  2  0  0  0  0
  9  1  1  0  0  0  0
  9 12  1  0  0  0  0
 10  5  1  0  0  0  0
 10  8  1  0  0  0  0
 11 12  1  1  0  0  0
 11  2  1  0  0  0  0
 14 22  1  1  0  0  0
 15 13  2  0  0  0  0
 15 14  1  0  0  0  0
 16 15  1  0  0  0  0
 17 16  1  0  0  0  0
 18 16  2  0  0  0  0
 19 18  1  6  0  0  0
 19 20  1  0  0  0  0
 20 14  1  0  0  0  0
 22 21  1  0  0  0  0
 23  1  1  0  0  0  0
 23 24  1  1  0  0  0
 24 25  1  0  0  0  0
 25 26  1  0  0  0  0
 26 27  1  0  0  0  0
 28 23  1  0  0  0  0
 28 30  1  1  0  0  0
 30 29  1  0  0  0  0
 31 43  1  1  0  0  0
 31 32  1  0  0  0  0
 31 28  1  0  0  0  0
 32 34  2  0  0  0  0
 33 32  1  0  0  0  0
 35 36  2  0  0  0  0
 35 37  1  0  0  0  0
 37 33  2  0  0  0  0
 38 39  1  6  0  0  0
 38 35  1  0  0  0  0
 40 38  1  0  0  0  0
 41 42  1  0  0  0  0
 42 40  1  0  0  0  0
 44 43  1  0  0  0  0
M  END
>  <MODEL>
8

>  <REMARK>
 VINA RESULT:      -4.9      2.132      9.456
  Name = 
  16 active torsions:
  status: ('A' for Active; 'I' for Inactive)
    1  A    between atoms: C_1  and  C_8
    2  A    between atoms: C_1  and  C_25
    3  A    between atoms: C_2  and  C_10
    4  A    between atoms: C_3  and  C_20
    5  A    between atoms: C_3  and  C_22
    6  A    between atoms: C_3  and  O_38
    7  A    between atoms: C_5  and  C_22
    8  A    between atoms: N_7  and  C_43
    9  A    between atoms: C_10  and  C_11
   10  A    between atoms: C_11  and  C_27
   11  A    between atoms: C_15  and  O_30
   12  A    between atoms: O_16  and  C_20
   13  A    between atoms: O_16  and  C_35
   14  A    between atoms: C_20  and  C_25
   15  A    between atoms: C_22  and  C_24
   16  A    between atoms: N_33  and  N_34
                            x       y       z     vdW  Elec       q    Type
                         _______ _______ _______ _____ _____    ______ ____

>  <TORSDO>
F 16

$$$$
=
 OpenBabel11072413453D

 44 46  0  0  1  0  0  0  0  0999 V2000
  161.4490  209.6920  148.4670 O   0  0  0  0  0  0  0  0  0  0  0  0
  159.8750  212.8760  145.2580 C   0  0  1  0  0  3  0  0  0  0  0  0
  160.2400  214.2380  144.7770 N   0  0  1  0  0  0  0  0  0  0  0  0
  161.7900  213.6470  146.4620 C   0  0  1  0  0  3  0  0  0  0  0  0
  163.1240  213.2960  146.7010 O   0  0  0  0  0  0  0  0  0  0  0  0
  159.7300  211.8140  144.1610 C   0  0  0  0  0  1  0  0  0  0  0  0
  161.6270  214.4450  145.2030 C   0  0  0  0  0  2  0  0  0  0  0  0
  162.8340  211.5800  148.3640 C   0  0  0  0  0  3  0  0  0  0  0  0
  161.6320  211.0320  148.1200 C   0  0  0  0  0  0  0  0  0  0  0  0
  163.1850  213.0180  148.0770 C   0  0  0  0  0  2  0  0  0  0  0  0
  160.9820  212.4160  146.1820 C   0  0  1  0  0  3  0  0  0  0  0  0
  160.5090  211.8230  147.4980 C   0  0  0  0  0  2  0  0  0  0  0  0
  160.0000  213.5390  139.2930 O   0  0  0  0  0  0  0  0  0  0  0  0
  158.7340  214.0680  141.2610 C   0  0  2  0  0  3  0  0  0  0  0  0
  160.0110  213.7070  140.5440 C   0  0  0  0  0  0  0  0  0  0  0  0
  161.2800  213.6050  141.2950 C   0  0  0  0  0  0  0  0  0  0  0  0
  162.5200  213.1260  140.6270 C   0  0  0  0  0  1  0  0  0  0  0  0
  161.3200  213.9000  142.5970 C   0  0  0  0  0  3  0  0  0  0  0  0
  160.1170  214.4530  143.3230 C   0  0  1  0  0  3  0  0  0  0  0  0
  158.8550  213.7850  142.7590 C   0  0  0  0  0  2  0  0  0  0  0  0
  156.9260  214.2760  140.0020 C   0  0  0  0  0  1  0  0  0  0  0  0
  157.6600  213.3460  140.7370 O   0  0  0  0  0  0  0  0  0  0  0  0
  162.4660  208.8810  149.0550 C   0  0  2  0  0  3  0  0  0  0  0  0
  162.7050  207.6470  148.2030 C   0  0  0  0  0  2  0  0  0  0  0  0
  161.5870  207.4900  147.1940 C   0  0  0  0  0  2  0  0  0  0  0  0
  161.6690  206.1230  146.5550 C   0  0  0  0  0  2  0  0  0  0  0  0
  160.7970  206.0850  145.3220 C   0  0  0  0  0  1  0  0  0  0  0  0
  162.1470  208.4660  150.4990 C   0  0  1  0  0  3  0  0  0  0  0  0
  161.9210  210.1160  151.9600 C   0  0  0  0  0  1  0  0  0  0  0  0
  161.2070  209.3490  151.0410 O   0  0  0  0  0  0  0  0  0  0  0  0
  161.6770  207.0050  150.6570 C   0  0  1  0  0  3  0  0  0  0  0  0
  162.1080  206.3810  151.9590 C   0  0  0  0  0  0  0  0  0  0  0  0
  162.2950  204.9670  152.0950 N   0  0  0  0  0  2  0  0  0  0  0  0
  162.3210  207.1280  152.9500 O   0  0  0  0  0  0  0  0  0  0  0  0
  160.8090  203.4380  150.8680 C   0  0  0  0  0  0  0  0  0  0  0  0
  159.8980  203.5970  151.7280 O   0  0  0  0  0  0  0  0  0  0  0  0
  162.0660  204.0850  151.0310 N   0  0  0  0  0  2  0  0  0  0  0  0
  160.5600  202.6430  149.6310 C   0  0  1  0  0  3  0  0  0  0  0  0
  161.1230  203.3450  148.4060 C   0  0  0  0  0  1  0  0  0  0  0  0
  161.1650  201.2550  149.7820 C   0  0  0  0  0  2  0  0  0  0  0  0
  161.1810  200.1330  147.6800 O   0  0  0  0  0  1  0  0  0  0  0  0
  161.9700  200.8710  148.5560 C   0  0  0  0  0  2  0  0  0  0  0  0
  160.1600  206.9050  150.5160 C   0  0  0  0  0  2  0  0  0  0  0  0
  159.7900  206.0930  149.2890 C   0  0  0  0  0  1  0  0  0  0  0  0
  1 23  1  0  0  0  0
  2  6  1  6  0  0  0
  2 11  1  0  0  0  0
  3  7  1  6  0  0  0
  3  2  1  0  0  0  0
  4  7  1  6  0  0  0
  4  5  1  0  0  0  0
  5 10  1  0  0  0  0
  9  8  2  0  0  0  0
  9  1  1  0  0  0  0
 10  8  1  0  0  0  0
 11  4  1  0  0  0  0
 11 12  1  1  0  0  0
 12  9  1  0  0  0  0
 13 15  2  0  0  0  0
 14 22  1  6  0  0  0
 14 20  1  0  0  0  0
 15 14  1  0  0  0  0
 15 16  1  0  0  0  0
 16 18  2  0  0  0  0
 17 16  1  0  0  0  0
 19 18  1  6  0  0  0
 19  3  1  0  0  0  0
 20 19  1  0  0  0  0
 21 22  1  0  0  0  0
 23 24  1  6  0  0  0
 23 28  1  0  0  0  0
 25 24  1  0  0  0  0
 26 25  1  0  0  0  0
 27 26  1  0  0  0  0
 28 31  1  0  0  0  0
 28 30  1  6  0  0  0
 30 29  1  0  0  0  0
 31 43  1  1  0  0  0
 31 32  1  0  0  0  0
 32 33  1  0  0  0  0
 32 34  2  0  0  0  0
 35 37  1  0  0  0  0
 35 36  2  0  0  0  0
 37 33  1  0  0  0  0
 38 39  1  6  0  0  0
 38 40  1  0  0  0  0
 38 35  1  0  0  0  0
 41 42  1  0  0  0  0
 42 40  1  0  0  0  0
 44 43  1  0  0  0  0
M  END
>  <MODEL>
9

>  <REMARK>
 VINA RESULT:      -4.1      4.399      9.679
  Name = 
  16 active torsions:
  status: ('A' for Active; 'I' for Inactive)
    1  A    between atoms: C_1  and  C_8
    2  A    between atoms: C_1  and  C_25
    3  A    between atoms: C_2  and  C_10
    4  A    between atoms: C_3  and  C_20
    5  A    between atoms: C_3  and  C_22
    6  A    between atoms: C_3  and  O_38
    7  A    between atoms: C_5  and  C_22
    8  A    between atoms: N_7  and  C_43
    9  A    between atoms: C_10  and  C_11
   10  A    between atoms: C_11  and  C_27
   11  A    between atoms: C_15  and  O_30
   12  A    between atoms: O_16  and  C_20
   13  A    between atoms: O_16  and  C_35
   14  A    between atoms: C_20  and  C_25
   15  A    between atoms: C_22  and  C_24
   16  A    between atoms: N_33  and  N_34
                            x       y       z     vdW  Elec       q    Type
                         _______ _______ _______ _____ _____    ______ ____

>  <TORSDO>
F 16

$$$$
