=
 OpenBabel11072410583D

 42 48  0  0  1  0  0  0  0  0999 V2000
  161.9590  208.6590  149.6060 N   0  0  0  0  0  0  0  0  0  0  0  0
  161.2290  206.6280  150.7010 C   0  0  2  0  0  3  0  0  0  0  0  0
  162.0340  209.3050  150.7200 C   0  0  0  0  0  3  0  0  0  0  0  0
  161.2570  208.8890  151.9480 C   0  0  1  0  0  3  0  0  0  0  0  0
  160.7980  207.4200  151.9390 C   0  0  2  0  0  3  0  0  0  0  0  0
  161.1120  207.4990  149.4590 C   0  0  0  0  0  2  0  0  0  0  0  0
  162.0310  207.8350  152.7170 C   0  0  2  0  0  3  0  0  0  0  0  0
  161.6770  207.9430  154.1880 C   0  0  0  0  0  2  0  0  0  0  0  0
  160.4140  208.7760  154.3860 C   0  0  2  0  0  3  0  0  0  0  0  0
  160.7860  210.1730  154.9120 C   0  0  2  0  0  3  0  0  0  0  0  0
  160.2870  210.4340  156.3250 C   0  0  2  0  0  3  0  0  0  0  0  0
  160.1670  212.5090  155.0180 C   0  0  0  0  0  2  0  0  0  0  0  0
  160.2260  211.3230  154.0710 C   0  0  2  0  0  3  0  0  0  0  0  0
  160.1240  211.9430  156.4300 C   0  0  1  0  0  3  0  0  0  0  0  0
  161.2290  209.9970  157.2610 O   0  0  0  0  0  0  0  0  0  0  0  0
  162.4310  210.5840  156.8610 C   0  0  0  0  0  1  0  0  0  0  0  0
  158.9300  211.0340  153.6240 O   0  0  0  0  0  0  0  0  0  0  0  0
  158.7260  211.8860  152.5380 C   0  0  0  0  0  1  0  0  0  0  0  0
  158.8460  212.3300  157.1740 C   0  0  0  0  0  2  0  0  0  0  0  0
  155.9010  211.8550  155.1430 N   0  0  0  0  0  0  0  0  0  0  0  0
  157.3300  213.4980  155.6290 N   0  0  0  0  0  0  0  0  0  0  0  0
  157.6970  212.4140  156.2840 N   0  0  0  0  0  0  0  0  0  0  0  0
  156.8450  211.4180  155.9980 C   0  0  0  0  0  3  0  0  0  0  0  0
  156.2290  213.1520  154.9330 C   0  0  0  0  0  3  0  0  0  0  0  0
  159.9060  207.0140  156.0340 C   0  0  0  0  0  2  0  0  0  0  0  0
  159.4980  208.0810  155.3500 C   0  0  0  0  0  3  0  0  0  0  0  0
  160.3850  205.4440  150.5590 N   0  0  0  0  0  2  0  0  0  0  0  0
  161.0640  201.9770  149.1650 C   0  0  0  0  0  0  0  0  0  0  0  0
  161.6280  202.3340  147.9360 O   0  0  0  0  0  0  0  0  0  0  0  0
  160.4860  203.0140  150.0800 C   0  0  0  0  0  2  0  0  0  0  0  0
  160.9570  200.7600  149.4670 O   0  0  0  0  0  0  0  0  0  0  0  0
  162.0380  203.6710  147.6350 C   0  0  2  0  0  3  0  0  0  0  0  0
  161.1490  204.7060  148.3170 C   0  0  0  0  0  2  0  0  0  0  0  0
  161.0850  204.3960  149.8100 C   0  0  1  0  0  3  0  0  0  0  0  0
  160.3620  204.1790  144.6030 C   0  0  0  0  0  3  0  0  0  0  0  0
  160.8060  206.1310  146.0670 C   0  0  0  0  0  2  0  0  0  0  0  0
  160.9750  203.3050  145.3840 C   0  0  0  0  0  0  0  0  0  0  0  0
  162.1000  205.4060  145.7170 C   0  0  1  0  0  3  0  0  0  0  0  0
  162.1110  203.9180  146.1220 C   0  0  1  0  0  3  0  0  0  0  0  0
  160.9810  205.5380  144.6830 C   0  0  1  0  0  3  0  0  0  0  0  0
  160.6090  201.8580  145.4490 C   0  0  0  0  0  2  0  0  0  0  0  0
  159.4980  201.6120  144.6410 O   0  0  0  0  0  1  0  0  0  0  0  0
  1  3  2  0  0  0  0
  2 27  1  6  0  0  0
  2  5  1  0  0  0  0
  4  3  1  6  0  0  0
  4  7  1  0  0  0  0
  5  4  1  0  0  0  0
  5  7  1  0  0  0  0
  6  1  1  0  0  0  0
  6  2  1  0  0  0  0
  7  8  1  0  0  0  0
  8  9  1  0  0  0  0
  9 10  1  0  0  0  0
  9 26  1  0  0  0  0
 10 11  1  0  0  0  0
 11 14  1  0  0  0  0
 11 15  1  0  0  0  0
 12 14  1  0  0  0  0
 13 10  1  0  0  0  0
 13 12  1  0  0  0  0
 14 19  1  0  0  0  0
 16 15  1  0  0  0  0
 17 13  1  0  0  0  0
 18 17  1  0  0  0  0
 20 23  2  0  0  0  0
 21 22  1  0  0  0  0
 22 19  1  0  0  0  0
 23 22  1  0  0  0  0
 24 20  1  0  0  0  0
 24 21  2  0  0  0  0
 26 25  2  0  0  0  0
 28 31  2  0  0  0  0
 28 30  1  0  0  0  0
 29 28  1  0  0  0  0
 32 29  1  0  0  0  0
 32 33  1  0  0  0  0
 33 34  1  0  0  0  0
 34 30  1  0  0  0  0
 34 27  1  0  0  0  0
 35 40  1  0  0  0  0
 35 37  2  0  0  0  0
 37 41  1  0  0  0  0
 37 39  1  0  0  0  0
 38 36  1  0  0  0  0
 38 39  1  0  0  0  0
 39 32  1  0  0  0  0
 40 38  1  0  0  0  0
 40 36  1  0  0  0  0
 42 41  1  0  0  0  0
M  END
>  <MODEL>
1

>  <REMARK>
 VINA RESULT:      -8.3      0.000      0.000
  Name = 
  12 active torsions:
  status: ('A' for Active; 'I' for Inactive)
    1  A    between atoms: C_1  and  C_8
    2  A    between atoms: C_5  and  N_26
    3  A    between atoms: C_5  and  C_30
    4  A    between atoms: C_7  and  N_24
    5  A    between atoms: C_8  and  C_17
    6  A    between atoms: C_8  and  C_33
    7  A    between atoms: C_10  and  O_19
    8  A    between atoms: C_13  and  C_16
    9  A    between atoms: C_17  and  C_40
   10  A    between atoms: C_18  and  C_29
   11  A    between atoms: C_22  and  O_31
   12  A    between atoms: N_24  and  C_42
                            x       y       z     vdW  Elec       q    Type
                         _______ _______ _______ _____ _____    ______ ____

>  <TORSDO>
F 12

$$$$
=
 OpenBabel11072410583D

 42 48  0  0  1  0  0  0  0  0999 V2000
  161.2670  208.7480  157.2610 N   0  0  0  0  0  0  0  0  0  0  0  0
  161.6110  209.5710  155.0110 C   0  0  2  0  0  3  0  0  0  0  0  0
  160.7270  207.6540  156.8440 C   0  0  0  0  0  3  0  0  0  0  0  0
  160.0900  207.5380  155.4780 C   0  0  1  0  0  3  0  0  0  0  0  0
  160.5610  208.5980  154.4670 C   0  0  2  0  0  3  0  0  0  0  0  0
  161.2820  209.9430  156.4490 C   0  0  0  0  0  2  0  0  0  0  0  0
  161.1450  207.2000  154.4420 C   0  0  2  0  0  3  0  0  0  0  0  0
  160.4960  206.4100  153.3200 C   0  0  0  0  0  2  0  0  0  0  0  0
  161.4810  206.1780  152.1770 C   0  0  2  0  0  3  0  0  0  0  0  0
  160.9000  206.7370  150.8660 C   0  0  2  0  0  3  0  0  0  0  0  0
  161.3250  205.9450  149.6380 C   0  0  2  0  0  3  0  0  0  0  0  0
  161.1760  208.3280  149.0650 C   0  0  0  0  0  2  0  0  0  0  0  0
  161.3090  208.1820  150.5710 C   0  0  2  0  0  3  0  0  0  0  0  0
  161.2670  206.9280  148.4780 C   0  0  1  0  0  3  0  0  0  0  0  0
  160.4350  204.8930  149.4070 O   0  0  0  0  0  0  0  0  0  0  0  0
  161.2310  203.8410  148.9520 C   0  0  0  0  0  1  0  0  0  0  0  0
  162.6420  208.4110  150.9340 O   0  0  0  0  0  0  0  0  0  0  0  0
  162.7100  209.7770  151.2080 C   0  0  0  0  0  1  0  0  0  0  0  0
  162.4600  206.7690  147.5340 C   0  0  0  0  0  2  0  0  0  0  0  0
  162.3460  204.2340  144.9680 N   0  0  0  0  0  0  0  0  0  0  0  0
  161.0910  205.9420  145.6650 N   0  0  0  0  0  0  0  0  0  0  0  0
  162.1660  205.8720  146.4260 N   0  0  0  0  0  0  0  0  0  0  0  0
  162.9290  204.8480  146.0150 C   0  0  0  0  0  3  0  0  0  0  0  0
  161.2050  204.9370  144.7750 C   0  0  0  0  0  3  0  0  0  0  0  0
  160.9220  203.8060  152.5460 C   0  0  0  0  0  2  0  0  0  0  0  0
  161.7590  204.7100  152.0430 C   0  0  0  0  0  3  0  0  0  0  0  0
  161.6420  210.7730  154.1820 N   0  0  0  0  0  2  0  0  0  0  0  0
  157.9390  211.6130  154.1300 C   0  0  0  0  0  0  0  0  0  0  0  0
  157.8920  212.3530  152.9430 O   0  0  0  0  0  0  0  0  0  0  0  0
  159.2440  211.1390  154.6930 C   0  0  0  0  0  2  0  0  0  0  0  0
  156.8800  211.4210  154.7810 O   0  0  0  0  0  0  0  0  0  0  0  0
  158.9760  212.3830  152.0100 C   0  0  2  0  0  3  0  0  0  0  0  0
  160.3280  212.2710  152.7040 C   0  0  0  0  0  2  0  0  0  0  0  0
  160.3200  211.0410  153.6090 C   0  0  1  0  0  3  0  0  0  0  0  0
  158.7820  213.7360  148.7860 C   0  0  0  0  0  3  0  0  0  0  0  0
  156.6830  213.1150  149.9520 C   0  0  0  0  0  2  0  0  0  0  0  0
  159.5760  213.4120  149.7930 C   0  0  0  0  0  0  0  0  0  0  0  0
  157.4930  214.1070  150.7780 C   0  0  1  0  0  3  0  0  0  0  0  0
  158.9190  213.6250  151.1100 C   0  0  1  0  0  3  0  0  0  0  0  0
  157.4480  214.2220  149.2530 C   0  0  1  0  0  3  0  0  0  0  0  0
  160.9900  212.9620  149.6180 C   0  0  0  0  0  2  0  0  0  0  0  0
  161.1810  212.4950  148.3180 O   0  0  0  0  0  1  0  0  0  0  0  0
  2 27  1  6  0  0  0
  2  6  1  0  0  0  0
  3  1  2  0  0  0  0
  4  3  1  1  0  0  0
  5  2  1  0  0  0  0
  5  4  1  0  0  0  0
  6  1  1  0  0  0  0
  7  5  1  0  0  0  0
  7  4  1  0  0  0  0
  8  7  1  0  0  0  0
  9  8  1  0  0  0  0
 10  9  1  0  0  0  0
 11 10  1  0  0  0  0
 12 13  1  0  0  0  0
 13 10  1  0  0  0  0
 13 17  1  0  0  0  0
 14 12  1  0  0  0  0
 14 11  1  0  0  0  0
 15 11  1  0  0  0  0
 16 15  1  0  0  0  0
 17 18  1  0  0  0  0
 19 14  1  0  0  0  0
 20 23  2  0  0  0  0
 21 22  1  0  0  0  0
 22 19  1  0  0  0  0
 23 22  1  0  0  0  0
 24 20  1  0  0  0  0
 24 21  2  0  0  0  0
 26  9  1  0  0  0  0
 26 25  2  0  0  0  0
 28 30  1  0  0  0  0
 28 31  2  0  0  0  0
 29 28  1  0  0  0  0
 32 33  1  0  0  0  0
 32 29  1  0  0  0  0
 33 34  1  0  0  0  0
 34 27  1  0  0  0  0
 34 30  1  0  0  0  0
 35 40  1  0  0  0  0
 35 37  2  0  0  0  0
 36 38  1  0  0  0  0
 37 39  1  0  0  0  0
 38 39  1  0  0  0  0
 39 32  1  0  0  0  0
 40 36  1  0  0  0  0
 40 38  1  0  0  0  0
 41 37  1  0  0  0  0
 42 41  1  0  0  0  0
M  END
>  <MODEL>
2

>  <REMARK>
 VINA RESULT:      -7.9      2.862      9.237
  Name = 
  12 active torsions:
  status: ('A' for Active; 'I' for Inactive)
    1  A    between atoms: C_1  and  C_8
    2  A    between atoms: C_5  and  N_26
    3  A    between atoms: C_5  and  C_30
    4  A    between atoms: C_7  and  N_24
    5  A    between atoms: C_8  and  C_17
    6  A    between atoms: C_8  and  C_33
    7  A    between atoms: C_10  and  O_19
    8  A    between atoms: C_13  and  C_16
    9  A    between atoms: C_17  and  C_40
   10  A    between atoms: C_18  and  C_29
   11  A    between atoms: C_22  and  O_31
   12  A    between atoms: N_24  and  C_42
                            x       y       z     vdW  Elec       q    Type
                         _______ _______ _______ _____ _____    ______ ____

>  <TORSDO>
F 12

$$$$
=
 OpenBabel11072410583D

 42 48  0  0  1  0  0  0  0  0999 V2000
  158.5970  211.3330  154.3490 N   0  0  0  0  0  0  0  0  0  0  0  0
  159.9450  212.6560  152.8360 C   0  0  2  0  0  3  0  0  0  0  0  0
  159.2200  210.2440  154.0500 C   0  0  0  0  0  3  0  0  0  0  0  0
  159.9710  210.0760  152.7480 C   0  0  1  0  0  3  0  0  0  0  0  0
  160.3620  211.3990  152.0670 C   0  0  2  0  0  3  0  0  0  0  0  0
  158.5660  212.4600  153.4460 C   0  0  0  0  0  2  0  0  0  0  0  0
  161.3770  210.6280  152.8870 C   0  0  2  0  0  3  0  0  0  0  0  0
  162.2970  209.8670  151.9510 C   0  0  0  0  0  2  0  0  0  0  0  0
  161.5070  208.8940  151.0810 C   0  0  2  0  0  3  0  0  0  0  0  0
  162.1170  207.4850  151.1860 C   0  0  2  0  0  3  0  0  0  0  0  0
  161.4990  206.4910  150.2140 C   0  0  2  0  0  3  0  0  0  0  0  0
  162.0500  205.3470  152.3160 C   0  0  0  0  0  2  0  0  0  0  0  0
  161.9640  206.8430  152.5660 C   0  0  2  0  0  3  0  0  0  0  0  0
  161.6790  205.1240  150.8570 C   0  0  1  0  0  3  0  0  0  0  0  0
  162.1720  206.5260  148.9900 O   0  0  0  0  0  0  0  0  0  0  0  0
  161.1630  206.5360  148.0250 C   0  0  0  0  0  1  0  0  0  0  0  0
  160.7120  207.1380  153.1220 O   0  0  0  0  0  0  0  0  0  0  0  0
  160.8580  206.8900  154.4870 C   0  0  0  0  0  1  0  0  0  0  0  0
  160.4350  204.2490  150.7000 C   0  0  0  0  0  2  0  0  0  0  0  0
  161.0020  200.9810  149.2790 N   0  0  0  0  0  0  0  0  0  0  0  0
  160.8940  203.0950  148.5770 N   0  0  0  0  0  0  0  0  0  0  0  0
  160.6910  203.0740  149.8800 N   0  0  0  0  0  0  0  0  0  0  0  0
  160.7540  201.8060  150.3140 C   0  0  0  0  0  3  0  0  0  0  0  0
  161.0830  201.8120  148.2140 C   0  0  0  0  0  3  0  0  0  0  0  0
  162.0810  210.5280  149.3270 C   0  0  0  0  0  2  0  0  0  0  0  0
  161.5210  209.3660  149.6570 C   0  0  0  0  0  3  0  0  0  0  0  0
  159.9290  213.8020  151.9300 N   0  0  0  0  0  2  0  0  0  0  0  0
  157.2690  213.5950  149.2270 C   0  0  0  0  0  0  0  0  0  0  0  0
  158.0920  213.6450  148.0960 O   0  0  0  0  0  0  0  0  0  0  0  0
  157.8360  213.7760  150.6030 C   0  0  0  0  0  2  0  0  0  0  0  0
  156.0240  213.4870  149.0820 O   0  0  0  0  0  0  0  0  0  0  0  0
  159.5120  213.4880  148.1690 C   0  0  2  0  0  3  0  0  0  0  0  0
  160.0820  214.0500  149.4660 C   0  0  0  0  0  2  0  0  0  0  0  0
  159.3280  213.4380  150.6440 C   0  0  1  0  0  3  0  0  0  0  0  0
  161.9280  213.1920  145.6510 C   0  0  0  0  0  3  0  0  0  0  0  0
  159.6730  212.2330  145.2660 C   0  0  0  0  0  2  0  0  0  0  0  0
  161.6410  213.6890  146.8430 C   0  0  0  0  0  0  0  0  0  0  0  0
  159.5850  213.7190  145.5940 C   0  0  1  0  0  3  0  0  0  0  0  0
  160.2160  214.0970  146.9480 C   0  0  1  0  0  3  0  0  0  0  0  0
  160.7370  213.1790  144.7450 C   0  0  1  0  0  3  0  0  0  0  0  0
  162.6580  213.8830  147.9210 C   0  0  0  0  0  2  0  0  0  0  0  0
  163.5690  212.8270  147.9110 O   0  0  0  0  0  1  0  0  0  0  0  0
  2 27  1  6  0  0  0
  2  6  1  0  0  0  0
  3  1  2  0  0  0  0
  4  7  1  0  0  0  0
  4  3  1  1  0  0  0
  5  4  1  0  0  0  0
  5  2  1  0  0  0  0
  5  7  1  0  0  0  0
  6  1  1  0  0  0  0
  8  7  1  0  0  0  0
  9 10  1  0  0  0  0
  9  8  1  0  0  0  0
 10 13  1  0  0  0  0
 11 14  1  0  0  0  0
 11 10  1  0  0  0  0
 12 13  1  0  0  0  0
 13 17  1  0  0  0  0
 14 12  1  0  0  0  0
 15 11  1  0  0  0  0
 16 15  1  0  0  0  0
 17 18  1  0  0  0  0
 19 14  1  0  0  0  0
 20 23  2  0  0  0  0
 21 22  1  0  0  0  0
 22 23  1  0  0  0  0
 22 19  1  0  0  0  0
 24 21  2  0  0  0  0
 24 20  1  0  0  0  0
 25 26  2  0  0  0  0
 26  9  1  0  0  0  0
 28 30  1  0  0  0  0
 29 32  1  0  0  0  0
 29 28  1  0  0  0  0
 30 34  1  0  0  0  0
 31 28  2  0  0  0  0
 32 33  1  0  0  0  0
 33 34  1  0  0  0  0
 34 27  1  0  0  0  0
 35 37  2  0  0  0  0
 36 38  1  0  0  0  0
 37 39  1  0  0  0  0
 37 41  1  0  0  0  0
 38 39  1  0  0  0  0
 39 32  1  0  0  0  0
 40 36  1  0  0  0  0
 40 38  1  0  0  0  0
 40 35  1  0  0  0  0
 42 41  1  0  0  0  0
M  END
>  <MODEL>
3

>  <REMARK>
 VINA RESULT:      -7.7      3.864      9.052
  Name = 
  12 active torsions:
  status: ('A' for Active; 'I' for Inactive)
    1  A    between atoms: C_1  and  C_8
    2  A    between atoms: C_5  and  N_26
    3  A    between atoms: C_5  and  C_30
    4  A    between atoms: C_7  and  N_24
    5  A    between atoms: C_8  and  C_17
    6  A    between atoms: C_8  and  C_33
    7  A    between atoms: C_10  and  O_19
    8  A    between atoms: C_13  and  C_16
    9  A    between atoms: C_17  and  C_40
   10  A    between atoms: C_18  and  C_29
   11  A    between atoms: C_22  and  O_31
   12  A    between atoms: N_24  and  C_42
                            x       y       z     vdW  Elec       q    Type
                         _______ _______ _______ _____ _____    ______ ____

>  <TORSDO>
F 12

$$$$
=
 OpenBabel11072410583D

 42 48  0  0  1  0  0  0  0  0999 V2000
  162.2630  209.1840  148.6740 N   0  0  0  0  0  0  0  0  0  0  0  0
  161.4060  207.6180  150.3080 C   0  0  2  0  0  3  0  0  0  0  0  0
  162.3130  210.1460  149.5310 C   0  0  0  0  0  3  0  0  0  0  0  0
  161.4670  210.1550  150.7840 C   0  0  1  0  0  3  0  0  0  0  0  0
  160.9520  208.7690  151.2100 C   0  0  2  0  0  3  0  0  0  0  0  0
  161.3790  208.0570  148.8510 C   0  0  0  0  0  2  0  0  0  0  0  0
  162.1640  209.3790  151.8850 C   0  0  2  0  0  3  0  0  0  0  0  0
  161.7500  209.9520  153.2270 C   0  0  0  0  0  2  0  0  0  0  0  0
  160.6960  209.0720  153.8940 C   0  0  2  0  0  3  0  0  0  0  0  0
  159.9610  209.8710  154.9840 C   0  0  2  0  0  3  0  0  0  0  0  0
  159.1930  211.0650  154.4370 C   0  0  2  0  0  3  0  0  0  0  0  0
  160.1240  211.6290  156.6380 C   0  0  0  0  0  2  0  0  0  0  0  0
  160.8840  210.4480  156.0600 C   0  0  2  0  0  3  0  0  0  0  0  0
  159.1170  212.0630  155.5830 C   0  0  1  0  0  3  0  0  0  0  0  0
  157.9030  210.6820  154.0620 O   0  0  0  0  0  0  0  0  0  0  0  0
  157.1400  210.8020  155.2240 C   0  0  0  0  0  1  0  0  0  0  0  0
  162.0820  210.9100  155.4990 O   0  0  0  0  0  0  0  0  0  0  0  0
  163.0390  210.7310  156.4990 C   0  0  0  0  0  1  0  0  0  0  0  0
  159.3540  213.4970  155.1090 C   0  0  0  0  0  2  0  0  0  0  0  0
  157.8700  214.1840  151.8920 N   0  0  0  0  0  0  0  0  0  0  0  0
  157.2650  214.2340  154.0380 N   0  0  0  0  0  0  0  0  0  0  0  0
  158.5220  213.8410  153.9640 N   0  0  0  0  0  0  0  0  0  0  0  0
  158.8970  213.8080  152.6770 C   0  0  0  0  0  3  0  0  0  0  0  0
  156.8700  214.4410  152.7670 C   0  0  0  0  0  3  0  0  0  0  0  0
  160.9620  206.6340  154.1460 C   0  0  0  0  0  2  0  0  0  0  0  0
  161.3530  207.8600  154.4860 C   0  0  0  0  0  3  0  0  0  0  0  0
  160.5250  206.4690  150.4970 N   0  0  0  0  0  2  0  0  0  0  0  0
  160.8110  202.8040  149.5440 C   0  0  0  0  0  0  0  0  0  0  0  0
  161.4300  202.9420  148.2970 O   0  0  0  0  0  0  0  0  0  0  0  0
  160.3460  204.0030  150.3130 C   0  0  0  0  0  2  0  0  0  0  0  0
  160.5590  201.6530  149.9850 O   0  0  0  0  0  0  0  0  0  0  0  0
  161.9970  204.1770  147.8510 C   0  0  2  0  0  3  0  0  0  0  0  0
  161.2270  205.3820  148.3800 C   0  0  0  0  0  2  0  0  0  0  0  0
  161.1070  205.2650  149.8980 C   0  0  1  0  0  3  0  0  0  0  0  0
  160.4290  204.0880  144.7210 C   0  0  0  0  0  3  0  0  0  0  0  0
  160.5890  206.2540  145.9190 C   0  0  0  0  0  2  0  0  0  0  0  0
  161.0920  203.4000  145.6350 C   0  0  0  0  0  0  0  0  0  0  0  0
  161.9690  205.6390  145.7180 C   0  0  1  0  0  3  0  0  0  0  0  0
  162.1180  204.2290  146.3210 C   0  0  1  0  0  3  0  0  0  0  0  0
  160.8950  205.5070  144.6360 C   0  0  1  0  0  3  0  0  0  0  0  0
  160.8800  201.9420  145.8840 C   0  0  0  0  0  2  0  0  0  0  0  0
  160.0500  201.4080  144.8990 O   0  0  0  0  0  1  0  0  0  0  0  0
  1  6  1  0  0  0  0
  1  3  2  0  0  0  0
  2 27  1  6  0  0  0
  2  5  1  0  0  0  0
  4  3  1  6  0  0  0
  4  5  1  0  0  0  0
  4  7  1  0  0  0  0
  5  7  1  0  0  0  0
  6  2  1  0  0  0  0
  7  8  1  0  0  0  0
  8  9  1  0  0  0  0
  9 26  1  0  0  0  0
  9 10  1  0  0  0  0
 10 13  1  0  0  0  0
 11 10  1  0  0  0  0
 11 14  1  0  0  0  0
 13 12  1  0  0  0  0
 14 12  1  0  0  0  0
 15 11  1  0  0  0  0
 15 16  1  0  0  0  0
 17 13  1  0  0  0  0
 17 18  1  0  0  0  0
 19 14  1  0  0  0  0
 20 23  2  0  0  0  0
 20 24  1  0  0  0  0
 22 21  1  0  0  0  0
 22 19  1  0  0  0  0
 23 22  1  0  0  0  0
 24 21  2  0  0  0  0
 25 26  2  0  0  0  0
 28 31  2  0  0  0  0
 28 30  1  0  0  0  0
 29 28  1  0  0  0  0
 32 29  1  0  0  0  0
 32 33  1  0  0  0  0
 33 34  1  0  0  0  0
 34 30  1  0  0  0  0
 34 27  1  0  0  0  0
 35 37  2  0  0  0  0
 37 41  1  0  0  0  0
 37 39  1  0  0  0  0
 38 36  1  0  0  0  0
 38 39  1  0  0  0  0
 39 32  1  0  0  0  0
 40 35  1  0  0  0  0
 40 38  1  0  0  0  0
 40 36  1  0  0  0  0
 42 41  1  0  0  0  0
M  END
>  <MODEL>
4

>  <REMARK>
 VINA RESULT:      -7.6      1.295      2.279
  Name = 
  12 active torsions:
  status: ('A' for Active; 'I' for Inactive)
    1  A    between atoms: C_1  and  C_8
    2  A    between atoms: C_5  and  N_26
    3  A    between atoms: C_5  and  C_30
    4  A    between atoms: C_7  and  N_24
    5  A    between atoms: C_8  and  C_17
    6  A    between atoms: C_8  and  C_33
    7  A    between atoms: C_10  and  O_19
    8  A    between atoms: C_13  and  C_16
    9  A    between atoms: C_17  and  C_40
   10  A    between atoms: C_18  and  C_29
   11  A    between atoms: C_22  and  O_31
   12  A    between atoms: N_24  and  C_42
                            x       y       z     vdW  Elec       q    Type
                         _______ _______ _______ _____ _____    ______ ____

>  <TORSDO>
F 12

$$$$
=
 OpenBabel11072410583D

 42 48  0  0  1  0  0  0  0  0999 V2000
  162.1550  209.2770  150.1750 N   0  0  0  0  0  0  0  0  0  0  0  0
  161.3010  207.7760  151.8700 C   0  0  2  0  0  3  0  0  0  0  0  0
  162.0310  210.3090  150.9380 C   0  0  0  0  0  3  0  0  0  0  0  0
  161.0720  210.3370  152.1070 C   0  0  1  0  0  3  0  0  0  0  0  0
  160.6550  208.9460  152.6170 C   0  0  2  0  0  3  0  0  0  0  0  0
  161.3700  208.0820  150.3820 C   0  0  0  0  0  2  0  0  0  0  0  0
  161.7330  209.7350  153.3330 C   0  0  2  0  0  3  0  0  0  0  0  0
  161.1400  210.3750  154.5740 C   0  0  0  0  0  2  0  0  0  0  0  0
  159.9020  209.6130  155.0420 C   0  0  2  0  0  3  0  0  0  0  0  0
  158.8800  210.5950  155.6410 C   0  0  2  0  0  3  0  0  0  0  0  0
  158.3280  211.5810  154.6220 C   0  0  2  0  0  3  0  0  0  0  0  0
  158.5530  212.6930  156.8000 C   0  0  0  0  0  2  0  0  0  0  0  0
  159.4400  211.4600  156.7720 C   0  0  2  0  0  3  0  0  0  0  0  0
  157.9190  212.8090  155.4210 C   0  0  1  0  0  3  0  0  0  0  0  0
  157.2080  211.0420  153.9830 O   0  0  0  0  0  0  0  0  0  0  0  0
  156.1870  211.1040  154.9330 C   0  0  0  0  0  1  0  0  0  0  0  0
  160.7560  211.8550  156.4990 O   0  0  0  0  0  0  0  0  0  0  0  0
  160.9450  213.0180  157.2470 C   0  0  0  0  0  1  0  0  0  0  0  0
  158.3030  214.1080  154.7110 C   0  0  0  0  0  2  0  0  0  0  0  0
  157.4100  214.3670  151.2240 N   0  0  0  0  0  0  0  0  0  0  0  0
  156.3740  214.3140  153.1990 N   0  0  0  0  0  0  0  0  0  0  0  0
  157.6740  214.2250  153.4040 N   0  0  0  0  0  0  0  0  0  0  0  0
  158.3080  214.2570  152.2220 C   0  0  0  0  0  3  0  0  0  0  0  0
  156.2180  214.3990  151.8640 C   0  0  0  0  0  3  0  0  0  0  0  0
  160.0330  207.2940  155.8670 C   0  0  0  0  0  2  0  0  0  0  0  0
  160.2990  208.5840  156.0590 C   0  0  0  0  0  3  0  0  0  0  0  0
  160.5200  206.5620  152.0910 N   0  0  0  0  0  2  0  0  0  0  0  0
  161.6520  202.9740  151.5740 C   0  0  0  0  0  0  0  0  0  0  0  0
  161.4750  202.8780  150.1900 O   0  0  0  0  0  0  0  0  0  0  0  0
  161.2140  204.1930  152.3270 C   0  0  0  0  0  2  0  0  0  0  0  0
  162.1010  201.9850  152.2100 O   0  0  0  0  0  0  0  0  0  0  0  0
  161.2400  204.0210  149.3620 C   0  0  2  0  0  3  0  0  0  0  0  0
  160.4420  205.0970  150.0910 C   0  0  0  0  0  2  0  0  0  0  0  0
  161.1350  205.4180  151.4120 C   0  0  1  0  0  3  0  0  0  0  0  0
  161.5310  202.7220  146.1240 C   0  0  0  0  0  3  0  0  0  0  0  0
  161.2240  201.1530  148.0200 C   0  0  0  0  0  2  0  0  0  0  0  0
  161.4600  203.8150  146.8640 C   0  0  0  0  0  0  0  0  0  0  0  0
  160.0910  202.1720  147.9660 C   0  0  1  0  0  3  0  0  0  0  0  0
  160.5650  203.6370  148.0380 C   0  0  1  0  0  3  0  0  0  0  0  0
  160.6940  201.6120  146.6760 C   0  0  1  0  0  3  0  0  0  0  0  0
  162.1410  205.0970  146.5090 C   0  0  0  0  0  2  0  0  0  0  0  0
  163.4920  204.8620  146.2530 O   0  0  0  0  0  1  0  0  0  0  0  0
  1  6  1  0  0  0  0
  1  3  2  0  0  0  0
  2 27  1  6  0  0  0
  2  5  1  0  0  0  0
  4  3  1  6  0  0  0
  4  5  1  0  0  0  0
  4  7  1  0  0  0  0
  5  7  1  0  0  0  0
  6  2  1  0  0  0  0
  7  8  1  0  0  0  0
  8  9  1  0  0  0  0
  9 10  1  0  0  0  0
  9 26  1  0  0  0  0
 10 13  1  0  0  0  0
 11 14  1  0  0  0  0
 11 10  1  0  0  0  0
 13 12  1  0  0  0  0
 14 12  1  0  0  0  0
 15 11  1  0  0  0  0
 15 16  1  0  0  0  0
 17 13  1  0  0  0  0
 17 18  1  0  0  0  0
 19 14  1  0  0  0  0
 20 24  1  0  0  0  0
 20 23  2  0  0  0  0
 21 22  1  0  0  0  0
 22 19  1  0  0  0  0
 23 22  1  0  0  0  0
 24 21  2  0  0  0  0
 25 26  2  0  0  0  0
 28 31  2  0  0  0  0
 28 30  1  0  0  0  0
 29 28  1  0  0  0  0
 32 33  1  0  0  0  0
 32 29  1  0  0  0  0
 33 34  1  0  0  0  0
 34 27  1  0  0  0  0
 34 30  1  0  0  0  0
 35 40  1  0  0  0  0
 35 37  2  0  0  0  0
 37 39  1  0  0  0  0
 38 36  1  0  0  0  0
 38 39  1  0  0  0  0
 39 32  1  0  0  0  0
 40 38  1  0  0  0  0
 40 36  1  0  0  0  0
 41 37  1  0  0  0  0
 42 41  1  0  0  0  0
M  END
>  <MODEL>
5

>  <REMARK>
 VINA RESULT:      -7.4      1.862      3.187
  Name = 
  12 active torsions:
  status: ('A' for Active; 'I' for Inactive)
    1  A    between atoms: C_1  and  C_8
    2  A    between atoms: C_5  and  N_26
    3  A    between atoms: C_5  and  C_30
    4  A    between atoms: C_7  and  N_24
    5  A    between atoms: C_8  and  C_17
    6  A    between atoms: C_8  and  C_33
    7  A    between atoms: C_10  and  O_19
    8  A    between atoms: C_13  and  C_16
    9  A    between atoms: C_17  and  C_40
   10  A    between atoms: C_18  and  C_29
   11  A    between atoms: C_22  and  O_31
   12  A    between atoms: N_24  and  C_42
                            x       y       z     vdW  Elec       q    Type
                         _______ _______ _______ _____ _____    ______ ____

>  <TORSDO>
F 12

$$$$
=
 OpenBabel11072410583D

 42 48  0  0  1  0  0  0  0  0999 V2000
  160.6320  207.4580  155.0120 N   0  0  0  0  0  0  0  0  0  0  0  0
  161.5140  209.3400  153.7720 C   0  0  2  0  0  3  0  0  0  0  0  0
  160.7670  206.6570  154.0100 C   0  0  0  0  0  3  0  0  0  0  0  0
  160.8310  207.1530  152.5830 C   0  0  1  0  0  3  0  0  0  0  0  0
  161.2280  208.6330  152.4450 C   0  0  2  0  0  3  0  0  0  0  0  0
  160.5190  208.8860  154.8290 C   0  0  0  0  0  2  0  0  0  0  0  0
  162.2560  207.5390  152.2330 C   0  0  2  0  0  3  0  0  0  0  0  0
  162.4670  207.3370  150.7450 C   0  0  0  0  0  2  0  0  0  0  0  0
  161.3590  206.4730  150.1490 C   0  0  2  0  0  3  0  0  0  0  0  0
  161.9020  205.0670  149.8380 C   0  0  2  0  0  3  0  0  0  0  0  0
  161.3450  204.4820  148.5480 C   0  0  2  0  0  3  0  0  0  0  0  0
  161.6430  202.6890  150.1990 C   0  0  0  0  0  2  0  0  0  0  0  0
  161.5890  204.0270  150.9160 C   0  0  2  0  0  3  0  0  0  0  0  0
  161.4100  202.9720  148.7220 C   0  0  1  0  0  3  0  0  0  0  0  0
  162.1360  204.8630  147.4610 O   0  0  0  0  0  0  0  0  0  0  0  0
  161.2920  204.7770  146.3530 C   0  0  0  0  0  1  0  0  0  0  0  0
  160.3010  204.2130  151.4350 O   0  0  0  0  0  0  0  0  0  0  0  0
  160.1500  203.2050  152.3880 C   0  0  0  0  0  1  0  0  0  0  0  0
  160.1540  202.2810  148.1890 C   0  0  0  0  0  2  0  0  0  0  0  0
  161.2710  199.6250  146.0150 N   0  0  0  0  0  0  0  0  0  0  0  0
  160.0220  201.4680  145.8710 N   0  0  0  0  0  0  0  0  0  0  0  0
  160.4570  201.3510  147.1100 N   0  0  0  0  0  0  0  0  0  0  0  0
  161.2110  200.2460  147.2080 C   0  0  0  0  0  3  0  0  0  0  0  0
  160.5220  200.4090  145.2050 C   0  0  0  0  0  3  0  0  0  0  0  0
  161.5150  208.0860  148.2920 C   0  0  0  0  0  2  0  0  0  0  0  0
  160.8330  207.1190  148.9020 C   0  0  0  0  0  3  0  0  0  0  0  0
  161.4180  210.7860  153.5880 N   0  0  0  0  0  2  0  0  0  0  0  0
  157.8050  211.9290  153.8440 C   0  0  0  0  0  0  0  0  0  0  0  0
  157.7170  212.6680  152.6590 O   0  0  0  0  0  0  0  0  0  0  0  0
  159.1100  211.3490  154.2980 C   0  0  0  0  0  2  0  0  0  0  0  0
  156.7930  211.8250  154.5850 O   0  0  0  0  0  0  0  0  0  0  0  0
  158.7160  212.6070  151.6370 C   0  0  2  0  0  3  0  0  0  0  0  0
  160.1090  212.3860  152.2150 C   0  0  0  0  0  2  0  0  0  0  0  0
  160.0780  211.1620  153.1280 C   0  0  1  0  0  3  0  0  0  0  0  0
  158.6570  213.9580  148.4070 C   0  0  0  0  0  3  0  0  0  0  0  0
  156.5140  213.3060  149.4720 C   0  0  0  0  0  2  0  0  0  0  0  0
  159.4060  213.6450  149.4510 C   0  0  0  0  0  0  0  0  0  0  0  0
  157.2690  214.3100  150.3350 C   0  0  1  0  0  3  0  0  0  0  0  0
  158.6840  213.8490  150.7350 C   0  0  1  0  0  3  0  0  0  0  0  0
  157.2950  214.4250  148.8100 C   0  0  1  0  0  3  0  0  0  0  0  0
  160.8330  213.2150  149.3440 C   0  0  0  0  0  2  0  0  0  0  0  0
  161.0210  212.4790  148.1740 O   0  0  0  0  0  1  0  0  0  0  0  0
  2 27  1  6  0  0  0
  2  6  1  0  0  0  0
  3  1  2  0  0  0  0
  4  3  1  1  0  0  0
  5  4  1  0  0  0  0
  5  2  1  0  0  0  0
  6  1  1  0  0  0  0
  7  5  1  0  0  0  0
  7  4  1  0  0  0  0
  8  7  1  0  0  0  0
  9  8  1  0  0  0  0
 10  9  1  0  0  0  0
 10 13  1  0  0  0  0
 11 14  1  0  0  0  0
 11 10  1  0  0  0  0
 12 13  1  0  0  0  0
 13 17  1  0  0  0  0
 14 12  1  0  0  0  0
 15 11  1  0  0  0  0
 16 15  1  0  0  0  0
 17 18  1  0  0  0  0
 19 14  1  0  0  0  0
 20 23  2  0  0  0  0
 21 22  1  0  0  0  0
 22 23  1  0  0  0  0
 22 19  1  0  0  0  0
 24 21  2  0  0  0  0
 24 20  1  0  0  0  0
 25 26  2  0  0  0  0
 26  9  1  0  0  0  0
 28 30  1  0  0  0  0
 28 31  2  0  0  0  0
 29 28  1  0  0  0  0
 32 33  1  0  0  0  0
 32 29  1  0  0  0  0
 33 34  1  0  0  0  0
 34 27  1  0  0  0  0
 34 30  1  0  0  0  0
 35 40  1  0  0  0  0
 35 37  2  0  0  0  0
 36 38  1  0  0  0  0
 37 39  1  0  0  0  0
 38 39  1  0  0  0  0
 39 32  1  0  0  0  0
 40 36  1  0  0  0  0
 40 38  1  0  0  0  0
 41 37  1  0  0  0  0
 42 41  1  0  0  0  0
M  END
>  <MODEL>
6

>  <REMARK>
 VINA RESULT:      -6.9      3.040     10.123
  Name = 
  12 active torsions:
  status: ('A' for Active; 'I' for Inactive)
    1  A    between atoms: C_1  and  C_8
    2  A    between atoms: C_5  and  N_26
    3  A    between atoms: C_5  and  C_30
    4  A    between atoms: C_7  and  N_24
    5  A    between atoms: C_8  and  C_17
    6  A    between atoms: C_8  and  C_33
    7  A    between atoms: C_10  and  O_19
    8  A    between atoms: C_13  and  C_16
    9  A    between atoms: C_17  and  C_40
   10  A    between atoms: C_18  and  C_29
   11  A    between atoms: C_22  and  O_31
   12  A    between atoms: N_24  and  C_42
                            x       y       z     vdW  Elec       q    Type
                         _______ _______ _______ _____ _____    ______ ____

>  <TORSDO>
F 12

$$$$
=
 OpenBabel11072410583D

 42 48  0  0  1  0  0  0  0  0999 V2000
  159.6080  213.0980  147.2400 N   0  0  0  0  0  0  0  0  0  0  0  0
  160.3720  212.9400  149.5310 C   0  0  2  0  0  3  0  0  0  0  0  0
  160.3570  212.1190  146.8580 C   0  0  0  0  0  3  0  0  0  0  0  0
  161.5950  211.7060  147.6210 C   0  0  1  0  0  3  0  0  0  0  0  0
  161.6170  212.1660  149.0890 C   0  0  2  0  0  3  0  0  0  0  0  0
  159.9180  213.8730  148.4180 C   0  0  0  0  0  2  0  0  0  0  0  0
  161.2200  210.7470  148.7350 C   0  0  2  0  0  3  0  0  0  0  0  0
  162.3930  209.8210  149.0010 C   0  0  0  0  0  2  0  0  0  0  0  0
  162.2250  209.0990  150.3350 C   0  0  2  0  0  3  0  0  0  0  0  0
  161.1760  207.9830  150.1970 C   0  0  2  0  0  3  0  0  0  0  0  0
  161.3910  206.8340  151.1720 C   0  0  2  0  0  3  0  0  0  0  0  0
  160.5430  205.9530  149.0430 C   0  0  0  0  0  2  0  0  0  0  0  0
  161.1400  207.3310  148.8130 C   0  0  2  0  0  3  0  0  0  0  0  0
  160.7750  205.6120  150.5070 C   0  0  1  0  0  3  0  0  0  0  0  0
  160.7360  207.0930  152.3790 O   0  0  0  0  0  0  0  0  0  0  0  0
  161.5670  206.5520  153.3620 C   0  0  0  0  0  1  0  0  0  0  0  0
  162.4330  207.1850  148.2930 O   0  0  0  0  0  0  0  0  0  0  0  0
  162.2670  206.4420  147.1240 C   0  0  0  0  0  1  0  0  0  0  0  0
  161.6430  204.3660  150.6840 C   0  0  0  0  0  2  0  0  0  0  0  0
  160.7680  201.9630  148.1380 N   0  0  0  0  0  0  0  0  0  0  0  0
  160.5290  202.1990  150.3430 N   0  0  0  0  0  0  0  0  0  0  0  0
  161.1720  203.2510  149.8750 N   0  0  0  0  0  0  0  0  0  0  0  0
  161.3210  203.1200  148.5480 C   0  0  0  0  0  3  0  0  0  0  0  0
  160.2850  201.4130  149.2770 C   0  0  0  0  0  3  0  0  0  0  0  0
  162.5390  210.2550  152.4900 C   0  0  0  0  0  2  0  0  0  0  0  0
  161.8090  210.0810  151.3900 C   0  0  0  0  0  3  0  0  0  0  0  0
  160.6760  213.7120  150.7330 N   0  0  0  0  0  2  0  0  0  0  0  0
  156.9710  214.0160  151.5080 C   0  0  0  0  0  0  0  0  0  0  0  0
  156.9580  213.4330  152.7800 O   0  0  0  0  0  0  0  0  0  0  0  0
  158.2180  214.0290  150.6770 C   0  0  0  0  0  2  0  0  0  0  0  0
  155.8980  214.4530  151.0170 O   0  0  0  0  0  0  0  0  0  0  0  0
  158.1540  213.1680  153.5190 C   0  0  2  0  0  3  0  0  0  0  0  0
  159.3200  212.8110  152.6050 C   0  0  0  0  0  2  0  0  0  0  0  0
  159.4710  213.9010  151.5460 C   0  0  1  0  0  3  0  0  0  0  0  0
  157.8440  212.3190  156.9020 C   0  0  0  0  0  3  0  0  0  0  0  0
  155.8300  213.0800  155.6690 C   0  0  0  0  0  2  0  0  0  0  0  0
  158.6510  212.3780  155.8560 C   0  0  0  0  0  0  0  0  0  0  0  0
  156.4640  211.8730  154.9870 C   0  0  1  0  0  3  0  0  0  0  0  0
  157.9370  212.0850  154.5850 C   0  0  1  0  0  3  0  0  0  0  0  0
  156.4400  211.9780  156.5130 C   0  0  1  0  0  3  0  0  0  0  0  0
  160.1200  212.6310  155.9600 C   0  0  0  0  0  2  0  0  0  0  0  0
  160.8260  211.4860  155.5930 O   0  0  0  0  0  1  0  0  0  0  0  0
  1  6  1  0  0  0  0
  2 27  1  1  0  0  0
  3  1  2  0  0  0  0
  4  3  1  6  0  0  0
  4  7  1  0  0  0  0
  4  5  1  0  0  0  0
  5  2  1  0  0  0  0
  6  2  1  0  0  0  0
  7  8  1  0  0  0  0
  7  5  1  0  0  0  0
  8  9  1  0  0  0  0
  9 26  1  0  0  0  0
 10  9  1  0  0  0  0
 10 11  1  0  0  0  0
 11 15  1  0  0  0  0
 12 14  1  0  0  0  0
 13 12  1  0  0  0  0
 13 10  1  0  0  0  0
 14 19  1  0  0  0  0
 14 11  1  0  0  0  0
 15 16  1  0  0  0  0
 17 13  1  0  0  0  0
 18 17  1  0  0  0  0
 20 23  2  0  0  0  0
 20 24  1  0  0  0  0
 22 21  1  0  0  0  0
 22 19  1  0  0  0  0
 23 22  1  0  0  0  0
 24 21  2  0  0  0  0
 26 25  2  0  0  0  0
 27 34  1  0  0  0  0
 28 29  1  0  0  0  0
 29 32  1  0  0  0  0
 30 28  1  0  0  0  0
 30 34  1  0  0  0  0
 31 28  2  0  0  0  0
 32 39  1  0  0  0  0
 33 32  1  0  0  0  0
 34 33  1  0  0  0  0
 36 40  1  0  0  0  0
 37 41  1  0  0  0  0
 37 35  2  0  0  0  0
 38 36  1  0  0  0  0
 38 40  1  0  0  0  0
 39 38  1  0  0  0  0
 39 37  1  0  0  0  0
 40 35  1  0  0  0  0
 42 41  1  0  0  0  0
M  END
>  <MODEL>
7

>  <REMARK>
 VINA RESULT:      -6.8      3.201     10.145
  Name = 
  12 active torsions:
  status: ('A' for Active; 'I' for Inactive)
    1  A    between atoms: C_1  and  C_8
    2  A    between atoms: C_5  and  N_26
    3  A    between atoms: C_5  and  C_30
    4  A    between atoms: C_7  and  N_24
    5  A    between atoms: C_8  and  C_17
    6  A    between atoms: C_8  and  C_33
    7  A    between atoms: C_10  and  O_19
    8  A    between atoms: C_13  and  C_16
    9  A    between atoms: C_17  and  C_40
   10  A    between atoms: C_18  and  C_29
   11  A    between atoms: C_22  and  O_31
   12  A    between atoms: N_24  and  C_42
                            x       y       z     vdW  Elec       q    Type
                         _______ _______ _______ _____ _____    ______ ____

>  <TORSDO>
F 12

$$$$
=
 OpenBabel11072410583D

 42 48  0  0  1  0  0  0  0  0999 V2000
  159.9560  208.4200  156.6810 N   0  0  0  0  0  0  0  0  0  0  0  0
  161.1290  209.5770  154.9090 C   0  0  2  0  0  3  0  0  0  0  0  0
  159.9670  207.3000  156.0420 C   0  0  0  0  0  3  0  0  0  0  0  0
  160.1150  207.2320  154.5380 C   0  0  1  0  0  3  0  0  0  0  0  0
  160.7410  208.4870  153.9060 C   0  0  2  0  0  3  0  0  0  0  0  0
  160.0690  209.6860  155.9960 C   0  0  0  0  0  2  0  0  0  0  0  0
  161.5840  207.2540  154.1620 C   0  0  2  0  0  3  0  0  0  0  0  0
  161.7680  206.4990  152.8590 C   0  0  0  0  0  2  0  0  0  0  0  0
  161.3120  207.3410  151.6710 C   0  0  2  0  0  3  0  0  0  0  0  0
  160.5250  206.4650  150.6800 C   0  0  2  0  0  3  0  0  0  0  0  0
  161.0390  205.0340  150.6080 C   0  0  2  0  0  3  0  0  0  0  0  0
  160.2900  205.7490  148.3810 C   0  0  0  0  0  2  0  0  0  0  0  0
  160.5580  206.9750  149.2380 C   0  0  2  0  0  3  0  0  0  0  0  0
  160.6690  204.5370  149.2190 C   0  0  1  0  0  3  0  0  0  0  0  0
  160.4090  204.2430  151.5720 O   0  0  0  0  0  0  0  0  0  0  0  0
  161.2060  203.1020  151.6780 C   0  0  0  0  0  1  0  0  0  0  0  0
  161.8220  207.4870  148.9150 O   0  0  0  0  0  0  0  0  0  0  0  0
  161.8150  207.6100  147.5250 C   0  0  0  0  0  1  0  0  0  0  0  0
  161.7970  203.7220  148.5840 C   0  0  0  0  0  2  0  0  0  0  0  0
  160.5070  201.3310  146.2080 N   0  0  0  0  0  0  0  0  0  0  0  0
  161.3690  203.3880  146.1850 N   0  0  0  0  0  0  0  0  0  0  0  0
  161.3400  202.9580  147.4310 N   0  0  0  0  0  0  0  0  0  0  0  0
  160.8240  201.7210  147.4570 C   0  0  0  0  0  3  0  0  0  0  0  0
  160.8560  202.3890  145.4400 C   0  0  0  0  0  3  0  0  0  0  0  0
  162.6990  209.2680  151.0060 C   0  0  0  0  0  2  0  0  0  0  0  0
  162.5060  207.9500  150.9970 C   0  0  0  0  0  3  0  0  0  0  0  0
  161.2610  210.8560  154.2160 N   0  0  0  0  0  2  0  0  0  0  0  0
  157.6940  212.1280  153.9340 C   0  0  0  0  0  0  0  0  0  0  0  0
  157.7760  212.7540  152.6860 O   0  0  0  0  0  0  0  0  0  0  0  0
  158.9130  211.5550  154.5920 C   0  0  0  0  0  2  0  0  0  0  0  0
  156.6000  212.1270  154.5560 O   0  0  0  0  0  0  0  0  0  0  0  0
  158.8820  212.5660  151.7990 C   0  0  2  0  0  3  0  0  0  0  0  0
  160.1890  212.3570  152.5570 C   0  0  0  0  0  2  0  0  0  0  0  0
  160.0010  211.2270  153.5670 C   0  0  1  0  0  3  0  0  0  0  0  0
  159.0850  213.6120  148.4640 C   0  0  0  0  0  3  0  0  0  0  0  0
  156.8470  213.2640  149.4760 C   0  0  0  0  0  2  0  0  0  0  0  0
  159.7570  213.3290  149.5670 C   0  0  0  0  0  0  0  0  0  0  0  0
  157.6610  214.2680  150.2840 C   0  0  1  0  0  3  0  0  0  0  0  0
  159.0070  213.7160  150.7910 C   0  0  1  0  0  3  0  0  0  0  0  0
  157.7590  214.2390  148.7580 C   0  0  1  0  0  3  0  0  0  0  0  0
  161.1390  212.7600  149.5680 C   0  0  0  0  0  2  0  0  0  0  0  0
  161.7220  212.9270  148.3110 O   0  0  0  0  0  1  0  0  0  0  0  0
  2 27  1  6  0  0  0
  2  6  1  0  0  0  0
  3  1  2  0  0  0  0
  4  3  1  1  0  0  0
  5  7  1  0  0  0  0
  5  4  1  0  0  0  0
  5  2  1  0  0  0  0
  6  1  1  0  0  0  0
  7  4  1  0  0  0  0
  8  7  1  0  0  0  0
  9  8  1  0  0  0  0
 10  9  1  0  0  0  0
 11 10  1  0  0  0  0
 11 15  1  0  0  0  0
 12 14  1  0  0  0  0
 12 13  1  0  0  0  0
 13 10  1  0  0  0  0
 14 11  1  0  0  0  0
 15 16  1  0  0  0  0
 17 13  1  0  0  0  0
 18 17  1  0  0  0  0
 19 14  1  0  0  0  0
 20 23  2  0  0  0  0
 21 22  1  0  0  0  0
 22 23  1  0  0  0  0
 22 19  1  0  0  0  0
 24 21  2  0  0  0  0
 24 20  1  0  0  0  0
 26 25  2  0  0  0  0
 26  9  1  0  0  0  0
 28 31  2  0  0  0  0
 28 30  1  0  0  0  0
 29 28  1  0  0  0  0
 32 33  1  0  0  0  0
 32 29  1  0  0  0  0
 33 34  1  0  0  0  0
 34 27  1  0  0  0  0
 34 30  1  0  0  0  0
 35 40  1  0  0  0  0
 35 37  2  0  0  0  0
 36 38  1  0  0  0  0
 37 41  1  0  0  0  0
 37 39  1  0  0  0  0
 38 39  1  0  0  0  0
 39 32  1  0  0  0  0
 40 36  1  0  0  0  0
 40 38  1  0  0  0  0
 42 41  1  0  0  0  0
M  END
>  <MODEL>
8

>  <REMARK>
 VINA RESULT:      -6.5      2.878      9.498
  Name = 
  12 active torsions:
  status: ('A' for Active; 'I' for Inactive)
    1  A    between atoms: C_1  and  C_8
    2  A    between atoms: C_5  and  N_26
    3  A    between atoms: C_5  and  C_30
    4  A    between atoms: C_7  and  N_24
    5  A    between atoms: C_8  and  C_17
    6  A    between atoms: C_8  and  C_33
    7  A    between atoms: C_10  and  O_19
    8  A    between atoms: C_13  and  C_16
    9  A    between atoms: C_17  and  C_40
   10  A    between atoms: C_18  and  C_29
   11  A    between atoms: C_22  and  O_31
   12  A    between atoms: N_24  and  C_42
                            x       y       z     vdW  Elec       q    Type
                         _______ _______ _______ _____ _____    ______ ____

>  <TORSDO>
F 12

$$$$
=
 OpenBabel11072410583D

 42 48  0  0  1  0  0  0  0  0999 V2000
  162.0020  209.1330  150.3580 N   0  0  0  0  0  0  0  0  0  0  0  0
  161.4880  207.7220  152.2560 C   0  0  2  0  0  3  0  0  0  0  0  0
  161.9360  210.2110  151.0630 C   0  0  0  0  0  3  0  0  0  0  0  0
  161.1580  210.2810  152.3580 C   0  0  1  0  0  3  0  0  0  0  0  0
  160.8960  208.9140  153.0130 C   0  0  2  0  0  3  0  0  0  0  0  0
  161.3220  207.9230  150.7570 C   0  0  0  0  0  2  0  0  0  0  0  0
  162.0230  209.7990  153.5070 C   0  0  2  0  0  3  0  0  0  0  0  0
  161.5840  210.5000  154.7780 C   0  0  0  0  0  2  0  0  0  0  0  0
  160.0700  210.6900  154.8020 C   0  0  2  0  0  3  0  0  0  0  0  0
  159.7330  212.1800  154.9880 C   0  0  2  0  0  3  0  0  0  0  0  0
  158.5770  212.4170  155.9490 C   0  0  2  0  0  3  0  0  0  0  0  0
  158.4950  214.0790  154.1440 C   0  0  0  0  0  2  0  0  0  0  0  0
  159.3300  212.8930  153.6950 C   0  0  2  0  0  3  0  0  0  0  0  0
  157.9590  213.7410  155.5280 C   0  0  1  0  0  3  0  0  0  0  0  0
  159.0480  212.5150  157.2610 O   0  0  0  0  0  0  0  0  0  0  0  0
  160.2930  213.1370  157.1500 C   0  0  0  0  0  1  0  0  0  0  0  0
  158.5420  212.0620  152.8880 O   0  0  0  0  0  0  0  0  0  0  0  0
  158.0590  212.8960  151.8790 C   0  0  0  0  0  1  0  0  0  0  0  0
  156.4310  213.6970  155.5640 C   0  0  0  0  0  2  0  0  0  0  0  0
  155.0280  210.5410  156.6090 N   0  0  0  0  0  0  0  0  0  0  0  0
  155.9180  211.4280  154.7660 N   0  0  0  0  0  0  0  0  0  0  0  0
  155.9250  212.3410  155.7180 N   0  0  0  0  0  0  0  0  0  0  0  0
  155.3930  211.8180  156.8320 C   0  0  0  0  0  3  0  0  0  0  0  0
  155.3670  210.3280  155.3160 C   0  0  0  0  0  3  0  0  0  0  0  0
  159.2160  208.5800  155.7500 C   0  0  0  0  0  2  0  0  0  0  0  0
  159.4770  209.8760  155.9140 C   0  0  0  0  0  3  0  0  0  0  0  0
  160.8140  206.4940  152.6690 N   0  0  0  0  0  2  0  0  0  0  0  0
  161.1960  202.8760  151.5800 C   0  0  0  0  0  0  0  0  0  0  0  0
  161.1250  203.0490  150.1940 O   0  0  0  0  0  0  0  0  0  0  0  0
  160.9630  204.0240  152.5150 C   0  0  0  0  0  2  0  0  0  0  0  0
  161.3660  201.7220  152.0520 O   0  0  0  0  0  0  0  0  0  0  0  0
  161.2130  204.3340  149.5720 C   0  0  2  0  0  3  0  0  0  0  0  0
  160.6020  205.4290  150.4390 C   0  0  0  0  0  2  0  0  0  0  0  0
  161.2290  205.3670  151.8300 C   0  0  1  0  0  3  0  0  0  0  0  0
  161.6220  204.7490  146.1190 C   0  0  0  0  0  3  0  0  0  0  0  0
  162.1010  202.5320  147.1230 C   0  0  0  0  0  2  0  0  0  0  0  0
  161.2360  205.3100  147.2530 C   0  0  0  0  0  0  0  0  0  0  0  0
  160.6770  202.9770  147.4360 C   0  0  1  0  0  3  0  0  0  0  0  0
  160.5920  204.3310  148.1680 C   0  0  1  0  0  3  0  0  0  0  0  0
  161.3050  203.2880  146.0770 C   0  0  1  0  0  3  0  0  0  0  0  0
  161.3660  206.7720  147.5360 C   0  0  0  0  0  2  0  0  0  0  0  0
  162.7130  207.1330  147.5580 O   0  0  0  0  0  1  0  0  0  0  0  0
  1  6  1  0  0  0  0
  1  3  2  0  0  0  0
  2 27  1  1  0  0  0
  2  5  1  0  0  0  0
  4  3  1  6  0  0  0
  4  5  1  0  0  0  0
  4  7  1  0  0  0  0
  5  7  1  0  0  0  0
  6  2  1  0  0  0  0
  7  8  1  0  0  0  0
  8  9  1  0  0  0  0
  9 10  1  0  0  0  0
  9 26  1  0  0  0  0
 10 11  1  0  0  0  0
 11 15  1  0  0  0  0
 12 14  1  0  0  0  0
 13 12  1  0  0  0  0
 13 10  1  0  0  0  0
 14 19  1  0  0  0  0
 14 11  1  0  0  0  0
 16 15  1  0  0  0  0
 17 13  1  0  0  0  0
 18 17  1  0  0  0  0
 19 22  1  0  0  0  0
 20 23  2  0  0  0  0
 21 24  2  0  0  0  0
 21 22  1  0  0  0  0
 22 23  1  0  0  0  0
 24 20  1  0  0  0  0
 25 26  2  0  0  0  0
 28 31  2  0  0  0  0
 28 30  1  0  0  0  0
 29 28  1  0  0  0  0
 32 29  1  0  0  0  0
 32 33  1  0  0  0  0
 33 34  1  0  0  0  0
 34 30  1  0  0  0  0
 34 27  1  0  0  0  0
 35 37  2  0  0  0  0
 36 38  1  0  0  0  0
 37 41  1  0  0  0  0
 37 39  1  0  0  0  0
 38 39  1  0  0  0  0
 39 32  1  0  0  0  0
 40 35  1  0  0  0  0
 40 36  1  0  0  0  0
 40 38  1  0  0  0  0
 41 42  1  0  0  0  0
M  END
>  <MODEL>
9

>  <REMARK>
 VINA RESULT:      -6.3      1.759      2.705
  Name = 
  12 active torsions:
  status: ('A' for Active; 'I' for Inactive)
    1  A    between atoms: C_1  and  C_8
    2  A    between atoms: C_5  and  N_26
    3  A    between atoms: C_5  and  C_30
    4  A    between atoms: C_7  and  N_24
    5  A    between atoms: C_8  and  C_17
    6  A    between atoms: C_8  and  C_33
    7  A    between atoms: C_10  and  O_19
    8  A    between atoms: C_13  and  C_16
    9  A    between atoms: C_17  and  C_40
   10  A    between atoms: C_18  and  C_29
   11  A    between atoms: C_22  and  O_31
   12  A    between atoms: N_24  and  C_42
                            x       y       z     vdW  Elec       q    Type
                         _______ _______ _______ _____ _____    ______ ____

>  <TORSDO>
F 12

$$$$
