=
 OpenBabel11072414223D

 26 27  0  0  1  0  0  0  0  0999 V2000
  160.8070  209.1490  155.0890 C   0  0  1  0  0  3  0  0  0  0  0  0
  161.9700  209.6150  149.4770 N   0  0  0  0  0  1  0  0  0  0  0  0
  157.8130  211.5480  155.8430 C   0  0  1  0  0  3  0  0  0  0  0  0
  161.6660  209.5460  150.8660 C   0  0  0  0  0  0  0  0  0  0  0  0
  158.0250  213.3610  150.0720 C   0  0  0  0  0  1  0  0  0  0  0  0
  157.5250  212.0420  153.3930 C   0  0  0  0  0  2  0  0  0  0  0  0
  159.5180  209.7200  155.4810 N   0  0  0  0  0  2  0  0  0  0  0  0
  160.8610  211.8160  150.9420 N   0  0  0  0  0  0  0  0  0  0  0  0
  161.8790  208.4410  151.5190 N   0  0  0  0  0  0  0  0  0  0  0  0
  158.4720  212.7230  151.3700 C   0  0  2  0  0  3  0  0  0  0  0  0
  160.8360  210.5760  152.9710 N   0  0  0  0  0  2  0  0  0  0  0  0
  161.1090  210.7100  151.5730 C   0  0  0  0  0  0  0  0  0  0  0  0
  157.5890  213.1420  152.4460 N   0  0  0  0  0  2  0  0  0  0  0  0
  160.1770  213.2390  151.7410 S   0  0  0  0  0  0  0  0  0  0  0  0
  161.0820  209.3230  153.6250 C   0  0  0  0  0  0  0  0  0  0  0  0
  161.5900  208.3030  152.9240 C   0  0  0  0  0  3  0  0  0  0  0  0
  159.2270  211.1180  155.6010 C   0  0  0  0  0  0  0  0  0  0  0  0
  157.6970  212.0860  157.2610 C   0  0  0  0  0  1  0  0  0  0  0  0
  160.1430  211.9790  155.5070 O   0  0  0  0  0  0  0  0  0  0  0  0
  157.3450  212.5820  154.8050 C   0  0  1  0  0  3  0  0  0  0  0  0
  155.7200  214.4380  155.1600 C   0  0  0  0  0  1  0  0  0  0  0  0
  155.8770  212.9390  155.0010 C   0  0  0  0  0  2  0  0  0  0  0  0
  162.0010  209.2190  157.1720 O   0  0  0  0  0  0  0  0  0  0  0  0
  161.9320  209.6080  155.9770 C   0  0  0  0  0  0  0  0  0  0  0  0
  162.9300  210.4420  155.4760 O   0  0  0  0  0  0  0  0  0  0  0  0
  163.7720  211.0830  156.2970 O   0  0  0  0  0  1  0  0  0  0  0  0
  1  7  1  0  0  0  0
  1 24  1  1  0  0  0
  2  4  1  0  0  0  0
  3 18  1  1  0  0  0
  4  9  2  0  0  0  0
  4 12  1  0  0  0  0
  6 20  1  0  0  0  0
  7 17  1  0  0  0  0
  8 12  2  0  0  0  0
  8 14  1  0  0  0  0
  9 16  1  0  0  0  0
 10  5  1  6  0  0  0
 10 14  1  0  0  0  0
 10 13  1  0  0  0  0
 11 15  1  0  0  0  0
 12 11  1  0  0  0  0
 13  6  1  0  0  0  0
 15  1  1  0  0  0  0
 16 15  2  0  0  0  0
 17  3  1  0  0  0  0
 19 17  2  0  0  0  0
 20 22  1  1  0  0  0
 20  3  1  0  0  0  0
 22 21  1  0  0  0  0
 24 23  2  0  0  0  0
 25 24  1  0  0  0  0
 25 26  1  0  0  0  0
M  END
>  <MODEL>
1

>  <REMARK>
 VINA RESULT:      -3.8      0.000      0.000
  Name = 
  3 active torsions:
  status: ('A' for Active; 'I' for Inactive)
    1  A    between atoms: C_1  and  C_16
    2  A    between atoms: O_4  and  C_16
    3  A    between atoms: C_9  and  C_26
                            x       y       z     vdW  Elec       q    Type
                         _______ _______ _______ _____ _____    ______ ____

>  <TORSDO>
F 3

$$$$
=
 OpenBabel11072414223D

 26 27  0  0  1  0  0  0  0  0999 V2000
  161.9390  205.5510  146.2060 C   0  0  1  0  0  3  0  0  0  0  0  0
  161.1470  200.6050  149.0300 N   0  0  0  0  0  1  0  0  0  0  0  0
  162.2480  208.3720  148.8970 C   0  0  1  0  0  3  0  0  0  0  0  0
  161.3210  201.8530  148.3680 C   0  0  0  0  0  0  0  0  0  0  0  0
  161.1580  204.2070  153.1510 C   0  0  0  0  0  1  0  0  0  0  0  0
  162.2450  206.6730  150.7520 C   0  0  0  0  0  2  0  0  0  0  0  0
  162.4000  206.6540  147.0510 N   0  0  0  0  0  2  0  0  0  0  0  0
  160.2450  203.0950  150.1310 N   0  0  0  0  0  0  0  0  0  0  0  0
  161.9250  201.8940  147.2160 N   0  0  0  0  0  0  0  0  0  0  0  0
  161.2250  204.8400  151.7780 C   0  0  2  0  0  3  0  0  0  0  0  0
  161.0270  204.3200  148.2490 N   0  0  0  0  0  2  0  0  0  0  0  0
  160.8280  203.1010  148.9720 C   0  0  0  0  0  0  0  0  0  0  0  0
  161.4700  206.2660  151.9120 N   0  0  0  0  0  2  0  0  0  0  0  0
  159.6490  204.5680  150.9100 S   0  0  0  0  0  0  0  0  0  0  0  0
  161.7150  204.2930  146.9910 C   0  0  0  0  0  0  0  0  0  0  0  0
  162.1380  203.1230  146.4960 C   0  0  0  0  0  3  0  0  0  0  0  0
  161.5910  207.3870  147.9790 C   0  0  0  0  0  0  0  0  0  0  0  0
  161.8550  209.7790  148.4740 C   0  0  0  0  0  1  0  0  0  0  0  0
  160.3430  207.2120  148.0280 O   0  0  0  0  0  0  0  0  0  0  0  0
  161.8950  208.1040  150.3700 C   0  0  1  0  0  3  0  0  0  0  0  0
  161.6650  209.8390  152.1450 C   0  0  0  0  0  1  0  0  0  0  0  0
  162.6450  209.0490  151.3000 C   0  0  0  0  0  2  0  0  0  0  0  0
  159.5990  205.9010  145.7870 O   0  0  0  0  0  0  0  0  0  0  0  0
  160.7750  205.9420  145.3370 C   0  0  0  0  0  0  0  0  0  0  0  0
  160.9870  206.3850  144.0330 O   0  0  0  0  0  0  0  0  0  0  0  0
  161.5480  205.5890  143.1140 O   0  0  0  0  0  1  0  0  0  0  0  0
  1 24  1  1  0  0  0
  1 15  1  0  0  0  0
  1  7  1  0  0  0  0
  3 18  1  6  0  0  0
  3 20  1  0  0  0  0
  4 12  1  0  0  0  0
  4  2  1  0  0  0  0
  6 13  1  0  0  0  0
  7 17  1  0  0  0  0
  8 14  1  0  0  0  0
  9  4  2  0  0  0  0
 10 13  1  0  0  0  0
 10  5  1  1  0  0  0
 11 12  1  0  0  0  0
 12  8  2  0  0  0  0
 14 10  1  0  0  0  0
 15 11  1  0  0  0  0
 16 15  2  0  0  0  0
 16  9  1  0  0  0  0
 17 19  2  0  0  0  0
 17  3  1  0  0  0  0
 20  6  1  0  0  0  0
 20 22  1  1  0  0  0
 22 21  1  0  0  0  0
 24 23  2  0  0  0  0
 25 24  1  0  0  0  0
 26 25  1  0  0  0  0
M  END
>  <MODEL>
2

>  <REMARK>
 VINA RESULT:      -3.4      6.718      9.347
  Name = 
  3 active torsions:
  status: ('A' for Active; 'I' for Inactive)
    1  A    between atoms: C_1  and  C_16
    2  A    between atoms: O_4  and  C_16
    3  A    between atoms: C_9  and  C_26
                            x       y       z     vdW  Elec       q    Type
                         _______ _______ _______ _____ _____    ______ ____

>  <TORSDO>
F 3

$$$$
=
 OpenBabel11072414223D

 26 27  0  0  1  0  0  0  0  0999 V2000
  160.2820  201.6440  147.6580 C   0  0  1  0  0  3  0  0  0  0  0  0
  161.1980  205.6250  143.6100 N   0  0  0  0  0  1  0  0  0  0  0  0
  160.4720  203.4600  151.1160 C   0  0  1  0  0  3  0  0  0  0  0  0
  160.9990  204.6650  144.6430 C   0  0  0  0  0  0  0  0  0  0  0  0
  161.9100  208.5530  148.1780 C   0  0  0  0  0  1  0  0  0  0  0  0
  160.6370  205.7020  149.9870 C   0  0  0  0  0  2  0  0  0  0  0  0
  159.9920  202.1950  148.9820 N   0  0  0  0  0  2  0  0  0  0  0  0
  162.3590  205.8780  146.2190 N   0  0  0  0  0  0  0  0  0  0  0  0
  160.2500  203.6240  144.4220 N   0  0  0  0  0  0  0  0  0  0  0  0
  161.6930  207.0740  148.4200 C   0  0  2  0  0  3  0  0  0  0  0  0
  161.3950  203.8310  146.9510 N   0  0  0  0  0  2  0  0  0  0  0  0
  161.6290  204.8380  145.9620 C   0  0  0  0  0  0  0  0  0  0  0  0
  161.5380  206.8330  149.8450 N   0  0  0  0  0  2  0  0  0  0  0  0
  163.1240  206.1430  147.7930 S   0  0  0  0  0  0  0  0  0  0  0  0
  160.5460  202.7170  146.6440 C   0  0  0  0  0  0  0  0  0  0  0  0
  160.0040  202.6190  145.4240 C   0  0  0  0  0  3  0  0  0  0  0  0
  160.9520  202.7840  149.8680 C   0  0  0  0  0  0  0  0  0  0  0  0
  160.8750  202.6200  152.3180 C   0  0  0  0  0  1  0  0  0  0  0  0
  162.1850  202.7370  149.6090 O   0  0  0  0  0  0  0  0  0  0  0  0
  161.0040  204.8990  151.2270 C   0  0  1  0  0  3  0  0  0  0  0  0
  161.5510  206.0670  153.3600 C   0  0  0  0  0  1  0  0  0  0  0  0
  160.4310  205.6090  152.4470 C   0  0  0  0  0  2  0  0  0  0  0  0
  161.7790  200.1540  148.8020 O   0  0  0  0  0  0  0  0  0  0  0  0
  161.3390  200.5740  147.7000 C   0  0  0  0  0  0  0  0  0  0  0  0
  161.8180  200.0110  146.5190 O   0  0  0  0  0  0  0  0  0  0  0  0
  161.1770  198.9950  145.9270 O   0  0  0  0  0  1  0  0  0  0  0  0
  1 24  1  1  0  0  0
  1  7  1  0  0  0  0
  2  4  1  0  0  0  0
  3 20  1  0  0  0  0
  3 18  1  1  0  0  0
  4 12  1  0  0  0  0
  6 20  1  0  0  0  0
  7 17  1  0  0  0  0
  8 14  1  0  0  0  0
  9  4  2  0  0  0  0
  9 16  1  0  0  0  0
 10  5  1  1  0  0  0
 10 13  1  0  0  0  0
 12  8  2  0  0  0  0
 12 11  1  0  0  0  0
 13  6  1  0  0  0  0
 14 10  1  0  0  0  0
 15 11  1  0  0  0  0
 15  1  1  0  0  0  0
 16 15  2  0  0  0  0
 17  3  1  0  0  0  0
 19 17  2  0  0  0  0
 20 22  1  1  0  0  0
 22 21  1  0  0  0  0
 24 23  2  0  0  0  0
 25 24  1  0  0  0  0
 26 25  1  0  0  0  0
M  END
>  <MODEL>
3

>  <REMARK>
 VINA RESULT:      -3.4      7.731      9.922
  Name = 
  3 active torsions:
  status: ('A' for Active; 'I' for Inactive)
    1  A    between atoms: C_1  and  C_16
    2  A    between atoms: O_4  and  C_16
    3  A    between atoms: C_9  and  C_26
                            x       y       z     vdW  Elec       q    Type
                         _______ _______ _______ _____ _____    ______ ____

>  <TORSDO>
F 3

$$$$
=
 OpenBabel11072414223D

 26 27  0  0  1  0  0  0  0  0999 V2000
  158.6180  212.2000  152.0460 C   0  0  1  0  0  3  0  0  0  0  0  0
  156.2830  211.5540  157.2610 N   0  0  0  0  0  1  0  0  0  0  0  0
  161.2200  209.3170  151.5890 C   0  0  1  0  0  3  0  0  0  0  0  0
  156.9020  211.6930  155.9860 C   0  0  0  0  0  0  0  0  0  0  0  0
  160.0350  207.5690  157.2600 C   0  0  0  0  0  1  0  0  0  0  0  0
  160.4930  208.2490  153.7470 C   0  0  0  0  0  2  0  0  0  0  0  0
  159.3650  211.0320  151.5770 N   0  0  0  0  0  2  0  0  0  0  0  0
  158.9660  210.6940  156.7270 N   0  0  0  0  0  0  0  0  0  0  0  0
  156.2370  212.2190  154.9990 N   0  0  0  0  0  0  0  0  0  0  0  0
  160.0770  208.4570  156.0350 C   0  0  2  0  0  3  0  0  0  0  0  0
  158.8520  211.4240  154.4670 N   0  0  0  0  0  2  0  0  0  0  0  0
  158.2870  211.2450  155.7700 C   0  0  0  0  0  0  0  0  0  0  0  0
  161.0000  207.8980  155.0630 N   0  0  0  0  0  2  0  0  0  0  0  0
  160.6280  210.1230  156.5150 S   0  0  0  0  0  0  0  0  0  0  0  0
  158.0560  211.9970  153.4210 C   0  0  0  0  0  0  0  0  0  0  0  0
  156.8020  212.3840  153.6850 C   0  0  0  0  0  3  0  0  0  0  0  0
  160.6620  210.6320  152.0380 C   0  0  0  0  0  0  0  0  0  0  0  0
  162.3770  209.5730  150.6340 C   0  0  0  0  0  1  0  0  0  0  0  0
  161.3290  211.3720  152.8110 O   0  0  0  0  0  0  0  0  0  0  0  0
  161.6510  208.4430  152.7780 C   0  0  1  0  0  3  0  0  0  0  0  0
  160.9710  206.2940  151.7130 C   0  0  0  0  0  1  0  0  0  0  0  0
  162.1260  207.0710  152.3150 C   0  0  0  0  0  2  0  0  0  0  0  0
  159.4170  214.3310  152.8140 O   0  0  0  0  0  0  0  0  0  0  0  0
  159.3930  213.4790  151.8870 C   0  0  0  0  0  0  0  0  0  0  0  0
  160.1220  213.7220  150.7240 O   0  0  0  0  0  0  0  0  0  0  0  0
  159.5560  213.6050  149.5160 O   0  0  0  0  0  1  0  0  0  0  0  0
  1 24  1  1  0  0  0
  1 15  1  0  0  0  0
  3 18  1  6  0  0  0
  3 17  1  0  0  0  0
  3 20  1  0  0  0  0
  4  2  1  0  0  0  0
  6 13  1  0  0  0  0
  7 17  1  0  0  0  0
  7  1  1  0  0  0  0
  9  4  2  0  0  0  0
 10 14  1  0  0  0  0
 10  5  1  1  0  0  0
 11 12  1  0  0  0  0
 12  4  1  0  0  0  0
 12  8  2  0  0  0  0
 13 10  1  0  0  0  0
 14  8  1  0  0  0  0
 15 16  2  0  0  0  0
 15 11  1  0  0  0  0
 16  9  1  0  0  0  0
 17 19  2  0  0  0  0
 20 22  1  6  0  0  0
 20  6  1  0  0  0  0
 21 22  1  0  0  0  0
 24 23  2  0  0  0  0
 25 24  1  0  0  0  0
 26 25  1  0  0  0  0
M  END
>  <MODEL>
4

>  <REMARK>
 VINA RESULT:      -3.2      2.688      6.704
  Name = 
  3 active torsions:
  status: ('A' for Active; 'I' for Inactive)
    1  A    between atoms: C_1  and  C_16
    2  A    between atoms: O_4  and  C_16
    3  A    between atoms: C_9  and  C_26
                            x       y       z     vdW  Elec       q    Type
                         _______ _______ _______ _____ _____    ______ ____

>  <TORSDO>
F 3

$$$$
=
 OpenBabel11072414223D

 26 27  0  0  1  0  0  0  0  0999 V2000
  161.9190  205.0320  151.9420 C   0  0  1  0  0  3  0  0  0  0  0  0
  162.3310  209.7130  148.6280 N   0  0  0  0  0  1  0  0  0  0  0  0
  161.4850  201.9680  149.5500 C   0  0  1  0  0  3  0  0  0  0  0  0
  162.2020  208.5330  149.4140 C   0  0  0  0  0  0  0  0  0  0  0  0
  161.3970  205.8270  144.8890 C   0  0  0  0  0  1  0  0  0  0  0  0
  161.8760  203.4220  147.5350 C   0  0  0  0  0  2  0  0  0  0  0  0
  162.0810  203.7710  151.2170 N   0  0  0  0  0  2  0  0  0  0  0  0
  160.8290  207.4260  147.7720 N   0  0  0  0  0  0  0  0  0  0  0  0
  162.7930  208.4590  150.5700 N   0  0  0  0  0  0  0  0  0  0  0  0
  161.3250  205.3380  146.3190 C   0  0  2  0  0  3  0  0  0  0  0  0
  161.3100  206.2400  149.7760 N   0  0  0  0  0  2  0  0  0  0  0  0
  161.4080  207.3920  148.9320 C   0  0  0  0  0  0  0  0  0  0  0  0
  161.2080  203.8890  146.3310 N   0  0  0  0  0  2  0  0  0  0  0  0
  159.8770  206.0750  147.1380 S   0  0  0  0  0  0  0  0  0  0  0  0
  162.0010  206.2220  151.0320 C   0  0  0  0  0  0  0  0  0  0  0  0
  162.7060  207.2940  151.4130 C   0  0  0  0  0  3  0  0  0  0  0  0
  161.1040  203.1710  150.3570 C   0  0  0  0  0  0  0  0  0  0  0  0
  160.7620  200.7510  150.1080 C   0  0  0  0  0  1  0  0  0  0  0  0
  159.9370  203.6430  150.2770 O   0  0  0  0  0  0  0  0  0  0  0  0
  161.1880  202.1670  148.0540 C   0  0  1  0  0  3  0  0  0  0  0  0
  160.7410  200.7450  146.0560 C   0  0  0  0  0  1  0  0  0  0  0  0
  161.6690  200.9780  147.2320 C   0  0  0  0  0  2  0  0  0  0  0  0
  160.1290  203.9490  153.1240 O   0  0  0  0  0  0  0  0  0  0  0  0
  160.7060  205.0300  152.8330 C   0  0  0  0  0  0  0  0  0  0  0  0
  160.2280  206.2210  153.3740 O   0  0  0  0  0  0  0  0  0  0  0  0
  160.8330  206.7980  154.4200 O   0  0  0  0  0  1  0  0  0  0  0  0
  1 24  1  6  0  0  0
  2  4  1  0  0  0  0
  3 18  1  1  0  0  0
  3 17  1  0  0  0  0
  4  9  2  0  0  0  0
  6 20  1  0  0  0  0
  7  1  1  0  0  0  0
  8 12  2  0  0  0  0
  9 16  1  0  0  0  0
 10  5  1  6  0  0  0
 10 13  1  0  0  0  0
 10 14  1  0  0  0  0
 11 15  1  0  0  0  0
 12  4  1  0  0  0  0
 12 11  1  0  0  0  0
 13  6  1  0  0  0  0
 14  8  1  0  0  0  0
 15 16  2  0  0  0  0
 15  1  1  0  0  0  0
 17  7  1  0  0  0  0
 19 17  2  0  0  0  0
 20 22  1  6  0  0  0
 20  3  1  0  0  0  0
 21 22  1  0  0  0  0
 24 23  2  0  0  0  0
 24 25  1  0  0  0  0
 25 26  1  0  0  0  0
M  END
>  <MODEL>
5

>  <REMARK>
 VINA RESULT:      -3.1      5.995      8.941
  Name = 
  3 active torsions:
  status: ('A' for Active; 'I' for Inactive)
    1  A    between atoms: C_1  and  C_16
    2  A    between atoms: O_4  and  C_16
    3  A    between atoms: C_9  and  C_26
                            x       y       z     vdW  Elec       q    Type
                         _______ _______ _______ _____ _____    ______ ____

>  <TORSDO>
F 3

$$$$
=
 OpenBabel11072414223D

 26 27  0  0  1  0  0  0  0  0999 V2000
  161.5790  208.5840  154.6890 C   0  0  1  0  0  3  0  0  0  0  0  0
  158.6460  212.9880  156.9410 N   0  0  0  0  0  1  0  0  0  0  0  0
  162.1760  209.4140  150.9150 C   0  0  1  0  0  3  0  0  0  0  0  0
  159.3520  211.9070  156.3400 C   0  0  0  0  0  0  0  0  0  0  0  0
  158.9040  214.4490  151.6730 C   0  0  0  0  0  1  0  0  0  0  0  0
  161.2220  211.7220  151.2190 C   0  0  0  0  0  2  0  0  0  0  0  0
  162.1720  208.8680  153.3810 N   0  0  0  0  0  2  0  0  0  0  0  0
  158.3700  212.2910  154.1730 N   0  0  0  0  0  0  0  0  0  0  0  0
  160.1750  211.1960  157.0550 N   0  0  0  0  0  0  0  0  0  0  0  0
  159.4700  213.0750  151.9610 C   0  0  2  0  0  3  0  0  0  0  0  0
  159.8960  210.4790  154.3790 N   0  0  0  0  0  2  0  0  0  0  0  0
  159.1640  211.5850  154.9170 C   0  0  0  0  0  0  0  0  0  0  0  0
  160.1230  212.5590  150.7690 N   0  0  0  0  0  2  0  0  0  0  0  0
  158.1220  211.9570  152.4530 S   0  0  0  0  0  0  0  0  0  0  0  0
  160.7980  209.7490  155.2210 C   0  0  0  0  0  0  0  0  0  0  0  0
  160.9220  210.0930  156.5080 C   0  0  0  0  0  3  0  0  0  0  0  0
  161.4570  208.9430  152.1410 C   0  0  0  0  0  0  0  0  0  0  0  0
  162.3570  208.2380  149.9670 C   0  0  0  0  0  1  0  0  0  0  0  0
  160.2400  208.6190  152.0760 O   0  0  0  0  0  0  0  0  0  0  0  0
  161.4410  210.5810  150.2340 C   0  0  1  0  0  3  0  0  0  0  0  0
  161.2920  211.4570  147.9050 C   0  0  0  0  0  1  0  0  0  0  0  0
  162.2310  211.1160  149.0460 C   0  0  0  0  0  2  0  0  0  0  0  0
  161.2410  206.2920  154.0540 O   0  0  0  0  0  0  0  0  0  0  0  0
  160.8220  207.2840  154.7070 C   0  0  0  0  0  0  0  0  0  0  0  0
  159.6670  207.1530  155.4740 O   0  0  0  0  0  0  0  0  0  0  0  0
  159.7330  206.8690  156.7820 O   0  0  0  0  0  1  0  0  0  0  0  0
  1 24  1  6  0  0  0
  1 15  1  0  0  0  0
  3 18  1  6  0  0  0
  3 17  1  0  0  0  0
  4  2  1  0  0  0  0
  4  9  2  0  0  0  0
  7  1  1  0  0  0  0
  8 12  2  0  0  0  0
 10  5  1  6  0  0  0
 10 14  1  0  0  0  0
 11 12  1  0  0  0  0
 11 15  1  0  0  0  0
 12  4  1  0  0  0  0
 13  6  1  0  0  0  0
 13 10  1  0  0  0  0
 14  8  1  0  0  0  0
 15 16  2  0  0  0  0
 16  9  1  0  0  0  0
 17  7  1  0  0  0  0
 19 17  2  0  0  0  0
 20 22  1  6  0  0  0
 20  3  1  0  0  0  0
 20  6  1  0  0  0  0
 21 22  1  0  0  0  0
 23 24  2  0  0  0  0
 24 25  1  0  0  0  0
 25 26  1  0  0  0  0
M  END
>  <MODEL>
6

>  <REMARK>
 VINA RESULT:      -3.1      2.660      5.361
  Name = 
  3 active torsions:
  status: ('A' for Active; 'I' for Inactive)
    1  A    between atoms: C_1  and  C_16
    2  A    between atoms: O_4  and  C_16
    3  A    between atoms: C_9  and  C_26
                            x       y       z     vdW  Elec       q    Type
                         _______ _______ _______ _____ _____    ______ ____

>  <TORSDO>
F 3

$$$$
=
 OpenBabel11072414223D

 26 27  0  0  1  0  0  0  0  0999 V2000
  161.8210  208.2760  154.3100 C   0  0  1  0  0  3  0  0  0  0  0  0
  158.9670  212.3020  157.2610 N   0  0  0  0  0  1  0  0  0  0  0  0
  162.1800  209.5810  150.6410 C   0  0  1  0  0  3  0  0  0  0  0  0
  159.6500  211.3200  156.4890 C   0  0  0  0  0  0  0  0  0  0  0  0
  158.8920  214.4130  152.2110 C   0  0  0  0  0  1  0  0  0  0  0  0
  161.2150  211.8130  151.2860 C   0  0  0  0  0  2  0  0  0  0  0  0
  162.3300  208.7320  153.0160 N   0  0  0  0  0  2  0  0  0  0  0  0
  158.5370  211.9500  154.4480 N   0  0  0  0  0  0  0  0  0  0  0  0
  160.5240  210.5430  157.0610 N   0  0  0  0  0  0  0  0  0  0  0  0
  159.4920  213.0260  152.2920 C   0  0  2  0  0  3  0  0  0  0  0  0
  160.0970  210.1590  154.3360 N   0  0  0  0  0  2  0  0  0  0  0  0
  159.3820  211.1730  155.0500 C   0  0  0  0  0  0  0  0  0  0  0  0
  160.0800  212.6760  151.0100 N   0  0  0  0  0  2  0  0  0  0  0  0
  158.1910  211.8270  152.7160 S   0  0  0  0  0  0  0  0  0  0  0  0
  161.0560  209.3480  155.0270 C   0  0  0  0  0  0  0  0  0  0  0  0
  161.2520  209.5320  156.3390 C   0  0  0  0  0  3  0  0  0  0  0  0
  161.5420  208.9460  151.8380 C   0  0  0  0  0  0  0  0  0  0  0  0
  162.3200  208.5360  149.5450 C   0  0  0  0  0  1  0  0  0  0  0  0
  160.3280  208.6070  151.8020 O   0  0  0  0  0  0  0  0  0  0  0  0
  161.3910  210.8080  150.1560 C   0  0  1  0  0  3  0  0  0  0  0  0
  161.1190  211.7950  147.8830 C   0  0  0  0  0  1  0  0  0  0  0  0
  162.1010  211.5030  149.0000 C   0  0  0  0  0  2  0  0  0  0  0  0
  159.9360  206.8410  154.7100 O   0  0  0  0  0  0  0  0  0  0  0  0
  161.0840  206.9680  154.2080 C   0  0  0  0  0  0  0  0  0  0  0  0
  161.6500  205.8920  153.5260 O   0  0  0  0  0  0  0  0  0  0  0  0
  161.1020  205.4230  152.3970 O   0  0  0  0  0  1  0  0  0  0  0  0
  1 24  1  6  0  0  0
  1 15  1  0  0  0  0
  3 18  1  6  0  0  0
  3 17  1  0  0  0  0
  4  9  2  0  0  0  0
  4  2  1  0  0  0  0
  7  1  1  0  0  0  0
  8 12  2  0  0  0  0
 10  5  1  6  0  0  0
 10 14  1  0  0  0  0
 11 15  1  0  0  0  0
 11 12  1  0  0  0  0
 12  4  1  0  0  0  0
 13  6  1  0  0  0  0
 13 10  1  0  0  0  0
 14  8  1  0  0  0  0
 15 16  2  0  0  0  0
 16  9  1  0  0  0  0
 17  7  1  0  0  0  0
 19 17  2  0  0  0  0
 20 22  1  6  0  0  0
 20  3  1  0  0  0  0
 20  6  1  0  0  0  0
 21 22  1  0  0  0  0
 24 23  2  0  0  0  0
 25 24  1  0  0  0  0
 26 25  1  0  0  0  0
M  END
>  <MODEL>
7

>  <REMARK>
 VINA RESULT:      -3.0      2.795      5.442
  Name = 
  3 active torsions:
  status: ('A' for Active; 'I' for Inactive)
    1  A    between atoms: C_1  and  C_16
    2  A    between atoms: O_4  and  C_16
    3  A    between atoms: C_9  and  C_26
                            x       y       z     vdW  Elec       q    Type
                         _______ _______ _______ _____ _____    ______ ____

>  <TORSDO>
F 3

$$$$
=
 OpenBabel11072414223D

 26 27  0  0  1  0  0  0  0  0999 V2000
  160.2800  203.8420  150.9530 C   0  0  1  0  0  3  0  0  0  0  0  0
  160.8310  200.7910  146.1100 N   0  0  0  0  0  1  0  0  0  0  0  0
  160.9890  207.5780  150.0430 C   0  0  1  0  0  3  0  0  0  0  0  0
  160.7270  201.5790  147.2920 C   0  0  0  0  0  0  0  0  0  0  0  0
  162.2470  205.7930  144.3980 C   0  0  0  0  0  1  0  0  0  0  0  0
  161.1000  207.0130  147.5940 C   0  0  0  0  0  2  0  0  0  0  0  0
  160.1860  205.2870  150.7420 N   0  0  0  0  0  2  0  0  0  0  0  0
  162.3280  203.2030  146.5140 N   0  0  0  0  0  0  0  0  0  0  0  0
  159.9130  201.2160  148.2400 N   0  0  0  0  0  0  0  0  0  0  0  0
  162.0010  205.6970  145.8890 C   0  0  2  0  0  3  0  0  0  0  0  0
  161.3830  203.5420  148.6700 N   0  0  0  0  0  2  0  0  0  0  0  0
  161.5280  202.8030  147.4530 C   0  0  0  0  0  0  0  0  0  0  0  0
  162.0220  207.0290  146.4710 N   0  0  0  0  0  2  0  0  0  0  0  0
  163.3000  204.6760  146.6510 S   0  0  0  0  0  0  0  0  0  0  0  0
  160.4560  203.0910  149.6670 C   0  0  0  0  0  0  0  0  0  0  0  0
  159.7570  201.9690  149.4580 C   0  0  0  0  0  3  0  0  0  0  0  0
  161.2760  206.1510  150.3960 C   0  0  0  0  0  0  0  0  0  0  0  0
  161.5080  208.4760  151.1560 C   0  0  0  0  0  1  0  0  0  0  0  0
  162.4630  205.7240  150.3890 O   0  0  0  0  0  0  0  0  0  0  0  0
  161.5900  207.9610  148.6800 C   0  0  1  0  0  3  0  0  0  0  0  0
  162.3310  210.3410  148.6360 C   0  0  0  0  0  1  0  0  0  0  0  0
  161.2090  209.3830  148.2860 C   0  0  0  0  0  2  0  0  0  0  0  0
  162.2330  202.6910  151.7490 O   0  0  0  0  0  0  0  0  0  0  0  0
  161.2880  203.4800  152.0110 C   0  0  0  0  0  0  0  0  0  0  0  0
  161.2060  204.0430  153.2830 O   0  0  0  0  0  0  0  0  0  0  0  0
  161.5350  205.3240  153.4950 O   0  0  0  0  0  1  0  0  0  0  0  0
  1 24  1  1  0  0  0
  2  4  1  0  0  0  0
  3 17  1  0  0  0  0
  3 18  1  1  0  0  0
  4 12  1  0  0  0  0
  4  9  2  0  0  0  0
  6 20  1  0  0  0  0
  7  1  1  0  0  0  0
  8 14  1  0  0  0  0
  8 12  2  0  0  0  0
  9 16  1  0  0  0  0
 10  5  1  6  0  0  0
 10 13  1  0  0  0  0
 10 14  1  0  0  0  0
 11 15  1  0  0  0  0
 12 11  1  0  0  0  0
 13  6  1  0  0  0  0
 15  1  1  0  0  0  0
 16 15  2  0  0  0  0
 17  7  1  0  0  0  0
 19 17  2  0  0  0  0
 20 22  1  6  0  0  0
 20  3  1  0  0  0  0
 22 21  1  0  0  0  0
 23 24  2  0  0  0  0
 24 25  1  0  0  0  0
 25 26  1  0  0  0  0
M  END
>  <MODEL>
8

>  <REMARK>
 VINA RESULT:      -2.8      6.194      8.519
  Name = 
  3 active torsions:
  status: ('A' for Active; 'I' for Inactive)
    1  A    between atoms: C_1  and  C_16
    2  A    between atoms: O_4  and  C_16
    3  A    between atoms: C_9  and  C_26
                            x       y       z     vdW  Elec       q    Type
                         _______ _______ _______ _____ _____    ______ ____

>  <TORSDO>
F 3

$$$$
=
 OpenBabel11072414223D

 26 27  0  0  1  0  0  0  0  0999 V2000
  161.3650  205.8510  146.6320 C   0  0  1  0  0  3  0  0  0  0  0  0
  162.0510  209.8620  150.6950 N   0  0  0  0  0  1  0  0  0  0  0  0
  160.5120  202.5010  148.4590 C   0  0  1  0  0  3  0  0  0  0  0  0
  161.8960  208.8350  149.7210 C   0  0  0  0  0  0  0  0  0  0  0  0
  161.2450  205.3810  153.7320 C   0  0  0  0  0  1  0  0  0  0  0  0
  160.3570  203.6880  150.6720 C   0  0  0  0  0  2  0  0  0  0  0  0
  160.7240  204.6240  147.1060 N   0  0  0  0  0  2  0  0  0  0  0  0
  162.6370  207.1050  151.2260 N   0  0  0  0  0  0  0  0  0  0  0  0
  161.4580  209.1330  148.5320 N   0  0  0  0  0  0  0  0  0  0  0  0
  161.3330  205.1110  152.2450 C   0  0  2  0  0  3  0  0  0  0  0  0
  162.0540  206.4560  149.0140 N   0  0  0  0  0  2  0  0  0  0  0  0
  162.2230  207.4370  150.0430 C   0  0  0  0  0  0  0  0  0  0  0  0
  160.9860  203.7250  151.9810 N   0  0  0  0  0  2  0  0  0  0  0  0
  163.0280  205.4370  151.6700 S   0  0  0  0  0  0  0  0  0  0  0  0
  161.5520  206.8530  147.7310 C   0  0  0  0  0  0  0  0  0  0  0  0
  161.2740  208.1420  147.5030 C   0  0  0  0  0  3  0  0  0  0  0  0
  161.3490  203.6130  147.9080 C   0  0  0  0  0  0  0  0  0  0  0  0
  160.8750  201.2090  147.7430 C   0  0  0  0  0  1  0  0  0  0  0  0
  162.5860  203.6540  148.1500 O   0  0  0  0  0  0  0  0  0  0  0  0
  160.6710  202.3670  149.9830 C   0  0  1  0  0  3  0  0  0  0  0  0
  158.5630  201.0880  149.6150 C   0  0  0  0  0  1  0  0  0  0  0  0
  159.7420  201.2980  150.5450 C   0  0  0  0  0  2  0  0  0  0  0  0
  163.6710  205.2150  146.4170 O   0  0  0  0  0  0  0  0  0  0  0  0
  162.6130  205.5770  145.8380 C   0  0  0  0  0  0  0  0  0  0  0  0
  162.6040  205.6880  144.4490 O   0  0  0  0  0  0  0  0  0  0  0  0
  161.4720  205.5310  143.7500 O   0  0  0  0  0  1  0  0  0  0  0  0
  1 24  1  1  0  0  0
  1  7  1  0  0  0  0
  1 15  1  0  0  0  0
  3 18  1  6  0  0  0
  3 20  1  0  0  0  0
  4 12  1  0  0  0  0
  4  2  1  0  0  0  0
  6 13  1  0  0  0  0
  7 17  1  0  0  0  0
  8 14  1  0  0  0  0
  9  4  2  0  0  0  0
 10  5  1  1  0  0  0
 11 12  1  0  0  0  0
 12  8  2  0  0  0  0
 13 10  1  0  0  0  0
 14 10  1  0  0  0  0
 15 11  1  0  0  0  0
 16 15  2  0  0  0  0
 16  9  1  0  0  0  0
 17 19  2  0  0  0  0
 17  3  1  0  0  0  0
 20 22  1  1  0  0  0
 20  6  1  0  0  0  0
 21 22  1  0  0  0  0
 24 23  2  0  0  0  0
 25 24  1  0  0  0  0
 26 25  1  0  0  0  0
M  END
>  <MODEL>
9

>  <REMARK>
 VINA RESULT:      -2.7      6.796      9.760
  Name = 
  3 active torsions:
  status: ('A' for Active; 'I' for Inactive)
    1  A    between atoms: C_1  and  C_16
    2  A    between atoms: O_4  and  C_16
    3  A    between atoms: C_9  and  C_26
                            x       y       z     vdW  Elec       q    Type
                         _______ _______ _______ _____ _____    ______ ____

>  <TORSDO>
F 3

$$$$
