=
 OpenBabel11072414223D

 26 28  0  0  1  0  0  0  0  0999 V2000
  161.0270  208.1130  153.6800 C   0  0  0  0  0  0  0  0  0  0  0  0
  160.6870  210.8080  153.9960 N   0  0  0  0  0  0  0  0  0  0  0  0
  160.7780  210.3060  152.7360 C   0  0  0  0  0  3  0  0  0  0  0  0
  160.9320  208.6520  154.9220 N   0  0  0  0  0  0  0  0  0  0  0  0
  161.1980  206.7430  153.5070 C   0  0  0  0  0  3  0  0  0  0  0  0
  161.0450  208.4030  151.3060 N   0  0  0  0  0  0  0  0  0  0  0  0
  161.3050  206.5640  149.7680 N   0  0  0  0  0  2  0  0  0  0  0  0
  161.2970  206.1910  152.2200 C   0  0  0  0  0  0  0  0  0  0  0  0
  161.2150  207.0660  151.1060 C   0  0  0  0  0  0  0  0  0  0  0  0
  160.9510  208.9380  152.5500 C   0  0  0  0  0  0  0  0  0  0  0  0
  160.7630  209.9920  155.0830 C   0  0  0  0  0  3  0  0  0  0  0  0
  160.4400  203.8090  152.4360 N   0  0  0  0  0  1  0  0  0  0  0  0
  161.4800  204.7220  152.0990 C   0  0  0  0  0  0  0  0  0  0  0  0
  162.5780  204.2590  151.6890 O   0  0  0  0  0  0  0  0  0  0  0  0
  161.2530  207.4240  148.5970 C   0  0  1  0  0  3  0  0  0  0  0  0
  162.4070  208.2080  148.5420 O   0  0  0  0  0  1  0  0  0  0  0  0
  161.1530  206.5620  147.3480 C   0  0  0  0  0  2  0  0  0  0  0  0
  162.3490  205.6260  147.2260 C   0  0  0  0  0  2  0  0  0  0  0  0
  161.4940  203.5610  148.3520 C   0  0  0  0  0  2  0  0  0  0  0  0
  160.8020  204.1400  145.9730 C   0  0  0  0  0  2  0  0  0  0  0  0
  161.9110  204.1850  147.0140 C   0  0  1  0  0  3  0  0  0  0  0  0
  160.4040  201.6410  145.8610 C   0  0  0  0  0  2  0  0  0  0  0  0
  160.7670  201.4090  149.8110 Cl  0  0  0  0  0  0  0  0  0  0  0  0
  160.6890  202.2610  148.2530 C   0  0  2  0  0  3  0  0  0  0  0  0
  161.1720  201.3390  147.1420 C   0  0  0  0  0  2  0  0  0  0  0  0
  160.9430  202.8730  145.1390 C   0  0  0  0  0  2  0  0  0  0  0  0
  1  4  1  0  0  0  0
  2 11  1  0  0  0  0
  3  2  2  0  0  0  0
  4 11  2  0  0  0  0
  5  1  1  0  0  0  0
  6 10  1  0  0  0  0
  7  9  1  0  0  0  0
  8  5  2  0  0  0  0
  9  6  2  0  0  0  0
  9  8  1  0  0  0  0
 10  3  1  0  0  0  0
 10  1  2  0  0  0  0
 13  8  1  0  0  0  0
 13 12  1  0  0  0  0
 14 13  2  0  0  0  0
 15 16  1  6  0  0  0
 15  7  1  0  0  0  0
 17 15  1  0  0  0  0
 18 17  1  0  0  0  0
 20 21  1  0  0  0  0
 21 18  1  1  0  0  0
 21 19  1  0  0  0  0
 22 25  1  0  0  0  0
 24 19  1  0  0  0  0
 24 23  1  1  0  0  0
 25 24  1  0  0  0  0
 26 22  1  0  0  0  0
 26 20  1  0  0  0  0
M  END
>  <MODEL>
1

>  <REMARK>
 VINA RESULT:      -8.5      0.000      0.000
  Name = 
  5 active torsions:
  status: ('A' for Active; 'I' for Inactive)
    1  A    between atoms: C_7  and  C_14
    2  A    between atoms: C_7  and  C_19
    3  A    between atoms: C_11  and  C_13
    4  A    between atoms: N_12  and  C_23
    5  A    between atoms: C_19  and  C_23
                            x       y       z     vdW  Elec       q    Type
                         _______ _______ _______ _____ _____    ______ ____

>  <TORSDO>
F 5

$$$$
=
 OpenBabel11072414223D

 26 28  0  0  1  0  0  0  0  0999 V2000
  158.8360  211.4760  154.7210 C   0  0  0  0  0  0  0  0  0  0  0  0
  157.7050  213.3730  153.1090 N   0  0  0  0  0  0  0  0  0  0  0  0
  158.4660  212.4030  152.5380 C   0  0  0  0  0  3  0  0  0  0  0  0
  158.0690  212.4620  155.2540 N   0  0  0  0  0  0  0  0  0  0  0  0
  159.4160  210.5050  155.5320 C   0  0  0  0  0  3  0  0  0  0  0  0
  159.8180  210.4430  152.8010 N   0  0  0  0  0  0  0  0  0  0  0  0
  161.1930  208.4670  152.9420 N   0  0  0  0  0  2  0  0  0  0  0  0
  160.2080  209.4880  154.9760 C   0  0  0  0  0  0  0  0  0  0  0  0
  160.3990  209.4790  153.5700 C   0  0  0  0  0  0  0  0  0  0  0  0
  159.0520  211.4270  153.3380 C   0  0  0  0  0  0  0  0  0  0  0  0
  157.5060  213.4070  154.4550 C   0  0  0  0  0  3  0  0  0  0  0  0
  160.1070  207.2850  156.2370 N   0  0  0  0  0  1  0  0  0  0  0  0
  160.8010  208.4810  155.8920 C   0  0  0  0  0  0  0  0  0  0  0  0
  161.9450  208.6760  156.3830 O   0  0  0  0  0  0  0  0  0  0  0  0
  161.4390  208.4310  151.5090 C   0  0  1  0  0  3  0  0  0  0  0  0
  162.5090  209.2720  151.1990 O   0  0  0  0  0  1  0  0  0  0  0  0
  161.7620  207.0050  151.0930 C   0  0  0  0  0  2  0  0  0  0  0  0
  160.9350  206.5820  149.8860 C   0  0  0  0  0  2  0  0  0  0  0  0
  161.1040  204.5450  148.4400 C   0  0  0  0  0  2  0  0  0  0  0  0
  161.5770  204.4250  150.9380 C   0  0  0  0  0  2  0  0  0  0  0  0
  160.7500  205.0730  149.8370 C   0  0  1  0  0  3  0  0  0  0  0  0
  160.9670  201.9940  150.5730 C   0  0  0  0  0  2  0  0  0  0  0  0
  161.1770  202.5330  146.6420 Cl  0  0  0  0  0  0  0  0  0  0  0  0
  161.3250  203.0330  148.3420 C   0  0  2  0  0  3  0  0  0  0  0  0
  160.3560  202.2270  149.1970 C   0  0  0  0  0  2  0  0  0  0  0  0
  160.8320  203.2130  151.4820 C   0  0  0  0  0  2  0  0  0  0  0  0
  1  4  1  0  0  0  0
  1  5  1  0  0  0  0
  2 11  1  0  0  0  0
  3  2  2  0  0  0  0
  3 10  1  0  0  0  0
  6 10  1  0  0  0  0
  6  9  2  0  0  0  0
  7  9  1  0  0  0  0
  8  5  2  0  0  0  0
  8 13  1  0  0  0  0
  9  8  1  0  0  0  0
 10  1  2  0  0  0  0
 11  4  2  0  0  0  0
 13 12  1  0  0  0  0
 13 14  2  0  0  0  0
 15 16  1  1  0  0  0
 15  7  1  0  0  0  0
 17 15  1  0  0  0  0
 18 17  1  0  0  0  0
 19 21  1  0  0  0  0
 20 26  1  0  0  0  0
 21 18  1  6  0  0  0
 21 20  1  0  0  0  0
 22 26  1  0  0  0  0
 24 23  1  6  0  0  0
 24 19  1  0  0  0  0
 24 25  1  0  0  0  0
 25 22  1  0  0  0  0
M  END
>  <MODEL>
2

>  <REMARK>
 VINA RESULT:      -8.2      2.557      4.076
  Name = 
  5 active torsions:
  status: ('A' for Active; 'I' for Inactive)
    1  A    between atoms: C_7  and  C_14
    2  A    between atoms: C_7  and  C_19
    3  A    between atoms: C_11  and  C_13
    4  A    between atoms: N_12  and  C_23
    5  A    between atoms: C_19  and  C_23
                            x       y       z     vdW  Elec       q    Type
                         _______ _______ _______ _____ _____    ______ ____

>  <TORSDO>
F 5

$$$$
=
 OpenBabel11072414223D

 26 28  0  0  1  0  0  0  0  0999 V2000
  161.0890  203.6190  149.0280 C   0  0  0  0  0  0  0  0  0  0  0  0
  161.1200  202.7920  151.6340 N   0  0  0  0  0  0  0  0  0  0  0  0
  161.4000  204.0940  151.3610 C   0  0  0  0  0  3  0  0  0  0  0  0
  160.8140  202.3270  149.3420 N   0  0  0  0  0  0  0  0  0  0  0  0
  161.0740  204.0510  147.7050 C   0  0  0  0  0  3  0  0  0  0  0  0
  161.6650  205.8300  149.7320 N   0  0  0  0  0  0  0  0  0  0  0  0
  161.9550  207.6590  148.1870 N   0  0  0  0  0  2  0  0  0  0  0  0
  161.3590  205.3890  147.3860 C   0  0  0  0  0  0  0  0  0  0  0  0
  161.6600  206.2820  148.4460 C   0  0  0  0  0  0  0  0  0  0  0  0
  161.3910  204.5380  150.0410 C   0  0  0  0  0  0  0  0  0  0  0  0
  160.8300  201.9120  150.6370 C   0  0  0  0  0  3  0  0  0  0  0  0
  160.1250  206.2210  145.3270 N   0  0  0  0  0  1  0  0  0  0  0  0
  161.3290  205.7900  145.9570 C   0  0  0  0  0  0  0  0  0  0  0  0
  162.3870  205.7540  145.2730 O   0  0  0  0  0  0  0  0  0  0  0  0
  162.2950  208.6050  149.2370 C   0  0  1  0  0  3  0  0  0  0  0  0
  162.1680  209.9070  148.7490 O   0  0  0  0  0  1  0  0  0  0  0  0
  161.3590  208.4000  150.4170 C   0  0  0  0  0  2  0  0  0  0  0  0
  161.5440  209.4920  151.4640 C   0  0  0  0  0  2  0  0  0  0  0  0
  160.5090  209.9360  153.7000 C   0  0  0  0  0  2  0  0  0  0  0  0
  160.7300  207.5650  152.8030 C   0  0  0  0  0  2  0  0  0  0  0  0
  161.3490  208.9540  152.8730 C   0  0  1  0  0  3  0  0  0  0  0  0
  160.6270  207.0050  155.2710 C   0  0  0  0  0  2  0  0  0  0  0  0
  159.4720  210.7230  156.0640 Cl  0  0  0  0  0  0  0  0  0  0  0  0
  159.9210  209.3740  154.9980 C   0  0  2  0  0  3  0  0  0  0  0  0
  160.8710  208.4370  155.7310 C   0  0  0  0  0  2  0  0  0  0  0  0
  161.2900  206.7060  153.9300 C   0  0  0  0  0  2  0  0  0  0  0  0
  1  4  2  0  0  0  0
  1 10  1  0  0  0  0
  3  2  1  0  0  0  0
  4 11  1  0  0  0  0
  5  1  1  0  0  0  0
  6 10  1  0  0  0  0
  7  9  1  0  0  0  0
  7 15  1  0  0  0  0
  8  5  2  0  0  0  0
  8  9  1  0  0  0  0
  9  6  2  0  0  0  0
 10  3  2  0  0  0  0
 11  2  2  0  0  0  0
 12 13  1  0  0  0  0
 13  8  1  0  0  0  0
 14 13  2  0  0  0  0
 15 16  1  6  0  0  0
 15 17  1  0  0  0  0
 17 18  1  0  0  0  0
 19 24  1  0  0  0  0
 20 21  1  0  0  0  0
 20 26  1  0  0  0  0
 21 18  1  6  0  0  0
 21 19  1  0  0  0  0
 22 25  1  0  0  0  0
 24 25  1  0  0  0  0
 24 23  1  1  0  0  0
 26 22  1  0  0  0  0
M  END
>  <MODEL>
3

>  <REMARK>
 VINA RESULT:      -8.1      3.449      7.222
  Name = 
  5 active torsions:
  status: ('A' for Active; 'I' for Inactive)
    1  A    between atoms: C_7  and  C_14
    2  A    between atoms: C_7  and  C_19
    3  A    between atoms: C_11  and  C_13
    4  A    between atoms: N_12  and  C_23
    5  A    between atoms: C_19  and  C_23
                            x       y       z     vdW  Elec       q    Type
                         _______ _______ _______ _____ _____    ______ ____

>  <TORSDO>
F 5

$$$$
=
 OpenBabel11072414223D

 26 28  0  0  1  0  0  0  0  0999 V2000
  161.0740  202.9730  148.3460 C   0  0  0  0  0  0  0  0  0  0  0  0
  160.9220  201.5890  150.6990 N   0  0  0  0  0  0  0  0  0  0  0  0
  161.1640  202.9250  150.7450 C   0  0  0  0  0  3  0  0  0  0  0  0
  160.8340  201.6370  148.3420 N   0  0  0  0  0  0  0  0  0  0  0  0
  161.1520  203.6880  147.1550 C   0  0  0  0  0  3  0  0  0  0  0  0
  161.4860  204.9870  149.5680 N   0  0  0  0  0  0  0  0  0  0  0  0
  161.8220  207.1200  148.4950 N   0  0  0  0  0  2  0  0  0  0  0  0
  161.4020  205.0700  147.1640 C   0  0  0  0  0  0  0  0  0  0  0  0
  161.5690  205.7130  148.4180 C   0  0  0  0  0  0  0  0  0  0  0  0
  161.2460  203.6510  149.5600 C   0  0  0  0  0  0  0  0  0  0  0  0
  160.7580  200.9460  149.5110 C   0  0  0  0  0  3  0  0  0  0  0  0
  160.3090  206.2990  145.2280 N   0  0  0  0  0  1  0  0  0  0  0  0
  161.4750  205.7780  145.8620 C   0  0  0  0  0  0  0  0  0  0  0  0
  162.5890  205.9300  145.2920 O   0  0  0  0  0  0  0  0  0  0  0  0
  162.0270  207.8180  149.7540 C   0  0  1  0  0  3  0  0  0  0  0  0
  162.0870  209.1930  149.5200 O   0  0  0  0  0  1  0  0  0  0  0  0
  160.8750  207.5020  150.6940 C   0  0  0  0  0  2  0  0  0  0  0  0
  161.3830  207.1020  152.0740 C   0  0  0  0  0  2  0  0  0  0  0  0
  160.8960  207.2880  154.5220 C   0  0  0  0  0  2  0  0  0  0  0  0
  161.5140  209.3380  153.1480 C   0  0  0  0  0  2  0  0  0  0  0  0
  160.8040  207.9920  153.1620 C   0  0  1  0  0  3  0  0  0  0  0  0
  160.2580  210.5190  155.0040 C   0  0  0  0  0  2  0  0  0  0  0  0
  160.2960  207.1760  157.1510 Cl  0  0  0  0  0  0  0  0  0  0  0  0
  160.7020  208.1870  155.7470 C   0  0  2  0  0  3  0  0  0  0  0  0
  159.6250  209.2450  155.5510 C   0  0  0  0  0  2  0  0  0  0  0  0
  160.5200  210.4370  153.5030 C   0  0  0  0  0  2  0  0  0  0  0  0
  1 10  1  0  0  0  0
  2  3  1  0  0  0  0
  4  1  2  0  0  0  0
  4 11  1  0  0  0  0
  5  8  2  0  0  0  0
  5  1  1  0  0  0  0
  7 15  1  0  0  0  0
  8  9  1  0  0  0  0
  9  7  1  0  0  0  0
  9  6  2  0  0  0  0
 10  6  1  0  0  0  0
 10  3  2  0  0  0  0
 11  2  2  0  0  0  0
 12 13  1  0  0  0  0
 13  8  1  0  0  0  0
 14 13  2  0  0  0  0
 15 16  1  6  0  0  0
 15 17  1  0  0  0  0
 17 18  1  0  0  0  0
 19 24  1  0  0  0  0
 20 21  1  0  0  0  0
 20 26  1  0  0  0  0
 21 18  1  6  0  0  0
 21 19  1  0  0  0  0
 22 25  1  0  0  0  0
 24 23  1  1  0  0  0
 25 24  1  0  0  0  0
 26 22  1  0  0  0  0
M  END
>  <MODEL>
4

>  <REMARK>
 VINA RESULT:      -8.0      3.171      7.667
  Name = 
  5 active torsions:
  status: ('A' for Active; 'I' for Inactive)
    1  A    between atoms: C_7  and  C_14
    2  A    between atoms: C_7  and  C_19
    3  A    between atoms: C_11  and  C_13
    4  A    between atoms: N_12  and  C_23
    5  A    between atoms: C_19  and  C_23
                            x       y       z     vdW  Elec       q    Type
                         _______ _______ _______ _____ _____    ______ ____

>  <TORSDO>
F 5

$$$$
=
 OpenBabel11072414223D

 26 28  0  0  1  0  0  0  0  0999 V2000
  161.6200  209.2660  151.3620 C   0  0  0  0  0  0  0  0  0  0  0  0
  162.2050  209.6120  148.7130 N   0  0  0  0  0  0  0  0  0  0  0  0
  162.0980  208.3470  149.1960 C   0  0  0  0  0  3  0  0  0  0  0  0
  161.7350  210.5150  150.8410 N   0  0  0  0  0  0  0  0  0  0  0  0
  161.3220  209.0780  152.7080 C   0  0  0  0  0  3  0  0  0  0  0  0
  161.6880  206.8960  151.0570 N   0  0  0  0  0  0  0  0  0  0  0  0
  161.2890  205.3370  152.8530 N   0  0  0  0  0  2  0  0  0  0  0  0
  161.2050  207.7850  153.2410 C   0  0  0  0  0  0  0  0  0  0  0  0
  161.3980  206.6800  152.3720 C   0  0  0  0  0  0  0  0  0  0  0  0
  161.8020  208.1460  150.5420 C   0  0  0  0  0  0  0  0  0  0  0  0
  162.0260  210.6910  149.5240 C   0  0  0  0  0  3  0  0  0  0  0  0
  161.5190  208.4600  155.6700 N   0  0  0  0  0  1  0  0  0  0  0  0
  160.8860  207.6480  154.6850 C   0  0  0  0  0  0  0  0  0  0  0  0
  160.0360  206.7960  155.0610 O   0  0  0  0  0  0  0  0  0  0  0  0
  161.5030  204.1740  152.0080 C   0  0  1  0  0  3  0  0  0  0  0  0
  161.0800  203.0250  152.6780 O   0  0  0  0  0  1  0  0  0  0  0  0
  160.7150  204.3410  150.7180 C   0  0  0  0  0  2  0  0  0  0  0  0
  160.5170  203.0040  150.0160 C   0  0  0  0  0  2  0  0  0  0  0  0
  161.4430  204.3860  148.1450 C   0  0  0  0  0  2  0  0  0  0  0  0
  161.1770  201.8660  147.9090 C   0  0  0  0  0  2  0  0  0  0  0  0
  160.6110  203.1470  148.5050 C   0  0  1  0  0  3  0  0  0  0  0  0
  161.1200  202.4630  145.4480 C   0  0  0  0  0  2  0  0  0  0  0  0
  162.3780  206.1320  146.3120 Cl  0  0  0  0  0  0  0  0  0  0  0  0
  161.9350  204.4540  146.6960 C   0  0  2  0  0  3  0  0  0  0  0  0
  160.9090  203.9530  145.6890 C   0  0  0  0  0  2  0  0  0  0  0  0
  160.5210  201.6050  146.5580 C   0  0  0  0  0  2  0  0  0  0  0  0
  1  5  1  0  0  0  0
  2  3  2  0  0  0  0
  2 11  1  0  0  0  0
  3 10  1  0  0  0  0
  4  1  1  0  0  0  0
  5  8  2  0  0  0  0
  6  9  2  0  0  0  0
  8 13  1  0  0  0  0
  9  7  1  0  0  0  0
  9  8  1  0  0  0  0
 10  6  1  0  0  0  0
 10  1  2  0  0  0  0
 11  4  2  0  0  0  0
 13 14  2  0  0  0  0
 13 12  1  0  0  0  0
 15 16  1  1  0  0  0
 15  7  1  0  0  0  0
 17 15  1  0  0  0  0
 18 17  1  0  0  0  0
 19 21  1  0  0  0  0
 20 21  1  0  0  0  0
 21 18  1  1  0  0  0
 22 25  1  0  0  0  0
 22 26  1  0  0  0  0
 24 23  1  6  0  0  0
 24 19  1  0  0  0  0
 25 24  1  0  0  0  0
 26 20  1  0  0  0  0
M  END
>  <MODEL>
5

>  <REMARK>
 VINA RESULT:      -8.0      2.231      3.881
  Name = 
  5 active torsions:
  status: ('A' for Active; 'I' for Inactive)
    1  A    between atoms: C_7  and  C_14
    2  A    between atoms: C_7  and  C_19
    3  A    between atoms: C_11  and  C_13
    4  A    between atoms: N_12  and  C_23
    5  A    between atoms: C_19  and  C_23
                            x       y       z     vdW  Elec       q    Type
                         _______ _______ _______ _____ _____    ______ ____

>  <TORSDO>
F 5

$$$$
=
 OpenBabel11072414223D

 26 28  0  0  1  0  0  0  0  0999 V2000
  161.1260  203.9420  146.2170 C   0  0  0  0  0  0  0  0  0  0  0  0
  160.8990  206.5630  145.4710 N   0  0  0  0  0  0  0  0  0  0  0  0
  160.8330  206.2540  146.7930 C   0  0  0  0  0  3  0  0  0  0  0  0
  161.1870  204.2900  144.9060 N   0  0  0  0  0  0  0  0  0  0  0  0
  161.2410  202.6110  146.6090 C   0  0  0  0  0  3  0  0  0  0  0  0
  160.8830  204.5840  148.5080 N   0  0  0  0  0  0  0  0  0  0  0  0
  160.9200  202.9930  150.3200 N   0  0  0  0  0  2  0  0  0  0  0  0
  161.1760  202.2570  147.9660 C   0  0  0  0  0  0  0  0  0  0  0  0
  160.9910  203.2890  148.9220 C   0  0  0  0  0  0  0  0  0  0  0  0
  160.9450  204.9270  147.1970 C   0  0  0  0  0  0  0  0  0  0  0  0
  161.0750  205.5930  144.5320 C   0  0  0  0  0  3  0  0  0  0  0  0
  161.5610  199.8260  147.3350 N   0  0  0  0  0  1  0  0  0  0  0  0
  161.3040  200.8210  148.3220 C   0  0  0  0  0  0  0  0  0  0  0  0
  161.1860  200.4600  149.5240 O   0  0  0  0  0  0  0  0  0  0  0  0
  160.7060  204.0130  151.3340 C   0  0  1  0  0  3  0  0  0  0  0  0
  160.4410  203.4020  152.5610 O   0  0  0  0  0  1  0  0  0  0  0  0
  161.9510  204.8780  151.4440 C   0  0  0  0  0  2  0  0  0  0  0  0
  161.9150  205.7400  152.7000 C   0  0  0  0  0  2  0  0  0  0  0  0
  161.9600  207.4130  150.8380 C   0  0  0  0  0  2  0  0  0  0  0  0
  160.7680  207.9190  153.0290 C   0  0  0  0  0  2  0  0  0  0  0  0
  161.9450  207.2220  152.3610 C   0  0  1  0  0  3  0  0  0  0  0  0
  161.1960  210.3060  152.2970 C   0  0  0  0  0  2  0  0  0  0  0  0
  162.2030  209.0120  148.6770 Cl  0  0  0  0  0  0  0  0  0  0  0  0
  161.6190  208.8220  150.3450 C   0  0  2  0  0  3  0  0  0  0  0  0
  162.2030  209.9230  151.2190 C   0  0  0  0  0  2  0  0  0  0  0  0
  161.1880  209.3190  153.4600 C   0  0  0  0  0  2  0  0  0  0  0  0
  1  5  1  0  0  0  0
  1 10  1  0  0  0  0
  2  3  1  0  0  0  0
  3 10  2  0  0  0  0
  4  1  2  0  0  0  0
  5  8  2  0  0  0  0
  6  9  2  0  0  0  0
  7 15  1  0  0  0  0
  8 13  1  0  0  0  0
  8  9  1  0  0  0  0
  9  7  1  0  0  0  0
 10  6  1  0  0  0  0
 11  4  1  0  0  0  0
 11  2  2  0  0  0  0
 12 13  1  0  0  0  0
 13 14  2  0  0  0  0
 15 17  1  0  0  0  0
 15 16  1  1  0  0  0
 17 18  1  0  0  0  0
 19 21  1  0  0  0  0
 20 26  1  0  0  0  0
 21 18  1  6  0  0  0
 21 20  1  0  0  0  0
 22 26  1  0  0  0  0
 24 23  1  6  0  0  0
 24 19  1  0  0  0  0
 24 25  1  0  0  0  0
 25 22  1  0  0  0  0
M  END
>  <MODEL>
6

>  <REMARK>
 VINA RESULT:      -7.9      3.348      7.396
  Name = 
  5 active torsions:
  status: ('A' for Active; 'I' for Inactive)
    1  A    between atoms: C_7  and  C_14
    2  A    between atoms: C_7  and  C_19
    3  A    between atoms: C_11  and  C_13
    4  A    between atoms: N_12  and  C_23
    5  A    between atoms: C_19  and  C_23
                            x       y       z     vdW  Elec       q    Type
                         _______ _______ _______ _____ _____    ______ ____

>  <TORSDO>
F 5

$$$$
=
 OpenBabel11072414223D

 26 28  0  0  1  0  0  0  0  0999 V2000
  161.6020  209.1540  151.2840 C   0  0  0  0  0  0  0  0  0  0  0  0
  162.1870  209.5690  148.6450 N   0  0  0  0  0  0  0  0  0  0  0  0
  162.1120  208.2910  149.1020 C   0  0  0  0  0  3  0  0  0  0  0  0
  161.6850  210.4160  150.7880 N   0  0  0  0  0  0  0  0  0  0  0  0
  161.3040  208.9320  152.6240 C   0  0  0  0  0  3  0  0  0  0  0  0
  161.7340  206.7930  150.9320 N   0  0  0  0  0  0  0  0  0  0  0  0
  161.3700  205.1880  152.6950 N   0  0  0  0  0  2  0  0  0  0  0  0
  161.2200  207.6250  153.1310 C   0  0  0  0  0  0  0  0  0  0  0  0
  161.4450  206.5440  152.2410 C   0  0  0  0  0  0  0  0  0  0  0  0
  161.8170  208.0560  150.4420 C   0  0  0  0  0  0  0  0  0  0  0  0
  161.9760  210.6250  149.4760 C   0  0  0  0  0  3  0  0  0  0  0  0
  161.5780  208.1900  155.5820 N   0  0  0  0  0  1  0  0  0  0  0  0
  160.8990  207.4510  154.5700 C   0  0  0  0  0  0  0  0  0  0  0  0
  160.0070  206.6320  154.9190 O   0  0  0  0  0  0  0  0  0  0  0  0
  161.6190  204.0490  151.8270 C   0  0  1  0  0  3  0  0  0  0  0  0
  161.3840  202.8660  152.5310 O   0  0  0  0  0  1  0  0  0  0  0  0
  160.6950  204.1270  150.6220 C   0  0  0  0  0  2  0  0  0  0  0  0
  160.7810  202.8610  149.7790 C   0  0  0  0  0  2  0  0  0  0  0  0
  160.4660  202.2380  147.3740 C   0  0  0  0  0  2  0  0  0  0  0  0
  160.9470  204.6420  148.0550 C   0  0  0  0  0  2  0  0  0  0  0  0
  161.1980  203.1700  148.3490 C   0  0  1  0  0  3  0  0  0  0  0  0
  161.8020  204.7680  145.6740 C   0  0  0  0  0  2  0  0  0  0  0  0
  160.1080  201.2620  144.8830 Cl  0  0  0  0  0  0  0  0  0  0  0  0
  160.4930  202.6650  145.9040 C   0  0  2  0  0  3  0  0  0  0  0  0
  161.8290  203.2580  145.4750 C   0  0  0  0  0  2  0  0  0  0  0  0
  162.0370  205.1650  147.1280 C   0  0  0  0  0  2  0  0  0  0  0  0
  1  5  1  0  0  0  0
  2  3  2  0  0  0  0
  2 11  1  0  0  0  0
  3 10  1  0  0  0  0
  4  1  1  0  0  0  0
  5  8  2  0  0  0  0
  6  9  2  0  0  0  0
  8 13  1  0  0  0  0
  9  7  1  0  0  0  0
  9  8  1  0  0  0  0
 10  6  1  0  0  0  0
 10  1  2  0  0  0  0
 11  4  2  0  0  0  0
 13 14  2  0  0  0  0
 13 12  1  0  0  0  0
 15 16  1  1  0  0  0
 15  7  1  0  0  0  0
 17 15  1  0  0  0  0
 18 17  1  0  0  0  0
 19 21  1  0  0  0  0
 20 21  1  0  0  0  0
 21 18  1  1  0  0  0
 22 26  1  0  0  0  0
 24 23  1  6  0  0  0
 24 19  1  0  0  0  0
 25 22  1  0  0  0  0
 25 24  1  0  0  0  0
 26 20  1  0  0  0  0
M  END
>  <MODEL>
7

>  <REMARK>
 VINA RESULT:      -7.8      2.127      3.831
  Name = 
  5 active torsions:
  status: ('A' for Active; 'I' for Inactive)
    1  A    between atoms: C_7  and  C_14
    2  A    between atoms: C_7  and  C_19
    3  A    between atoms: C_11  and  C_13
    4  A    between atoms: N_12  and  C_23
    5  A    between atoms: C_19  and  C_23
                            x       y       z     vdW  Elec       q    Type
                         _______ _______ _______ _____ _____    ______ ____

>  <TORSDO>
F 5

$$$$
=
 OpenBabel11072414223D

 26 28  0  0  1  0  0  0  0  0999 V2000
  160.8490  208.6020  153.3350 C   0  0  0  0  0  0  0  0  0  0  0  0
  160.6420  208.4720  156.0580 N   0  0  0  0  0  0  0  0  0  0  0  0
  160.8610  207.3220  155.3670 C   0  0  0  0  0  3  0  0  0  0  0  0
  160.6310  209.7280  154.0620 N   0  0  0  0  0  0  0  0  0  0  0  0
  160.9580  208.6560  151.9480 C   0  0  0  0  0  3  0  0  0  0  0  0
  161.1880  206.2360  153.2570 N   0  0  0  0  0  0  0  0  0  0  0  0
  161.5320  205.0330  151.1950 N   0  0  0  0  0  2  0  0  0  0  0  0
  161.1840  207.4890  151.2020 C   0  0  0  0  0  0  0  0  0  0  0  0
  161.2980  206.2580  151.8980 C   0  0  0  0  0  0  0  0  0  0  0  0
  160.9690  207.3640  153.9790 C   0  0  0  0  0  0  0  0  0  0  0  0
  160.5270  209.6660  155.4160 C   0  0  0  0  0  3  0  0  0  0  0  0
  162.3180  208.3820  149.1120 N   0  0  0  0  0  1  0  0  0  0  0  0
  161.2900  207.6100  149.7260 C   0  0  0  0  0  0  0  0  0  0  0  0
  160.4570  207.0200  148.9870 O   0  0  0  0  0  0  0  0  0  0  0  0
  161.6300  203.7450  151.8620 C   0  0  1  0  0  3  0  0  0  0  0  0
  160.5090  203.5530  152.6720 O   0  0  0  0  0  1  0  0  0  0  0  0
  161.7080  202.6450  150.8160 C   0  0  0  0  0  2  0  0  0  0  0  0
  160.3810  202.4840  150.0850 C   0  0  0  0  0  2  0  0  0  0  0  0
  161.4200  203.9350  148.3300 C   0  0  0  0  0  2  0  0  0  0  0  0
  161.0830  201.4430  147.9410 C   0  0  0  0  0  2  0  0  0  0  0  0
  160.5370  202.7070  148.5890 C   0  0  1  0  0  3  0  0  0  0  0  0
  161.1370  202.1770  145.5180 C   0  0  0  0  0  2  0  0  0  0  0  0
  162.4770  205.7480  146.6320 Cl  0  0  0  0  0  0  0  0  0  0  0  0
  161.9680  204.0670  146.9050 C   0  0  2  0  0  3  0  0  0  0  0  0
  160.9650  203.6580  145.8360 C   0  0  0  0  0  2  0  0  0  0  0  0
  160.4710  201.2800  146.5560 C   0  0  0  0  0  2  0  0  0  0  0  0
  1 10  2  0  0  0  0
  1  4  1  0  0  0  0
  3  2  2  0  0  0  0
  4 11  2  0  0  0  0
  5  1  1  0  0  0  0
  6 10  1  0  0  0  0
  7 15  1  0  0  0  0
  7  9  1  0  0  0  0
  8  9  1  0  0  0  0
  8  5  2  0  0  0  0
  9  6  2  0  0  0  0
 10  3  1  0  0  0  0
 11  2  1  0  0  0  0
 12 13  1  0  0  0  0
 13  8  1  0  0  0  0
 14 13  2  0  0  0  0
 15 16  1  1  0  0  0
 17 15  1  0  0  0  0
 18 17  1  0  0  0  0
 19 21  1  0  0  0  0
 20 21  1  0  0  0  0
 21 18  1  1  0  0  0
 22 25  1  0  0  0  0
 22 26  1  0  0  0  0
 24 23  1  6  0  0  0
 24 19  1  0  0  0  0
 25 24  1  0  0  0  0
 26 20  1  0  0  0  0
M  END
>  <MODEL>
8

>  <REMARK>
 VINA RESULT:      -7.8      1.774      3.455
  Name = 
  5 active torsions:
  status: ('A' for Active; 'I' for Inactive)
    1  A    between atoms: C_7  and  C_14
    2  A    between atoms: C_7  and  C_19
    3  A    between atoms: C_11  and  C_13
    4  A    between atoms: N_12  and  C_23
    5  A    between atoms: C_19  and  C_23
                            x       y       z     vdW  Elec       q    Type
                         _______ _______ _______ _____ _____    ______ ____

>  <TORSDO>
F 5

$$$$
=
 OpenBabel11072414223D

 26 28  0  0  1  0  0  0  0  0999 V2000
  160.4990  210.8280  153.4750 C   0  0  0  0  0  0  0  0  0  0  0  0
  159.6910  211.1340  156.0690 N   0  0  0  0  0  0  0  0  0  0  0  0
  160.0860  209.9020  155.6510 C   0  0  0  0  0  3  0  0  0  0  0  0
  160.0980  212.0430  153.9310 N   0  0  0  0  0  0  0  0  0  0  0  0
  160.9140  210.6620  152.1570 C   0  0  0  0  0  3  0  0  0  0  0  0
  160.9020  208.5070  153.8840 N   0  0  0  0  0  0  0  0  0  0  0  0
  161.7250  207.0060  152.1850 N   0  0  0  0  0  2  0  0  0  0  0  0
  161.3270  209.4040  151.6910 C   0  0  0  0  0  0  0  0  0  0  0  0
  161.3120  208.3130  152.5980 C   0  0  0  0  0  0  0  0  0  0  0  0
  160.5010  209.7220  154.3350 C   0  0  0  0  0  0  0  0  0  0  0  0
  159.6950  212.1980  155.2210 C   0  0  0  0  0  3  0  0  0  0  0  0
  162.2310  210.4150  149.5430 N   0  0  0  0  0  1  0  0  0  0  0  0
  161.7580  209.2880  150.2740 C   0  0  0  0  0  0  0  0  0  0  0  0
  161.7080  208.1700  149.6940 O   0  0  0  0  0  0  0  0  0  0  0  0
  161.7010  205.8530  153.0700 C   0  0  1  0  0  3  0  0  0  0  0  0
  160.8420  206.1050  154.1410 O   0  0  0  0  0  1  0  0  0  0  0  0
  161.2200  204.6370  152.2950 C   0  0  0  0  0  2  0  0  0  0  0  0
  160.6630  205.0360  150.9340 C   0  0  0  0  0  2  0  0  0  0  0  0
  161.2050  204.2920  148.6050 C   0  0  0  0  0  2  0  0  0  0  0  0
  161.4240  202.6980  150.5770 C   0  0  0  0  0  2  0  0  0  0  0  0
  160.6510  203.8590  149.9690 C   0  0  1  0  0  3  0  0  0  0  0  0
  161.1260  200.9680  148.7510 C   0  0  0  0  0  2  0  0  0  0  0  0
  161.6850  203.7790  145.9990 Cl  0  0  0  0  0  0  0  0  0  0  0  0
  161.5990  203.1520  147.6600 C   0  0  2  0  0  3  0  0  0  0  0  0
  160.6400  201.9710  147.7120 C   0  0  0  0  0  2  0  0  0  0  0  0
  160.7640  201.3850  150.1730 C   0  0  0  0  0  2  0  0  0  0  0  0
  1  4  2  0  0  0  0
  1 10  1  0  0  0  0
  3  2  1  0  0  0  0
  4 11  1  0  0  0  0
  5  1  1  0  0  0  0
  6 10  1  0  0  0  0
  7  9  1  0  0  0  0
  7 15  1  0  0  0  0
  8  5  2  0  0  0  0
  8  9  1  0  0  0  0
  9  6  2  0  0  0  0
 10  3  2  0  0  0  0
 11  2  2  0  0  0  0
 12 13  1  0  0  0  0
 13  8  1  0  0  0  0
 14 13  2  0  0  0  0
 15 16  1  1  0  0  0
 17 15  1  0  0  0  0
 18 17  1  0  0  0  0
 19 21  1  0  0  0  0
 21 20  1  0  0  0  0
 21 18  1  1  0  0  0
 22 26  1  0  0  0  0
 24 23  1  6  0  0  0
 24 25  1  0  0  0  0
 24 19  1  0  0  0  0
 25 22  1  0  0  0  0
 26 20  1  0  0  0  0
M  END
>  <MODEL>
9

>  <REMARK>
 VINA RESULT:      -7.6      2.014      3.879
  Name = 
  5 active torsions:
  status: ('A' for Active; 'I' for Inactive)
    1  A    between atoms: C_7  and  C_14
    2  A    between atoms: C_7  and  C_19
    3  A    between atoms: C_11  and  C_13
    4  A    between atoms: N_12  and  C_23
    5  A    between atoms: C_19  and  C_23
                            x       y       z     vdW  Elec       q    Type
                         _______ _______ _______ _____ _____    ______ ____

>  <TORSDO>
F 5

$$$$
