=
 OpenBabel11072413573D

 29 32  0  0  1  0  0  0  0  0999 V2000
  161.0070  205.6060  152.9020 C   0  0  0  0  0  2  0  0  0  0  0  0
  161.1270  204.9060  151.7690 C   0  0  0  0  0  0  0  0  0  0  0  0
  161.2530  207.7740  151.6790 C   0  0  0  0  0  0  0  0  0  0  0  0
  161.8630  209.8740  150.7280 O   0  0  0  0  0  0  0  0  0  0  0  0
  161.1540  205.6360  150.4640 C   0  0  0  0  0  0  0  0  0  0  0  0
  161.3160  202.5010  151.0830 C   0  0  0  0  0  3  0  0  0  0  0  0
  161.3790  207.1010  150.5330 C   0  0  0  0  0  3  0  0  0  0  0  0
  160.8270  202.5900  149.7120 C   0  0  0  0  0  3  0  0  0  0  0  0
  160.7340  207.0810  152.9170 C   0  0  2  0  0  3  0  0  0  0  0  0
  160.9740  205.0960  149.2400 C   0  0  0  0  0  0  0  0  0  0  0  0
  161.5450  209.0300  154.2220 C   0  0  0  0  0  3  0  0  0  0  0  0
  161.4960  209.2290  151.7460 C   0  0  0  0  0  0  0  0  0  0  0  0
  161.4370  203.4880  151.9570 C   0  0  0  0  0  2  0  0  0  0  0  0
  161.2750  209.9480  153.0470 C   0  0  1  0  0  3  0  0  0  0  0  0
  161.2980  207.7100  154.1630 C   0  0  0  0  0  3  0  0  0  0  0  0
  160.6810  203.6730  148.9580 C   0  0  0  0  0  3  0  0  0  0  0  0
  159.8480  210.4790  153.1000 C   0  0  0  0  0  2  0  0  0  0  0  0
  159.8340  211.9740  153.0570 C   0  0  0  0  0  0  0  0  0  0  0  0
  160.0190  212.5580  151.9570 O   0  0  0  0  0  0  0  0  0  0  0  0
  160.0620  212.3470  155.4860 C   0  0  0  0  0  1  0  0  0  0  0  0
  159.5960  212.7380  154.2020 O   0  0  0  0  0  0  0  0  0  0  0  0
  161.0250  205.9670  148.1390 O   0  0  0  0  0  0  0  0  0  0  0  0
  162.2250  206.2970  147.4440 C   0  0  0  0  0  2  0  0  0  0  0  0
  162.4040  205.3950  146.2310 C   0  0  0  0  0  2  0  0  0  0  0  0
  161.3940  204.8460  144.1000 O   0  0  0  0  0  0  0  0  0  0  0  0
  160.4010  206.5560  145.2760 O   0  0  0  0  0  1  0  0  0  0  0  0
  160.4740  204.1360  144.9020 C   0  0  1  0  0  3  0  0  0  0  0  0
  161.1350  202.8680  145.4160 C   0  0  0  0  0  1  0  0  0  0  0  0
  161.1400  205.3770  145.3750 C   0  0  2  0  0  0  0  0  0  0  0  0
  2 13  1  0  0  0  0
  2  1  1  0  0  0  0
  3 12  1  0  0  0  0
  3  9  1  0  0  0  0
  4 12  2  0  0  0  0
  5  7  1  0  0  0  0
  5  2  2  0  0  0  0
  6 13  1  0  0  0  0
  7  3  2  0  0  0  0
  8  6  2  0  0  0  0
  9  1  1  6  0  0  0
  9 15  1  0  0  0  0
 10  5  1  0  0  0  0
 12 14  1  0  0  0  0
 14 17  1  6  0  0  0
 14 11  1  0  0  0  0
 15 11  2  0  0  0  0
 16 10  2  0  0  0  0
 16  8  1  0  0  0  0
 18 17  1  0  0  0  0
 18 21  1  0  0  0  0
 19 18  2  0  0  0  0
 21 20  1  0  0  0  0
 22 10  1  0  0  0  0
 23 22  1  0  0  0  0
 24 23  1  0  0  0  0
 25 27  1  0  0  0  0
 25 29  1  0  0  0  0
 27 29  1  0  0  0  0
 27 28  1  1  0  0  0
 29 26  1  1  0  0  0
 29 24  1  0  0  0  0
M  END
>  <MODEL>
1

>  <REMARK>
 VINA RESULT:      -9.2      0.000      0.000
  Name = 
  7 active torsions:
  status: ('A' for Active; 'I' for Inactive)
    1  A    between atoms: C_1  and  O_7
    2  A    between atoms: C_1  and  C_19
    3  A    between atoms: C_6  and  C_23
    4  A    between atoms: C_6  and  C_27
    5  A    between atoms: O_7  and  C_20
    6  A    between atoms: C_18  and  C_19
    7  A    between atoms: C_23  and  O_24
                            x       y       z     vdW  Elec       q    Type
                         _______ _______ _______ _____ _____    ______ ____

>  <TORSDO>
F 7

$$$$
=
 OpenBabel11072413573D

 29 32  0  0  1  0  0  0  0  0999 V2000
  161.3280  205.5310  152.5610 C   0  0  0  0  0  2  0  0  0  0  0  0
  161.2020  206.8070  152.9410 C   0  0  0  0  0  0  0  0  0  0  0  0
  160.9690  206.1300  150.1590 C   0  0  0  0  0  0  0  0  0  0  0  0
  160.2570  206.4790  147.9100 O   0  0  0  0  0  0  0  0  0  0  0  0
  161.1130  207.8710  151.8930 C   0  0  0  0  0  0  0  0  0  0  0  0
  161.0820  208.1040  155.0840 C   0  0  0  0  0  3  0  0  0  0  0  0
  160.8360  207.4110  150.5090 C   0  0  0  0  0  3  0  0  0  0  0  0
  161.5300  209.4100  154.6150 C   0  0  0  0  0  3  0  0  0  0  0  0
  161.5460  205.1290  151.1320 C   0  0  2  0  0  3  0  0  0  0  0  0
  161.2790  209.1970  152.0810 C   0  0  0  0  0  0  0  0  0  0  0  0
  160.7000  203.3400  149.6350 C   0  0  0  0  0  3  0  0  0  0  0  0
  160.6750  205.6750  148.7860 C   0  0  0  0  0  0  0  0  0  0  0  0
  160.9490  206.9970  154.3700 C   0  0  0  0  0  2  0  0  0  0  0  0
  160.9050  204.2330  148.4280 C   0  0  1  0  0  3  0  0  0  0  0  0
  160.9940  203.7510  150.8800 C   0  0  0  0  0  3  0  0  0  0  0  0
  161.6160  209.8520  153.3650 C   0  0  0  0  0  3  0  0  0  0  0  0
  162.3130  204.0650  147.8700 C   0  0  0  0  0  2  0  0  0  0  0  0
  162.3440  204.3670  146.4050 C   0  0  0  0  0  0  0  0  0  0  0  0
  163.4110  204.7940  145.8900 O   0  0  0  0  0  0  0  0  0  0  0  0
  160.8540  205.0830  144.5730 C   0  0  0  0  0  1  0  0  0  0  0  0
  161.2280  204.1640  145.5900 O   0  0  0  0  0  0  0  0  0  0  0  0
  161.1660  210.0260  150.9530 O   0  0  0  0  0  0  0  0  0  0  0  0
  162.2810  210.5060  150.2070 C   0  0  0  0  0  2  0  0  0  0  0  0
  161.8740  210.8010  148.7690 C   0  0  0  0  0  2  0  0  0  0  0  0
  161.6780  212.6730  147.2470 O   0  0  0  0  0  0  0  0  0  0  0  0
  163.7930  212.2350  148.0390 O   0  0  0  0  0  1  0  0  0  0  0  0
  161.6940  213.4330  148.4370 C   0  0  1  0  0  3  0  0  0  0  0  0
  160.3530  213.2920  149.1370 C   0  0  0  0  0  1  0  0  0  0  0  0
  162.4280  212.1480  148.3120 C   0  0  2  0  0  0  0  0  0  0  0  0
  1  2  1  0  0  0  0
  2 13  1  0  0  0  0
  3  7  2  0  0  0  0
  3  9  1  0  0  0  0
  4 12  2  0  0  0  0
  5 10  1  0  0  0  0
  5  2  2  0  0  0  0
  7  5  1  0  0  0  0
  8  6  2  0  0  0  0
  9 15  1  1  0  0  0
  9  1  1  0  0  0  0
 10 16  2  0  0  0  0
 11 15  2  0  0  0  0
 12  3  1  0  0  0  0
 13  6  1  0  0  0  0
 14 17  1  1  0  0  0
 14 12  1  0  0  0  0
 14 11  1  0  0  0  0
 16  8  1  0  0  0  0
 18 17  1  0  0  0  0
 19 18  2  0  0  0  0
 20 21  1  0  0  0  0
 21 18  1  0  0  0  0
 22 10  1  0  0  0  0
 23 22  1  0  0  0  0
 24 23  1  0  0  0  0
 25 29  1  0  0  0  0
 25 27  1  0  0  0  0
 27 28  1  1  0  0  0
 29 26  1  6  0  0  0
 29 27  1  0  0  0  0
 29 24  1  0  0  0  0
M  END
>  <MODEL>
2

>  <REMARK>
 VINA RESULT:      -8.6      2.221      7.257
  Name = 
  7 active torsions:
  status: ('A' for Active; 'I' for Inactive)
    1  A    between atoms: C_1  and  O_7
    2  A    between atoms: C_1  and  C_19
    3  A    between atoms: C_6  and  C_23
    4  A    between atoms: C_6  and  C_27
    5  A    between atoms: O_7  and  C_20
    6  A    between atoms: C_18  and  C_19
    7  A    between atoms: C_23  and  O_24
                            x       y       z     vdW  Elec       q    Type
                         _______ _______ _______ _____ _____    ______ ____

>  <TORSDO>
F 7

$$$$
=
 OpenBabel11072413573D

 29 32  0  0  1  0  0  0  0  0999 V2000
  160.9220  205.7730  153.8190 C   0  0  0  0  0  2  0  0  0  0  0  0
  161.1010  205.5520  152.5120 C   0  0  0  0  0  0  0  0  0  0  0  0
  161.0890  208.2480  153.5010 C   0  0  0  0  0  0  0  0  0  0  0  0
  161.6170  210.5730  153.4250 O   0  0  0  0  0  0  0  0  0  0  0  0
  161.1220  206.7170  151.5750 C   0  0  0  0  0  0  0  0  0  0  0  0
  161.4220  203.5860  150.9880 C   0  0  0  0  0  3  0  0  0  0  0  0
  161.2730  208.0580  152.1930 C   0  0  0  0  0  3  0  0  0  0  0  0
  160.9600  204.1630  149.7310 C   0  0  0  0  0  3  0  0  0  0  0  0
  160.5780  207.1240  154.3710 C   0  0  2  0  0  3  0  0  0  0  0  0
  160.9950  206.6670  150.2320 C   0  0  0  0  0  0  0  0  0  0  0  0
  161.2640  208.4730  156.3380 C   0  0  0  0  0  3  0  0  0  0  0  0
  161.2590  209.5800  154.1140 C   0  0  0  0  0  0  0  0  0  0  0  0
  161.4750  204.1780  152.1700 C   0  0  0  0  0  2  0  0  0  0  0  0
  160.9760  209.7520  155.5800 C   0  0  1  0  0  3  0  0  0  0  0  0
  161.0830  207.2630  155.7830 C   0  0  0  0  0  3  0  0  0  0  0  0
  160.7780  205.4430  149.4290 C   0  0  0  0  0  3  0  0  0  0  0  0
  159.5230  210.1720  155.7710 C   0  0  0  0  0  2  0  0  0  0  0  0
  159.4060  211.6610  155.8520 C   0  0  0  0  0  0  0  0  0  0  0  0
  159.9730  212.2710  156.7960 O   0  0  0  0  0  0  0  0  0  0  0  0
  158.0890  211.7810  153.7680 C   0  0  0  0  0  1  0  0  0  0  0  0
  158.7030  212.3950  154.8930 O   0  0  0  0  0  0  0  0  0  0  0  0
  161.0280  207.8880  149.5370 O   0  0  0  0  0  0  0  0  0  0  0  0
  162.2140  208.4570  148.9900 C   0  0  0  0  0  2  0  0  0  0  0  0
  161.8820  209.6920  148.1640 C   0  0  0  0  0  2  0  0  0  0  0  0
  162.8820  211.8820  148.4170 O   0  0  0  0  0  0  0  0  0  0  0  0
  162.2810  210.8170  150.3650 O   0  0  0  0  0  1  0  0  0  0  0  0
  161.5400  212.2990  148.5620 C   0  0  1  0  0  3  0  0  0  0  0  0
  160.8620  212.2800  147.2030 C   0  0  0  0  0  1  0  0  0  0  0  0
  162.0020  210.9590  149.0070 C   0  0  2  0  0  0  0  0  0  0  0  0
  2  1  1  0  0  0  0
  3 12  1  0  0  0  0
  3  9  1  0  0  0  0
  4 12  2  0  0  0  0
  5  7  1  0  0  0  0
  5  2  2  0  0  0  0
  6 13  1  0  0  0  0
  7  3  2  0  0  0  0
  8  6  2  0  0  0  0
  9  1  1  6  0  0  0
  9 15  1  0  0  0  0
 10  5  1  0  0  0  0
 12 14  1  0  0  0  0
 13  2  1  0  0  0  0
 14 17  1  6  0  0  0
 14 11  1  0  0  0  0
 15 11  2  0  0  0  0
 16  8  1  0  0  0  0
 16 10  2  0  0  0  0
 17 18  1  0  0  0  0
 18 19  2  0  0  0  0
 20 21  1  0  0  0  0
 21 18  1  0  0  0  0
 22 10  1  0  0  0  0
 23 22  1  0  0  0  0
 24 23  1  0  0  0  0
 24 29  1  0  0  0  0
 25 27  1  0  0  0  0
 25 29  1  0  0  0  0
 27 28  1  6  0  0  0
 27 29  1  0  0  0  0
 29 26  1  1  0  0  0
M  END
>  <MODEL>
3

>  <REMARK>
 VINA RESULT:      -7.6      2.474      4.031
  Name = 
  7 active torsions:
  status: ('A' for Active; 'I' for Inactive)
    1  A    between atoms: C_1  and  O_7
    2  A    between atoms: C_1  and  C_19
    3  A    between atoms: C_6  and  C_23
    4  A    between atoms: C_6  and  C_27
    5  A    between atoms: O_7  and  C_20
    6  A    between atoms: C_18  and  C_19
    7  A    between atoms: C_23  and  O_24
                            x       y       z     vdW  Elec       q    Type
                         _______ _______ _______ _____ _____    ______ ____

>  <TORSDO>
F 7

$$$$
=
 OpenBabel11072413573D

 29 32  0  0  1  0  0  0  0  0999 V2000
  160.7540  205.9790  152.0340 C   0  0  0  0  0  2  0  0  0  0  0  0
  161.1850  206.0130  150.7680 C   0  0  0  0  0  0  0  0  0  0  0  0
  161.5910  208.2980  152.4610 C   0  0  0  0  0  0  0  0  0  0  0  0
  162.6720  210.3140  153.1360 O   0  0  0  0  0  0  0  0  0  0  0  0
  161.7160  207.2980  150.2170 C   0  0  2  0  0  3  0  0  0  0  0  0
  161.3770  204.4350  148.8290 C   0  0  0  0  0  3  0  0  0  0  0  0
  162.0350  208.3580  151.2040 C   0  0  0  0  0  3  0  0  0  0  0  0
  161.3890  205.3890  147.7260 C   0  0  0  0  0  3  0  0  0  0  0  0
  160.6260  207.2130  152.8790 C   0  0  2  0  0  3  0  0  0  0  0  0
  161.9100  207.5900  148.9130 C   0  0  0  0  0  0  0  0  0  0  0  0
  161.1220  207.8190  155.2330 C   0  0  0  0  0  3  0  0  0  0  0  0
  161.9270  209.3450  153.4460 C   0  0  0  0  0  0  0  0  0  0  0  0
  161.2850  204.7040  150.1220 C   0  0  0  0  0  3  0  0  0  0  0  0
  161.3470  209.2620  154.8300 C   0  0  1  0  0  3  0  0  0  0  0  0
  160.7920  206.8750  154.3360 C   0  0  0  0  0  3  0  0  0  0  0  0
  161.6030  206.6980  147.7720 C   0  0  0  0  0  3  0  0  0  0  0  0
  160.0390  210.0420  154.8810 C   0  0  0  0  0  2  0  0  0  0  0  0
  160.2650  211.4270  155.4000 C   0  0  0  0  0  0  0  0  0  0  0  0
  160.8130  211.5790  156.5230 O   0  0  0  0  0  0  0  0  0  0  0  0
  159.4850  212.4710  153.3040 C   0  0  0  0  0  1  0  0  0  0  0  0
  159.9060  212.5550  154.6590 O   0  0  0  0  0  0  0  0  0  0  0  0
  162.4080  208.8680  148.6070 O   0  0  0  0  0  0  0  0  0  0  0  0
  161.5810  209.9950  148.3290 C   0  0  0  0  0  2  0  0  0  0  0  0
  162.1120  211.2340  149.0380 C   0  0  0  0  0  2  0  0  0  0  0  0
  160.6660  212.5530  147.6110 O   0  0  0  0  0  0  0  0  0  0  0  0
  162.9200  212.6960  147.1720 O   0  0  0  0  0  1  0  0  0  0  0  0
  161.0520  213.6060  148.4690 C   0  0  1  0  0  3  0  0  0  0  0  0
  160.3370  213.4540  149.8000 C   0  0  0  0  0  1  0  0  0  0  0  0
  161.9590  212.4710  148.1570 C   0  0  2  0  0  0  0  0  0  0  0  0
  2  1  1  0  0  0  0
  3  9  1  0  0  0  0
  3 12  1  0  0  0  0
  4 12  2  0  0  0  0
  5  2  1  0  0  0  0
  5  7  1  6  0  0  0
  6 13  1  0  0  0  0
  7  3  2  0  0  0  0
  8 16  1  0  0  0  0
  8  6  2  0  0  0  0
  9  1  1  6  0  0  0
  9 15  1  0  0  0  0
 10  5  1  0  0  0  0
 12 14  1  0  0  0  0
 13  2  2  0  0  0  0
 14 17  1  6  0  0  0
 14 11  1  0  0  0  0
 15 11  2  0  0  0  0
 16 10  2  0  0  0  0
 17 18  1  0  0  0  0
 18 19  2  0  0  0  0
 20 21  1  0  0  0  0
 21 18  1  0  0  0  0
 22 10  1  0  0  0  0
 23 22  1  0  0  0  0
 23 24  1  0  0  0  0
 25 29  1  0  0  0  0
 25 27  1  0  0  0  0
 27 28  1  1  0  0  0
 29 26  1  6  0  0  0
 29 27  1  0  0  0  0
 29 24  1  0  0  0  0
M  END
>  <MODEL>
4

>  <REMARK>
 VINA RESULT:      -7.3      2.392      4.508
  Name = 
  7 active torsions:
  status: ('A' for Active; 'I' for Inactive)
    1  A    between atoms: C_1  and  O_7
    2  A    between atoms: C_1  and  C_19
    3  A    between atoms: C_6  and  C_23
    4  A    between atoms: C_6  and  C_27
    5  A    between atoms: O_7  and  C_20
    6  A    between atoms: C_18  and  C_19
    7  A    between atoms: C_23  and  O_24
                            x       y       z     vdW  Elec       q    Type
                         _______ _______ _______ _____ _____    ______ ____

>  <TORSDO>
F 7

$$$$
=
 OpenBabel11072413573D

 29 32  0  0  1  0  0  0  0  0999 V2000
  161.1430  206.8610  152.5840 C   0  0  0  0  0  2  0  0  0  0  0  0
  161.2630  205.8940  151.6680 C   0  0  0  0  0  0  0  0  0  0  0  0
  161.2970  208.6420  150.8340 C   0  0  0  0  0  0  0  0  0  0  0  0
  161.8230  210.4380  149.3550 O   0  0  0  0  0  0  0  0  0  0  0  0
  161.2420  206.2600  150.2180 C   0  0  0  0  0  0  0  0  0  0  0  0
  161.5130  203.3990  151.6240 C   0  0  0  0  0  3  0  0  0  0  0  0
  161.4220  207.6980  149.8990 C   0  0  0  0  0  3  0  0  0  0  0  0
  160.9940  203.1160  150.2910 C   0  0  0  0  0  3  0  0  0  0  0  0
  160.8250  208.2820  152.2230 C   0  0  2  0  0  3  0  0  0  0  0  0
  161.0540  205.4160  149.1810 C   0  0  0  0  0  0  0  0  0  0  0  0
  161.6010  210.5230  152.9560 C   0  0  0  0  0  3  0  0  0  0  0  0
  161.4960  210.0700  150.5160 C   0  0  0  0  0  0  0  0  0  0  0  0
  161.6200  204.5810  152.2090 C   0  0  0  0  0  2  0  0  0  0  0  0
  161.2790  211.0970  151.5910 C   0  0  1  0  0  3  0  0  0  0  0  0
  161.3930  209.2270  153.2480 C   0  0  0  0  0  3  0  0  0  0  0  0
  160.8000  203.9620  149.2860 C   0  0  0  0  0  3  0  0  0  0  0  0
  159.8370  211.5870  151.5430 C   0  0  0  0  0  2  0  0  0  0  0  0
  159.7630  212.9650  150.9650 C   0  0  0  0  0  0  0  0  0  0  0  0
  160.7190  213.3890  150.2650 O   0  0  0  0  0  0  0  0  0  0  0  0
  157.4640  213.6540  150.3880 C   0  0  0  0  0  1  0  0  0  0  0  0
  158.6480  213.7840  151.1630 O   0  0  0  0  0  0  0  0  0  0  0  0
  161.0570  205.9720  147.8910 O   0  0  0  0  0  0  0  0  0  0  0  0
  162.1960  206.5870  147.2950 C   0  0  0  0  0  2  0  0  0  0  0  0
  162.4490  206.0100  145.9090 C   0  0  0  0  0  2  0  0  0  0  0  0
  161.3750  204.7970  144.1100 O   0  0  0  0  0  0  0  0  0  0  0  0
  160.1930  206.5690  144.9780 O   0  0  0  0  0  1  0  0  0  0  0  0
  160.6730  204.1750  145.1650 C   0  0  1  0  0  3  0  0  0  0  0  0
  161.5960  203.1940  145.8680 C   0  0  0  0  0  1  0  0  0  0  0  0
  161.1400  205.5830  145.2500 C   0  0  2  0  0  0  0  0  0  0  0  0
  2 13  1  0  0  0  0
  2  1  1  0  0  0  0
  3  9  1  0  0  0  0
  4 12  2  0  0  0  0
  5  2  2  0  0  0  0
  6 13  1  0  0  0  0
  7  5  1  0  0  0  0
  7  3  2  0  0  0  0
  8  6  2  0  0  0  0
  9  1  1  1  0  0  0
  9 15  1  0  0  0  0
 10 16  2  0  0  0  0
 10  5  1  0  0  0  0
 11 15  2  0  0  0  0
 12  3  1  0  0  0  0
 12 14  1  0  0  0  0
 14 17  1  1  0  0  0
 14 11  1  0  0  0  0
 16  8  1  0  0  0  0
 18 21  1  0  0  0  0
 18 17  1  0  0  0  0
 19 18  2  0  0  0  0
 20 21  1  0  0  0  0
 22 10  1  0  0  0  0
 23 22  1  0  0  0  0
 24 23  1  0  0  0  0
 25 27  1  0  0  0  0
 25 29  1  0  0  0  0
 27 29  1  0  0  0  0
 27 28  1  1  0  0  0
 29 26  1  6  0  0  0
 29 24  1  0  0  0  0
M  END
>  <MODEL>
5

>  <REMARK>
 VINA RESULT:      -7.2      1.301      1.720
  Name = 
  7 active torsions:
  status: ('A' for Active; 'I' for Inactive)
    1  A    between atoms: C_1  and  O_7
    2  A    between atoms: C_1  and  C_19
    3  A    between atoms: C_6  and  C_23
    4  A    between atoms: C_6  and  C_27
    5  A    between atoms: O_7  and  C_20
    6  A    between atoms: C_18  and  C_19
    7  A    between atoms: C_23  and  O_24
                            x       y       z     vdW  Elec       q    Type
                         _______ _______ _______ _____ _____    ______ ____

>  <TORSDO>
F 7

$$$$
=
 OpenBabel11072413573D

 29 32  0  0  1  0  0  0  0  0999 V2000
  161.1370  206.7730  151.9660 C   0  0  0  0  0  2  0  0  0  0  0  0
  161.1440  205.5200  151.4960 C   0  0  0  0  0  0  0  0  0  0  0  0
  161.8830  207.6860  149.7600 C   0  0  0  0  0  0  0  0  0  0  0  0
  162.9610  208.6580  147.8680 O   0  0  0  0  0  0  0  0  0  0  0  0
  161.3720  205.2950  150.0350 C   0  0  0  0  0  0  0  0  0  0  0  0
  160.8390  203.1980  152.3930 C   0  0  0  0  0  3  0  0  0  0  0  0
  161.9020  206.4470  149.2650 C   0  0  0  0  0  3  0  0  0  0  0  0
  160.4280  202.5090  151.1750 C   0  0  0  0  0  3  0  0  0  0  0  0
  161.1860  207.9740  151.0690 C   0  0  2  0  0  3  0  0  0  0  0  0
  161.1230  204.1580  149.3520 C   0  0  0  0  0  0  0  0  0  0  0  0
  162.3480  210.1660  151.0880 C   0  0  0  0  0  3  0  0  0  0  0  0
  162.4290  208.8270  148.9980 C   0  0  0  0  0  0  0  0  0  0  0  0
  161.1370  204.4810  152.5270 C   0  0  0  0  0  2  0  0  0  0  0  0
  162.3220  210.2110  149.5750 C   0  0  1  0  0  3  0  0  0  0  0  0
  161.8270  209.1370  151.7780 C   0  0  0  0  0  3  0  0  0  0  0  0
  160.5430  202.9190  149.9180 C   0  0  0  0  0  3  0  0  0  0  0  0
  161.0400  210.8700  149.0810 C   0  0  0  0  0  2  0  0  0  0  0  0
  161.3410  211.9250  148.0640 C   0  0  0  0  0  0  0  0  0  0  0  0
  162.4220  212.5650  148.1470 O   0  0  0  0  0  0  0  0  0  0  0  0
  159.4040  213.1370  147.1320 C   0  0  0  0  0  1  0  0  0  0  0  0
  160.4650  212.2000  147.0110 O   0  0  0  0  0  0  0  0  0  0  0  0
  161.3980  204.1620  147.9740 O   0  0  0  0  0  0  0  0  0  0  0  0
  161.2940  203.0100  147.1410 C   0  0  0  0  0  2  0  0  0  0  0  0
  161.0380  203.4180  145.6970 C   0  0  0  0  0  2  0  0  0  0  0  0
  161.5910  205.0920  144.0380 O   0  0  0  0  0  0  0  0  0  0  0  0
  163.3430  204.3190  145.3140 O   0  0  0  0  0  1  0  0  0  0  0  0
  161.5420  205.9700  145.1430 C   0  0  1  0  0  3  0  0  0  0  0  0
  160.0910  206.2000  145.5330 C   0  0  0  0  0  1  0  0  0  0  0  0
  161.9690  204.5540  145.2800 C   0  0  2  0  0  0  0  0  0  0  0  0
  2  1  1  0  0  0  0
  2 13  1  0  0  0  0
  3  9  1  0  0  0  0
  4 12  2  0  0  0  0
  5  2  2  0  0  0  0
  6 13  1  0  0  0  0
  7  3  2  0  0  0  0
  7  5  1  0  0  0  0
  8  6  2  0  0  0  0
  9 15  1  1  0  0  0
  9  1  1  0  0  0  0
 10 16  2  0  0  0  0
 10  5  1  0  0  0  0
 11 15  2  0  0  0  0
 12 14  1  0  0  0  0
 12  3  1  0  0  0  0
 14 17  1  1  0  0  0
 14 11  1  0  0  0  0
 16  8  1  0  0  0  0
 18 19  2  0  0  0  0
 18 17  1  0  0  0  0
 21 20  1  0  0  0  0
 21 18  1  0  0  0  0
 22 10  1  0  0  0  0
 23 22  1  0  0  0  0
 24 23  1  0  0  0  0
 25 27  1  0  0  0  0
 25 29  1  0  0  0  0
 27 29  1  0  0  0  0
 27 28  1  1  0  0  0
 29 26  1  1  0  0  0
 29 24  1  0  0  0  0
M  END
>  <MODEL>
6

>  <REMARK>
 VINA RESULT:      -7.1      2.368      3.305
  Name = 
  7 active torsions:
  status: ('A' for Active; 'I' for Inactive)
    1  A    between atoms: C_1  and  O_7
    2  A    between atoms: C_1  and  C_19
    3  A    between atoms: C_6  and  C_23
    4  A    between atoms: C_6  and  C_27
    5  A    between atoms: O_7  and  C_20
    6  A    between atoms: C_18  and  C_19
    7  A    between atoms: C_23  and  O_24
                            x       y       z     vdW  Elec       q    Type
                         _______ _______ _______ _____ _____    ______ ____

>  <TORSDO>
F 7

$$$$
=
 OpenBabel11072413573D

 29 32  0  0  1  0  0  0  0  0999 V2000
  161.9090  207.6600  148.4490 C   0  0  0  0  0  2  0  0  0  0  0  0
  161.7500  208.2400  149.6440 C   0  0  0  0  0  0  0  0  0  0  0  0
  161.5640  205.3820  149.4220 C   0  0  0  0  0  0  0  0  0  0  0  0
  161.6520  203.1470  150.2500 O   0  0  0  0  0  0  0  0  0  0  0  0
  161.3120  207.4020  150.8030 C   0  0  2  0  0  3  0  0  0  0  0  0
  161.9560  210.5320  150.6380 C   0  0  0  0  0  3  0  0  0  0  0  0
  161.4030  205.9320  150.6270 C   0  0  0  0  0  3  0  0  0  0  0  0
  161.0700  210.3900  151.7880 C   0  0  0  0  0  3  0  0  0  0  0  0
  161.5130  206.2390  148.1790 C   0  0  2  0  0  3  0  0  0  0  0  0
  160.8240  207.8540  151.9780 C   0  0  0  0  0  0  0  0  0  0  0  0
  162.4860  204.3210  146.9410 C   0  0  0  0  0  3  0  0  0  0  0  0
  161.6730  203.9190  149.2540 C   0  0  0  0  0  0  0  0  0  0  0  0
  162.2380  209.6170  149.7250 C   0  0  0  0  0  3  0  0  0  0  0  0
  161.7870  203.3480  147.8680 C   0  0  1  0  0  3  0  0  0  0  0  0
  162.3620  205.6520  147.0840 C   0  0  0  0  0  3  0  0  0  0  0  0
  160.5990  209.2740  152.3320 C   0  0  0  0  0  3  0  0  0  0  0  0
  160.3970  203.0110  147.3410 C   0  0  0  0  0  2  0  0  0  0  0  0
  160.4800  202.0630  146.1880 C   0  0  0  0  0  0  0  0  0  0  0  0
  160.8190  200.8690  146.3990 O   0  0  0  0  0  0  0  0  0  0  0  0
  160.0810  203.8300  144.5120 C   0  0  0  0  0  1  0  0  0  0  0  0
  160.1670  202.4620  144.8860 O   0  0  0  0  0  0  0  0  0  0  0  0
  160.4560  206.8930  152.9350 O   0  0  0  0  0  0  0  0  0  0  0  0
  161.0420  206.7990  154.2300 C   0  0  0  0  0  2  0  0  0  0  0  0
  160.0810  207.3240  155.2890 C   0  0  0  0  0  2  0  0  0  0  0  0
  161.5240  209.2480  155.5690 O   0  0  0  0  0  0  0  0  0  0  0  0
  161.5810  207.6900  157.2610 O   0  0  0  0  0  1  0  0  0  0  0  0
  160.4820  209.7040  156.4060 C   0  0  1  0  0  3  0  0  0  0  0  0
  159.3130  210.1530  155.5460 C   0  0  0  0  0  1  0  0  0  0  0  0
  160.7990  208.2610  156.2570 C   0  0  2  0  0  0  0  0  0  0  0  0
  1  2  1  0  0  0  0
  2 13  2  0  0  0  0
  2  5  1  0  0  0  0
  3  7  2  0  0  0  0
  5  7  1  6  0  0  0
  5 10  1  0  0  0  0
  6  8  2  0  0  0  0
  8 16  1  0  0  0  0
  9 15  1  6  0  0  0
  9  1  1  0  0  0  0
  9  3  1  0  0  0  0
 10 16  2  0  0  0  0
 10 22  1  0  0  0  0
 11 15  2  0  0  0  0
 11 14  1  0  0  0  0
 12  3  1  0  0  0  0
 12  4  2  0  0  0  0
 13  6  1  0  0  0  0
 14 17  1  6  0  0  0
 14 12  1  0  0  0  0
 18 19  2  0  0  0  0
 18 17  1  0  0  0  0
 20 21  1  0  0  0  0
 21 18  1  0  0  0  0
 22 23  1  0  0  0  0
 23 24  1  0  0  0  0
 24 29  1  0  0  0  0
 25 29  1  0  0  0  0
 25 27  1  0  0  0  0
 27 28  1  6  0  0  0
 29 27  1  0  0  0  0
 29 26  1  1  0  0  0
M  END
>  <MODEL>
7

>  <REMARK>
 VINA RESULT:      -6.7      2.377      8.891
  Name = 
  7 active torsions:
  status: ('A' for Active; 'I' for Inactive)
    1  A    between atoms: C_1  and  O_7
    2  A    between atoms: C_1  and  C_19
    3  A    between atoms: C_6  and  C_23
    4  A    between atoms: C_6  and  C_27
    5  A    between atoms: O_7  and  C_20
    6  A    between atoms: C_18  and  C_19
    7  A    between atoms: C_23  and  O_24
                            x       y       z     vdW  Elec       q    Type
                         _______ _______ _______ _____ _____    ______ ____

>  <TORSDO>
F 7

$$$$
=
 OpenBabel11072413573D

 29 32  0  0  1  0  0  0  0  0999 V2000
  161.5900  207.6950  148.8750 C   0  0  0  0  0  2  0  0  0  0  0  0
  161.5340  208.4670  149.9650 C   0  0  0  0  0  0  0  0  0  0  0  0
  161.4270  205.6110  150.2500 C   0  0  0  0  0  0  0  0  0  0  0  0
  161.6780  203.5530  151.4290 O   0  0  0  0  0  0  0  0  0  0  0  0
  161.2470  207.8340  151.2890 C   0  0  2  0  0  3  0  0  0  0  0  0
  161.7600  210.9000  150.5300 C   0  0  0  0  0  3  0  0  0  0  0  0
  161.3720  206.3570  151.3550 C   0  0  0  0  0  3  0  0  0  0  0  0
  161.0020  210.9420  151.7760 C   0  0  0  0  0  3  0  0  0  0  0  0
  161.2180  206.2410  148.8930 C   0  0  2  0  0  3  0  0  0  0  0  0
  160.8670  208.4730  152.4160 C   0  0  0  0  0  0  0  0  0  0  0  0
  162.1260  204.1560  147.8990 C   0  0  0  0  0  3  0  0  0  0  0  0
  161.5700  204.1440  150.3200 C   0  0  0  0  0  0  0  0  0  0  0  0
  161.9790  209.8460  149.7590 C   0  0  0  0  0  3  0  0  0  0  0  0
  161.5600  203.3450  149.0470 C   0  0  1  0  0  3  0  0  0  0  0  0
  161.9700  205.4890  147.8280 C   0  0  0  0  0  3  0  0  0  0  0  0
  160.6300  209.9280  152.5470 C   0  0  0  0  0  3  0  0  0  0  0  0
  160.1370  202.8990  148.7370 C   0  0  0  0  0  2  0  0  0  0  0  0
  159.9670  201.4370  149.0010 C   0  0  0  0  0  0  0  0  0  0  0  0
  158.8360  201.0020  149.3440 O   0  0  0  0  0  0  0  0  0  0  0  0
  161.5720  200.2080  147.5850 C   0  0  0  0  0  1  0  0  0  0  0  0
  161.0260  200.5380  148.8550 O   0  0  0  0  0  0  0  0  0  0  0  0
  160.6330  207.6830  153.5550 O   0  0  0  0  0  0  0  0  0  0  0  0
  161.4160  207.7560  154.7440 C   0  0  0  0  0  2  0  0  0  0  0  0
  160.6710  208.5260  155.8260 C   0  0  0  0  0  2  0  0  0  0  0  0
  161.9890  210.5210  155.4460 O   0  0  0  0  0  0  0  0  0  0  0  0
  162.6290  209.2150  157.2280 O   0  0  0  0  0  1  0  0  0  0  0  0
  161.1900  211.0510  156.4820 C   0  0  1  0  0  3  0  0  0  0  0  0
  159.7980  211.3340  155.9430 C   0  0  0  0  0  1  0  0  0  0  0  0
  161.5590  209.6130  156.4280 C   0  0  2  0  0  0  0  0  0  0  0  0
  1  9  1  0  0  0  0
  1  2  1  0  0  0  0
  2  5  1  0  0  0  0
  3 12  1  0  0  0  0
  3  7  2  0  0  0  0
  5  7  1  6  0  0  0
  5 10  1  0  0  0  0
  6  8  2  0  0  0  0
  8 16  1  0  0  0  0
  9 15  1  6  0  0  0
  9  3  1  0  0  0  0
 10 16  2  0  0  0  0
 10 22  1  0  0  0  0
 11 14  1  0  0  0  0
 12  4  2  0  0  0  0
 13  2  2  0  0  0  0
 13  6  1  0  0  0  0
 14 17  1  6  0  0  0
 14 12  1  0  0  0  0
 15 11  2  0  0  0  0
 17 18  1  0  0  0  0
 18 19  2  0  0  0  0
 20 21  1  0  0  0  0
 21 18  1  0  0  0  0
 22 23  1  0  0  0  0
 23 24  1  0  0  0  0
 24 29  1  0  0  0  0
 25 29  1  0  0  0  0
 25 27  1  0  0  0  0
 27 28  1  6  0  0  0
 29 27  1  0  0  0  0
 29 26  1  1  0  0  0
M  END
>  <MODEL>
8

>  <REMARK>
 VINA RESULT:      -6.6      2.722      8.951
  Name = 
  7 active torsions:
  status: ('A' for Active; 'I' for Inactive)
    1  A    between atoms: C_1  and  O_7
    2  A    between atoms: C_1  and  C_19
    3  A    between atoms: C_6  and  C_23
    4  A    between atoms: C_6  and  C_27
    5  A    between atoms: O_7  and  C_20
    6  A    between atoms: C_18  and  C_19
    7  A    between atoms: C_23  and  O_24
                            x       y       z     vdW  Elec       q    Type
                         _______ _______ _______ _____ _____    ______ ____

>  <TORSDO>
F 7

$$$$
=
 OpenBabel11072413573D

 29 32  0  0  1  0  0  0  0  0999 V2000
  158.8930  211.2320  154.8940 C   0  0  0  0  0  2  0  0  0  0  0  0
  159.6850  210.1580  154.9950 C   0  0  0  0  0  0  0  0  0  0  0  0
  159.6740  211.6820  152.5600 C   0  0  0  0  0  0  0  0  0  0  0  0
  160.5970  212.4680  150.5060 O   0  0  0  0  0  0  0  0  0  0  0  0
  160.4170  209.6800  153.7810 C   0  0  0  0  0  0  0  0  0  0  0  0
  160.3740  208.5190  156.7630 C   0  0  0  0  0  3  0  0  0  0  0  0
  160.4760  210.6180  152.6330 C   0  0  0  0  0  3  0  0  0  0  0  0
  160.7600  207.3890  155.9240 C   0  0  0  0  0  3  0  0  0  0  0  0
  158.5780  211.8840  153.5800 C   0  0  2  0  0  3  0  0  0  0  0  0
  161.0060  208.4750  153.6250 C   0  0  0  0  0  0  0  0  0  0  0  0
  158.3740  214.2130  152.7500 C   0  0  0  0  0  3  0  0  0  0  0  0
  159.7480  212.6240  151.4250 C   0  0  0  0  0  0  0  0  0  0  0  0
  159.9110  209.6930  156.3640 C   0  0  0  0  0  2  0  0  0  0  0  0
  158.7770  213.7690  151.3590 C   0  0  1  0  0  3  0  0  0  0  0  0
  158.2830  213.3470  153.7740 C   0  0  0  0  0  3  0  0  0  0  0  0
  161.0120  207.3800  154.6210 C   0  0  0  0  0  3  0  0  0  0  0  0
  157.5520  213.3520  150.5540 C   0  0  0  0  0  2  0  0  0  0  0  0
  157.7010  213.7410  149.1180 C   0  0  0  0  0  0  0  0  0  0  0  0
  156.7870  213.4460  148.3040 O   0  0  0  0  0  0  0  0  0  0  0  0
  159.6180  213.9840  147.5820 C   0  0  0  0  0  1  0  0  0  0  0  0
  158.8180  214.4460  148.6610 O   0  0  0  0  0  0  0  0  0  0  0  0
  161.6320  208.2210  152.3930 O   0  0  0  0  0  0  0  0  0  0  0  0
  161.2690  207.1500  151.5250 C   0  0  0  0  0  2  0  0  0  0  0  0
  162.3360  206.9430  150.4580 C   0  0  0  0  0  2  0  0  0  0  0  0
  162.6960  207.1710  148.0750 O   0  0  0  0  0  0  0  0  0  0  0  0
  161.9550  209.0550  149.1680 O   0  0  0  0  0  1  0  0  0  0  0  0
  161.2960  206.9990  148.0110 C   0  0  1  0  0  3  0  0  0  0  0  0
  160.9600  205.5400  148.2680 C   0  0  0  0  0  1  0  0  0  0  0  0
  161.9580  207.6610  149.1660 C   0  0  2  0  0  0  0  0  0  0  0  0
  1  2  1  0  0  0  0
  2 13  1  0  0  0  0
  3  7  2  0  0  0  0
  3  9  1  0  0  0  0
  4 12  2  0  0  0  0
  5  2  2  0  0  0  0
  7  5  1  0  0  0  0
  8  6  2  0  0  0  0
  9 15  1  1  0  0  0
  9  1  1  0  0  0  0
 10  5  1  0  0  0  0
 10 16  2  0  0  0  0
 11 15  2  0  0  0  0
 12  3  1  0  0  0  0
 13  6  1  0  0  0  0
 14 17  1  6  0  0  0
 14 12  1  0  0  0  0
 14 11  1  0  0  0  0
 16  8  1  0  0  0  0
 18 17  1  0  0  0  0
 19 18  2  0  0  0  0
 20 21  1  0  0  0  0
 21 18  1  0  0  0  0
 22 10  1  0  0  0  0
 23 22  1  0  0  0  0
 24 23  1  0  0  0  0
 25 29  1  0  0  0  0
 27 25  1  0  0  0  0
 27 28  1  1  0  0  0
 27 29  1  0  0  0  0
 29 26  1  1  0  0  0
 29 24  1  0  0  0  0
M  END
>  <MODEL>
9

>  <REMARK>
 VINA RESULT:      -6.3      2.539      5.563
  Name = 
  7 active torsions:
  status: ('A' for Active; 'I' for Inactive)
    1  A    between atoms: C_1  and  O_7
    2  A    between atoms: C_1  and  C_19
    3  A    between atoms: C_6  and  C_23
    4  A    between atoms: C_6  and  C_27
    5  A    between atoms: O_7  and  C_20
    6  A    between atoms: C_18  and  C_19
    7  A    between atoms: C_23  and  O_24
                            x       y       z     vdW  Elec       q    Type
                         _______ _______ _______ _____ _____    ______ ____

>  <TORSDO>
F 7

$$$$
