=
 OpenBabel11072415223D

 63 70  0  0  1  0  0  0  0  0999 V2000
  161.5880  205.6330  150.3680 C   0  0  0  0  0  3  0  0  0  0  0  0
  161.4710  206.9270  150.4820 C   0  0  0  0  0  0  0  0  0  0  0  0
  161.3440  208.2190  150.5710 C   0  0  0  0  0  3  0  0  0  0  0  0
  162.2760  209.1050  149.8280 C   0  0  0  0  0  2  0  0  0  0  0  0
  161.6190  209.6580  148.5720 C   0  0  1  0  0  3  0  0  0  0  0  0
  160.6240  210.5910  148.9110 O   0  0  0  0  0  0  0  0  0  0  0  0
  161.8170  211.1300  148.3890 C   0  0  2  0  0  0  0  0  0  0  0  0
  162.1180  213.0730  146.6440 C   0  0  1  0  0  3  0  0  0  0  0  0
  159.5590  211.4440  145.7140 C   0  0  0  0  0  2  0  0  0  0  0  0
  158.8980  213.7280  144.9580 O   0  0  0  0  0  0  0  0  0  0  0  0
  161.5210  211.7030  146.9890 C   0  0  2  0  0  3  0  0  0  0  0  0
  160.1390  212.1690  146.8610 N   0  0  1  0  0  0  0  0  0  0  0  0
  160.6630  213.5020  146.5150 C   0  0  2  0  0  0  0  0  0  0  0  0
  158.6920  212.3380  144.7970 C   0  0  0  0  0  2  0  0  0  0  0  0
  160.2760  213.9490  145.1080 C   0  0  0  0  0  2  0  0  0  0  0  0
  162.8680  213.7540  147.7880 C   0  0  0  0  0  1  0  0  0  0  0  0
  160.2570  214.4470  147.4600 O   0  0  0  0  0  1  0  0  0  0  0  0
  162.4230  212.0440  149.4690 C   0  0  0  0  0  2  0  0  0  0  0  0
  161.4150  212.5140  150.5060 C   0  0  2  0  0  3  0  0  0  0  0  0
  160.4370  211.8710  152.7600 C   0  0  0  0  0  2  0  0  0  0  0  0
  158.3380  212.8780  151.7430 C   0  0  0  0  0  2  0  0  0  0  0  0
  161.3680  211.4730  151.6230 C   0  0  0  0  0  2  0  0  0  0  0  0
  159.2010  213.6350  150.7290 C   0  0  0  0  0  2  0  0  0  0  0  0
  158.9950  211.6290  152.3330 C   0  0  2  0  0  3  0  0  0  0  0  0
  160.0490  212.7170  149.8590 C   0  0  0  0  0  2  0  0  0  0  0  0
  158.1700  211.1060  153.4970 C   0  0  0  0  0  2  0  0  0  0  0  0
  158.9540  211.2160  154.7680 C   0  0  0  0  0  0  0  0  0  0  0  0
  159.8720  210.2920  155.0620 C   0  0  0  0  0  2  0  0  0  0  0  0
  158.7460  212.3750  155.7020 C   0  0  1  0  0  3  0  0  0  0  0  0
  160.6400  211.8590  157.1780 C   0  0  0  0  0  2  0  0  0  0  0  0
  160.0350  212.7330  156.3690 C   0  0  0  0  0  3  0  0  0  0  0  0
  158.2530  213.4840  155.0090 O   0  0  0  0  0  0  0  0  0  0  0  0
  156.1600  214.2690  154.1940 C   0  0  0  0  0  1  0  0  0  0  0  0
  156.8860  213.5250  155.2990 C   0  0  0  0  0  2  0  0  0  0  0  0
  160.7740  204.8960  149.3600 C   0  0  0  0  0  2  0  0  0  0  0  0
  159.8400  204.0170  149.9880 O   0  0  0  0  0  0  0  0  0  0  0  0
  159.8500  202.6190  149.8530 C   0  0  0  0  0  0  0  0  0  0  0  0
  158.7510  201.8850  150.0440 C   0  0  0  0  0  2  0  0  0  0  0  0
  161.1420  201.9180  149.5390 C   0  0  1  0  0  3  0  0  0  0  0  0
  161.5870  201.2400  150.6790 O   0  0  0  0  0  0  0  0  0  0  0  0
  161.7160  202.2190  151.6650 C   0  0  0  0  0  1  0  0  0  0  0  0
  160.9720  200.9210  148.3720 C   0  0  2  0  0  3  0  0  0  0  0  0
  162.2040  200.4390  147.8740 O   0  0  0  0  0  0  0  0  0  0  0  0
  161.9560  199.5950  146.7820 C   0  0  0  0  0  1  0  0  0  0  0  0
  160.0370  201.4210  147.2630 C   0  0  0  0  0  2  0  0  0  0  0  0
  160.9620  201.8510  145.7530 S   0  0  0  0  0  0  0  0  0  0  0  0
  161.2460  203.5870  146.2210 C   0  0  0  0  0  2  0  0  0  0  0  0
  162.2620  205.7340  145.6060 C   0  0  0  0  0  2  0  0  0  0  0  0
  161.4070  205.2930  144.4380 C   0  0  2  0  0  3  0  0  0  0  0  0
  162.1810  204.2680  145.2420 C   0  0  2  0  0  3  0  0  0  0  0  0
  162.1520  205.5710  143.1420 C   0  0  0  0  0  2  0  0  0  0  0  0
  161.4970  206.7000  142.3600 C   0  0  0  0  0  2  0  0  0  0  0  0
  161.9560  206.6860  140.9100 C   0  0  0  0  0  2  0  0  0  0  0  0
  161.3620  207.7290  140.1940 O   0  0  0  0  0  0  0  0  0  0  0  0
  162.4190  208.5300  139.7310 C   0  0  0  0  0  2  0  0  0  0  0  0
  160.6710  209.3090  138.2990 O   0  0  0  0  0  1  0  0  0  0  0  0
  161.9210  209.6550  138.8160 C   0  0  1  0  0  3  0  0  0  0  0  0
  160.5790  213.5440  139.9030 S   0  0  0  0  0  0  0  0  0  0  0  0
  162.0770  211.9930  138.5430 O   0  0  0  0  0  0  0  0  0  0  0  0
  160.4420  212.2140  141.5390 S   0  0  0  0  0  0  0  0  0  0  0  0
  160.4870  211.0480  140.1530 C   0  0  1  0  0  3  0  0  0  0  0  0
  160.7560  211.9750  138.9950 C   0  0  2  0  0  0  0  0  0  0  0  0
  161.8470  211.0150  139.5220 C   0  0  2  0  0  0  0  0  0  0  0  0
  1  2  2  0  0  0  0
  2  3  2  0  0  0  0
  4  3  1  0  0  0  0
  5  6  1  0  0  0  0
  5  4  1  1  0  0  0
  7  5  1  0  0  0  0
  7  6  1  0  0  0  0
  7 18  1  1  0  0  0
  8 11  1  0  0  0  0
  8 16  1  1  0  0  0
 10 15  1  0  0  0  0
 11  7  1  1  0  0  0
 12  9  1  6  0  0  0
 12 11  1  0  0  0  0
 13  8  1  0  0  0  0
 13 12  1  0  0  0  0
 13 17  1  1  0  0  0
 14 10  1  0  0  0  0
 14  9  1  0  0  0  0
 15 13  1  0  0  0  0
 19 18  1  6  0  0  0
 19 22  1  0  0  0  0
 21 24  1  0  0  0  0
 22 20  1  0  0  0  0
 23 21  1  0  0  0  0
 24 20  1  0  0  0  0
 24 26  1  1  0  0  0
 25 19  1  0  0  0  0
 25 23  1  0  0  0  0
 26 27  1  0  0  0  0
 27 28  2  0  0  0  0
 27 29  1  0  0  0  0
 29 31  1  6  0  0  0
 31 30  2  0  0  0  0
 32 34  1  0  0  0  0
 32 29  1  0  0  0  0
 33 34  1  0  0  0  0
 35 36  1  0  0  0  0
 35  1  1  0  0  0  0
 37 36  1  0  0  0  0
 37 38  2  0  0  0  0
 39 37  1  1  0  0  0
 39 40  1  0  0  0  0
 40 41  1  0  0  0  0
 42 45  1  6  0  0  0
 42 39  1  0  0  0  0
 43 42  1  0  0  0  0
 44 43  1  0  0  0  0
 46 47  1  0  0  0  0
 46 45  1  0  0  0  0
 49 51  1  6  0  0  0
 49 50  1  0  0  0  0
 49 48  1  0  0  0  0
 50 48  1  0  0  0  0
 50 47  1  1  0  0  0
 52 51  1  0  0  0  0
 53 52  1  0  0  0  0
 54 53  1  0  0  0  0
 55 54  1  0  0  0  0
 57 56  1  1  0  0  0
 57 55  1  0  0  0  0
 58 60  1  0  0  0  0
 59 63  1  0  0  0  0
 61 60  1  1  0  0  0
 62 59  1  6  0  0  0
 62 63  1  0  0  0  0
 62 58  1  0  0  0  0
 62 61  1  0  0  0  0
 63 57  1  6  0  0  0
 63 61  1  0  0  0  0
M  END
>  <MODEL>
1

>  <REMARK>
 VINA RESULT:      -0.3      0.000      0.000
  Name = 
  29 active torsions:
  status: ('A' for Active; 'I' for Inactive)
    1  A    between atoms: C_2  and  C_18
    2  A    between atoms: C_2  and  C_25
    3  A    between atoms: C_2  and  O_46
    4  A    between atoms: C_3  and  C_48
    5  A    between atoms: C_4  and  C_7
    6  A    between atoms: C_4  and  C_16
    7  A    between atoms: O_5  and  C_26
    8  A    between atoms: O_5  and  C_33
    9  A    between atoms: O_6  and  C_15
   10  A    between atoms: O_6  and  C_32
   11  A    between atoms: C_7  and  C_15
   12  A    between atoms: C_8  and  C_36
   13  A    between atoms: C_9  and  C_26
   14  A    between atoms: C_9  and  C_60
   15  A    between atoms: C_10  and  C_21
   16  A    between atoms: C_10  and  O_37
   17  A    between atoms: O_13  and  C_18
   18  A    between atoms: C_18  and  C_56
   19  A    between atoms: C_25  and  O_37
   20  A    between atoms: C_26  and  C_58
   21  A    between atoms: C_28  and  C_57
   22  A    between atoms: C_32  and  C_35
   23  A    between atoms: C_35  and  C_50
   24  A    between atoms: C_36  and  C_39
   25  A    between atoms: C_48  and  C_57
   26  A    between atoms: C_51  and  C_60
   27  A    between atoms: S_52  and  C_56
   28  A    between atoms: S_52  and  C_59
   29  A    between atoms: C_59  and  C_61
                            x       y       z     vdW  Elec       q    Type
                         _______ _______ _______ _____ _____    ______ ____

>  <TORSDO>
F 29

$$$$
=
 OpenBabel11072415223D

 63 70  0  0  1  0  0  0  0  0999 V2000
  162.1330  207.9100  148.9280 C   0  0  0  0  0  3  0  0  0  0  0  0
  161.6830  208.8830  149.6720 C   0  0  0  0  0  0  0  0  0  0  0  0
  161.2370  209.8700  150.3940 C   0  0  0  0  0  3  0  0  0  0  0  0
  162.1640  210.9450  150.8290 C   0  0  0  0  0  2  0  0  0  0  0  0
  161.4440  211.9690  151.6940 C   0  0  1  0  0  3  0  0  0  0  0  0
  160.1150  212.1250  151.2630 O   0  0  0  0  0  0  0  0  0  0  0  0
  160.2900  211.4020  152.4600 C   0  0  2  0  0  0  0  0  0  0  0  0
  160.3660  212.0320  155.0110 C   0  0  1  0  0  3  0  0  0  0  0  0
  157.5390  213.0040  153.9500 C   0  0  0  0  0  2  0  0  0  0  0  0
  156.9230  212.4090  156.2930 O   0  0  0  0  0  0  0  0  0  0  0  0
  159.7450  212.2520  153.6260 C   0  0  2  0  0  3  0  0  0  0  0  0
  158.4120  211.8200  154.0510 N   0  0  1  0  0  0  0  0  0  0  0  0
  158.9580  211.6020  155.4030 C   0  0  2  0  0  0  0  0  0  0  0  0
  156.5710  213.1580  155.1470 C   0  0  0  0  0  2  0  0  0  0  0  0
  158.3140  212.4960  156.4590 C   0  0  0  0  0  2  0  0  0  0  0  0
  161.4020  210.9100  155.0820 C   0  0  0  0  0  1  0  0  0  0  0  0
  158.8490  210.2580  155.7630 O   0  0  0  0  0  1  0  0  0  0  0  0
  159.7350  209.9860  152.2310 C   0  0  0  0  0  2  0  0  0  0  0  0
  160.5680  208.8910  152.8800 C   0  0  2  0  0  3  0  0  0  0  0  0
  161.6740  206.6650  152.3600 C   0  0  0  0  0  2  0  0  0  0  0  0
  160.9950  206.1670  154.7570 C   0  0  0  0  0  2  0  0  0  0  0  0
  160.7900  207.7920  151.8440 C   0  0  0  0  0  2  0  0  0  0  0  0
  160.8790  207.6700  155.0290 C   0  0  0  0  0  2  0  0  0  0  0  0
  160.8570  205.7720  153.2860 C   0  0  2  0  0  3  0  0  0  0  0  0
  159.8670  208.3660  154.1280 C   0  0  0  0  0  2  0  0  0  0  0  0
  161.2370  204.3130  153.0980 C   0  0  0  0  0  2  0  0  0  0  0  0
  161.1440  203.9440  151.6500 C   0  0  0  0  0  0  0  0  0  0  0  0
  161.6790  204.7440  150.7260 C   0  0  0  0  0  2  0  0  0  0  0  0
  160.4840  202.6610  151.2250 C   0  0  1  0  0  3  0  0  0  0  0  0
  160.3680  201.8120  148.9230 C   0  0  0  0  0  2  0  0  0  0  0  0
  160.0380  202.7620  149.8010 C   0  0  0  0  0  3  0  0  0  0  0  0
  161.3630  201.5840  151.3660 O   0  0  0  0  0  0  0  0  0  0  0  0
  163.6010  201.1010  152.0130 C   0  0  0  0  0  1  0  0  0  0  0  0
  162.4460  202.0830  152.0940 C   0  0  0  0  0  2  0  0  0  0  0  0
  162.0190  207.9920  147.4440 C   0  0  0  0  0  2  0  0  0  0  0  0
  160.9480  207.1820  146.9590 O   0  0  0  0  0  0  0  0  0  0  0  0
  161.0540  205.8100  146.6760 C   0  0  0  0  0  0  0  0  0  0  0  0
  161.4540  204.9290  147.5960 C   0  0  0  0  0  2  0  0  0  0  0  0
  160.7620  205.3210  145.2850 C   0  0  1  0  0  3  0  0  0  0  0  0
  159.6960  206.0540  144.7540 O   0  0  0  0  0  0  0  0  0  0  0  0
  158.6150  205.1730  144.7310 C   0  0  0  0  0  1  0  0  0  0  0  0
  161.9970  205.4570  144.3690 C   0  0  2  0  0  3  0  0  0  0  0  0
  163.2110  205.5440  145.0880 O   0  0  0  0  0  0  0  0  0  0  0  0
  163.6250  204.2520  145.4420 C   0  0  0  0  0  1  0  0  0  0  0  0
  161.8580  206.5520  143.3030 C   0  0  0  0  0  2  0  0  0  0  0  0
  161.6610  205.8420  141.6360 S   0  0  0  0  0  0  0  0  0  0  0  0
  162.3000  207.3020  140.7570 C   0  0  0  0  0  2  0  0  0  0  0  0
  162.0080  206.9190  138.3510 C   0  0  0  0  0  2  0  0  0  0  0  0
  162.2600  208.4000  138.5410 C   0  0  2  0  0  3  0  0  0  0  0  0
  161.4370  207.6330  139.5560 C   0  0  2  0  0  3  0  0  0  0  0  0
  161.3240  209.1840  137.6350 C   0  0  0  0  0  2  0  0  0  0  0  0
  161.1610  210.6170  138.1200 C   0  0  0  0  0  2  0  0  0  0  0  0
  162.5040  211.3320  138.1470 C   0  0  0  0  0  2  0  0  0  0  0  0
  162.3690  212.6520  137.7070 O   0  0  0  0  0  0  0  0  0  0  0  0
  161.7330  213.3430  138.7490 C   0  0  0  0  0  2  0  0  0  0  0  0
  163.5490  214.0170  140.1490 O   0  0  0  0  0  1  0  0  0  0  0  0
  162.4580  213.1480  140.0860 C   0  0  1  0  0  3  0  0  0  0  0  0
  160.2970  212.3450  143.6620 S   0  0  0  0  0  0  0  0  0  0  0  0
  160.4370  212.5110  141.1220 O   0  0  0  0  0  0  0  0  0  0  0  0
  161.7640  213.8310  143.9850 S   0  0  0  0  0  0  0  0  0  0  0  0
  162.4040  213.0370  142.4880 C   0  0  1  0  0  3  0  0  0  0  0  0
  161.2800  212.0900  142.1510 C   0  0  2  0  0  0  0  0  0  0  0  0
  161.5440  213.3530  141.3010 C   0  0  2  0  0  0  0  0  0  0  0  0
  1  2  2  0  0  0  0
  2  3  2  0  0  0  0
  3  4  1  0  0  0  0
  5  4  1  6  0  0  0
  5  7  1  0  0  0  0
  6  5  1  0  0  0  0
  6  7  1  0  0  0  0
  7 18  1  1  0  0  0
  8 16  1  6  0  0  0
  8 13  1  0  0  0  0
  9 14  1  0  0  0  0
 10 15  1  0  0  0  0
 11  7  1  6  0  0  0
 11 12  1  0  0  0  0
 11  8  1  0  0  0  0
 12  9  1  1  0  0  0
 12 13  1  0  0  0  0
 13 17  1  1  0  0  0
 13 15  1  0  0  0  0
 14 10  1  0  0  0  0
 19 18  1  6  0  0  0
 19 25  1  0  0  0  0
 20 24  1  0  0  0  0
 21 23  1  0  0  0  0
 22 20  1  0  0  0  0
 22 19  1  0  0  0  0
 24 26  1  1  0  0  0
 24 21  1  0  0  0  0
 25 23  1  0  0  0  0
 27 26  1  0  0  0  0
 28 27  2  0  0  0  0
 29 31  1  6  0  0  0
 29 32  1  0  0  0  0
 29 27  1  0  0  0  0
 30 31  2  0  0  0  0
 32 34  1  0  0  0  0
 33 34  1  0  0  0  0
 35  1  1  0  0  0  0
 36 35  1  0  0  0  0
 37 36  1  0  0  0  0
 37 38  2  0  0  0  0
 39 40  1  6  0  0  0
 39 37  1  0  0  0  0
 41 40  1  0  0  0  0
 42 45  1  1  0  0  0
 42 43  1  0  0  0  0
 42 39  1  0  0  0  0
 43 44  1  0  0  0  0
 46 45  1  0  0  0  0
 47 46  1  0  0  0  0
 48 49  1  0  0  0  0
 48 50  1  0  0  0  0
 49 51  1  6  0  0  0
 49 50  1  0  0  0  0
 50 47  1  1  0  0  0
 51 52  1  0  0  0  0
 52 53  1  0  0  0  0
 54 53  1  0  0  0  0
 54 55  1  0  0  0  0
 55 57  1  0  0  0  0
 57 56  1  1  0  0  0
 58 60  1  0  0  0  0
 59 63  1  0  0  0  0
 61 60  1  1  0  0  0
 62 59  1  6  0  0  0
 62 61  1  0  0  0  0
 62 58  1  0  0  0  0
 63 57  1  6  0  0  0
 63 62  1  0  0  0  0
 63 61  1  0  0  0  0
M  END
>  <MODEL>
2

>  <REMARK>
 VINA RESULT:       1.2      2.646      7.197
  Name = 
  29 active torsions:
  status: ('A' for Active; 'I' for Inactive)
    1  A    between atoms: C_2  and  C_18
    2  A    between atoms: C_2  and  C_25
    3  A    between atoms: C_2  and  O_46
    4  A    between atoms: C_3  and  C_48
    5  A    between atoms: C_4  and  C_7
    6  A    between atoms: C_4  and  C_16
    7  A    between atoms: O_5  and  C_26
    8  A    between atoms: O_5  and  C_33
    9  A    between atoms: O_6  and  C_15
   10  A    between atoms: O_6  and  C_32
   11  A    between atoms: C_7  and  C_15
   12  A    between atoms: C_8  and  C_36
   13  A    between atoms: C_9  and  C_26
   14  A    between atoms: C_9  and  C_60
   15  A    between atoms: C_10  and  C_21
   16  A    between atoms: C_10  and  O_37
   17  A    between atoms: O_13  and  C_18
   18  A    between atoms: C_18  and  C_56
   19  A    between atoms: C_25  and  O_37
   20  A    between atoms: C_26  and  C_58
   21  A    between atoms: C_28  and  C_57
   22  A    between atoms: C_32  and  C_35
   23  A    between atoms: C_35  and  C_50
   24  A    between atoms: C_36  and  C_39
   25  A    between atoms: C_48  and  C_57
   26  A    between atoms: C_51  and  C_60
   27  A    between atoms: S_52  and  C_56
   28  A    between atoms: S_52  and  C_59
   29  A    between atoms: C_59  and  C_61
                            x       y       z     vdW  Elec       q    Type
                         _______ _______ _______ _____ _____    ______ ____

>  <TORSDO>
F 29

$$$$
=
 OpenBabel11072415223D

 63 70  0  0  1  0  0  0  0  0999 V2000
  161.6440  205.7190  150.5680 C   0  0  0  0  0  3  0  0  0  0  0  0
  161.5430  207.0090  150.7360 C   0  0  0  0  0  0  0  0  0  0  0  0
  161.4340  208.2980  150.8770 C   0  0  0  0  0  3  0  0  0  0  0  0
  162.3910  209.2010  150.1900 C   0  0  0  0  0  2  0  0  0  0  0  0
  161.8050  209.7290  148.8890 C   0  0  1  0  0  3  0  0  0  0  0  0
  160.7420  210.6110  149.1540 O   0  0  0  0  0  0  0  0  0  0  0  0
  161.9440  211.2110  148.7260 C   0  0  2  0  0  0  0  0  0  0  0  0
  162.2790  213.1780  147.0150 C   0  0  1  0  0  3  0  0  0  0  0  0
  159.8830  211.4310  145.8870 C   0  0  0  0  0  2  0  0  0  0  0  0
  159.1680  213.6850  145.0910 O   0  0  0  0  0  0  0  0  0  0  0  0
  161.7270  211.7770  147.3090 C   0  0  2  0  0  3  0  0  0  0  0  0
  160.3370  212.1750  147.0780 N   0  0  1  0  0  0  0  0  0  0  0  0
  160.8180  213.5350  146.7760 C   0  0  2  0  0  0  0  0  0  0  0  0
  159.0440  212.2880  144.9100 C   0  0  0  0  0  2  0  0  0  0  0  0
  160.5180  213.9720  145.3450 C   0  0  0  0  0  2  0  0  0  0  0  0
  162.9060  213.8880  148.2140 C   0  0  0  0  0  1  0  0  0  0  0  0
  160.2950  214.4520  147.6900 O   0  0  0  0  0  1  0  0  0  0  0  0
  162.4210  212.1450  149.8510 C   0  0  0  0  0  2  0  0  0  0  0  0
  161.3250  212.5250  150.8350 C   0  0  2  0  0  3  0  0  0  0  0  0
  160.4960  212.0130  153.1790 C   0  0  0  0  0  2  0  0  0  0  0  0
  158.2340  212.3740  152.0800 C   0  0  0  0  0  2  0  0  0  0  0  0
  161.5010  211.6720  152.0890 C   0  0  0  0  0  2  0  0  0  0  0  0
  158.9160  213.1500  150.9490 C   0  0  0  0  0  2  0  0  0  0  0  0
  159.1470  211.4000  152.8260 C   0  0  2  0  0  3  0  0  0  0  0  0
  159.9540  212.3260  150.1980 C   0  0  0  0  0  2  0  0  0  0  0  0
  158.4490  210.8800  154.0720 C   0  0  0  0  0  2  0  0  0  0  0  0
  159.4660  210.4880  155.0990 C   0  0  0  0  0  0  0  0  0  0  0  0
  159.4550  211.0730  156.2990 C   0  0  0  0  0  2  0  0  0  0  0  0
  160.4790  209.4160  154.8080 C   0  0  1  0  0  3  0  0  0  0  0  0
  162.2780  210.7300  155.8410 C   0  0  0  0  0  2  0  0  0  0  0  0
  161.6510  209.5570  155.7260 C   0  0  0  0  0  3  0  0  0  0  0  0
  159.9130  208.1480  154.9620 O   0  0  0  0  0  0  0  0  0  0  0  0
  160.9360  206.0770  154.3920 C   0  0  0  0  0  1  0  0  0  0  0  0
  160.9780  207.3030  155.2850 C   0  0  0  0  0  2  0  0  0  0  0  0
  160.8380  205.0380  149.5150 C   0  0  0  0  0  2  0  0  0  0  0  0
  159.9230  204.1030  150.0850 O   0  0  0  0  0  0  0  0  0  0  0  0
  159.9590  202.7160  149.8610 C   0  0  0  0  0  0  0  0  0  0  0  0
  158.8570  201.9650  149.9120 C   0  0  0  0  0  2  0  0  0  0  0  0
  161.2810  202.0460  149.6100 C   0  0  1  0  0  3  0  0  0  0  0  0
  161.6740  201.3570  150.7620 O   0  0  0  0  0  0  0  0  0  0  0  0
  161.7890  202.3310  151.7550 C   0  0  0  0  0  1  0  0  0  0  0  0
  161.1970  201.0660  148.4200 C   0  0  2  0  0  3  0  0  0  0  0  0
  162.3780  201.0400  147.6420 O   0  0  0  0  0  0  0  0  0  0  0  0
  162.4780  199.7940  147.0060 C   0  0  0  0  0  1  0  0  0  0  0  0
  159.9300  201.2310  147.5700 C   0  0  0  0  0  2  0  0  0  0  0  0
  160.3160  201.8870  145.9140 S   0  0  0  0  0  0  0  0  0  0  0  0
  160.1810  203.6370  146.3940 C   0  0  0  0  0  2  0  0  0  0  0  0
  160.8180  205.8250  145.4820 C   0  0  0  0  0  2  0  0  0  0  0  0
  161.0350  204.8040  144.3870 C   0  0  2  0  0  3  0  0  0  0  0  0
  161.3320  204.4450  145.8290 C   0  0  2  0  0  3  0  0  0  0  0  0
  162.3420  205.1110  143.6730 C   0  0  0  0  0  2  0  0  0  0  0  0
  162.1910  206.2960  142.7310 C   0  0  0  0  0  2  0  0  0  0  0  0
  161.8690  205.8240  141.3210 C   0  0  0  0  0  2  0  0  0  0  0  0
  161.6490  206.9140  140.4740 O   0  0  0  0  0  0  0  0  0  0  0  0
  162.4510  206.6920  139.3430 C   0  0  0  0  0  2  0  0  0  0  0  0
  162.2980  207.1940  137.0120 O   0  0  0  0  0  1  0  0  0  0  0  0
  162.2470  207.7770  138.2790 C   0  0  1  0  0  3  0  0  0  0  0  0
  159.2650  210.7760  137.8120 S   0  0  0  0  0  0  0  0  0  0  0  0
  161.2680  209.7840  139.0390 O   0  0  0  0  0  0  0  0  0  0  0  0
  158.5560  208.8980  137.1530 S   0  0  0  0  0  0  0  0  0  0  0  0
  160.3460  208.6330  137.0800 C   0  0  1  0  0  3  0  0  0  0  0  0
  160.8600  209.9030  137.7090 C   0  0  2  0  0  0  0  0  0  0  0  0
  160.9350  208.5530  138.4560 C   0  0  2  0  0  0  0  0  0  0  0  0
  1  2  2  0  0  0  0
  2  3  2  0  0  0  0
  4  3  1  0  0  0  0
  5  6  1  0  0  0  0
  5  4  1  1  0  0  0
  7  5  1  0  0  0  0
  7  6  1  0  0  0  0
  7 18  1  1  0  0  0
  8 11  1  0  0  0  0
  8 16  1  1  0  0  0
 10 15  1  0  0  0  0
 11  7  1  1  0  0  0
 12  9  1  6  0  0  0
 12 11  1  0  0  0  0
 13  8  1  0  0  0  0
 13 12  1  0  0  0  0
 13 17  1  1  0  0  0
 14 10  1  0  0  0  0
 14  9  1  0  0  0  0
 15 13  1  0  0  0  0
 19 18  1  6  0  0  0
 19 22  1  0  0  0  0
 21 24  1  0  0  0  0
 22 20  1  0  0  0  0
 23 21  1  0  0  0  0
 24 20  1  0  0  0  0
 24 26  1  1  0  0  0
 25 19  1  0  0  0  0
 25 23  1  0  0  0  0
 26 27  1  0  0  0  0
 27 28  2  0  0  0  0
 29 32  1  0  0  0  0
 29 27  1  0  0  0  0
 29 31  1  1  0  0  0
 31 30  2  0  0  0  0
 32 34  1  0  0  0  0
 33 34  1  0  0  0  0
 35 36  1  0  0  0  0
 35  1  1  0  0  0  0
 37 38  2  0  0  0  0
 37 36  1  0  0  0  0
 39 37  1  1  0  0  0
 39 40  1  0  0  0  0
 40 41  1  0  0  0  0
 42 45  1  6  0  0  0
 42 39  1  0  0  0  0
 43 42  1  0  0  0  0
 44 43  1  0  0  0  0
 46 47  1  0  0  0  0
 46 45  1  0  0  0  0
 48 50  1  0  0  0  0
 49 51  1  6  0  0  0
 49 48  1  0  0  0  0
 49 50  1  0  0  0  0
 50 47  1  1  0  0  0
 52 51  1  0  0  0  0
 53 52  1  0  0  0  0
 54 53  1  0  0  0  0
 55 54  1  0  0  0  0
 57 56  1  6  0  0  0
 57 55  1  0  0  0  0
 60 58  1  0  0  0  0
 61 60  1  1  0  0  0
 61 62  1  0  0  0  0
 61 63  1  0  0  0  0
 62 58  1  1  0  0  0
 62 63  1  0  0  0  0
 62 59  1  0  0  0  0
 63 57  1  6  0  0  0
 63 59  1  0  0  0  0
M  END
>  <MODEL>
3

>  <REMARK>
 VINA RESULT:       1.3      1.585      2.268
  Name = 
  29 active torsions:
  status: ('A' for Active; 'I' for Inactive)
    1  A    between atoms: C_2  and  C_18
    2  A    between atoms: C_2  and  C_25
    3  A    between atoms: C_2  and  O_46
    4  A    between atoms: C_3  and  C_48
    5  A    between atoms: C_4  and  C_7
    6  A    between atoms: C_4  and  C_16
    7  A    between atoms: O_5  and  C_26
    8  A    between atoms: O_5  and  C_33
    9  A    between atoms: O_6  and  C_15
   10  A    between atoms: O_6  and  C_32
   11  A    between atoms: C_7  and  C_15
   12  A    between atoms: C_8  and  C_36
   13  A    between atoms: C_9  and  C_26
   14  A    between atoms: C_9  and  C_60
   15  A    between atoms: C_10  and  C_21
   16  A    between atoms: C_10  and  O_37
   17  A    between atoms: O_13  and  C_18
   18  A    between atoms: C_18  and  C_56
   19  A    between atoms: C_25  and  O_37
   20  A    between atoms: C_26  and  C_58
   21  A    between atoms: C_28  and  C_57
   22  A    between atoms: C_32  and  C_35
   23  A    between atoms: C_35  and  C_50
   24  A    between atoms: C_36  and  C_39
   25  A    between atoms: C_48  and  C_57
   26  A    between atoms: C_51  and  C_60
   27  A    between atoms: S_52  and  C_56
   28  A    between atoms: S_52  and  C_59
   29  A    between atoms: C_59  and  C_61
                            x       y       z     vdW  Elec       q    Type
                         _______ _______ _______ _____ _____    ______ ____

>  <TORSDO>
F 29

$$$$
=
 OpenBabel11072415223D

 63 70  0  0  1  0  0  0  0  0999 V2000
  162.1040  208.0130  147.7140 C   0  0  0  0  0  3  0  0  0  0  0  0
  162.0620  208.6090  148.8740 C   0  0  0  0  0  0  0  0  0  0  0  0
  162.0320  209.1820  150.0420 C   0  0  0  0  0  3  0  0  0  0  0  0
  161.1350  208.6560  151.1010 C   0  0  0  0  0  2  0  0  0  0  0  0
  160.3290  209.7760  151.7410 C   0  0  1  0  0  3  0  0  0  0  0  0
  159.8900  209.3930  153.0200 O   0  0  0  0  0  0  0  0  0  0  0  0
  160.9480  210.3240  152.9890 C   0  0  2  0  0  0  0  0  0  0  0  0
  160.4400  211.9360  155.0020 C   0  0  1  0  0  3  0  0  0  0  0  0
  158.6620  212.9630  152.5840 C   0  0  0  0  0  2  0  0  0  0  0  0
  157.1640  213.5610  154.4870 O   0  0  0  0  0  0  0  0  0  0  0  0
  160.4170  211.6820  153.4900 C   0  0  2  0  0  3  0  0  0  0  0  0
  158.9580  211.7720  153.4030 N   0  0  1  0  0  0  0  0  0  0  0  0
  158.9270  212.0300  154.8530 C   0  0  2  0  0  0  0  0  0  0  0  0
  157.4940  213.8140  153.1350 C   0  0  0  0  0  2  0  0  0  0  0  0
  158.3590  213.4020  155.2050 C   0  0  0  0  0  2  0  0  0  0  0  0
  160.9090  210.7510  155.8470 C   0  0  0  0  0  1  0  0  0  0  0  0
  158.2210  211.0220  155.5140 O   0  0  0  0  0  1  0  0  0  0  0  0
  162.1540  209.6770  153.6900 C   0  0  0  0  0  2  0  0  0  0  0  0
  161.9490  208.2080  154.0280 C   0  0  2  0  0  3  0  0  0  0  0  0
  162.2980  205.8820  153.0710 C   0  0  0  0  0  2  0  0  0  0  0  0
  160.1290  205.4270  154.3130 C   0  0  0  0  0  2  0  0  0  0  0  0
  162.3950  207.3810  152.8240 C   0  0  0  0  0  2  0  0  0  0  0  0
  160.3800  206.6590  155.1880 C   0  0  0  0  0  2  0  0  0  0  0  0
  160.8420  205.4490  152.9600 C   0  0  2  0  0  3  0  0  0  0  0  0
  160.4900  207.9500  154.3880 C   0  0  0  0  0  2  0  0  0  0  0  0
  160.7340  204.0900  152.2900 C   0  0  0  0  0  2  0  0  0  0  0  0
  160.9680  204.2270  150.8170 C   0  0  0  0  0  0  0  0  0  0  0  0
  160.8850  205.4290  150.2420 C   0  0  0  0  0  2  0  0  0  0  0  0
  161.3290  203.0300  149.9810 C   0  0  1  0  0  3  0  0  0  0  0  0
  160.4170  200.7880  150.3970 C   0  0  0  0  0  2  0  0  0  0  0  0
  161.2130  201.7820  150.7980 C   0  0  0  0  0  3  0  0  0  0  0  0
  160.4950  202.9390  148.8640 O   0  0  0  0  0  0  0  0  0  0  0  0
  160.9870  201.4450  147.0790 C   0  0  0  0  0  1  0  0  0  0  0  0
  161.3520  202.7420  147.7780 C   0  0  0  0  0  2  0  0  0  0  0  0
  163.1380  206.9730  147.4470 C   0  0  0  0  0  2  0  0  0  0  0  0
  162.5430  205.6970  147.2120 O   0  0  0  0  0  0  0  0  0  0  0  0
  162.1480  205.2250  145.9490 C   0  0  0  0  0  0  0  0  0  0  0  0
  163.0220  204.6980  145.0880 C   0  0  0  0  0  2  0  0  0  0  0  0
  160.7120  205.3630  145.5270 C   0  0  1  0  0  3  0  0  0  0  0  0
  160.2600  206.6460  145.8480 O   0  0  0  0  0  0  0  0  0  0  0  0
  159.0060  206.4620  146.4320 C   0  0  0  0  0  1  0  0  0  0  0  0
  160.5440  205.1140  144.0130 C   0  0  2  0  0  3  0  0  0  0  0  0
  160.2660  203.7620  143.7030 O   0  0  0  0  0  0  0  0  0  0  0  0
  159.3750  203.2490  144.6560 C   0  0  0  0  0  1  0  0  0  0  0  0
  161.6780  205.6980  143.1600 C   0  0  0  0  0  2  0  0  0  0  0  0
  161.0700  207.0050  142.0440 S   0  0  0  0  0  0  0  0  0  0  0  0
  162.2080  206.6010  140.6820 C   0  0  0  0  0  2  0  0  0  0  0  0
  161.6870  208.9280  140.1030 C   0  0  0  0  0  2  0  0  0  0  0  0
  161.9460  208.1920  138.8060 C   0  0  2  0  0  3  0  0  0  0  0  0
  162.7570  207.8600  140.0420 C   0  0  2  0  0  3  0  0  0  0  0  0
  162.7790  209.0750  137.8900 C   0  0  0  0  0  2  0  0  0  0  0  0
  161.8930  209.9480  137.0130 C   0  0  0  0  0  2  0  0  0  0  0  0
  160.9200  210.7520  137.8630 C   0  0  0  0  0  2  0  0  0  0  0  0
  161.0110  212.1140  137.5630 O   0  0  0  0  0  0  0  0  0  0  0  0
  161.7230  212.6950  138.6250 C   0  0  0  0  0  2  0  0  0  0  0  0
  159.9980  214.3080  138.2590 O   0  0  0  0  0  1  0  0  0  0  0  0
  161.1310  214.0490  139.0320 C   0  0  1  0  0  3  0  0  0  0  0  0
  160.1060  212.8500  142.9840 S   0  0  0  0  0  0  0  0  0  0  0  0
  159.4640  213.6810  140.6600 O   0  0  0  0  0  0  0  0  0  0  0  0
  162.0100  213.7640  142.9430 S   0  0  0  0  0  0  0  0  0  0  0  0
  161.8220  213.2870  141.2060 C   0  0  1  0  0  3  0  0  0  0  0  0
  160.4000  212.7880  141.1880 C   0  0  2  0  0  0  0  0  0  0  0  0
  160.7860  214.1300  140.5250 C   0  0  2  0  0  0  0  0  0  0  0  0
  1  2  2  0  0  0  0
  2  3  2  0  0  0  0
  3  4  1  0  0  0  0
  5  4  1  1  0  0  0
  5  7  1  0  0  0  0
  5  6  1  0  0  0  0
  7  6  1  0  0  0  0
  7 18  1  1  0  0  0
  8 16  1  1  0  0  0
  9 14  1  0  0  0  0
 10 15  1  0  0  0  0
 11  7  1  1  0  0  0
 11  8  1  0  0  0  0
 12  9  1  6  0  0  0
 12 11  1  0  0  0  0
 12 13  1  0  0  0  0
 13  8  1  0  0  0  0
 13 15  1  0  0  0  0
 13 17  1  1  0  0  0
 14 10  1  0  0  0  0
 19 18  1  6  0  0  0
 19 25  1  0  0  0  0
 21 23  1  0  0  0  0
 22 20  1  0  0  0  0
 22 19  1  0  0  0  0
 24 26  1  1  0  0  0
 24 20  1  0  0  0  0
 24 21  1  0  0  0  0
 25 23  1  0  0  0  0
 27 26  1  0  0  0  0
 28 27  2  0  0  0  0
 29 31  1  1  0  0  0
 29 27  1  0  0  0  0
 30 31  2  0  0  0  0
 32 29  1  0  0  0  0
 33 34  1  0  0  0  0
 34 32  1  0  0  0  0
 35  1  1  0  0  0  0
 36 35  1  0  0  0  0
 37 36  1  0  0  0  0
 38 37  2  0  0  0  0
 39 40  1  6  0  0  0
 39 37  1  0  0  0  0
 40 41  1  0  0  0  0
 42 45  1  6  0  0  0
 42 39  1  0  0  0  0
 43 42  1  0  0  0  0
 43 44  1  0  0  0  0
 46 45  1  0  0  0  0
 47 46  1  0  0  0  0
 49 51  1  6  0  0  0
 49 50  1  0  0  0  0
 49 48  1  0  0  0  0
 50 48  1  0  0  0  0
 50 47  1  1  0  0  0
 52 53  1  0  0  0  0
 52 51  1  0  0  0  0
 54 53  1  0  0  0  0
 54 55  1  0  0  0  0
 55 57  1  0  0  0  0
 57 56  1  6  0  0  0
 60 58  1  0  0  0  0
 61 60  1  1  0  0  0
 62 59  1  6  0  0  0
 62 61  1  0  0  0  0
 62 58  1  0  0  0  0
 63 57  1  6  0  0  0
 63 59  1  0  0  0  0
 63 62  1  0  0  0  0
 63 61  1  0  0  0  0
M  END
>  <MODEL>
4

>  <REMARK>
 VINA RESULT:       1.3      2.806      7.091
  Name = 
  29 active torsions:
  status: ('A' for Active; 'I' for Inactive)
    1  A    between atoms: C_2  and  C_18
    2  A    between atoms: C_2  and  C_25
    3  A    between atoms: C_2  and  O_46
    4  A    between atoms: C_3  and  C_48
    5  A    between atoms: C_4  and  C_7
    6  A    between atoms: C_4  and  C_16
    7  A    between atoms: O_5  and  C_26
    8  A    between atoms: O_5  and  C_33
    9  A    between atoms: O_6  and  C_15
   10  A    between atoms: O_6  and  C_32
   11  A    between atoms: C_7  and  C_15
   12  A    between atoms: C_8  and  C_36
   13  A    between atoms: C_9  and  C_26
   14  A    between atoms: C_9  and  C_60
   15  A    between atoms: C_10  and  C_21
   16  A    between atoms: C_10  and  O_37
   17  A    between atoms: O_13  and  C_18
   18  A    between atoms: C_18  and  C_56
   19  A    between atoms: C_25  and  O_37
   20  A    between atoms: C_26  and  C_58
   21  A    between atoms: C_28  and  C_57
   22  A    between atoms: C_32  and  C_35
   23  A    between atoms: C_35  and  C_50
   24  A    between atoms: C_36  and  C_39
   25  A    between atoms: C_48  and  C_57
   26  A    between atoms: C_51  and  C_60
   27  A    between atoms: S_52  and  C_56
   28  A    between atoms: S_52  and  C_59
   29  A    between atoms: C_59  and  C_61
                            x       y       z     vdW  Elec       q    Type
                         _______ _______ _______ _____ _____    ______ ____

>  <TORSDO>
F 29

$$$$
=
 OpenBabel11072415223D

 63 70  0  0  1  0  0  0  0  0999 V2000
  161.7500  206.2510  142.1510 C   0  0  0  0  0  3  0  0  0  0  0  0
  161.9310  206.9730  141.0780 C   0  0  0  0  0  0  0  0  0  0  0  0
  162.1190  207.7130  140.0250 C   0  0  0  0  0  3  0  0  0  0  0  0
  161.1740  208.8160  139.7190 C   0  0  0  0  0  2  0  0  0  0  0  0
  161.6280  210.1190  140.3620 C   0  0  1  0  0  3  0  0  0  0  0  0
  162.2960  210.9200  139.4200 O   0  0  0  0  0  0  0  0  0  0  0  0
  160.9940  211.3360  139.7630 C   0  0  2  0  0  0  0  0  0  0  0  0
  162.4610  213.3440  140.6140 C   0  0  1  0  0  3  0  0  0  0  0  0
  159.9570  213.2000  142.5570 C   0  0  0  0  0  2  0  0  0  0  0  0
  161.6820  214.0280  144.1590 O   0  0  0  0  0  0  0  0  0  0  0  0
  161.0980  212.6420  140.5750 C   0  0  2  0  0  3  0  0  0  0  0  0
  161.0750  212.4010  142.0190 N   0  0  1  0  0  0  0  0  0  0  0  0
  162.3820  213.0770  142.1110 C   0  0  2  0  0  0  0  0  0  0  0  0
  160.2990  213.9200  143.8830 C   0  0  0  0  0  2  0  0  0  0  0  0
  162.3420  214.3440  142.9610 C   0  0  0  0  0  2  0  0  0  0  0  0
  163.5910  212.5950  139.9070 C   0  0  0  0  0  1  0  0  0  0  0  0
  163.3540  212.1960  142.5890 O   0  0  0  0  0  1  0  0  0  0  0  0
  160.1450  211.3050  138.4810 C   0  0  0  0  0  2  0  0  0  0  0  0
  158.7240  211.8090  138.6770 C   0  0  2  0  0  3  0  0  0  0  0  0
  156.3250  210.9870  138.8070 C   0  0  0  0  0  2  0  0  0  0  0  0
  155.8720  213.2030  137.6510 C   0  0  0  0  0  2  0  0  0  0  0  0
  157.7800  210.6150  138.5600 C   0  0  0  0  0  2  0  0  0  0  0  0
  157.2260  213.7270  138.1400 C   0  0  0  0  0  2  0  0  0  0  0  0
  155.7690  211.6800  137.5690 C   0  0  2  0  0  3  0  0  0  0  0  0
  158.4030  212.8920  137.6520 C   0  0  0  0  0  2  0  0  0  0  0  0
  154.3270  211.2670  137.3240 C   0  0  0  0  0  2  0  0  0  0  0  0
  154.0870  209.8980  137.8820 C   0  0  0  0  0  0  0  0  0  0  0  0
  154.6950  208.8430  137.3350 C   0  0  0  0  0  2  0  0  0  0  0  0
  153.1950  209.7010  139.0760 C   0  0  1  0  0  3  0  0  0  0  0  0
  154.4900  207.8660  140.0700 C   0  0  0  0  0  2  0  0  0  0  0  0
  153.3240  208.3010  139.5860 C   0  0  0  0  0  3  0  0  0  0  0  0
  153.5240  210.6020  140.0920 O   0  0  0  0  0  0  0  0  0  0  0  0
  153.0390  210.8390  142.4090 C   0  0  0  0  0  1  0  0  0  0  0  0
  152.4990  210.4880  141.0350 C   0  0  0  0  0  2  0  0  0  0  0  0
  162.4550  206.6050  143.4160 C   0  0  0  0  0  2  0  0  0  0  0  0
  162.7070  205.4470  144.2110 O   0  0  0  0  0  0  0  0  0  0  0  0
  162.1100  205.1940  145.4580 C   0  0  0  0  0  0  0  0  0  0  0  0
  161.2930  206.0750  146.0410 C   0  0  0  0  0  2  0  0  0  0  0  0
  162.4370  203.9200  146.1860 C   0  0  1  0  0  3  0  0  0  0  0  0
  163.8190  203.7110  146.1480 O   0  0  0  0  0  0  0  0  0  0  0  0
  164.3550  204.6060  147.0740 C   0  0  0  0  0  1  0  0  0  0  0  0
  161.9560  203.9700  147.6520 C   0  0  2  0  0  3  0  0  0  0  0  0
  160.6170  203.5460  147.8090 O   0  0  0  0  0  0  0  0  0  0  0  0
  160.3540  202.5160  146.8950 C   0  0  0  0  0  1  0  0  0  0  0  0
  162.2420  205.3060  148.3510 C   0  0  0  0  0  2  0  0  0  0  0  0
  160.8950  205.7680  149.4880 S   0  0  0  0  0  0  0  0  0  0  0  0
  161.9620  206.6780  150.6480 C   0  0  0  0  0  2  0  0  0  0  0  0
  161.8210  209.1170  150.8750 C   0  0  0  0  0  2  0  0  0  0  0  0
  162.1300  208.5570  152.2470 C   0  0  2  0  0  3  0  0  0  0  0  0
  161.2020  207.8080  151.3130 C   0  0  2  0  0  3  0  0  0  0  0  0
  161.2980  209.2950  153.2840 C   0  0  0  0  0  2  0  0  0  0  0  0
  161.3140  208.5700  154.6220 C   0  0  0  0  0  2  0  0  0  0  0  0
  161.8350  209.4830  155.7220 C   0  0  0  0  0  2  0  0  0  0  0  0
  161.9270  210.8010  155.2670 O   0  0  0  0  0  0  0  0  0  0  0  0
  160.8140  211.4710  155.7990 C   0  0  0  0  0  2  0  0  0  0  0  0
  159.0830  209.8350  155.5980 O   0  0  0  0  0  1  0  0  0  0  0  0
  159.5150  211.0640  155.0940 C   0  0  1  0  0  3  0  0  0  0  0  0
  155.8140  212.8780  156.1520 S   0  0  0  0  0  0  0  0  0  0  0  0
  157.3060  211.6360  154.4980 O   0  0  0  0  0  0  0  0  0  0  0  0
  157.4300  213.8540  157.0980 S   0  0  0  0  0  0  0  0  0  0  0  0
  158.1810  212.2540  156.7030 C   0  0  1  0  0  3  0  0  0  0  0  0
  157.0950  211.6130  155.8780 C   0  0  2  0  0  0  0  0  0  0  0  0
  158.4040  212.1140  155.2270 C   0  0  2  0  0  0  0  0  0  0  0  0
  1 35  1  0  0  0  0
  2  1  2  0  0  0  0
  3  2  2  0  0  0  0
  4  3  1  0  0  0  0
  5  4  1  6  0  0  0
  6  7  1  0  0  0  0
  6  5  1  0  0  0  0
  7 18  1  6  0  0  0
  7  5  1  0  0  0  0
  8 16  1  6  0  0  0
  8 13  1  0  0  0  0
  9 14  1  0  0  0  0
 11  7  1  6  0  0  0
 11  8  1  0  0  0  0
 11 12  1  0  0  0  0
 12 13  1  0  0  0  0
 12  9  1  1  0  0  0
 13 17  1  1  0  0  0
 13 15  1  0  0  0  0
 14 10  1  0  0  0  0
 15 10  1  0  0  0  0
 19 18  1  6  0  0  0
 21 23  1  0  0  0  0
 22 19  1  0  0  0  0
 22 20  1  0  0  0  0
 24 26  1  1  0  0  0
 24 21  1  0  0  0  0
 24 20  1  0  0  0  0
 25 23  1  0  0  0  0
 25 19  1  0  0  0  0
 26 27  1  0  0  0  0
 27 29  1  0  0  0  0
 28 27  2  0  0  0  0
 29 31  1  1  0  0  0
 29 32  1  0  0  0  0
 31 30  2  0  0  0  0
 32 34  1  0  0  0  0
 34 33  1  0  0  0  0
 35 36  1  0  0  0  0
 36 37  1  0  0  0  0
 37 38  2  0  0  0  0
 39 37  1  1  0  0  0
 39 42  1  0  0  0  0
 40 39  1  0  0  0  0
 40 41  1  0  0  0  0
 42 43  1  0  0  0  0
 42 45  1  6  0  0  0
 44 43  1  0  0  0  0
 45 46  1  0  0  0  0
 46 47  1  0  0  0  0
 48 50  1  0  0  0  0
 48 49  1  0  0  0  0
 49 51  1  1  0  0  0
 50 47  1  6  0  0  0
 50 49  1  0  0  0  0
 51 52  1  0  0  0  0
 52 53  1  0  0  0  0
 54 53  1  0  0  0  0
 54 55  1  0  0  0  0
 57 56  1  1  0  0  0
 57 55  1  0  0  0  0
 58 60  1  0  0  0  0
 59 63  1  0  0  0  0
 61 60  1  6  0  0  0
 62 59  1  1  0  0  0
 62 58  1  0  0  0  0
 62 61  1  0  0  0  0
 63 57  1  1  0  0  0
 63 62  1  0  0  0  0
 63 61  1  0  0  0  0
M  END
>  <MODEL>
5

>  <REMARK>
 VINA RESULT:       1.3      4.576     11.700
  Name = 
  29 active torsions:
  status: ('A' for Active; 'I' for Inactive)
    1  A    between atoms: C_2  and  C_18
    2  A    between atoms: C_2  and  C_25
    3  A    between atoms: C_2  and  O_46
    4  A    between atoms: C_3  and  C_48
    5  A    between atoms: C_4  and  C_7
    6  A    between atoms: C_4  and  C_16
    7  A    between atoms: O_5  and  C_26
    8  A    between atoms: O_5  and  C_33
    9  A    between atoms: O_6  and  C_15
   10  A    between atoms: O_6  and  C_32
   11  A    between atoms: C_7  and  C_15
   12  A    between atoms: C_8  and  C_36
   13  A    between atoms: C_9  and  C_26
   14  A    between atoms: C_9  and  C_60
   15  A    between atoms: C_10  and  C_21
   16  A    between atoms: C_10  and  O_37
   17  A    between atoms: O_13  and  C_18
   18  A    between atoms: C_18  and  C_56
   19  A    between atoms: C_25  and  O_37
   20  A    between atoms: C_26  and  C_58
   21  A    between atoms: C_28  and  C_57
   22  A    between atoms: C_32  and  C_35
   23  A    between atoms: C_35  and  C_50
   24  A    between atoms: C_36  and  C_39
   25  A    between atoms: C_48  and  C_57
   26  A    between atoms: C_51  and  C_60
   27  A    between atoms: S_52  and  C_56
   28  A    between atoms: S_52  and  C_59
   29  A    between atoms: C_59  and  C_61
                            x       y       z     vdW  Elec       q    Type
                         _______ _______ _______ _____ _____    ______ ____

>  <TORSDO>
F 29

$$$$
=
 OpenBabel11072415223D

 63 70  0  0  1  0  0  0  0  0999 V2000
  161.7500  206.2510  142.1510 C   0  0  0  0  0  3  0  0  0  0  0  0
  161.9310  206.9730  141.0780 C   0  0  0  0  0  0  0  0  0  0  0  0
  162.1190  207.7130  140.0250 C   0  0  0  0  0  3  0  0  0  0  0  0
  161.1740  208.8160  139.7190 C   0  0  0  0  0  2  0  0  0  0  0  0
  161.6280  210.1190  140.3620 C   0  0  1  0  0  3  0  0  0  0  0  0
  162.2960  210.9200  139.4200 O   0  0  0  0  0  0  0  0  0  0  0  0
  160.9940  211.3360  139.7630 C   0  0  2  0  0  0  0  0  0  0  0  0
  162.4610  213.3440  140.6140 C   0  0  1  0  0  3  0  0  0  0  0  0
  159.9570  213.2000  142.5570 C   0  0  0  0  0  2  0  0  0  0  0  0
  161.6820  214.0280  144.1590 O   0  0  0  0  0  0  0  0  0  0  0  0
  161.0980  212.6420  140.5750 C   0  0  2  0  0  3  0  0  0  0  0  0
  161.0750  212.4010  142.0190 N   0  0  1  0  0  0  0  0  0  0  0  0
  162.3820  213.0770  142.1110 C   0  0  2  0  0  0  0  0  0  0  0  0
  160.2990  213.9200  143.8830 C   0  0  0  0  0  2  0  0  0  0  0  0
  162.3420  214.3440  142.9610 C   0  0  0  0  0  2  0  0  0  0  0  0
  163.5910  212.5950  139.9070 C   0  0  0  0  0  1  0  0  0  0  0  0
  163.3540  212.1960  142.5890 O   0  0  0  0  0  1  0  0  0  0  0  0
  160.1450  211.3050  138.4810 C   0  0  0  0  0  2  0  0  0  0  0  0
  158.7230  211.8070  138.6780 C   0  0  2  0  0  3  0  0  0  0  0  0
  156.3150  211.0020  138.6820 C   0  0  0  0  0  2  0  0  0  0  0  0
  155.9110  213.3040  137.6860 C   0  0  0  0  0  2  0  0  0  0  0  0
  157.7730  210.6340  138.4460 C   0  0  0  0  0  2  0  0  0  0  0  0
  157.2560  213.7750  138.2480 C   0  0  0  0  0  2  0  0  0  0  0  0
  155.7980  211.7920  137.4870 C   0  0  2  0  0  3  0  0  0  0  0  0
  158.4390  212.9670  137.7290 C   0  0  0  0  0  2  0  0  0  0  0  0
  154.3600  211.4130  137.1730 C   0  0  0  0  0  2  0  0  0  0  0  0
  154.0940  210.0080  137.6200 C   0  0  0  0  0  0  0  0  0  0  0  0
  154.7080  208.9910  137.0110 C   0  0  0  0  0  2  0  0  0  0  0  0
  153.1680  209.7310  138.7720 C   0  0  1  0  0  3  0  0  0  0  0  0
  154.0160  207.7930  140.0220 C   0  0  0  0  0  2  0  0  0  0  0  0
  153.1790  208.2710  139.0970 C   0  0  0  0  0  3  0  0  0  0  0  0
  153.5500  210.4650  139.8990 O   0  0  0  0  0  0  0  0  0  0  0  0
  152.6930  212.6310  140.3820 C   0  0  0  0  0  1  0  0  0  0  0  0
  152.3980  211.1440  140.3050 C   0  0  0  0  0  2  0  0  0  0  0  0
  162.4550  206.6050  143.4160 C   0  0  0  0  0  2  0  0  0  0  0  0
  162.7070  205.4470  144.2110 O   0  0  0  0  0  0  0  0  0  0  0  0
  162.1100  205.1940  145.4580 C   0  0  0  0  0  0  0  0  0  0  0  0
  161.2930  206.0750  146.0410 C   0  0  0  0  0  2  0  0  0  0  0  0
  162.4370  203.9200  146.1860 C   0  0  1  0  0  3  0  0  0  0  0  0
  163.8190  203.7110  146.1480 O   0  0  0  0  0  0  0  0  0  0  0  0
  164.1780  203.8480  144.8070 C   0  0  0  0  0  1  0  0  0  0  0  0
  161.9560  203.9700  147.6520 C   0  0  2  0  0  3  0  0  0  0  0  0
  160.6170  203.5460  147.8090 O   0  0  0  0  0  0  0  0  0  0  0  0
  160.6070  202.2840  148.4210 C   0  0  0  0  0  1  0  0  0  0  0  0
  162.2420  205.3060  148.3510 C   0  0  0  0  0  2  0  0  0  0  0  0
  160.8540  205.8140  149.4170 S   0  0  0  0  0  0  0  0  0  0  0  0
  161.8940  206.6370  150.6630 C   0  0  0  0  0  2  0  0  0  0  0  0
  160.2490  208.4550  150.7570 C   0  0  0  0  0  2  0  0  0  0  0  0
  161.4880  208.9350  151.4820 C   0  0  2  0  0  3  0  0  0  0  0  0
  161.0550  207.4870  151.5950 C   0  0  2  0  0  3  0  0  0  0  0  0
  161.0710  209.6770  152.7420 C   0  0  0  0  0  2  0  0  0  0  0  0
  161.2060  211.1820  152.5660 C   0  0  0  0  0  2  0  0  0  0  0  0
  159.9540  211.8950  153.0570 C   0  0  0  0  0  2  0  0  0  0  0  0
  159.2550  211.0950  153.9650 O   0  0  0  0  0  0  0  0  0  0  0  0
  159.5350  211.6200  155.2360 C   0  0  0  0  0  2  0  0  0  0  0  0
  161.2060  211.8880  156.9250 O   0  0  0  0  0  1  0  0  0  0  0  0
  160.9840  211.3450  155.6580 C   0  0  1  0  0  3  0  0  0  0  0  0
  161.5510  207.3470  156.9970 S   0  0  0  0  0  0  0  0  0  0  0  0
  162.4300  209.6910  156.5150 O   0  0  0  0  0  0  0  0  0  0  0  0
  160.0720  207.4350  155.4910 S   0  0  0  0  0  0  0  0  0  0  0  0
  160.0810  209.1540  156.0640 C   0  0  1  0  0  3  0  0  0  0  0  0
  161.2490  209.1430  157.0170 C   0  0  2  0  0  0  0  0  0  0  0  0
  161.3400  209.8530  155.6480 C   0  0  2  0  0  0  0  0  0  0  0  0
  1 35  1  0  0  0  0
  2  1  2  0  0  0  0
  3  2  2  0  0  0  0
  4  3  1  0  0  0  0
  5  4  1  6  0  0  0
  6  7  1  0  0  0  0
  6  5  1  0  0  0  0
  7 18  1  6  0  0  0
  7  5  1  0  0  0  0
  8 16  1  6  0  0  0
  8 13  1  0  0  0  0
  9 14  1  0  0  0  0
 11  7  1  6  0  0  0
 11  8  1  0  0  0  0
 11 12  1  0  0  0  0
 12 13  1  0  0  0  0
 12  9  1  1  0  0  0
 13 17  1  1  0  0  0
 13 15  1  0  0  0  0
 14 10  1  0  0  0  0
 15 10  1  0  0  0  0
 19 18  1  6  0  0  0
 21 23  1  0  0  0  0
 22 19  1  0  0  0  0
 22 20  1  0  0  0  0
 24 26  1  1  0  0  0
 24 21  1  0  0  0  0
 24 20  1  0  0  0  0
 25 23  1  0  0  0  0
 25 19  1  0  0  0  0
 26 27  1  0  0  0  0
 27 29  1  0  0  0  0
 28 27  2  0  0  0  0
 29 31  1  1  0  0  0
 29 32  1  0  0  0  0
 31 30  2  0  0  0  0
 32 34  1  0  0  0  0
 34 33  1  0  0  0  0
 35 36  1  0  0  0  0
 36 37  1  0  0  0  0
 37 38  2  0  0  0  0
 39 37  1  1  0  0  0
 39 42  1  0  0  0  0
 40 39  1  0  0  0  0
 41 40  1  0  0  0  0
 42 43  1  0  0  0  0
 42 45  1  6  0  0  0
 43 44  1  0  0  0  0
 45 46  1  0  0  0  0
 46 47  1  0  0  0  0
 48 49  1  0  0  0  0
 48 50  1  0  0  0  0
 49 50  1  0  0  0  0
 49 51  1  1  0  0  0
 50 47  1  6  0  0  0
 52 51  1  0  0  0  0
 52 53  1  0  0  0  0
 53 54  1  0  0  0  0
 54 55  1  0  0  0  0
 55 57  1  0  0  0  0
 57 56  1  1  0  0  0
 58 62  1  0  0  0  0
 60 58  1  0  0  0  0
 61 60  1  6  0  0  0
 61 62  1  0  0  0  0
 62 59  1  1  0  0  0
 63 57  1  1  0  0  0
 63 61  1  0  0  0  0
 63 59  1  0  0  0  0
 63 62  1  0  0  0  0
M  END
>  <MODEL>
6

>  <REMARK>
 VINA RESULT:       1.6      4.284     11.807
  Name = 
  29 active torsions:
  status: ('A' for Active; 'I' for Inactive)
    1  A    between atoms: C_2  and  C_18
    2  A    between atoms: C_2  and  C_25
    3  A    between atoms: C_2  and  O_46
    4  A    between atoms: C_3  and  C_48
    5  A    between atoms: C_4  and  C_7
    6  A    between atoms: C_4  and  C_16
    7  A    between atoms: O_5  and  C_26
    8  A    between atoms: O_5  and  C_33
    9  A    between atoms: O_6  and  C_15
   10  A    between atoms: O_6  and  C_32
   11  A    between atoms: C_7  and  C_15
   12  A    between atoms: C_8  and  C_36
   13  A    between atoms: C_9  and  C_26
   14  A    between atoms: C_9  and  C_60
   15  A    between atoms: C_10  and  C_21
   16  A    between atoms: C_10  and  O_37
   17  A    between atoms: O_13  and  C_18
   18  A    between atoms: C_18  and  C_56
   19  A    between atoms: C_25  and  O_37
   20  A    between atoms: C_26  and  C_58
   21  A    between atoms: C_28  and  C_57
   22  A    between atoms: C_32  and  C_35
   23  A    between atoms: C_35  and  C_50
   24  A    between atoms: C_36  and  C_39
   25  A    between atoms: C_48  and  C_57
   26  A    between atoms: C_51  and  C_60
   27  A    between atoms: S_52  and  C_56
   28  A    between atoms: S_52  and  C_59
   29  A    between atoms: C_59  and  C_61
                            x       y       z     vdW  Elec       q    Type
                         _______ _______ _______ _____ _____    ______ ____

>  <TORSDO>
F 29

$$$$
=
 OpenBabel11072415223D

 63 70  0  0  1  0  0  0  0  0999 V2000
  162.1250  207.7690  148.9530 C   0  0  0  0  0  3  0  0  0  0  0  0
  161.8060  208.6510  149.8610 C   0  0  0  0  0  0  0  0  0  0  0  0
  161.4920  209.5500  150.7480 C   0  0  0  0  0  3  0  0  0  0  0  0
  162.5350  210.4650  151.2740 C   0  0  0  0  0  2  0  0  0  0  0  0
  161.9400  211.4680  152.2520 C   0  0  1  0  0  3  0  0  0  0  0  0
  160.6260  211.7960  151.8740 O   0  0  0  0  0  0  0  0  0  0  0  0
  160.7470  210.9480  152.9930 C   0  0  2  0  0  0  0  0  0  0  0  0
  161.1210  211.5100  155.5330 C   0  0  1  0  0  3  0  0  0  0  0  0
  158.1300  212.3410  154.8800 C   0  0  0  0  0  2  0  0  0  0  0  0
  157.8600  211.6460  157.2610 O   0  0  0  0  0  0  0  0  0  0  0  0
  160.3140  211.7310  154.2470 C   0  0  2  0  0  3  0  0  0  0  0  0
  159.0740  211.2080  154.8260 N   0  0  1  0  0  0  0  0  0  0  0  0
  159.8030  210.9870  156.0870 C   0  0  2  0  0  0  0  0  0  0  0  0
  157.3190  212.4030  156.1960 C   0  0  0  0  0  2  0  0  0  0  0  0
  159.2540  211.8100  157.2480 C   0  0  0  0  0  2  0  0  0  0  0  0
  162.2180  210.4510  155.4300 C   0  0  0  0  0  1  0  0  0  0  0  0
  159.8160  209.6280  156.4120 O   0  0  0  0  0  1  0  0  0  0  0  0
  160.0470  209.6230  152.6460 C   0  0  0  0  0  2  0  0  0  0  0  0
  160.8130  208.3900  153.1000 C   0  0  2  0  0  3  0  0  0  0  0  0
  161.6720  206.1580  152.2460 C   0  0  0  0  0  2  0  0  0  0  0  0
  161.1000  205.4290  154.6110 C   0  0  0  0  0  2  0  0  0  0  0  0
  160.8670  207.4110  151.9300 C   0  0  0  0  0  2  0  0  0  0  0  0
  161.1410  206.8920  155.0640 C   0  0  0  0  0  2  0  0  0  0  0  0
  160.8350  205.2310  153.1180 C   0  0  2  0  0  3  0  0  0  0  0  0
  160.1450  207.7770  154.3260 C   0  0  0  0  0  2  0  0  0  0  0  0
  161.0650  203.7790  152.7340 C   0  0  0  0  0  2  0  0  0  0  0  0
  160.6180  203.5470  151.3240 C   0  0  0  0  0  0  0  0  0  0  0  0
  159.6010  204.2540  150.8260 C   0  0  0  0  0  2  0  0  0  0  0  0
  161.3250  202.5500  150.4480 C   0  0  1  0  0  3  0  0  0  0  0  0
  162.9890  200.8260  150.9880 C   0  0  0  0  0  2  0  0  0  0  0  0
  161.8200  201.4040  151.2730 C   0  0  0  0  0  3  0  0  0  0  0  0
  160.4690  202.0750  149.4510 O   0  0  0  0  0  0  0  0  0  0  0  0
  161.1490  200.7650  147.5850 C   0  0  0  0  0  1  0  0  0  0  0  0
  160.9760  200.8240  149.0920 C   0  0  0  0  0  2  0  0  0  0  0  0
  161.9400  208.0870  147.5080 C   0  0  0  0  0  2  0  0  0  0  0  0
  160.9330  207.2640  146.9200 O   0  0  0  0  0  0  0  0  0  0  0  0
  161.0240  205.8680  146.7870 C   0  0  0  0  0  0  0  0  0  0  0  0
  161.4170  205.0870  147.7960 C   0  0  0  0  0  2  0  0  0  0  0  0
  160.7230  205.2340  145.4580 C   0  0  1  0  0  3  0  0  0  0  0  0
  159.5780  205.8240  144.9150 O   0  0  0  0  0  0  0  0  0  0  0  0
  158.5080  205.2860  145.6310 C   0  0  0  0  0  1  0  0  0  0  0  0
  161.9060  205.3910  144.4780 C   0  0  2  0  0  3  0  0  0  0  0  0
  163.1580  205.4690  145.1310 O   0  0  0  0  0  0  0  0  0  0  0  0
  163.6060  204.1710  145.4140 C   0  0  0  0  0  1  0  0  0  0  0  0
  161.7070  206.5060  143.4430 C   0  0  0  0  0  2  0  0  0  0  0  0
  161.3190  205.8280  141.7960 S   0  0  0  0  0  0  0  0  0  0  0  0
  162.0950  207.1890  140.8700 C   0  0  0  0  0  2  0  0  0  0  0  0
  162.3310  206.2040  138.6340 C   0  0  0  0  0  2  0  0  0  0  0  0
  162.7020  207.6670  138.5200 C   0  0  2  0  0  3  0  0  0  0  0  0
  161.5810  207.2380  139.4450 C   0  0  2  0  0  3  0  0  0  0  0  0
  162.1020  208.2340  137.2440 C   0  0  0  0  0  2  0  0  0  0  0  0
  162.5270  209.6800  137.0290 C   0  0  0  0  0  2  0  0  0  0  0  0
  162.2120  210.5200  138.2580 C   0  0  0  0  0  2  0  0  0  0  0  0
  161.8470  211.8180  137.8870 O   0  0  0  0  0  0  0  0  0  0  0  0
  160.4490  211.8720  138.0010 C   0  0  0  0  0  2  0  0  0  0  0  0
  160.1130  212.6540  140.2350 O   0  0  0  0  0  1  0  0  0  0  0  0
  159.9800  211.5280  139.4200 C   0  0  1  0  0  3  0  0  0  0  0  0
  155.7780  211.2830  138.7990 S   0  0  0  0  0  0  0  0  0  0  0  0
  157.7970  211.9270  140.2180 O   0  0  0  0  0  0  0  0  0  0  0  0
  156.7750  209.6840  137.8460 S   0  0  0  0  0  0  0  0  0  0  0  0
  158.1310  210.8720  138.0290 C   0  0  1  0  0  3  0  0  0  0  0  0
  157.4730  211.9450  138.8590 C   0  0  2  0  0  0  0  0  0  0  0  0
  158.5390  211.0040  139.4660 C   0  0  2  0  0  0  0  0  0  0  0  0
  1  2  2  0  0  0  0
  2  3  2  0  0  0  0
  3  4  1  0  0  0  0
  5  4  1  6  0  0  0
  5  7  1  0  0  0  0
  6  5  1  0  0  0  0
  6  7  1  0  0  0  0
  7 18  1  6  0  0  0
  8 16  1  6  0  0  0
  8 13  1  0  0  0  0
  9 14  1  0  0  0  0
 11  7  1  6  0  0  0
 11 12  1  0  0  0  0
 11  8  1  0  0  0  0
 12  9  1  1  0  0  0
 12 13  1  0  0  0  0
 13 17  1  1  0  0  0
 13 15  1  0  0  0  0
 14 10  1  0  0  0  0
 15 10  1  0  0  0  0
 19 18  1  6  0  0  0
 19 25  1  0  0  0  0
 20 24  1  0  0  0  0
 21 23  1  0  0  0  0
 22 20  1  0  0  0  0
 22 19  1  0  0  0  0
 24 26  1  6  0  0  0
 24 21  1  0  0  0  0
 25 23  1  0  0  0  0
 27 26  1  0  0  0  0
 28 27  2  0  0  0  0
 29 31  1  1  0  0  0
 29 27  1  0  0  0  0
 30 31  2  0  0  0  0
 32 29  1  0  0  0  0
 33 34  1  0  0  0  0
 34 32  1  0  0  0  0
 35  1  1  0  0  0  0
 36 35  1  0  0  0  0
 37 36  1  0  0  0  0
 37 38  2  0  0  0  0
 39 40  1  6  0  0  0
 39 37  1  0  0  0  0
 40 41  1  0  0  0  0
 42 45  1  1  0  0  0
 42 43  1  0  0  0  0
 42 39  1  0  0  0  0
 43 44  1  0  0  0  0
 46 45  1  0  0  0  0
 47 46  1  0  0  0  0
 48 50  1  0  0  0  0
 49 51  1  6  0  0  0
 49 48  1  0  0  0  0
 49 50  1  0  0  0  0
 50 47  1  1  0  0  0
 52 51  1  0  0  0  0
 52 53  1  0  0  0  0
 54 55  1  0  0  0  0
 54 53  1  0  0  0  0
 55 57  1  0  0  0  0
 57 56  1  1  0  0  0
 60 58  1  0  0  0  0
 61 60  1  1  0  0  0
 61 62  1  0  0  0  0
 61 63  1  0  0  0  0
 62 58  1  1  0  0  0
 62 63  1  0  0  0  0
 62 59  1  0  0  0  0
 63 57  1  6  0  0  0
 63 59  1  0  0  0  0
M  END
>  <MODEL>
7

>  <REMARK>
 VINA RESULT:       1.9      3.050      7.476
  Name = 
  29 active torsions:
  status: ('A' for Active; 'I' for Inactive)
    1  A    between atoms: C_2  and  C_18
    2  A    between atoms: C_2  and  C_25
    3  A    between atoms: C_2  and  O_46
    4  A    between atoms: C_3  and  C_48
    5  A    between atoms: C_4  and  C_7
    6  A    between atoms: C_4  and  C_16
    7  A    between atoms: O_5  and  C_26
    8  A    between atoms: O_5  and  C_33
    9  A    between atoms: O_6  and  C_15
   10  A    between atoms: O_6  and  C_32
   11  A    between atoms: C_7  and  C_15
   12  A    between atoms: C_8  and  C_36
   13  A    between atoms: C_9  and  C_26
   14  A    between atoms: C_9  and  C_60
   15  A    between atoms: C_10  and  C_21
   16  A    between atoms: C_10  and  O_37
   17  A    between atoms: O_13  and  C_18
   18  A    between atoms: C_18  and  C_56
   19  A    between atoms: C_25  and  O_37
   20  A    between atoms: C_26  and  C_58
   21  A    between atoms: C_28  and  C_57
   22  A    between atoms: C_32  and  C_35
   23  A    between atoms: C_35  and  C_50
   24  A    between atoms: C_36  and  C_39
   25  A    between atoms: C_48  and  C_57
   26  A    between atoms: C_51  and  C_60
   27  A    between atoms: S_52  and  C_56
   28  A    between atoms: S_52  and  C_59
   29  A    between atoms: C_59  and  C_61
                            x       y       z     vdW  Elec       q    Type
                         _______ _______ _______ _____ _____    ______ ____

>  <TORSDO>
F 29

$$$$
=
 OpenBabel11072415223D

 63 70  0  0  1  0  0  0  0  0999 V2000
  161.0190  207.1130  148.5020 C   0  0  0  0  0  3  0  0  0  0  0  0
  161.8140  208.0760  148.8810 C   0  0  0  0  0  0  0  0  0  0  0  0
  162.5960  209.0350  149.2830 C   0  0  0  0  0  3  0  0  0  0  0  0
  162.0450  210.3990  149.4900 C   0  0  0  0  0  2  0  0  0  0  0  0
  162.0140  211.1800  148.1850 C   0  0  1  0  0  3  0  0  0  0  0  0
  160.8000  210.9570  147.5120 O   0  0  0  0  0  0  0  0  0  0  0  0
  160.9350  212.2160  148.1310 C   0  0  2  0  0  0  0  0  0  0  0  0
  159.8460  213.5040  146.1150 C   0  0  1  0  0  3  0  0  0  0  0  0
  162.9800  213.8900  145.8140 C   0  0  0  0  0  2  0  0  0  0  0  0
  162.3270  213.8820  143.4060 O   0  0  0  0  0  0  0  0  0  0  0  0
  161.0570  213.2890  147.0310 C   0  0  2  0  0  3  0  0  0  0  0  0
  161.9280  212.8620  145.9350 N   0  0  1  0  0  0  0  0  0  0  0  0
  160.7980  213.0630  145.0110 C   0  0  2  0  0  0  0  0  0  0  0  0
  163.3090  214.2640  144.3490 C   0  0  0  0  0  2  0  0  0  0  0  0
  161.0650  214.1400  143.9640 C   0  0  0  0  0  2  0  0  0  0  0  0
  158.6810  212.5430  146.3530 C   0  0  0  0  0  1  0  0  0  0  0  0
  160.4470  211.8580  144.3990 O   0  0  0  0  0  1  0  0  0  0  0  0
  159.8220  212.3350  149.1860 C   0  0  0  0  0  2  0  0  0  0  0  0
  160.3130  212.1590  150.6150 C   0  0  2  0  0  3  0  0  0  0  0  0
  160.3970  210.4500  152.4910 C   0  0  0  0  0  2  0  0  0  0  0  0
  160.0940  212.5250  153.9230 C   0  0  0  0  0  2  0  0  0  0  0  0
  159.8990  210.7670  151.0880 C   0  0  0  0  0  2  0  0  0  0  0  0
  160.5930  213.3910  152.7620 C   0  0  0  0  0  2  0  0  0  0  0  0
  159.5210  211.1690  153.5080 C   0  0  2  0  0  3  0  0  0  0  0  0
  159.7430  213.2570  151.5060 C   0  0  0  0  0  2  0  0  0  0  0  0
  159.2950  210.3000  154.7330 C   0  0  0  0  0  2  0  0  0  0  0  0
  160.5710  209.6130  155.1140 C   0  0  0  0  0  0  0  0  0  0  0  0
  161.6190  209.6560  154.2870 C   0  0  0  0  0  2  0  0  0  0  0  0
  160.6980  208.9040  156.4330 C   0  0  1  0  0  3  0  0  0  0  0  0
  160.6190  206.7890  155.1860 C   0  0  0  0  0  2  0  0  0  0  0  0
  160.2910  207.4720  156.2860 C   0  0  0  0  0  3  0  0  0  0  0  0
  162.0120  208.9720  156.9050 O   0  0  0  0  0  0  0  0  0  0  0  0
  160.9540  211.0860  157.1690 C   0  0  0  0  0  1  0  0  0  0  0  0
  162.2690  210.3330  157.0880 C   0  0  0  0  0  2  0  0  0  0  0  0
  160.3930  206.2200  149.5180 C   0  0  0  0  0  2  0  0  0  0  0  0
  161.2770  205.1660  149.8990 O   0  0  0  0  0  0  0  0  0  0  0  0
  160.9200  204.0870  150.7240 C   0  0  0  0  0  0  0  0  0  0  0  0
  159.9830  204.2020  151.6680 C   0  0  0  0  0  2  0  0  0  0  0  0
  161.6460  202.7790  150.5820 C   0  0  1  0  0  3  0  0  0  0  0  0
  161.6100  202.0980  151.8030 O   0  0  0  0  0  0  0  0  0  0  0  0
  162.5190  202.7630  152.6260 C   0  0  0  0  0  1  0  0  0  0  0  0
  161.0180  201.9030  149.4770 C   0  0  2  0  0  3  0  0  0  0  0  0
  161.4840  200.5680  149.4980 O   0  0  0  0  0  0  0  0  0  0  0  0
  161.3000  200.0010  148.2290 C   0  0  0  0  0  1  0  0  0  0  0  0
  161.0810  202.5320  148.0790 C   0  0  0  0  0  2  0  0  0  0  0  0
  162.0830  204.0550  148.0760 S   0  0  0  0  0  0  0  0  0  0  0  0
  161.0880  204.9040  146.8100 C   0  0  0  0  0  2  0  0  0  0  0  0
  162.8830  205.4000  145.2110 C   0  0  0  0  0  2  0  0  0  0  0  0
  161.5870  205.8760  144.5910 C   0  0  2  0  0  3  0  0  0  0  0  0
  161.6110  204.6070  145.4190 C   0  0  2  0  0  3  0  0  0  0  0  0
  161.5760  205.5050  143.1160 C   0  0  0  0  0  2  0  0  0  0  0  0
  162.0920  206.6490  142.2560 C   0  0  0  0  0  2  0  0  0  0  0  0
  162.5810  206.1320  140.9110 C   0  0  0  0  0  2  0  0  0  0  0  0
  161.5860  206.2680  139.9390 O   0  0  0  0  0  0  0  0  0  0  0  0
  161.4270  207.6490  139.7410 C   0  0  0  0  0  2  0  0  0  0  0  0
  160.4520  207.3510  137.5800 O   0  0  0  0  0  1  0  0  0  0  0  0
  161.4750  208.0200  138.2540 C   0  0  1  0  0  3  0  0  0  0  0  0
  160.0610  212.0290  138.4270 S   0  0  0  0  0  0  0  0  0  0  0  0
  160.1880  209.7480  137.2940 O   0  0  0  0  0  0  0  0  0  0  0  0
  161.9820  211.8690  139.2900 S   0  0  0  0  0  0  0  0  0  0  0  0
  161.4250  210.1480  139.3740 C   0  0  1  0  0  3  0  0  0  0  0  0
  160.1280  210.2180  138.6080 C   0  0  2  0  0  0  0  0  0  0  0  0
  161.3760  209.5310  138.0080 C   0  0  2  0  0  0  0  0  0  0  0  0
  1  2  2  0  0  0  0
  1 35  1  0  0  0  0
  2  3  2  0  0  0  0
  3  4  1  0  0  0  0
  5  4  1  1  0  0  0
  6  7  1  0  0  0  0
  6  5  1  0  0  0  0
  7  5  1  0  0  0  0
  7 18  1  1  0  0  0
  8 16  1  1  0  0  0
  8 11  1  0  0  0  0
 10 15  1  0  0  0  0
 10 14  1  0  0  0  0
 11  7  1  1  0  0  0
 12  9  1  6  0  0  0
 12 11  1  0  0  0  0
 13 17  1  6  0  0  0
 13 12  1  0  0  0  0
 13  8  1  0  0  0  0
 14  9  1  0  0  0  0
 15 13  1  0  0  0  0
 19 18  1  6  0  0  0
 19 22  1  0  0  0  0
 19 25  1  0  0  0  0
 20 24  1  0  0  0  0
 22 20  1  0  0  0  0
 23 21  1  0  0  0  0
 24 21  1  0  0  0  0
 24 26  1  1  0  0  0
 25 23  1  0  0  0  0
 26 27  1  0  0  0  0
 27 29  1  0  0  0  0
 28 27  2  0  0  0  0
 29 31  1  6  0  0  0
 29 32  1  0  0  0  0
 30 31  2  0  0  0  0
 32 34  1  0  0  0  0
 34 33  1  0  0  0  0
 35 36  1  0  0  0  0
 36 37  1  0  0  0  0
 37 38  2  0  0  0  0
 39 37  1  1  0  0  0
 39 40  1  0  0  0  0
 40 41  1  0  0  0  0
 42 45  1  6  0  0  0
 42 43  1  0  0  0  0
 42 39  1  0  0  0  0
 44 43  1  0  0  0  0
 46 45  1  0  0  0  0
 47 46  1  0  0  0  0
 48 50  1  0  0  0  0
 49 51  1  6  0  0  0
 49 48  1  0  0  0  0
 49 50  1  0  0  0  0
 50 47  1  1  0  0  0
 52 51  1  0  0  0  0
 53 52  1  0  0  0  0
 54 53  1  0  0  0  0
 55 54  1  0  0  0  0
 57 56  1  6  0  0  0
 57 55  1  0  0  0  0
 58 62  1  0  0  0  0
 58 60  1  0  0  0  0
 59 63  1  0  0  0  0
 61 60  1  6  0  0  0
 62 59  1  1  0  0  0
 62 61  1  0  0  0  0
 63 57  1  1  0  0  0
 63 62  1  0  0  0  0
 63 61  1  0  0  0  0
M  END
>  <MODEL>
8

>  <REMARK>
 VINA RESULT:       2.5      1.886      2.739
  Name = 
  29 active torsions:
  status: ('A' for Active; 'I' for Inactive)
    1  A    between atoms: C_2  and  C_18
    2  A    between atoms: C_2  and  C_25
    3  A    between atoms: C_2  and  O_46
    4  A    between atoms: C_3  and  C_48
    5  A    between atoms: C_4  and  C_7
    6  A    between atoms: C_4  and  C_16
    7  A    between atoms: O_5  and  C_26
    8  A    between atoms: O_5  and  C_33
    9  A    between atoms: O_6  and  C_15
   10  A    between atoms: O_6  and  C_32
   11  A    between atoms: C_7  and  C_15
   12  A    between atoms: C_8  and  C_36
   13  A    between atoms: C_9  and  C_26
   14  A    between atoms: C_9  and  C_60
   15  A    between atoms: C_10  and  C_21
   16  A    between atoms: C_10  and  O_37
   17  A    between atoms: O_13  and  C_18
   18  A    between atoms: C_18  and  C_56
   19  A    between atoms: C_25  and  O_37
   20  A    between atoms: C_26  and  C_58
   21  A    between atoms: C_28  and  C_57
   22  A    between atoms: C_32  and  C_35
   23  A    between atoms: C_35  and  C_50
   24  A    between atoms: C_36  and  C_39
   25  A    between atoms: C_48  and  C_57
   26  A    between atoms: C_51  and  C_60
   27  A    between atoms: S_52  and  C_56
   28  A    between atoms: S_52  and  C_59
   29  A    between atoms: C_59  and  C_61
                            x       y       z     vdW  Elec       q    Type
                         _______ _______ _______ _____ _____    ______ ____

>  <TORSDO>
F 29

$$$$
