=
 OpenBabel11072411413D

 53 56  0  0  1  0  0  0  0  0999 V2000
  162.2910  210.5840  153.2060 O   0  0  0  0  0  0  0  0  0  0  0  0
  159.6500  210.9750  156.1740 O   0  0  0  0  0  0  0  0  0  0  0  0
  160.7580  210.1540  156.3960 C   0  0  0  0  0  0  0  0  0  0  0  0
  159.9600  210.3270  152.7660 C   0  0  2  0  0  3  0  0  0  0  0  0
  159.8780  209.7300  151.5050 O   0  0  0  0  0  1  0  0  0  0  0  0
  158.0030  211.9200  154.7200 C   0  0  2  0  0  3  0  0  0  0  0  0
  161.6030  210.5030  157.2610 O   0  0  0  0  0  0  0  0  0  0  0  0
  159.6870  211.8410  152.7550 C   0  0  2  0  0  3  0  0  0  0  0  0
  160.9490  208.8650  155.7120 C   0  0  0  0  0  0  0  0  0  0  0  0
  158.2250  212.0970  153.2030 C   0  0  2  0  0  3  0  0  0  0  0  0
  161.5210  206.3600  154.6100 C   0  0  0  0  0  3  0  0  0  0  0  0
  160.9410  207.7150  156.5060 C   0  0  0  0  0  3  0  0  0  0  0  0
  161.2240  209.9600  153.4710 C   0  0  0  0  0  0  0  0  0  0  0  0
  158.6110  210.6380  155.2800 C   0  0  0  0  0  2  0  0  0  0  0  0
  161.5020  207.4890  153.7680 C   0  0  0  0  0  0  0  0  0  0  0  0
  161.2300  206.4680  155.9630 C   0  0  0  0  0  3  0  0  0  0  0  0
  161.2400  208.7610  154.3290 C   0  0  0  0  0  0  0  0  0  0  0  0
  157.2670  213.6270  151.4580 O   0  0  0  0  0  0  0  0  0  0  0  0
  157.7560  214.4240  153.5510 O   0  0  0  0  0  1  0  0  0  0  0  0
  157.7100  213.4400  152.7590 C   0  0  0  0  0  0  0  0  0  0  0  0
  160.4780  213.7860  151.5980 O   0  0  0  0  0  1  0  0  0  0  0  0
  160.0400  212.4770  151.4110 C   0  0  0  0  0  2  0  0  0  0  0  0
  156.5200  212.0400  155.1020 C   0  0  1  0  0  3  0  0  0  0  0  0
  155.6520  210.9880  154.4050 C   0  0  0  0  0  1  0  0  0  0  0  0
  156.3360  212.0190  156.6110 C   0  0  0  0  0  2  0  0  0  0  0  0
  155.0290  212.5520  156.9610 N   0  0  0  0  0  2  0  0  0  0  0  0
  155.1070  214.0030  156.8700 C   0  0  0  0  0  3  0  0  0  0  0  0
  156.5510  214.4480  157.0370 C   0  0  0  0  0  1  0  0  0  0  0  0
  154.5990  214.4520  155.5180 C   0  0  0  0  0  1  0  0  0  0  0  0
  161.8870  207.3180  152.3060 C   0  0  1  0  0  3  0  0  0  0  0  0
  161.9380  205.8720  151.7970 C   0  0  2  0  0  3  0  0  0  0  0  0
  160.9550  205.0790  149.5100 C   0  0  1  0  0  3  0  0  0  0  0  0
  161.1610  203.8710  152.1780 O   0  0  0  0  0  0  0  0  0  0  0  0
  160.7900  203.5980  149.8440 C   0  0  0  0  0  2  0  0  0  0  0  0
  162.1420  205.6950  150.2700 C   0  0  0  0  0  2  0  0  0  0  0  0
  160.2400  203.3950  151.2450 C   0  0  0  0  0  2  0  0  0  0  0  0
  160.8530  205.1470  152.3170 O   0  0  0  0  0  0  0  0  0  0  0  0
  161.0120  205.1940  147.9760 C   0  0  1  0  0  3  0  0  0  0  0  0
  160.5660  207.6490  148.1780 O   0  0  0  0  0  1  0  0  0  0  0  0
  161.2740  206.6120  147.5830 C   0  0  0  0  0  0  0  0  0  0  0  0
  162.1680  206.8710  146.7310 O   0  0  0  0  0  0  0  0  0  0  0  0
  161.9390  204.2530  147.1880 C   0  0  1  0  0  3  0  0  0  0  0  0
  162.9860  203.7700  147.9710 O   0  0  0  0  0  1  0  0  0  0  0  0
  159.5040  200.0540  144.3350 O   0  0  0  0  0  1  0  0  0  0  0  0
  160.3420  201.0460  144.8500 C   0  0  2  0  0  3  0  0  0  0  0  0
  161.4240  199.5260  146.5270 C   0  0  0  0  0  1  0  0  0  0  0  0
  161.2150  203.1420  146.4990 C   0  0  0  0  0  0  0  0  0  0  0  0
  160.6150  200.8000  146.3380 C   0  0  1  0  0  3  0  0  0  0  0  0
  159.6520  202.3920  144.7130 C   0  0  0  0  0  2  0  0  0  0  0  0
  160.4350  203.4040  145.3580 O   0  0  0  0  0  0  0  0  0  0  0  0
  161.3290  201.9280  146.9470 N   0  0  0  0  0  0  0  0  0  0  0  0
  161.8880  208.7100  150.2240 C   0  0  0  0  0  1  0  0  0  0  0  0
  161.0370  208.1450  151.3480 C   0  0  0  0  0  2  0  0  0  0  0  0
  1 13  2  0  0  0  0
  2  3  1  0  0  0  0
  3  7  2  0  0  0  0
  4  5  1  6  0  0  0
  4 13  1  0  0  0  0
  6 23  1  6  0  0  0
  6 14  1  0  0  0  0
  8 22  1  6  0  0  0
  8  4  1  0  0  0  0
  8 10  1  0  0  0  0
  9  3  1  0  0  0  0
  9 12  1  0  0  0  0
 10 20  1  1  0  0  0
 10  6  1  0  0  0  0
 11 16  1  0  0  0  0
 13 17  1  0  0  0  0
 14  2  1  0  0  0  0
 15 17  1  0  0  0  0
 15 11  2  0  0  0  0
 16 12  2  0  0  0  0
 17  9  2  0  0  0  0
 18 20  2  0  0  0  0
 20 19  1  0  0  0  0
 22 21  1  0  0  0  0
 23 24  1  6  0  0  0
 23 25  1  0  0  0  0
 25 26  1  0  0  0  0
 27 26  1  0  0  0  0
 27 28  1  0  0  0  0
 29 27  1  0  0  0  0
 30 53  1  6  0  0  0
 30 15  1  0  0  0  0
 31 30  1  6  0  0  0
 31 37  1  0  0  0  0
 32 38  1  6  0  0  0
 32 34  1  0  0  0  0
 32 35  1  0  0  0  0
 33 37  1  0  0  0  0
 34 36  1  0  0  0  0
 35 31  1  0  0  0  0
 36 33  1  0  0  0  0
 38 40  1  1  0  0  0
 40 39  1  0  0  0  0
 41 40  2  0  0  0  0
 42 43  1  1  0  0  0
 42 38  1  0  0  0  0
 45 44  1  1  0  0  0
 45 48  1  0  0  0  0
 47 51  2  0  0  0  0
 47 42  1  0  0  0  0
 48 46  1  6  0  0  0
 48 51  1  0  0  0  0
 49 45  1  0  0  0  0
 49 50  1  0  0  0  0
 50 47  1  0  0  0  0
 52 53  1  0  0  0  0
M  END
>  <MODEL>
1

>  <REMARK>
 VINA RESULT:      -3.9      0.000      0.000
  Name = 
  13 active torsions:
  status: ('A' for Active; 'I' for Inactive)
    1  A    between atoms: C_4  and  C_29
    2  A    between atoms: C_4  and  C_31
    3  A    between atoms: C_9  and  C_26
    4  A    between atoms: N_10  and  C_14
    5  A    between atoms: N_10  and  C_45
    6  A    between atoms: C_12  and  C_31
    7  A    between atoms: C_16  and  C_26
    8  A    between atoms: C_17  and  C_19
    9  A    between atoms: C_19  and  C_45
   10  A    between atoms: C_26  and  C_46
   11  A    between atoms: C_28  and  C_31
   12  A    between atoms: C_32  and  C_40
   13  A    between atoms: C_37  and  C_52
                            x       y       z     vdW  Elec       q    Type
                         _______ _______ _______ _____ _____    ______ ____

>  <TORSDO>
F 13

$$$$
=
 OpenBabel11072411413D

 53 56  0  0  1  0  0  0  0  0999 V2000
  163.2840  209.8650  152.0670 O   0  0  0  0  0  0  0  0  0  0  0  0
  160.4450  212.0890  153.7810 O   0  0  0  0  0  0  0  0  0  0  0  0
  161.0550  211.1020  154.5600 C   0  0  0  0  0  0  0  0  0  0  0  0
  161.2000  210.2010  150.9530 C   0  0  2  0  0  3  0  0  0  0  0  0
  161.1620  209.2490  149.9300 O   0  0  0  0  0  1  0  0  0  0  0  0
  159.6720  212.9090  151.6720 C   0  0  2  0  0  3  0  0  0  0  0  0
  161.7600  211.4580  155.5400 O   0  0  0  0  0  0  0  0  0  0  0  0
  161.5660  211.6160  150.4700 C   0  0  2  0  0  3  0  0  0  0  0  0
  160.8580  209.6620  154.3270 C   0  0  0  0  0  0  0  0  0  0  0  0
  160.2690  212.4530  150.3240 C   0  0  2  0  0  3  0  0  0  0  0  0
  160.6030  206.8840  154.1490 C   0  0  0  0  0  3  0  0  0  0  0  0
  160.2180  208.9360  155.3360 C   0  0  0  0  0  3  0  0  0  0  0  0
  162.0260  209.7400  152.1090 C   0  0  0  0  0  0  0  0  0  0  0  0
  159.5790  211.7920  152.7080 C   0  0  0  0  0  2  0  0  0  0  0  0
  161.2200  207.5830  153.0930 C   0  0  0  0  0  0  0  0  0  0  0  0
  160.0940  207.5530  155.2530 C   0  0  0  0  0  3  0  0  0  0  0  0
  161.3750  208.9850  153.1940 C   0  0  0  0  0  0  0  0  0  0  0  0
  161.5610  214.4530  149.5270 O   0  0  0  0  0  1  0  0  0  0  0  0
  159.5350  213.9360  148.5870 O   0  0  0  0  0  0  0  0  0  0  0  0
  160.4450  213.6370  149.4110 C   0  0  0  0  0  0  0  0  0  0  0  0
  161.6330  211.3390  148.0900 O   0  0  0  0  0  1  0  0  0  0  0  0
  162.4260  211.5860  149.2080 C   0  0  0  0  0  2  0  0  0  0  0  0
  158.3170  213.6100  151.4930 C   0  0  1  0  0  3  0  0  0  0  0  0
  157.2520  212.6770  150.9080 C   0  0  0  0  0  1  0  0  0  0  0  0
  157.8550  214.2570  152.7900 C   0  0  0  0  0  2  0  0  0  0  0  0
  156.5040  213.8240  153.1100 N   0  0  0  0  0  2  0  0  0  0  0  0
  156.4890  213.4300  154.5100 C   0  0  0  0  0  3  0  0  0  0  0  0
  156.4670  211.9130  154.6140 C   0  0  0  0  0  1  0  0  0  0  0  0
  157.7280  213.9580  155.1970 C   0  0  0  0  0  1  0  0  0  0  0  0
  161.8120  206.7890  151.9370 C   0  0  1  0  0  3  0  0  0  0  0  0
  160.8000  206.2100  150.9420 C   0  0  2  0  0  3  0  0  0  0  0  0
  161.1830  204.0340  149.5480 C   0  0  1  0  0  3  0  0  0  0  0  0
  159.8420  206.5920  149.0200 O   0  0  0  0  0  0  0  0  0  0  0  0
  160.1880  204.3150  148.4240 C   0  0  0  0  0  2  0  0  0  0  0  0
  160.7220  204.6630  150.8740 C   0  0  0  0  0  2  0  0  0  0  0  0
  160.2450  205.7640  147.9730 C   0  0  0  0  0  2  0  0  0  0  0  0
  160.9540  206.8300  149.6910 O   0  0  0  0  0  0  0  0  0  0  0  0
  161.4160  202.5130  149.5760 C   0  0  1  0  0  3  0  0  0  0  0  0
  159.1280  201.6310  149.0720 O   0  0  0  0  0  0  0  0  0  0  0  0
  160.1590  201.8140  149.9840 C   0  0  0  0  0  0  0  0  0  0  0  0
  160.0490  201.3560  151.1550 O   0  0  0  0  0  1  0  0  0  0  0  0
  162.0200  201.8230  148.3400 C   0  0  1  0  0  3  0  0  0  0  0  0
  161.6240  200.4910  148.2370 O   0  0  0  0  0  1  0  0  0  0  0  0
  160.8330  204.8230  143.7260 O   0  0  0  0  0  1  0  0  0  0  0  0
  160.9310  204.2720  145.0060 C   0  0  2  0  0  3  0  0  0  0  0  0
  162.8360  205.7490  145.7010 C   0  0  0  0  0  1  0  0  0  0  0  0
  161.7780  202.5650  147.0660 C   0  0  0  0  0  0  0  0  0  0  0  0
  162.3810  204.3120  145.5000 C   0  0  1  0  0  3  0  0  0  0  0  0
  160.4910  202.8200  144.9510 C   0  0  0  0  0  2  0  0  0  0  0  0
  160.7130  202.1990  146.2230 O   0  0  0  0  0  0  0  0  0  0  0  0
  162.5440  203.5670  146.7530 N   0  0  0  0  0  0  0  0  0  0  0  0
  163.3660  206.7300  149.9740 C   0  0  0  0  0  1  0  0  0  0  0  0
  162.8840  207.5460  151.1610 C   0  0  0  0  0  2  0  0  0  0  0  0
  1 13  2  0  0  0  0
  2  3  1  0  0  0  0
  3  7  2  0  0  0  0
  4  5  1  6  0  0  0
  4 13  1  0  0  0  0
  6 23  1  6  0  0  0
  6 14  1  0  0  0  0
  8 22  1  6  0  0  0
  8  4  1  0  0  0  0
  9  3  1  0  0  0  0
  9 12  1  0  0  0  0
 10 20  1  6  0  0  0
 10  8  1  0  0  0  0
 10  6  1  0  0  0  0
 11 16  1  0  0  0  0
 13 17  1  0  0  0  0
 14  2  1  0  0  0  0
 15 17  1  0  0  0  0
 15 11  2  0  0  0  0
 16 12  2  0  0  0  0
 17  9  2  0  0  0  0
 19 20  2  0  0  0  0
 20 18  1  0  0  0  0
 21 22  1  0  0  0  0
 23 24  1  1  0  0  0
 23 25  1  0  0  0  0
 25 26  1  0  0  0  0
 26 27  1  0  0  0  0
 27 28  1  0  0  0  0
 27 29  1  0  0  0  0
 30 53  1  6  0  0  0
 30 15  1  0  0  0  0
 31 30  1  1  0  0  0
 32 38  1  1  0  0  0
 32 35  1  0  0  0  0
 33 37  1  0  0  0  0
 34 32  1  0  0  0  0
 35 31  1  0  0  0  0
 36 34  1  0  0  0  0
 36 33  1  0  0  0  0
 37 31  1  0  0  0  0
 38 40  1  6  0  0  0
 39 40  2  0  0  0  0
 40 41  1  0  0  0  0
 42 43  1  6  0  0  0
 42 38  1  0  0  0  0
 45 44  1  6  0  0  0
 45 48  1  0  0  0  0
 47 42  1  0  0  0  0
 48 46  1  1  0  0  0
 48 51  1  0  0  0  0
 49 45  1  0  0  0  0
 49 50  1  0  0  0  0
 50 47  1  0  0  0  0
 51 47  2  0  0  0  0
 52 53  1  0  0  0  0
M  END
>  <MODEL>
2

>  <REMARK>
 VINA RESULT:      -3.5      2.005      3.403
  Name = 
  13 active torsions:
  status: ('A' for Active; 'I' for Inactive)
    1  A    between atoms: C_4  and  C_29
    2  A    between atoms: C_4  and  C_31
    3  A    between atoms: C_9  and  C_26
    4  A    between atoms: N_10  and  C_14
    5  A    between atoms: N_10  and  C_45
    6  A    between atoms: C_12  and  C_31
    7  A    between atoms: C_16  and  C_26
    8  A    between atoms: C_17  and  C_19
    9  A    between atoms: C_19  and  C_45
   10  A    between atoms: C_26  and  C_46
   11  A    between atoms: C_28  and  C_31
   12  A    between atoms: C_32  and  C_40
   13  A    between atoms: C_37  and  C_52
                            x       y       z     vdW  Elec       q    Type
                         _______ _______ _______ _____ _____    ______ ____

>  <TORSDO>
F 13

$$$$
=
 OpenBabel11072411413D

 53 56  0  0  1  0  0  0  0  0999 V2000
  163.2100  210.1270  152.0380 O   0  0  0  0  0  0  0  0  0  0  0  0
  160.3170  212.4320  153.5400 O   0  0  0  0  0  0  0  0  0  0  0  0
  160.8950  211.4840  154.3870 C   0  0  0  0  0  0  0  0  0  0  0  0
  161.1690  210.4110  150.8350 C   0  0  2  0  0  3  0  0  0  0  0  0
  161.1650  209.4110  149.8580 O   0  0  0  0  0  1  0  0  0  0  0  0
  159.6220  213.1510  151.3670 C   0  0  2  0  0  3  0  0  0  0  0  0
  161.5650  211.8860  155.3730 O   0  0  0  0  0  0  0  0  0  0  0  0
  161.5550  211.8010  150.2980 C   0  0  2  0  0  3  0  0  0  0  0  0
  160.7030  210.0350  154.2160 C   0  0  0  0  0  0  0  0  0  0  0  0
  160.2660  212.6300  150.0650 C   0  0  2  0  0  3  0  0  0  0  0  0
  160.4490  207.2510  154.1620 C   0  0  0  0  0  3  0  0  0  0  0  0
  160.0260  209.3590  155.2350 C   0  0  0  0  0  3  0  0  0  0  0  0
  161.9510  210.0050  152.0400 C   0  0  0  0  0  0  0  0  0  0  0  0
  159.4890  212.0850  152.4510 C   0  0  0  0  0  2  0  0  0  0  0  0
  161.1050  207.8990  153.0970 C   0  0  0  0  0  0  0  0  0  0  0  0
  159.9020  207.9730  155.2140 C   0  0  0  0  0  3  0  0  0  0  0  0
  161.2590  209.3040  153.1370 C   0  0  0  0  0  0  0  0  0  0  0  0
  159.5560  214.0180  148.0960 O   0  0  0  0  0  0  0  0  0  0  0  0
  161.5380  214.4530  149.1620 O   0  0  0  0  0  1  0  0  0  0  0  0
  160.4780  213.7690  149.1030 C   0  0  0  0  0  0  0  0  0  0  0  0
  162.0480  210.6670  148.2440 O   0  0  0  0  0  1  0  0  0  0  0  0
  162.4600  211.7090  149.0710 C   0  0  0  0  0  2  0  0  0  0  0  0
  158.2760  213.8440  151.1060 C   0  0  1  0  0  3  0  0  0  0  0  0
  157.2680  212.9170  150.4210 C   0  0  0  0  0  1  0  0  0  0  0  0
  157.7130  214.4530  152.3810 C   0  0  0  0  0  2  0  0  0  0  0  0
  156.3410  214.0120  152.5800 N   0  0  0  0  0  2  0  0  0  0  0  0
  156.1700  213.7340  153.9990 C   0  0  0  0  0  3  0  0  0  0  0  0
  156.0690  212.2320  154.2160 C   0  0  0  0  0  1  0  0  0  0  0  0
  157.3590  214.2700  154.7650 C   0  0  0  0  0  1  0  0  0  0  0  0
  161.7360  207.0500  152.0030 C   0  0  1  0  0  3  0  0  0  0  0  0
  161.8980  205.5610  152.3280 C   0  0  2  0  0  3  0  0  0  0  0  0
  161.3180  203.6200  150.6770 C   0  0  1  0  0  3  0  0  0  0  0  0
  161.1090  203.9630  153.5850 O   0  0  0  0  0  0  0  0  0  0  0  0
  161.1310  202.5060  151.7050 C   0  0  0  0  0  2  0  0  0  0  0  0
  162.3520  204.6540  151.1550 C   0  0  0  0  0  2  0  0  0  0  0  0
  160.3630  202.9890  152.9240 C   0  0  0  0  0  2  0  0  0  0  0  0
  160.7580  205.0940  153.0020 O   0  0  0  0  0  0  0  0  0  0  0  0
  161.6230  202.9440  149.3280 C   0  0  1  0  0  3  0  0  0  0  0  0
  159.4650  201.6830  149.1770 O   0  0  0  0  0  1  0  0  0  0  0  0
  160.8540  201.6670  149.2140 C   0  0  0  0  0  0  0  0  0  0  0  0
  161.4710  200.5710  149.1170 O   0  0  0  0  0  0  0  0  0  0  0  0
  161.4760  203.7590  148.0310 C   0  0  1  0  0  3  0  0  0  0  0  0
  162.6090  204.5270  147.7640 O   0  0  0  0  0  1  0  0  0  0  0  0
  159.6700  200.5530  143.7710 O   0  0  0  0  0  1  0  0  0  0  0  0
  159.8420  201.2860  144.9480 C   0  0  2  0  0  3  0  0  0  0  0  0
  158.9230  203.4110  143.9820 C   0  0  0  0  0  1  0  0  0  0  0  0
  161.0830  202.9340  146.8500 C   0  0  0  0  0  0  0  0  0  0  0  0
  160.1340  202.7560  144.6280 C   0  0  1  0  0  3  0  0  0  0  0  0
  161.0310  200.7240  145.7070 C   0  0  0  0  0  2  0  0  0  0  0  0
  161.3080  201.5460  146.8470 O   0  0  0  0  0  0  0  0  0  0  0  0
  160.5110  203.5050  145.8330 N   0  0  0  0  0  0  0  0  0  0  0  0
  162.0160  206.8910  149.5190 C   0  0  0  0  0  1  0  0  0  0  0  0
  161.0450  207.1840  150.6500 C   0  0  0  0  0  2  0  0  0  0  0  0
  1 13  2  0  0  0  0
  2  3  1  0  0  0  0
  3  7  2  0  0  0  0
  4  5  1  6  0  0  0
  4 13  1  0  0  0  0
  6 23  1  6  0  0  0
  6 14  1  0  0  0  0
  8 22  1  6  0  0  0
  8  4  1  0  0  0  0
  9  3  1  0  0  0  0
  9 12  1  0  0  0  0
 10 20  1  6  0  0  0
 10  8  1  0  0  0  0
 10  6  1  0  0  0  0
 11 16  1  0  0  0  0
 13 17  1  0  0  0  0
 14  2  1  0  0  0  0
 15 17  1  0  0  0  0
 15 11  2  0  0  0  0
 16 12  2  0  0  0  0
 17  9  2  0  0  0  0
 18 20  2  0  0  0  0
 20 19  1  0  0  0  0
 21 22  1  0  0  0  0
 23 24  1  1  0  0  0
 23 25  1  0  0  0  0
 25 26  1  0  0  0  0
 26 27  1  0  0  0  0
 27 28  1  0  0  0  0
 27 29  1  0  0  0  0
 30 53  1  6  0  0  0
 30 15  1  0  0  0  0
 31 30  1  6  0  0  0
 31 37  1  0  0  0  0
 32 38  1  6  0  0  0
 32 35  1  0  0  0  0
 32 34  1  0  0  0  0
 34 36  1  0  0  0  0
 35 31  1  0  0  0  0
 36 33  1  0  0  0  0
 37 33  1  0  0  0  0
 38 40  1  6  0  0  0
 39 40  1  0  0  0  0
 41 40  2  0  0  0  0
 42 43  1  6  0  0  0
 42 38  1  0  0  0  0
 45 44  1  6  0  0  0
 45 49  1  0  0  0  0
 47 42  1  0  0  0  0
 48 46  1  1  0  0  0
 48 45  1  0  0  0  0
 48 51  1  0  0  0  0
 49 50  1  0  0  0  0
 50 47  1  0  0  0  0
 51 47  2  0  0  0  0
 52 53  1  0  0  0  0
M  END
>  <MODEL>
3

>  <REMARK>
 VINA RESULT:      -3.3      1.948      3.158
  Name = 
  13 active torsions:
  status: ('A' for Active; 'I' for Inactive)
    1  A    between atoms: C_4  and  C_29
    2  A    between atoms: C_4  and  C_31
    3  A    between atoms: C_9  and  C_26
    4  A    between atoms: N_10  and  C_14
    5  A    between atoms: N_10  and  C_45
    6  A    between atoms: C_12  and  C_31
    7  A    between atoms: C_16  and  C_26
    8  A    between atoms: C_17  and  C_19
    9  A    between atoms: C_19  and  C_45
   10  A    between atoms: C_26  and  C_46
   11  A    between atoms: C_28  and  C_31
   12  A    between atoms: C_32  and  C_40
   13  A    between atoms: C_37  and  C_52
                            x       y       z     vdW  Elec       q    Type
                         _______ _______ _______ _____ _____    ______ ____

>  <TORSDO>
F 13

$$$$
=
 OpenBabel11072411413D

 53 56  0  0  1  0  0  0  0  0999 V2000
  163.2750  208.9860  151.2260 O   0  0  0  0  0  0  0  0  0  0  0  0
  161.1160  211.5850  153.3520 O   0  0  0  0  0  0  0  0  0  0  0  0
  161.6610  210.4900  154.0270 C   0  0  0  0  0  0  0  0  0  0  0  0
  161.1370  209.6880  150.4320 C   0  0  2  0  0  3  0  0  0  0  0  0
  160.7960  208.7870  149.4190 O   0  0  0  0  0  1  0  0  0  0  0  0
  160.1930  212.5840  151.3850 C   0  0  2  0  0  3  0  0  0  0  0  0
  162.5480  210.6960  154.8950 O   0  0  0  0  0  0  0  0  0  0  0  0
  161.6570  211.0390  149.9100 C   0  0  2  0  0  3  0  0  0  0  0  0
  161.1980  209.1080  153.8160 C   0  0  0  0  0  0  0  0  0  0  0  0
  160.5080  212.0790  149.9610 C   0  0  2  0  0  3  0  0  0  0  0  0
  160.4670  206.4140  153.6570 C   0  0  0  0  0  3  0  0  0  0  0  0
  160.5990  208.4650  154.9020 C   0  0  0  0  0  3  0  0  0  0  0  0
  162.0330  209.0640  151.4500 C   0  0  0  0  0  0  0  0  0  0  0  0
  160.0680  211.4660  152.4150 C   0  0  0  0  0  2  0  0  0  0  0  0
  161.0330  207.0370  152.5270 C   0  0  0  0  0  0  0  0  0  0  0  0
  160.2390  207.1230  154.8290 C   0  0  0  0  0  3  0  0  0  0  0  0
  161.4290  208.3920  152.6150 C   0  0  0  0  0  0  0  0  0  0  0  0
  161.5850  214.2820  149.4200 O   0  0  0  0  0  1  0  0  0  0  0  0
  160.1110  213.3240  147.9490 O   0  0  0  0  0  0  0  0  0  0  0  0
  160.7430  213.2470  149.0400 C   0  0  0  0  0  0  0  0  0  0  0  0
  163.4070  211.7620  148.4400 O   0  0  0  0  0  1  0  0  0  0  0  0
  162.3100  210.9090  148.5350 C   0  0  0  0  0  2  0  0  0  0  0  0
  158.9610  213.5000  151.4110 C   0  0  1  0  0  3  0  0  0  0  0  0
  157.7730  212.8990  150.6540 C   0  0  0  0  0  1  0  0  0  0  0  0
  158.5910  213.8860  152.8350 C   0  0  0  0  0  2  0  0  0  0  0  0
  157.1830  213.6090  153.0770 N   0  0  0  0  0  2  0  0  0  0  0  0
  157.0550  213.1520  154.4520 C   0  0  0  0  0  3  0  0  0  0  0  0
  157.0930  211.6320  154.4910 C   0  0  0  0  0  1  0  0  0  0  0  0
  158.1980  213.7000  155.2760 C   0  0  0  0  0  1  0  0  0  0  0  0
  161.3140  206.1940  151.2920 C   0  0  1  0  0  3  0  0  0  0  0  0
  161.5380  204.6990  151.5450 C   0  0  2  0  0  3  0  0  0  0  0  0
  161.1080  202.8230  149.7780 C   0  0  1  0  0  3  0  0  0  0  0  0
  160.7880  203.0010  152.6900 O   0  0  0  0  0  0  0  0  0  0  0  0
  160.9420  201.6490  150.7400 C   0  0  0  0  0  2  0  0  0  0  0  0
  162.0740  203.8780  150.3440 C   0  0  0  0  0  2  0  0  0  0  0  0
  160.1120  202.0290  151.9530 C   0  0  0  0  0  2  0  0  0  0  0  0
  160.4000  204.1430  152.1540 O   0  0  0  0  0  0  0  0  0  0  0  0
  161.4890  202.2360  148.4070 C   0  0  1  0  0  3  0  0  0  0  0  0
  161.5610  199.7920  147.8680 O   0  0  0  0  0  0  0  0  0  0  0  0
  162.0690  200.8690  148.5840 C   0  0  0  0  0  0  0  0  0  0  0  0
  163.0490  200.7000  149.3610 O   0  0  0  0  0  1  0  0  0  0  0  0
  160.4400  202.2170  147.2810 C   0  0  1  0  0  3  0  0  0  0  0  0
  159.1460  202.3920  147.7680 O   0  0  0  0  0  1  0  0  0  0  0  0
  161.3210  206.0540  143.2570 O   0  0  0  0  0  1  0  0  0  0  0  0
  160.9350  205.3250  144.3840 C   0  0  2  0  0  3  0  0  0  0  0  0
  162.9090  206.0400  145.7560 C   0  0  0  0  0  1  0  0  0  0  0  0
  160.7410  203.1680  146.1700 C   0  0  0  0  0  0  0  0  0  0  0  0
  162.1650  204.8520  145.1670 C   0  0  1  0  0  3  0  0  0  0  0  0
  160.1620  204.0970  143.9350 C   0  0  0  0  0  2  0  0  0  0  0  0
  159.8750  203.2660  145.0660 O   0  0  0  0  0  0  0  0  0  0  0  0
  161.7960  203.9240  146.2410 N   0  0  0  0  0  0  0  0  0  0  0  0
  160.9060  206.2090  148.8210 C   0  0  0  0  0  1  0  0  0  0  0  0
  160.2700  206.3540  150.1920 C   0  0  0  0  0  2  0  0  0  0  0  0
  1 13  2  0  0  0  0
  2  3  1  0  0  0  0
  3  7  2  0  0  0  0
  4  5  1  6  0  0  0
  4 13  1  0  0  0  0
  6 23  1  6  0  0  0
  6 14  1  0  0  0  0
  8 22  1  6  0  0  0
  8 10  1  0  0  0  0
  8  4  1  0  0  0  0
  9  3  1  0  0  0  0
  9 12  1  0  0  0  0
 10 20  1  6  0  0  0
 10  6  1  0  0  0  0
 11 16  1  0  0  0  0
 13 17  1  0  0  0  0
 14  2  1  0  0  0  0
 15 17  1  0  0  0  0
 15 11  2  0  0  0  0
 16 12  2  0  0  0  0
 17  9  2  0  0  0  0
 19 20  2  0  0  0  0
 20 18  1  0  0  0  0
 21 22  1  0  0  0  0
 23 24  1  1  0  0  0
 23 25  1  0  0  0  0
 25 26  1  0  0  0  0
 26 27  1  0  0  0  0
 27 28  1  0  0  0  0
 27 29  1  0  0  0  0
 30 53  1  6  0  0  0
 30 15  1  0  0  0  0
 31 30  1  6  0  0  0
 31 37  1  0  0  0  0
 32 38  1  6  0  0  0
 32 35  1  0  0  0  0
 32 34  1  0  0  0  0
 34 36  1  0  0  0  0
 35 31  1  0  0  0  0
 36 33  1  0  0  0  0
 37 33  1  0  0  0  0
 38 40  1  1  0  0  0
 39 40  2  0  0  0  0
 40 41  1  0  0  0  0
 42 43  1  1  0  0  0
 42 38  1  0  0  0  0
 45 44  1  6  0  0  0
 45 48  1  0  0  0  0
 47 51  2  0  0  0  0
 47 42  1  0  0  0  0
 48 46  1  1  0  0  0
 48 51  1  0  0  0  0
 49 45  1  0  0  0  0
 49 50  1  0  0  0  0
 50 47  1  0  0  0  0
 52 53  1  0  0  0  0
M  END
>  <MODEL>
4

>  <REMARK>
 VINA RESULT:      -3.0      2.120      3.679
  Name = 
  13 active torsions:
  status: ('A' for Active; 'I' for Inactive)
    1  A    between atoms: C_4  and  C_29
    2  A    between atoms: C_4  and  C_31
    3  A    between atoms: C_9  and  C_26
    4  A    between atoms: N_10  and  C_14
    5  A    between atoms: N_10  and  C_45
    6  A    between atoms: C_12  and  C_31
    7  A    between atoms: C_16  and  C_26
    8  A    between atoms: C_17  and  C_19
    9  A    between atoms: C_19  and  C_45
   10  A    between atoms: C_26  and  C_46
   11  A    between atoms: C_28  and  C_31
   12  A    between atoms: C_32  and  C_40
   13  A    between atoms: C_37  and  C_52
                            x       y       z     vdW  Elec       q    Type
                         _______ _______ _______ _____ _____    ______ ____

>  <TORSDO>
F 13

$$$$
=
 OpenBabel11072411413D

 53 56  0  0  1  0  0  0  0  0999 V2000
  163.1000  209.3620  151.8150 O   0  0  0  0  0  0  0  0  0  0  0  0
  160.7120  211.8180  153.8640 O   0  0  0  0  0  0  0  0  0  0  0  0
  161.3280  210.7790  154.5650 C   0  0  0  0  0  0  0  0  0  0  0  0
  160.9280  209.8840  150.9760 C   0  0  2  0  0  3  0  0  0  0  0  0
  160.6750  208.9430  149.9730 O   0  0  0  0  0  1  0  0  0  0  0  0
  159.7470  212.7130  151.8660 C   0  0  2  0  0  3  0  0  0  0  0  0
  162.1810  211.0670  155.4430 O   0  0  0  0  0  0  0  0  0  0  0  0
  161.3510  211.2630  150.4400 C   0  0  2  0  0  3  0  0  0  0  0  0
  160.9770  209.3630  154.3690 C   0  0  0  0  0  0  0  0  0  0  0  0
  160.1240  212.2110  150.4560 C   0  0  2  0  0  3  0  0  0  0  0  0
  160.4600  206.6180  154.2450 C   0  0  0  0  0  3  0  0  0  0  0  0
  160.4110  208.6920  155.4570 C   0  0  0  0  0  3  0  0  0  0  0  0
  161.8520  209.3470  152.0180 C   0  0  0  0  0  0  0  0  0  0  0  0
  159.6920  211.6040  152.9130 C   0  0  0  0  0  2  0  0  0  0  0  0
  160.9940  207.2650  153.1130 C   0  0  0  0  0  0  0  0  0  0  0  0
  160.1580  207.3250  155.4010 C   0  0  0  0  0  3  0  0  0  0  0  0
  161.2830  208.6480  153.1840 C   0  0  0  0  0  0  0  0  0  0  0  0
  161.0990  214.4480  149.8630 O   0  0  0  0  0  1  0  0  0  0  0  0
  159.6120  213.4250  148.4500 O   0  0  0  0  0  0  0  0  0  0  0  0
  160.2840  213.3790  149.5190 C   0  0  0  0  0  0  0  0  0  0  0  0
  163.0870  212.0730  148.9980 O   0  0  0  0  0  1  0  0  0  0  0  0
  162.0350  211.1630  149.0780 C   0  0  0  0  0  2  0  0  0  0  0  0
  158.4470  213.5300  151.8580 C   0  0  1  0  0  3  0  0  0  0  0  0
  157.2840  212.7660  151.2200 C   0  0  0  0  0  1  0  0  0  0  0  0
  158.1020  214.0310  153.2520 C   0  0  0  0  0  2  0  0  0  0  0  0
  156.9630  213.2950  153.7780 N   0  0  0  0  0  2  0  0  0  0  0  0
  156.9590  213.4670  155.2240 C   0  0  0  0  0  3  0  0  0  0  0  0
  155.5260  213.5500  155.7240 C   0  0  0  0  0  1  0  0  0  0  0  0
  157.6460  212.2870  155.8740 C   0  0  0  0  0  1  0  0  0  0  0  0
  161.3600  206.4280  151.8970 C   0  0  1  0  0  3  0  0  0  0  0  0
  161.5090  207.1980  150.5800 C   0  0  2  0  0  3  0  0  0  0  0  0
  161.6330  206.0780  148.2220 C   0  0  1  0  0  3  0  0  0  0  0  0
  162.8990  208.4310  149.4380 O   0  0  0  0  0  0  0  0  0  0  0  0
  162.3270  207.2150  147.4760 C   0  0  0  0  0  2  0  0  0  0  0  0
  160.7480  206.6150  149.3610 C   0  0  0  0  0  2  0  0  0  0  0  0
  163.4420  207.8320  148.3030 C   0  0  0  0  0  2  0  0  0  0  0  0
  162.8660  207.4620  150.3330 O   0  0  0  0  0  0  0  0  0  0  0  0
  160.9150  205.2160  147.1690 C   0  0  1  0  0  3  0  0  0  0  0  0
  161.6620  206.1260  144.9590 O   0  0  0  0  0  0  0  0  0  0  0  0
  160.6750  206.0210  145.9320 C   0  0  0  0  0  0  0  0  0  0  0  0
  159.5580  206.5790  145.7540 O   0  0  0  0  0  1  0  0  0  0  0  0
  161.5030  203.8450  146.7940 C   0  0  1  0  0  3  0  0  0  0  0  0
  162.8640  203.9210  146.5010 O   0  0  0  0  0  1  0  0  0  0  0  0
  160.7790  199.9110  150.7560 O   0  0  0  0  0  1  0  0  0  0  0  0
  161.2080  200.9580  149.9370 C   0  0  2  0  0  3  0  0  0  0  0  0
  159.9130  202.7120  151.1790 C   0  0  0  0  0  1  0  0  0  0  0  0
  161.2200  202.7790  147.8010 C   0  0  0  0  0  0  0  0  0  0  0  0
  160.1250  202.0380  149.8320 C   0  0  1  0  0  3  0  0  0  0  0  0
  161.4690  200.4160  148.5430 C   0  0  0  0  0  2  0  0  0  0  0  0
  161.7790  201.4970  147.6550 O   0  0  0  0  0  0  0  0  0  0  0  0
  160.4700  203.0510  148.8280 N   0  0  0  0  0  0  0  0  0  0  0  0
  162.3400  204.1360  151.6450 C   0  0  0  0  0  1  0  0  0  0  0  0
  162.5990  205.5620  152.1010 C   0  0  0  0  0  2  0  0  0  0  0  0
  1 13  2  0  0  0  0
  2  3  1  0  0  0  0
  3  7  2  0  0  0  0
  4  5  1  6  0  0  0
  4 13  1  0  0  0  0
  6 23  1  6  0  0  0
  6 14  1  0  0  0  0
  8 22  1  6  0  0  0
  8 10  1  0  0  0  0
  8  4  1  0  0  0  0
  9  3  1  0  0  0  0
  9 12  1  0  0  0  0
 10 20  1  6  0  0  0
 10  6  1  0  0  0  0
 11 16  1  0  0  0  0
 13 17  1  0  0  0  0
 14  2  1  0  0  0  0
 15 17  1  0  0  0  0
 15 11  2  0  0  0  0
 16 12  2  0  0  0  0
 17  9  2  0  0  0  0
 19 20  2  0  0  0  0
 20 18  1  0  0  0  0
 21 22  1  0  0  0  0
 23 24  1  1  0  0  0
 23 25  1  0  0  0  0
 25 26  1  0  0  0  0
 26 27  1  0  0  0  0
 27 28  1  0  0  0  0
 27 29  1  0  0  0  0
 30 53  1  1  0  0  0
 30 15  1  0  0  0  0
 31 30  1  1  0  0  0
 32 38  1  6  0  0  0
 32 35  1  0  0  0  0
 33 37  1  0  0  0  0
 34 32  1  0  0  0  0
 34 36  1  0  0  0  0
 35 31  1  0  0  0  0
 36 33  1  0  0  0  0
 37 31  1  0  0  0  0
 38 40  1  6  0  0  0
 39 40  2  0  0  0  0
 41 40  1  0  0  0  0
 42 43  1  1  0  0  0
 42 38  1  0  0  0  0
 42 47  1  0  0  0  0
 45 44  1  1  0  0  0
 47 51  2  0  0  0  0
 48 45  1  0  0  0  0
 48 46  1  1  0  0  0
 49 45  1  0  0  0  0
 50 47  1  0  0  0  0
 50 49  1  0  0  0  0
 51 48  1  0  0  0  0
 52 53  1  0  0  0  0
M  END
>  <MODEL>
5

>  <REMARK>
 VINA RESULT:      -1.6      2.094      3.354
  Name = 
  13 active torsions:
  status: ('A' for Active; 'I' for Inactive)
    1  A    between atoms: C_4  and  C_29
    2  A    between atoms: C_4  and  C_31
    3  A    between atoms: C_9  and  C_26
    4  A    between atoms: N_10  and  C_14
    5  A    between atoms: N_10  and  C_45
    6  A    between atoms: C_12  and  C_31
    7  A    between atoms: C_16  and  C_26
    8  A    between atoms: C_17  and  C_19
    9  A    between atoms: C_19  and  C_45
   10  A    between atoms: C_26  and  C_46
   11  A    between atoms: C_28  and  C_31
   12  A    between atoms: C_32  and  C_40
   13  A    between atoms: C_37  and  C_52
                            x       y       z     vdW  Elec       q    Type
                         _______ _______ _______ _____ _____    ______ ____

>  <TORSDO>
F 13

$$$$
=
 OpenBabel11072411413D

 53 56  0  0  1  0  0  0  0  0999 V2000
  162.4750  209.6020  152.6470 O   0  0  0  0  0  0  0  0  0  0  0  0
  160.6510  212.2490  155.0150 O   0  0  0  0  0  0  0  0  0  0  0  0
  161.3660  211.2160  155.6270 C   0  0  0  0  0  0  0  0  0  0  0  0
  160.1940  210.1810  152.2500 C   0  0  2  0  0  3  0  0  0  0  0  0
  159.7060  209.2080  151.3730 O   0  0  0  0  0  1  0  0  0  0  0  0
  159.3210  213.0940  153.2170 C   0  0  2  0  0  3  0  0  0  0  0  0
  162.3930  211.5050  156.2930 O   0  0  0  0  0  0  0  0  0  0  0  0
  160.5410  211.5150  151.5670 C   0  0  2  0  0  3  0  0  0  0  0  0
  160.9350  209.8090  155.5830 C   0  0  0  0  0  0  0  0  0  0  0  0
  159.3770  212.5150  151.7870 C   0  0  2  0  0  3  0  0  0  0  0  0
  160.3120  207.0860  155.7120 C   0  0  0  0  0  3  0  0  0  0  0  0
  160.5870  209.2120  156.7980 C   0  0  0  0  0  3  0  0  0  0  0  0
  161.2980  209.6510  153.1060 C   0  0  0  0  0  0  0  0  0  0  0  0
  159.4480  212.0360  154.3090 C   0  0  0  0  0  2  0  0  0  0  0  0
  160.6190  207.6590  154.4620 C   0  0  0  0  0  0  0  0  0  0  0  0
  160.2820  207.8560  156.8670 C   0  0  0  0  0  3  0  0  0  0  0  0
  160.9620  209.0300  154.3990 C   0  0  0  0  0  0  0  0  0  0  0  0
  158.3470  213.7410  149.8530 O   0  0  0  0  0  0  0  0  0  0  0  0
  160.3550  214.4280  150.7190 O   0  0  0  0  0  1  0  0  0  0  0  0
  159.3760  213.6320  150.7770 C   0  0  0  0  0  0  0  0  0  0  0  0
  162.2480  210.9150  149.9950 O   0  0  0  0  0  1  0  0  0  0  0  0
  160.9210  211.3250  150.1000 C   0  0  0  0  0  2  0  0  0  0  0  0
  158.0760  213.9660  153.4350 C   0  0  1  0  0  3  0  0  0  0  0  0
  156.8290  213.3800  152.7660 C   0  0  0  0  0  1  0  0  0  0  0  0
  157.8500  214.2440  154.9130 C   0  0  0  0  0  2  0  0  0  0  0  0
  156.4310  214.4290  155.1750 N   0  0  0  0  0  2  0  0  0  0  0  0
  156.0000  213.3480  156.0480 C   0  0  0  0  0  3  0  0  0  0  0  0
  157.2150  212.5900  156.5610 C   0  0  0  0  0  1  0  0  0  0  0  0
  155.2370  213.9200  157.2220 C   0  0  0  0  0  1  0  0  0  0  0  0
  160.6940  206.7530  153.2420 C   0  0  1  0  0  3  0  0  0  0  0  0
  161.1350  207.4290  151.9390 C   0  0  2  0  0  3  0  0  0  0  0  0
  161.7220  206.1480  149.7380 C   0  0  1  0  0  3  0  0  0  0  0  0
  162.7650  208.5650  151.0380 O   0  0  0  0  0  0  0  0  0  0  0  0
  162.5870  207.2230  149.0830 C   0  0  0  0  0  2  0  0  0  0  0  0
  160.6330  206.7720  150.6270 C   0  0  0  0  0  2  0  0  0  0  0  0
  163.5190  207.8820  150.0840 C   0  0  0  0  0  2  0  0  0  0  0  0
  162.5210  207.6600  151.9680 O   0  0  0  0  0  0  0  0  0  0  0  0
  161.2190  205.2230  148.6150 C   0  0  1  0  0  3  0  0  0  0  0  0
  160.9660  206.5160  146.4860 O   0  0  0  0  0  0  0  0  0  0  0  0
  161.7420  205.6960  147.2960 C   0  0  0  0  0  0  0  0  0  0  0  0
  162.9070  205.3760  146.9330 O   0  0  0  0  0  1  0  0  0  0  0  0
  161.4260  203.7040  148.7450 C   0  0  1  0  0  3  0  0  0  0  0  0
  160.7620  203.1780  149.8530 O   0  0  0  0  0  1  0  0  0  0  0  0
  159.8220  200.7980  144.1980 O   0  0  0  0  0  1  0  0  0  0  0  0
  159.9250  201.4910  145.4070 C   0  0  2  0  0  3  0  0  0  0  0  0
  159.4090  203.7250  144.3890 C   0  0  0  0  0  1  0  0  0  0  0  0
  161.0950  202.9490  147.5000 C   0  0  0  0  0  0  0  0  0  0  0  0
  160.4340  202.9170  145.1690 C   0  0  1  0  0  3  0  0  0  0  0  0
  160.9250  200.7760  146.2990 C   0  0  0  0  0  2  0  0  0  0  0  0
  161.1470  201.5430  147.4880 O   0  0  0  0  0  0  0  0  0  0  0  0
  160.7370  203.5980  146.4330 N   0  0  0  0  0  0  0  0  0  0  0  0
  160.8350  204.2720  152.9220 C   0  0  0  0  0  1  0  0  0  0  0  0
  161.5430  205.5050  153.4590 C   0  0  0  0  0  2  0  0  0  0  0  0
  1 13  2  0  0  0  0
  2  3  1  0  0  0  0
  3  7  2  0  0  0  0
  4  5  1  6  0  0  0
  4 13  1  0  0  0  0
  6 23  1  1  0  0  0
  6 14  1  0  0  0  0
  8 22  1  6  0  0  0
  8 10  1  0  0  0  0
  8  4  1  0  0  0  0
  9  3  1  0  0  0  0
  9 12  1  0  0  0  0
 10 20  1  6  0  0  0
 10  6  1  0  0  0  0
 11 16  1  0  0  0  0
 12 16  2  0  0  0  0
 13 17  1  0  0  0  0
 14  2  1  0  0  0  0
 15 11  2  0  0  0  0
 17 15  1  0  0  0  0
 17  9  2  0  0  0  0
 18 20  2  0  0  0  0
 19 20  1  0  0  0  0
 21 22  1  0  0  0  0
 23 24  1  1  0  0  0
 23 25  1  0  0  0  0
 25 26  1  0  0  0  0
 26 27  1  0  0  0  0
 27 28  1  0  0  0  0
 27 29  1  0  0  0  0
 30 53  1  1  0  0  0
 30 15  1  0  0  0  0
 31 37  1  0  0  0  0
 31 30  1  1  0  0  0
 32 38  1  6  0  0  0
 32 35  1  0  0  0  0
 33 37  1  0  0  0  0
 34 32  1  0  0  0  0
 34 36  1  0  0  0  0
 35 31  1  0  0  0  0
 36 33  1  0  0  0  0
 38 40  1  6  0  0  0
 38 42  1  0  0  0  0
 39 40  2  0  0  0  0
 41 40  1  0  0  0  0
 42 43  1  1  0  0  0
 45 44  1  6  0  0  0
 45 49  1  0  0  0  0
 47 42  1  0  0  0  0
 48 46  1  1  0  0  0
 48 45  1  0  0  0  0
 48 51  1  0  0  0  0
 49 50  1  0  0  0  0
 50 47  1  0  0  0  0
 51 47  2  0  0  0  0
 52 53  1  0  0  0  0
M  END
>  <MODEL>
6

>  <REMARK>
 VINA RESULT:      -1.0      1.590      2.519
  Name = 
  13 active torsions:
  status: ('A' for Active; 'I' for Inactive)
    1  A    between atoms: C_4  and  C_29
    2  A    between atoms: C_4  and  C_31
    3  A    between atoms: C_9  and  C_26
    4  A    between atoms: N_10  and  C_14
    5  A    between atoms: N_10  and  C_45
    6  A    between atoms: C_12  and  C_31
    7  A    between atoms: C_16  and  C_26
    8  A    between atoms: C_17  and  C_19
    9  A    between atoms: C_19  and  C_45
   10  A    between atoms: C_26  and  C_46
   11  A    between atoms: C_28  and  C_31
   12  A    between atoms: C_32  and  C_40
   13  A    between atoms: C_37  and  C_52
                            x       y       z     vdW  Elec       q    Type
                         _______ _______ _______ _____ _____    ______ ____

>  <TORSDO>
F 13

$$$$
