=
 OpenBabel11072411443D

 49 50  0  0  1  0  0  0  0  0999 V2000
  162.2250  207.1350  150.5140 C   0  0  2  0  0  3  0  0  0  0  0  0
  162.5310  206.8460  151.9290 N   0  0  0  0  0  0  0  0  0  0  0  0
  160.5950  211.3550  151.8800 C   0  0  0  0  0  0  0  0  0  0  0  0
  161.6480  208.5370  150.2910 C   0  0  0  0  0  2  0  0  0  0  0  0
  162.2000  209.5510  151.2780 C   0  0  0  0  0  2  0  0  0  0  0  0
  160.3440  209.0830  152.9370 C   0  0  0  0  0  2  0  0  0  0  0  0
  161.1220  210.0370  152.1380 N   0  0  0  0  0  0  0  0  0  0  0  0
  163.1240  205.6290  151.9940 O   0  0  0  0  0  1  0  0  0  0  0  0
  160.9610  211.9700  150.8400 O   0  0  0  0  0  0  0  0  0  0  0  0
  161.2190  208.0360  153.6190 C   0  0  0  0  0  2  0  0  0  0  0  0
  161.3260  206.7880  152.7520 C   0  0  0  0  0  2  0  0  0  0  0  0
  159.6230  212.0150  152.7850 C   0  0  0  0  0  0  0  0  0  0  0  0
  157.7790  213.1310  154.6450 C   0  0  0  0  0  3  0  0  0  0  0  0
  157.2950  212.4760  153.4690 N   0  0  0  0  0  2  0  0  0  0  0  0
  159.0890  213.1980  154.8730 C   0  0  0  0  0  3  0  0  0  0  0  0
  160.0330  212.5660  153.9370 C   0  0  0  0  0  3  0  0  0  0  0  0
  158.1790  212.1550  152.3450 C   0  0  1  0  0  3  0  0  0  0  0  0
  158.0620  213.2370  151.2850 C   0  0  0  0  0  2  0  0  0  0  0  0
  156.9880  212.9070  150.3630 N   0  0  0  0  0  2  0  0  0  0  0  0
  156.7710  214.0800  149.5290 C   0  0  1  0  0  3  0  0  0  0  0  0
  157.2230  213.7950  148.0970 C   0  0  2  0  0  3  0  0  0  0  0  0
  157.4250  212.3050  147.8870 C   0  0  0  0  0  1  0  0  0  0  0  0
  158.4270  214.4520  147.8330 O   0  0  0  0  0  1  0  0  0  0  0  0
  155.2940  214.4450  149.5530 C   0  0  0  0  0  2  0  0  0  0  0  0
  154.6270  213.6710  150.5020 O   0  0  0  0  0  1  0  0  0  0  0  0
  159.9160  206.0790  150.0750 C   0  0  0  0  0  1  0  0  0  0  0  0
  161.4160  206.0280  149.8040 C   0  0  1  0  0  3  0  0  0  0  0  0
  161.7400  205.8990  148.3100 C   0  0  0  0  0  2  0  0  0  0  0  0
  160.8920  204.8700  147.5550 C   0  0  0  0  0  2  0  0  0  0  0  0
  161.7500  203.8470  146.8040 C   0  0  1  0  0  3  0  0  0  0  0  0
  160.9050  201.5720  146.6040 O   0  0  0  0  0  1  0  0  0  0  0  0
  161.6600  202.4360  147.4050 C   0  0  2  0  0  3  0  0  0  0  0  0
  159.7660  201.8710  149.0000 C   0  0  0  0  0  1  0  0  0  0  0  0
  161.1680  202.4530  148.8550 C   0  0  1  0  0  3  0  0  0  0  0  0
  162.1430  201.6990  149.7410 C   0  0  0  0  0  2  0  0  0  0  0  0
  161.7300  201.8260  151.2000 C   0  0  0  0  0  2  0  0  0  0  0  0
  160.3060  203.4120  152.4930 C   0  0  0  0  0  1  0  0  0  0  0  0
  161.5010  203.2810  151.5660 C   0  0  0  0  0  2  0  0  0  0  0  0
  161.4800  203.8730  145.2940 C   0  0  1  0  0  3  0  0  0  0  0  0
  159.6810  202.6920  144.0330 C   0  0  0  0  0  1  0  0  0  0  0  0
  159.9840  203.8010  145.0210 C   0  0  0  0  0  2  0  0  0  0  0  0
  162.0300  205.0150  144.6980 O   0  0  0  0  0  0  0  0  0  0  0  0
  161.0010  205.5530  143.9210 C   0  0  0  0  0  2  0  0  0  0  0  0
  161.5520  206.0760  142.6710 C   0  0  0  0  0  0  0  0  0  0  0  0
  162.0040  206.5030  141.6370 C   0  0  0  0  0  0  0  0  0  0  0  0
  161.5960  208.0310  139.7860 C   0  0  0  0  0  1  0  0  0  0  0  0
  162.5550  207.0160  140.3790 C   0  0  2  0  0  3  0  0  0  0  0  0
  162.2750  206.4540  138.2570 C   0  0  0  0  0  1  0  0  0  0  0  0
  162.7330  205.9620  139.4820 O   0  0  0  0  0  0  0  0  0  0  0  0
  1 27  1  1  0  0  0
  1  2  1  0  0  0  0
  2  8  1  0  0  0  0
  2 11  1  0  0  0  0
  3  7  1  0  0  0  0
  3 12  1  0  0  0  0
  4  1  1  0  0  0  0
  4  5  1  0  0  0  0
  5  7  1  0  0  0  0
  6 10  1  0  0  0  0
  7  6  1  0  0  0  0
  9  3  2  0  0  0  0
 11 10  1  0  0  0  0
 12 16  2  0  0  0  0
 13 15  2  0  0  0  0
 14 13  1  0  0  0  0
 16 15  1  0  0  0  0
 17 18  1  6  0  0  0
 17 12  1  0  0  0  0
 17 14  1  0  0  0  0
 19 18  1  0  0  0  0
 20 24  1  6  0  0  0
 20 19  1  0  0  0  0
 21 22  1  1  0  0  0
 21 20  1  0  0  0  0
 23 21  1  0  0  0  0
 24 25  1  0  0  0  0
 27 26  1  6  0  0  0
 28 27  1  0  0  0  0
 29 28  1  0  0  0  0
 30 32  1  0  0  0  0
 30 29  1  1  0  0  0
 32 31  1  6  0  0  0
 32 34  1  0  0  0  0
 34 33  1  6  0  0  0
 34 35  1  0  0  0  0
 35 36  1  0  0  0  0
 36 38  1  0  0  0  0
 38 37  1  0  0  0  0
 39 41  1  1  0  0  0
 39 30  1  0  0  0  0
 40 41  1  0  0  0  0
 42 39  1  0  0  0  0
 43 42  1  0  0  0  0
 44 43  1  0  0  0  0
 45 44  3  0  0  0  0
 47 46  1  6  0  0  0
 47 45  1  0  0  0  0
 48 49  1  0  0  0  0
 49 47  1  0  0  0  0
M  END
>  <MODEL>
1

>  <REMARK>
 VINA RESULT:      -3.2      0.000      0.000
  Name = 
  22 active torsions:
  status: ('A' for Active; 'I' for Inactive)
    1  A    between atoms: C_2  and  C_35
    2  A    between atoms: C_3  and  CA_19
    3  A    between atoms: C_7  and  C_8
    4  A    between atoms: C_8  and  C_9
    5  A    between atoms: C_9  and  C_45
    6  A    between atoms: C_12  and  C_25
    7  A    between atoms: C_12  and  O_43
    8  A    between atoms: C_13  and  C_27
    9  A    between atoms: C_13  and  C_33
   10  A    between atoms: C_13  and  O_43
   11  A    between atoms: C_16  and  N_29
   12  A    between atoms: C_16  and  C_49
   13  A    between atoms: C_17  and  C_18
   14  A    between atoms: CA_19  and  CB_21
   15  A    between atoms: CA_19  and  N_29
   16  A    between atoms: C_22  and  C_33
   17  A    between atoms: C_22  and  C_41
   18  A    between atoms: C_26  and  C_39
   19  A    between atoms: C_33  and  C_45
   20  A    between atoms: C_35  and  C_47
   21  A    between atoms: C_39  and  O_46
   22  A    between atoms: C_41  and  C_47
                            x       y       z     vdW  Elec       q    Type
                         _______ _______ _______ _____ _____    ______ ____

>  <TORSDO>
F 22

$$$$
=
 OpenBabel11072411443D

 49 50  0  0  1  0  0  0  0  0999 V2000
  161.2410  211.8850  151.0260 C   0  0  2  0  0  3  0  0  0  0  0  0
  161.5030  212.5570  149.7370 N   0  0  0  0  0  0  0  0  0  0  0  0
  162.3310  207.7850  148.9460 C   0  0  0  0  0  0  0  0  0  0  0  0
  161.4940  210.3750  150.9870 C   0  0  0  0  0  2  0  0  0  0  0  0
  162.6190  210.0030  150.0360 C   0  0  0  0  0  2  0  0  0  0  0  0
  161.0130  209.7530  148.0920 C   0  0  0  0  0  2  0  0  0  0  0  0
  162.0860  209.2060  148.9320 N   0  0  0  0  0  0  0  0  0  0  0  0
  161.3440  213.8910  149.9140 O   0  0  0  0  0  1  0  0  0  0  0  0
  162.8480  207.2610  149.9720 O   0  0  0  0  0  0  0  0  0  0  0  0
  161.2530  211.2100  147.7080 C   0  0  0  0  0  2  0  0  0  0  0  0
  160.5640  212.1400  148.6990 C   0  0  0  0  0  2  0  0  0  0  0  0
  161.9850  206.9050  147.8030 C   0  0  0  0  0  0  0  0  0  0  0  0
  161.3010  205.3790  145.4990 C   0  0  0  0  0  3  0  0  0  0  0  0
  160.3270  205.5960  146.5250 N   0  0  0  0  0  2  0  0  0  0  0  0
  162.5160  205.9080  145.6200 C   0  0  0  0  0  3  0  0  0  0  0  0
  162.8430  206.7450  146.7840 C   0  0  0  0  0  3  0  0  0  0  0  0
  160.6990  206.1050  147.8470 C   0  0  1  0  0  3  0  0  0  0  0  0
  160.8450  204.9410  148.8140 C   0  0  0  0  0  2  0  0  0  0  0  0
  161.3790  203.7850  148.1130 N   0  0  0  0  0  2  0  0  0  0  0  0
  160.5380  202.6510  148.4650 C   0  0  1  0  0  3  0  0  0  0  0  0
  160.5710  201.6080  147.3490 C   0  0  2  0  0  3  0  0  0  0  0  0
  161.5280  200.4820  147.6970 C   0  0  0  0  0  1  0  0  0  0  0  0
  160.9870  202.1960  146.1530 O   0  0  0  0  0  1  0  0  0  0  0  0
  161.0360  202.0440  149.7700 C   0  0  0  0  0  2  0  0  0  0  0  0
  159.9970  201.3680  150.4080 O   0  0  0  0  0  1  0  0  0  0  0  0
  158.9230  212.9700  150.7220 C   0  0  0  0  0  1  0  0  0  0  0  0
  159.8840  212.2540  151.6650 C   0  0  1  0  0  3  0  0  0  0  0  0
  159.2220  211.0860  152.4070 C   0  0  0  0  0  2  0  0  0  0  0  0
  158.5090  211.4710  153.7070 C   0  0  0  0  0  2  0  0  0  0  0  0
  159.4330  211.3880  154.9240 C   0  0  1  0  0  3  0  0  0  0  0  0
  157.3460  211.0960  156.1450 O   0  0  0  0  0  1  0  0  0  0  0  0
  158.6780  211.5090  156.2570 C   0  0  2  0  0  3  0  0  0  0  0  0
  160.2140  213.4650  156.7740 C   0  0  0  0  0  1  0  0  0  0  0  0
  158.7970  212.9090  156.8660 C   0  0  1  0  0  3  0  0  0  0  0  0
  157.8180  213.8520  156.1900 C   0  0  0  0  0  2  0  0  0  0  0  0
  156.5160  213.9070  156.9760 C   0  0  0  0  0  2  0  0  0  0  0  0
  155.7630  213.8580  154.6000 C   0  0  0  0  0  1  0  0  0  0  0  0
  155.3330  214.0710  156.0400 C   0  0  0  0  0  2  0  0  0  0  0  0
  160.3490  210.1590  154.8650 C   0  0  1  0  0  3  0  0  0  0  0  0
  162.5650  210.6050  155.9190 C   0  0  0  0  0  1  0  0  0  0  0  0
  161.7900  210.5830  154.6160 C   0  0  0  0  0  2  0  0  0  0  0  0
  160.2600  209.3990  156.0380 O   0  0  0  0  0  0  0  0  0  0  0  0
  159.4880  208.2860  155.6940 C   0  0  0  0  0  2  0  0  0  0  0  0
  160.2640  207.3990  154.8280 C   0  0  0  0  0  0  0  0  0  0  0  0
  160.9050  206.6640  154.1180 C   0  0  0  0  0  0  0  0  0  0  0  0
  162.6950  206.5850  152.4700 C   0  0  0  0  0  1  0  0  0  0  0  0
  161.6880  205.7700  153.2600 C   0  0  2  0  0  3  0  0  0  0  0  0
  160.7950  203.7870  152.8520 C   0  0  0  0  0  1  0  0  0  0  0  0
  160.8360  205.1010  152.3800 O   0  0  0  0  0  0  0  0  0  0  0  0
  1 27  1  6  0  0  0
  2  8  1  0  0  0  0
  2  1  1  0  0  0  0
  3  9  2  0  0  0  0
  4  1  1  0  0  0  0
  5  4  1  0  0  0  0
  6  7  1  0  0  0  0
  7  3  1  0  0  0  0
  7  5  1  0  0  0  0
 10  6  1  0  0  0  0
 10 11  1  0  0  0  0
 11  2  1  0  0  0  0
 12 17  1  0  0  0  0
 12  3  1  0  0  0  0
 13 15  2  0  0  0  0
 13 14  1  0  0  0  0
 14 17  1  0  0  0  0
 15 16  1  0  0  0  0
 16 12  2  0  0  0  0
 17 18  1  1  0  0  0
 19 20  1  0  0  0  0
 19 18  1  0  0  0  0
 20 24  1  1  0  0  0
 21 22  1  1  0  0  0
 21 20  1  0  0  0  0
 23 21  1  0  0  0  0
 24 25  1  0  0  0  0
 27 26  1  6  0  0  0
 27 28  1  0  0  0  0
 28 29  1  0  0  0  0
 30 29  1  6  0  0  0
 30 32  1  0  0  0  0
 32 31  1  6  0  0  0
 32 34  1  0  0  0  0
 34 33  1  6  0  0  0
 35 34  1  0  0  0  0
 35 36  1  0  0  0  0
 37 38  1  0  0  0  0
 38 36  1  0  0  0  0
 39 41  1  1  0  0  0
 39 30  1  0  0  0  0
 39 42  1  0  0  0  0
 41 40  1  0  0  0  0
 43 42  1  0  0  0  0
 44 43  1  0  0  0  0
 45 44  3  0  0  0  0
 47 46  1  6  0  0  0
 47 45  1  0  0  0  0
 49 48  1  0  0  0  0
 49 47  1  0  0  0  0
M  END
>  <MODEL>
2

>  <REMARK>
 VINA RESULT:      -2.2      3.164     10.846
  Name = 
  22 active torsions:
  status: ('A' for Active; 'I' for Inactive)
    1  A    between atoms: C_2  and  C_35
    2  A    between atoms: C_3  and  CA_19
    3  A    between atoms: C_7  and  C_8
    4  A    between atoms: C_8  and  C_9
    5  A    between atoms: C_9  and  C_45
    6  A    between atoms: C_12  and  C_25
    7  A    between atoms: C_12  and  O_43
    8  A    between atoms: C_13  and  C_27
    9  A    between atoms: C_13  and  C_33
   10  A    between atoms: C_13  and  O_43
   11  A    between atoms: C_16  and  N_29
   12  A    between atoms: C_16  and  C_49
   13  A    between atoms: C_17  and  C_18
   14  A    between atoms: CA_19  and  CB_21
   15  A    between atoms: CA_19  and  N_29
   16  A    between atoms: C_22  and  C_33
   17  A    between atoms: C_22  and  C_41
   18  A    between atoms: C_26  and  C_39
   19  A    between atoms: C_33  and  C_45
   20  A    between atoms: C_35  and  C_47
   21  A    between atoms: C_39  and  O_46
   22  A    between atoms: C_41  and  C_47
                            x       y       z     vdW  Elec       q    Type
                         _______ _______ _______ _____ _____    ______ ____

>  <TORSDO>
F 22

$$$$
=
 OpenBabel11072411443D

 49 50  0  0  1  0  0  0  0  0999 V2000
  161.0250  208.4930  151.4650 C   0  0  2  0  0  3  0  0  0  0  0  0
  160.7380  207.7540  152.7100 N   0  0  0  0  0  0  0  0  0  0  0  0
  160.3690  204.4620  149.0900 C   0  0  0  0  0  0  0  0  0  0  0  0
  160.9110  207.6300  150.2040 C   0  0  0  0  0  2  0  0  0  0  0  0
  159.8510  206.5500  150.3400 C   0  0  0  0  0  2  0  0  0  0  0  0
  161.5240  204.8990  151.2840 C   0  0  0  0  0  2  0  0  0  0  0  0
  160.4840  205.2330  150.3030 N   0  0  0  0  0  0  0  0  0  0  0  0
  160.7700  208.6320  153.7420 O   0  0  0  0  0  1  0  0  0  0  0  0
  159.8740  205.0040  148.0630 O   0  0  0  0  0  0  0  0  0  0  0  0
  161.1640  205.3430  152.6980 C   0  0  0  0  0  2  0  0  0  0  0  0
  161.7380  206.7250  152.9820 C   0  0  0  0  0  2  0  0  0  0  0  0
  160.8240  203.0530  148.9940 C   0  0  0  0  0  0  0  0  0  0  0  0
  161.8030  200.3800  148.9730 C   0  0  0  0  0  3  0  0  0  0  0  0
  162.3570  201.3490  148.0770 N   0  0  0  0  0  2  0  0  0  0  0  0
  160.8460  200.7400  149.8250 C   0  0  0  0  0  3  0  0  0  0  0  0
  160.3880  202.1370  149.8710 C   0  0  0  0  0  3  0  0  0  0  0  0
  161.7030  202.6360  147.8320 C   0  0  1  0  0  3  0  0  0  0  0  0
  160.8750  202.5480  146.5610 C   0  0  0  0  0  2  0  0  0  0  0  0
  161.6040  203.1500  145.4570 N   0  0  0  0  0  2  0  0  0  0  0  0
  161.2630  204.5650  145.4460 C   0  0  1  0  0  3  0  0  0  0  0  0
  162.5210  205.4090  145.6450 C   0  0  2  0  0  3  0  0  0  0  0  0
  163.7130  204.5250  145.9630 C   0  0  0  0  0  1  0  0  0  0  0  0
  162.3350  206.3080  146.6980 O   0  0  0  0  0  1  0  0  0  0  0  0
  160.6000  204.9100  144.1190 C   0  0  0  0  0  2  0  0  0  0  0  0
  161.4380  205.7330  143.3680 O   0  0  0  0  0  1  0  0  0  0  0  0
  163.3930  208.8740  150.5210 C   0  0  0  0  0  1  0  0  0  0  0  0
  162.3250  209.3270  151.5110 C   0  0  1  0  0  3  0  0  0  0  0  0
  162.0810  210.8400  151.4630 C   0  0  0  0  0  2  0  0  0  0  0  0
  160.8460  211.2670  150.6630 C   0  0  0  0  0  2  0  0  0  0  0  0
  161.0420  212.6150  149.9640 C   0  0  1  0  0  3  0  0  0  0  0  0
  161.1520  211.1460  148.0250 O   0  0  0  0  0  1  0  0  0  0  0  0
  161.2020  212.4810  148.4420 C   0  0  2  0  0  3  0  0  0  0  0  0
  163.7150  212.3620  148.0970 C   0  0  0  0  0  1  0  0  0  0  0  0
  162.4520  213.1980  147.9250 C   0  0  1  0  0  3  0  0  0  0  0  0
  162.2660  213.5740  146.4650 C   0  0  0  0  0  2  0  0  0  0  0  0
  160.8130  213.9390  146.2000 C   0  0  0  0  0  2  0  0  0  0  0  0
  158.9190  212.5400  145.3800 C   0  0  0  0  0  1  0  0  0  0  0  0
  160.2670  213.1430  145.0290 C   0  0  0  0  0  2  0  0  0  0  0  0
  159.9640  213.6300  150.3650 C   0  0  1  0  0  3  0  0  0  0  0  0
  157.7740  213.4140  149.1900 C   0  0  0  0  0  1  0  0  0  0  0  0
  159.1510  214.0490  149.1480 C   0  0  0  0  0  2  0  0  0  0  0  0
  159.1230  213.1150  151.3600 O   0  0  0  0  0  0  0  0  0  0  0  0
  158.9920  214.1430  152.2960 C   0  0  0  0  0  2  0  0  0  0  0  0
  158.3160  213.6360  153.4910 C   0  0  0  0  0  0  0  0  0  0  0  0
  157.7580  213.2130  154.4730 C   0  0  0  0  0  0  0  0  0  0  0  0
  157.8240  213.1450  156.9050 C   0  0  0  0  0  1  0  0  0  0  0  0
  157.0780  212.6950  155.6640 C   0  0  2  0  0  3  0  0  0  0  0  0
  155.8080  210.9870  155.0570 C   0  0  0  0  0  1  0  0  0  0  0  0
  157.0490  211.3000  155.6160 O   0  0  0  0  0  0  0  0  0  0  0  0
  1 27  1  1  0  0  0
  1  2  1  0  0  0  0
  2 11  1  0  0  0  0
  2  8  1  0  0  0  0
  3  7  1  0  0  0  0
  4  5  1  0  0  0  0
  4  1  1  0  0  0  0
  6 10  1  0  0  0  0
  7  5  1  0  0  0  0
  7  6  1  0  0  0  0
  9  3  2  0  0  0  0
 10 11  1  0  0  0  0
 12  3  1  0  0  0  0
 12 16  2  0  0  0  0
 13 15  2  0  0  0  0
 14 13  1  0  0  0  0
 15 16  1  0  0  0  0
 17 18  1  6  0  0  0
 17 14  1  0  0  0  0
 17 12  1  0  0  0  0
 19 18  1  0  0  0  0
 20 24  1  6  0  0  0
 20 19  1  0  0  0  0
 20 21  1  0  0  0  0
 21 22  1  1  0  0  0
 21 23  1  0  0  0  0
 25 24  1  0  0  0  0
 27 26  1  6  0  0  0
 28 27  1  0  0  0  0
 29 28  1  0  0  0  0
 30 39  1  0  0  0  0
 30 29  1  6  0  0  0
 32 31  1  1  0  0  0
 32 30  1  0  0  0  0
 34 33  1  6  0  0  0
 34 32  1  0  0  0  0
 35 34  1  0  0  0  0
 36 35  1  0  0  0  0
 38 37  1  0  0  0  0
 38 36  1  0  0  0  0
 39 41  1  6  0  0  0
 39 42  1  0  0  0  0
 41 40  1  0  0  0  0
 42 43  1  0  0  0  0
 43 44  1  0  0  0  0
 44 45  3  0  0  0  0
 45 47  1  0  0  0  0
 47 46  1  1  0  0  0
 48 49  1  0  0  0  0
 49 47  1  0  0  0  0
M  END
>  <MODEL>
3

>  <REMARK>
 VINA RESULT:      -1.8      2.875     10.840
  Name = 
  22 active torsions:
  status: ('A' for Active; 'I' for Inactive)
    1  A    between atoms: C_2  and  C_35
    2  A    between atoms: C_3  and  CA_19
    3  A    between atoms: C_7  and  C_8
    4  A    between atoms: C_8  and  C_9
    5  A    between atoms: C_9  and  C_45
    6  A    between atoms: C_12  and  C_25
    7  A    between atoms: C_12  and  O_43
    8  A    between atoms: C_13  and  C_27
    9  A    between atoms: C_13  and  C_33
   10  A    between atoms: C_13  and  O_43
   11  A    between atoms: C_16  and  N_29
   12  A    between atoms: C_16  and  C_49
   13  A    between atoms: C_17  and  C_18
   14  A    between atoms: CA_19  and  CB_21
   15  A    between atoms: CA_19  and  N_29
   16  A    between atoms: C_22  and  C_33
   17  A    between atoms: C_22  and  C_41
   18  A    between atoms: C_26  and  C_39
   19  A    between atoms: C_33  and  C_45
   20  A    between atoms: C_35  and  C_47
   21  A    between atoms: C_39  and  O_46
   22  A    between atoms: C_41  and  C_47
                            x       y       z     vdW  Elec       q    Type
                         _______ _______ _______ _____ _____    ______ ____

>  <TORSDO>
F 22

$$$$
=
 OpenBabel11072411443D

 49 50  0  0  1  0  0  0  0  0999 V2000
  161.6530  207.9040  149.3700 C   0  0  2  0  0  3  0  0  0  0  0  0
  161.2930  209.3030  149.0620 N   0  0  0  0  0  0  0  0  0  0  0  0
  160.8980  208.8680  153.9330 C   0  0  0  0  0  0  0  0  0  0  0  0
  161.5430  207.5620  150.8590 C   0  0  0  0  0  2  0  0  0  0  0  0
  160.4320  208.3370  151.5480 C   0  0  0  0  0  2  0  0  0  0  0  0
  161.9990  210.2400  152.1320 C   0  0  0  0  0  2  0  0  0  0  0  0
  161.0070  209.2390  152.5440 N   0  0  0  0  0  0  0  0  0  0  0  0
  161.3300  209.4630  147.7160 O   0  0  0  0  0  1  0  0  0  0  0  0
  160.4620  207.7210  154.2300 O   0  0  0  0  0  0  0  0  0  0  0  0
  161.6120  210.9530  150.8400 C   0  0  0  0  0  2  0  0  0  0  0  0
  162.2370  210.2550  149.6400 C   0  0  0  0  0  2  0  0  0  0  0  0
  161.2930  209.7790  155.0350 C   0  0  0  0  0  0  0  0  0  0  0  0
  162.0850  211.3690  157.2600 C   0  0  0  0  0  3  0  0  0  0  0  0
  160.6960  211.2160  156.9530 N   0  0  0  0  0  2  0  0  0  0  0  0
  162.9980  210.7510  156.5140 C   0  0  0  0  0  3  0  0  0  0  0  0
  162.5790  209.8830  155.4040 C   0  0  0  0  0  3  0  0  0  0  0  0
  160.2450  210.6720  155.6690 C   0  0  1  0  0  3  0  0  0  0  0  0
  159.8980  211.8140  154.7290 C   0  0  0  0  0  2  0  0  0  0  0  0
  158.8890  212.6630  155.3400 N   0  0  0  0  0  2  0  0  0  0  0  0
  157.6620  212.4780  154.5790 C   0  0  1  0  0  3  0  0  0  0  0  0
  156.5190  212.0860  155.5140 C   0  0  2  0  0  3  0  0  0  0  0  0
  155.7280  210.9280  154.9340 C   0  0  0  0  0  1  0  0  0  0  0  0
  155.6580  213.1690  155.7010 O   0  0  0  0  0  1  0  0  0  0  0  0
  157.3270  213.7710  153.8480 C   0  0  0  0  0  2  0  0  0  0  0  0
  158.1730  213.9310  152.7510 O   0  0  0  0  0  1  0  0  0  0  0  0
  163.8490  206.5870  149.6620 C   0  0  0  0  0  1  0  0  0  0  0  0
  162.9860  207.4430  148.7410 C   0  0  1  0  0  3  0  0  0  0  0  0
  162.8210  206.8240  147.3470 C   0  0  0  0  0  2  0  0  0  0  0  0
  161.4790  206.1250  147.1080 C   0  0  0  0  0  2  0  0  0  0  0  0
  161.5880  204.6020  147.2200 C   0  0  1  0  0  3  0  0  0  0  0  0
  160.1410  204.9150  149.1530 O   0  0  0  0  0  1  0  0  0  0  0  0
  160.5520  203.9980  148.1790 C   0  0  2  0  0  3  0  0  0  0  0  0
  161.9720  201.9150  147.8720 C   0  0  0  0  0  1  0  0  0  0  0  0
  161.0310  202.6810  148.7960 C   0  0  1  0  0  3  0  0  0  0  0  0
  161.7070  202.9490  150.1290 C   0  0  0  0  0  2  0  0  0  0  0  0
  160.7900  202.5410  151.2720 C   0  0  0  0  0  2  0  0  0  0  0  0
  161.8710  204.6360  152.0810 C   0  0  0  0  0  1  0  0  0  0  0  0
  160.9370  203.4960  152.4420 C   0  0  0  0  0  2  0  0  0  0  0  0
  161.5940  203.9270  145.8420 C   0  0  1  0  0  3  0  0  0  0  0  0
  160.1470  202.1420  144.8700 C   0  0  0  0  0  1  0  0  0  0  0  0
  160.1770  203.5500  145.4310 C   0  0  0  0  0  2  0  0  0  0  0  0
  162.1800  204.7500  144.8730 O   0  0  0  0  0  0  0  0  0  0  0  0
  161.1080  205.3140  144.1760 C   0  0  0  0  0  2  0  0  0  0  0  0
  161.5820  205.8610  142.9040 C   0  0  0  0  0  0  0  0  0  0  0  0
  161.9770  206.3070  141.8550 C   0  0  0  0  0  0  0  0  0  0  0  0
  161.6630  208.0860  140.2240 C   0  0  0  0  0  1  0  0  0  0  0  0
  162.4600  206.8460  140.5810 C   0  0  2  0  0  3  0  0  0  0  0  0
  162.2620  206.6170  138.3880 C   0  0  0  0  0  1  0  0  0  0  0  0
  162.3050  205.8870  139.5790 O   0  0  0  0  0  0  0  0  0  0  0  0
  1 27  1  1  0  0  0
  1  4  1  0  0  0  0
  2  1  1  0  0  0  0
  2 11  1  0  0  0  0
  3  9  2  0  0  0  0
  3 12  1  0  0  0  0
  4  5  1  0  0  0  0
  5  7  1  0  0  0  0
  6  7  1  0  0  0  0
  7  3  1  0  0  0  0
  8  2  1  0  0  0  0
 10  6  1  0  0  0  0
 11 10  1  0  0  0  0
 12 16  2  0  0  0  0
 12 17  1  0  0  0  0
 14 13  1  0  0  0  0
 15 13  2  0  0  0  0
 16 15  1  0  0  0  0
 17 18  1  6  0  0  0
 17 14  1  0  0  0  0
 18 19  1  0  0  0  0
 20 24  1  1  0  0  0
 20 19  1  0  0  0  0
 20 21  1  0  0  0  0
 21 22  1  6  0  0  0
 21 23  1  0  0  0  0
 25 24  1  0  0  0  0
 27 26  1  1  0  0  0
 28 27  1  0  0  0  0
 29 28  1  0  0  0  0
 30 29  1  6  0  0  0
 30 32  1  0  0  0  0
 32 34  1  0  0  0  0
 32 31  1  1  0  0  0
 34 33  1  6  0  0  0
 34 35  1  0  0  0  0
 35 36  1  0  0  0  0
 36 38  1  0  0  0  0
 37 38  1  0  0  0  0
 39 41  1  6  0  0  0
 39 30  1  0  0  0  0
 40 41  1  0  0  0  0
 42 39  1  0  0  0  0
 43 42  1  0  0  0  0
 44 43  1  0  0  0  0
 45 44  3  0  0  0  0
 47 46  1  6  0  0  0
 47 45  1  0  0  0  0
 48 49  1  0  0  0  0
 49 47  1  0  0  0  0
M  END
>  <MODEL>
4

>  <REMARK>
 VINA RESULT:      -1.7      2.437      3.602
  Name = 
  22 active torsions:
  status: ('A' for Active; 'I' for Inactive)
    1  A    between atoms: C_2  and  C_35
    2  A    between atoms: C_3  and  CA_19
    3  A    between atoms: C_7  and  C_8
    4  A    between atoms: C_8  and  C_9
    5  A    between atoms: C_9  and  C_45
    6  A    between atoms: C_12  and  C_25
    7  A    between atoms: C_12  and  O_43
    8  A    between atoms: C_13  and  C_27
    9  A    between atoms: C_13  and  C_33
   10  A    between atoms: C_13  and  O_43
   11  A    between atoms: C_16  and  N_29
   12  A    between atoms: C_16  and  C_49
   13  A    between atoms: C_17  and  C_18
   14  A    between atoms: CA_19  and  CB_21
   15  A    between atoms: CA_19  and  N_29
   16  A    between atoms: C_22  and  C_33
   17  A    between atoms: C_22  and  C_41
   18  A    between atoms: C_26  and  C_39
   19  A    between atoms: C_33  and  C_45
   20  A    between atoms: C_35  and  C_47
   21  A    between atoms: C_39  and  O_46
   22  A    between atoms: C_41  and  C_47
                            x       y       z     vdW  Elec       q    Type
                         _______ _______ _______ _____ _____    ______ ____

>  <TORSDO>
F 22

$$$$
=
 OpenBabel11072411443D

 49 50  0  0  1  0  0  0  0  0999 V2000
  162.5440  208.1200  150.0610 C   0  0  2  0  0  3  0  0  0  0  0  0
  162.8380  207.4900  151.3630 N   0  0  0  0  0  0  0  0  0  0  0  0
  160.4380  211.6410  152.4030 C   0  0  0  0  0  0  0  0  0  0  0  0
  161.8280  209.4690  150.1850 C   0  0  0  0  0  2  0  0  0  0  0  0
  162.2420  210.2270  151.4350 C   0  0  0  0  0  2  0  0  0  0  0  0
  160.3980  209.1560  152.8040 C   0  0  0  0  0  2  0  0  0  0  0  0
  161.0940  210.3590  152.3320 N   0  0  0  0  0  0  0  0  0  0  0  0
  163.5550  206.3620  151.1360 O   0  0  0  0  0  1  0  0  0  0  0  0
  160.7660  212.5450  151.5860 O   0  0  0  0  0  0  0  0  0  0  0  0
  161.3590  208.0510  153.2310 C   0  0  0  0  0  2  0  0  0  0  0  0
  161.6230  207.0990  152.0720 C   0  0  0  0  0  2  0  0  0  0  0  0
  159.3750  211.9380  153.3950 C   0  0  0  0  0  0  0  0  0  0  0  0
  157.2360  212.5970  155.1540 C   0  0  0  0  0  3  0  0  0  0  0  0
  158.4430  213.3650  155.1820 N   0  0  0  0  0  2  0  0  0  0  0  0
  157.1140  211.5900  154.2920 C   0  0  0  0  0  3  0  0  0  0  0  0
  158.2000  211.2940  153.3450 C   0  0  0  0  0  3  0  0  0  0  0  0
  159.6700  212.9000  154.5290 C   0  0  1  0  0  3  0  0  0  0  0  0
  160.5660  212.2300  155.5580 C   0  0  0  0  0  2  0  0  0  0  0  0
  159.7510  211.5950  156.5790 N   0  0  0  0  0  2  0  0  0  0  0  0
  160.5460  210.5150  157.1450 C   0  0  1  0  0  3  0  0  0  0  0  0
  159.8180  209.1830  156.9750 C   0  0  2  0  0  3  0  0  0  0  0  0
  160.8110  208.0540  156.7640 C   0  0  0  0  0  1  0  0  0  0  0  0
  158.9630  209.2400  155.8730 O   0  0  0  0  0  1  0  0  0  0  0  0
  161.8990  210.4710  156.4470 C   0  0  0  0  0  2  0  0  0  0  0  0
  162.5260  211.7130  156.5450 O   0  0  0  0  0  1  0  0  0  0  0  0
  160.8130  207.8400  148.1730 C   0  0  0  0  0  1  0  0  0  0  0  0
  161.8770  207.1740  149.0380 C   0  0  1  0  0  3  0  0  0  0  0  0
  162.8830  206.3610  148.2120 C   0  0  0  0  0  2  0  0  0  0  0  0
  162.3780  205.9220  146.8340 C   0  0  0  0  0  2  0  0  0  0  0  0
  162.0830  204.4210  146.7730 C   0  0  1  0  0  3  0  0  0  0  0  0
  160.4720  205.0710  148.4800 O   0  0  0  0  0  1  0  0  0  0  0  0
  160.9650  203.9930  147.7360 C   0  0  2  0  0  3  0  0  0  0  0  0
  161.2640  203.1510  150.1130 C   0  0  0  0  0  1  0  0  0  0  0  0
  161.3850  202.8220  148.6290 C   0  0  1  0  0  3  0  0  0  0  0  0
  160.5590  201.5930  148.2940 C   0  0  0  0  0  2  0  0  0  0  0  0
  161.2820  200.3360  148.7540 C   0  0  0  0  0  2  0  0  0  0  0  0
  161.0640  199.8220  146.3240 C   0  0  0  0  0  1  0  0  0  0  0  0
  161.9020  199.6130  147.5730 C   0  0  0  0  0  2  0  0  0  0  0  0
  161.8500  203.9410  145.3350 C   0  0  1  0  0  3  0  0  0  0  0  0
  160.0160  202.3280  144.8250 C   0  0  0  0  0  1  0  0  0  0  0  0
  160.3590  203.7860  145.0630 C   0  0  0  0  0  2  0  0  0  0  0  0
  162.4260  204.8170  144.4060 O   0  0  0  0  0  0  0  0  0  0  0  0
  161.3470  205.4520  143.7840 C   0  0  0  0  0  2  0  0  0  0  0  0
  161.7730  205.9920  142.4930 C   0  0  0  0  0  0  0  0  0  0  0  0
  162.1280  206.4390  141.4300 C   0  0  0  0  0  0  0  0  0  0  0  0
  162.4770  208.5010  140.1840 C   0  0  0  0  0  1  0  0  0  0  0  0
  162.5630  206.9870  140.1420 C   0  0  2  0  0  3  0  0  0  0  0  0
  162.6180  206.1260  138.1040 C   0  0  0  0  0  1  0  0  0  0  0  0
  161.7410  206.5000  139.1250 O   0  0  0  0  0  0  0  0  0  0  0  0
  1 27  1  6  0  0  0
  1  4  1  0  0  0  0
  1  2  1  0  0  0  0
  2 11  1  0  0  0  0
  3 12  1  0  0  0  0
  4  5  1  0  0  0  0
  5  7  1  0  0  0  0
  6 10  1  0  0  0  0
  7  3  1  0  0  0  0
  7  6  1  0  0  0  0
  8  2  1  0  0  0  0
  9  3  2  0  0  0  0
 11 10  1  0  0  0  0
 12 17  1  0  0  0  0
 13 14  1  0  0  0  0
 15 13  2  0  0  0  0
 16 12  2  0  0  0  0
 16 15  1  0  0  0  0
 17 14  1  0  0  0  0
 17 18  1  1  0  0  0
 18 19  1  0  0  0  0
 19 20  1  0  0  0  0
 20 24  1  6  0  0  0
 21 22  1  6  0  0  0
 21 20  1  0  0  0  0
 23 21  1  0  0  0  0
 24 25  1  0  0  0  0
 27 26  1  6  0  0  0
 28 27  1  0  0  0  0
 29 28  1  0  0  0  0
 30 29  1  6  0  0  0
 30 32  1  0  0  0  0
 32 31  1  1  0  0  0
 32 34  1  0  0  0  0
 34 33  1  1  0  0  0
 35 34  1  0  0  0  0
 35 36  1  0  0  0  0
 37 38  1  0  0  0  0
 38 36  1  0  0  0  0
 39 41  1  6  0  0  0
 39 30  1  0  0  0  0
 40 41  1  0  0  0  0
 42 39  1  0  0  0  0
 43 42  1  0  0  0  0
 44 43  1  0  0  0  0
 45 44  3  0  0  0  0
 47 46  1  1  0  0  0
 47 45  1  0  0  0  0
 48 49  1  0  0  0  0
 49 47  1  0  0  0  0
M  END
>  <MODEL>
5

>  <REMARK>
 VINA RESULT:      -1.6      2.405      4.158
  Name = 
  22 active torsions:
  status: ('A' for Active; 'I' for Inactive)
    1  A    between atoms: C_2  and  C_35
    2  A    between atoms: C_3  and  CA_19
    3  A    between atoms: C_7  and  C_8
    4  A    between atoms: C_8  and  C_9
    5  A    between atoms: C_9  and  C_45
    6  A    between atoms: C_12  and  C_25
    7  A    between atoms: C_12  and  O_43
    8  A    between atoms: C_13  and  C_27
    9  A    between atoms: C_13  and  C_33
   10  A    between atoms: C_13  and  O_43
   11  A    between atoms: C_16  and  N_29
   12  A    between atoms: C_16  and  C_49
   13  A    between atoms: C_17  and  C_18
   14  A    between atoms: CA_19  and  CB_21
   15  A    between atoms: CA_19  and  N_29
   16  A    between atoms: C_22  and  C_33
   17  A    between atoms: C_22  and  C_41
   18  A    between atoms: C_26  and  C_39
   19  A    between atoms: C_33  and  C_45
   20  A    between atoms: C_35  and  C_47
   21  A    between atoms: C_39  and  O_46
   22  A    between atoms: C_41  and  C_47
                            x       y       z     vdW  Elec       q    Type
                         _______ _______ _______ _____ _____    ______ ____

>  <TORSDO>
F 22

$$$$
=
 OpenBabel11072411443D

 49 50  0  0  1  0  0  0  0  0999 V2000
  162.1600  207.1500  150.6040 C   0  0  2  0  0  3  0  0  0  0  0  0
  162.7230  206.4130  151.7530 N   0  0  0  0  0  0  0  0  0  0  0  0
  160.5290  210.3680  153.6560 C   0  0  0  0  0  0  0  0  0  0  0  0
  161.4660  208.4570  151.0020 C   0  0  0  0  0  2  0  0  0  0  0  0
  162.1160  209.1100  152.2100 C   0  0  0  0  0  2  0  0  0  0  0  0
  160.6070  207.8570  153.8130 C   0  0  0  0  0  2  0  0  0  0  0  0
  161.1740  209.1210  153.3290 N   0  0  0  0  0  0  0  0  0  0  0  0
  163.3930  205.3350  151.2770 O   0  0  0  0  0  1  0  0  0  0  0  0
  160.6710  211.3540  152.8810 O   0  0  0  0  0  0  0  0  0  0  0  0
  161.6500  206.7500  153.9270 C   0  0  0  0  0  2  0  0  0  0  0  0
  161.6840  205.9180  152.6520 C   0  0  0  0  0  2  0  0  0  0  0  0
  159.6880  210.5370  154.8660 C   0  0  0  0  0  0  0  0  0  0  0  0
  158.0350  210.6690  157.1800 C   0  0  0  0  0  3  0  0  0  0  0  0
  157.5340  211.1260  155.9200 N   0  0  0  0  0  2  0  0  0  0  0  0
  159.2650  210.1660  157.2590 C   0  0  0  0  0  3  0  0  0  0  0  0
  160.0910  210.0460  156.0470 C   0  0  0  0  0  3  0  0  0  0  0  0
  158.4200  211.3620  154.7770 C   0  0  1  0  0  3  0  0  0  0  0  0
  158.7660  212.8400  154.7030 C   0  0  0  0  0  2  0  0  0  0  0  0
  157.8120  213.5260  153.8480 N   0  0  0  0  0  2  0  0  0  0  0  0
  156.5840  213.6710  154.6160 C   0  0  1  0  0  3  0  0  0  0  0  0
  156.8620  214.4390  155.9080 C   0  0  2  0  0  3  0  0  0  0  0  0
  158.3450  214.4250  156.2300 C   0  0  0  0  0  1  0  0  0  0  0  0
  156.1670  213.8580  156.9710 O   0  0  0  0  0  1  0  0  0  0  0  0
  155.5520  214.4090  153.7740 C   0  0  0  0  0  2  0  0  0  0  0  0
  155.2830  213.6890  152.6110 O   0  0  0  0  0  1  0  0  0  0  0  0
  159.8060  206.4590  149.8170 C   0  0  0  0  0  1  0  0  0  0  0  0
  161.3110  206.2810  149.6510 C   0  0  1  0  0  3  0  0  0  0  0  0
  161.7560  206.3690  148.1860 C   0  0  0  0  0  2  0  0  0  0  0  0
  161.0050  205.4390  147.2280 C   0  0  0  0  0  2  0  0  0  0  0  0
  161.8790  204.2830  146.7340 C   0  0  1  0  0  3  0  0  0  0  0  0
  161.9830  201.8610  146.9630 O   0  0  0  0  0  1  0  0  0  0  0  0
  161.8370  203.0620  147.6650 C   0  0  2  0  0  3  0  0  0  0  0  0
  159.8470  201.7300  148.5100 C   0  0  0  0  0  1  0  0  0  0  0  0
  160.5960  203.0580  148.5610 C   0  0  1  0  0  3  0  0  0  0  0  0
  160.9880  203.3840  149.9910 C   0  0  0  0  0  2  0  0  0  0  0  0
  160.1180  202.6030  150.9640 C   0  0  0  0  0  2  0  0  0  0  0  0
  162.3650  202.0110  151.8690 C   0  0  0  0  0  1  0  0  0  0  0  0
  160.9040  202.2390  152.2100 C   0  0  0  0  0  2  0  0  0  0  0  0
  161.5870  203.9300  145.2700 C   0  0  1  0  0  3  0  0  0  0  0  0
  159.5860  202.6010  144.5970 C   0  0  0  0  0  1  0  0  0  0  0  0
  160.0890  203.9730  145.0030 C   0  0  0  0  0  2  0  0  0  0  0  0
  162.2630  204.7880  144.3930 O   0  0  0  0  0  0  0  0  0  0  0  0
  161.3080  205.7240  143.9900 C   0  0  0  0  0  2  0  0  0  0  0  0
  161.5920  206.1570  142.6210 C   0  0  0  0  0  0  0  0  0  0  0  0
  161.8280  206.5080  141.4920 C   0  0  0  0  0  0  0  0  0  0  0  0
  163.3520  206.2020  139.6180 C   0  0  0  0  0  1  0  0  0  0  0  0
  162.1200  206.9320  140.1190 C   0  0  2  0  0  3  0  0  0  0  0  0
  161.8230  208.7360  138.8730 C   0  0  0  0  0  1  0  0  0  0  0  0
  162.3510  208.3080  140.0940 O   0  0  0  0  0  0  0  0  0  0  0  0
  1 27  1  1  0  0  0
  1  4  1  0  0  0  0
  1  2  1  0  0  0  0
  2 11  1  0  0  0  0
  3 12  1  0  0  0  0
  4  5  1  0  0  0  0
  5  7  1  0  0  0  0
  6 10  1  0  0  0  0
  7  3  1  0  0  0  0
  7  6  1  0  0  0  0
  8  2  1  0  0  0  0
  9  3  2  0  0  0  0
 11 10  1  0  0  0  0
 12 16  2  0  0  0  0
 13 15  2  0  0  0  0
 14 13  1  0  0  0  0
 16 15  1  0  0  0  0
 17 18  1  1  0  0  0
 17 12  1  0  0  0  0
 17 14  1  0  0  0  0
 19 20  1  0  0  0  0
 19 18  1  0  0  0  0
 20 24  1  6  0  0  0
 20 21  1  0  0  0  0
 21 22  1  1  0  0  0
 21 23  1  0  0  0  0
 25 24  1  0  0  0  0
 27 26  1  6  0  0  0
 28 27  1  0  0  0  0
 29 28  1  0  0  0  0
 30 29  1  1  0  0  0
 30 32  1  0  0  0  0
 32 31  1  6  0  0  0
 32 34  1  0  0  0  0
 34 33  1  1  0  0  0
 34 35  1  0  0  0  0
 35 36  1  0  0  0  0
 36 38  1  0  0  0  0
 37 38  1  0  0  0  0
 39 41  1  1  0  0  0
 39 30  1  0  0  0  0
 40 41  1  0  0  0  0
 42 39  1  0  0  0  0
 43 42  1  0  0  0  0
 44 43  1  0  0  0  0
 45 44  3  0  0  0  0
 47 46  1  1  0  0  0
 47 45  1  0  0  0  0
 48 49  1  0  0  0  0
 49 47  1  0  0  0  0
M  END
>  <MODEL>
6

>  <REMARK>
 VINA RESULT:      -1.1      2.189      2.918
  Name = 
  22 active torsions:
  status: ('A' for Active; 'I' for Inactive)
    1  A    between atoms: C_2  and  C_35
    2  A    between atoms: C_3  and  CA_19
    3  A    between atoms: C_7  and  C_8
    4  A    between atoms: C_8  and  C_9
    5  A    between atoms: C_9  and  C_45
    6  A    between atoms: C_12  and  C_25
    7  A    between atoms: C_12  and  O_43
    8  A    between atoms: C_13  and  C_27
    9  A    between atoms: C_13  and  C_33
   10  A    between atoms: C_13  and  O_43
   11  A    between atoms: C_16  and  N_29
   12  A    between atoms: C_16  and  C_49
   13  A    between atoms: C_17  and  C_18
   14  A    between atoms: CA_19  and  CB_21
   15  A    between atoms: CA_19  and  N_29
   16  A    between atoms: C_22  and  C_33
   17  A    between atoms: C_22  and  C_41
   18  A    between atoms: C_26  and  C_39
   19  A    between atoms: C_33  and  C_45
   20  A    between atoms: C_35  and  C_47
   21  A    between atoms: C_39  and  O_46
   22  A    between atoms: C_41  and  C_47
                            x       y       z     vdW  Elec       q    Type
                         _______ _______ _______ _____ _____    ______ ____

>  <TORSDO>
F 22

$$$$
=
 OpenBabel11072411443D

 49 50  0  0  1  0  0  0  0  0999 V2000
  161.7910  208.4540  152.1450 C   0  0  2  0  0  3  0  0  0  0  0  0
  162.5390  209.3650  151.2550 N   0  0  0  0  0  0  0  0  0  0  0  0
  161.6710  205.3280  148.6040 C   0  0  0  0  0  0  0  0  0  0  0  0
  161.4650  207.1030  151.4980 C   0  0  0  0  0  2  0  0  0  0  0  0
  162.5380  206.6610  150.5170 C   0  0  0  0  0  2  0  0  0  0  0  0
  161.3830  207.8290  148.5880 C   0  0  0  0  0  2  0  0  0  0  0  0
  161.9810  206.6190  149.1660 N   0  0  0  0  0  0  0  0  0  0  0  0
  162.8560  210.4790  151.9590 O   0  0  0  0  0  1  0  0  0  0  0  0
  161.7370  204.3050  149.3410 O   0  0  0  0  0  0  0  0  0  0  0  0
  162.2200  209.0780  148.8450 C   0  0  0  0  0  2  0  0  0  0  0  0
  161.7430  209.7870  150.1060 C   0  0  0  0  0  2  0  0  0  0  0  0
  161.2610  205.1520  147.1890 C   0  0  0  0  0  0  0  0  0  0  0  0
  160.3390  204.9550  144.5020 C   0  0  0  0  0  3  0  0  0  0  0  0
  159.9470  203.9710  145.4640 N   0  0  0  0  0  2  0  0  0  0  0  0
  161.1180  205.9690  144.8750 C   0  0  0  0  0  3  0  0  0  0  0  0
  161.5400  206.0970  146.2780 C   0  0  0  0  0  3  0  0  0  0  0  0
  160.6180  203.8480  146.7610 C   0  0  1  0  0  3  0  0  0  0  0  0
  161.6680  202.7520  146.6850 C   0  0  0  0  0  2  0  0  0  0  0  0
  161.0240  201.4730  146.4340 N   0  0  0  0  0  2  0  0  0  0  0  0
  161.6690  200.4980  147.3010 C   0  0  1  0  0  3  0  0  0  0  0  0
  160.9970  200.4910  148.6730 C   0  0  2  0  0  3  0  0  0  0  0  0
  159.7440  201.3500  148.6590 C   0  0  0  0  0  1  0  0  0  0  0  0
  161.8720  200.9910  149.6400 O   0  0  0  0  0  1  0  0  0  0  0  0
  161.5750  199.1200  146.6610 C   0  0  0  0  0  2  0  0  0  0  0  0
  160.9050  199.2060  145.4410 O   0  0  0  0  0  1  0  0  0  0  0  0
  159.9640  208.2660  153.9530 C   0  0  0  0  0  1  0  0  0  0  0  0
  160.5700  209.1040  152.8320 C   0  0  1  0  0  3  0  0  0  0  0  0
  160.8100  210.5600  153.2510 C   0  0  0  0  0  2  0  0  0  0  0  0
  159.5380  211.3970  153.4240 C   0  0  0  0  0  2  0  0  0  0  0  0
  159.8070  212.7240  154.1370 C   0  0  1  0  0  3  0  0  0  0  0  0
  158.1020  214.4520  154.3350 O   0  0  0  0  0  1  0  0  0  0  0  0
  159.0770  213.9100  153.4890 C   0  0  2  0  0  3  0  0  0  0  0  0
  157.1200  214.1440  151.8870 C   0  0  0  0  0  1  0  0  0  0  0  0
  158.5110  213.5600  152.1100 C   0  0  1  0  0  3  0  0  0  0  0  0
  159.4610  214.0360  151.0250 C   0  0  0  0  0  2  0  0  0  0  0  0
  158.6780  214.4310  149.7820 C   0  0  0  0  0  2  0  0  0  0  0  0
  158.5130  213.4640  147.4890 C   0  0  0  0  0  1  0  0  0  0  0  0
  158.3090  213.2030  148.9700 C   0  0  0  0  0  2  0  0  0  0  0  0
  159.5590  212.6220  155.6480 C   0  0  1  0  0  3  0  0  0  0  0  0
  161.1500  210.8560  156.4060 C   0  0  0  0  0  1  0  0  0  0  0  0
  159.6980  211.1780  156.1110 C   0  0  0  0  0  2  0  0  0  0  0  0
  160.4320  213.4500  156.3650 O   0  0  0  0  0  0  0  0  0  0  0  0
  159.6190  214.1490  157.2610 C   0  0  0  0  0  2  0  0  0  0  0  0
  158.2250  213.7460  157.0760 C   0  0  0  0  0  0  0  0  0  0  0  0
  157.0750  213.4100  156.9280 C   0  0  0  0  0  0  0  0  0  0  0  0
  155.5880  212.0110  155.6030 C   0  0  0  0  0  1  0  0  0  0  0  0
  155.6800  212.9980  156.7510 C   0  0  2  0  0  3  0  0  0  0  0  0
  154.8190  214.1590  155.0760 C   0  0  0  0  0  1  0  0  0  0  0  0
  154.8940  214.1160  156.4700 O   0  0  0  0  0  0  0  0  0  0  0  0
  1 27  1  6  0  0  0
  2  8  1  0  0  0  0
  2  1  1  0  0  0  0
  3  7  1  0  0  0  0
  3  9  2  0  0  0  0
  4  1  1  0  0  0  0
  5  4  1  0  0  0  0
  6 10  1  0  0  0  0
  6  7  1  0  0  0  0
  7  5  1  0  0  0  0
 10 11  1  0  0  0  0
 11  2  1  0  0  0  0
 12  3  1  0  0  0  0
 13 15  2  0  0  0  0
 13 14  1  0  0  0  0
 14 17  1  0  0  0  0
 15 16  1  0  0  0  0
 16 12  2  0  0  0  0
 17 18  1  6  0  0  0
 17 12  1  0  0  0  0
 19 18  1  0  0  0  0
 19 20  1  0  0  0  0
 20 24  1  6  0  0  0
 20 21  1  0  0  0  0
 21 22  1  6  0  0  0
 21 23  1  0  0  0  0
 25 24  1  0  0  0  0
 27 28  1  0  0  0  0
 27 26  1  1  0  0  0
 28 29  1  0  0  0  0
 30 29  1  6  0  0  0
 30 39  1  0  0  0  0
 32 30  1  0  0  0  0
 32 31  1  1  0  0  0
 34 33  1  6  0  0  0
 34 32  1  0  0  0  0
 35 34  1  0  0  0  0
 36 35  1  0  0  0  0
 37 38  1  0  0  0  0
 38 36  1  0  0  0  0
 39 41  1  1  0  0  0
 39 42  1  0  0  0  0
 41 40  1  0  0  0  0
 42 43  1  0  0  0  0
 44 43  1  0  0  0  0
 45 44  3  0  0  0  0
 47 46  1  6  0  0  0
 47 45  1  0  0  0  0
 48 49  1  0  0  0  0
 49 47  1  0  0  0  0
M  END
>  <MODEL>
7

>  <REMARK>
 VINA RESULT:      -1.1      3.242     12.199
  Name = 
  22 active torsions:
  status: ('A' for Active; 'I' for Inactive)
    1  A    between atoms: C_2  and  C_35
    2  A    between atoms: C_3  and  CA_19
    3  A    between atoms: C_7  and  C_8
    4  A    between atoms: C_8  and  C_9
    5  A    between atoms: C_9  and  C_45
    6  A    between atoms: C_12  and  C_25
    7  A    between atoms: C_12  and  O_43
    8  A    between atoms: C_13  and  C_27
    9  A    between atoms: C_13  and  C_33
   10  A    between atoms: C_13  and  O_43
   11  A    between atoms: C_16  and  N_29
   12  A    between atoms: C_16  and  C_49
   13  A    between atoms: C_17  and  C_18
   14  A    between atoms: CA_19  and  CB_21
   15  A    between atoms: CA_19  and  N_29
   16  A    between atoms: C_22  and  C_33
   17  A    between atoms: C_22  and  C_41
   18  A    between atoms: C_26  and  C_39
   19  A    between atoms: C_33  and  C_45
   20  A    between atoms: C_35  and  C_47
   21  A    between atoms: C_39  and  O_46
   22  A    between atoms: C_41  and  C_47
                            x       y       z     vdW  Elec       q    Type
                         _______ _______ _______ _____ _____    ______ ____

>  <TORSDO>
F 22

$$$$
=
 OpenBabel11072411443D

 49 50  0  0  1  0  0  0  0  0999 V2000
  161.5810  208.0430  149.4550 C   0  0  2  0  0  3  0  0  0  0  0  0
  161.3140  209.4540  149.1110 N   0  0  0  0  0  0  0  0  0  0  0  0
  160.9010  209.1700  153.9930 C   0  0  0  0  0  0  0  0  0  0  0  0
  161.4510  207.7460  150.9520 C   0  0  0  0  0  2  0  0  0  0  0  0
  160.3960  208.6110  151.6210 C   0  0  0  0  0  2  0  0  0  0  0  0
  162.0880  210.4190  152.1570 C   0  0  0  0  0  2  0  0  0  0  0  0
  161.0330  209.4980  152.5940 N   0  0  0  0  0  0  0  0  0  0  0  0
  161.3590  209.5770  147.7620 O   0  0  0  0  0  1  0  0  0  0  0  0
  160.3900  208.0630  154.3180 O   0  0  0  0  0  0  0  0  0  0  0  0
  161.7470  211.1240  150.8480 C   0  0  0  0  0  2  0  0  0  0  0  0
  162.3210  210.3540  149.6650 C   0  0  0  0  0  2  0  0  0  0  0  0
  161.3590  210.0800  155.0710 C   0  0  0  0  0  0  0  0  0  0  0  0
  162.2550  211.6700  157.2560 C   0  0  0  0  0  3  0  0  0  0  0  0
  160.8630  211.6300  156.9280 N   0  0  0  0  0  2  0  0  0  0  0  0
  163.1210  210.9470  156.5490 C   0  0  0  0  0  3  0  0  0  0  0  0
  162.6430  210.0820  155.4600 C   0  0  0  0  0  3  0  0  0  0  0  0
  160.3850  211.0840  155.6550 C   0  0  1  0  0  3  0  0  0  0  0  0
  160.1570  212.2200  154.6710 C   0  0  0  0  0  2  0  0  0  0  0  0
  159.4870  213.3220  155.3410 N   0  0  0  0  0  2  0  0  0  0  0  0
  158.0570  213.0730  155.2370 C   0  0  1  0  0  3  0  0  0  0  0  0
  157.4840  213.8080  154.0250 C   0  0  2  0  0  3  0  0  0  0  0  0
  155.9980  214.0580  154.2050 C   0  0  0  0  0  1  0  0  0  0  0  0
  157.6740  213.0480  152.8690 O   0  0  0  0  0  1  0  0  0  0  0  0
  157.8170  211.5750  155.1090 C   0  0  0  0  0  2  0  0  0  0  0  0
  156.6410  211.2230  155.7710 O   0  0  0  0  0  1  0  0  0  0  0  0
  163.5780  206.4330  149.7010 C   0  0  0  0  0  1  0  0  0  0  0  0
  162.8790  207.4770  148.8370 C   0  0  1  0  0  3  0  0  0  0  0  0
  162.7140  207.0210  147.3820 C   0  0  0  0  0  2  0  0  0  0  0  0
  161.3820  206.3290  147.0720 C   0  0  0  0  0  2  0  0  0  0  0  0
  161.5240  204.8070  146.9850 C   0  0  1  0  0  3  0  0  0  0  0  0
  160.4370  204.8880  149.1630 O   0  0  0  0  0  1  0  0  0  0  0  0
  160.7140  204.0700  148.0620 C   0  0  2  0  0  3  0  0  0  0  0  0
  161.5570  202.6440  149.9870 C   0  0  0  0  0  1  0  0  0  0  0  0
  161.3670  202.7490  148.4780 C   0  0  1  0  0  3  0  0  0  0  0  0
  160.5410  201.5800  147.9700 C   0  0  0  0  0  2  0  0  0  0  0  0
  161.4550  200.4450  147.5320 C   0  0  0  0  0  2  0  0  0  0  0  0
  161.6500  198.6200  145.8450 C   0  0  0  0  0  1  0  0  0  0  0  0
  161.1400  200.0250  146.1080 C   0  0  0  0  0  2  0  0  0  0  0  0
  161.2500  204.2860  145.5680 C   0  0  1  0  0  3  0  0  0  0  0  0
  159.7080  202.9320  144.1500 C   0  0  0  0  0  1  0  0  0  0  0  0
  159.9510  203.4920  145.5380 C   0  0  0  0  0  2  0  0  0  0  0  0
  161.2020  205.3340  144.6400 O   0  0  0  0  0  0  0  0  0  0  0  0
  162.2790  205.1090  143.7790 C   0  0  0  0  0  2  0  0  0  0  0  0
  162.0570  205.8190  142.5190 C   0  0  0  0  0  0  0  0  0  0  0  0
  161.8730  206.3990  141.4780 C   0  0  0  0  0  0  0  0  0  0  0  0
  162.2590  206.2960  139.0770 C   0  0  0  0  0  1  0  0  0  0  0  0
  161.6500  207.1000  140.2100 C   0  0  2  0  0  3  0  0  0  0  0  0
  161.3070  209.2240  139.6900 C   0  0  0  0  0  1  0  0  0  0  0  0
  162.2460  208.3610  140.2610 O   0  0  0  0  0  0  0  0  0  0  0  0
  1 27  1  1  0  0  0
  1  4  1  0  0  0  0
  2  1  1  0  0  0  0
  2 11  1  0  0  0  0
  3  9  2  0  0  0  0
  3 12  1  0  0  0  0
  4  5  1  0  0  0  0
  5  7  1  0  0  0  0
  6  7  1  0  0  0  0
  7  3  1  0  0  0  0
  8  2  1  0  0  0  0
 10  6  1  0  0  0  0
 11 10  1  0  0  0  0
 12 16  2  0  0  0  0
 12 17  1  0  0  0  0
 14 13  1  0  0  0  0
 15 13  2  0  0  0  0
 16 15  1  0  0  0  0
 17 18  1  6  0  0  0
 17 14  1  0  0  0  0
 18 19  1  0  0  0  0
 20 24  1  6  0  0  0
 20 19  1  0  0  0  0
 21 22  1  1  0  0  0
 21 20  1  0  0  0  0
 23 21  1  0  0  0  0
 24 25  1  0  0  0  0
 27 26  1  1  0  0  0
 28 27  1  0  0  0  0
 29 28  1  0  0  0  0
 30 29  1  6  0  0  0
 30 32  1  0  0  0  0
 32 34  1  0  0  0  0
 32 31  1  1  0  0  0
 34 33  1  1  0  0  0
 35 34  1  0  0  0  0
 36 35  1  0  0  0  0
 37 38  1  0  0  0  0
 38 36  1  0  0  0  0
 39 41  1  1  0  0  0
 39 30  1  0  0  0  0
 40 41  1  0  0  0  0
 42 39  1  0  0  0  0
 43 42  1  0  0  0  0
 44 43  1  0  0  0  0
 45 44  3  0  0  0  0
 47 46  1  6  0  0  0
 47 49  1  0  0  0  0
 47 45  1  0  0  0  0
 48 49  1  0  0  0  0
M  END
>  <MODEL>
8

>  <REMARK>
 VINA RESULT:      -0.7      2.588      3.914
  Name = 
  22 active torsions:
  status: ('A' for Active; 'I' for Inactive)
    1  A    between atoms: C_2  and  C_35
    2  A    between atoms: C_3  and  CA_19
    3  A    between atoms: C_7  and  C_8
    4  A    between atoms: C_8  and  C_9
    5  A    between atoms: C_9  and  C_45
    6  A    between atoms: C_12  and  C_25
    7  A    between atoms: C_12  and  O_43
    8  A    between atoms: C_13  and  C_27
    9  A    between atoms: C_13  and  C_33
   10  A    between atoms: C_13  and  O_43
   11  A    between atoms: C_16  and  N_29
   12  A    between atoms: C_16  and  C_49
   13  A    between atoms: C_17  and  C_18
   14  A    between atoms: CA_19  and  CB_21
   15  A    between atoms: CA_19  and  N_29
   16  A    between atoms: C_22  and  C_33
   17  A    between atoms: C_22  and  C_41
   18  A    between atoms: C_26  and  C_39
   19  A    between atoms: C_33  and  C_45
   20  A    between atoms: C_35  and  C_47
   21  A    between atoms: C_39  and  O_46
   22  A    between atoms: C_41  and  C_47
                            x       y       z     vdW  Elec       q    Type
                         _______ _______ _______ _____ _____    ______ ____

>  <TORSDO>
F 22

$$$$
