=
 OpenBabel11072414333D

 36 41  0  0  1  0  0  0  0  0999 V2000
  161.9400  209.3560  148.8250 N   0  0  0  0  0  0  0  0  0  0  0  0
  161.7770  209.2080  151.5940 C   0  0  0  0  0  0  0  0  0  0  0  0
  162.0470  207.9530  150.8160 C   0  0  1  0  0  3  0  0  0  0  0  0
  161.7110  204.4560  151.0070 C   0  0  2  0  0  3  0  0  0  0  0  0
  160.6580  206.2230  149.7770 N   0  0  2  0  0  0  0  0  0  0  0  0
  161.0950  207.1390  148.8050 N   0  0  0  0  0  2  0  0  0  0  0  0
  161.2420  209.1480  152.7650 N   0  0  0  0  0  0  0  0  0  0  0  0
  162.3520  210.4910  151.0380 C   0  0  0  0  0  2  0  0  0  0  0  0
  162.3190  210.4880  149.5710 N   0  0  0  0  0  2  0  0  0  0  0  0
  161.0820  206.7890  151.0800 C   0  0  1  0  0  3  0  0  0  0  0  0
  161.8080  205.7020  151.8550 C   0  0  0  0  0  2  0  0  0  0  0  0
  161.8130  208.1960  149.3890 C   0  0  0  0  0  0  0  0  0  0  0  0
  161.4320  205.0010  149.6130 C   0  0  2  0  0  3  0  0  0  0  0  0
  160.6360  203.6830  151.4650 O   0  0  0  0  0  0  0  0  0  0  0  0
  161.2130  202.4880  151.8970 C   0  0  0  0  0  1  0  0  0  0  0  0
  161.0430  210.3090  153.5960 C   0  0  0  0  0  2  0  0  0  0  0  0
  159.5950  210.7500  153.5090 C   0  0  0  0  0  2  0  0  0  0  0  0
  158.1310  214.1690  152.1990 C   0  0  1  0  0  3  0  0  0  0  0  0
  159.3710  213.8240  151.3400 C   0  0  1  0  0  3  0  0  0  0  0  0
  156.8170  214.2010  148.9430 O   0  0  0  0  0  0  0  0  0  0  0  0
  159.5160  212.2280  153.1750 C   0  0  1  0  0  3  0  0  0  0  0  0
  159.8560  212.4380  151.7210 C   0  0  0  0  0  2  0  0  0  0  0  0
  157.5230  214.0970  149.9810 C   0  0  0  0  0  0  0  0  0  0  0  0
  157.0040  214.2720  151.2800 N   0  0  0  0  0  2  0  0  0  0  0  0
  158.9070  213.8220  149.9570 N   0  0  0  0  0  0  0  0  0  0  0  0
  157.8270  212.8450  153.4070 S   0  0  0  0  0  0  0  0  0  0  0  0
  161.0990  214.4530  149.2420 N   0  0  0  0  0  2  0  0  0  0  0  0
  161.3890  213.0900  146.9570 S   0  0  0  0  0  0  0  0  0  0  0  0
  159.8220  212.9570  147.8550 C   0  0  0  0  0  2  0  0  0  0  0  0
  161.9150  214.4530  148.0400 C   0  0  0  0  0  2  0  0  0  0  0  0
  159.7510  214.1310  148.8060 C   0  0  1  0  0  3  0  0  0  0  0  0
  160.7060  204.0180  148.6980 C   0  0  0  0  0  2  0  0  0  0  0  0
  163.1830  204.6630  145.7920 C   0  0  0  0  0  1  0  0  0  0  0  0
  162.4100  204.8090  147.0140 N   0  0  0  0  0  2  0  0  0  0  0  0
  161.2680  202.7890  146.7380 O   0  0  0  0  0  0  0  0  0  0  0  0
  161.4620  203.8260  147.4290 C   0  0  0  0  0  0  0  0  0  0  0  0
  1 12  2  0  0  0  0
  1  9  1  0  0  0  0
  2  7  2  0  0  0  0
  3 12  1  6  0  0  0
  3 10  1  0  0  0  0
  3  2  1  0  0  0  0
  4 14  1  1  0  0  0
  4 11  1  0  0  0  0
  5  6  1  6  0  0  0
  5 10  1  0  0  0  0
  6 12  1  0  0  0  0
  7 16  1  0  0  0  0
  8  2  1  0  0  0  0
  9  8  1  0  0  0  0
 10 11  1  1  0  0  0
 13 32  1  6  0  0  0
 13  5  1  0  0  0  0
 13  4  1  0  0  0  0
 14 15  1  0  0  0  0
 17 16  1  0  0  0  0
 18 24  1  6  0  0  0
 18 26  1  0  0  0  0
 19 22  1  1  0  0  0
 19 18  1  0  0  0  0
 20 23  2  0  0  0  0
 21 26  1  0  0  0  0
 21 17  1  6  0  0  0
 22 21  1  0  0  0  0
 23 24  1  0  0  0  0
 25 23  1  0  0  0  0
 25 19  1  0  0  0  0
 28 29  1  0  0  0  0
 28 30  1  0  0  0  0
 30 27  1  0  0  0  0
 31 29  1  6  0  0  0
 31 27  1  0  0  0  0
 31 25  1  0  0  0  0
 33 34  1  0  0  0  0
 34 36  1  0  0  0  0
 35 36  2  0  0  0  0
 36 32  1  0  0  0  0
M  END
>  <MODEL>
1

>  <REMARK>
 VINA RESULT:      -7.8      0.000      0.000
  Name = 
  7 active torsions:
  status: ('A' for Active; 'I' for Inactive)
    1  A    between atoms: C_5  and  O_16
    2  A    between atoms: N_10  and  C_23
    3  A    between atoms: C_14  and  C_17
    4  A    between atoms: C_14  and  C_23
    5  A    between atoms: C_27  and  C_34
    6  A    between atoms: C_32  and  C_34
    7  A    between atoms: N_33  and  C_35
                            x       y       z     vdW  Elec       q    Type
                         _______ _______ _______ _____ _____    ______ ____

>  <TORSDO>
F 7

$$$$
=
 OpenBabel11072414333D

 36 41  0  0  1  0  0  0  0  0999 V2000
  161.5050  204.8810  152.8280 N   0  0  0  0  0  0  0  0  0  0  0  0
  161.0760  207.5160  152.0610 C   0  0  0  0  0  0  0  0  0  0  0  0
  160.7870  206.4190  151.0770 C   0  0  1  0  0  3  0  0  0  0  0  0
  160.5540  205.7940  147.6230 C   0  0  2  0  0  3  0  0  0  0  0  0
  162.0860  205.2260  149.3770 N   0  0  2  0  0  0  0  0  0  0  0  0
  161.9970  204.4530  150.5460 N   0  0  0  0  0  2  0  0  0  0  0  0
  161.3470  208.7070  151.6490 N   0  0  0  0  0  0  0  0  0  0  0  0
  160.8240  207.2070  153.5190 C   0  0  0  0  0  2  0  0  0  0  0  0
  161.1550  205.8110  153.8240 N   0  0  0  0  0  2  0  0  0  0  0  0
  161.4940  206.5410  149.7210 C   0  0  1  0  0  3  0  0  0  0  0  0
  160.4720  206.8950  148.6530 C   0  0  0  0  0  2  0  0  0  0  0  0
  161.3400  205.1540  151.5710 C   0  0  0  0  0  0  0  0  0  0  0  0
  161.1890  204.6420  148.3910 C   0  0  2  0  0  3  0  0  0  0  0  0
  161.3860  206.2160  146.5780 O   0  0  0  0  0  0  0  0  0  0  0  0
  160.5630  206.2340  145.4510 C   0  0  0  0  0  1  0  0  0  0  0  0
  161.5420  209.8200  152.5450 C   0  0  0  0  0  2  0  0  0  0  0  0
  160.1950  210.3390  153.0050 C   0  0  0  0  0  2  0  0  0  0  0  0
  158.6560  213.7710  151.8200 C   0  0  1  0  0  3  0  0  0  0  0  0
  159.9030  213.4860  150.9510 C   0  0  1  0  0  3  0  0  0  0  0  0
  157.3430  213.8940  148.5670 O   0  0  0  0  0  0  0  0  0  0  0  0
  160.0830  211.8260  152.7260 C   0  0  1  0  0  3  0  0  0  0  0  0
  160.4180  212.0980  151.2820 C   0  0  0  0  0  2  0  0  0  0  0  0
  158.0500  213.7680  149.6000 C   0  0  0  0  0  0  0  0  0  0  0  0
  157.5270  213.8830  150.9050 N   0  0  0  0  0  2  0  0  0  0  0  0
  159.4400  213.5250  149.5680 N   0  0  0  0  0  0  0  0  0  0  0  0
  158.3810  212.3960  152.9780 S   0  0  0  0  0  0  0  0  0  0  0  0
  161.5610  214.3950  148.8920 N   0  0  0  0  0  2  0  0  0  0  0  0
  162.0900  212.9990  146.6710 S   0  0  0  0  0  0  0  0  0  0  0  0
  160.5220  212.7060  147.5280 C   0  0  0  0  0  2  0  0  0  0  0  0
  162.4110  214.4530  147.7150 C   0  0  0  0  0  2  0  0  0  0  0  0
  160.2780  213.8950  148.4310 C   0  0  1  0  0  3  0  0  0  0  0  0
  161.9320  203.6440  147.5060 C   0  0  0  0  0  2  0  0  0  0  0  0
  159.9810  201.2470  145.1720 C   0  0  0  0  0  1  0  0  0  0  0  0
  160.8500  202.3030  145.6630 N   0  0  0  0  0  2  0  0  0  0  0  0
  160.4090  201.8600  147.9140 O   0  0  0  0  0  0  0  0  0  0  0  0
  161.0170  202.5570  147.0580 C   0  0  0  0  0  0  0  0  0  0  0  0
  1  9  1  0  0  0  0
  2  8  1  0  0  0  0
  3 12  1  1  0  0  0
  3  2  1  0  0  0  0
  4 14  1  6  0  0  0
  4 13  1  0  0  0  0
  4 11  1  0  0  0  0
  5 10  1  0  0  0  0
  5  6  1  1  0  0  0
  6 12  1  0  0  0  0
  7  2  2  0  0  0  0
  7 16  1  0  0  0  0
  8  9  1  0  0  0  0
 10 11  1  6  0  0  0
 10  3  1  0  0  0  0
 12  1  2  0  0  0  0
 13 32  1  6  0  0  0
 13  5  1  0  0  0  0
 15 14  1  0  0  0  0
 16 17  1  0  0  0  0
 18 24  1  6  0  0  0
 18 26  1  0  0  0  0
 19 22  1  1  0  0  0
 19 18  1  0  0  0  0
 20 23  2  0  0  0  0
 21 26  1  0  0  0  0
 21 17  1  6  0  0  0
 22 21  1  0  0  0  0
 23 24  1  0  0  0  0
 25 23  1  0  0  0  0
 25 19  1  0  0  0  0
 28 29  1  0  0  0  0
 28 30  1  0  0  0  0
 30 27  1  0  0  0  0
 31 29  1  6  0  0  0
 31 27  1  0  0  0  0
 31 25  1  0  0  0  0
 33 34  1  0  0  0  0
 34 36  1  0  0  0  0
 36 32  1  0  0  0  0
 36 35  2  0  0  0  0
M  END
>  <MODEL>
2

>  <REMARK>
 VINA RESULT:      -7.5      1.783      2.906
  Name = 
  7 active torsions:
  status: ('A' for Active; 'I' for Inactive)
    1  A    between atoms: C_5  and  O_16
    2  A    between atoms: N_10  and  C_23
    3  A    between atoms: C_14  and  C_17
    4  A    between atoms: C_14  and  C_23
    5  A    between atoms: C_27  and  C_34
    6  A    between atoms: C_32  and  C_34
    7  A    between atoms: N_33  and  C_35
                            x       y       z     vdW  Elec       q    Type
                         _______ _______ _______ _____ _____    ______ ____

>  <TORSDO>
F 7

$$$$
=
 OpenBabel11072414333D

 36 41  0  0  1  0  0  0  0  0999 V2000
  161.3810  206.6310  151.8410 N   0  0  0  0  0  0  0  0  0  0  0  0
  161.4400  208.7710  150.0700 C   0  0  0  0  0  0  0  0  0  0  0  0
  161.0530  207.4140  149.5560 C   0  0  1  0  0  3  0  0  0  0  0  0
  160.9790  205.4920  146.6090 C   0  0  2  0  0  3  0  0  0  0  0  0
  162.2650  205.4970  148.6320 N   0  0  2  0  0  0  0  0  0  0  0  0
  161.9660  205.2720  149.9860 N   0  0  0  0  0  2  0  0  0  0  0  0
  161.9290  209.6560  149.2710 N   0  0  0  0  0  0  0  0  0  0  0  0
  161.0340  209.1030  151.4880 C   0  0  0  0  0  2  0  0  0  0  0  0
  161.1120  207.9160  152.3470 N   0  0  0  0  0  2  0  0  0  0  0  0
  161.8690  206.8990  148.3630 C   0  0  1  0  0  3  0  0  0  0  0  0
  160.9990  206.9150  147.1160 C   0  0  0  0  0  2  0  0  0  0  0  0
  161.3560  206.3970  150.5660 C   0  0  0  0  0  0  0  0  0  0  0  0
  161.3610  204.6770  147.8380 C   0  0  2  0  0  3  0  0  0  0  0  0
  161.9430  205.3600  145.6020 O   0  0  0  0  0  0  0  0  0  0  0  0
  161.2310  205.4790  144.4080 C   0  0  0  0  0  1  0  0  0  0  0  0
  162.2340  211.0030  149.6870 C   0  0  0  0  0  2  0  0  0  0  0  0
  162.8550  211.7600  148.5300 C   0  0  0  0  0  2  0  0  0  0  0  0
  159.5610  213.8440  147.9360 C   0  0  1  0  0  3  0  0  0  0  0  0
  160.1940  213.5540  146.5540 C   0  0  1  0  0  3  0  0  0  0  0  0
  156.9410  212.2400  146.2350 O   0  0  0  0  0  0  0  0  0  0  0  0
  161.9540  212.9060  148.1090 C   0  0  1  0  0  3  0  0  0  0  0  0
  161.3740  212.6210  146.7470 C   0  0  0  0  0  2  0  0  0  0  0  0
  158.0290  212.7490  146.6130 C   0  0  0  0  0  0  0  0  0  0  0  0
  158.2240  213.2630  147.9110 N   0  0  0  0  0  2  0  0  0  0  0  0
  159.1570  212.8850  145.7750 N   0  0  0  0  0  0  0  0  0  0  0  0
  160.5520  213.0650  149.2460 S   0  0  0  0  0  0  0  0  0  0  0  0
  159.3750  214.2810  143.8470 N   0  0  0  0  0  2  0  0  0  0  0  0
  160.3920  212.6090  142.0220 S   0  0  0  0  0  0  0  0  0  0  0  0
  160.0050  211.9640  143.6690 C   0  0  0  0  0  2  0  0  0  0  0  0
  159.5330  214.1650  142.4070 C   0  0  0  0  0  2  0  0  0  0  0  0
  159.0550  212.9450  144.3200 C   0  0  1  0  0  3  0  0  0  0  0  0
  161.9970  203.3290  147.5120 C   0  0  0  0  0  2  0  0  0  0  0  0
  159.8840  201.1910  145.0700 C   0  0  0  0  0  1  0  0  0  0  0  0
  160.8580  202.1240  145.6100 N   0  0  0  0  0  2  0  0  0  0  0  0
  160.2220  201.7750  147.8300 O   0  0  0  0  0  0  0  0  0  0  0  0
  160.9710  202.3710  147.0110 C   0  0  0  0  0  0  0  0  0  0  0  0
  1  9  1  0  0  0  0
  2  8  1  0  0  0  0
  3  2  1  1  0  0  0
  3 12  1  0  0  0  0
  4 14  1  6  0  0  0
  4 11  1  0  0  0  0
  4 13  1  0  0  0  0
  5  6  1  1  0  0  0
  6 12  1  0  0  0  0
  7 16  1  0  0  0  0
  7  2  2  0  0  0  0
  8  9  1  0  0  0  0
 10 11  1  6  0  0  0
 10  5  1  0  0  0  0
 10  3  1  0  0  0  0
 12  1  2  0  0  0  0
 13 32  1  6  0  0  0
 13  5  1  0  0  0  0
 15 14  1  0  0  0  0
 17 16  1  0  0  0  0
 18 24  1  6  0  0  0
 18 26  1  0  0  0  0
 19 22  1  1  0  0  0
 19 18  1  0  0  0  0
 20 23  2  0  0  0  0
 21 17  1  1  0  0  0
 21 26  1  0  0  0  0
 22 21  1  0  0  0  0
 23 24  1  0  0  0  0
 25 19  1  0  0  0  0
 25 23  1  0  0  0  0
 27 31  1  0  0  0  0
 28 30  1  0  0  0  0
 28 29  1  0  0  0  0
 30 27  1  0  0  0  0
 31 29  1  6  0  0  0
 31 25  1  0  0  0  0
 33 34  1  0  0  0  0
 34 36  1  0  0  0  0
 36 32  1  0  0  0  0
 36 35  2  0  0  0  0
M  END
>  <MODEL>
3

>  <REMARK>
 VINA RESULT:      -7.1      2.706      4.246
  Name = 
  7 active torsions:
  status: ('A' for Active; 'I' for Inactive)
    1  A    between atoms: C_5  and  O_16
    2  A    between atoms: N_10  and  C_23
    3  A    between atoms: C_14  and  C_17
    4  A    between atoms: C_14  and  C_23
    5  A    between atoms: C_27  and  C_34
    6  A    between atoms: C_32  and  C_34
    7  A    between atoms: N_33  and  C_35
                            x       y       z     vdW  Elec       q    Type
                         _______ _______ _______ _____ _____    ______ ____

>  <TORSDO>
F 7

$$$$
=
 OpenBabel11072414333D

 36 41  0  0  1  0  0  0  0  0999 V2000
  162.1430  208.7250  148.6560 N   0  0  0  0  0  0  0  0  0  0  0  0
  161.3820  207.9360  151.2090 C   0  0  0  0  0  0  0  0  0  0  0  0
  161.8380  206.8900  150.2330 C   0  0  1  0  0  3  0  0  0  0  0  0
  161.5330  203.4590  149.5140 C   0  0  2  0  0  3  0  0  0  0  0  0
  160.7420  205.5010  148.5390 N   0  0  2  0  0  0  0  0  0  0  0  0
  161.3640  206.6040  147.9300 N   0  0  0  0  0  2  0  0  0  0  0  0
  160.6050  207.6200  152.1880 N   0  0  0  0  0  0  0  0  0  0  0  0
  162.0410  209.2930  151.1100 C   0  0  0  0  0  2  0  0  0  0  0  0
  162.3290  209.6350  149.7130 N   0  0  0  0  0  2  0  0  0  0  0  0
  160.8610  205.7310  149.9990 C   0  0  1  0  0  3  0  0  0  0  0  0
  161.4200  204.4680  150.6340 C   0  0  0  0  0  2  0  0  0  0  0  0
  161.9180  207.4690  148.8890 C   0  0  0  0  0  0  0  0  0  0  0  0
  161.5560  204.3270  148.2620 C   0  0  2  0  0  3  0  0  0  0  0  0
  160.3980  202.6380  149.5330 O   0  0  0  0  0  0  0  0  0  0  0  0
  160.9000  201.3370  149.5750 C   0  0  0  0  0  1  0  0  0  0  0  0
  160.2090  208.5610  153.2070 C   0  0  0  0  0  2  0  0  0  0  0  0
  161.2520  208.5830  154.3070 C   0  0  0  0  0  2  0  0  0  0  0  0
  160.2070  211.5950  156.6270 C   0  0  1  0  0  3  0  0  0  0  0  0
  160.1100  212.0720  155.1580 C   0  0  1  0  0  3  0  0  0  0  0  0
  156.8790  212.6930  156.4170 O   0  0  0  0  0  0  0  0  0  0  0  0
  161.2890  209.9480  154.9660 C   0  0  1  0  0  3  0  0  0  0  0  0
  160.3540  210.8860  154.2450 C   0  0  0  0  0  2  0  0  0  0  0  0
  158.0740  212.3520  156.2140 C   0  0  0  0  0  0  0  0  0  0  0  0
  158.8790  211.7530  157.2050 N   0  0  0  0  0  2  0  0  0  0  0  0
  158.7440  212.5550  154.9880 N   0  0  0  0  0  0  0  0  0  0  0  0
  160.7010  209.8460  156.6780 S   0  0  0  0  0  0  0  0  0  0  0  0
  159.2670  213.6160  152.9110 N   0  0  0  0  0  2  0  0  0  0  0  0
  156.8490  214.1210  151.8820 S   0  0  0  0  0  0  0  0  0  0  0  0
  156.9530  213.3450  153.5150 C   0  0  0  0  0  2  0  0  0  0  0  0
  158.6370  214.4530  151.9050 C   0  0  0  0  0  2  0  0  0  0  0  0
  158.3510  213.5910  154.0380 C   0  0  1  0  0  3  0  0  0  0  0  0
  161.0650  203.6120  147.0060 C   0  0  0  0  0  2  0  0  0  0  0  0
  161.1980  205.4970  143.6260 C   0  0  0  0  0  1  0  0  0  0  0  0
  160.7180  204.8370  144.8280 N   0  0  0  0  0  2  0  0  0  0  0  0
  162.8580  204.3190  145.6080 O   0  0  0  0  0  0  0  0  0  0  0  0
  161.6110  204.2640  145.7830 C   0  0  0  0  0  0  0  0  0  0  0  0
  1 12  2  0  0  0  0
  1  9  1  0  0  0  0
  2  7  2  0  0  0  0
  3 12  1  6  0  0  0
  3  2  1  0  0  0  0
  4 14  1  6  0  0  0
  4 11  1  0  0  0  0
  5  6  1  6  0  0  0
  5 10  1  0  0  0  0
  6 12  1  0  0  0  0
  7 16  1  0  0  0  0
  8  2  1  0  0  0  0
  9  8  1  0  0  0  0
 10  3  1  0  0  0  0
 10 11  1  1  0  0  0
 13 32  1  6  0  0  0
 13  5  1  0  0  0  0
 13  4  1  0  0  0  0
 14 15  1  0  0  0  0
 16 17  1  0  0  0  0
 18 26  1  6  0  0  0
 18 24  1  0  0  0  0
 19 22  1  6  0  0  0
 19 18  1  0  0  0  0
 21 17  1  6  0  0  0
 21 26  1  0  0  0  0
 22 21  1  0  0  0  0
 23 20  2  0  0  0  0
 23 24  1  0  0  0  0
 25 19  1  0  0  0  0
 25 23  1  0  0  0  0
 27 31  1  0  0  0  0
 28 30  1  0  0  0  0
 28 29  1  0  0  0  0
 30 27  1  0  0  0  0
 31 29  1  6  0  0  0
 31 25  1  0  0  0  0
 33 34  1  0  0  0  0
 34 36  1  0  0  0  0
 35 36  2  0  0  0  0
 36 32  1  0  0  0  0
M  END
>  <MODEL>
4

>  <REMARK>
 VINA RESULT:      -7.0      2.691      3.749
  Name = 
  7 active torsions:
  status: ('A' for Active; 'I' for Inactive)
    1  A    between atoms: C_5  and  O_16
    2  A    between atoms: N_10  and  C_23
    3  A    between atoms: C_14  and  C_17
    4  A    between atoms: C_14  and  C_23
    5  A    between atoms: C_27  and  C_34
    6  A    between atoms: C_32  and  C_34
    7  A    between atoms: N_33  and  C_35
                            x       y       z     vdW  Elec       q    Type
                         _______ _______ _______ _____ _____    ______ ____

>  <TORSDO>
F 7

$$$$
=
 OpenBabel11072414333D

 36 41  0  0  1  0  0  0  0  0999 V2000
  160.9200  202.2680  150.6580 N   0  0  0  0  0  0  0  0  0  0  0  0
  160.9830  204.7460  151.9130 C   0  0  0  0  0  0  0  0  0  0  0  0
  160.6310  204.6810  150.4550 C   0  0  1  0  0  3  0  0  0  0  0  0
  160.6610  206.6130  147.5150 C   0  0  2  0  0  3  0  0  0  0  0  0
  161.8990  204.7430  148.3600 N   0  0  2  0  0  0  0  0  0  0  0  0
  161.5730  203.4160  148.6860 N   0  0  0  0  0  2  0  0  0  0  0  0
  161.4740  205.8250  152.4180 N   0  0  0  0  0  0  0  0  0  0  0  0
  160.5370  203.5850  152.7730 C   0  0  0  0  0  2  0  0  0  0  0  0
  160.6160  202.3220  152.0310 N   0  0  0  0  0  2  0  0  0  0  0  0
  161.4850  205.5560  149.5270 C   0  0  1  0  0  3  0  0  0  0  0  0
  160.6440  206.7180  149.0220 C   0  0  0  0  0  2  0  0  0  0  0  0
  160.9290  203.3430  149.9340 C   0  0  0  0  0  0  0  0  0  0  0  0
  161.0290  205.1560  147.2680 C   0  0  2  0  0  3  0  0  0  0  0  0
  161.6510  207.4700  147.0160 O   0  0  0  0  0  0  0  0  0  0  0  0
  161.8640  208.4010  148.0340 C   0  0  0  0  0  1  0  0  0  0  0  0
  161.7450  205.9780  153.8260 C   0  0  0  0  0  2  0  0  0  0  0  0
  160.7300  206.9250  154.4350 C   0  0  0  0  0  2  0  0  0  0  0  0
  161.3990  210.3860  156.2030 C   0  0  1  0  0  3  0  0  0  0  0  0
  161.0280  210.6710  154.7280 C   0  0  1  0  0  3  0  0  0  0  0  0
  158.6680  212.5680  156.5280 O   0  0  0  0  0  0  0  0  0  0  0  0
  161.3810  208.2600  154.7470 C   0  0  1  0  0  3  0  0  0  0  0  0
  160.6130  209.3680  154.0710 C   0  0  0  0  0  2  0  0  0  0  0  0
  159.5830  211.7980  156.1350 C   0  0  0  0  0  0  0  0  0  0  0  0
  160.4170  211.0840  157.0220 N   0  0  0  0  0  2  0  0  0  0  0  0
  159.8920  211.5850  154.7740 N   0  0  0  0  0  0  0  0  0  0  0  0
  161.3190  208.5990  156.5270 S   0  0  0  0  0  0  0  0  0  0  0  0
  160.3110  212.2530  152.5180 N   0  0  0  0  0  2  0  0  0  0  0  0
  157.9180  213.1380  151.7110 S   0  0  0  0  0  0  0  0  0  0  0  0
  158.0990  212.5580  153.4170 C   0  0  0  0  0  2  0  0  0  0  0  0
  159.7200  213.0800  151.4790 C   0  0  0  0  0  2  0  0  0  0  0  0
  159.5790  212.5600  153.7340 C   0  0  1  0  0  3  0  0  0  0  0  0
  161.6970  204.9070  145.9180 C   0  0  0  0  0  2  0  0  0  0  0  0
  160.1140  201.5160  144.9210 C   0  0  0  0  0  1  0  0  0  0  0  0
  160.8480  202.5480  145.6340 N   0  0  0  0  0  2  0  0  0  0  0  0
  160.3830  204.2100  144.0600 O   0  0  0  0  0  0  0  0  0  0  0  0
  160.9430  203.8840  145.1400 C   0  0  0  0  0  0  0  0  0  0  0  0
  1  9  1  0  0  0  0
  2  7  2  0  0  0  0
  2  8  1  0  0  0  0
  3 12  1  6  0  0  0
  3  2  1  0  0  0  0
  4 14  1  6  0  0  0
  4 11  1  0  0  0  0
  5  6  1  1  0  0  0
  5 10  1  0  0  0  0
  6 12  1  0  0  0  0
  7 16  1  0  0  0  0
  9  8  1  0  0  0  0
 10 11  1  6  0  0  0
 10  3  1  0  0  0  0
 12  1  2  0  0  0  0
 13 32  1  6  0  0  0
 13  4  1  0  0  0  0
 13  5  1  0  0  0  0
 14 15  1  0  0  0  0
 16 17  1  0  0  0  0
 18 26  1  6  0  0  0
 18 24  1  0  0  0  0
 19 22  1  1  0  0  0
 19 25  1  0  0  0  0
 19 18  1  0  0  0  0
 21 17  1  1  0  0  0
 21 26  1  0  0  0  0
 22 21  1  0  0  0  0
 23 20  2  0  0  0  0
 23 24  1  0  0  0  0
 25 23  1  0  0  0  0
 27 31  1  0  0  0  0
 28 29  1  0  0  0  0
 30 28  1  0  0  0  0
 30 27  1  0  0  0  0
 31 29  1  6  0  0  0
 31 25  1  0  0  0  0
 33 34  1  0  0  0  0
 35 36  2  0  0  0  0
 36 34  1  0  0  0  0
 36 32  1  0  0  0  0
M  END
>  <MODEL>
5

>  <REMARK>
 VINA RESULT:      -6.7      3.147      5.151
  Name = 
  7 active torsions:
  status: ('A' for Active; 'I' for Inactive)
    1  A    between atoms: C_5  and  O_16
    2  A    between atoms: N_10  and  C_23
    3  A    between atoms: C_14  and  C_17
    4  A    between atoms: C_14  and  C_23
    5  A    between atoms: C_27  and  C_34
    6  A    between atoms: C_32  and  C_34
    7  A    between atoms: N_33  and  C_35
                            x       y       z     vdW  Elec       q    Type
                         _______ _______ _______ _____ _____    ______ ____

>  <TORSDO>
F 7

$$$$
=
 OpenBabel11072414333D

 36 41  0  0  1  0  0  0  0  0999 V2000
  161.2080  205.0760  153.1370 N   0  0  0  0  0  0  0  0  0  0  0  0
  161.1590  207.7060  152.2460 C   0  0  0  0  0  0  0  0  0  0  0  0
  160.7580  206.6130  151.2990 C   0  0  1  0  0  3  0  0  0  0  0  0
  160.5530  205.8640  147.8670 C   0  0  2  0  0  3  0  0  0  0  0  0
  161.9390  205.1820  149.6990 N   0  0  2  0  0  0  0  0  0  0  0  0
  161.7100  204.4820  150.8950 N   0  0  0  0  0  2  0  0  0  0  0  0
  161.5980  208.8310  151.7950 N   0  0  0  0  0  0  0  0  0  0  0  0
  160.8210  207.5010  153.7050 C   0  0  0  0  0  2  0  0  0  0  0  0
  160.9530  206.0890  154.0800 N   0  0  0  0  0  2  0  0  0  0  0  0
  161.5170  206.5780  149.9660 C   0  0  1  0  0  3  0  0  0  0  0  0
  160.5860  207.0140  148.8460 C   0  0  0  0  0  2  0  0  0  0  0  0
  161.1210  205.3100  151.8650 C   0  0  0  0  0  0  0  0  0  0  0  0
  161.0040  204.6760  148.7050 C   0  0  2  0  0  3  0  0  0  0  0  0
  161.4670  206.1250  146.8380 O   0  0  0  0  0  0  0  0  0  0  0  0
  160.7450  205.9260  145.6600 C   0  0  0  0  0  1  0  0  0  0  0  0
  161.9120  209.9490  152.6510 C   0  0  0  0  0  2  0  0  0  0  0  0
  160.6710  210.3610  153.4170 C   0  0  0  0  0  2  0  0  0  0  0  0
  158.8700  213.8630  153.6260 C   0  0  1  0  0  3  0  0  0  0  0  0
  159.1800  213.5770  152.1370 C   0  0  1  0  0  3  0  0  0  0  0  0
  155.6990  214.1190  152.1420 O   0  0  0  0  0  0  0  0  0  0  0  0
  160.4560  211.8580  153.3000 C   0  0  1  0  0  3  0  0  0  0  0  0
  159.7280  212.1680  152.0170 C   0  0  0  0  0  2  0  0  0  0  0  0
  156.9150  213.9440  152.4150 C   0  0  0  0  0  0  0  0  0  0  0  0
  157.4260  214.0300  153.7260 N   0  0  0  0  0  2  0  0  0  0  0  0
  157.9000  213.6710  151.4410 N   0  0  0  0  0  0  0  0  0  0  0  0
  159.4050  212.4590  154.6500 S   0  0  0  0  0  0  0  0  0  0  0  0
  159.0520  214.3340  149.4550 N   0  0  0  0  0  2  0  0  0  0  0  0
  157.6320  213.1430  147.5250 S   0  0  0  0  0  0  0  0  0  0  0  0
  157.0890  212.9570  149.2420 C   0  0  0  0  0  2  0  0  0  0  0  0
  158.8310  214.4160  148.0210 C   0  0  0  0  0  2  0  0  0  0  0  0
  157.7530  214.0570  150.0410 C   0  0  1  0  0  3  0  0  0  0  0  0
  161.6350  203.5490  147.8920 C   0  0  0  0  0  2  0  0  0  0  0  0
  159.5120  200.9070  149.7660 C   0  0  0  0  0  1  0  0  0  0  0  0
  160.0930  202.1670  149.3330 N   0  0  0  0  0  2  0  0  0  0  0  0
  161.4830  201.1780  147.7360 O   0  0  0  0  0  0  0  0  0  0  0  0
  161.0830  202.2290  148.3060 C   0  0  0  0  0  0  0  0  0  0  0  0
  1  9  1  0  0  0  0
  2  8  1  0  0  0  0
  3 12  1  1  0  0  0
  3  2  1  0  0  0  0
  4 14  1  6  0  0  0
  4 13  1  0  0  0  0
  4 11  1  0  0  0  0
  5 10  1  0  0  0  0
  5  6  1  1  0  0  0
  6 12  1  0  0  0  0
  7  2  2  0  0  0  0
  7 16  1  0  0  0  0
  8  9  1  0  0  0  0
 10 11  1  6  0  0  0
 10  3  1  0  0  0  0
 12  1  2  0  0  0  0
 13 32  1  6  0  0  0
 13  5  1  0  0  0  0
 15 14  1  0  0  0  0
 16 17  1  0  0  0  0
 18 24  1  6  0  0  0
 18 26  1  0  0  0  0
 19 22  1  1  0  0  0
 19 18  1  0  0  0  0
 20 23  2  0  0  0  0
 21 17  1  1  0  0  0
 21 26  1  0  0  0  0
 22 21  1  0  0  0  0
 23 24  1  0  0  0  0
 25 19  1  0  0  0  0
 25 23  1  0  0  0  0
 27 31  1  0  0  0  0
 28 30  1  0  0  0  0
 28 29  1  0  0  0  0
 30 27  1  0  0  0  0
 31 29  1  6  0  0  0
 31 25  1  0  0  0  0
 32 36  1  0  0  0  0
 34 33  1  0  0  0  0
 35 36  2  0  0  0  0
 36 34  1  0  0  0  0
M  END
>  <MODEL>
6

>  <REMARK>
 VINA RESULT:      -6.7      2.081      3.309
  Name = 
  7 active torsions:
  status: ('A' for Active; 'I' for Inactive)
    1  A    between atoms: C_5  and  O_16
    2  A    between atoms: N_10  and  C_23
    3  A    between atoms: C_14  and  C_17
    4  A    between atoms: C_14  and  C_23
    5  A    between atoms: C_27  and  C_34
    6  A    between atoms: C_32  and  C_34
    7  A    between atoms: N_33  and  C_35
                            x       y       z     vdW  Elec       q    Type
                         _______ _______ _______ _____ _____    ______ ____

>  <TORSDO>
F 7

$$$$
=
 OpenBabel11072414333D

 36 41  0  0  1  0  0  0  0  0999 V2000
  159.8980  209.5890  157.0960 N   0  0  0  0  0  0  0  0  0  0  0  0
  161.1240  208.5640  154.8230 C   0  0  0  0  0  0  0  0  0  0  0  0
  160.6820  209.9990  154.8240 C   0  0  1  0  0  3  0  0  0  0  0  0
  159.7290  212.6000  152.6540 C   0  0  2  0  0  3  0  0  0  0  0  0
  158.6190  211.1810  154.2340 N   0  0  2  0  0  0  0  0  0  0  0  0
  158.6960  211.0120  155.6260 N   0  0  0  0  0  2  0  0  0  0  0  0
  161.2520  207.9220  153.7130 N   0  0  0  0  0  0  0  0  0  0  0  0
  161.6050  208.0000  156.1400 C   0  0  0  0  0  2  0  0  0  0  0  0
  160.8390  208.5550  157.2610 N   0  0  0  0  0  2  0  0  0  0  0  0
  159.7520  210.4080  153.6730 C   0  0  1  0  0  3  0  0  0  0  0  0
  160.5110  211.3090  152.7120 C   0  0  0  0  0  2  0  0  0  0  0  0
  159.8220  210.2520  155.9840 C   0  0  0  0  0  0  0  0  0  0  0  0
  158.9150  212.5750  153.9400 C   0  0  2  0  0  3  0  0  0  0  0  0
  158.8920  212.5680  151.5310 O   0  0  0  0  0  0  0  0  0  0  0  0
  159.4460  213.4930  150.6450 C   0  0  0  0  0  1  0  0  0  0  0  0
  161.7590  206.5740  153.6430 C   0  0  0  0  0  2  0  0  0  0  0  0
  162.2770  206.3020  152.2450 C   0  0  0  0  0  2  0  0  0  0  0  0
  160.0800  203.7070  150.2480 C   0  0  1  0  0  3  0  0  0  0  0  0
  160.6850  204.7000  149.2280 C   0  0  1  0  0  3  0  0  0  0  0  0
  161.7580  201.5650  148.0300 O   0  0  0  0  0  0  0  0  0  0  0  0
  161.1640  205.7580  151.3700 C   0  0  1  0  0  3  0  0  0  0  0  0
  161.6590  205.6080  149.9530 C   0  0  0  0  0  2  0  0  0  0  0  0
  161.2790  202.5370  148.6710 C   0  0  0  0  0  0  0  0  0  0  0  0
  160.5400  202.3800  149.8610 N   0  0  0  0  0  2  0  0  0  0  0  0
  161.4040  203.8810  148.2570 N   0  0  0  0  0  0  0  0  0  0  0  0
  160.6680  204.1040  151.9220 S   0  0  0  0  0  0  0  0  0  0  0  0
  160.8030  203.4390  145.9860 N   0  0  0  0  0  2  0  0  0  0  0  0
  160.8090  205.8800  144.8890 S   0  0  0  0  0  0  0  0  0  0  0  0
  161.2640  205.7110  146.6340 C   0  0  0  0  0  2  0  0  0  0  0  0
  160.8610  204.0740  144.6800 C   0  0  0  0  0  2  0  0  0  0  0  0
  161.6200  204.2580  146.8630 C   0  0  1  0  0  3  0  0  0  0  0  0
  157.6310  213.4000  153.8760 C   0  0  0  0  0  2  0  0  0  0  0  0
  155.3190  213.3540  156.9820 C   0  0  0  0  0  1  0  0  0  0  0  0
  155.8620  213.1270  155.6530 N   0  0  0  0  0  2  0  0  0  0  0  0
  157.7960  214.3800  156.0390 O   0  0  0  0  0  0  0  0  0  0  0  0
  157.1150  213.6760  155.2450 C   0  0  0  0  0  0  0  0  0  0  0  0
  1  9  1  0  0  0  0
  2  8  1  0  0  0  0
  3  2  1  6  0  0  0
  3 12  1  0  0  0  0
  4 14  1  6  0  0  0
  4 11  1  0  0  0  0
  4 13  1  0  0  0  0
  5  6  1  1  0  0  0
  6 12  1  0  0  0  0
  7  2  2  0  0  0  0
  8  9  1  0  0  0  0
 10 11  1  6  0  0  0
 10  5  1  0  0  0  0
 10  3  1  0  0  0  0
 12  1  2  0  0  0  0
 13 32  1  6  0  0  0
 13  5  1  0  0  0  0
 15 14  1  0  0  0  0
 16  7  1  0  0  0  0
 17 16  1  0  0  0  0
 18 24  1  6  0  0  0
 18 26  1  0  0  0  0
 19 22  1  1  0  0  0
 19 18  1  0  0  0  0
 20 23  2  0  0  0  0
 21 26  1  0  0  0  0
 21 17  1  1  0  0  0
 22 21  1  0  0  0  0
 23 24  1  0  0  0  0
 25 23  1  0  0  0  0
 25 19  1  0  0  0  0
 27 31  1  0  0  0  0
 28 29  1  0  0  0  0
 30 28  1  0  0  0  0
 30 27  1  0  0  0  0
 31 29  1  1  0  0  0
 31 25  1  0  0  0  0
 32 36  1  0  0  0  0
 34 33  1  0  0  0  0
 36 34  1  0  0  0  0
 36 35  2  0  0  0  0
M  END
>  <MODEL>
7

>  <REMARK>
 VINA RESULT:      -6.4      3.459      9.546
  Name = 
  7 active torsions:
  status: ('A' for Active; 'I' for Inactive)
    1  A    between atoms: C_5  and  O_16
    2  A    between atoms: N_10  and  C_23
    3  A    between atoms: C_14  and  C_17
    4  A    between atoms: C_14  and  C_23
    5  A    between atoms: C_27  and  C_34
    6  A    between atoms: C_32  and  C_34
    7  A    between atoms: N_33  and  C_35
                            x       y       z     vdW  Elec       q    Type
                         _______ _______ _______ _____ _____    ______ ____

>  <TORSDO>
F 7

$$$$
=
 OpenBabel11072414333D

 36 41  0  0  1  0  0  0  0  0999 V2000
  161.9250  210.1300  151.1100 N   0  0  0  0  0  0  0  0  0  0  0  0
  161.5410  207.4860  151.8690 C   0  0  0  0  0  0  0  0  0  0  0  0
  160.9160  208.5740  152.6930 C   0  0  1  0  0  3  0  0  0  0  0  0
  159.7510  209.2600  155.9420 C   0  0  2  0  0  3  0  0  0  0  0  0
  161.6270  209.9270  154.6080 N   0  0  2  0  0  0  0  0  0  0  0  0
  161.7750  210.6590  153.4180 N   0  0  0  0  0  2  0  0  0  0  0  0
  161.7980  206.3360  152.3940 N   0  0  0  0  0  0  0  0  0  0  0  0
  161.6470  207.7330  150.3820 C   0  0  0  0  0  2  0  0  0  0  0  0
  161.9230  209.1460  150.1030 N   0  0  0  0  0  2  0  0  0  0  0  0
  161.2590  208.5540  154.1890 C   0  0  1  0  0  3  0  0  0  0  0  0
  160.0310  208.1300  154.9790 C   0  0  0  0  0  2  0  0  0  0  0  0
  161.4670  209.8730  152.2950 C   0  0  0  0  0  0  0  0  0  0  0  0
  160.4600  210.4480  155.3050 C   0  0  2  0  0  3  0  0  0  0  0  0
  160.3190  208.9440  157.1820 O   0  0  0  0  0  0  0  0  0  0  0  0
  160.4530  207.5550  157.1720 C   0  0  0  0  0  1  0  0  0  0  0  0
  162.3120  205.2250  151.6310 C   0  0  0  0  0  2  0  0  0  0  0  0
  161.5740  203.9600  152.0230 C   0  0  0  0  0  2  0  0  0  0  0  0
  159.8560  201.7450  149.2500 C   0  0  1  0  0  3  0  0  0  0  0  0
  160.4540  202.9920  148.5570 C   0  0  1  0  0  3  0  0  0  0  0  0
  161.9510  200.3170  146.8220 O   0  0  0  0  0  0  0  0  0  0  0  0
  160.6120  203.5530  150.9230 C   0  0  1  0  0  3  0  0  0  0  0  0
  161.2550  203.7780  149.5780 C   0  0  0  0  0  2  0  0  0  0  0  0
  161.3150  201.0720  147.6030 C   0  0  0  0  0  0  0  0  0  0  0  0
  160.4840  200.5840  148.6320 N   0  0  0  0  0  2  0  0  0  0  0  0
  161.3420  202.4810  147.5190 N   0  0  0  0  0  0  0  0  0  0  0  0
  160.2360  201.7830  151.0280 S   0  0  0  0  0  0  0  0  0  0  0  0
  160.4450  203.4030  145.5050 N   0  0  0  0  0  2  0  0  0  0  0  0
  161.9200  205.6090  145.1580 S   0  0  0  0  0  0  0  0  0  0  0  0
  162.2830  204.5350  146.5700 C   0  0  0  0  0  2  0  0  0  0  0  0
  160.8030  204.3520  144.4650 C   0  0  0  0  0  2  0  0  0  0  0  0
  161.6530  203.1900  146.2810 C   0  0  1  0  0  3  0  0  0  0  0  0
  160.8630  211.5330  156.2990 C   0  0  0  0  0  2  0  0  0  0  0  0
  158.3880  214.0640  154.7290 C   0  0  0  0  0  1  0  0  0  0  0  0
  159.2490  212.9120  154.9360 N   0  0  0  0  0  2  0  0  0  0  0  0
  159.9450  213.5950  157.0590 O   0  0  0  0  0  0  0  0  0  0  0  0
  160.0060  212.7410  156.1340 C   0  0  0  0  0  0  0  0  0  0  0  0
  1 12  2  0  0  0  0
  2  7  2  0  0  0  0
  3  2  1  6  0  0  0
  3 10  1  0  0  0  0
  4 14  1  1  0  0  0
  5  6  1  6  0  0  0
  5 13  1  0  0  0  0
  8  2  1  0  0  0  0
  9  8  1  0  0  0  0
  9  1  1  0  0  0  0
 10  5  1  0  0  0  0
 10 11  1  1  0  0  0
 11  4  1  0  0  0  0
 12  3  1  0  0  0  0
 12  6  1  0  0  0  0
 13  4  1  0  0  0  0
 13 32  1  1  0  0  0
 15 14  1  0  0  0  0
 16 17  1  0  0  0  0
 16  7  1  0  0  0  0
 18 24  1  6  0  0  0
 18 26  1  0  0  0  0
 19 18  1  0  0  0  0
 19 22  1  1  0  0  0
 20 23  2  0  0  0  0
 21 26  1  0  0  0  0
 21 17  1  1  0  0  0
 22 21  1  0  0  0  0
 23 24  1  0  0  0  0
 25 23  1  0  0  0  0
 25 19  1  0  0  0  0
 27 31  1  0  0  0  0
 28 29  1  0  0  0  0
 30 28  1  0  0  0  0
 30 27  1  0  0  0  0
 31 29  1  1  0  0  0
 31 25  1  0  0  0  0
 33 34  1  0  0  0  0
 34 36  1  0  0  0  0
 36 32  1  0  0  0  0
 36 35  2  0  0  0  0
M  END
>  <MODEL>
8

>  <REMARK>
 VINA RESULT:      -6.2      4.056      9.364
  Name = 
  7 active torsions:
  status: ('A' for Active; 'I' for Inactive)
    1  A    between atoms: C_5  and  O_16
    2  A    between atoms: N_10  and  C_23
    3  A    between atoms: C_14  and  C_17
    4  A    between atoms: C_14  and  C_23
    5  A    between atoms: C_27  and  C_34
    6  A    between atoms: C_32  and  C_34
    7  A    between atoms: N_33  and  C_35
                            x       y       z     vdW  Elec       q    Type
                         _______ _______ _______ _____ _____    ______ ____

>  <TORSDO>
F 7

$$$$
=
 OpenBabel11072414333D

 36 41  0  0  1  0  0  0  0  0999 V2000
  160.7830  207.2970  155.8410 N   0  0  0  0  0  0  0  0  0  0  0  0
  160.4420  209.4810  154.1570 C   0  0  0  0  0  0  0  0  0  0  0  0
  160.3730  208.0980  153.5750 C   0  0  1  0  0  3  0  0  0  0  0  0
  160.8160  206.3440  150.5570 C   0  0  2  0  0  3  0  0  0  0  0  0
  162.0000  206.5280  152.6330 N   0  0  2  0  0  0  0  0  0  0  0  0
  161.7100  206.1820  153.9630 N   0  0  0  0  0  2  0  0  0  0  0  0
  160.7570  210.4860  153.4150 N   0  0  0  0  0  0  0  0  0  0  0  0
  159.9250  209.6520  155.5670 C   0  0  0  0  0  2  0  0  0  0  0  0
  160.2260  208.4710  156.3840 N   0  0  0  0  0  2  0  0  0  0  0  0
  161.3220  207.8250  152.4000 C   0  0  1  0  0  3  0  0  0  0  0  0
  160.5120  207.7140  151.1180 C   0  0  0  0  0  2  0  0  0  0  0  0
  160.8530  207.1230  154.5590 C   0  0  0  0  0  0  0  0  0  0  0  0
  161.3210  205.5730  151.7700 C   0  0  2  0  0  3  0  0  0  0  0  0
  161.8200  206.4680  149.5890 O   0  0  0  0  0  0  0  0  0  0  0  0
  161.1680  206.9610  148.4580 C   0  0  0  0  0  1  0  0  0  0  0  0
  160.7510  211.8460  153.8950 C   0  0  0  0  0  2  0  0  0  0  0  0
  159.3350  212.3860  153.8620 C   0  0  0  0  0  2  0  0  0  0  0  0
  158.0330  214.4520  150.7660 C   0  0  1  0  0  3  0  0  0  0  0  0
  159.5040  214.0590  150.4890 C   0  0  1  0  0  3  0  0  0  0  0  0
  157.7880  212.7550  147.7030 O   0  0  0  0  0  0  0  0  0  0  0  0
  159.2250  213.5070  152.8460 C   0  0  1  0  0  3  0  0  0  0  0  0
  159.9740  213.1310  151.5930 C   0  0  0  0  0  2  0  0  0  0  0  0
  158.1470  213.2800  148.7890 C   0  0  0  0  0  0  0  0  0  0  0  0
  157.2390  213.8830  149.6850 N   0  0  0  0  0  2  0  0  0  0  0  0
  159.4910  213.3460  149.2160 N   0  0  0  0  0  0  0  0  0  0  0  0
  157.4970  213.7600  152.3600 S   0  0  0  0  0  0  0  0  0  0  0  0
  161.4830  214.4500  148.4910 N   0  0  0  0  0  2  0  0  0  0  0  0
  163.1150  212.4070  147.9230 S   0  0  0  0  0  0  0  0  0  0  0  0
  161.4300  212.0430  148.4790 C   0  0  0  0  0  2  0  0  0  0  0  0
  162.6970  214.1680  147.7450 C   0  0  0  0  0  2  0  0  0  0  0  0
  160.6150  213.3030  148.2860 C   0  0  1  0  0  3  0  0  0  0  0  0
  162.2430  204.4080  151.4200 C   0  0  0  0  0  2  0  0  0  0  0  0
  160.1200  201.9530  149.3080 C   0  0  0  0  0  1  0  0  0  0  0  0
  160.8910  203.1090  149.7320 N   0  0  0  0  0  2  0  0  0  0  0  0
  161.2910  202.2740  151.8770 O   0  0  0  0  0  0  0  0  0  0  0  0
  161.4500  203.2050  151.0420 C   0  0  0  0  0  0  0  0  0  0  0  0
  1  9  1  0  0  0  0
  2  8  1  0  0  0  0
  3  2  1  1  0  0  0
  3 12  1  0  0  0  0
  4 14  1  6  0  0  0
  4 11  1  0  0  0  0
  4 13  1  0  0  0  0
  5  6  1  1  0  0  0
  6 12  1  0  0  0  0
  7 16  1  0  0  0  0
  7  2  2  0  0  0  0
  8  9  1  0  0  0  0
 10 11  1  6  0  0  0
 10  5  1  0  0  0  0
 10  3  1  0  0  0  0
 12  1  2  0  0  0  0
 13 32  1  6  0  0  0
 13  5  1  0  0  0  0
 15 14  1  0  0  0  0
 17 16  1  0  0  0  0
 18 24  1  6  0  0  0
 18 26  1  0  0  0  0
 19 18  1  0  0  0  0
 19 22  1  1  0  0  0
 20 23  2  0  0  0  0
 21 17  1  1  0  0  0
 22 21  1  0  0  0  0
 23 25  1  0  0  0  0
 23 24  1  0  0  0  0
 25 19  1  0  0  0  0
 26 21  1  0  0  0  0
 28 29  1  0  0  0  0
 30 28  1  0  0  0  0
 30 27  1  0  0  0  0
 31 29  1  1  0  0  0
 31 27  1  0  0  0  0
 31 25  1  0  0  0  0
 33 34  1  0  0  0  0
 34 36  1  0  0  0  0
 36 32  1  0  0  0  0
 36 35  2  0  0  0  0
M  END
>  <MODEL>
9

>  <REMARK>
 VINA RESULT:      -6.2      2.269      3.395
  Name = 
  7 active torsions:
  status: ('A' for Active; 'I' for Inactive)
    1  A    between atoms: C_5  and  O_16
    2  A    between atoms: N_10  and  C_23
    3  A    between atoms: C_14  and  C_17
    4  A    between atoms: C_14  and  C_23
    5  A    between atoms: C_27  and  C_34
    6  A    between atoms: C_32  and  C_34
    7  A    between atoms: N_33  and  C_35
                            x       y       z     vdW  Elec       q    Type
                         _______ _______ _______ _____ _____    ______ ____

>  <TORSDO>
F 7

$$$$
