=
 OpenBabel11072411023D

 30 34  0  0  1  0  0  0  0  0999 V2000
  162.0650  208.9240  148.7960 C   0  0  0  0  0  2  0  0  0  0  0  0
  161.6440  206.4490  148.8930 C   0  0  0  0  0  0  0  0  0  0  0  0
  161.4060  205.4930  149.8880 C   0  0  0  0  0  0  0  0  0  0  0  0
  160.4430  201.0830  148.9350 C   0  0  0  0  0  2  0  0  0  0  0  0
  161.3360  205.4770  152.3220 C   0  0  0  0  0  0  0  0  0  0  0  0
  160.9110  202.2130  148.0850 C   0  0  0  0  0  3  0  0  0  0  0  0
  161.9230  207.6360  149.4770 N   0  0  0  0  0  0  0  0  0  0  0  0
  160.3730  202.0280  151.1620 C   0  0  0  0  0  2  0  0  0  0  0  0
  162.6080  209.9900  149.7480 C   0  0  0  0  0  2  0  0  0  0  0  0
  161.1510  203.4700  148.4690 C   0  0  0  0  0  3  0  0  0  0  0  0
  161.0930  204.1170  149.8060 C   0  0  0  0  0  0  0  0  0  0  0  0
  161.8280  207.4750  150.8140 C   0  0  0  0  0  0  0  0  0  0  0  0
  161.5400  206.1470  151.1040 C   0  0  0  0  0  0  0  0  0  0  0  0
  160.8450  203.4410  151.0390 C   0  0  0  0  0  0  0  0  0  0  0  0
  161.8540  209.9700  151.0810 C   0  0  2  0  0  3  0  0  0  0  0  0
  160.9610  204.1300  152.2570 C   0  0  0  0  0  3  0  0  0  0  0  0
  162.0100  208.6130  151.7750 C   0  0  0  0  0  2  0  0  0  0  0  0
  161.1330  201.0740  150.2750 C   0  0  0  0  0  2  0  0  0  0  0  0
  161.5020  206.2860  147.4360 C   0  0  0  0  0  0  0  0  0  0  0  0
  162.6900  205.9740  146.6140 C   0  0  0  0  0  3  0  0  0  0  0  0
  162.5460  205.5980  145.3390 C   0  0  0  0  0  3  0  0  0  0  0  0
  161.1720  205.4050  144.7560 C   0  0  0  0  0  2  0  0  0  0  0  0
  160.3140  206.4740  146.8440 C   0  0  0  0  0  3  0  0  0  0  0  0
  160.1900  206.4230  145.3440 C   0  0  0  0  0  2  0  0  0  0  0  0
  160.0870  210.8720  152.0640 C   0  0  0  0  0  1  0  0  0  0  0  0
  160.5000  210.2580  150.8810 O   0  0  0  0  0  0  0  0  0  0  0  0
  162.6880  206.3070  154.0750 O   0  0  0  0  0  0  0  0  0  0  0  0
  161.5200  206.0920  153.6470 C   0  0  0  0  0  0  0  0  0  0  0  0
  160.4550  207.6700  155.2070 C   0  0  0  0  0  1  0  0  0  0  0  0
  160.4130  206.5130  154.3860 O   0  0  0  0  0  0  0  0  0  0  0  0
  1  7  1  0  0  0  0
  1  9  1  0  0  0  0
  2  7  1  0  0  0  0
  2  3  2  0  0  0  0
  3 13  1  0  0  0  0
  4 18  1  0  0  0  0
  5 28  1  0  0  0  0
  6 10  2  0  0  0  0
  6  4  1  0  0  0  0
  7 12  1  0  0  0  0
  9 15  1  0  0  0  0
 10 11  1  0  0  0  0
 11  3  1  0  0  0  0
 11 14  2  0  0  0  0
 12 13  2  0  0  0  0
 12 17  1  0  0  0  0
 13  5  1  0  0  0  0
 14  8  1  0  0  0  0
 14 16  1  0  0  0  0
 15 26  1  6  0  0  0
 15 17  1  0  0  0  0
 16  5  2  0  0  0  0
 18  8  1  0  0  0  0
 19  2  1  0  0  0  0
 20 19  1  0  0  0  0
 21 20  2  0  0  0  0
 22 21  1  0  0  0  0
 22 24  1  0  0  0  0
 23 19  2  0  0  0  0
 24 23  1  0  0  0  0
 26 25  1  0  0  0  0
 28 27  2  0  0  0  0
 28 30  1  0  0  0  0
 30 29  1  0  0  0  0
M  END
>  <MODEL>
1

>  <REMARK>
 VINA RESULT:      -8.3      0.000      0.000
  Name = 
  4 active torsions:
  status: ('A' for Active; 'I' for Inactive)
    1  A    between atoms: C_4  and  C_5
    2  A    between atoms: C_11  and  C_21
    3  A    between atoms: O_20  and  C_21
    4  A    between atoms: C_23  and  O_30
                            x       y       z     vdW  Elec       q    Type
                         _______ _______ _______ _____ _____    ______ ____

>  <TORSDO>
F 4

$$$$
=
 OpenBabel11072411023D

 30 34  0  0  1  0  0  0  0  0999 V2000
  162.1280  209.5320  148.2630 C   0  0  0  0  0  2  0  0  0  0  0  0
  161.7030  207.1560  148.9620 C   0  0  0  0  0  0  0  0  0  0  0  0
  161.4450  206.4750  150.1570 C   0  0  0  0  0  0  0  0  0  0  0  0
  160.4970  201.9620  150.3070 C   0  0  0  0  0  2  0  0  0  0  0  0
  161.3280  207.0610  152.5180 C   0  0  0  0  0  0  0  0  0  0  0  0
  160.9830  202.8490  149.2120 C   0  0  0  0  0  3  0  0  0  0  0  0
  161.9720  208.4520  149.2380 N   0  0  0  0  0  0  0  0  0  0  0  0
  160.3840  203.4280  152.2290 C   0  0  0  0  0  2  0  0  0  0  0  0
  162.6540  210.8030  148.9330 C   0  0  0  0  0  2  0  0  0  0  0  0
  161.2160  204.1630  149.2780 C   0  0  0  0  0  3  0  0  0  0  0  0
  161.1330  205.1200  150.4120 C   0  0  0  0  0  0  0  0  0  0  0  0
  161.8510  208.6260  150.5720 C   0  0  0  0  0  0  0  0  0  0  0  0
  161.5560  207.4100  151.1760 C   0  0  0  0  0  0  0  0  0  0  0  0
  160.8600  204.7690  151.7690 C   0  0  0  0  0  0  0  0  0  0  0  0
  161.8740  211.1100  150.2150 C   0  0  2  0  0  3  0  0  0  0  0  0
  160.9530  205.7380  152.7810 C   0  0  0  0  0  3  0  0  0  0  0  0
  162.0150  209.9670  151.2250 C   0  0  0  0  0  2  0  0  0  0  0  0
  161.1610  202.2880  151.6200 C   0  0  0  0  0  2  0  0  0  0  0  0
  161.5890  206.6370  147.5880 C   0  0  0  0  0  0  0  0  0  0  0  0
  162.7810  206.0800  146.9130 C   0  0  0  0  0  3  0  0  0  0  0  0
  162.6500  205.4010  145.7690 C   0  0  0  0  0  3  0  0  0  0  0  0
  161.2830  205.1240  145.2030 C   0  0  0  0  0  2  0  0  0  0  0  0
  160.4270  206.7180  146.9250 C   0  0  0  0  0  3  0  0  0  0  0  0
  160.3380  206.2960  145.4820 C   0  0  0  0  0  2  0  0  0  0  0  0
  160.4390  212.7020  149.6590 C   0  0  0  0  0  1  0  0  0  0  0  0
  160.5250  211.3340  149.9230 O   0  0  0  0  0  0  0  0  0  0  0  0
  161.1370  209.1910  153.5260 O   0  0  0  0  0  0  0  0  0  0  0  0
  161.4870  207.9860  153.6530 C   0  0  0  0  0  0  0  0  0  0  0  0
  161.5640  208.1260  156.1090 C   0  0  0  0  0  1  0  0  0  0  0  0
  161.9410  207.5120  154.8850 O   0  0  0  0  0  0  0  0  0  0  0  0
  1  9  1  0  0  0  0
  1  7  1  0  0  0  0
  2  7  1  0  0  0  0
  2  3  2  0  0  0  0
  3 11  1  0  0  0  0
  3 13  1  0  0  0  0
  4 18  1  0  0  0  0
  5 16  2  0  0  0  0
  5 28  1  0  0  0  0
  6 10  2  0  0  0  0
  6  4  1  0  0  0  0
  7 12  1  0  0  0  0
  9 15  1  0  0  0  0
 10 11  1  0  0  0  0
 11 14  2  0  0  0  0
 12 13  2  0  0  0  0
 12 17  1  0  0  0  0
 13  5  1  0  0  0  0
 14  8  1  0  0  0  0
 14 16  1  0  0  0  0
 15 26  1  6  0  0  0
 15 17  1  0  0  0  0
 18  8  1  0  0  0  0
 19  2  1  0  0  0  0
 20 19  1  0  0  0  0
 21 20  2  0  0  0  0
 22 24  1  0  0  0  0
 22 21  1  0  0  0  0
 23 19  2  0  0  0  0
 24 23  1  0  0  0  0
 25 26  1  0  0  0  0
 27 28  2  0  0  0  0
 28 30  1  0  0  0  0
 30 29  1  0  0  0  0
M  END
>  <MODEL>
2

>  <REMARK>
 VINA RESULT:      -6.9      1.220      1.473
  Name = 
  4 active torsions:
  status: ('A' for Active; 'I' for Inactive)
    1  A    between atoms: C_4  and  C_5
    2  A    between atoms: C_11  and  C_21
    3  A    between atoms: O_20  and  C_21
    4  A    between atoms: C_23  and  O_30
                            x       y       z     vdW  Elec       q    Type
                         _______ _______ _______ _____ _____    ______ ____

>  <TORSDO>
F 4

$$$$
=
 OpenBabel11072411023D

 30 34  0  0  1  0  0  0  0  0999 V2000
  160.5940  203.1020  148.6780 C   0  0  0  0  0  2  0  0  0  0  0  0
  161.0540  205.5710  148.7660 C   0  0  0  0  0  0  0  0  0  0  0  0
  161.2710  206.5330  149.7590 C   0  0  0  0  0  0  0  0  0  0  0  0
  162.3450  210.9160  148.7980 C   0  0  0  0  0  2  0  0  0  0  0  0
  161.2510  206.5740  152.1930 C   0  0  0  0  0  0  0  0  0  0  0  0
  161.8890  209.7840  147.9430 C   0  0  0  0  0  3  0  0  0  0  0  0
  160.7320  204.3940  149.3500 N   0  0  0  0  0  0  0  0  0  0  0  0
  162.3160  209.9940  151.0360 C   0  0  0  0  0  2  0  0  0  0  0  0
  159.9970  202.0560  149.6200 C   0  0  0  0  0  2  0  0  0  0  0  0
  161.6130  208.5360  148.3300 C   0  0  0  0  0  3  0  0  0  0  0  0
  161.6100  207.9020  149.6750 C   0  0  0  0  0  0  0  0  0  0  0  0
  160.7810  204.5690  150.6890 C   0  0  0  0  0  0  0  0  0  0  0  0
  161.0810  205.8940  150.9760 C   0  0  0  0  0  0  0  0  0  0  0  0
  161.8240  208.5880  150.9090 C   0  0  0  0  0  0  0  0  0  0  0  0
  160.7010  202.0770  150.9800 C   0  0  2  0  0  3  0  0  0  0  0  0
  161.6510  207.9140  152.1300 C   0  0  0  0  0  3  0  0  0  0  0  0
  160.5430  203.4440  151.6540 C   0  0  0  0  0  2  0  0  0  0  0  0
  161.6060  210.9500  150.1110 C   0  0  0  0  0  2  0  0  0  0  0  0
  161.2520  205.7160  147.3140 C   0  0  0  0  0  0  0  0  0  0  0  0
  162.5840  205.4590  146.7260 C   0  0  0  0  0  3  0  0  0  0  0  0
  162.7280  205.3600  145.4000 C   0  0  0  0  0  3  0  0  0  0  0  0
  161.5230  205.4240  144.5010 C   0  0  0  0  0  2  0  0  0  0  0  0
  160.2490  206.1340  146.5290 C   0  0  0  0  0  3  0  0  0  0  0  0
  160.4810  206.3950  145.0640 C   0  0  0  0  0  2  0  0  0  0  0  0
  162.5730  201.8010  152.1290 C   0  0  0  0  0  1  0  0  0  0  0  0
  162.0560  201.7640  150.8330 O   0  0  0  0  0  0  0  0  0  0  0  0
  161.5170  204.8570  153.7960 O   0  0  0  0  0  0  0  0  0  0  0  0
  161.0070  205.9760  153.5170 C   0  0  0  0  0  0  0  0  0  0  0  0
  160.9360  207.4440  155.4910 C   0  0  0  0  0  1  0  0  0  0  0  0
  160.2890  206.6820  154.4840 O   0  0  0  0  0  0  0  0  0  0  0  0
  1  7  1  0  0  0  0
  1  9  1  0  0  0  0
  2  7  1  0  0  0  0
  2  3  2  0  0  0  0
  3 13  1  0  0  0  0
  4 18  1  0  0  0  0
  5 28  1  0  0  0  0
  6 10  2  0  0  0  0
  6  4  1  0  0  0  0
  7 12  1  0  0  0  0
  9 15  1  0  0  0  0
 10 11  1  0  0  0  0
 11  3  1  0  0  0  0
 11 14  2  0  0  0  0
 12 13  2  0  0  0  0
 12 17  1  0  0  0  0
 13  5  1  0  0  0  0
 14  8  1  0  0  0  0
 14 16  1  0  0  0  0
 15 26  1  6  0  0  0
 15 17  1  0  0  0  0
 16  5  2  0  0  0  0
 18  8  1  0  0  0  0
 19  2  1  0  0  0  0
 20 19  1  0  0  0  0
 21 20  2  0  0  0  0
 22 24  1  0  0  0  0
 22 21  1  0  0  0  0
 23 19  2  0  0  0  0
 24 23  1  0  0  0  0
 26 25  1  0  0  0  0
 28 27  2  0  0  0  0
 28 30  1  0  0  0  0
 30 29  1  0  0  0  0
M  END
>  <MODEL>
3

>  <REMARK>
 VINA RESULT:      -6.1      1.543      5.160
  Name = 
  4 active torsions:
  status: ('A' for Active; 'I' for Inactive)
    1  A    between atoms: C_4  and  C_5
    2  A    between atoms: C_11  and  C_21
    3  A    between atoms: O_20  and  C_21
    4  A    between atoms: C_23  and  O_30
                            x       y       z     vdW  Elec       q    Type
                         _______ _______ _______ _____ _____    ______ ____

>  <TORSDO>
F 4

$$$$
