=
 OpenBabel11072411163D

 28 31  0  0  1  0  0  0  0  0999 V2000
  161.8340  207.4070  152.1840 C   0  0  0  0  0  0  0  0  0  0  0  0
  161.4310  208.6470  152.6860 C   0  0  0  0  0  3  0  0  0  0  0  0
  160.9470  206.3240  154.1550 C   0  0  0  0  0  3  0  0  0  0  0  0
  160.5420  207.5650  154.6730 C   0  0  0  0  0  0  0  0  0  0  0  0
  161.5880  206.2450  152.9180 C   0  0  0  0  0  3  0  0  0  0  0  0
  160.7920  208.7390  153.9280 C   0  0  0  0  0  0  0  0  0  0  0  0
  160.5530  207.3990  157.1450 C   0  0  0  0  0  1  0  0  0  0  0  0
  159.8940  207.6490  155.9120 O   0  0  0  0  0  0  0  0  0  0  0  0
  160.3740  210.1060  154.4020 C   0  0  1  0  0  3  0  0  0  0  0  0
  161.5210  211.1210  156.4270 C   0  0  0  0  0  2  0  0  0  0  0  0
  162.3860  210.2510  155.7460 O   0  0  0  0  0  0  0  0  0  0  0  0
  161.5020  211.0060  154.9460 C   0  0  1  0  0  3  0  0  0  0  0  0
  159.3610  210.7940  153.4840 C   0  0  0  0  0  2  0  0  0  0  0  0
  159.9000  212.5720  151.8140 C   0  0  0  0  0  1  0  0  0  0  0  0
  159.7120  212.2590  153.2860 C   0  0  0  0  0  2  0  0  0  0  0  0
  162.4990  207.3210  150.8540 C   0  0  0  0  0  2  0  0  0  0  0  0
  161.8630  208.3070  149.8890 C   0  0  0  0  0  2  0  0  0  0  0  0
  161.5840  207.6460  148.6260 N   0  0  0  0  0  2  0  0  0  0  0  0
  161.9060  205.6110  147.5400 O   0  0  0  0  0  0  0  0  0  0  0  0
  160.7840  205.4010  148.3640 C   0  0  2  0  0  3  0  0  0  0  0  0
  161.9230  206.2440  148.7950 C   0  0  2  0  0  3  0  0  0  0  0  0
  161.0350  202.9440  148.2110 N   0  0  0  0  0  0  0  0  0  0  0  0
  161.0800  201.5260  150.1320 C   0  0  0  0  0  3  0  0  0  0  0  0
  160.9190  202.6440  150.9520 C   0  0  0  0  0  3  0  0  0  0  0  0
  161.1380  201.6970  148.7480 C   0  0  0  0  0  0  0  0  0  0  0  0
  161.3090  200.5700  147.8990 N   0  0  0  0  0  1  0  0  0  0  0  0
  160.8640  204.0480  148.9910 C   0  0  0  0  0  0  0  0  0  0  0  0
  160.8130  203.9140  150.3830 C   0  0  0  0  0  3  0  0  0  0  0  0
  1  2  2  0  0  0  0
  1  5  1  0  0  0  0
  2  6  1  0  0  0  0
  3  4  1  0  0  0  0
  4  8  1  0  0  0  0
  5  3  2  0  0  0  0
  6  9  1  0  0  0  0
  6  4  2  0  0  0  0
  8  7  1  0  0  0  0
  9 13  1  6  0  0  0
 11 10  1  0  0  0  0
 12  9  1  1  0  0  0
 12 11  1  0  0  0  0
 12 10  1  0  0  0  0
 14 15  1  0  0  0  0
 15 13  1  0  0  0  0
 16  1  1  0  0  0  0
 17 16  1  0  0  0  0
 18 17  1  0  0  0  0
 19 20  1  0  0  0  0
 19 21  1  0  0  0  0
 20 21  1  0  0  0  0
 20 27  1  1  0  0  0
 21 18  1  6  0  0  0
 22 25  2  0  0  0  0
 22 27  1  0  0  0  0
 23 24  2  0  0  0  0
 25 23  1  0  0  0  0
 26 25  1  0  0  0  0
 27 28  2  0  0  0  0
 28 24  1  0  0  0  0
M  END
>  <MODEL>
1

>  <REMARK>
 VINA RESULT:      -7.5      0.000      0.000
  Name = 
  10 active torsions:
  status: ('A' for Active; 'I' for Inactive)
    1  A    between atoms: C_1  and  C_18
    2  A    between atoms: C_1  and  N_23
    3  A    between atoms: C_4  and  C_18
    4  A    between atoms: C_8  and  C_20
    5  A    between atoms: C_10  and  C_16
    6  A    between atoms: C_11  and  C_16
    7  A    between atoms: C_11  and  C_25
    8  A    between atoms: C_11  and  C_28
    9  A    between atoms: C_21  and  O_26
   10  A    between atoms: N_23  and  C_24
                            x       y       z     vdW  Elec       q    Type
                         _______ _______ _______ _____ _____    ______ ____

>  <TORSDO>
F 10

$$$$
=
 OpenBabel11072411163D

 28 31  0  0  1  0  0  0  0  0999 V2000
  161.1680  202.4610  150.0950 C   0  0  0  0  0  0  0  0  0  0  0  0
  161.2730  203.6380  149.3500 C   0  0  0  0  0  3  0  0  0  0  0  0
  160.9600  201.1890  148.0490 C   0  0  0  0  0  3  0  0  0  0  0  0
  161.0580  202.3670  147.2900 C   0  0  0  0  0  0  0  0  0  0  0  0
  161.0150  201.2360  149.4430 C   0  0  0  0  0  3  0  0  0  0  0  0
  161.2130  203.6040  147.9520 C   0  0  0  0  0  0  0  0  0  0  0  0
  160.1600  201.4360  145.1770 C   0  0  0  0  0  1  0  0  0  0  0  0
  161.0070  202.3250  145.8910 O   0  0  0  0  0  0  0  0  0  0  0  0
  161.3450  204.9100  147.2130 C   0  0  1  0  0  3  0  0  0  0  0  0
  161.6240  206.9550  148.6930 C   0  0  0  0  0  2  0  0  0  0  0  0
  161.2600  207.3260  147.3900 O   0  0  0  0  0  0  0  0  0  0  0  0
  160.6870  206.1340  147.8820 C   0  0  1  0  0  3  0  0  0  0  0  0
  162.7360  205.1460  146.6210 C   0  0  0  0  0  2  0  0  0  0  0  0
  161.4240  205.4020  144.5100 C   0  0  0  0  0  1  0  0  0  0  0  0
  162.7330  204.9310  145.1170 C   0  0  0  0  0  2  0  0  0  0  0  0
  161.2490  202.5090  151.5810 C   0  0  0  0  0  2  0  0  0  0  0  0
  160.4130  203.6600  152.1120 C   0  0  0  0  0  2  0  0  0  0  0  0
  161.2360  204.5230  152.9420 N   0  0  0  0  0  2  0  0  0  0  0  0
  162.6050  206.1960  152.0730 O   0  0  0  0  0  0  0  0  0  0  0  0
  161.9690  206.7940  153.1780 C   0  0  2  0  0  3  0  0  0  0  0  0
  161.2680  205.8260  152.3020 C   0  0  2  0  0  3  0  0  0  0  0  0
  162.0100  208.7610  151.6760 N   0  0  0  0  0  0  0  0  0  0  0  0
  160.8070  210.7700  152.1430 C   0  0  0  0  0  3  0  0  0  0  0  0
  160.3380  210.2040  153.3300 C   0  0  0  0  0  3  0  0  0  0  0  0
  161.6520  210.0240  151.3190 C   0  0  0  0  0  0  0  0  0  0  0  0
  162.1340  210.5820  150.1040 N   0  0  0  0  0  1  0  0  0  0  0  0
  161.5750  208.1940  152.8360 C   0  0  0  0  0  0  0  0  0  0  0  0
  160.7180  208.9090  153.6800 C   0  0  0  0  0  3  0  0  0  0  0  0
  1 16  1  0  0  0  0
  2  1  2  0  0  0  0
  3  5  2  0  0  0  0
  4  6  2  0  0  0  0
  4  3  1  0  0  0  0
  5  1  1  0  0  0  0
  6  2  1  0  0  0  0
  7  8  1  0  0  0  0
  8  4  1  0  0  0  0
  9 13  1  1  0  0  0
  9  6  1  0  0  0  0
 11 12  1  0  0  0  0
 11 10  1  0  0  0  0
 12  9  1  6  0  0  0
 12 10  1  0  0  0  0
 14 15  1  0  0  0  0
 15 13  1  0  0  0  0
 16 17  1  0  0  0  0
 17 18  1  0  0  0  0
 19 21  1  0  0  0  0
 19 20  1  0  0  0  0
 20 27  1  6  0  0  0
 21 18  1  1  0  0  0
 21 20  1  0  0  0  0
 22 27  1  0  0  0  0
 23 24  2  0  0  0  0
 24 28  1  0  0  0  0
 25 22  2  0  0  0  0
 25 23  1  0  0  0  0
 26 25  1  0  0  0  0
 27 28  2  0  0  0  0
M  END
>  <MODEL>
2

>  <REMARK>
 VINA RESULT:      -7.4      2.654      8.130
  Name = 
  10 active torsions:
  status: ('A' for Active; 'I' for Inactive)
    1  A    between atoms: C_1  and  C_18
    2  A    between atoms: C_1  and  N_23
    3  A    between atoms: C_4  and  C_18
    4  A    between atoms: C_8  and  C_20
    5  A    between atoms: C_10  and  C_16
    6  A    between atoms: C_11  and  C_16
    7  A    between atoms: C_11  and  C_25
    8  A    between atoms: C_11  and  C_28
    9  A    between atoms: C_21  and  O_26
   10  A    between atoms: N_23  and  C_24
                            x       y       z     vdW  Elec       q    Type
                         _______ _______ _______ _____ _____    ______ ____

>  <TORSDO>
F 10

$$$$
=
 OpenBabel11072411163D

 28 31  0  0  1  0  0  0  0  0999 V2000
  160.8160  203.0860  149.8740 C   0  0  0  0  0  0  0  0  0  0  0  0
  161.2160  203.9860  148.8830 C   0  0  0  0  0  3  0  0  0  0  0  0
  160.5980  201.3510  148.2050 C   0  0  0  0  0  3  0  0  0  0  0  0
  160.9920  202.2480  147.1990 C   0  0  0  0  0  0  0  0  0  0  0  0
  160.5110  201.7670  149.5340 C   0  0  0  0  0  3  0  0  0  0  0  0
  161.3010  203.5820  147.5460 C   0  0  0  0  0  0  0  0  0  0  0  0
  160.0230  201.1810  145.1840 C   0  0  0  0  0  1  0  0  0  0  0  0
  161.0850  201.8340  145.8640 O   0  0  0  0  0  0  0  0  0  0  0  0
  161.7500  204.6010  146.5320 C   0  0  1  0  0  3  0  0  0  0  0  0
  161.1790  205.5690  144.2550 C   0  0  0  0  0  2  0  0  0  0  0  0
  160.5840  204.3100  144.4270 O   0  0  0  0  0  0  0  0  0  0  0  0
  160.6610  205.1270  145.5750 C   0  0  1  0  0  3  0  0  0  0  0  0
  162.7010  205.6580  147.0990 C   0  0  0  0  0  2  0  0  0  0  0  0
  162.4300  207.5560  148.7010 C   0  0  0  0  0  1  0  0  0  0  0  0
  161.9650  206.9560  147.3870 C   0  0  0  0  0  2  0  0  0  0  0  0
  160.7450  203.5250  151.2950 C   0  0  0  0  0  2  0  0  0  0  0  0
  161.6750  204.7040  151.5240 C   0  0  0  0  0  2  0  0  0  0  0  0
  161.4030  205.2980  152.8210 N   0  0  0  0  0  2  0  0  0  0  0  0
  161.9750  207.4500  152.1370 O   0  0  0  0  0  0  0  0  0  0  0  0
  161.5980  207.5940  153.4860 C   0  0  2  0  0  3  0  0  0  0  0  0
  160.9120  206.6440  152.5800 C   0  0  2  0  0  3  0  0  0  0  0  0
  160.3370  209.1970  154.8880 N   0  0  0  0  0  0  0  0  0  0  0  0
  159.3350  211.1780  154.0070 C   0  0  0  0  0  3  0  0  0  0  0  0
  159.7990  210.8370  152.7350 C   0  0  0  0  0  3  0  0  0  0  0  0
  159.6190  210.3360  155.0840 C   0  0  0  0  0  0  0  0  0  0  0  0
  159.1610  210.6710  156.3870 N   0  0  0  0  0  1  0  0  0  0  0  0
  160.7880  208.8380  153.6530 C   0  0  0  0  0  0  0  0  0  0  0  0
  160.5320  209.6640  152.5530 C   0  0  0  0  0  3  0  0  0  0  0  0
  1 16  1  0  0  0  0
  2  1  2  0  0  0  0
  3  5  2  0  0  0  0
  4  6  2  0  0  0  0
  4  3  1  0  0  0  0
  5  1  1  0  0  0  0
  6  2  1  0  0  0  0
  7  8  1  0  0  0  0
  8  4  1  0  0  0  0
  9 13  1  1  0  0  0
  9  6  1  0  0  0  0
 10 11  1  0  0  0  0
 10 12  1  0  0  0  0
 11 12  1  0  0  0  0
 12  9  1  1  0  0  0
 13 15  1  0  0  0  0
 15 14  1  0  0  0  0
 16 17  1  0  0  0  0
 17 18  1  0  0  0  0
 19 21  1  0  0  0  0
 19 20  1  0  0  0  0
 20 27  1  6  0  0  0
 21 18  1  1  0  0  0
 21 20  1  0  0  0  0
 22 25  1  0  0  0  0
 23 25  2  0  0  0  0
 24 23  1  0  0  0  0
 25 26  1  0  0  0  0
 27 22  2  0  0  0  0
 28 24  2  0  0  0  0
 28 27  1  0  0  0  0
M  END
>  <MODEL>
3

>  <REMARK>
 VINA RESULT:      -7.3      3.056      8.759
  Name = 
  10 active torsions:
  status: ('A' for Active; 'I' for Inactive)
    1  A    between atoms: C_1  and  C_18
    2  A    between atoms: C_1  and  N_23
    3  A    between atoms: C_4  and  C_18
    4  A    between atoms: C_8  and  C_20
    5  A    between atoms: C_10  and  C_16
    6  A    between atoms: C_11  and  C_16
    7  A    between atoms: C_11  and  C_25
    8  A    between atoms: C_11  and  C_28
    9  A    between atoms: C_21  and  O_26
   10  A    between atoms: N_23  and  C_24
                            x       y       z     vdW  Elec       q    Type
                         _______ _______ _______ _____ _____    ______ ____

>  <TORSDO>
F 10

$$$$
=
 OpenBabel11072411163D

 28 31  0  0  1  0  0  0  0  0999 V2000
  161.1360  204.1710  151.5900 C   0  0  0  0  0  0  0  0  0  0  0  0
  161.1890  204.7820  150.3350 C   0  0  0  0  0  3  0  0  0  0  0  0
  160.8960  202.0140  150.5260 C   0  0  0  0  0  3  0  0  0  0  0  0
  160.9420  202.6170  149.2580 C   0  0  0  0  0  0  0  0  0  0  0  0
  160.9930  202.7860  151.6840 C   0  0  0  0  0  3  0  0  0  0  0  0
  161.0870  204.0190  149.1660 C   0  0  0  0  0  0  0  0  0  0  0  0
  161.3840  200.5340  147.9920 C   0  0  0  0  0  1  0  0  0  0  0  0
  160.8500  201.8470  148.0920 O   0  0  0  0  0  0  0  0  0  0  0  0
  161.1660  204.7420  147.8470 C   0  0  1  0  0  3  0  0  0  0  0  0
  161.5700  207.2450  147.9940 C   0  0  0  0  0  2  0  0  0  0  0  0
  161.0840  206.8910  146.7270 O   0  0  0  0  0  0  0  0  0  0  0  0
  160.5670  206.1640  147.8200 C   0  0  1  0  0  3  0  0  0  0  0  0
  162.5060  204.5750  147.1300 C   0  0  0  0  0  2  0  0  0  0  0  0
  161.1470  203.4190  145.3800 C   0  0  0  0  0  1  0  0  0  0  0  0
  162.3050  204.3650  145.6380 C   0  0  0  0  0  2  0  0  0  0  0  0
  161.2610  204.9930  152.8250 C   0  0  0  0  0  2  0  0  0  0  0  0
  161.7400  206.3920  152.4750 C   0  0  0  0  0  2  0  0  0  0  0  0
  161.3180  207.3260  153.5050 N   0  0  0  0  0  2  0  0  0  0  0  0
  161.8490  209.3150  152.4150 O   0  0  0  0  0  0  0  0  0  0  0  0
  161.1610  209.7170  153.5750 C   0  0  2  0  0  3  0  0  0  0  0  0
  160.7850  208.4950  152.8280 C   0  0  2  0  0  3  0  0  0  0  0  0
  160.4670  211.6230  152.1550 N   0  0  0  0  0  0  0  0  0  0  0  0
  158.4900  212.8950  152.5740 C   0  0  0  0  0  3  0  0  0  0  0  0
  158.2220  212.0980  153.6880 C   0  0  0  0  0  3  0  0  0  0  0  0
  159.6300  212.6390  151.8100 C   0  0  0  0  0  0  0  0  0  0  0  0
  159.9140  213.4360  150.6680 N   0  0  0  0  0  1  0  0  0  0  0  0
  160.2320  210.8410  153.2460 C   0  0  0  0  0  0  0  0  0  0  0  0
  159.0930  211.0630  154.0280 C   0  0  0  0  0  3  0  0  0  0  0  0
  1  5  1  0  0  0  0
  1 16  1  0  0  0  0
  2  1  2  0  0  0  0
  3  5  2  0  0  0  0
  4  3  1  0  0  0  0
  6  4  2  0  0  0  0
  6  2  1  0  0  0  0
  7  8  1  0  0  0  0
  8  4  1  0  0  0  0
  9 13  1  1  0  0  0
  9  6  1  0  0  0  0
 11 12  1  0  0  0  0
 11 10  1  0  0  0  0
 12  9  1  6  0  0  0
 12 10  1  0  0  0  0
 14 15  1  0  0  0  0
 15 13  1  0  0  0  0
 17 16  1  0  0  0  0
 17 18  1  0  0  0  0
 19 21  1  0  0  0  0
 19 20  1  0  0  0  0
 20 27  1  6  0  0  0
 21 18  1  1  0  0  0
 21 20  1  0  0  0  0
 22 27  1  0  0  0  0
 23 24  2  0  0  0  0
 24 28  1  0  0  0  0
 25 22  2  0  0  0  0
 25 23  1  0  0  0  0
 26 25  1  0  0  0  0
 27 28  2  0  0  0  0
M  END
>  <MODEL>
4

>  <REMARK>
 VINA RESULT:      -7.0      2.955      8.456
  Name = 
  10 active torsions:
  status: ('A' for Active; 'I' for Inactive)
    1  A    between atoms: C_1  and  C_18
    2  A    between atoms: C_1  and  N_23
    3  A    between atoms: C_4  and  C_18
    4  A    between atoms: C_8  and  C_20
    5  A    between atoms: C_10  and  C_16
    6  A    between atoms: C_11  and  C_16
    7  A    between atoms: C_11  and  C_25
    8  A    between atoms: C_11  and  C_28
    9  A    between atoms: C_21  and  O_26
   10  A    between atoms: N_23  and  C_24
                            x       y       z     vdW  Elec       q    Type
                         _______ _______ _______ _____ _____    ______ ____

>  <TORSDO>
F 10

$$$$
=
 OpenBabel11072411163D

 28 31  0  0  1  0  0  0  0  0999 V2000
  161.8980  207.7360  151.9750 C   0  0  0  0  0  0  0  0  0  0  0  0
  161.7140  209.0200  152.4950 C   0  0  0  0  0  3  0  0  0  0  0  0
  160.8070  206.7970  153.9170 C   0  0  0  0  0  3  0  0  0  0  0  0
  160.6230  208.0820  154.4530 C   0  0  0  0  0  0  0  0  0  0  0  0
  161.4410  206.6250  152.6850 C   0  0  0  0  0  3  0  0  0  0  0  0
  161.0860  209.2040  153.7320 C   0  0  0  0  0  0  0  0  0  0  0  0
  160.2230  207.4190  156.8060 C   0  0  0  0  0  1  0  0  0  0  0  0
  159.9840  208.2600  155.6870 O   0  0  0  0  0  0  0  0  0  0  0  0
  160.9100  210.6160  154.2250 C   0  0  1  0  0  3  0  0  0  0  0  0
  159.6620  212.1170  152.6010 C   0  0  0  0  0  2  0  0  0  0  0  0
  159.1240  210.8220  152.5990 O   0  0  0  0  0  0  0  0  0  0  0  0
  159.5840  211.3050  153.8420 C   0  0  1  0  0  3  0  0  0  0  0  0
  161.3740  210.8280  155.6680 C   0  0  0  0  0  2  0  0  0  0  0  0
  163.3140  210.4420  157.1940 C   0  0  0  0  0  1  0  0  0  0  0  0
  162.8880  210.7500  155.7710 C   0  0  0  0  0  2  0  0  0  0  0  0
  162.5540  207.5550  150.6500 C   0  0  0  0  0  2  0  0  0  0  0  0
  161.9270  208.4860  149.6260 C   0  0  0  0  0  2  0  0  0  0  0  0
  161.6400  207.7500  148.4070 N   0  0  0  0  0  2  0  0  0  0  0  0
  161.9980  205.6590  147.4440 O   0  0  0  0  0  0  0  0  0  0  0  0
  160.8340  205.5000  148.2190 C   0  0  2  0  0  3  0  0  0  0  0  0
  161.9570  206.3570  148.6640 C   0  0  2  0  0  3  0  0  0  0  0  0
  161.0280  203.0320  148.2010 N   0  0  0  0  0  0  0  0  0  0  0  0
  161.0030  201.7180  150.1950 C   0  0  0  0  0  3  0  0  0  0  0  0
  160.8540  202.8820  150.9510 C   0  0  0  0  0  3  0  0  0  0  0  0
  161.0910  201.8150  148.8050 C   0  0  0  0  0  0  0  0  0  0  0  0
  161.2500  200.6400  148.0200 N   0  0  0  0  0  1  0  0  0  0  0  0
  160.8690  204.1800  148.9180 C   0  0  0  0  0  0  0  0  0  0  0  0
  160.7900  204.1220  150.3140 C   0  0  0  0  0  3  0  0  0  0  0  0
  1  2  2  0  0  0  0
  1  5  1  0  0  0  0
  2  6  1  0  0  0  0
  3  4  1  0  0  0  0
  4  8  1  0  0  0  0
  5  3  2  0  0  0  0
  6  9  1  0  0  0  0
  6  4  2  0  0  0  0
  8  7  1  0  0  0  0
  9 13  1  1  0  0  0
 10 12  1  0  0  0  0
 11 10  1  0  0  0  0
 11 12  1  0  0  0  0
 12  9  1  6  0  0  0
 13 15  1  0  0  0  0
 15 14  1  0  0  0  0
 16  1  1  0  0  0  0
 17 16  1  0  0  0  0
 18 17  1  0  0  0  0
 19 20  1  0  0  0  0
 19 21  1  0  0  0  0
 20 21  1  0  0  0  0
 20 27  1  1  0  0  0
 21 18  1  6  0  0  0
 22 25  2  0  0  0  0
 22 27  1  0  0  0  0
 23 24  2  0  0  0  0
 25 23  1  0  0  0  0
 26 25  1  0  0  0  0
 27 28  2  0  0  0  0
 28 24  1  0  0  0  0
M  END
>  <MODEL>
5

>  <REMARK>
 VINA RESULT:      -7.0      1.077      2.078
  Name = 
  10 active torsions:
  status: ('A' for Active; 'I' for Inactive)
    1  A    between atoms: C_1  and  C_18
    2  A    between atoms: C_1  and  N_23
    3  A    between atoms: C_4  and  C_18
    4  A    between atoms: C_8  and  C_20
    5  A    between atoms: C_10  and  C_16
    6  A    between atoms: C_11  and  C_16
    7  A    between atoms: C_11  and  C_25
    8  A    between atoms: C_11  and  C_28
    9  A    between atoms: C_21  and  O_26
   10  A    between atoms: N_23  and  C_24
                            x       y       z     vdW  Elec       q    Type
                         _______ _______ _______ _____ _____    ______ ____

>  <TORSDO>
F 10

$$$$
=
 OpenBabel11072411163D

 28 31  0  0  1  0  0  0  0  0999 V2000
  161.3490  206.3980  152.2920 C   0  0  0  0  0  0  0  0  0  0  0  0
  160.8450  207.4720  153.0290 C   0  0  0  0  0  3  0  0  0  0  0  0
  162.2770  207.9430  150.6810 C   0  0  0  0  0  3  0  0  0  0  0  0
  161.7700  209.0310  151.4100 C   0  0  0  0  0  0  0  0  0  0  0  0
  162.0690  206.6350  151.1190 C   0  0  0  0  0  3  0  0  0  0  0  0
  161.0430  208.7890  152.5960 C   0  0  0  0  0  0  0  0  0  0  0  0
  161.9560  210.7190  149.6060 C   0  0  0  0  0  1  0  0  0  0  0  0
  161.9800  210.3470  150.9760 O   0  0  0  0  0  0  0  0  0  0  0  0
  160.4820  209.8980  153.4460 C   0  0  1  0  0  3  0  0  0  0  0  0
  161.1870  210.8660  155.6860 C   0  0  0  0  0  2  0  0  0  0  0  0
  162.1200  209.9220  155.2330 O   0  0  0  0  0  0  0  0  0  0  0  0
  161.5130  210.7240  154.2440 C   0  0  1  0  0  3  0  0  0  0  0  0
  159.3770  210.7030  152.7610 C   0  0  0  0  0  2  0  0  0  0  0  0
  158.5960  212.9850  152.1080 C   0  0  0  0  0  1  0  0  0  0  0  0
  159.7480  212.1740  152.6700 C   0  0  0  0  0  2  0  0  0  0  0  0
  161.1460  205.0040  152.7720 C   0  0  0  0  0  2  0  0  0  0  0  0
  161.8090  204.0220  151.8210 C   0  0  0  0  0  2  0  0  0  0  0  0
  160.9060  202.9180  151.5470 N   0  0  0  0  0  2  0  0  0  0  0  0
  159.9450  201.8340  149.7230 O   0  0  0  0  0  0  0  0  0  0  0  0
  161.2460  202.1620  149.2970 C   0  0  2  0  0  3  0  0  0  0  0  0
  160.4600  203.0620  150.1730 C   0  0  2  0  0  3  0  0  0  0  0  0
  161.6610  203.8880  147.5720 N   0  0  0  0  0  0  0  0  0  0  0  0
  161.2090  203.5340  145.2530 C   0  0  0  0  0  3  0  0  0  0  0  0
  160.7530  202.2470  145.5470 C   0  0  0  0  0  3  0  0  0  0  0  0
  161.6650  204.3480  146.2910 C   0  0  0  0  0  0  0  0  0  0  0  0
  162.1400  205.6580  146.0100 N   0  0  0  0  0  1  0  0  0  0  0  0
  161.2080  202.6400  147.8820 C   0  0  0  0  0  0  0  0  0  0  0  0
  160.7540  201.7930  146.8660 C   0  0  0  0  0  3  0  0  0  0  0  0
  1 16  1  0  0  0  0
  1  2  1  0  0  0  0
  3  5  1  0  0  0  0
  3  4  2  0  0  0  0
  4  6  1  0  0  0  0
  5  1  2  0  0  0  0
  6  2  2  0  0  0  0
  6  9  1  0  0  0  0
  7  8  1  0  0  0  0
  8  4  1  0  0  0  0
  9 13  1  6  0  0  0
 11 10  1  0  0  0  0
 12  9  1  6  0  0  0
 12 11  1  0  0  0  0
 12 10  1  0  0  0  0
 14 15  1  0  0  0  0
 15 13  1  0  0  0  0
 17 16  1  0  0  0  0
 18 17  1  0  0  0  0
 19 21  1  0  0  0  0
 20 27  1  6  0  0  0
 20 19  1  0  0  0  0
 20 21  1  0  0  0  0
 21 18  1  1  0  0  0
 22 27  1  0  0  0  0
 23 24  2  0  0  0  0
 23 25  1  0  0  0  0
 24 28  1  0  0  0  0
 25 22  2  0  0  0  0
 26 25  1  0  0  0  0
 28 27  2  0  0  0  0
M  END
>  <MODEL>
6

>  <REMARK>
 VINA RESULT:      -6.9      2.142      3.714
  Name = 
  10 active torsions:
  status: ('A' for Active; 'I' for Inactive)
    1  A    between atoms: C_1  and  C_18
    2  A    between atoms: C_1  and  N_23
    3  A    between atoms: C_4  and  C_18
    4  A    between atoms: C_8  and  C_20
    5  A    between atoms: C_10  and  C_16
    6  A    between atoms: C_11  and  C_16
    7  A    between atoms: C_11  and  C_25
    8  A    between atoms: C_11  and  C_28
    9  A    between atoms: C_21  and  O_26
   10  A    between atoms: N_23  and  C_24
                            x       y       z     vdW  Elec       q    Type
                         _______ _______ _______ _____ _____    ______ ____

>  <TORSDO>
F 10

$$$$
=
 OpenBabel11072411163D

 28 31  0  0  1  0  0  0  0  0999 V2000
  160.9610  203.2170  150.5190 C   0  0  0  0  0  0  0  0  0  0  0  0
  161.1400  204.2680  149.6170 C   0  0  0  0  0  3  0  0  0  0  0  0
  160.8990  201.6510  148.6780 C   0  0  0  0  0  3  0  0  0  0  0  0
  161.0720  202.7010  147.7610 C   0  0  0  0  0  0  0  0  0  0  0  0
  160.8450  201.9080  150.0490 C   0  0  0  0  0  3  0  0  0  0  0  0
  161.1900  204.0240  148.2390 C   0  0  0  0  0  0  0  0  0  0  0  0
  160.4560  201.3600  145.7710 C   0  0  0  0  0  1  0  0  0  0  0  0
  161.1320  202.4480  146.3840 O   0  0  0  0  0  0  0  0  0  0  0  0
  161.3980  205.2030  147.3260 C   0  0  1  0  0  3  0  0  0  0  0  0
  161.9620  207.1110  148.9030 C   0  0  0  0  0  2  0  0  0  0  0  0
  161.9800  207.5430  147.5690 O   0  0  0  0  0  0  0  0  0  0  0  0
  161.0040  206.5800  147.9000 C   0  0  1  0  0  3  0  0  0  0  0  0
  162.7170  205.1600  146.5530 C   0  0  0  0  0  2  0  0  0  0  0  0
  160.9990  205.4370  144.7590 C   0  0  0  0  0  1  0  0  0  0  0  0
  162.4830  205.3440  145.0620 C   0  0  0  0  0  2  0  0  0  0  0  0
  160.9260  203.4880  151.9830 C   0  0  0  0  0  2  0  0  0  0  0  0
  161.7570  204.7180  152.3060 C   0  0  0  0  0  2  0  0  0  0  0  0
  161.2250  205.3720  153.4890 N   0  0  0  0  0  2  0  0  0  0  0  0
  161.9180  207.4420  152.6740 O   0  0  0  0  0  0  0  0  0  0  0  0
  161.4250  207.7140  153.9650 C   0  0  2  0  0  3  0  0  0  0  0  0
  160.7970  206.7000  153.0860 C   0  0  2  0  0  3  0  0  0  0  0  0
  160.1250  209.4840  155.1060 N   0  0  0  0  0  0  0  0  0  0  0  0
  159.2290  211.3760  153.9570 C   0  0  0  0  0  3  0  0  0  0  0  0
  159.7590  210.8910  152.7600 C   0  0  0  0  0  3  0  0  0  0  0  0
  159.4250  210.6510  155.1340 C   0  0  0  0  0  0  0  0  0  0  0  0
  158.8990  211.1340  156.3620 N   0  0  0  0  0  1  0  0  0  0  0  0
  160.6390  208.9850  153.9470 C   0  0  0  0  0  0  0  0  0  0  0  0
  160.4720  209.6910  152.7510 C   0  0  0  0  0  3  0  0  0  0  0  0
  1 16  1  0  0  0  0
  2  1  2  0  0  0  0
  3  5  2  0  0  0  0
  4  6  2  0  0  0  0
  4  3  1  0  0  0  0
  5  1  1  0  0  0  0
  6  2  1  0  0  0  0
  7  8  1  0  0  0  0
  8  4  1  0  0  0  0
  9 13  1  1  0  0  0
  9  6  1  0  0  0  0
 11 12  1  0  0  0  0
 11 10  1  0  0  0  0
 12  9  1  6  0  0  0
 12 10  1  0  0  0  0
 14 15  1  0  0  0  0
 15 13  1  0  0  0  0
 16 17  1  0  0  0  0
 17 18  1  0  0  0  0
 19 21  1  0  0  0  0
 19 20  1  0  0  0  0
 20 27  1  6  0  0  0
 21 18  1  1  0  0  0
 21 20  1  0  0  0  0
 22 25  1  0  0  0  0
 23 25  2  0  0  0  0
 24 23  1  0  0  0  0
 25 26  1  0  0  0  0
 27 22  2  0  0  0  0
 28 24  2  0  0  0  0
 28 27  1  0  0  0  0
M  END
>  <MODEL>
7

>  <REMARK>
 VINA RESULT:      -6.8      2.980      8.413
  Name = 
  10 active torsions:
  status: ('A' for Active; 'I' for Inactive)
    1  A    between atoms: C_1  and  C_18
    2  A    between atoms: C_1  and  N_23
    3  A    between atoms: C_4  and  C_18
    4  A    between atoms: C_8  and  C_20
    5  A    between atoms: C_10  and  C_16
    6  A    between atoms: C_11  and  C_16
    7  A    between atoms: C_11  and  C_25
    8  A    between atoms: C_11  and  C_28
    9  A    between atoms: C_21  and  O_26
   10  A    between atoms: N_23  and  C_24
                            x       y       z     vdW  Elec       q    Type
                         _______ _______ _______ _____ _____    ______ ____

>  <TORSDO>
F 10

$$$$
=
 OpenBabel11072411163D

 28 31  0  0  1  0  0  0  0  0999 V2000
  161.2040  205.9870  152.1950 C   0  0  0  0  0  0  0  0  0  0  0  0
  161.1770  207.2710  151.6470 C   0  0  0  0  0  3  0  0  0  0  0  0
  161.1700  206.9380  154.4170 C   0  0  0  0  0  3  0  0  0  0  0  0
  161.1490  208.2350  153.8780 C   0  0  0  0  0  0  0  0  0  0  0  0
  161.1970  205.8210  153.5810 C   0  0  0  0  0  3  0  0  0  0  0  0
  161.1560  208.3990  152.4750 C   0  0  0  0  0  0  0  0  0  0  0  0
  160.4430  209.3720  155.9620 C   0  0  0  0  0  1  0  0  0  0  0  0
  161.1180  209.3590  154.7120 O   0  0  0  0  0  0  0  0  0  0  0  0
  161.1150  209.7520  151.8160 C   0  0  1  0  0  3  0  0  0  0  0  0
  159.9750  212.0180  151.9490 C   0  0  0  0  0  2  0  0  0  0  0  0
  159.2310  211.0430  152.6300 O   0  0  0  0  0  0  0  0  0  0  0  0
  160.6350  210.9210  152.7020 C   0  0  1  0  0  3  0  0  0  0  0  0
  162.3290  210.0460  150.9330 C   0  0  0  0  0  2  0  0  0  0  0  0
  162.0110  211.3610  148.8310 C   0  0  0  0  0  1  0  0  0  0  0  0
  161.9610  209.9810  149.4590 C   0  0  0  0  0  2  0  0  0  0  0  0
  161.2100  204.7950  151.3030 C   0  0  0  0  0  2  0  0  0  0  0  0
  161.3900  203.5290  152.1240 C   0  0  0  0  0  2  0  0  0  0  0  0
  161.0730  202.3680  151.3100 N   0  0  0  0  0  2  0  0  0  0  0  0
  159.8330  201.8890  149.3980 O   0  0  0  0  0  0  0  0  0  0  0  0
  161.1630  201.9770  148.9460 C   0  0  2  0  0  3  0  0  0  0  0  0
  160.6400  202.8600  150.0150 C   0  0  2  0  0  3  0  0  0  0  0  0
  161.7240  203.9590  147.5740 N   0  0  0  0  0  0  0  0  0  0  0  0
  161.3570  204.0450  145.2160 C   0  0  0  0  0  3  0  0  0  0  0  0
  160.8350  202.7510  145.2570 C   0  0  0  0  0  3  0  0  0  0  0  0
  161.8030  204.6390  146.3980 C   0  0  0  0  0  0  0  0  0  0  0  0
  162.3440  205.9530  146.3730 N   0  0  0  0  0  1  0  0  0  0  0  0
  161.2060  202.7000  147.6400 C   0  0  0  0  0  0  0  0  0  0  0  0
  160.7600  202.0700  146.4730 C   0  0  0  0  0  3  0  0  0  0  0  0
  1  5  1  0  0  0  0
  2  1  2  0  0  0  0
  2  6  1  0  0  0  0
  4  3  1  0  0  0  0
  4  8  1  0  0  0  0
  5  3  2  0  0  0  0
  6  4  2  0  0  0  0
  8  7  1  0  0  0  0
  9 13  1  1  0  0  0
  9  6  1  0  0  0  0
 10 11  1  0  0  0  0
 10 12  1  0  0  0  0
 11 12  1  0  0  0  0
 12  9  1  6  0  0  0
 14 15  1  0  0  0  0
 15 13  1  0  0  0  0
 16 17  1  0  0  0  0
 16  1  1  0  0  0  0
 18 17  1  0  0  0  0
 19 21  1  0  0  0  0
 20 27  1  6  0  0  0
 20 19  1  0  0  0  0
 20 21  1  0  0  0  0
 21 18  1  1  0  0  0
 22 27  1  0  0  0  0
 23 24  2  0  0  0  0
 23 25  1  0  0  0  0
 24 28  1  0  0  0  0
 25 22  2  0  0  0  0
 26 25  1  0  0  0  0
 28 27  2  0  0  0  0
M  END
>  <MODEL>
8

>  <REMARK>
 VINA RESULT:      -6.7      2.222      3.724
  Name = 
  10 active torsions:
  status: ('A' for Active; 'I' for Inactive)
    1  A    between atoms: C_1  and  C_18
    2  A    between atoms: C_1  and  N_23
    3  A    between atoms: C_4  and  C_18
    4  A    between atoms: C_8  and  C_20
    5  A    between atoms: C_10  and  C_16
    6  A    between atoms: C_11  and  C_16
    7  A    between atoms: C_11  and  C_25
    8  A    between atoms: C_11  and  C_28
    9  A    between atoms: C_21  and  O_26
   10  A    between atoms: N_23  and  C_24
                            x       y       z     vdW  Elec       q    Type
                         _______ _______ _______ _____ _____    ______ ____

>  <TORSDO>
F 10

$$$$
=
 OpenBabel11072411163D

 28 31  0  0  1  0  0  0  0  0999 V2000
  161.5790  207.7560  149.2390 C   0  0  0  0  0  0  0  0  0  0  0  0
  161.5580  206.7840  148.2360 C   0  0  0  0  0  3  0  0  0  0  0  0
  160.8710  206.1020  150.8540 C   0  0  0  0  0  3  0  0  0  0  0  0
  160.8400  205.1170  149.8530 C   0  0  0  0  0  0  0  0  0  0  0  0
  161.2390  207.4140  150.5480 C   0  0  0  0  0  3  0  0  0  0  0  0
  161.1850  205.4660  148.5290 C   0  0  0  0  0  0  0  0  0  0  0  0
  160.8870  203.1390  151.3430 C   0  0  0  0  0  1  0  0  0  0  0  0
  160.4750  203.7990  150.1550 O   0  0  0  0  0  0  0  0  0  0  0  0
  161.1970  204.4680  147.4020 C   0  0  1  0  0  3  0  0  0  0  0  0
  160.8470  204.4240  144.8870 C   0  0  0  0  0  2  0  0  0  0  0  0
  160.5190  205.6810  145.4160 O   0  0  0  0  0  0  0  0  0  0  0  0
  161.6070  205.0150  146.0190 C   0  0  1  0  0  3  0  0  0  0  0  0
  161.7980  203.1140  147.7840 C   0  0  0  0  0  2  0  0  0  0  0  0
  161.2480  200.7120  148.1990 C   0  0  0  0  0  1  0  0  0  0  0  0
  160.8300  201.9820  147.4820 C   0  0  0  0  0  2  0  0  0  0  0  0
  161.9930  209.1500  148.9170 C   0  0  0  0  0  2  0  0  0  0  0  0
  161.9440  210.0100  150.1680 C   0  0  0  0  0  2  0  0  0  0  0  0
  161.9760  211.4150  149.7980 N   0  0  0  0  0  2  0  0  0  0  0  0
  163.0120  212.4500  147.9870 O   0  0  0  0  0  0  0  0  0  0  0  0
  161.6560  212.8150  147.8780 C   0  0  2  0  0  3  0  0  0  0  0  0
  162.0690  211.4730  148.3500 C   0  0  2  0  0  3  0  0  0  0  0  0
  162.1370  213.0100  145.4580 N   0  0  0  0  0  0  0  0  0  0  0  0
  160.4910  212.6070  143.7750 C   0  0  0  0  0  3  0  0  0  0  0  0
  159.5510  212.3350  144.7710 C   0  0  0  0  0  3  0  0  0  0  0  0
  161.7950  212.9460  144.1420 C   0  0  0  0  0  0  0  0  0  0  0  0
  162.7670  213.2190  143.1410 N   0  0  0  0  0  1  0  0  0  0  0  0
  161.2330  212.7610  146.4460 C   0  0  0  0  0  0  0  0  0  0  0  0
  159.9200  212.4080  146.1140 C   0  0  0  0  0  3  0  0  0  0  0  0
  1  5  1  0  0  0  0
  2  6  1  0  0  0  0
  2  1  2  0  0  0  0
  4  8  1  0  0  0  0
  4  3  1  0  0  0  0
  5  3  2  0  0  0  0
  6  4  2  0  0  0  0
  8  7  1  0  0  0  0
  9 13  1  1  0  0  0
  9  6  1  0  0  0  0
 10 11  1  0  0  0  0
 10 12  1  0  0  0  0
 11 12  1  0  0  0  0
 12  9  1  1  0  0  0
 15 13  1  0  0  0  0
 15 14  1  0  0  0  0
 16  1  1  0  0  0  0
 16 17  1  0  0  0  0
 18 17  1  0  0  0  0
 19 21  1  0  0  0  0
 20 27  1  6  0  0  0
 20 19  1  0  0  0  0
 20 21  1  0  0  0  0
 21 18  1  1  0  0  0
 22 27  1  0  0  0  0
 23 25  1  0  0  0  0
 23 24  2  0  0  0  0
 24 28  1  0  0  0  0
 25 22  2  0  0  0  0
 26 25  1  0  0  0  0
 28 27  2  0  0  0  0
M  END
>  <MODEL>
9

>  <REMARK>
 VINA RESULT:      -6.7      4.545      8.848
  Name = 
  10 active torsions:
  status: ('A' for Active; 'I' for Inactive)
    1  A    between atoms: C_1  and  C_18
    2  A    between atoms: C_1  and  N_23
    3  A    between atoms: C_4  and  C_18
    4  A    between atoms: C_8  and  C_20
    5  A    between atoms: C_10  and  C_16
    6  A    between atoms: C_11  and  C_16
    7  A    between atoms: C_11  and  C_25
    8  A    between atoms: C_11  and  C_28
    9  A    between atoms: C_21  and  O_26
   10  A    between atoms: N_23  and  C_24
                            x       y       z     vdW  Elec       q    Type
                         _______ _______ _______ _____ _____    ______ ____

>  <TORSDO>
F 10

$$$$
