=
 OpenBabel11072412113D

 31 35  0  0  1  0  0  0  0  0999 V2000
  161.2960  205.3790  150.5240 C   0  0  0  0  0  0  0  0  0  0  0  0
  161.0350  202.0590  147.3410 N   0  0  0  0  0  0  0  0  0  0  0  0
  161.9400  208.3950  148.1850 C   0  0  0  0  0  3  0  0  0  0  0  0
  161.7550  210.4040  151.1340 C   0  0  0  0  0  3  0  0  0  0  0  0
  161.7920  207.5220  149.3680 N   0  0  0  0  0  0  0  0  0  0  0  0
  160.7310  200.9460  149.5660 C   0  0  0  0  0  1  0  0  0  0  0  0
  161.3900  203.7140  145.4920 C   0  0  0  0  0  1  0  0  0  0  0  0
  161.4150  209.5530  152.1950 C   0  0  0  0  0  3  0  0  0  0  0  0
  161.5190  206.1860  149.3420 C   0  0  0  0  0  0  0  0  0  0  0  0
  161.5000  205.5570  148.0740 C   0  0  0  0  0  3  0  0  0  0  0  0
  161.1090  203.9890  150.3830 C   0  0  0  0  0  3  0  0  0  0  0  0
  161.2020  207.0620  152.4730 C   0  0  0  0  0  0  0  0  0  0  0  0
  161.1600  205.8080  151.8530 C   0  0  0  0  0  3  0  0  0  0  0  0
  161.1230  203.4290  149.1140 C   0  0  0  0  0  0  0  0  0  0  0  0
  160.9600  202.1280  148.6910 C   0  0  0  0  0  0  0  0  0  0  0  0
  161.2980  204.1860  148.0000 C   0  0  0  0  0  0  0  0  0  0  0  0
  161.9990  208.3000  150.4290 C   0  0  0  0  0  0  0  0  0  0  0  0
  162.0720  209.7680  148.7040 N   0  0  0  0  0  0  0  0  0  0  0  0
  162.1400  209.5750  150.1030 C   0  0  0  0  0  0  0  0  0  0  0  0
  161.5210  208.2220  151.7720 C   0  0  0  0  0  0  0  0  0  0  0  0
  161.2430  203.3300  146.9220 C   0  0  0  0  0  0  0  0  0  0  0  0
  160.7590  208.3400  154.6230 N   0  0  0  0  0  2  0  0  0  0  0  0
  160.8800  207.0970  153.9250 C   0  0  0  0  0  0  0  0  0  0  0  0
  160.7290  206.0140  154.5570 O   0  0  0  0  0  0  0  0  0  0  0  0
  160.4840  208.4220  156.0500 C   0  0  2  0  0  3  0  0  0  0  0  0
  159.6500  209.6570  156.3260 C   0  0  0  0  0  1  0  0  0  0  0  0
  161.7910  208.5010  156.8220 C   0  0  0  0  0  2  0  0  0  0  0  0
  162.0530  209.8460  157.1950 O   0  0  0  0  0  0  0  0  0  0  0  0
  162.9470  210.7970  155.3100 O   0  0  0  0  0  0  0  0  0  0  0  0
  164.0960  211.1420  157.2610 O   0  0  0  0  0  1  0  0  0  0  0  0
  163.0290  210.6010  156.5500 C   0  0  0  0  0  0  0  0  0  0  0  0
  1 13  2  0  0  0  0
  2 15  2  0  0  0  0
  3 18  2  0  0  0  0
  3  5  1  0  0  0  0
  4  8  2  0  0  0  0
  5 17  1  0  0  0  0
  7 21  1  0  0  0  0
  9  5  1  0  0  0  0
  9  1  1  0  0  0  0
 10  9  2  0  0  0  0
 11  1  1  0  0  0  0
 12 23  1  0  0  0  0
 13 12  1  0  0  0  0
 14 11  2  0  0  0  0
 15 14  1  0  0  0  0
 15  6  1  0  0  0  0
 16 10  1  0  0  0  0
 16 14  1  0  0  0  0
 17 20  1  0  0  0  0
 18 19  1  0  0  0  0
 19 17  2  0  0  0  0
 19  4  1  0  0  0  0
 20  8  1  0  0  0  0
 20 12  2  0  0  0  0
 21  2  1  0  0  0  0
 21 16  2  0  0  0  0
 22 25  1  0  0  0  0
 23 24  2  0  0  0  0
 23 22  1  0  0  0  0
 25 26  1  6  0  0  0
 25 27  1  0  0  0  0
 27 28  1  0  0  0  0
 29 31  2  0  0  0  0
 31 28  1  0  0  0  0
 31 30  1  0  0  0  0
M  END
>  <MODEL>
1

>  <REMARK>
 VINA RESULT:     -10.3      0.000      0.000
  Name = 
  5 active torsions:
  status: ('A' for Active; 'I' for Inactive)
    1  A    between atoms: C_2  and  N_6
    2  A    between atoms: C_2  and  C_23
    3  A    between atoms: C_13  and  C_18
    4  A    between atoms: C_23  and  O_31
    5  A    between atoms: C_24  and  O_31
                            x       y       z     vdW  Elec       q    Type
                         _______ _______ _______ _____ _____    ______ ____

>  <TORSDO>
F 5

$$$$
=
 OpenBabel11072412113D

 31 35  0  0  1  0  0  0  0  0999 V2000
  161.3630  206.3850  148.5320 C   0  0  0  0  0  0  0  0  0  0  0  0
  161.2380  203.1300  145.2730 N   0  0  0  0  0  0  0  0  0  0  0  0
  161.0610  204.1130  151.6520 C   0  0  0  0  0  3  0  0  0  0  0  0
  161.4800  207.1040  153.5620 C   0  0  0  0  0  3  0  0  0  0  0  0
  161.1110  205.2770  150.7420 N   0  0  0  0  0  0  0  0  0  0  0  0
  161.4190  205.3290  144.0850 C   0  0  0  0  0  1  0  0  0  0  0  0
  161.0680  201.3180  146.9990 C   0  0  0  0  0  1  0  0  0  0  0  0
  161.7230  208.1450  152.6550 C   0  0  0  0  0  3  0  0  0  0  0  0
  161.2310  205.2220  149.3840 C   0  0  0  0  0  0  0  0  0  0  0  0
  161.1750  203.9400  148.7850 C   0  0  0  0  0  3  0  0  0  0  0  0
  161.3910  206.2130  147.1330 C   0  0  0  0  0  3  0  0  0  0  0  0
  161.6530  208.3690  150.1500 C   0  0  0  0  0  0  0  0  0  0  0  0
  161.5510  207.7220  148.9130 C   0  0  0  0  0  3  0  0  0  0  0  0
  161.3110  204.9330  146.6060 C   0  0  0  0  0  0  0  0  0  0  0  0
  161.3230  204.4810  145.3040 C   0  0  0  0  0  0  0  0  0  0  0  0
  161.2190  203.8360  147.4020 C   0  0  0  0  0  0  0  0  0  0  0  0
  160.9970  206.3560  151.5150 C   0  0  0  0  0  0  0  0  0  0  0  0
  161.0870  204.6630  153.0190 N   0  0  0  0  0  0  0  0  0  0  0  0
  161.0000  206.0570  152.8050 C   0  0  0  0  0  0  0  0  0  0  0  0
  161.4660  207.6940  151.3540 C   0  0  0  0  0  0  0  0  0  0  0  0
  161.1750  202.7390  146.5690 C   0  0  0  0  0  0  0  0  0  0  0  0
  161.9930  210.5430  148.8810 N   0  0  0  0  0  2  0  0  0  0  0  0
  161.9790  209.8190  150.1160 C   0  0  0  0  0  0  0  0  0  0  0  0
  162.2660  210.4200  151.1890 O   0  0  0  0  0  0  0  0  0  0  0  0
  162.3440  211.9530  148.7960 C   0  0  2  0  0  3  0  0  0  0  0  0
  161.0740  212.7810  148.7820 C   0  0  0  0  0  1  0  0  0  0  0  0
  163.1380  212.2100  147.5260 C   0  0  0  0  0  2  0  0  0  0  0  0
  162.5840  213.3110  146.8210 O   0  0  0  0  0  0  0  0  0  0  0  0
  161.0960  213.1980  145.0810 O   0  0  0  0  0  1  0  0  0  0  0  0
  163.3150  213.1860  144.5170 O   0  0  0  0  0  0  0  0  0  0  0  0
  162.2940  213.2310  145.4610 C   0  0  0  0  0  0  0  0  0  0  0  0
  1 13  2  0  0  0  0
  1  9  1  0  0  0  0
  2 15  2  0  0  0  0
  2 21  1  0  0  0  0
  3 18  2  0  0  0  0
  5 17  1  0  0  0  0
  5  3  1  0  0  0  0
  6 15  1  0  0  0  0
  8  4  2  0  0  0  0
  9  5  1  0  0  0  0
 10  9  2  0  0  0  0
 11  1  1  0  0  0  0
 12 20  2  0  0  0  0
 13 12  1  0  0  0  0
 14 11  2  0  0  0  0
 14 16  1  0  0  0  0
 15 14  1  0  0  0  0
 16 10  1  0  0  0  0
 17 19  2  0  0  0  0
 19 18  1  0  0  0  0
 19  4  1  0  0  0  0
 20 17  1  0  0  0  0
 20  8  1  0  0  0  0
 21  7  1  0  0  0  0
 21 16  2  0  0  0  0
 22 23  1  0  0  0  0
 23 12  1  0  0  0  0
 23 24  2  0  0  0  0
 25 26  1  6  0  0  0
 25 22  1  0  0  0  0
 27 25  1  0  0  0  0
 28 27  1  0  0  0  0
 29 31  1  0  0  0  0
 30 31  2  0  0  0  0
 31 28  1  0  0  0  0
M  END
>  <MODEL>
2

>  <REMARK>
 VINA RESULT:      -9.9      3.803      6.042
  Name = 
  5 active torsions:
  status: ('A' for Active; 'I' for Inactive)
    1  A    between atoms: C_2  and  N_6
    2  A    between atoms: C_2  and  C_23
    3  A    between atoms: C_13  and  C_18
    4  A    between atoms: C_23  and  O_31
    5  A    between atoms: C_24  and  O_31
                            x       y       z     vdW  Elec       q    Type
                         _______ _______ _______ _____ _____    ______ ____

>  <TORSDO>
F 5

$$$$
=
 OpenBabel11072412113D

 31 35  0  0  1  0  0  0  0  0999 V2000
  160.9070  206.6790  152.6810 C   0  0  0  0  0  0  0  0  0  0  0  0
  160.9380  209.1540  156.5670 N   0  0  0  0  0  0  0  0  0  0  0  0
  161.8930  209.4730  150.1900 C   0  0  0  0  0  3  0  0  0  0  0  0
  161.9160  206.9070  147.7050 C   0  0  0  0  0  3  0  0  0  0  0  0
  161.4380  208.2010  150.7900 N   0  0  0  0  0  0  0  0  0  0  0  0
  160.2740  206.8230  157.2050 C   0  0  0  0  0  1  0  0  0  0  0  0
  161.6260  211.2190  155.3230 C   0  0  0  0  0  1  0  0  0  0  0  0
  161.6760  205.6910  148.3610 C   0  0  0  0  0  3  0  0  0  0  0  0
  161.2720  207.9650  152.1230 C   0  0  0  0  0  0  0  0  0  0  0  0
  161.4250  209.0680  152.9970 C   0  0  0  0  0  3  0  0  0  0  0  0
  160.6750  206.5710  154.0670 C   0  0  0  0  0  3  0  0  0  0  0  0
  161.0090  205.0380  150.6970 C   0  0  0  0  0  0  0  0  0  0  0  0
  160.8150  205.4430  152.0220 C   0  0  0  0  0  3  0  0  0  0  0  0
  160.8210  207.6940  154.8680 C   0  0  0  0  0  0  0  0  0  0  0  0
  160.6700  207.8710  156.2260 C   0  0  0  0  0  0  0  0  0  0  0  0
  161.1950  208.8950  154.3540 C   0  0  0  0  0  0  0  0  0  0  0  0
  161.2150  207.3720  149.7720 C   0  0  0  0  0  0  0  0  0  0  0  0
  162.0690  209.2060  148.7520 N   0  0  0  0  0  0  0  0  0  0  0  0
  161.5760  207.8900  148.6080 C   0  0  0  0  0  0  0  0  0  0  0  0
  161.2710  205.9490  149.6770 C   0  0  0  0  0  0  0  0  0  0  0  0
  161.2610  209.7790  155.4090 C   0  0  0  0  0  0  0  0  0  0  0  0
  160.5480  203.0820  149.1430 N   0  0  0  0  0  2  0  0  0  0  0  0
  160.9290  203.5770  150.4310 C   0  0  0  0  0  0  0  0  0  0  0  0
  161.1830  202.7580  151.3580 O   0  0  0  0  0  0  0  0  0  0  0  0
  160.4180  201.6630  148.8480 C   0  0  2  0  0  3  0  0  0  0  0  0
  161.2650  200.8730  149.8260 C   0  0  0  0  0  1  0  0  0  0  0  0
  160.8830  201.3880  147.4270 C   0  0  0  0  0  2  0  0  0  0  0  0
  161.2530  202.6040  146.7940 O   0  0  0  0  0  0  0  0  0  0  0  0
  160.1720  202.0590  144.8480 O   0  0  0  0  0  0  0  0  0  0  0  0
  161.2240  204.0920  144.8860 O   0  0  0  0  0  1  0  0  0  0  0  0
  160.8610  202.8920  145.4890 C   0  0  0  0  0  0  0  0  0  0  0  0
  1 11  1  0  0  0  0
  3  5  1  0  0  0  0
  4  8  2  0  0  0  0
  4 19  1  0  0  0  0
  5  9  1  0  0  0  0
  7 21  1  0  0  0  0
  8 20  1  0  0  0  0
  9  1  1  0  0  0  0
  9 10  2  0  0  0  0
 10 16  1  0  0  0  0
 11 14  2  0  0  0  0
 12 13  1  0  0  0  0
 13  1  2  0  0  0  0
 14 15  1  0  0  0  0
 15  2  2  0  0  0  0
 15  6  1  0  0  0  0
 16 14  1  0  0  0  0
 16 21  2  0  0  0  0
 17  5  1  0  0  0  0
 18  3  2  0  0  0  0
 19 18  1  0  0  0  0
 19 17  2  0  0  0  0
 20 17  1  0  0  0  0
 20 12  2  0  0  0  0
 21  2  1  0  0  0  0
 22 23  1  0  0  0  0
 23 12  1  0  0  0  0
 23 24  2  0  0  0  0
 25 22  1  0  0  0  0
 25 26  1  1  0  0  0
 27 25  1  0  0  0  0
 28 27  1  0  0  0  0
 29 31  2  0  0  0  0
 30 31  1  0  0  0  0
 31 28  1  0  0  0  0
M  END
>  <MODEL>
3

>  <REMARK>
 VINA RESULT:      -9.7      3.312      8.181
  Name = 
  5 active torsions:
  status: ('A' for Active; 'I' for Inactive)
    1  A    between atoms: C_2  and  N_6
    2  A    between atoms: C_2  and  C_23
    3  A    between atoms: C_13  and  C_18
    4  A    between atoms: C_23  and  O_31
    5  A    between atoms: C_24  and  O_31
                            x       y       z     vdW  Elec       q    Type
                         _______ _______ _______ _____ _____    ______ ____

>  <TORSDO>
F 5

$$$$
=
 OpenBabel11072412113D

 31 35  0  0  1  0  0  0  0  0999 V2000
  161.4470  206.7960  148.7620 C   0  0  0  0  0  0  0  0  0  0  0  0
  161.1620  202.4330  147.3100 N   0  0  0  0  0  0  0  0  0  0  0  0
  161.1400  206.1750  152.5700 C   0  0  0  0  0  3  0  0  0  0  0  0
  161.6840  209.6870  152.9350 C   0  0  0  0  0  3  0  0  0  0  0  0
  161.2060  206.8050  151.2350 N   0  0  0  0  0  0  0  0  0  0  0  0
  161.3840  203.8590  145.2600 C   0  0  0  0  0  1  0  0  0  0  0  0
  160.9740  201.5930  149.6650 C   0  0  0  0  0  1  0  0  0  0  0  0
  161.9400  210.2020  151.6560 C   0  0  0  0  0  3  0  0  0  0  0  0
  161.2980  206.1430  150.0460 C   0  0  0  0  0  0  0  0  0  0  0  0
  161.1920  204.7310  150.0850 C   0  0  0  0  0  3  0  0  0  0  0  0
  161.4420  206.0150  147.5880 C   0  0  0  0  0  3  0  0  0  0  0  0
  161.8270  209.2830  149.3170 C   0  0  0  0  0  0  0  0  0  0  0  0
  161.6810  208.1550  148.5030 C   0  0  0  0  0  3  0  0  0  0  0  0
  161.3140  204.6370  147.6920 C   0  0  0  0  0  0  0  0  0  0  0  0
  161.2870  203.6510  146.7310 C   0  0  0  0  0  0  0  0  0  0  0  0
  161.2060  204.0170  148.8960 C   0  0  0  0  0  0  0  0  0  0  0  0
  161.1390  208.1190  151.4430 C   0  0  0  0  0  0  0  0  0  0  0  0
  161.2090  207.2770  153.5460 N   0  0  0  0  0  0  0  0  0  0  0  0
  161.1590  208.4300  152.7300 C   0  0  0  0  0  0  0  0  0  0  0  0
  161.6440  209.2260  150.6970 C   0  0  0  0  0  0  0  0  0  0  0  0
  161.1130  202.6660  148.6430 C   0  0  0  0  0  0  0  0  0  0  0  0
  161.2020  211.3580  147.9920 N   0  0  0  0  0  2  0  0  0  0  0  0
  162.1950  210.5520  148.6350 C   0  0  0  0  0  0  0  0  0  0  0  0
  163.4030  210.9180  148.6070 O   0  0  0  0  0  0  0  0  0  0  0  0
  161.5210  212.5870  147.2800 C   0  0  2  0  0  3  0  0  0  0  0  0
  161.3210  213.7660  148.2110 C   0  0  0  0  0  1  0  0  0  0  0  0
  160.6150  212.7290  146.0680 C   0  0  0  0  0  2  0  0  0  0  0  0
  161.2430  213.5410  145.0860 O   0  0  0  0  0  0  0  0  0  0  0  0
  161.6460  212.2100  143.2640 O   0  0  0  0  0  0  0  0  0  0  0  0
  163.4560  213.3100  144.1350 O   0  0  0  0  0  1  0  0  0  0  0  0
  162.1010  212.9960  144.1340 C   0  0  0  0  0  0  0  0  0  0  0  0
  1  9  1  0  0  0  0
  2 21  1  0  0  0  0
  3 18  2  0  0  0  0
  5 17  1  0  0  0  0
  5  3  1  0  0  0  0
  6 15  1  0  0  0  0
  8  4  2  0  0  0  0
  9 10  2  0  0  0  0
  9  5  1  0  0  0  0
 11 14  2  0  0  0  0
 11  1  1  0  0  0  0
 12 20  2  0  0  0  0
 13  1  2  0  0  0  0
 13 12  1  0  0  0  0
 14 16  1  0  0  0  0
 15  2  2  0  0  0  0
 15 14  1  0  0  0  0
 16 10  1  0  0  0  0
 17 19  2  0  0  0  0
 19  4  1  0  0  0  0
 19 18  1  0  0  0  0
 20 17  1  0  0  0  0
 20  8  1  0  0  0  0
 21 16  2  0  0  0  0
 21  7  1  0  0  0  0
 22 23  1  0  0  0  0
 23 12  1  0  0  0  0
 24 23  2  0  0  0  0
 25 22  1  0  0  0  0
 25 26  1  1  0  0  0
 27 25  1  0  0  0  0
 28 27  1  0  0  0  0
 29 31  2  0  0  0  0
 31 30  1  0  0  0  0
 31 28  1  0  0  0  0
M  END
>  <MODEL>
4

>  <REMARK>
 VINA RESULT:      -9.3      4.262      6.528
  Name = 
  5 active torsions:
  status: ('A' for Active; 'I' for Inactive)
    1  A    between atoms: C_2  and  N_6
    2  A    between atoms: C_2  and  C_23
    3  A    between atoms: C_13  and  C_18
    4  A    between atoms: C_23  and  O_31
    5  A    between atoms: C_24  and  O_31
                            x       y       z     vdW  Elec       q    Type
                         _______ _______ _______ _____ _____    ______ ____

>  <TORSDO>
F 5

$$$$
=
 OpenBabel11072412113D

 31 35  0  0  1  0  0  0  0  0999 V2000
  161.1590  207.1510  151.7030 C   0  0  0  0  0  0  0  0  0  0  0  0
  160.6720  209.5440  155.6100 N   0  0  0  0  0  0  0  0  0  0  0  0
  160.7610  203.5790  153.1410 C   0  0  0  0  0  3  0  0  0  0  0  0
  160.9660  202.4610  149.7540 C   0  0  0  0  0  3  0  0  0  0  0  0
  161.0320  204.7320  152.2570 N   0  0  0  0  0  0  0  0  0  0  0  0
  161.0760  211.2170  153.7890 C   0  0  0  0  0  1  0  0  0  0  0  0
  160.3230  207.4410  156.9310 C   0  0  0  0  0  1  0  0  0  0  0  0
  161.0220  203.6030  148.9420 C   0  0  0  0  0  3  0  0  0  0  0  0
  160.9700  206.0450  152.6190 C   0  0  0  0  0  0  0  0  0  0  0  0
  160.7510  206.3250  153.9900 C   0  0  0  0  0  3  0  0  0  0  0  0
  161.1610  208.4680  152.2060 C   0  0  0  0  0  3  0  0  0  0  0  0
  161.2670  206.0710  149.3660 C   0  0  0  0  0  0  0  0  0  0  0  0
  161.2740  207.1080  150.3050 C   0  0  0  0  0  3  0  0  0  0  0  0
  160.9620  208.6760  153.5630 C   0  0  0  0  0  0  0  0  0  0  0  0
  160.9080  209.8330  154.3090 C   0  0  0  0  0  0  0  0  0  0  0  0
  160.7520  207.6440  154.4210 C   0  0  0  0  0  0  0  0  0  0  0  0
  161.3590  204.2190  151.0720 C   0  0  0  0  0  0  0  0  0  0  0  0
  160.7980  202.3850  152.2780 N   0  0  0  0  0  0  0  0  0  0  0  0
  161.2220  202.9030  151.0340 C   0  0  0  0  0  0  0  0  0  0  0  0
  161.2280  204.7310  149.7460 C   0  0  0  0  0  0  0  0  0  0  0  0
  160.5770  208.1940  155.6720 C   0  0  0  0  0  0  0  0  0  0  0  0
  161.3170  205.4870  146.8950 N   0  0  0  0  0  2  0  0  0  0  0  0
  161.2940  206.4710  147.9340 C   0  0  0  0  0  0  0  0  0  0  0  0
  161.3160  207.6960  147.6280 O   0  0  0  0  0  0  0  0  0  0  0  0
  161.3840  205.8310  145.4820 C   0  0  2  0  0  3  0  0  0  0  0  0
  160.0050  206.2470  145.0070 C   0  0  0  0  0  1  0  0  0  0  0  0
  161.8620  204.6310  144.6820 C   0  0  0  0  0  2  0  0  0  0  0  0
  161.8370  203.4660  145.4920 O   0  0  0  0  0  0  0  0  0  0  0  0
  159.8930  202.7060  144.5470 O   0  0  0  0  0  0  0  0  0  0  0  0
  160.7960  201.3980  146.1950 O   0  0  0  0  0  1  0  0  0  0  0  0
  160.8130  202.5290  145.3850 C   0  0  0  0  0  0  0  0  0  0  0  0
  1 11  1  0  0  0  0
  1  9  1  0  0  0  0
  2 21  1  0  0  0  0
  4 19  1  0  0  0  0
  5  9  1  0  0  0  0
  5  3  1  0  0  0  0
  6 15  1  0  0  0  0
  8 20  1  0  0  0  0
  8  4  2  0  0  0  0
  9 10  2  0  0  0  0
 10 16  1  0  0  0  0
 11 14  2  0  0  0  0
 12 20  2  0  0  0  0
 12 13  1  0  0  0  0
 13  1  2  0  0  0  0
 14 15  1  0  0  0  0
 14 16  1  0  0  0  0
 15  2  2  0  0  0  0
 16 21  2  0  0  0  0
 17  5  1  0  0  0  0
 18  3  2  0  0  0  0
 19 17  2  0  0  0  0
 19 18  1  0  0  0  0
 20 17  1  0  0  0  0
 21  7  1  0  0  0  0
 22 23  1  0  0  0  0
 23 12  1  0  0  0  0
 24 23  2  0  0  0  0
 25 26  1  6  0  0  0
 25 22  1  0  0  0  0
 27 25  1  0  0  0  0
 27 28  1  0  0  0  0
 29 31  2  0  0  0  0
 31 28  1  0  0  0  0
 31 30  1  0  0  0  0
M  END
>  <MODEL>
5

>  <REMARK>
 VINA RESULT:      -8.9      3.796      8.929
  Name = 
  5 active torsions:
  status: ('A' for Active; 'I' for Inactive)
    1  A    between atoms: C_2  and  N_6
    2  A    between atoms: C_2  and  C_23
    3  A    between atoms: C_13  and  C_18
    4  A    between atoms: C_23  and  O_31
    5  A    between atoms: C_24  and  O_31
                            x       y       z     vdW  Elec       q    Type
                         _______ _______ _______ _____ _____    ______ ____

>  <TORSDO>
F 5

$$$$
=
 OpenBabel11072412113D

 31 35  0  0  1  0  0  0  0  0999 V2000
  161.6770  206.6620  149.2750 C   0  0  0  0  0  0  0  0  0  0  0  0
  161.8500  210.9240  151.0170 N   0  0  0  0  0  0  0  0  0  0  0  0
  161.0150  204.7080  152.5510 C   0  0  0  0  0  3  0  0  0  0  0  0
  160.7610  201.8100  150.4780 C   0  0  0  0  0  3  0  0  0  0  0  0
  161.3290  205.0720  151.1530 N   0  0  0  0  0  0  0  0  0  0  0  0
  162.2630  211.1370  148.5540 C   0  0  0  0  0  1  0  0  0  0  0  0
  161.3930  210.0670  153.3290 C   0  0  0  0  0  1  0  0  0  0  0  0
  160.8660  202.2400  149.1480 C   0  0  0  0  0  3  0  0  0  0  0  0
  161.4530  206.3420  150.6700 C   0  0  0  0  0  0  0  0  0  0  0  0
  161.4020  207.3980  151.6120 C   0  0  0  0  0  3  0  0  0  0  0  0
  161.8780  208.0060  148.9020 C   0  0  0  0  0  3  0  0  0  0  0  0
  161.4320  204.4210  148.0280 C   0  0  0  0  0  0  0  0  0  0  0  0
  161.6500  205.7950  148.1720 C   0  0  0  0  0  3  0  0  0  0  0  0
  161.8380  208.9930  149.8760 C   0  0  0  0  0  0  0  0  0  0  0  0
  161.9890  210.3600  149.7940 C   0  0  0  0  0  0  0  0  0  0  0  0
  161.5960  208.7010  151.1800 C   0  0  0  0  0  0  0  0  0  0  0  0
  161.4780  203.9230  150.4970 C   0  0  0  0  0  0  0  0  0  0  0  0
  160.8310  203.2460  152.5610 N   0  0  0  0  0  0  0  0  0  0  0  0
  161.1880  202.8700  151.2460 C   0  0  0  0  0  0  0  0  0  0  0  0
  161.2780  203.5790  149.1270 C   0  0  0  0  0  0  0  0  0  0  0  0
  161.6080  209.8960  151.8660 C   0  0  0  0  0  0  0  0  0  0  0  0
  160.3250  203.0030  146.2340 N   0  0  0  0  0  2  0  0  0  0  0  0
  161.3650  203.9010  146.6360 C   0  0  0  0  0  0  0  0  0  0  0  0
  162.2480  204.2400  145.8000 O   0  0  0  0  0  0  0  0  0  0  0  0
  160.2430  202.4390  144.8950 C   0  0  2  0  0  3  0  0  0  0  0  0
  159.2980  203.2800  144.0590 C   0  0  0  0  0  1  0  0  0  0  0  0
  159.7290  201.0110  144.9680 C   0  0  0  0  0  2  0  0  0  0  0  0
  160.7840  200.1010  144.6950 O   0  0  0  0  0  0  0  0  0  0  0  0
  161.2150  197.9410  145.3290 O   0  0  0  0  0  0  0  0  0  0  0  0
  161.5810  199.5530  146.9130 O   0  0  0  0  0  1  0  0  0  0  0  0
  161.1940  199.1600  145.6360 C   0  0  0  0  0  0  0  0  0  0  0  0
  1  9  1  0  0  0  0
  2 21  1  0  0  0  0
  3 18  2  0  0  0  0
  4 19  1  0  0  0  0
  5  3  1  0  0  0  0
  6 15  1  0  0  0  0
  8  4  2  0  0  0  0
  9  5  1  0  0  0  0
  9 10  2  0  0  0  0
 11  1  1  0  0  0  0
 11 14  2  0  0  0  0
 12 13  1  0  0  0  0
 12 20  2  0  0  0  0
 13  1  2  0  0  0  0
 14 16  1  0  0  0  0
 15 14  1  0  0  0  0
 15  2  2  0  0  0  0
 16 10  1  0  0  0  0
 16 21  2  0  0  0  0
 17  5  1  0  0  0  0
 17 19  2  0  0  0  0
 19 18  1  0  0  0  0
 20  8  1  0  0  0  0
 20 17  1  0  0  0  0
 21  7  1  0  0  0  0
 22 23  1  0  0  0  0
 23 12  1  0  0  0  0
 24 23  2  0  0  0  0
 25 26  1  6  0  0  0
 25 27  1  0  0  0  0
 25 22  1  0  0  0  0
 28 27  1  0  0  0  0
 28 31  1  0  0  0  0
 29 31  2  0  0  0  0
 31 30  1  0  0  0  0
M  END
>  <MODEL>
6

>  <REMARK>
 VINA RESULT:      -8.2      4.641      9.397
  Name = 
  5 active torsions:
  status: ('A' for Active; 'I' for Inactive)
    1  A    between atoms: C_2  and  N_6
    2  A    between atoms: C_2  and  C_23
    3  A    between atoms: C_13  and  C_18
    4  A    between atoms: C_23  and  O_31
    5  A    between atoms: C_24  and  O_31
                            x       y       z     vdW  Elec       q    Type
                         _______ _______ _______ _____ _____    ______ ____

>  <TORSDO>
F 5

$$$$
=
 OpenBabel11072412113D

 31 35  0  0  1  0  0  0  0  0999 V2000
  160.8350  209.7220  151.7570 C   0  0  0  0  0  0  0  0  0  0  0  0
  159.2000  213.5310  153.7690 N   0  0  0  0  0  0  0  0  0  0  0  0
  160.4740  207.2760  154.7340 C   0  0  0  0  0  3  0  0  0  0  0  0
  161.5850  204.7470  152.4680 C   0  0  0  0  0  3  0  0  0  0  0  0
  160.8280  207.8940  153.4390 N   0  0  0  0  0  0  0  0  0  0  0  0
  159.8500  214.1740  151.4360 C   0  0  0  0  0  1  0  0  0  0  0  0
  158.7650  212.2930  155.9060 C   0  0  0  0  0  1  0  0  0  0  0  0
  161.7140  205.3460  151.2070 C   0  0  0  0  0  3  0  0  0  0  0  0
  160.5490  209.1760  153.0670 C   0  0  0  0  0  0  0  0  0  0  0  0
  159.9860  210.0250  154.0510 C   0  0  0  0  0  3  0  0  0  0  0  0
  160.5850  211.0880  151.5110 C   0  0  0  0  0  3  0  0  0  0  0  0
  161.6000  207.7070  150.3460 C   0  0  0  0  0  0  0  0  0  0  0  0
  161.2810  209.0430  150.6130 C   0  0  0  0  0  3  0  0  0  0  0  0
  160.0520  211.8720  152.5230 C   0  0  0  0  0  0  0  0  0  0  0  0
  159.7060  213.2050  152.5560 C   0  0  0  0  0  0  0  0  0  0  0  0
  159.7510  211.3570  153.7440 C   0  0  0  0  0  0  0  0  0  0  0  0
  161.4760  206.9580  152.7480 C   0  0  0  0  0  0  0  0  0  0  0  0
  160.8340  205.8510  154.6180 N   0  0  0  0  0  0  0  0  0  0  0  0
  161.4850  205.7870  153.3650 C   0  0  0  0  0  0  0  0  0  0  0  0
  161.6100  206.7360  151.3440 C   0  0  0  0  0  0  0  0  0  0  0  0
  159.2310  212.3870  154.4950 C   0  0  0  0  0  0  0  0  0  0  0  0
  161.3680  206.2110  148.3060 N   0  0  0  0  0  2  0  0  0  0  0  0
  161.9240  207.3710  148.9340 C   0  0  0  0  0  0  0  0  0  0  0  0
  162.7150  208.1080  148.2820 O   0  0  0  0  0  0  0  0  0  0  0  0
  161.6870  205.8220  146.9400 C   0  0  2  0  0  3  0  0  0  0  0  0
  160.5340  206.2040  146.0330 C   0  0  0  0  0  1  0  0  0  0  0  0
  161.9170  204.3210  146.8730 C   0  0  0  0  0  2  0  0  0  0  0  0
  161.5260  203.7140  148.0960 O   0  0  0  0  0  0  0  0  0  0  0  0
  160.3690  202.0660  149.1890 O   0  0  0  0  0  1  0  0  0  0  0  0
  160.8320  201.6830  146.9790 O   0  0  0  0  0  0  0  0  0  0  0  0
  160.8920  202.4750  148.1210 C   0  0  0  0  0  0  0  0  0  0  0  0
  1  9  1  0  0  0  0
  2 21  1  0  0  0  0
  4 19  1  0  0  0  0
  5  3  1  0  0  0  0
  6 15  1  0  0  0  0
  8 20  1  0  0  0  0
  8  4  2  0  0  0  0
  9  5  1  0  0  0  0
  9 10  2  0  0  0  0
 11  1  1  0  0  0  0
 11 14  2  0  0  0  0
 12 13  1  0  0  0  0
 12 20  2  0  0  0  0
 13  1  2  0  0  0  0
 14 15  1  0  0  0  0
 14 16  1  0  0  0  0
 15  2  2  0  0  0  0
 16 10  1  0  0  0  0
 16 21  2  0  0  0  0
 17 19  2  0  0  0  0
 17  5  1  0  0  0  0
 18  3  2  0  0  0  0
 19 18  1  0  0  0  0
 20 17  1  0  0  0  0
 21  7  1  0  0  0  0
 22 23  1  0  0  0  0
 23 12  1  0  0  0  0
 24 23  2  0  0  0  0
 25 26  1  6  0  0  0
 25 22  1  0  0  0  0
 27 25  1  0  0  0  0
 27 28  1  0  0  0  0
 28 31  1  0  0  0  0
 30 31  2  0  0  0  0
 31 29  1  0  0  0  0
M  END
>  <MODEL>
7

>  <REMARK>
 VINA RESULT:      -7.8      3.468      8.811
  Name = 
  5 active torsions:
  status: ('A' for Active; 'I' for Inactive)
    1  A    between atoms: C_2  and  N_6
    2  A    between atoms: C_2  and  C_23
    3  A    between atoms: C_13  and  C_18
    4  A    between atoms: C_23  and  O_31
    5  A    between atoms: C_24  and  O_31
                            x       y       z     vdW  Elec       q    Type
                         _______ _______ _______ _____ _____    ______ ____

>  <TORSDO>
F 5

$$$$
=
 OpenBabel11072412113D

 31 35  0  0  1  0  0  0  0  0999 V2000
  161.4610  209.5320  152.2090 C   0  0  0  0  0  0  0  0  0  0  0  0
  160.3850  209.4450  156.6890 N   0  0  0  0  0  0  0  0  0  0  0  0
  161.0520  205.7630  151.4270 C   0  0  0  0  0  3  0  0  0  0  0  0
  161.7270  206.6490  148.0330 C   0  0  0  0  0  3  0  0  0  0  0  0
  161.3780  207.2030  151.3490 N   0  0  0  0  0  0  0  0  0  0  0  0
  160.9340  211.8250  156.1280 C   0  0  0  0  0  1  0  0  0  0  0  0
  159.9720  206.9730  156.6070 C   0  0  0  0  0  1  0  0  0  0  0  0
  161.8300  208.0460  147.9810 C   0  0  0  0  0  3  0  0  0  0  0  0
  161.2110  208.1130  152.3510 C   0  0  0  0  0  0  0  0  0  0  0  0
  160.8120  207.6130  153.6140 C   0  0  0  0  0  3  0  0  0  0  0  0
  161.3410  210.3680  153.3380 C   0  0  0  0  0  3  0  0  0  0  0  0
  161.9070  209.8850  149.6960 C   0  0  0  0  0  0  0  0  0  0  0  0
  161.7510  210.2490  151.0380 C   0  0  0  0  0  3  0  0  0  0  0  0
  160.9660  209.8140  154.5540 C   0  0  0  0  0  0  0  0  0  0  0  0
  160.7670  210.3850  155.7920 C   0  0  0  0  0  0  0  0  0  0  0  0
  160.6980  208.4890  154.6840 C   0  0  0  0  0  0  0  0  0  0  0  0
  161.8730  207.4030  150.1280 C   0  0  0  0  0  0  0  0  0  0  0  0
  161.2500  205.2250  150.0700 N   0  0  0  0  0  0  0  0  0  0  0  0
  161.8010  206.3210  149.3690 C   0  0  0  0  0  0  0  0  0  0  0  0
  161.8840  208.5540  149.2850 C   0  0  0  0  0  0  0  0  0  0  0  0
  160.3450  208.2790  155.9990 C   0  0  0  0  0  0  0  0  0  0  0  0
  160.9710  211.7120  148.2010 N   0  0  0  0  0  2  0  0  0  0  0  0
  162.0940  210.9940  148.7240 C   0  0  0  0  0  0  0  0  0  0  0  0
  163.2570  211.2990  148.3400 O   0  0  0  0  0  0  0  0  0  0  0  0
  161.1030  212.7790  147.2190 C   0  0  2  0  0  3  0  0  0  0  0  0
  161.0330  214.1170  147.9270 C   0  0  0  0  0  1  0  0  0  0  0  0
  159.9830  212.6790  146.1970 C   0  0  0  0  0  2  0  0  0  0  0  0
  158.8470  213.4000  146.6500 O   0  0  0  0  0  0  0  0  0  0  0  0
  157.0020  212.1400  146.1370 O   0  0  0  0  0  0  0  0  0  0  0  0
  157.2240  212.7640  148.3290 O   0  0  0  0  0  1  0  0  0  0  0  0
  157.6700  212.7490  147.0110 C   0  0  0  0  0  0  0  0  0  0  0  0
  1  9  1  0  0  0  0
  1 11  1  0  0  0  0
  4 19  1  0  0  0  0
  5  3  1  0  0  0  0
  5  9  1  0  0  0  0
  8  4  2  0  0  0  0
  8 20  1  0  0  0  0
  9 10  2  0  0  0  0
 10 16  1  0  0  0  0
 11 14  2  0  0  0  0
 12 13  1  0  0  0  0
 13  1  2  0  0  0  0
 14 16  1  0  0  0  0
 14 15  1  0  0  0  0
 15  6  1  0  0  0  0
 15  2  2  0  0  0  0
 16 21  2  0  0  0  0
 17  5  1  0  0  0  0
 18  3  2  0  0  0  0
 19 18  1  0  0  0  0
 19 17  2  0  0  0  0
 20 12  2  0  0  0  0
 20 17  1  0  0  0  0
 21  7  1  0  0  0  0
 21  2  1  0  0  0  0
 22 23  1  0  0  0  0
 23 12  1  0  0  0  0
 24 23  2  0  0  0  0
 25 26  1  1  0  0  0
 25 22  1  0  0  0  0
 27 28  1  0  0  0  0
 27 25  1  0  0  0  0
 28 31  1  0  0  0  0
 29 31  2  0  0  0  0
 31 30  1  0  0  0  0
M  END
>  <MODEL>
8

>  <REMARK>
 VINA RESULT:      -7.8      4.065      8.162
  Name = 
  5 active torsions:
  status: ('A' for Active; 'I' for Inactive)
    1  A    between atoms: C_2  and  N_6
    2  A    between atoms: C_2  and  C_23
    3  A    between atoms: C_13  and  C_18
    4  A    between atoms: C_23  and  O_31
    5  A    between atoms: C_24  and  O_31
                            x       y       z     vdW  Elec       q    Type
                         _______ _______ _______ _____ _____    ______ ____

>  <TORSDO>
F 5

$$$$
=
 OpenBabel11072412113D

 31 35  0  0  1  0  0  0  0  0999 V2000
  161.4740  209.6530  152.3760 C   0  0  0  0  0  0  0  0  0  0  0  0
  160.3630  209.4370  156.8420 N   0  0  0  0  0  0  0  0  0  0  0  0
  161.2060  205.8890  151.5150 C   0  0  0  0  0  3  0  0  0  0  0  0
  161.8780  206.8670  148.1450 C   0  0  0  0  0  3  0  0  0  0  0  0
  161.4810  207.3400  151.4680 N   0  0  0  0  0  0  0  0  0  0  0  0
  160.8310  211.8460  156.3350 C   0  0  0  0  0  1  0  0  0  0  0  0
  160.0380  206.9540  156.7070 C   0  0  0  0  0  1  0  0  0  0  0  0
  161.9320  208.2680  148.1220 C   0  0  0  0  0  3  0  0  0  0  0  0
  161.2730  208.2230  152.4860 C   0  0  0  0  0  0  0  0  0  0  0  0
  160.8810  207.6840  153.7360 C   0  0  0  0  0  3  0  0  0  0  0  0
  161.3140  210.4610  153.5200 C   0  0  0  0  0  3  0  0  0  0  0  0
  161.9290  210.0720  149.8750 C   0  0  0  0  0  0  0  0  0  0  0  0
  161.7480  210.4030  151.2220 C   0  0  0  0  0  3  0  0  0  0  0  0
  160.9480  209.8700  154.7210 C   0  0  0  0  0  0  0  0  0  0  0  0
  160.7180  210.4080  155.9680 C   0  0  0  0  0  0  0  0  0  0  0  0
  160.7270  208.5330  154.8220 C   0  0  0  0  0  0  0  0  0  0  0  0
  161.9790  207.5820  150.2560 C   0  0  0  0  0  0  0  0  0  0  0  0
  161.4350  205.3850  150.1490 N   0  0  0  0  0  0  0  0  0  0  0  0
  161.9520  206.5140  149.4750 C   0  0  0  0  0  0  0  0  0  0  0  0
  161.9560  208.7500  149.4360 C   0  0  0  0  0  0  0  0  0  0  0  0
  160.3700  208.2850  156.1290 C   0  0  0  0  0  0  0  0  0  0  0  0
  160.9720  212.0430  148.5890 N   0  0  0  0  0  2  0  0  0  0  0  0
  162.0840  211.2070  148.9270 C   0  0  0  0  0  0  0  0  0  0  0  0
  163.2090  211.4290  148.3970 O   0  0  0  0  0  0  0  0  0  0  0  0
  161.0690  213.1410  147.6380 C   0  0  2  0  0  3  0  0  0  0  0  0
  160.0590  214.2090  148.0080 C   0  0  0  0  0  1  0  0  0  0  0  0
  160.7860  212.6310  146.2340 C   0  0  0  0  0  2  0  0  0  0  0  0
  161.3680  213.5020  145.2750 O   0  0  0  0  0  0  0  0  0  0  0  0
  163.4330  213.1340  144.3500 O   0  0  0  0  0  1  0  0  0  0  0  0
  161.6340  212.4080  143.1330 O   0  0  0  0  0  0  0  0  0  0  0  0
  162.1840  213.0180  144.2560 C   0  0  0  0  0  0  0  0  0  0  0  0
  1  9  1  0  0  0  0
  1 11  1  0  0  0  0
  4 19  1  0  0  0  0
  5  3  1  0  0  0  0
  5  9  1  0  0  0  0
  8  4  2  0  0  0  0
  8 20  1  0  0  0  0
  9 10  2  0  0  0  0
 10 16  1  0  0  0  0
 11 14  2  0  0  0  0
 12 13  1  0  0  0  0
 13  1  2  0  0  0  0
 14 16  1  0  0  0  0
 14 15  1  0  0  0  0
 15  6  1  0  0  0  0
 15  2  2  0  0  0  0
 16 21  2  0  0  0  0
 17  5  1  0  0  0  0
 18  3  2  0  0  0  0
 19 18  1  0  0  0  0
 19 17  2  0  0  0  0
 20 12  2  0  0  0  0
 20 17  1  0  0  0  0
 21  7  1  0  0  0  0
 21  2  1  0  0  0  0
 22 23  1  0  0  0  0
 23 12  1  0  0  0  0
 24 23  2  0  0  0  0
 25 26  1  1  0  0  0
 25 22  1  0  0  0  0
 27 25  1  0  0  0  0
 28 27  1  0  0  0  0
 30 31  2  0  0  0  0
 31 29  1  0  0  0  0
 31 28  1  0  0  0  0
M  END
>  <MODEL>
9

>  <REMARK>
 VINA RESULT:      -7.6      4.382      8.441
  Name = 
  5 active torsions:
  status: ('A' for Active; 'I' for Inactive)
    1  A    between atoms: C_2  and  N_6
    2  A    between atoms: C_2  and  C_23
    3  A    between atoms: C_13  and  C_18
    4  A    between atoms: C_23  and  O_31
    5  A    between atoms: C_24  and  O_31
                            x       y       z     vdW  Elec       q    Type
                         _______ _______ _______ _____ _____    ______ ____

>  <TORSDO>
F 5

$$$$
