=
 OpenBabel11072412073D

 50 55  0  0  1  0  0  0  0  0999 V2000
  161.6120  209.4320  151.4100 C   0  0  1  0  0  0  0  0  0  0  0  0
  162.4590  209.4160  152.5330 O   0  0  0  0  0  0  0  0  0  0  0  0
  161.6750  210.5820  152.3600 C   0  0  2  0  0  3  0  0  0  0  0  0
  162.3470  209.5630  150.0900 C   0  0  0  0  0  1  0  0  0  0  0  0
  160.4750  208.5970  151.4880 O   0  0  0  0  0  0  0  0  0  0  0  0
  160.8620  207.3630  152.0310 C   0  0  0  0  0  2  0  0  0  0  0  0
  163.0720  206.2090  152.1320 C   0  0  0  0  0  1  0  0  0  0  0  0
  162.0250  206.8200  151.2200 C   0  0  1  0  0  3  0  0  0  0  0  0
  161.5500  205.8390  150.2560 N   0  0  0  0  0  2  0  0  0  0  0  0
  161.1760  206.2170  148.9310 C   0  0  0  0  0  0  0  0  0  0  0  0
  161.2960  207.4060  148.5490 O   0  0  0  0  0  0  0  0  0  0  0  0
  160.6710  205.1910  147.9840 C   0  0  0  0  0  2  0  0  0  0  0  0
  161.7700  204.3290  147.5480 N   0  0  0  0  0  0  0  0  0  0  0  0
  161.9800  205.6500  145.5070 C   0  0  0  0  0  2  0  0  0  0  0  0
  163.1040  204.6380  145.5320 C   0  0  0  0  0  2  0  0  0  0  0  0
  161.7400  204.2650  146.0870 C   0  0  0  0  0  3  0  0  0  0  0  0
  161.6310  202.9620  148.0930 C   0  0  2  0  0  3  0  0  0  0  0  0
  160.3000  202.2980  146.0690 C   0  0  0  0  0  3  0  0  0  0  0  0
  161.1780  201.9220  147.0910 C   0  0  0  0  0  0  0  0  0  0  0  0
  161.6170  200.5910  147.1660 C   0  0  0  0  0  3  0  0  0  0  0  0
  159.8610  201.3570  145.1320 C   0  0  0  0  0  3  0  0  0  0  0  0
  161.1820  199.6510  146.2280 C   0  0  0  0  0  3  0  0  0  0  0  0
  160.3030  200.0350  145.2100 C   0  0  0  0  0  3  0  0  0  0  0  0
  160.7920  202.9470  149.3660 C   0  0  0  0  0  2  0  0  0  0  0  0
  161.5150  202.3220  150.4230 O   0  0  0  0  0  0  0  0  0  0  0  0
  160.4660  203.4480  152.2570 C   0  0  0  0  0  2  0  0  0  0  0  0
  161.1120  202.3950  151.7580 C   0  0  0  0  0  3  0  0  0  0  0  0
  160.5560  210.5820  153.3170 N   0  0  0  0  0  0  0  0  0  0  0  0
  161.7370  209.8650  157.2600 S   0  0  0  0  0  0  0  0  0  0  0  0
  159.8720  208.1660  156.2220 C   0  0  0  0  0  2  0  0  0  0  0  0
  162.8410  210.8560  155.0740 O   0  0  0  0  0  0  0  0  0  0  0  0
  162.1800  207.4890  156.1250 O   0  0  0  0  0  1  0  0  0  0  0  0
  160.6960  209.9360  154.6030 C   0  0  0  0  0  0  0  0  0  0  0  0
  161.8020  210.3020  155.5200 C   0  0  0  0  0  0  0  0  0  0  0  0
  159.8620  208.9310  154.9250 C   0  0  0  0  0  3  0  0  0  0  0  0
  161.2310  208.1500  156.9110 C   0  0  1  0  0  3  0  0  0  0  0  0
  158.0300  212.8120  153.3420 N   0  0  0  0  0  0  0  0  0  0  0  0
  156.9500  213.5720  153.9040 C   0  0  0  0  0  0  0  0  0  0  0  0
  159.3020  211.8480  151.7540 O   0  0  0  0  0  0  0  0  0  0  0  0
  158.3430  213.9520  151.2030 C   0  0  0  0  0  2  0  0  0  0  0  0
  156.3560  214.4520  153.2180 O   0  0  0  0  0  0  0  0  0  0  0  0
  158.5370  212.9340  152.0320 C   0  0  0  0  0  0  0  0  0  0  0  0
  158.5140  211.6860  153.9390 O   0  0  0  0  0  0  0  0  0  0  0  0
  159.2140  210.9980  152.8930 C   0  0  2  0  0  3  0  0  0  0  0  0
  154.4380  212.9980  157.2550 C   0  0  0  0  0  2  0  0  0  0  0  0
  155.6090  214.4530  155.7990 C   0  0  0  0  0  2  0  0  0  0  0  0
  155.8740  211.9720  155.4880 C   0  0  0  0  0  2  0  0  0  0  0  0
  155.3310  211.8060  156.9050 C   0  0  0  0  0  2  0  0  0  0  0  0
  156.5460  213.3360  155.3290 C   0  0  1  0  0  3  0  0  0  0  0  0
  155.2190  214.2300  157.1920 N   0  0  0  0  0  2  0  0  0  0  0  0
  1  4  1  6  0  0  0
  1  5  1  0  0  0  0
  1  3  1  0  0  0  0
  1  2  1  0  0  0  0
  3  2  1  0  0  0  0
  3 28  1  1  0  0  0
  5  6  1  0  0  0  0
  8  6  1  0  0  0  0
  8  7  1  1  0  0  0
  9  8  1  0  0  0  0
 10  9  1  0  0  0  0
 11 10  2  0  0  0  0
 12 10  1  0  0  0  0
 13 12  1  0  0  0  0
 13 17  1  0  0  0  0
 14 15  1  0  0  0  0
 14 16  1  0  0  0  0
 15 16  1  0  0  0  0
 16 13  1  0  0  0  0
 17 24  1  1  0  0  0
 18 19  1  0  0  0  0
 19 20  2  0  0  0  0
 19 17  1  0  0  0  0
 21 23  1  0  0  0  0
 21 18  2  0  0  0  0
 22 20  1  0  0  0  0
 23 22  2  0  0  0  0
 24 25  1  0  0  0  0
 25 27  1  0  0  0  0
 27 26  2  0  0  0  0
 28 33  1  0  0  0  0
 30 36  1  0  0  0  0
 31 34  2  0  0  0  0
 33 35  2  0  0  0  0
 33 34  1  0  0  0  0
 34 29  1  0  0  0  0
 35 30  1  0  0  0  0
 36 32  1  6  0  0  0
 36 29  1  0  0  0  0
 37 38  1  0  0  0  0
 37 43  1  0  0  0  0
 39 42  1  0  0  0  0
 39 44  1  0  0  0  0
 40 42  2  0  0  0  0
 41 38  2  0  0  0  0
 42 37  1  0  0  0  0
 44 28  1  1  0  0  0
 44 43  1  0  0  0  0
 46 50  1  0  0  0  0
 47 48  1  0  0  0  0
 48 45  1  0  0  0  0
 49 38  1  6  0  0  0
 49 47  1  0  0  0  0
 49 46  1  0  0  0  0
 50 45  1  0  0  0  0
M  END
>  <MODEL>
1

>  <REMARK>
 VINA RESULT:      -6.2      0.000      0.000
  Name = 
  16 active torsions:
  status: ('A' for Active; 'I' for Inactive)
    1  A    between atoms: N_2  and  C_37
    2  A    between atoms: C_5  and  C_10
    3  A    between atoms: C_10  and  N_38
    4  A    between atoms: C_10  and  C_43
    5  A    between atoms: C_13  and  C_36
    6  A    between atoms: C_22  and  N_38
    7  A    between atoms: C_25  and  N_29
    8  A    between atoms: O_26  and  C_30
    9  A    between atoms: O_26  and  C_34
   10  A    between atoms: C_27  and  C_35
   11  A    between atoms: N_29  and  C_48
   12  A    between atoms: N_29  and  C_50
   13  A    between atoms: C_33  and  O_47
   14  A    between atoms: C_34  and  C_37
   15  A    between atoms: C_35  and  N_38
   16  A    between atoms: C_43  and  O_47
                            x       y       z     vdW  Elec       q    Type
                         _______ _______ _______ _____ _____    ______ ____

>  <TORSDO>
F 16

$$$$
=
 OpenBabel11072412073D

 50 55  0  0  1  0  0  0  0  0999 V2000
  161.8190  207.2800  151.8070 C   0  0  1  0  0  0  0  0  0  0  0  0
  160.4120  207.2540  151.7700 O   0  0  0  0  0  0  0  0  0  0  0  0
  161.0000  207.4520  153.0430 C   0  0  2  0  0  3  0  0  0  0  0  0
  162.4630  205.9290  151.5670 C   0  0  0  0  0  1  0  0  0  0  0  0
  162.4250  208.4400  151.2730 O   0  0  0  0  0  0  0  0  0  0  0  0
  162.8060  208.1760  149.9490 C   0  0  0  0  0  2  0  0  0  0  0  0
  161.3350  208.4620  147.9540 C   0  0  0  0  0  1  0  0  0  0  0  0
  161.6030  207.6340  149.1980 C   0  0  1  0  0  3  0  0  0  0  0  0
  161.8160  206.2380  148.8460 N   0  0  0  0  0  2  0  0  0  0  0  0
  162.5040  205.8680  147.6510 C   0  0  0  0  0  0  0  0  0  0  0  0
  162.9880  206.7450  146.8960 O   0  0  0  0  0  0  0  0  0  0  0  0
  162.6790  204.4330  147.3120 C   0  0  0  0  0  2  0  0  0  0  0  0
  161.7680  204.0600  146.2300 N   0  0  0  0  0  0  0  0  0  0  0  0
  161.0760  205.7050  144.5650 C   0  0  0  0  0  2  0  0  0  0  0  0
  159.8850  204.8300  144.8880 C   0  0  0  0  0  2  0  0  0  0  0  0
  160.8760  205.1910  145.9830 C   0  0  0  0  0  3  0  0  0  0  0  0
  160.9580  202.8760  146.5920 C   0  0  2  0  0  3  0  0  0  0  0  0
  161.2590  201.2840  148.5100 C   0  0  0  0  0  3  0  0  0  0  0  0
  160.9150  202.5660  148.0720 C   0  0  0  0  0  0  0  0  0  0  0  0
  160.5350  203.5370  149.0140 C   0  0  0  0  0  3  0  0  0  0  0  0
  161.2230  200.9680  149.8720 C   0  0  0  0  0  3  0  0  0  0  0  0
  160.5020  203.2230  150.3750 C   0  0  0  0  0  3  0  0  0  0  0  0
  160.8460  201.9370  150.8040 C   0  0  0  0  0  3  0  0  0  0  0  0
  161.3350  201.6610  145.7530 C   0  0  0  0  0  2  0  0  0  0  0  0
  160.1800  201.1350  145.1050 O   0  0  0  0  0  0  0  0  0  0  0  0
  160.9010  198.8520  145.1740 C   0  0  0  0  0  2  0  0  0  0  0  0
  159.9520  199.7640  144.9670 C   0  0  0  0  0  3  0  0  0  0  0  0
  160.8720  208.8640  153.4410 N   0  0  0  0  0  0  0  0  0  0  0  0
  162.5360  209.1700  157.2600 S   0  0  0  0  0  0  0  0  0  0  0  0
  163.3850  210.9920  155.4150 C   0  0  0  0  0  2  0  0  0  0  0  0
  160.2370  208.3820  156.2250 O   0  0  0  0  0  0  0  0  0  0  0  0
  161.5920  211.6390  156.8860 O   0  0  0  0  0  1  0  0  0  0  0  0
  161.6240  209.3780  154.5640 C   0  0  0  0  0  0  0  0  0  0  0  0
  161.3470  208.9050  155.9420 C   0  0  0  0  0  0  0  0  0  0  0  0
  162.5200  210.3580  154.3570 C   0  0  0  0  0  3  0  0  0  0  0  0
  162.7890  210.9180  156.8160 C   0  0  1  0  0  3  0  0  0  0  0  0
  159.1590  211.7650  153.3490 N   0  0  0  0  0  0  0  0  0  0  0  0
  158.2800  212.7910  153.8340 C   0  0  0  0  0  0  0  0  0  0  0  0
  160.3190  210.5400  151.8580 O   0  0  0  0  0  0  0  0  0  0  0  0
  160.1330  212.8640  151.3960 C   0  0  0  0  0  2  0  0  0  0  0  0
  158.0940  213.8480  153.1660 O   0  0  0  0  0  0  0  0  0  0  0  0
  159.8800  211.7930  152.1380 C   0  0  0  0  0  0  0  0  0  0  0  0
  159.1820  210.5140  153.8890 O   0  0  0  0  0  0  0  0  0  0  0  0
  159.8010  209.7000  152.8830 C   0  0  2  0  0  3  0  0  0  0  0  0
  155.5770  213.4750  157.0100 C   0  0  0  0  0  2  0  0  0  0  0  0
  157.6430  213.9300  155.9460 C   0  0  0  0  0  2  0  0  0  0  0  0
  156.1600  212.1450  154.9790 C   0  0  0  0  0  2  0  0  0  0  0  0
  155.4350  212.1170  156.3220 C   0  0  0  0  0  2  0  0  0  0  0  0
  157.6030  212.6160  155.1600 C   0  0  1  0  0  3  0  0  0  0  0  0
  156.9900  213.7610  157.2440 N   0  0  0  0  0  2  0  0  0  0  0  0
  1  4  1  6  0  0  0
  1  3  1  0  0  0  0
  2  1  1  0  0  0  0
  2  3  1  0  0  0  0
  3 28  1  6  0  0  0
  5  1  1  0  0  0  0
  6  5  1  0  0  0  0
  8  7  1  6  0  0  0
  8  6  1  0  0  0  0
  9  8  1  0  0  0  0
 10  9  1  0  0  0  0
 11 10  2  0  0  0  0
 12 10  1  0  0  0  0
 13 17  1  0  0  0  0
 13 12  1  0  0  0  0
 14 15  1  0  0  0  0
 14 16  1  0  0  0  0
 15 16  1  0  0  0  0
 16 13  1  0  0  0  0
 17 24  1  6  0  0  0
 17 19  1  0  0  0  0
 18 21  1  0  0  0  0
 19 18  2  0  0  0  0
 19 20  1  0  0  0  0
 20 22  2  0  0  0  0
 21 23  2  0  0  0  0
 22 23  1  0  0  0  0
 25 24  1  0  0  0  0
 27 25  1  0  0  0  0
 27 26  2  0  0  0  0
 28 33  1  0  0  0  0
 30 36  1  0  0  0  0
 33 34  1  0  0  0  0
 34 31  2  0  0  0  0
 34 29  1  0  0  0  0
 35 33  2  0  0  0  0
 35 30  1  0  0  0  0
 36 32  1  6  0  0  0
 36 29  1  0  0  0  0
 37 38  1  0  0  0  0
 37 43  1  0  0  0  0
 39 42  1  0  0  0  0
 39 44  1  0  0  0  0
 40 42  2  0  0  0  0
 41 38  2  0  0  0  0
 42 37  1  0  0  0  0
 44 28  1  1  0  0  0
 44 43  1  0  0  0  0
 45 50  1  0  0  0  0
 46 50  1  0  0  0  0
 47 49  1  0  0  0  0
 47 48  1  0  0  0  0
 48 45  1  0  0  0  0
 49 38  1  6  0  0  0
 49 46  1  0  0  0  0
M  END
>  <MODEL>
2

>  <REMARK>
 VINA RESULT:      -4.9      1.684      3.221
  Name = 
  16 active torsions:
  status: ('A' for Active; 'I' for Inactive)
    1  A    between atoms: N_2  and  C_37
    2  A    between atoms: C_5  and  C_10
    3  A    between atoms: C_10  and  N_38
    4  A    between atoms: C_10  and  C_43
    5  A    between atoms: C_13  and  C_36
    6  A    between atoms: C_22  and  N_38
    7  A    between atoms: C_25  and  N_29
    8  A    between atoms: O_26  and  C_30
    9  A    between atoms: O_26  and  C_34
   10  A    between atoms: C_27  and  C_35
   11  A    between atoms: N_29  and  C_48
   12  A    between atoms: N_29  and  C_50
   13  A    between atoms: C_33  and  O_47
   14  A    between atoms: C_34  and  C_37
   15  A    between atoms: C_35  and  N_38
   16  A    between atoms: C_43  and  O_47
                            x       y       z     vdW  Elec       q    Type
                         _______ _______ _______ _____ _____    ______ ____

>  <TORSDO>
F 16

$$$$
=
 OpenBabel11072412073D

 50 55  0  0  1  0  0  0  0  0999 V2000
  161.5680  209.6910  151.8570 C   0  0  1  0  0  0  0  0  0  0  0  0
  162.7070  209.9790  152.6310 O   0  0  0  0  0  0  0  0  0  0  0  0
  161.8230  211.0590  152.3970 C   0  0  2  0  0  3  0  0  0  0  0  0
  161.8680  209.4410  150.3930 C   0  0  0  0  0  1  0  0  0  0  0  0
  160.5690  208.9250  152.4990 O   0  0  0  0  0  0  0  0  0  0  0  0
  160.4160  207.7170  151.8030 C   0  0  0  0  0  2  0  0  0  0  0  0
  160.9930  205.7880  153.2770 C   0  0  0  0  0  1  0  0  0  0  0  0
  161.5150  206.7640  152.2380 C   0  0  1  0  0  3  0  0  0  0  0  0
  162.0460  206.0500  151.0870 N   0  0  0  0  0  2  0  0  0  0  0  0
  161.1850  205.4800  150.1010 C   0  0  0  0  0  0  0  0  0  0  0  0
  159.9410  205.6270  150.1790 O   0  0  0  0  0  0  0  0  0  0  0  0
  161.7630  204.7360  148.9550 C   0  0  0  0  0  2  0  0  0  0  0  0
  161.1480  203.4120  148.8560 N   0  0  0  0  0  0  0  0  0  0  0  0
  160.7450  202.5990  151.1220 C   0  0  0  0  0  2  0  0  0  0  0  0
  160.7590  201.4090  150.1880 C   0  0  0  0  0  2  0  0  0  0  0  0
  161.6900  202.5820  149.9300 C   0  0  0  0  0  3  0  0  0  0  0  0
  161.4460  202.7750  147.5550 C   0  0  2  0  0  3  0  0  0  0  0  0
  160.5170  203.6520  145.3930 C   0  0  0  0  0  3  0  0  0  0  0  0
  161.5030  203.7280  146.3810 C   0  0  0  0  0  0  0  0  0  0  0  0
  162.5250  204.6840  146.2610 C   0  0  0  0  0  3  0  0  0  0  0  0
  160.5480  204.5170  144.2940 C   0  0  0  0  0  3  0  0  0  0  0  0
  162.5550  205.5500  145.1660 C   0  0  0  0  0  3  0  0  0  0  0  0
  161.5650  205.4660  144.1810 C   0  0  0  0  0  3  0  0  0  0  0  0
  160.5350  201.5820  147.2930 C   0  0  0  0  0  2  0  0  0  0  0  0
  161.3130  200.4390  146.9460 O   0  0  0  0  0  0  0  0  0  0  0  0
  161.7500  198.6160  145.4550 C   0  0  0  0  0  2  0  0  0  0  0  0
  160.9230  199.5340  145.9560 C   0  0  0  0  0  3  0  0  0  0  0  0
  161.0400  211.3390  153.6130 N   0  0  0  0  0  0  0  0  0  0  0  0
  161.9430  209.5110  157.2590 S   0  0  0  0  0  0  0  0  0  0  0  0
  159.8550  208.4570  155.8550 C   0  0  0  0  0  2  0  0  0  0  0  0
  163.2750  210.7890  155.3700 O   0  0  0  0  0  0  0  0  0  0  0  0
  162.0180  207.4340  155.5840 O   0  0  0  0  0  1  0  0  0  0  0  0
  161.0230  210.3910  154.7050 C   0  0  0  0  0  0  0  0  0  0  0  0
  162.1420  210.3320  155.6760 C   0  0  0  0  0  0  0  0  0  0  0  0
  160.0210  209.4980  154.7800 C   0  0  0  0  0  3  0  0  0  0  0  0
  161.1670  208.0420  156.5120 C   0  0  1  0  0  3  0  0  0  0  0  0
  158.2410  212.8070  152.4450 N   0  0  0  0  0  0  0  0  0  0  0  0
  157.4070  213.4790  151.4890 C   0  0  0  0  0  0  0  0  0  0  0  0
  158.9590  212.0960  154.4570 O   0  0  0  0  0  0  0  0  0  0  0  0
  156.6030  212.2020  154.1550 C   0  0  0  0  0  2  0  0  0  0  0  0
  156.1960  213.7270  151.7530 O   0  0  0  0  0  0  0  0  0  0  0  0
  157.8480  212.3680  153.7250 C   0  0  0  0  0  0  0  0  0  0  0  0
  159.5970  212.7610  152.3190 O   0  0  0  0  0  0  0  0  0  0  0  0
  160.0690  212.4400  153.6350 C   0  0  2  0  0  3  0  0  0  0  0  0
  159.4800  213.1080  147.8240 C   0  0  0  0  0  2  0  0  0  0  0  0
  159.4860  213.6130  150.1380 C   0  0  0  0  0  2  0  0  0  0  0  0
  157.2930  213.0860  149.0280 C   0  0  0  0  0  2  0  0  0  0  0  0
  157.9790  213.3680  147.6940 C   0  0  0  0  0  2  0  0  0  0  0  0
  157.9750  213.8620  150.1550 C   0  0  1  0  0  3  0  0  0  0  0  0
  160.0450  213.9930  148.8400 N   0  0  0  0  0  2  0  0  0  0  0  0
  1  4  1  6  0  0  0
  1  3  1  0  0  0  0
  1  5  1  0  0  0  0
  1  2  1  0  0  0  0
  3  2  1  0  0  0  0
  3 28  1  1  0  0  0
  6  8  1  0  0  0  0
  6  5  1  0  0  0  0
  8  7  1  1  0  0  0
  9  8  1  0  0  0  0
 10 11  2  0  0  0  0
 10  9  1  0  0  0  0
 12 10  1  0  0  0  0
 13 12  1  0  0  0  0
 13 16  1  0  0  0  0
 15 14  1  0  0  0  0
 16 15  1  0  0  0  0
 16 14  1  0  0  0  0
 17 24  1  6  0  0  0
 17 13  1  0  0  0  0
 18 19  1  0  0  0  0
 19 17  1  0  0  0  0
 20 19  2  0  0  0  0
 21 18  2  0  0  0  0
 22 20  1  0  0  0  0
 23 21  1  0  0  0  0
 23 22  2  0  0  0  0
 25 24  1  0  0  0  0
 26 27  2  0  0  0  0
 27 25  1  0  0  0  0
 28 33  1  0  0  0  0
 30 36  1  0  0  0  0
 31 34  2  0  0  0  0
 33 35  2  0  0  0  0
 33 34  1  0  0  0  0
 34 29  1  0  0  0  0
 35 30  1  0  0  0  0
 36 32  1  6  0  0  0
 36 29  1  0  0  0  0
 37 42  1  0  0  0  0
 38 41  2  0  0  0  0
 38 37  1  0  0  0  0
 42 40  2  0  0  0  0
 42 39  1  0  0  0  0
 43 37  1  0  0  0  0
 43 44  1  0  0  0  0
 44 28  1  6  0  0  0
 44 39  1  0  0  0  0
 45 50  1  0  0  0  0
 46 49  1  0  0  0  0
 47 49  1  0  0  0  0
 48 45  1  0  0  0  0
 48 47  1  0  0  0  0
 49 38  1  1  0  0  0
 50 46  1  0  0  0  0
M  END
>  <MODEL>
3

>  <REMARK>
 VINA RESULT:      -4.8      1.685      4.086
  Name = 
  16 active torsions:
  status: ('A' for Active; 'I' for Inactive)
    1  A    between atoms: N_2  and  C_37
    2  A    between atoms: C_5  and  C_10
    3  A    between atoms: C_10  and  N_38
    4  A    between atoms: C_10  and  C_43
    5  A    between atoms: C_13  and  C_36
    6  A    between atoms: C_22  and  N_38
    7  A    between atoms: C_25  and  N_29
    8  A    between atoms: O_26  and  C_30
    9  A    between atoms: O_26  and  C_34
   10  A    between atoms: C_27  and  C_35
   11  A    between atoms: N_29  and  C_48
   12  A    between atoms: N_29  and  C_50
   13  A    between atoms: C_33  and  O_47
   14  A    between atoms: C_34  and  C_37
   15  A    between atoms: C_35  and  N_38
   16  A    between atoms: C_43  and  O_47
                            x       y       z     vdW  Elec       q    Type
                         _______ _______ _______ _____ _____    ______ ____

>  <TORSDO>
F 16

$$$$
=
 OpenBabel11072412073D

 50 55  0  0  1  0  0  0  0  0999 V2000
  161.4120  210.2420  151.8230 C   0  0  1  0  0  0  0  0  0  0  0  0
  162.4300  210.0030  152.7650 O   0  0  0  0  0  0  0  0  0  0  0  0
  161.8040  211.2700  152.8320 C   0  0  2  0  0  3  0  0  0  0  0  0
  161.9180  210.4140  150.4050 C   0  0  0  0  0  1  0  0  0  0  0  0
  160.1980  209.5550  152.0460 O   0  0  0  0  0  0  0  0  0  0  0  0
  160.4610  208.1780  152.0740 C   0  0  0  0  0  2  0  0  0  0  0  0
  162.6940  207.1630  151.6100 C   0  0  0  0  0  1  0  0  0  0  0  0
  161.4890  207.8600  151.0030 C   0  0  1  0  0  3  0  0  0  0  0  0
  160.8930  207.0350  149.9630 N   0  0  0  0  0  2  0  0  0  0  0  0
  161.4360  206.9930  148.6430 C   0  0  0  0  0  0  0  0  0  0  0  0
  162.4790  207.6320  148.3610 O   0  0  0  0  0  0  0  0  0  0  0  0
  160.7840  206.1600  147.6010 C   0  0  0  0  0  2  0  0  0  0  0  0
  161.6450  205.0290  147.2540 N   0  0  0  0  0  0  0  0  0  0  0  0
  163.6570  205.2710  145.8930 C   0  0  0  0  0  2  0  0  0  0  0  0
  162.9300  204.0230  145.4440 C   0  0  0  0  0  2  0  0  0  0  0  0
  162.1360  205.2380  145.8930 C   0  0  0  0  0  3  0  0  0  0  0  0
  160.9030  203.7510  147.3080 C   0  0  2  0  0  3  0  0  0  0  0  0
  161.1400  203.7800  149.8080 C   0  0  0  0  0  3  0  0  0  0  0  0
  160.9750  203.0330  148.6380 C   0  0  0  0  0  0  0  0  0  0  0  0
  160.8830  201.6340  148.7210 C   0  0  0  0  0  3  0  0  0  0  0  0
  161.2160  203.1410  151.0510 C   0  0  0  0  0  3  0  0  0  0  0  0
  160.9550  200.9960  149.9620 C   0  0  0  0  0  3  0  0  0  0  0  0
  161.1220  201.7510  151.1280 C   0  0  0  0  0  3  0  0  0  0  0  0
  161.2590  202.8440  146.1360 C   0  0  0  0  0  2  0  0  0  0  0  0
  160.1020  202.5890  145.3440 O   0  0  0  0  0  0  0  0  0  0  0  0
  160.4190  200.2170  145.2780 C   0  0  0  0  0  2  0  0  0  0  0  0
  159.7630  201.3110  144.8940 C   0  0  0  0  0  3  0  0  0  0  0  0
  160.8800  211.3130  153.9780 N   0  0  0  0  0  0  0  0  0  0  0  0
  161.5570  208.8190  157.2610 S   0  0  0  0  0  0  0  0  0  0  0  0
  159.4900  208.1320  155.6170 C   0  0  0  0  0  2  0  0  0  0  0  0
  163.0160  210.3530  155.6810 O   0  0  0  0  0  0  0  0  0  0  0  0
  161.6200  207.0770  155.2390 O   0  0  0  0  0  1  0  0  0  0  0  0
  160.7800  210.1860  154.8790 C   0  0  0  0  0  0  0  0  0  0  0  0
  161.8540  209.9020  155.8600 C   0  0  0  0  0  0  0  0  0  0  0  0
  159.7410  209.3420  154.7560 C   0  0  0  0  0  3  0  0  0  0  0  0
  160.7560  207.5460  156.2320 C   0  0  1  0  0  3  0  0  0  0  0  0
  158.0610  212.7940  152.8760 N   0  0  0  0  0  0  0  0  0  0  0  0
  157.2290  213.5280  151.9650 C   0  0  0  0  0  0  0  0  0  0  0  0
  158.7500  211.9120  154.8290 O   0  0  0  0  0  0  0  0  0  0  0  0
  156.4010  211.9670  154.4680 C   0  0  0  0  0  2  0  0  0  0  0  0
  156.0020  213.7070  152.2150 O   0  0  0  0  0  0  0  0  0  0  0  0
  157.6500  212.2170  154.0950 C   0  0  0  0  0  0  0  0  0  0  0  0
  159.4210  212.8060  152.7870 O   0  0  0  0  0  0  0  0  0  0  0  0
  159.8680  212.3730  154.0790 C   0  0  2  0  0  3  0  0  0  0  0  0
  158.9310  213.5260  148.0970 C   0  0  0  0  0  2  0  0  0  0  0  0
  159.1920  213.4300  150.4490 C   0  0  0  0  0  2  0  0  0  0  0  0
  156.8880  213.7930  149.5080 C   0  0  0  0  0  2  0  0  0  0  0  0
  157.5620  214.1990  148.2000 C   0  0  0  0  0  2  0  0  0  0  0  0
  157.8170  214.0600  150.6930 C   0  0  1  0  0  3  0  0  0  0  0  0
  159.7720  213.9530  149.2110 N   0  0  0  0  0  2  0  0  0  0  0  0
  1  4  1  6  0  0  0
  1  5  1  0  0  0  0
  1  2  1  0  0  0  0
  1  3  1  0  0  0  0
  2  3  1  0  0  0  0
  3 28  1  1  0  0  0
  5  6  1  0  0  0  0
  8  7  1  1  0  0  0
  8  6  1  0  0  0  0
  9  8  1  0  0  0  0
 10  9  1  0  0  0  0
 11 10  2  0  0  0  0
 12 10  1  0  0  0  0
 13 17  1  0  0  0  0
 13 12  1  0  0  0  0
 15 16  1  0  0  0  0
 15 14  1  0  0  0  0
 16 14  1  0  0  0  0
 16 13  1  0  0  0  0
 17 24  1  6  0  0  0
 17 19  1  0  0  0  0
 18 21  1  0  0  0  0
 19 20  1  0  0  0  0
 19 18  2  0  0  0  0
 20 22  2  0  0  0  0
 21 23  2  0  0  0  0
 22 23  1  0  0  0  0
 25 24  1  0  0  0  0
 27 26  2  0  0  0  0
 27 25  1  0  0  0  0
 28 33  1  0  0  0  0
 30 36  1  0  0  0  0
 31 34  2  0  0  0  0
 33 34  1  0  0  0  0
 34 29  1  0  0  0  0
 35 33  2  0  0  0  0
 35 30  1  0  0  0  0
 36 32  1  6  0  0  0
 36 29  1  0  0  0  0
 37 42  1  0  0  0  0
 38 41  2  0  0  0  0
 38 37  1  0  0  0  0
 42 40  2  0  0  0  0
 42 39  1  0  0  0  0
 43 37  1  0  0  0  0
 43 44  1  0  0  0  0
 44 28  1  6  0  0  0
 44 39  1  0  0  0  0
 45 48  1  0  0  0  0
 45 50  1  0  0  0  0
 46 49  1  0  0  0  0
 47 49  1  0  0  0  0
 48 47  1  0  0  0  0
 49 38  1  1  0  0  0
 50 46  1  0  0  0  0
M  END
>  <MODEL>
4

>  <REMARK>
 VINA RESULT:      -4.6      1.653      3.799
  Name = 
  16 active torsions:
  status: ('A' for Active; 'I' for Inactive)
    1  A    between atoms: N_2  and  C_37
    2  A    between atoms: C_5  and  C_10
    3  A    between atoms: C_10  and  N_38
    4  A    between atoms: C_10  and  C_43
    5  A    between atoms: C_13  and  C_36
    6  A    between atoms: C_22  and  N_38
    7  A    between atoms: C_25  and  N_29
    8  A    between atoms: O_26  and  C_30
    9  A    between atoms: O_26  and  C_34
   10  A    between atoms: C_27  and  C_35
   11  A    between atoms: N_29  and  C_48
   12  A    between atoms: N_29  and  C_50
   13  A    between atoms: C_33  and  O_47
   14  A    between atoms: C_34  and  C_37
   15  A    between atoms: C_35  and  N_38
   16  A    between atoms: C_43  and  O_47
                            x       y       z     vdW  Elec       q    Type
                         _______ _______ _______ _____ _____    ______ ____

>  <TORSDO>
F 16

$$$$
=
 OpenBabel11072412073D

 50 55  0  0  1  0  0  0  0  0999 V2000
  161.6060  209.6040  151.8530 C   0  0  1  0  0  0  0  0  0  0  0  0
  162.7210  209.9170  152.6520 O   0  0  0  0  0  0  0  0  0  0  0  0
  161.8260  210.9820  152.3850 C   0  0  2  0  0  3  0  0  0  0  0  0
  161.9470  209.3440  150.3990 C   0  0  0  0  0  1  0  0  0  0  0  0
  160.6030  208.8290  152.4770 O   0  0  0  0  0  0  0  0  0  0  0  0
  160.4670  207.6230  151.7730 C   0  0  0  0  0  2  0  0  0  0  0  0
  160.7930  205.7030  153.3340 C   0  0  0  0  0  1  0  0  0  0  0  0
  161.4640  206.6220  152.3300 C   0  0  1  0  0  3  0  0  0  0  0  0
  162.0600  205.8510  151.2490 N   0  0  0  0  0  2  0  0  0  0  0  0
  161.2850  205.4130  150.1330 C   0  0  0  0  0  0  0  0  0  0  0  0
  160.0750  205.7280  150.0330 O   0  0  0  0  0  0  0  0  0  0  0  0
  161.9210  204.6050  149.0620 C   0  0  0  0  0  2  0  0  0  0  0  0
  160.9500  203.6690  148.4970 N   0  0  0  0  0  0  0  0  0  0  0  0
  160.7090  202.3990  150.5680 C   0  0  0  0  0  2  0  0  0  0  0  0
  159.8330  201.7570  149.5150 C   0  0  0  0  0  2  0  0  0  0  0  0
  161.1690  202.3640  149.1190 C   0  0  0  0  0  3  0  0  0  0  0  0
  161.1130  203.5400  147.0330 C   0  0  2  0  0  3  0  0  0  0  0  0
  160.1470  201.8760  145.4200 C   0  0  0  0  0  3  0  0  0  0  0  0
  160.9940  202.1280  146.5040 C   0  0  0  0  0  0  0  0  0  0  0  0
  161.7120  201.0660  147.0780 C   0  0  0  0  0  3  0  0  0  0  0  0
  160.0130  200.5790  144.9130 C   0  0  0  0  0  3  0  0  0  0  0  0
  161.5820  199.7710  146.5700 C   0  0  0  0  0  3  0  0  0  0  0  0
  160.7310  199.5280  145.4870 C   0  0  0  0  0  3  0  0  0  0  0  0
  162.3770  204.2400  146.5460 C   0  0  0  0  0  2  0  0  0  0  0  0
  162.2850  204.4990  145.1480 O   0  0  0  0  0  0  0  0  0  0  0  0
  160.5190  206.1140  145.0600 C   0  0  0  0  0  2  0  0  0  0  0  0
  161.1460  205.0520  144.5560 C   0  0  0  0  0  3  0  0  0  0  0  0
  161.0090  211.2610  153.5780 N   0  0  0  0  0  0  0  0  0  0  0  0
  161.7030  209.4150  157.2610 S   0  0  0  0  0  0  0  0  0  0  0  0
  159.7430  208.3270  155.7060 C   0  0  0  0  0  2  0  0  0  0  0  0
  163.1310  210.7440  155.4790 O   0  0  0  0  0  0  0  0  0  0  0  0
  161.9430  207.3590  155.5750 O   0  0  0  0  0  1  0  0  0  0  0  0
  160.9400  210.3010  154.6570 C   0  0  0  0  0  0  0  0  0  0  0  0
  161.9910  210.2580  155.7020 C   0  0  0  0  0  0  0  0  0  0  0  0
  159.9570  209.3840  154.6550 C   0  0  0  0  0  3  0  0  0  0  0  0
  161.0160  207.9370  156.4480 C   0  0  1  0  0  3  0  0  0  0  0  0
  158.2370  212.7590  152.3820 N   0  0  0  0  0  0  0  0  0  0  0  0
  157.4170  213.4310  151.4140 C   0  0  0  0  0  0  0  0  0  0  0  0
  158.9390  212.0650  154.4060 O   0  0  0  0  0  0  0  0  0  0  0  0
  156.5860  212.2060  154.0960 C   0  0  0  0  0  2  0  0  0  0  0  0
  156.2100  213.7020  151.6710 O   0  0  0  0  0  0  0  0  0  0  0  0
  157.8340  212.3450  153.6670 C   0  0  0  0  0  0  0  0  0  0  0  0
  159.5930  212.6880  152.2600 O   0  0  0  0  0  0  0  0  0  0  0  0
  160.0560  212.3780  153.5820 C   0  0  2  0  0  3  0  0  0  0  0  0
  159.4920  212.9710  147.7600 C   0  0  0  0  0  2  0  0  0  0  0  0
  159.5010  213.5100  150.0670 C   0  0  0  0  0  2  0  0  0  0  0  0
  157.3010  213.0030  148.9590 C   0  0  0  0  0  2  0  0  0  0  0  0
  157.9950  213.2530  147.6230 C   0  0  0  0  0  2  0  0  0  0  0  0
  157.9940  213.7840  150.0760 C   0  0  1  0  0  3  0  0  0  0  0  0
  160.0680  213.8600  148.7640 N   0  0  0  0  0  2  0  0  0  0  0  0
  1  4  1  6  0  0  0
  1  3  1  0  0  0  0
  1  5  1  0  0  0  0
  1  2  1  0  0  0  0
  3  2  1  0  0  0  0
  3 28  1  1  0  0  0
  6  8  1  0  0  0  0
  6  5  1  0  0  0  0
  8  7  1  1  0  0  0
  9  8  1  0  0  0  0
 10  9  1  0  0  0  0
 11 10  2  0  0  0  0
 12 10  1  0  0  0  0
 13 12  1  0  0  0  0
 13 16  1  0  0  0  0
 15 14  1  0  0  0  0
 16 15  1  0  0  0  0
 16 14  1  0  0  0  0
 17 24  1  1  0  0  0
 17 13  1  0  0  0  0
 18 19  1  0  0  0  0
 19 17  1  0  0  0  0
 19 20  2  0  0  0  0
 21 18  2  0  0  0  0
 21 23  1  0  0  0  0
 22 20  1  0  0  0  0
 23 22  2  0  0  0  0
 25 24  1  0  0  0  0
 27 26  2  0  0  0  0
 27 25  1  0  0  0  0
 28 33  1  0  0  0  0
 30 36  1  0  0  0  0
 31 34  2  0  0  0  0
 33 34  1  0  0  0  0
 34 29  1  0  0  0  0
 35 33  2  0  0  0  0
 35 30  1  0  0  0  0
 36 32  1  6  0  0  0
 36 29  1  0  0  0  0
 37 42  1  0  0  0  0
 38 41  2  0  0  0  0
 38 37  1  0  0  0  0
 42 40  2  0  0  0  0
 42 39  1  0  0  0  0
 43 37  1  0  0  0  0
 43 44  1  0  0  0  0
 44 28  1  6  0  0  0
 44 39  1  0  0  0  0
 45 50  1  0  0  0  0
 46 49  1  0  0  0  0
 47 49  1  0  0  0  0
 48 45  1  0  0  0  0
 48 47  1  0  0  0  0
 49 38  1  1  0  0  0
 50 46  1  0  0  0  0
M  END
>  <MODEL>
5

>  <REMARK>
 VINA RESULT:      -4.4      1.673      3.888
  Name = 
  16 active torsions:
  status: ('A' for Active; 'I' for Inactive)
    1  A    between atoms: N_2  and  C_37
    2  A    between atoms: C_5  and  C_10
    3  A    between atoms: C_10  and  N_38
    4  A    between atoms: C_10  and  C_43
    5  A    between atoms: C_13  and  C_36
    6  A    between atoms: C_22  and  N_38
    7  A    between atoms: C_25  and  N_29
    8  A    between atoms: O_26  and  C_30
    9  A    between atoms: O_26  and  C_34
   10  A    between atoms: C_27  and  C_35
   11  A    between atoms: N_29  and  C_48
   12  A    between atoms: N_29  and  C_50
   13  A    between atoms: C_33  and  O_47
   14  A    between atoms: C_34  and  C_37
   15  A    between atoms: C_35  and  N_38
   16  A    between atoms: C_43  and  O_47
                            x       y       z     vdW  Elec       q    Type
                         _______ _______ _______ _____ _____    ______ ____

>  <TORSDO>
F 16

$$$$
=
 OpenBabel11072412073D

 50 55  0  0  1  0  0  0  0  0999 V2000
  161.5600  209.6690  151.4950 C   0  0  1  0  0  0  0  0  0  0  0  0
  162.3940  209.5520  152.6230 O   0  0  0  0  0  0  0  0  0  0  0  0
  161.6080  210.7280  152.5470 C   0  0  2  0  0  3  0  0  0  0  0  0
  162.3090  209.9210  150.2020 C   0  0  0  0  0  1  0  0  0  0  0  0
  160.4240  208.8280  151.4840 O   0  0  0  0  0  0  0  0  0  0  0  0
  160.8500  207.4990  151.6310 C   0  0  0  0  0  2  0  0  0  0  0  0
  163.1380  206.5690  151.2800 C   0  0  0  0  0  1  0  0  0  0  0  0
  161.9430  207.2260  150.6140 C   0  0  1  0  0  3  0  0  0  0  0  0
  161.4320  206.3880  149.5390 N   0  0  0  0  0  2  0  0  0  0  0  0
  161.5530  206.7760  148.1700 C   0  0  0  0  0  0  0  0  0  0  0  0
  162.1530  207.8340  147.8580 O   0  0  0  0  0  0  0  0  0  0  0  0
  160.9960  205.9080  147.1030 C   0  0  0  0  0  2  0  0  0  0  0  0
  161.8280  204.7150  146.9440 N   0  0  0  0  0  0  0  0  0  0  0  0
  161.3430  204.9480  144.5630 C   0  0  0  0  0  2  0  0  0  0  0  0
  162.1900  206.1260  144.9900 C   0  0  0  0  0  2  0  0  0  0  0  0
  162.4280  204.7600  145.6120 C   0  0  0  0  0  3  0  0  0  0  0  0
  161.0270  203.4790  147.0710 C   0  0  2  0  0  3  0  0  0  0  0  0
  160.7280  203.8150  149.5420 C   0  0  0  0  0  3  0  0  0  0  0  0
  160.9280  202.9300  148.4780 C   0  0  0  0  0  0  0  0  0  0  0  0
  161.0360  201.5540  148.7370 C   0  0  0  0  0  3  0  0  0  0  0  0
  160.6380  203.3350  150.8530 C   0  0  0  0  0  3  0  0  0  0  0  0
  160.9430  201.0740  150.0460 C   0  0  0  0  0  3  0  0  0  0  0  0
  160.7440  201.9660  151.1050 C   0  0  0  0  0  3  0  0  0  0  0  0
  161.4610  202.4220  146.0630 C   0  0  0  0  0  2  0  0  0  0  0  0
  160.3750  201.5440  145.7750 O   0  0  0  0  0  0  0  0  0  0  0  0
  161.5410  199.5050  146.2440 C   0  0  0  0  0  2  0  0  0  0  0  0
  160.5330  200.1600  145.6680 C   0  0  0  0  0  3  0  0  0  0  0  0
  160.4790  210.6370  153.4880 N   0  0  0  0  0  0  0  0  0  0  0  0
  162.0800  209.6140  157.2080 S   0  0  0  0  0  0  0  0  0  0  0  0
  159.6280  208.5760  156.6130 C   0  0  0  0  0  2  0  0  0  0  0  0
  163.0180  210.1960  154.8080 O   0  0  0  0  0  0  0  0  0  0  0  0
  161.5610  207.2110  156.1670 O   0  0  0  0  0  1  0  0  0  0  0  0
  160.6450  209.9890  154.7690 C   0  0  0  0  0  0  0  0  0  0  0  0
  161.9580  209.9980  155.4590 C   0  0  0  0  0  0  0  0  0  0  0  0
  159.6180  209.2970  155.2910 C   0  0  0  0  0  3  0  0  0  0  0  0
  161.0190  208.1410  157.0600 C   0  0  1  0  0  3  0  0  0  0  0  0
  157.9110  212.8060  153.2440 N   0  0  0  0  0  0  0  0  0  0  0  0
  156.8330  213.6290  153.7150 C   0  0  0  0  0  0  0  0  0  0  0  0
  159.1530  211.6210  151.7870 O   0  0  0  0  0  0  0  0  0  0  0  0
  158.1360  213.5970  150.9420 C   0  0  0  0  0  2  0  0  0  0  0  0
  156.2020  214.3810  152.9180 O   0  0  0  0  0  0  0  0  0  0  0  0
  158.3750  212.7260  151.9150 C   0  0  0  0  0  0  0  0  0  0  0  0
  158.4340  211.7960  153.9940 O   0  0  0  0  0  0  0  0  0  0  0  0
  159.1160  210.9620  153.0480 C   0  0  2  0  0  3  0  0  0  0  0  0
  154.7290  212.6940  157.2590 C   0  0  0  0  0  2  0  0  0  0  0  0
  155.0290  214.0780  155.3600 C   0  0  0  0  0  2  0  0  0  0  0  0
  156.6780  212.2240  155.7700 C   0  0  0  0  0  2  0  0  0  0  0  0
  156.1690  212.1840  157.2090 C   0  0  0  0  0  2  0  0  0  0  0  0
  156.4770  213.6160  155.1710 C   0  0  1  0  0  3  0  0  0  0  0  0
  154.6810  214.0740  156.7810 N   0  0  0  0  0  2  0  0  0  0  0  0
  1  4  1  6  0  0  0
  1  3  1  0  0  0  0
  1  2  1  0  0  0  0
  3  2  1  0  0  0  0
  3 28  1  1  0  0  0
  5  1  1  0  0  0  0
  5  6  1  0  0  0  0
  8  7  1  1  0  0  0
  8  6  1  0  0  0  0
  9  8  1  0  0  0  0
 10  9  1  0  0  0  0
 11 10  2  0  0  0  0
 12 10  1  0  0  0  0
 13 17  1  0  0  0  0
 13 12  1  0  0  0  0
 14 15  1  0  0  0  0
 14 16  1  0  0  0  0
 15 16  1  0  0  0  0
 16 13  1  0  0  0  0
 17 24  1  6  0  0  0
 17 19  1  0  0  0  0
 18 21  1  0  0  0  0
 19 20  1  0  0  0  0
 19 18  2  0  0  0  0
 20 22  2  0  0  0  0
 21 23  2  0  0  0  0
 22 23  1  0  0  0  0
 25 24  1  0  0  0  0
 27 25  1  0  0  0  0
 27 26  2  0  0  0  0
 28 33  1  0  0  0  0
 30 36  1  0  0  0  0
 31 34  2  0  0  0  0
 33 35  2  0  0  0  0
 33 34  1  0  0  0  0
 34 29  1  0  0  0  0
 35 30  1  0  0  0  0
 36 32  1  6  0  0  0
 36 29  1  0  0  0  0
 37 38  1  0  0  0  0
 37 43  1  0  0  0  0
 39 42  1  0  0  0  0
 39 44  1  0  0  0  0
 40 42  2  0  0  0  0
 41 38  2  0  0  0  0
 42 37  1  0  0  0  0
 44 28  1  1  0  0  0
 44 43  1  0  0  0  0
 46 50  1  0  0  0  0
 47 48  1  0  0  0  0
 48 45  1  0  0  0  0
 49 38  1  6  0  0  0
 49 46  1  0  0  0  0
 49 47  1  0  0  0  0
 50 45  1  0  0  0  0
M  END
>  <MODEL>
6

>  <REMARK>
 VINA RESULT:      -4.3      1.033      2.303
  Name = 
  16 active torsions:
  status: ('A' for Active; 'I' for Inactive)
    1  A    between atoms: N_2  and  C_37
    2  A    between atoms: C_5  and  C_10
    3  A    between atoms: C_10  and  N_38
    4  A    between atoms: C_10  and  C_43
    5  A    between atoms: C_13  and  C_36
    6  A    between atoms: C_22  and  N_38
    7  A    between atoms: C_25  and  N_29
    8  A    between atoms: O_26  and  C_30
    9  A    between atoms: O_26  and  C_34
   10  A    between atoms: C_27  and  C_35
   11  A    between atoms: N_29  and  C_48
   12  A    between atoms: N_29  and  C_50
   13  A    between atoms: C_33  and  O_47
   14  A    between atoms: C_34  and  C_37
   15  A    between atoms: C_35  and  N_38
   16  A    between atoms: C_43  and  O_47
                            x       y       z     vdW  Elec       q    Type
                         _______ _______ _______ _____ _____    ______ ____

>  <TORSDO>
F 16

$$$$
=
 OpenBabel11072412073D

 50 55  0  0  1  0  0  0  0  0999 V2000
  161.7690  206.8710  152.2610 C   0  0  1  0  0  0  0  0  0  0  0  0
  160.4080  207.0550  151.9550 O   0  0  0  0  0  0  0  0  0  0  0  0
  160.7890  207.3230  153.2920 C   0  0  2  0  0  3  0  0  0  0  0  0
  162.2010  205.4180  152.2840 C   0  0  0  0  0  1  0  0  0  0  0  0
  162.6510  207.8470  151.7430 O   0  0  0  0  0  0  0  0  0  0  0  0
  162.7790  207.6450  150.3610 C   0  0  0  0  0  2  0  0  0  0  0  0
  162.2340  209.3470  148.6200 C   0  0  0  0  0  1  0  0  0  0  0  0
  161.6640  208.3960  149.6560 C   0  0  1  0  0  3  0  0  0  0  0  0
  160.7410  207.4580  149.0350 N   0  0  0  0  0  2  0  0  0  0  0  0
  161.1050  206.7130  147.8730 C   0  0  0  0  0  0  0  0  0  0  0  0
  162.2570  206.8140  147.3860 O   0  0  0  0  0  0  0  0  0  0  0  0
  160.1270  205.7850  147.2520 C   0  0  0  0  0  2  0  0  0  0  0  0
  160.4920  204.4000  147.5510 N   0  0  0  0  0  0  0  0  0  0  0  0
  160.4700  204.3600  149.9910 C   0  0  0  0  0  2  0  0  0  0  0  0
  161.1540  203.1020  149.5040 C   0  0  0  0  0  2  0  0  0  0  0  0
  161.3380  204.4050  148.7430 C   0  0  0  0  0  3  0  0  0  0  0  0
  161.2370  203.7860  146.4310 C   0  0  2  0  0  3  0  0  0  0  0  0
  160.2060  201.8310  145.2380 C   0  0  0  0  0  3  0  0  0  0  0  0
  161.0260  202.2960  146.2710 C   0  0  0  0  0  0  0  0  0  0  0  0
  161.6320  201.3720  147.1370 C   0  0  0  0  0  3  0  0  0  0  0  0
  159.9890  200.4600  145.0690 C   0  0  0  0  0  3  0  0  0  0  0  0
  161.4190  200.0020  146.9670 C   0  0  0  0  0  3  0  0  0  0  0  0
  160.5960  199.5460  145.9320 C   0  0  0  0  0  3  0  0  0  0  0  0
  162.7130  204.1640  146.4650 C   0  0  0  0  0  2  0  0  0  0  0  0
  163.1010  204.7360  145.2190 O   0  0  0  0  0  0  0  0  0  0  0  0
  161.7380  206.1020  143.8010 C   0  0  0  0  0  2  0  0  0  0  0  0
  162.2090  204.9080  144.1580 C   0  0  0  0  0  3  0  0  0  0  0  0
  160.8400  208.7770  153.5170 N   0  0  0  0  0  0  0  0  0  0  0  0
  162.6500  209.2020  157.2580 S   0  0  0  0  0  0  0  0  0  0  0  0
  163.4490  210.9450  155.3170 C   0  0  0  0  0  2  0  0  0  0  0  0
  160.3050  208.4060  156.3390 O   0  0  0  0  0  0  0  0  0  0  0  0
  161.7200  211.6670  156.8280 O   0  0  0  0  0  1  0  0  0  0  0  0
  161.6390  209.3220  154.5920 C   0  0  0  0  0  0  0  0  0  0  0  0
  161.4100  208.9040  155.9960 C   0  0  0  0  0  0  0  0  0  0  0  0
  162.5380  210.2840  154.3160 C   0  0  0  0  0  3  0  0  0  0  0  0
  162.9040  210.9300  156.7400 C   0  0  1  0  0  3  0  0  0  0  0  0
  159.4780  211.8280  153.0790 N   0  0  0  0  0  0  0  0  0  0  0  0
  158.7070  212.9890  153.4270 C   0  0  0  0  0  0  0  0  0  0  0  0
  160.5390  210.3420  151.7620 O   0  0  0  0  0  0  0  0  0  0  0  0
  160.6390  212.6170  151.0790 C   0  0  0  0  0  2  0  0  0  0  0  0
  158.6670  213.9900  152.6560 O   0  0  0  0  0  0  0  0  0  0  0  0
  160.2380  211.6580  151.9050 C   0  0  0  0  0  0  0  0  0  0  0  0
  159.3380  210.6410  153.7340 O   0  0  0  0  0  0  0  0  0  0  0  0
  159.8920  209.6690  152.8370 C   0  0  2  0  0  3  0  0  0  0  0  0
  155.4560  213.1070  156.1250 C   0  0  0  0  0  2  0  0  0  0  0  0
  157.0430  214.2390  154.7800 C   0  0  0  0  0  2  0  0  0  0  0  0
  157.1710  211.7330  154.9400 C   0  0  0  0  0  2  0  0  0  0  0  0
  156.3060  211.8380  156.1930 C   0  0  0  0  0  2  0  0  0  0  0  0
  157.9700  213.0210  154.7310 C   0  0  1  0  0  3  0  0  0  0  0  0
  156.3270  214.2770  156.0550 N   0  0  0  0  0  2  0  0  0  0  0  0
  1  4  1  1  0  0  0
  1  3  1  0  0  0  0
  2  1  1  0  0  0  0
  2  3  1  0  0  0  0
  3 28  1  6  0  0  0
  5  1  1  0  0  0  0
  6  5  1  0  0  0  0
  8  7  1  6  0  0  0
  8  6  1  0  0  0  0
  9  8  1  0  0  0  0
 10  9  1  0  0  0  0
 11 10  2  0  0  0  0
 12 13  1  0  0  0  0
 12 10  1  0  0  0  0
 13 16  1  0  0  0  0
 15 14  1  0  0  0  0
 16 15  1  0  0  0  0
 16 14  1  0  0  0  0
 17 24  1  1  0  0  0
 17 13  1  0  0  0  0
 18 19  1  0  0  0  0
 19 17  1  0  0  0  0
 19 20  2  0  0  0  0
 21 18  2  0  0  0  0
 21 23  1  0  0  0  0
 22 20  1  0  0  0  0
 23 22  2  0  0  0  0
 25 24  1  0  0  0  0
 26 27  2  0  0  0  0
 27 25  1  0  0  0  0
 28 33  1  0  0  0  0
 30 36  1  0  0  0  0
 33 34  1  0  0  0  0
 34 31  2  0  0  0  0
 34 29  1  0  0  0  0
 35 33  2  0  0  0  0
 35 30  1  0  0  0  0
 36 32  1  6  0  0  0
 36 29  1  0  0  0  0
 37 38  1  0  0  0  0
 37 43  1  0  0  0  0
 39 42  1  0  0  0  0
 39 44  1  0  0  0  0
 40 42  2  0  0  0  0
 41 38  2  0  0  0  0
 42 37  1  0  0  0  0
 44 28  1  1  0  0  0
 44 43  1  0  0  0  0
 45 48  1  0  0  0  0
 46 50  1  0  0  0  0
 47 48  1  0  0  0  0
 49 38  1  6  0  0  0
 49 46  1  0  0  0  0
 49 47  1  0  0  0  0
 50 45  1  0  0  0  0
M  END
>  <MODEL>
7

>  <REMARK>
 VINA RESULT:      -4.2      1.662      3.121
  Name = 
  16 active torsions:
  status: ('A' for Active; 'I' for Inactive)
    1  A    between atoms: N_2  and  C_37
    2  A    between atoms: C_5  and  C_10
    3  A    between atoms: C_10  and  N_38
    4  A    between atoms: C_10  and  C_43
    5  A    between atoms: C_13  and  C_36
    6  A    between atoms: C_22  and  N_38
    7  A    between atoms: C_25  and  N_29
    8  A    between atoms: O_26  and  C_30
    9  A    between atoms: O_26  and  C_34
   10  A    between atoms: C_27  and  C_35
   11  A    between atoms: N_29  and  C_48
   12  A    between atoms: N_29  and  C_50
   13  A    between atoms: C_33  and  O_47
   14  A    between atoms: C_34  and  C_37
   15  A    between atoms: C_35  and  N_38
   16  A    between atoms: C_43  and  O_47
                            x       y       z     vdW  Elec       q    Type
                         _______ _______ _______ _____ _____    ______ ____

>  <TORSDO>
F 16

$$$$
=
 OpenBabel11072412073D

 50 55  0  0  1  0  0  0  0  0999 V2000
  157.8820  213.3760  149.3700 C   0  0  1  0  0  0  0  0  0  0  0  0
  157.5180  212.5320  148.3040 O   0  0  0  0  0  0  0  0  0  0  0  0
  158.1220  213.7610  147.9470 C   0  0  2  0  0  3  0  0  0  0  0  0
  156.7020  214.0050  150.0840 C   0  0  0  0  0  1  0  0  0  0  0  0
  159.0060  212.9650  150.1210 O   0  0  0  0  0  0  0  0  0  0  0  0
  158.5830  212.6420  151.4190 C   0  0  0  0  0  2  0  0  0  0  0  0
  158.6970  214.4250  153.1610 C   0  0  0  0  0  1  0  0  0  0  0  0
  159.4780  213.3600  152.4130 C   0  0  1  0  0  3  0  0  0  0  0  0
  160.0620  212.4060  153.3440 N   0  0  0  0  0  2  0  0  0  0  0  0
  160.8120  211.2810  152.8840 C   0  0  0  0  0  0  0  0  0  0  0  0
  161.0280  211.1160  151.6590 O   0  0  0  0  0  0  0  0  0  0  0  0
  161.3700  210.3150  153.8630 C   0  0  0  0  0  2  0  0  0  0  0  0
  160.8530  210.6020  155.2010 N   0  0  0  0  0  0  0  0  0  0  0  0
  163.0700  211.0750  156.1060 C   0  0  0  0  0  2  0  0  0  0  0  0
  162.0590  211.2500  157.2170 C   0  0  0  0  0  2  0  0  0  0  0  0
  161.8530  210.1650  156.1730 C   0  0  0  0  0  3  0  0  0  0  0  0
  159.5860  209.8840  155.4550 C   0  0  2  0  0  3  0  0  0  0  0  0
  158.3570  211.6130  156.7990 C   0  0  0  0  0  3  0  0  0  0  0  0
  158.3850  210.7770  155.6780 C   0  0  0  0  0  0  0  0  0  0  0  0
  157.3000  210.7830  154.7870 C   0  0  0  0  0  3  0  0  0  0  0  0
  157.2570  212.4450  157.0330 C   0  0  0  0  0  3  0  0  0  0  0  0
  156.2030  211.6170  155.0180 C   0  0  0  0  0  3  0  0  0  0  0  0
  156.1810  212.4480  156.1430 C   0  0  0  0  0  3  0  0  0  0  0  0
  159.7440  208.8360  156.5500 C   0  0  0  0  0  2  0  0  0  0  0  0
  160.4240  207.6920  156.0400 O   0  0  0  0  0  0  0  0  0  0  0  0
  160.9570  206.7200  153.9170 C   0  0  0  0  0  2  0  0  0  0  0  0
  160.0630  207.0740  154.8400 C   0  0  0  0  0  3  0  0  0  0  0  0
  159.5170  213.5330  147.5310 N   0  0  0  0  0  0  0  0  0  0  0  0
  159.2410  213.6090  143.3630 S   0  0  0  0  0  0  0  0  0  0  0  0
  161.6030  214.4490  144.4410 C   0  0  0  0  0  2  0  0  0  0  0  0
  158.2360  212.1570  145.3280 O   0  0  0  0  0  0  0  0  0  0  0  0
  161.4490  212.1530  143.7300 O   0  0  0  0  0  1  0  0  0  0  0  0
  159.8940  213.6610  146.1410 C   0  0  0  0  0  0  0  0  0  0  0  0
  159.0480  213.0840  145.0690 C   0  0  0  0  0  0  0  0  0  0  0  0
  161.0710  214.2340  145.8330 C   0  0  0  0  0  3  0  0  0  0  0  0
  161.0560  213.4590  143.4190 C   0  0  1  0  0  3  0  0  0  0  0  0
  161.8290  211.1860  148.2380 N   0  0  0  0  0  0  0  0  0  0  0  0
  162.3270  209.8660  148.5040 C   0  0  0  0  0  0  0  0  0  0  0  0
  161.7850  213.4370  148.2130 O   0  0  0  0  0  0  0  0  0  0  0  0
  163.9140  212.4210  147.9210 C   0  0  0  0  0  2  0  0  0  0  0  0
  163.5650  209.6640  148.6530 O   0  0  0  0  0  0  0  0  0  0  0  0
  162.6030  212.3580  148.1230 C   0  0  0  0  0  0  0  0  0  0  0  0
  160.5050  211.4960  148.3370 O   0  0  0  0  0  0  0  0  0  0  0  0
  160.4790  212.9250  148.4580 C   0  0  2  0  0  3  0  0  0  0  0  0
  160.9540  205.8760  148.7440 C   0  0  0  0  0  2  0  0  0  0  0  0
  161.6560  207.7250  147.4410 C   0  0  0  0  0  2  0  0  0  0  0  0
  161.4490  208.0170  149.9300 C   0  0  0  0  0  2  0  0  0  0  0  0
  160.5840  206.7590  149.9360 C   0  0  0  0  0  2  0  0  0  0  0  0
  161.3680  208.7160  148.5720 C   0  0  1  0  0  3  0  0  0  0  0  0
  160.7170  206.6050  147.5010 N   0  0  0  0  0  2  0  0  0  0  0  0
  1  4  1  1  0  0  0
  1  5  1  0  0  0  0
  2  1  1  0  0  0  0
  3 28  1  1  0  0  0
  3  2  1  0  0  0  0
  3  1  1  0  0  0  0
  5  6  1  0  0  0  0
  6  8  1  0  0  0  0
  8  7  1  1  0  0  0
  8  9  1  0  0  0  0
 10  9  1  0  0  0  0
 10 12  1  0  0  0  0
 11 10  2  0  0  0  0
 12 13  1  0  0  0  0
 13 17  1  0  0  0  0
 13 16  1  0  0  0  0
 14 16  1  0  0  0  0
 14 15  1  0  0  0  0
 16 15  1  0  0  0  0
 17 19  1  0  0  0  0
 17 24  1  1  0  0  0
 18 21  1  0  0  0  0
 19 18  2  0  0  0  0
 20 22  2  0  0  0  0
 20 19  1  0  0  0  0
 22 23  1  0  0  0  0
 23 21  2  0  0  0  0
 25 24  1  0  0  0  0
 26 27  2  0  0  0  0
 27 25  1  0  0  0  0
 29 36  1  0  0  0  0
 29 34  1  0  0  0  0
 30 35  1  0  0  0  0
 33 28  1  0  0  0  0
 34 31  2  0  0  0  0
 34 33  1  0  0  0  0
 35 33  2  0  0  0  0
 36 32  1  1  0  0  0
 36 30  1  0  0  0  0
 37 43  1  0  0  0  0
 37 38  1  0  0  0  0
 38 41  2  0  0  0  0
 39 44  1  0  0  0  0
 40 42  2  0  0  0  0
 42 39  1  0  0  0  0
 42 37  1  0  0  0  0
 43 44  1  0  0  0  0
 44 28  1  6  0  0  0
 45 48  1  0  0  0  0
 46 50  1  0  0  0  0
 46 49  1  0  0  0  0
 47 48  1  0  0  0  0
 49 38  1  1  0  0  0
 49 47  1  0  0  0  0
 50 45  1  0  0  0  0
M  END
>  <MODEL>
8

>  <REMARK>
 VINA RESULT:      -4.1      3.984     10.171
  Name = 
  16 active torsions:
  status: ('A' for Active; 'I' for Inactive)
    1  A    between atoms: N_2  and  C_37
    2  A    between atoms: C_5  and  C_10
    3  A    between atoms: C_10  and  N_38
    4  A    between atoms: C_10  and  C_43
    5  A    between atoms: C_13  and  C_36
    6  A    between atoms: C_22  and  N_38
    7  A    between atoms: C_25  and  N_29
    8  A    between atoms: O_26  and  C_30
    9  A    between atoms: O_26  and  C_34
   10  A    between atoms: C_27  and  C_35
   11  A    between atoms: N_29  and  C_48
   12  A    between atoms: N_29  and  C_50
   13  A    between atoms: C_33  and  O_47
   14  A    between atoms: C_34  and  C_37
   15  A    between atoms: C_35  and  N_38
   16  A    between atoms: C_43  and  O_47
                            x       y       z     vdW  Elec       q    Type
                         _______ _______ _______ _____ _____    ______ ____

>  <TORSDO>
F 16

$$$$
=
 OpenBabel11072412073D

 50 55  0  0  1  0  0  0  0  0999 V2000
  161.6480  209.3920  151.7940 C   0  0  1  0  0  0  0  0  0  0  0  0
  162.7690  209.6760  152.5950 O   0  0  0  0  0  0  0  0  0  0  0  0
  161.9390  210.7760  152.2710 C   0  0  2  0  0  3  0  0  0  0  0  0
  161.9910  209.0520  150.3570 C   0  0  0  0  0  1  0  0  0  0  0  0
  160.5950  208.7010  152.4350 O   0  0  0  0  0  0  0  0  0  0  0  0
  160.4720  207.4320  151.8510 C   0  0  0  0  0  2  0  0  0  0  0  0
  160.8230  205.8030  153.7090 C   0  0  0  0  0  1  0  0  0  0  0  0
  161.4620  206.4940  152.5190 C   0  0  1  0  0  3  0  0  0  0  0  0
  161.9510  205.5140  151.5600 N   0  0  0  0  0  2  0  0  0  0  0  0
  161.3510  204.2240  151.4420 C   0  0  0  0  0  0  0  0  0  0  0  0
  160.3480  203.9220  152.1330 O   0  0  0  0  0  0  0  0  0  0  0  0
  161.8940  203.2410  150.4710 C   0  0  0  0  0  2  0  0  0  0  0  0
  160.9920  203.1200  149.3250 N   0  0  0  0  0  0  0  0  0  0  0  0
  160.9190  200.9460  150.4330 C   0  0  0  0  0  2  0  0  0  0  0  0
  159.5160  201.2990  149.9930 C   0  0  0  0  0  2  0  0  0  0  0  0
  160.7010  201.7000  149.1300 C   0  0  0  0  0  3  0  0  0  0  0  0
  161.6090  203.6600  148.0950 C   0  0  2  0  0  3  0  0  0  0  0  0
  162.7440  205.8480  147.6150 C   0  0  0  0  0  3  0  0  0  0  0  0
  161.5780  205.1680  147.9800 C   0  0  0  0  0  0  0  0  0  0  0  0
  160.4060  205.8990  148.2340 C   0  0  0  0  0  3  0  0  0  0  0  0
  162.7450  207.2430  147.5060 C   0  0  0  0  0  3  0  0  0  0  0  0
  160.4050  207.2920  148.1220 C   0  0  0  0  0  3  0  0  0  0  0  0
  161.5770  207.9640  147.7580 C   0  0  0  0  0  3  0  0  0  0  0  0
  161.0710  202.9690  146.8470 C   0  0  0  0  0  2  0  0  0  0  0  0
  161.5830  203.6030  145.6780 O   0  0  0  0  0  0  0  0  0  0  0  0
  161.2650  205.4110  144.1400 C   0  0  0  0  0  2  0  0  0  0  0  0
  160.7860  204.3770  144.8300 C   0  0  0  0  0  3  0  0  0  0  0  0
  161.1250  211.1510  153.4390 N   0  0  0  0  0  0  0  0  0  0  0  0
  161.8260  209.5470  157.2320 S   0  0  0  0  0  0  0  0  0  0  0  0
  159.8000  208.4220  155.7920 C   0  0  0  0  0  2  0  0  0  0  0  0
  163.2640  210.6950  155.3370 O   0  0  0  0  0  0  0  0  0  0  0  0
  161.9630  207.3690  155.6930 O   0  0  0  0  0  1  0  0  0  0  0  0
  161.0440  210.2730  154.5850 C   0  0  0  0  0  0  0  0  0  0  0  0
  162.1120  210.2670  155.6130 C   0  0  0  0  0  0  0  0  0  0  0  0
  160.0300  209.3940  154.6650 C   0  0  0  0  0  3  0  0  0  0  0  0
  161.0730  208.0400  156.5380 C   0  0  1  0  0  3  0  0  0  0  0  0
  158.5130  212.6990  151.9760 N   0  0  0  0  0  0  0  0  0  0  0  0
  157.8100  213.3970  150.9380 C   0  0  0  0  0  0  0  0  0  0  0  0
  158.9820  211.9590  154.0500 O   0  0  0  0  0  0  0  0  0  0  0  0
  156.6780  212.1290  153.4870 C   0  0  0  0  0  2  0  0  0  0  0  0
  156.5830  213.6750  151.0660 O   0  0  0  0  0  0  0  0  0  0  0  0
  157.9680  212.2640  153.2010 C   0  0  0  0  0  0  0  0  0  0  0  0
  159.8740  212.6170  152.0030 O   0  0  0  0  0  0  0  0  0  0  0  0
  160.1860  212.2770  153.3610 C   0  0  2  0  0  3  0  0  0  0  0  0
  160.0960  212.9440  147.4120 C   0  0  0  0  0  2  0  0  0  0  0  0
  159.9880  213.2980  149.7520 C   0  0  0  0  0  2  0  0  0  0  0  0
  157.8390  213.1780  148.4530 C   0  0  0  0  0  2  0  0  0  0  0  0
  158.6650  213.4350  147.1950 C   0  0  0  0  0  2  0  0  0  0  0  0
  158.5330  213.7710  149.6800 C   0  0  1  0  0  3  0  0  0  0  0  0
  160.7000  213.6680  148.5270 N   0  0  0  0  0  2  0  0  0  0  0  0
  1  4  1  6  0  0  0
  1  3  1  0  0  0  0
  1  5  1  0  0  0  0
  1  2  1  0  0  0  0
  3  2  1  0  0  0  0
  3 28  1  1  0  0  0
  6  5  1  0  0  0  0
  6  8  1  0  0  0  0
  8  7  1  1  0  0  0
  9  8  1  0  0  0  0
 10  9  1  0  0  0  0
 10 11  2  0  0  0  0
 12 10  1  0  0  0  0
 13 12  1  0  0  0  0
 15 14  1  0  0  0  0
 16 13  1  0  0  0  0
 16 15  1  0  0  0  0
 16 14  1  0  0  0  0
 17 24  1  6  0  0  0
 17 13  1  0  0  0  0
 18 19  1  0  0  0  0
 19 17  1  0  0  0  0
 19 20  2  0  0  0  0
 21 18  2  0  0  0  0
 21 23  1  0  0  0  0
 22 20  1  0  0  0  0
 23 22  2  0  0  0  0
 25 24  1  0  0  0  0
 26 27  2  0  0  0  0
 27 25  1  0  0  0  0
 28 33  1  0  0  0  0
 30 36  1  0  0  0  0
 31 34  2  0  0  0  0
 33 35  2  0  0  0  0
 33 34  1  0  0  0  0
 34 29  1  0  0  0  0
 35 30  1  0  0  0  0
 36 32  1  6  0  0  0
 36 29  1  0  0  0  0
 37 43  1  0  0  0  0
 37 42  1  0  0  0  0
 38 41  2  0  0  0  0
 38 37  1  0  0  0  0
 42 40  2  0  0  0  0
 42 39  1  0  0  0  0
 43 44  1  0  0  0  0
 44 28  1  6  0  0  0
 44 39  1  0  0  0  0
 45 50  1  0  0  0  0
 47 49  1  0  0  0  0
 48 45  1  0  0  0  0
 48 47  1  0  0  0  0
 49 46  1  0  0  0  0
 49 38  1  1  0  0  0
 50 46  1  0  0  0  0
M  END
>  <MODEL>
9

>  <REMARK>
 VINA RESULT:      -3.8      2.056      4.715
  Name = 
  16 active torsions:
  status: ('A' for Active; 'I' for Inactive)
    1  A    between atoms: N_2  and  C_37
    2  A    between atoms: C_5  and  C_10
    3  A    between atoms: C_10  and  N_38
    4  A    between atoms: C_10  and  C_43
    5  A    between atoms: C_13  and  C_36
    6  A    between atoms: C_22  and  N_38
    7  A    between atoms: C_25  and  N_29
    8  A    between atoms: O_26  and  C_30
    9  A    between atoms: O_26  and  C_34
   10  A    between atoms: C_27  and  C_35
   11  A    between atoms: N_29  and  C_48
   12  A    between atoms: N_29  and  C_50
   13  A    between atoms: C_33  and  O_47
   14  A    between atoms: C_34  and  C_37
   15  A    between atoms: C_35  and  N_38
   16  A    between atoms: C_43  and  O_47
                            x       y       z     vdW  Elec       q    Type
                         _______ _______ _______ _____ _____    ______ ____

>  <TORSDO>
F 16

$$$$
