=
 OpenBabel11072410023D

 55 60  0  0  1  0  0  0  0  0999 V2000
  161.8750  206.7490  142.0910 C   0  0  0  0  0  3  0  0  0  0  0  0
  160.2680  204.4530  144.6850 C   0  0  0  0  0  2  0  0  0  0  0  0
  161.6600  205.9510  143.1030 C   0  0  0  0  0  0  0  0  0  0  0  0
  161.4550  205.1410  144.1000 C   0  0  0  0  0  0  0  0  0  0  0  0
  162.3340  204.4230  145.1100 C   0  0  0  0  0  0  0  0  0  0  0  0
  163.5650  204.3940  145.3680 O   0  0  0  0  0  0  0  0  0  0  0  0
  161.1130  203.7620  145.6490 C   0  0  2  0  0  0  0  0  0  0  0  0
  161.1700  202.2630  145.3870 C   0  0  0  0  0  1  0  0  0  0  0  0
  161.0780  205.5460  147.4990 C   0  0  0  0  0  0  0  0  0  0  0  0
  160.9520  207.5690  148.5440 C   0  0  2  0  0  3  0  0  0  0  0  0
  160.7430  206.0940  148.6420 C   0  0  1  0  0  3  0  0  0  0  0  0
  160.3500  204.1280  150.1340 C   0  0  0  0  0  3  0  0  0  0  0  0
  160.1450  205.4080  149.8010 C   0  0  0  0  0  3  0  0  0  0  0  0
  161.4860  207.8140  147.1960 N   0  0  0  0  0  2  0  0  0  0  0  0
  161.4700  203.1670  148.1090 C   0  0  0  0  0  3  0  0  0  0  0  0
  161.5270  206.5400  146.6030 N   0  0  0  0  0  0  0  0  0  0  0  0
  160.8200  204.1070  147.1310 C   0  0  2  0  0  3  0  0  0  0  0  0
  161.2150  203.1650  149.4190 C   0  0  0  0  0  3  0  0  0  0  0  0
  161.9230  208.0690  149.6150 C   0  0  1  0  0  3  0  0  0  0  0  0
  162.5650  209.3090  149.2020 N   0  0  0  0  0  2  0  0  0  0  0  0
  161.9770  210.3930  149.9730 C   0  0  0  0  0  2  0  0  0  0  0  0
  162.7800  212.9500  147.3130 C   0  0  0  0  0  3  0  0  0  0  0  0
  160.2890  212.6220  150.5860 F   0  0  0  0  0  0  0  0  0  0  0  0
  161.1140  213.8690  148.7310 C   0  0  0  0  0  3  0  0  0  0  0  0
  161.9450  213.9660  147.6570 N   0  0  0  0  0  0  0  0  0  0  0  0
  162.8000  211.7710  148.0590 C   0  0  0  0  0  3  0  0  0  0  0  0
  161.1110  212.7090  149.5120 C   0  0  0  0  0  0  0  0  0  0  0  0
  161.9560  211.6480  149.1660 C   0  0  0  0  0  0  0  0  0  0  0  0
  161.2020  208.2710  150.9400 C   0  0  0  0  0  2  0  0  0  0  0  0
  160.7950  206.7540  152.9780 C   0  0  0  0  0  2  0  0  0  0  0  0
  161.7780  207.3680  152.0190 C   0  0  0  0  0  0  0  0  0  0  0  0
  162.8790  206.5700  151.7220 O   0  0  0  0  0  1  0  0  0  0  0  0
  161.7270  207.8720  153.4390 C   0  0  0  0  0  2  0  0  0  0  0  0
  161.4330  206.4240  140.7690 N   0  0  0  0  0  2  0  0  0  0  0  0
  161.3680  207.3840  139.6700 C   0  0  2  0  0  3  0  0  0  0  0  0
  162.2920  207.0960  137.3820 C   0  0  0  0  0  2  0  0  0  0  0  0
  162.6450  207.3260  138.8390 C   0  0  0  0  0  3  0  0  0  0  0  0
  162.8060  205.9510  138.2240 C   0  0  0  0  0  2  0  0  0  0  0  0
  161.1120  208.7990  140.2010 C   0  0  2  0  0  3  0  0  0  0  0  0
  159.7700  209.3600  139.7390 C   0  0  0  0  0  2  0  0  0  0  0  0
  159.5140  208.9730  138.4190 O   0  0  0  0  0  0  0  0  0  0  0  0
  157.3760  208.9110  137.3830 C   0  0  0  0  0  1  0  0  0  0  0  0
  158.4520  209.7830  138.0010 C   0  0  1  0  0  3  0  0  0  0  0  0
  157.0790  211.4290  138.5330 C   0  0  0  0  0  1  0  0  0  0  0  0
  157.9200  210.4690  139.0930 O   0  0  0  0  0  0  0  0  0  0  0  0
  162.2580  209.7150  139.7670 C   0  0  0  0  0  2  0  0  0  0  0  0
  162.0650  211.2380  140.0050 C   0  0  2  0  0  0  0  0  0  0  0  0
  161.2870  211.4880  137.6350 F   0  0  0  0  0  0  0  0  0  0  0  0
  161.2450  211.9240  138.9220 C   0  0  0  0  0  0  0  0  0  0  0  0
  160.5560  212.8970  139.1950 O   0  0  0  0  0  0  0  0  0  0  0  0
  163.3630  211.9090  140.1820 N   0  0  0  0  0  2  0  0  0  0  0  0
  164.1640  211.8890  138.9640 C   0  0  0  0  0  1  0  0  0  0  0  0
  161.1280  211.4400  141.5700 S   0  0  0  0  0  0  0  0  0  0  0  0
  162.3450  212.4900  142.4240 C   0  0  0  0  0  2  0  0  0  0  0  0
  161.7660  213.7140  142.7490 O   0  0  0  0  0  1  0  0  0  0  0  0
  1  3  2  0  0  0  0
  2  7  1  0  0  0  0
  3  4  2  0  0  0  0
  4  2  1  0  0  0  0
  4  5  1  0  0  0  0
  5  6  2  0  0  0  0
  5  7  1  0  0  0  0
  7  8  1  6  0  0  0
  7 17  1  0  0  0  0
  9 11  1  0  0  0  0
 10 11  1  0  0  0  0
 10 19  1  1  0  0  0
 11 13  1  6  0  0  0
 13 12  2  0  0  0  0
 14 10  1  0  0  0  0
 15 18  2  0  0  0  0
 16 14  1  0  0  0  0
 16  9  2  0  0  0  0
 17  9  1  0  0  0  0
 17 15  1  1  0  0  0
 18 12  1  0  0  0  0
 19 29  1  1  0  0  0
 20 19  1  0  0  0  0
 20 21  1  0  0  0  0
 22 25  2  0  0  0  0
 22 26  1  0  0  0  0
 24 27  2  0  0  0  0
 25 24  1  0  0  0  0
 26 28  2  0  0  0  0
 27 23  1  0  0  0  0
 28 27  1  0  0  0  0
 28 21  1  0  0  0  0
 29 31  1  0  0  0  0
 30 33  1  0  0  0  0
 31 30  1  0  0  0  0
 31 33  1  0  0  0  0
 32 31  1  0  0  0  0
 34  1  1  0  0  0  0
 35 39  1  0  0  0  0
 35 34  1  1  0  0  0
 36 38  1  0  0  0  0
 36 37  1  0  0  0  0
 37 35  1  0  0  0  0
 38 37  1  0  0  0  0
 39 40  1  6  0  0  0
 41 40  1  0  0  0  0
 43 42  1  1  0  0  0
 43 41  1  0  0  0  0
 43 45  1  0  0  0  0
 44 45  1  0  0  0  0
 46 39  1  0  0  0  0
 47 46  1  6  0  0  0
 47 51  1  0  0  0  0
 47 53  1  0  0  0  0
 48 49  1  0  0  0  0
 49 50  2  0  0  0  0
 49 47  1  0  0  0  0
 52 51  1  0  0  0  0
 53 54  1  0  0  0  0
 54 55  1  0  0  0  0
M  END
>  <MODEL>
1

>  <REMARK>
 VINA RESULT:      -4.1      0.000      0.000
  Name = 
  21 active torsions:
  status: ('A' for Active; 'I' for Inactive)
    1  A    between atoms: C_6  and  C_43
    2  A    between atoms: N_7  and  C_34
    3  A    between atoms: C_8  and  S_46
    4  A    between atoms: C_9  and  N_13
    5  A    between atoms: C_10  and  C_12
    6  A    between atoms: C_10  and  N_13
    7  A    between atoms: C_10  and  C_22
    8  A    between atoms: C_22  and  C_38
    9  A    between atoms: C_22  and  C_39
   10  A    between atoms: C_23  and  C_34
   11  A    between atoms: C_31  and  N_32
   12  A    between atoms: C_31  and  C_50
   13  A    between atoms: N_32  and  C_43
   14  A    between atoms: C_33  and  O_41
   15  A    between atoms: C_33  and  O_45
   16  A    between atoms: C_34  and  C_39
   17  A    between atoms: C_34  and  S_46
   18  A    between atoms: C_37  and  C_42
   19  A    between atoms: C_38  and  O_45
   20  A    between atoms: C_42  and  C_43
   21  A    between atoms: C_48  and  C_51
                            x       y       z     vdW  Elec       q    Type
                         _______ _______ _______ _____ _____    ______ ____

>  <TORSDO>
F 21

$$$$
=
 OpenBabel11072410023D

 55 60  0  0  1  0  0  0  0  0999 V2000
  161.6650  206.9480  142.1330 C   0  0  0  0  0  3  0  0  0  0  0  0
  160.4670  204.3580  144.6700 C   0  0  0  0  0  2  0  0  0  0  0  0
  161.5690  206.1410  143.1540 C   0  0  0  0  0  0  0  0  0  0  0  0
  161.4860  205.3220  144.1630 C   0  0  0  0  0  0  0  0  0  0  0  0
  162.4200  204.8780  145.2760 C   0  0  0  0  0  0  0  0  0  0  0  0
  163.5850  205.1770  145.6420 O   0  0  0  0  0  0  0  0  0  0  0  0
  161.3650  203.9290  145.7330 C   0  0  2  0  0  0  0  0  0  0  0  0
  161.8340  202.4940  145.5400 C   0  0  0  0  0  1  0  0  0  0  0  0
  161.2360  205.5650  147.7120 C   0  0  0  0  0  0  0  0  0  0  0  0
  161.2000  207.5060  148.9090 C   0  0  2  0  0  3  0  0  0  0  0  0
  160.7730  206.0780  148.8260 C   0  0  1  0  0  3  0  0  0  0  0  0
  159.8380  204.0970  150.0300 C   0  0  0  0  0  3  0  0  0  0  0  0
  159.8790  205.4140  149.7910 C   0  0  0  0  0  3  0  0  0  0  0  0
  162.0060  207.7570  147.7050 N   0  0  0  0  0  2  0  0  0  0  0  0
  161.1700  203.1180  148.1490 C   0  0  0  0  0  3  0  0  0  0  0  0
  161.9790  206.5380  147.0070 N   0  0  0  0  0  0  0  0  0  0  0  0
  160.8530  204.2130  147.1670 C   0  0  2  0  0  3  0  0  0  0  0  0
  160.6770  203.0640  149.3880 C   0  0  0  0  0  3  0  0  0  0  0  0
  162.0150  207.7730  150.1760 C   0  0  1  0  0  3  0  0  0  0  0  0
  162.3720  209.1820  150.2810 N   0  0  0  0  0  2  0  0  0  0  0  0
  161.1750  209.9180  150.6560 C   0  0  0  0  0  2  0  0  0  0  0  0
  162.4710  210.4530  154.1630 C   0  0  0  0  0  3  0  0  0  0  0  0
  158.9900  211.1300  152.0520 F   0  0  0  0  0  0  0  0  0  0  0  0
  160.2440  211.2670  154.0740 C   0  0  0  0  0  3  0  0  0  0  0  0
  161.3960  211.0330  154.7590 N   0  0  0  0  0  0  0  0  0  0  0  0
  162.4150  210.0850  152.8180 C   0  0  0  0  0  3  0  0  0  0  0  0
  160.1420  210.9030  152.7270 C   0  0  0  0  0  0  0  0  0  0  0  0
  161.2430  210.3150  152.0920 C   0  0  0  0  0  0  0  0  0  0  0  0
  161.2410  207.3380  151.4120 C   0  0  0  0  0  2  0  0  0  0  0  0
  161.3410  205.3520  153.0450 C   0  0  0  0  0  2  0  0  0  0  0  0
  162.0800  206.4210  152.2880 C   0  0  0  0  0  0  0  0  0  0  0  0
  163.3570  206.0620  151.8680 O   0  0  0  0  0  1  0  0  0  0  0  0
  161.9200  206.5570  153.7810 C   0  0  0  0  0  2  0  0  0  0  0  0
  161.4520  206.4950  140.7920 N   0  0  0  0  0  2  0  0  0  0  0  0
  161.3290  207.3850  139.6390 C   0  0  2  0  0  3  0  0  0  0  0  0
  162.4560  207.3280  137.4260 C   0  0  0  0  0  2  0  0  0  0  0  0
  162.6670  207.5050  138.9180 C   0  0  0  0  0  3  0  0  0  0  0  0
  163.0200  206.1920  138.2490 C   0  0  0  0  0  2  0  0  0  0  0  0
  160.8020  208.7590  140.0680 C   0  0  2  0  0  3  0  0  0  0  0  0
  159.8090  209.3390  139.0650 C   0  0  0  0  0  2  0  0  0  0  0  0
  158.5870  209.6020  139.6930 O   0  0  0  0  0  0  0  0  0  0  0  0
  158.1940  209.3220  137.3660 C   0  0  0  0  0  1  0  0  0  0  0  0
  157.7130  209.9540  138.6580 C   0  0  1  0  0  3  0  0  0  0  0  0
  155.8940  209.1340  137.7090 C   0  0  0  0  0  1  0  0  0  0  0  0
  156.4270  209.4950  138.9460 O   0  0  0  0  0  0  0  0  0  0  0  0
  161.9820  209.7100  140.2700 C   0  0  0  0  0  2  0  0  0  0  0  0
  161.6440  211.2150  140.4540 C   0  0  2  0  0  0  0  0  0  0  0  0
  159.5610  211.4120  141.8370 F   0  0  0  0  0  0  0  0  0  0  0  0
  160.9150  211.5200  141.7550 C   0  0  0  0  0  0  0  0  0  0  0  0
  161.5390  211.8960  142.7370 O   0  0  0  0  0  0  0  0  0  0  0  0
  160.8900  211.7280  139.2990 N   0  0  0  0  0  2  0  0  0  0  0  0
  160.7260  213.1760  139.3460 C   0  0  0  0  0  1  0  0  0  0  0  0
  163.2300  212.1350  140.5230 S   0  0  0  0  0  0  0  0  0  0  0  0
  163.8500  211.6320  138.8860 C   0  0  0  0  0  2  0  0  0  0  0  0
  165.1870  211.9980  138.7560 O   0  0  0  0  0  1  0  0  0  0  0  0
  1  3  2  0  0  0  0
  2  7  1  0  0  0  0
  3  4  2  0  0  0  0
  4  2  1  0  0  0  0
  4  5  1  0  0  0  0
  5  6  2  0  0  0  0
  5  7  1  0  0  0  0
  7  8  1  6  0  0  0
  7 17  1  0  0  0  0
  9 11  1  0  0  0  0
 10 19  1  1  0  0  0
 11 10  1  0  0  0  0
 11 13  1  6  0  0  0
 13 12  2  0  0  0  0
 14 10  1  0  0  0  0
 15 18  2  0  0  0  0
 16 14  1  0  0  0  0
 16  9  2  0  0  0  0
 17  9  1  0  0  0  0
 17 15  1  1  0  0  0
 18 12  1  0  0  0  0
 19 20  1  0  0  0  0
 19 29  1  1  0  0  0
 20 21  1  0  0  0  0
 21 28  1  0  0  0  0
 22 25  1  0  0  0  0
 23 27  1  0  0  0  0
 24 25  2  0  0  0  0
 26 22  2  0  0  0  0
 27 24  1  0  0  0  0
 28 27  2  0  0  0  0
 28 26  1  0  0  0  0
 29 31  1  0  0  0  0
 30 33  1  0  0  0  0
 31 30  1  0  0  0  0
 31 33  1  0  0  0  0
 32 31  1  0  0  0  0
 34  1  1  0  0  0  0
 35 39  1  0  0  0  0
 35 34  1  1  0  0  0
 36 38  1  0  0  0  0
 36 37  1  0  0  0  0
 37 35  1  0  0  0  0
 38 37  1  0  0  0  0
 39 40  1  6  0  0  0
 39 46  1  0  0  0  0
 40 41  1  0  0  0  0
 43 42  1  6  0  0  0
 43 45  1  0  0  0  0
 43 41  1  0  0  0  0
 44 45  1  0  0  0  0
 47 46  1  6  0  0  0
 47 53  1  0  0  0  0
 47 49  1  0  0  0  0
 49 48  1  0  0  0  0
 49 50  2  0  0  0  0
 51 52  1  0  0  0  0
 51 47  1  0  0  0  0
 54 53  1  0  0  0  0
 55 54  1  0  0  0  0
M  END
>  <MODEL>
2

>  <REMARK>
 VINA RESULT:      -1.9      1.839      2.530
  Name = 
  21 active torsions:
  status: ('A' for Active; 'I' for Inactive)
    1  A    between atoms: C_6  and  C_43
    2  A    between atoms: N_7  and  C_34
    3  A    between atoms: C_8  and  S_46
    4  A    between atoms: C_9  and  N_13
    5  A    between atoms: C_10  and  C_12
    6  A    between atoms: C_10  and  N_13
    7  A    between atoms: C_10  and  C_22
    8  A    between atoms: C_22  and  C_38
    9  A    between atoms: C_22  and  C_39
   10  A    between atoms: C_23  and  C_34
   11  A    between atoms: C_31  and  N_32
   12  A    between atoms: C_31  and  C_50
   13  A    between atoms: N_32  and  C_43
   14  A    between atoms: C_33  and  O_41
   15  A    between atoms: C_33  and  O_45
   16  A    between atoms: C_34  and  C_39
   17  A    between atoms: C_34  and  S_46
   18  A    between atoms: C_37  and  C_42
   19  A    between atoms: C_38  and  O_45
   20  A    between atoms: C_42  and  C_43
   21  A    between atoms: C_48  and  C_51
                            x       y       z     vdW  Elec       q    Type
                         _______ _______ _______ _____ _____    ______ ____

>  <TORSDO>
F 21

$$$$
=
 OpenBabel11072410023D

 55 60  0  0  1  0  0  0  0  0999 V2000
  160.2330  205.9350  149.4820 C   0  0  0  0  0  3  0  0  0  0  0  0
  160.6590  209.0620  151.6310 C   0  0  0  0  0  2  0  0  0  0  0  0
  160.6290  207.0790  149.9730 C   0  0  0  0  0  0  0  0  0  0  0  0
  161.0400  208.2100  150.4700 C   0  0  0  0  0  0  0  0  0  0  0  0
  162.1700  209.1780  150.1640 C   0  0  0  0  0  0  0  0  0  0  0  0
  163.0780  209.2540  149.2970 O   0  0  0  0  0  0  0  0  0  0  0  0
  161.7450  209.9880  151.3410 C   0  0  2  0  0  0  0  0  0  0  0  0
  162.8240  209.9560  152.4150 C   0  0  0  0  0  1  0  0  0  0  0  0
  160.0330  211.8770  151.6730 C   0  0  0  0  0  0  0  0  0  0  0  0
  158.4460  213.2080  152.6270 C   0  0  2  0  0  3  0  0  0  0  0  0
  159.5670  213.1010  151.6450 C   0  0  0  0  0  0  0  0  0  0  0  0
  160.7560  214.1310  149.7030 C   0  0  0  0  0  3  0  0  0  0  0  0
  160.1140  214.2310  150.8740 C   0  0  0  0  0  3  0  0  0  0  0  0
  158.2950  211.8690  153.2150 N   0  0  0  0  0  0  0  0  0  0  0  0
  161.2220  211.6790  149.4970 C   0  0  0  0  0  3  0  0  0  0  0  0
  159.3030  211.1040  152.6020 N   0  0  0  0  0  0  0  0  0  0  0  0
  161.2930  211.4240  150.9780 C   0  0  2  0  0  3  0  0  0  0  0  0
  161.0290  212.8840  148.9590 C   0  0  0  0  0  3  0  0  0  0  0  0
  157.1490  213.6550  151.9490 C   0  0  1  0  0  3  0  0  0  0  0  0
  156.3340  214.4530  152.8550 N   0  0  0  0  0  2  0  0  0  0  0  0
  155.2760  213.5980  153.3700 C   0  0  0  0  0  2  0  0  0  0  0  0
  156.2630  213.5410  157.0140 C   0  0  0  0  0  3  0  0  0  0  0  0
  155.4160  210.8170  154.0330 F   0  0  0  0  0  0  0  0  0  0  0  0
  156.0190  211.2960  156.2880 C   0  0  0  0  0  3  0  0  0  0  0  0
  156.3010  212.2050  157.2600 N   0  0  0  0  0  0  0  0  0  0  0  0
  155.9240  214.0140  155.7450 C   0  0  0  0  0  3  0  0  0  0  0  0
  155.6870  211.7270  155.0000 C   0  0  0  0  0  0  0  0  0  0  0  0
  155.6310  213.1000  154.7300 C   0  0  0  0  0  0  0  0  0  0  0  0
  157.4510  214.4470  150.6850 C   0  0  0  0  0  2  0  0  0  0  0  0
  157.0770  214.4370  148.1390 C   0  0  0  0  0  2  0  0  0  0  0  0
  156.9840  213.6990  149.4460 C   0  0  0  0  0  0  0  0  0  0  0  0
  157.2020  212.3270  149.3590 O   0  0  0  0  0  1  0  0  0  0  0  0
  155.7180  214.1820  148.7860 C   0  0  0  0  0  2  0  0  0  0  0  0
  160.1420  204.7600  150.2930 N   0  0  0  0  0  2  0  0  0  0  0  0
  160.5920  203.4360  149.8680 C   0  0  2  0  0  3  0  0  0  0  0  0
  161.6630  201.6790  151.2580 C   0  0  0  0  0  2  0  0  0  0  0  0
  161.8580  203.0410  150.6200 C   0  0  0  0  0  3  0  0  0  0  0  0
  161.5710  202.9280  152.1030 C   0  0  0  0  0  2  0  0  0  0  0  0
  160.8110  203.4010  148.3510 C   0  0  2  0  0  3  0  0  0  0  0  0
  160.9920  201.9800  147.8230 C   0  0  0  0  0  2  0  0  0  0  0  0
  160.7690  201.9460  146.4420 O   0  0  0  0  0  0  0  0  0  0  0  0
  159.9290  200.5130  144.7430 C   0  0  0  0  0  1  0  0  0  0  0  0
  160.4780  200.6080  146.1530 C   0  0  1  0  0  3  0  0  0  0  0  0
  161.2630  198.5740  145.7980 C   0  0  0  0  0  1  0  0  0  0  0  0
  161.6370  199.8380  146.2510 O   0  0  0  0  0  0  0  0  0  0  0  0
  162.0220  204.2660  147.9960 C   0  0  0  0  0  2  0  0  0  0  0  0
  162.0050  204.9560  146.6050 C   0  0  2  0  0  0  0  0  0  0  0  0
  162.8740  203.7330  144.5950 F   0  0  0  0  0  0  0  0  0  0  0  0
  163.1310  204.5030  145.6870 C   0  0  0  0  0  0  0  0  0  0  0  0
  164.2890  204.8030  145.9380 O   0  0  0  0  0  0  0  0  0  0  0  0
  162.0040  206.4220  146.7480 N   0  0  0  0  0  2  0  0  0  0  0  0
  163.1940  206.9090  147.4350 C   0  0  0  0  0  1  0  0  0  0  0  0
  160.4390  204.4880  145.7720 S   0  0  0  0  0  0  0  0  0  0  0  0
  160.1810  206.0560  144.8840 C   0  0  0  0  0  2  0  0  0  0  0  0
  161.1010  206.1640  143.8430 O   0  0  0  0  0  1  0  0  0  0  0  0
  1  3  2  0  0  0  0
  1 34  1  0  0  0  0
  3  4  2  0  0  0  0
  4  2  1  0  0  0  0
  5  4  1  0  0  0  0
  5  7  1  0  0  0  0
  6  5  2  0  0  0  0
  7  2  1  0  0  0  0
  7  8  1  1  0  0  0
  9 16  1  0  0  0  0
 10 19  1  6  0  0  0
 10 14  1  0  0  0  0
 11  9  2  0  0  0  0
 11 10  1  0  0  0  0
 12 13  2  0  0  0  0
 13 11  1  0  0  0  0
 16 14  2  0  0  0  0
 17 15  1  6  0  0  0
 17  7  1  0  0  0  0
 17  9  1  0  0  0  0
 18 15  2  0  0  0  0
 18 12  1  0  0  0  0
 19 29  1  6  0  0  0
 19 20  1  0  0  0  0
 20 21  1  0  0  0  0
 21 28  1  0  0  0  0
 22 25  1  0  0  0  0
 23 27  1  0  0  0  0
 24 25  2  0  0  0  0
 26 22  2  0  0  0  0
 27 24  1  0  0  0  0
 28 27  2  0  0  0  0
 28 26  1  0  0  0  0
 30 33  1  0  0  0  0
 30 31  1  0  0  0  0
 31 29  1  0  0  0  0
 32 31  1  0  0  0  0
 33 31  1  0  0  0  0
 35 34  1  1  0  0  0
 35 37  1  0  0  0  0
 36 38  1  0  0  0  0
 37 36  1  0  0  0  0
 37 38  1  0  0  0  0
 39 40  1  1  0  0  0
 39 35  1  0  0  0  0
 41 40  1  0  0  0  0
 43 42  1  6  0  0  0
 43 45  1  0  0  0  0
 43 41  1  0  0  0  0
 44 45  1  0  0  0  0
 46 39  1  0  0  0  0
 47 51  1  0  0  0  0
 47 46  1  1  0  0  0
 48 49  1  0  0  0  0
 49 50  2  0  0  0  0
 49 47  1  0  0  0  0
 51 52  1  0  0  0  0
 53 47  1  0  0  0  0
 54 53  1  0  0  0  0
 55 54  1  0  0  0  0
M  END
>  <MODEL>
3

>  <REMARK>
 VINA RESULT:      -1.3      5.147      9.670
  Name = 
  21 active torsions:
  status: ('A' for Active; 'I' for Inactive)
    1  A    between atoms: C_6  and  C_43
    2  A    between atoms: N_7  and  C_34
    3  A    between atoms: C_8  and  S_46
    4  A    between atoms: C_9  and  N_13
    5  A    between atoms: C_10  and  C_12
    6  A    between atoms: C_10  and  N_13
    7  A    between atoms: C_10  and  C_22
    8  A    between atoms: C_22  and  C_38
    9  A    between atoms: C_22  and  C_39
   10  A    between atoms: C_23  and  C_34
   11  A    between atoms: C_31  and  N_32
   12  A    between atoms: C_31  and  C_50
   13  A    between atoms: N_32  and  C_43
   14  A    between atoms: C_33  and  O_41
   15  A    between atoms: C_33  and  O_45
   16  A    between atoms: C_34  and  C_39
   17  A    between atoms: C_34  and  S_46
   18  A    between atoms: C_37  and  C_42
   19  A    between atoms: C_38  and  O_45
   20  A    between atoms: C_42  and  C_43
   21  A    between atoms: C_48  and  C_51
                            x       y       z     vdW  Elec       q    Type
                         _______ _______ _______ _____ _____    ______ ____

>  <TORSDO>
F 21

$$$$
