=
 OpenBabel11072410313D

 32 36  0  0  1  0  0  0  0  0999 V2000
  161.6630  206.0990  148.2510 N   0  0  0  0  0  0  0  0  0  0  0  0
  161.8070  208.4140  148.8150 C   0  0  0  0  0  0  0  0  0  0  0  0
  161.6810  210.8820  149.2770 C   0  0  1  0  0  3  0  0  0  0  0  0
  162.1060  209.7610  148.4390 N   0  0  0  0  0  2  0  0  0  0  0  0
  161.1910  205.7970  149.4910 C   0  0  0  0  0  3  0  0  0  0  0  0
  161.0210  206.8050  150.4430 C   0  0  0  0  0  3  0  0  0  0  0  0
  161.3380  208.1260  150.1070 C   0  0  0  0  0  0  0  0  0  0  0  0
  161.9730  207.3750  147.8970 C   0  0  0  0  0  3  0  0  0  0  0  0
  161.2180  209.2220  151.0920 C   0  0  0  0  0  0  0  0  0  0  0  0
  161.8540  210.5490  150.7700 C   0  0  0  0  0  2  0  0  0  0  0  0
  160.6080  209.0180  152.2240 N   0  0  0  0  0  0  0  0  0  0  0  0
  161.8070  210.4340  153.8540 C   0  0  0  0  0  2  0  0  0  0  0  0
  160.2850  210.3240  155.8930 C   0  0  0  0  0  2  0  0  0  0  0  0
  159.5440  209.3320  156.7840 C   0  0  0  0  0  2  0  0  0  0  0  0
  161.6790  207.9240  156.3860 C   0  0  0  0  0  2  0  0  0  0  0  0
  160.4570  210.0120  153.2860 C   0  0  2  0  0  0  0  0  0  0  0  0
  160.8710  209.5800  154.6940 C   0  0  0  0  0  0  0  0  0  0  0  0
  161.3910  208.1570  154.9060 C   0  0  0  0  0  2  0  0  0  0  0  0
  160.4400  208.1730  157.2600 C   0  0  0  0  0  2  0  0  0  0  0  0
  156.7460  214.4130  153.0440 O   0  0  0  0  0  1  0  0  0  0  0  0
  160.0110  212.5560  153.0290 C   0  0  0  0  0  2  0  0  0  0  0  0
  159.4290  211.1380  153.0350 C   0  0  2  0  0  3  0  0  0  0  0  0
  157.1580  212.0180  153.5970 C   0  0  0  0  0  2  0  0  0  0  0  0
  158.9420  213.5990  152.8710 C   0  0  0  0  0  3  0  0  0  0  0  0
  157.6590  213.3770  153.1800 C   0  0  0  0  0  0  0  0  0  0  0  0
  158.2780  211.0740  154.0340 C   0  0  0  0  0  2  0  0  0  0  0  0
  163.4150  211.7740  147.9270 C   0  0  0  0  0  1  0  0  0  0  0  0
  162.3530  212.1210  148.8600 N   0  0  0  0  0  0  0  0  0  0  0  0
  161.4310  213.0160  148.1660 C   0  0  0  0  0  2  0  0  0  0  0  0
  160.4970  213.6420  149.1420 C   0  0  0  0  0  0  0  0  0  0  0  0
  159.1360  213.3760  149.0700 O   0  0  0  0  0  0  0  0  0  0  0  0
  160.9430  214.3920  150.0500 O   0  0  0  0  0  1  0  0  0  0  0  0
  1  5  1  0  0  0  0
  2  7  2  0  0  0  0
  3 28  1  6  0  0  0
  3 10  1  0  0  0  0
  4  2  1  0  0  0  0
  4  3  1  0  0  0  0
  5  6  2  0  0  0  0
  7  6  1  0  0  0  0
  7  9  1  0  0  0  0
  8  1  2  0  0  0  0
  8  2  1  0  0  0  0
  9 11  2  0  0  0  0
 10  9  1  0  0  0  0
 12 17  1  0  0  0  0
 13 14  1  0  0  0  0
 14 19  1  0  0  0  0
 15 19  1  0  0  0  0
 16 11  1  6  0  0  0
 16 12  1  0  0  0  0
 16 17  1  0  0  0  0
 17 18  1  0  0  0  0
 17 13  1  0  0  0  0
 18 15  1  0  0  0  0
 20 25  1  0  0  0  0
 22 21  1  1  0  0  0
 22 16  1  0  0  0  0
 22 26  1  0  0  0  0
 23 26  1  0  0  0  0
 24 21  1  0  0  0  0
 24 25  2  0  0  0  0
 25 23  1  0  0  0  0
 27 28  1  0  0  0  0
 29 28  1  0  0  0  0
 29 30  1  0  0  0  0
 30 32  1  0  0  0  0
 31 30  2  0  0  0  0
M  END
>  <MODEL>
1

>  <REMARK>
 VINA RESULT:      -5.8      0.000      0.000
  Name = 
  5 active torsions:
  status: ('A' for Active; 'I' for Inactive)
    1  A    between atoms: C_3  and  N_15
    2  A    between atoms: C_4  and  C_20
    3  A    between atoms: N_15  and  C_20
    4  A    between atoms: C_19  and  C_24
    5  A    between atoms: C_19  and  N_32
                            x       y       z     vdW  Elec       q    Type
                         _______ _______ _______ _____ _____    ______ ____

>  <TORSDO>
F 5

$$$$
=
 OpenBabel11072410313D

 32 36  0  0  1  0  0  0  0  0999 V2000
  161.6640  205.7890  153.5270 N   0  0  0  0  0  0  0  0  0  0  0  0
  161.7000  207.7440  152.1570 C   0  0  0  0  0  0  0  0  0  0  0  0
  161.5110  209.6710  150.5550 C   0  0  1  0  0  3  0  0  0  0  0  0
  162.1300  208.4120  150.9680 N   0  0  0  0  0  2  0  0  0  0  0  0
  160.8460  206.3990  154.4270 C   0  0  0  0  0  3  0  0  0  0  0  0
  160.4360  207.7180  154.2210 C   0  0  0  0  0  3  0  0  0  0  0  0
  160.8710  208.4030  153.0800 C   0  0  0  0  0  0  0  0  0  0  0  0
  162.0960  206.4290  152.4080 C   0  0  0  0  0  3  0  0  0  0  0  0
  160.5010  209.8140  152.8390 C   0  0  0  0  0  0  0  0  0  0  0  0
  161.2370  210.5760  151.7690 C   0  0  0  0  0  2  0  0  0  0  0  0
  159.5850  210.3820  153.5700 N   0  0  0  0  0  0  0  0  0  0  0  0
  159.8360  212.6600  154.4900 C   0  0  0  0  0  2  0  0  0  0  0  0
  157.4590  213.5650  154.3570 C   0  0  0  0  0  2  0  0  0  0  0  0
  156.0190  213.2100  154.7160 C   0  0  0  0  0  2  0  0  0  0  0  0
  157.1630  212.2030  156.8080 C   0  0  0  0  0  2  0  0  0  0  0  0
  159.1600  211.7760  153.4480 C   0  0  2  0  0  0  0  0  0  0  0  0
  158.3520  212.3520  154.6120 C   0  0  0  0  0  0  0  0  0  0  0  0
  158.0280  211.4480  155.8030 C   0  0  0  0  0  2  0  0  0  0  0  0
  155.8680  212.7310  156.1720 C   0  0  0  0  0  2  0  0  0  0  0  0
  158.4350  214.4530  148.3970 O   0  0  0  0  0  1  0  0  0  0  0  0
  159.8610  213.6330  151.7750 C   0  0  0  0  0  2  0  0  0  0  0  0
  159.0650  212.3440  152.0140 C   0  0  2  0  0  3  0  0  0  0  0  0
  157.5440  212.8680  150.1020 C   0  0  0  0  0  2  0  0  0  0  0  0
  159.6470  214.1720  150.3890 C   0  0  0  0  0  3  0  0  0  0  0  0
  158.5730  213.8730  149.6500 C   0  0  0  0  0  0  0  0  0  0  0  0
  157.6150  212.5670  151.5980 C   0  0  0  0  0  2  0  0  0  0  0  0
  162.0910  209.5870  148.2560 C   0  0  0  0  0  1  0  0  0  0  0  0
  162.3070  210.3130  149.4990 N   0  0  0  0  0  0  0  0  0  0  0  0
  161.8850  211.6940  149.2830 C   0  0  0  0  0  2  0  0  0  0  0  0
  162.4790  212.2180  148.0210 C   0  0  0  0  0  0  0  0  0  0  0  0
  161.6520  212.6170  146.9790 O   0  0  0  0  0  0  0  0  0  0  0  0
  163.7280  212.3250  147.9090 O   0  0  0  0  0  1  0  0  0  0  0  0
  1  5  1  0  0  0  0
  2  8  1  0  0  0  0
  2  7  2  0  0  0  0
  3 28  1  6  0  0  0
  3  4  1  0  0  0  0
  3 10  1  0  0  0  0
  4  2  1  0  0  0  0
  6  5  2  0  0  0  0
  7  6  1  0  0  0  0
  8  1  2  0  0  0  0
  9  7  1  0  0  0  0
  9 11  2  0  0  0  0
 10  9  1  0  0  0  0
 12 17  1  0  0  0  0
 13 17  1  0  0  0  0
 13 14  1  0  0  0  0
 14 19  1  0  0  0  0
 16 11  1  1  0  0  0
 16 12  1  0  0  0  0
 16 17  1  0  0  0  0
 17 18  1  0  0  0  0
 18 15  1  0  0  0  0
 19 15  1  0  0  0  0
 20 25  1  0  0  0  0
 21 22  1  0  0  0  0
 22 26  1  1  0  0  0
 22 16  1  0  0  0  0
 23 26  1  0  0  0  0
 24 21  1  0  0  0  0
 25 23  1  0  0  0  0
 25 24  2  0  0  0  0
 27 28  1  0  0  0  0
 29 28  1  0  0  0  0
 30 29  1  0  0  0  0
 31 30  2  0  0  0  0
 32 30  1  0  0  0  0
M  END
>  <MODEL>
2

>  <REMARK>
 VINA RESULT:      -4.6      2.071      3.698
  Name = 
  5 active torsions:
  status: ('A' for Active; 'I' for Inactive)
    1  A    between atoms: C_3  and  N_15
    2  A    between atoms: C_4  and  C_20
    3  A    between atoms: N_15  and  C_20
    4  A    between atoms: C_19  and  C_24
    5  A    between atoms: C_19  and  N_32
                            x       y       z     vdW  Elec       q    Type
                         _______ _______ _______ _____ _____    ______ ____

>  <TORSDO>
F 5

$$$$
=
 OpenBabel11072410313D

 32 36  0  0  1  0  0  0  0  0999 V2000
  160.8580  203.3800  151.9610 N   0  0  0  0  0  0  0  0  0  0  0  0
  161.0970  205.4330  150.7650 C   0  0  0  0  0  0  0  0  0  0  0  0
  161.0460  207.5760  149.4550 C   0  0  1  0  0  3  0  0  0  0  0  0
  161.2530  206.1300  149.5270 N   0  0  0  0  0  2  0  0  0  0  0  0
  160.7460  204.0460  153.1410 C   0  0  0  0  0  3  0  0  0  0  0  0
  160.8170  205.4410  153.1700 C   0  0  0  0  0  3  0  0  0  0  0  0
  161.0020  206.1440  151.9730 C   0  0  0  0  0  0  0  0  0  0  0  0
  161.0320  204.0380  150.7830 C   0  0  0  0  0  3  0  0  0  0  0  0
  161.1290  207.6160  151.9550 C   0  0  0  0  0  0  0  0  0  0  0  0
  161.6240  208.2790  150.6960 C   0  0  0  0  0  2  0  0  0  0  0  0
  160.8530  208.3080  153.0230 N   0  0  0  0  0  0  0  0  0  0  0  0
  162.4300  210.2070  153.0900 C   0  0  0  0  0  2  0  0  0  0  0  0
  161.3680  211.7350  154.8300 C   0  0  0  0  0  2  0  0  0  0  0  0
  160.7890  211.7240  156.2410 C   0  0  0  0  0  2  0  0  0  0  0  0
  162.7280  210.0570  156.6420 C   0  0  0  0  0  2  0  0  0  0  0  0
  160.9730  209.7610  153.1350 C   0  0  2  0  0  0  0  0  0  0  0  0
  161.6550  210.2990  154.3950 C   0  0  0  0  0  0  0  0  0  0  0  0
  162.1450  209.3040  155.4500 C   0  0  0  0  0  2  0  0  0  0  0  0
  161.7130  211.0310  157.2600 C   0  0  0  0  0  2  0  0  0  0  0  0
  157.3900  213.4480  150.5340 O   0  0  0  0  0  1  0  0  0  0  0  0
  160.5900  211.7220  151.4780 C   0  0  0  0  0  2  0  0  0  0  0  0
  159.9660  210.6010  152.3180 C   0  0  2  0  0  3  0  0  0  0  0  0
  157.7630  211.7810  152.3490 C   0  0  0  0  0  2  0  0  0  0  0  0
  159.5450  212.5490  150.7850 C   0  0  0  0  0  3  0  0  0  0  0  0
  158.2780  212.6230  151.2090 C   0  0  0  0  0  0  0  0  0  0  0  0
  158.8790  211.1910  153.2100 C   0  0  0  0  0  2  0  0  0  0  0  0
  162.2400  209.3600  148.4440 C   0  0  0  0  0  1  0  0  0  0  0  0
  161.5520  208.1050  148.1790 N   0  0  0  0  0  0  0  0  0  0  0  0
  162.5160  207.1920  147.5730 C   0  0  0  0  0  2  0  0  0  0  0  0
  161.8200  206.2520  146.6520 C   0  0  0  0  0  0  0  0  0  0  0  0
  162.3530  204.9920  146.4120 O   0  0  0  0  0  1  0  0  0  0  0  0
  160.7340  206.5880  146.1110 O   0  0  0  0  0  0  0  0  0  0  0  0
  1  5  1  0  0  0  0
  2  8  1  0  0  0  0
  2  7  2  0  0  0  0
  3 28  1  6  0  0  0
  3  4  1  0  0  0  0
  3 10  1  0  0  0  0
  4  2  1  0  0  0  0
  5  6  2  0  0  0  0
  7  6  1  0  0  0  0
  8  1  2  0  0  0  0
  9  7  1  0  0  0  0
  9 11  2  0  0  0  0
 10  9  1  0  0  0  0
 12 16  1  0  0  0  0
 12 17  1  0  0  0  0
 13 14  1  0  0  0  0
 14 19  1  0  0  0  0
 15 19  1  0  0  0  0
 16 11  1  6  0  0  0
 16 17  1  0  0  0  0
 17 13  1  0  0  0  0
 17 18  1  0  0  0  0
 18 15  1  0  0  0  0
 20 25  1  0  0  0  0
 22 21  1  1  0  0  0
 22 16  1  0  0  0  0
 22 26  1  0  0  0  0
 23 26  1  0  0  0  0
 24 25  2  0  0  0  0
 24 21  1  0  0  0  0
 25 23  1  0  0  0  0
 28 27  1  0  0  0  0
 29 28  1  0  0  0  0
 30 29  1  0  0  0  0
 31 30  1  0  0  0  0
 32 30  2  0  0  0  0
M  END
>  <MODEL>
3

>  <REMARK>
 VINA RESULT:      -4.6      2.826      3.832
  Name = 
  5 active torsions:
  status: ('A' for Active; 'I' for Inactive)
    1  A    between atoms: C_3  and  N_15
    2  A    between atoms: C_4  and  C_20
    3  A    between atoms: N_15  and  C_20
    4  A    between atoms: C_19  and  C_24
    5  A    between atoms: C_19  and  N_32
                            x       y       z     vdW  Elec       q    Type
                         _______ _______ _______ _____ _____    ______ ____

>  <TORSDO>
F 5

$$$$
=
 OpenBabel11072410313D

 32 36  0  0  1  0  0  0  0  0999 V2000
  160.7800  206.9100  156.0240 N   0  0  0  0  0  0  0  0  0  0  0  0
  160.8520  208.1500  153.9850 C   0  0  0  0  0  0  0  0  0  0  0  0
  160.6850  209.2890  151.7510 C   0  0  1  0  0  3  0  0  0  0  0  0
  161.2510  208.2540  152.6160 N   0  0  0  0  0  2  0  0  0  0  0  0
  160.0550  207.8900  156.6280 C   0  0  0  0  0  3  0  0  0  0  0  0
  159.7130  209.0460  155.9230 C   0  0  0  0  0  3  0  0  0  0  0  0
  160.1200  209.1840  154.5910 C   0  0  0  0  0  0  0  0  0  0  0  0
  161.1830  207.0160  154.7290 C   0  0  0  0  0  3  0  0  0  0  0  0
  159.8220  210.4070  153.8160 C   0  0  0  0  0  0  0  0  0  0  0  0
  160.5380  210.6210  152.5090 C   0  0  0  0  0  2  0  0  0  0  0  0
  158.9870  211.2890  154.2860 N   0  0  0  0  0  0  0  0  0  0  0  0
  159.0900  213.7510  154.4490 C   0  0  0  0  0  2  0  0  0  0  0  0
  156.8290  214.4530  153.5090 C   0  0  0  0  0  2  0  0  0  0  0  0
  155.3360  214.1660  153.6360 C   0  0  0  0  0  2  0  0  0  0  0  0
  155.9530  213.9410  156.1390 C   0  0  0  0  0  2  0  0  0  0  0  0
  158.6400  212.5480  153.6270 C   0  0  2  0  0  0  0  0  0  0  0  0
  157.6080  213.4300  154.3330 C   0  0  0  0  0  0  0  0  0  0  0  0
  157.0000  212.9430  155.6500 C   0  0  0  0  0  2  0  0  0  0  0  0
  154.8490  214.1750  155.0970 C   0  0  0  0  0  2  0  0  0  0  0  0
  159.3020  213.5040  147.9840 O   0  0  0  0  0  1  0  0  0  0  0  0
  160.0100  213.5680  151.6730 C   0  0  0  0  0  2  0  0  0  0  0  0
  158.8840  212.6200  152.1030 C   0  0  2  0  0  3  0  0  0  0  0  0
  157.8160  212.7830  149.8500 C   0  0  0  0  0  2  0  0  0  0  0  0
  160.1270  213.6530  150.1780 C   0  0  0  0  0  3  0  0  0  0  0  0
  159.1190  213.3530  149.3510 C   0  0  0  0  0  0  0  0  0  0  0  0
  157.6090  212.9840  151.3510 C   0  0  0  0  0  2  0  0  0  0  0  0
  162.3250  210.5570  150.5970 C   0  0  0  0  0  1  0  0  0  0  0  0
  161.4550  209.3940  150.5030 N   0  0  0  0  0  0  0  0  0  0  0  0
  162.3040  208.2230  150.3040 C   0  0  0  0  0  2  0  0  0  0  0  0
  161.9100  207.5130  149.0550 C   0  0  0  0  0  0  0  0  0  0  0  0
  160.6450  206.9510  148.9450 O   0  0  0  0  0  1  0  0  0  0  0  0
  162.7130  207.4450  148.0880 O   0  0  0  0  0  0  0  0  0  0  0  0
  1  5  1  0  0  0  0
  2  7  2  0  0  0  0
  2  8  1  0  0  0  0
  3 28  1  6  0  0  0
  3 10  1  0  0  0  0
  3  4  1  0  0  0  0
  4  2  1  0  0  0  0
  6  5  2  0  0  0  0
  7  6  1  0  0  0  0
  8  1  2  0  0  0  0
  9 11  2  0  0  0  0
  9  7  1  0  0  0  0
 10  9  1  0  0  0  0
 13 14  1  0  0  0  0
 13 17  1  0  0  0  0
 14 19  1  0  0  0  0
 16 11  1  1  0  0  0
 16 17  1  0  0  0  0
 16 12  1  0  0  0  0
 17 12  1  0  0  0  0
 17 18  1  0  0  0  0
 18 15  1  0  0  0  0
 19 15  1  0  0  0  0
 20 25  1  0  0  0  0
 21 22  1  0  0  0  0
 22 26  1  6  0  0  0
 22 16  1  0  0  0  0
 23 26  1  0  0  0  0
 24 21  1  0  0  0  0
 25 23  1  0  0  0  0
 25 24  2  0  0  0  0
 28 27  1  0  0  0  0
 29 28  1  0  0  0  0
 30 29  1  0  0  0  0
 31 30  1  0  0  0  0
 32 30  2  0  0  0  0
M  END
>  <MODEL>
4

>  <REMARK>
 VINA RESULT:      -3.9      2.507      5.341
  Name = 
  5 active torsions:
  status: ('A' for Active; 'I' for Inactive)
    1  A    between atoms: C_3  and  N_15
    2  A    between atoms: C_4  and  C_20
    3  A    between atoms: N_15  and  C_20
    4  A    between atoms: C_19  and  C_24
    5  A    between atoms: C_19  and  N_32
                            x       y       z     vdW  Elec       q    Type
                         _______ _______ _______ _____ _____    ______ ____

>  <TORSDO>
F 5

$$$$
=
 OpenBabel11072410313D

 32 36  0  0  1  0  0  0  0  0999 V2000
  160.5970  213.2350  145.1830 N   0  0  0  0  0  0  0  0  0  0  0  0
  161.4000  213.4580  142.9460 C   0  0  0  0  0  0  0  0  0  0  0  0
  162.4210  213.4470  140.6490 C   0  0  1  0  0  3  0  0  0  0  0  0
  162.3970  213.9230  142.0310 N   0  0  0  0  0  2  0  0  0  0  0  0
  159.5150  212.5290  144.7540 C   0  0  0  0  0  3  0  0  0  0  0  0
  159.3370  212.2740  143.3930 C   0  0  0  0  0  3  0  0  0  0  0  0
  160.2830  212.7470  142.4760 C   0  0  0  0  0  0  0  0  0  0  0  0
  161.5330  213.7010  144.3140 C   0  0  0  0  0  3  0  0  0  0  0  0
  160.1180  212.5420  141.0210 C   0  0  0  0  0  0  0  0  0  0  0  0
  160.9950  213.3260  140.0810 C   0  0  0  0  0  2  0  0  0  0  0  0
  159.2040  211.7280  140.5770 N   0  0  0  0  0  0  0  0  0  0  0  0
  158.8110  212.7670  138.3720 C   0  0  0  0  0  2  0  0  0  0  0  0
  157.0010  211.2730  137.3820 C   0  0  0  0  0  2  0  0  0  0  0  0
  155.6480  210.6510  137.7100 C   0  0  0  0  0  2  0  0  0  0  0  0
  155.2840  212.9280  138.8850 C   0  0  0  0  0  2  0  0  0  0  0  0
  158.9260  211.4700  139.1650 C   0  0  2  0  0  0  0  0  0  0  0  0
  157.5670  211.9340  138.6370 C   0  0  0  0  0  0  0  0  0  0  0  0
  156.5930  212.6110  139.6040 C   0  0  0  0  0  2  0  0  0  0  0  0
  154.6430  211.6720  138.2760 C   0  0  0  0  0  2  0  0  0  0  0  0
  162.4440  207.3800  137.1440 O   0  0  0  0  0  1  0  0  0  0  0  0
  160.0340  209.1370  139.4260 C   0  0  0  0  0  2  0  0  0  0  0  0
  159.7210  210.3220  138.5040 C   0  0  2  0  0  3  0  0  0  0  0  0
  161.6410  209.7350  137.0150 C   0  0  0  0  0  2  0  0  0  0  0  0
  160.8850  208.1060  138.7420 C   0  0  0  0  0  3  0  0  0  0  0  0
  161.6560  208.3850  137.6850 C   0  0  0  0  0  0  0  0  0  0  0  0
  161.0190  210.8280  137.8830 C   0  0  0  0  0  2  0  0  0  0  0  0
  164.5670  214.4530  140.5630 C   0  0  0  0  0  1  0  0  0  0  0  0
  163.3200  214.2770  139.8340 N   0  0  0  0  0  0  0  0  0  0  0  0
  163.6380  213.6270  138.5660 C   0  0  0  0  0  2  0  0  0  0  0  0
  165.0450  213.1390  138.5810 C   0  0  0  0  0  0  0  0  0  0  0  0
  165.3140  211.8000  138.8340 O   0  0  0  0  0  1  0  0  0  0  0  0
  165.9900  213.9340  138.3380 O   0  0  0  0  0  0  0  0  0  0  0  0
  2  8  1  0  0  0  0
  3 28  1  6  0  0  0
  3  4  1  0  0  0  0
  4  2  1  0  0  0  0
  5  1  1  0  0  0  0
  6  5  2  0  0  0  0
  7  2  2  0  0  0  0
  7  6  1  0  0  0  0
  8  1  2  0  0  0  0
  9  7  1  0  0  0  0
 10  3  1  0  0  0  0
 10  9  1  0  0  0  0
 11  9  2  0  0  0  0
 12 17  1  0  0  0  0
 12 16  1  0  0  0  0
 13 14  1  0  0  0  0
 13 17  1  0  0  0  0
 14 19  1  0  0  0  0
 15 18  1  0  0  0  0
 16 11  1  1  0  0  0
 17 16  1  0  0  0  0
 17 18  1  0  0  0  0
 19 15  1  0  0  0  0
 20 25  1  0  0  0  0
 22 26  1  1  0  0  0
 22 16  1  0  0  0  0
 22 21  1  0  0  0  0
 23 25  1  0  0  0  0
 23 26  1  0  0  0  0
 24 21  1  0  0  0  0
 25 24  2  0  0  0  0
 28 27  1  0  0  0  0
 29 30  1  0  0  0  0
 29 28  1  0  0  0  0
 30 31  1  0  0  0  0
 32 30  2  0  0  0  0
M  END
>  <MODEL>
5

>  <REMARK>
 VINA RESULT:      -3.8      9.393     13.656
  Name = 
  5 active torsions:
  status: ('A' for Active; 'I' for Inactive)
    1  A    between atoms: C_3  and  N_15
    2  A    between atoms: C_4  and  C_20
    3  A    between atoms: N_15  and  C_20
    4  A    between atoms: C_19  and  C_24
    5  A    between atoms: C_19  and  N_32
                            x       y       z     vdW  Elec       q    Type
                         _______ _______ _______ _____ _____    ______ ____

>  <TORSDO>
F 5

$$$$
=
 OpenBabel11072410313D

 32 36  0  0  1  0  0  0  0  0999 V2000
  160.8610  213.1900  149.1940 N   0  0  0  0  0  0  0  0  0  0  0  0
  161.1030  211.3280  150.6690 C   0  0  0  0  0  0  0  0  0  0  0  0
  161.6400  209.4750  152.2800 C   0  0  1  0  0  3  0  0  0  0  0  0
  161.5740  210.0010  150.9170 N   0  0  0  0  0  2  0  0  0  0  0  0
  160.2470  213.9170  150.1660 C   0  0  0  0  0  3  0  0  0  0  0  0
  160.0310  213.3610  151.4290 C   0  0  0  0  0  3  0  0  0  0  0  0
  160.4550  212.0520  151.6840 C   0  0  0  0  0  0  0  0  0  0  0  0
  161.2880  211.9180  149.4170 C   0  0  0  0  0  3  0  0  0  0  0  0
  160.2110  211.4020  152.9900 C   0  0  0  0  0  0  0  0  0  0  0  0
  160.4140  209.9140  153.1000 C   0  0  0  0  0  2  0  0  0  0  0  0
  159.7920  212.1070  154.0000 N   0  0  0  0  0  0  0  0  0  0  0  0
  160.0940  212.4280  156.4310 C   0  0  0  0  0  2  0  0  0  0  0  0
  160.3950  210.0390  157.2610 C   0  0  0  0  0  2  0  0  0  0  0  0
  161.1880  208.7650  156.9850 C   0  0  0  0  0  2  0  0  0  0  0  0
  163.0740  210.4670  156.4920 C   0  0  0  0  0  2  0  0  0  0  0  0
  159.4840  211.5720  155.3260 C   0  0  2  0  0  0  0  0  0  0  0  0
  160.6640  211.0480  156.1460 C   0  0  0  0  0  0  0  0  0  0  0  0
  162.0670  211.0980  155.5350 C   0  0  0  0  0  2  0  0  0  0  0  0
  162.7000  209.0200  156.8490 C   0  0  0  0  0  2  0  0  0  0  0  0
  153.8860  210.4300  156.0710 O   0  0  0  0  0  1  0  0  0  0  0  0
  157.1290  211.1540  154.3190 C   0  0  0  0  0  2  0  0  0  0  0  0
  158.0370  211.0780  155.5520 C   0  0  2  0  0  3  0  0  0  0  0  0
  156.0580  211.1260  157.0760 C   0  0  0  0  0  2  0  0  0  0  0  0
  155.7190  210.7450  154.6380 C   0  0  0  0  0  3  0  0  0  0  0  0
  155.2130  210.7840  155.8750 C   0  0  0  0  0  0  0  0  0  0  0  0
  157.3710  211.8150  156.7090 C   0  0  0  0  0  2  0  0  0  0  0  0
  160.9410  207.4090  153.2110 C   0  0  0  0  0  1  0  0  0  0  0  0
  161.8560  208.0210  152.2600 N   0  0  0  0  0  0  0  0  0  0  0  0
  161.5650  207.4600  150.9440 C   0  0  0  0  0  2  0  0  0  0  0  0
  161.4970  205.9740  151.0260 C   0  0  0  0  0  0  0  0  0  0  0  0
  160.4560  205.2920  150.4090 O   0  0  0  0  0  0  0  0  0  0  0  0
  162.3960  205.3340  151.6310 O   0  0  0  0  0  1  0  0  0  0  0  0
  1  8  2  0  0  0  0
  1  5  1  0  0  0  0
  2  4  1  0  0  0  0
  2  7  2  0  0  0  0
  3 28  1  6  0  0  0
  3 10  1  0  0  0  0
  4  3  1  0  0  0  0
  5  6  2  0  0  0  0
  6  7  1  0  0  0  0
  7  9  1  0  0  0  0
  8  2  1  0  0  0  0
  9 10  1  0  0  0  0
  9 11  2  0  0  0  0
 14 13  1  0  0  0  0
 15 19  1  0  0  0  0
 16 11  1  6  0  0  0
 16 22  1  0  0  0  0
 16 17  1  0  0  0  0
 16 12  1  0  0  0  0
 17 12  1  0  0  0  0
 17 13  1  0  0  0  0
 18 17  1  0  0  0  0
 18 15  1  0  0  0  0
 19 14  1  0  0  0  0
 21 24  1  0  0  0  0
 22 21  1  6  0  0  0
 22 26  1  0  0  0  0
 24 25  2  0  0  0  0
 25 20  1  0  0  0  0
 25 23  1  0  0  0  0
 26 23  1  0  0  0  0
 28 27  1  0  0  0  0
 29 30  1  0  0  0  0
 29 28  1  0  0  0  0
 30 32  1  0  0  0  0
 31 30  2  0  0  0  0
M  END
>  <MODEL>
6

>  <REMARK>
 VINA RESULT:      -3.8      3.012      4.931
  Name = 
  5 active torsions:
  status: ('A' for Active; 'I' for Inactive)
    1  A    between atoms: C_3  and  N_15
    2  A    between atoms: C_4  and  C_20
    3  A    between atoms: N_15  and  C_20
    4  A    between atoms: C_19  and  C_24
    5  A    between atoms: C_19  and  N_32
                            x       y       z     vdW  Elec       q    Type
                         _______ _______ _______ _____ _____    ______ ____

>  <TORSDO>
F 5

$$$$
=
 OpenBabel11072410313D

 32 36  0  0  1  0  0  0  0  0999 V2000
  160.8250  202.8910  151.5820 N   0  0  0  0  0  0  0  0  0  0  0  0
  161.0790  205.0270  150.5460 C   0  0  0  0  0  0  0  0  0  0  0  0
  161.0410  207.2700  149.4120 C   0  0  1  0  0  3  0  0  0  0  0  0
  161.2110  205.8190  149.3620 N   0  0  0  0  0  2  0  0  0  0  0  0
  160.7710  203.4640  152.8150 C   0  0  0  0  0  3  0  0  0  0  0  0
  160.8800  204.8500  152.9520 C   0  0  0  0  0  3  0  0  0  0  0  0
  161.0430  205.6410  151.8090 C   0  0  0  0  0  0  0  0  0  0  0  0
  160.9770  203.6380  150.4550 C   0  0  0  0  0  3  0  0  0  0  0  0
  161.2090  207.1070  151.9030 C   0  0  0  0  0  0  0  0  0  0  0  0
  161.6790  207.8570  150.6840 C   0  0  0  0  0  2  0  0  0  0  0  0
  160.9870  207.7170  153.0320 N   0  0  0  0  0  0  0  0  0  0  0  0
  162.4670  209.4650  153.9570 C   0  0  0  0  0  2  0  0  0  0  0  0
  160.8040  211.0820  155.0110 C   0  0  0  0  0  2  0  0  0  0  0  0
  159.6020  211.1230  155.9490 C   0  0  0  0  0  2  0  0  0  0  0  0
  160.9470  209.2870  157.1800 C   0  0  0  0  0  2  0  0  0  0  0  0
  161.1500  209.1530  153.2550 C   0  0  2  0  0  0  0  0  0  0  0  0
  161.1560  209.6270  154.7100 C   0  0  0  0  0  0  0  0  0  0  0  0
  160.9770  208.5910  155.8220 C   0  0  0  0  0  2  0  0  0  0  0  0
  159.8400  210.3490  157.2580 C   0  0  0  0  0  2  0  0  0  0  0  0
  159.9290  213.1640  149.3020 O   0  0  0  0  0  1  0  0  0  0  0  0
  161.9280  210.7180  151.3350 C   0  0  0  0  0  2  0  0  0  0  0  0
  160.7510  210.0820  152.0850 C   0  0  2  0  0  3  0  0  0  0  0  0
  159.2190  211.9060  151.3330 C   0  0  0  0  0  2  0  0  0  0  0  0
  161.4620  211.6750  150.2750 C   0  0  0  0  0  3  0  0  0  0  0  0
  160.2590  212.2580  150.3000 C   0  0  0  0  0  0  0  0  0  0  0  0
  159.7990  211.1810  152.5460 C   0  0  0  0  0  2  0  0  0  0  0  0
  162.3420  209.0370  148.5100 C   0  0  0  0  0  1  0  0  0  0  0  0
  161.5180  207.8880  148.1660 N   0  0  0  0  0  0  0  0  0  0  0  0
  162.3480  206.9620  147.4000 C   0  0  0  0  0  2  0  0  0  0  0  0
  161.5720  206.4040  146.2580 C   0  0  0  0  0  0  0  0  0  0  0  0
  162.2200  205.6830  145.2640 O   0  0  0  0  0  0  0  0  0  0  0  0
  160.3240  206.5630  146.2070 O   0  0  0  0  0  1  0  0  0  0  0  0
  1  5  1  0  0  0  0
  2  7  2  0  0  0  0
  3 28  1  6  0  0  0
  3 10  1  0  0  0  0
  4  3  1  0  0  0  0
  4  2  1  0  0  0  0
  5  6  2  0  0  0  0
  7  9  1  0  0  0  0
  7  6  1  0  0  0  0
  8  2  1  0  0  0  0
  8  1  2  0  0  0  0
  9 11  2  0  0  0  0
 10  9  1  0  0  0  0
 12 17  1  0  0  0  0
 13 14  1  0  0  0  0
 14 19  1  0  0  0  0
 15 19  1  0  0  0  0
 16 11  1  6  0  0  0
 16 12  1  0  0  0  0
 16 17  1  0  0  0  0
 17 13  1  0  0  0  0
 17 18  1  0  0  0  0
 18 15  1  0  0  0  0
 20 25  1  0  0  0  0
 22 21  1  1  0  0  0
 22 26  1  0  0  0  0
 22 16  1  0  0  0  0
 23 26  1  0  0  0  0
 24 25  2  0  0  0  0
 24 21  1  0  0  0  0
 25 23  1  0  0  0  0
 28 27  1  0  0  0  0
 29 28  1  0  0  0  0
 30 29  1  0  0  0  0
 31 30  2  0  0  0  0
 32 30  1  0  0  0  0
M  END
>  <MODEL>
7

>  <REMARK>
 VINA RESULT:      -3.6      2.716      4.076
  Name = 
  5 active torsions:
  status: ('A' for Active; 'I' for Inactive)
    1  A    between atoms: C_3  and  N_15
    2  A    between atoms: C_4  and  C_20
    3  A    between atoms: N_15  and  C_20
    4  A    between atoms: C_19  and  C_24
    5  A    between atoms: C_19  and  N_32
                            x       y       z     vdW  Elec       q    Type
                         _______ _______ _______ _____ _____    ______ ____

>  <TORSDO>
F 5

$$$$
=
 OpenBabel11072410313D

 32 36  0  0  1  0  0  0  0  0999 V2000
  159.7030  214.4430  149.4310 N   0  0  0  0  0  0  0  0  0  0  0  0
  158.7140  213.5070  151.3920 C   0  0  0  0  0  0  0  0  0  0  0  0
  157.4930  212.3620  153.2670 C   0  0  1  0  0  3  0  0  0  0  0  0
  157.6620  213.4980  152.3610 N   0  0  0  0  0  2  0  0  0  0  0  0
  160.7090  213.5270  149.4660 C   0  0  0  0  0  3  0  0  0  0  0  0
  160.7530  212.5710  150.4840 C   0  0  0  0  0  3  0  0  0  0  0  0
  159.7510  212.5630  151.4620 C   0  0  0  0  0  0  0  0  0  0  0  0
  158.7150  214.4530  150.3650 C   0  0  0  0  0  3  0  0  0  0  0  0
  159.7770  211.6000  152.5840 C   0  0  0  0  0  0  0  0  0  0  0  0
  158.8560  211.8350  153.7520 C   0  0  0  0  0  2  0  0  0  0  0  0
  160.6090  210.6000  152.5660 N   0  0  0  0  0  0  0  0  0  0  0  0
  159.5630  209.6410  154.5870 C   0  0  0  0  0  2  0  0  0  0  0  0
  161.5710  209.2430  156.1020 C   0  0  0  0  0  2  0  0  0  0  0  0
  162.8090  209.9390  156.6590 C   0  0  0  0  0  2  0  0  0  0  0  0
  161.1990  211.9640  156.7450 C   0  0  0  0  0  2  0  0  0  0  0  0
  160.7490  209.6060  153.6300 C   0  0  2  0  0  0  0  0  0  0  0  0
  160.9200  210.1420  155.0520 C   0  0  0  0  0  0  0  0  0  0  0  0
  160.9530  211.6560  155.2700 C   0  0  0  0  0  2  0  0  0  0  0  0
  162.4980  211.3230  157.2580 C   0  0  0  0  0  2  0  0  0  0  0  0
  161.9480  204.2600  151.8450 O   0  0  0  0  0  1  0  0  0  0  0  0
  161.2390  207.9460  151.6950 C   0  0  0  0  0  2  0  0  0  0  0  0
  161.2560  208.2090  153.2050 C   0  0  2  0  0  3  0  0  0  0  0  0
  161.1830  205.7570  153.6850 C   0  0  0  0  0  2  0  0  0  0  0  0
  161.6580  206.5410  151.3680 C   0  0  0  0  0  3  0  0  0  0  0  0
  161.5810  205.5360  152.2470 C   0  0  0  0  0  0  0  0  0  0  0  0
  160.4880  207.0990  153.9140 C   0  0  0  0  0  2  0  0  0  0  0  0
  155.5270  213.5700  153.8140 C   0  0  0  0  0  1  0  0  0  0  0  0
  156.5630  212.7040  154.3530 N   0  0  0  0  0  0  0  0  0  0  0  0
  155.9100  211.5120  154.8860 C   0  0  0  0  0  2  0  0  0  0  0  0
  156.0760  211.4570  156.3650 C   0  0  0  0  0  0  0  0  0  0  0  0
  157.3160  211.7130  156.9350 O   0  0  0  0  0  0  0  0  0  0  0  0
  155.0860  211.2040  157.1010 O   0  0  0  0  0  1  0  0  0  0  0  0
  1  5  2  0  0  0  0
  1  8  1  0  0  0  0
  2  7  1  0  0  0  0
  2  4  1  0  0  0  0
  3 10  1  0  0  0  0
  3 28  1  1  0  0  0
  4  3  1  0  0  0  0
  5  6  1  0  0  0  0
  6  7  2  0  0  0  0
  7  9  1  0  0  0  0
  8  2  2  0  0  0  0
  9 10  1  0  0  0  0
 11  9  2  0  0  0  0
 12 17  1  0  0  0  0
 13 14  1  0  0  0  0
 14 19  1  0  0  0  0
 15 19  1  0  0  0  0
 16 11  1  6  0  0  0
 16 12  1  0  0  0  0
 16 17  1  0  0  0  0
 17 18  1  0  0  0  0
 17 13  1  0  0  0  0
 18 15  1  0  0  0  0
 20 25  1  0  0  0  0
 22 21  1  6  0  0  0
 22 16  1  0  0  0  0
 22 26  1  0  0  0  0
 23 26  1  0  0  0  0
 24 21  1  0  0  0  0
 24 25  2  0  0  0  0
 25 23  1  0  0  0  0
 27 28  1  0  0  0  0
 28 29  1  0  0  0  0
 29 30  1  0  0  0  0
 30 31  2  0  0  0  0
 30 32  1  0  0  0  0
M  END
>  <MODEL>
8

>  <REMARK>
 VINA RESULT:      -3.6      3.135      6.482
  Name = 
  5 active torsions:
  status: ('A' for Active; 'I' for Inactive)
    1  A    between atoms: C_3  and  N_15
    2  A    between atoms: C_4  and  C_20
    3  A    between atoms: N_15  and  C_20
    4  A    between atoms: C_19  and  C_24
    5  A    between atoms: C_19  and  N_32
                            x       y       z     vdW  Elec       q    Type
                         _______ _______ _______ _____ _____    ______ ____

>  <TORSDO>
F 5

$$$$
=
 OpenBabel11072410313D

 32 36  0  0  1  0  0  0  0  0999 V2000
  161.4110  211.2700  156.3120 N   0  0  0  0  0  0  0  0  0  0  0  0
  160.2200  211.7720  154.3040 C   0  0  0  0  0  0  0  0  0  0  0  0
  159.1140  212.5710  152.1940 C   0  0  1  0  0  3  0  0  0  0  0  0
  159.1180  212.4010  153.6460 N   0  0  0  0  0  2  0  0  0  0  0  0
  162.3710  210.6070  155.6110 C   0  0  0  0  0  3  0  0  0  0  0  0
  162.2760  210.4970  154.2220 C   0  0  0  0  0  3  0  0  0  0  0  0
  161.1880  211.0780  153.5600 C   0  0  0  0  0  0  0  0  0  0  0  0
  160.3470  211.8480  155.6930 C   0  0  0  0  0  3  0  0  0  0  0  0
  161.0190  210.9520  152.0960 C   0  0  0  0  0  0  0  0  0  0  0  0
  159.6920  211.3290  151.4920 C   0  0  0  0  0  2  0  0  0  0  0  0
  161.9910  210.4860  151.3650 N   0  0  0  0  0  0  0  0  0  0  0  0
  163.1440  210.8840  149.2180 C   0  0  0  0  0  2  0  0  0  0  0  0
  161.2060  211.4020  147.6480 C   0  0  0  0  0  2  0  0  0  0  0  0
  159.9580  212.2720  147.5300 C   0  0  0  0  0  2  0  0  0  0  0  0
  161.4830  214.0000  148.7070 C   0  0  0  0  0  2  0  0  0  0  0  0
  161.9290  210.2850  149.9180 C   0  0  2  0  0  0  0  0  0  0  0  0
  161.7820  211.5410  149.0560 C   0  0  0  0  0  0  0  0  0  0  0  0
  161.6920  212.9030  149.7470 C   0  0  0  0  0  2  0  0  0  0  0  0
  160.2300  213.7530  147.8530 C   0  0  0  0  0  2  0  0  0  0  0  0
  160.8560  204.8430  148.3610 O   0  0  0  0  0  1  0  0  0  0  0  0
  161.2060  207.8740  150.5510 C   0  0  0  0  0  2  0  0  0  0  0  0
  161.4680  208.8920  149.4350 C   0  0  2  0  0  3  0  0  0  0  0  0
  161.8430  207.0570  147.7810 C   0  0  0  0  0  2  0  0  0  0  0  0
  160.8510  206.5220  150.0030 C   0  0  0  0  0  3  0  0  0  0  0  0
  161.1860  206.1270  148.7690 C   0  0  0  0  0  0  0  0  0  0  0  0
  162.4530  208.2950  148.4360 C   0  0  0  0  0  2  0  0  0  0  0  0
  157.1350  213.7510  152.7590 C   0  0  0  0  0  1  0  0  0  0  0  0
  157.7740  212.9530  151.7240 N   0  0  0  0  0  0  0  0  0  0  0  0
  157.8500  213.7730  150.5180 C   0  0  0  0  0  2  0  0  0  0  0  0
  156.7060  213.4620  149.6160 C   0  0  0  0  0  0  0  0  0  0  0  0
  155.5050  214.1450  149.7570 O   0  0  0  0  0  1  0  0  0  0  0  0
  156.8360  212.6000  148.7080 O   0  0  0  0  0  0  0  0  0  0  0  0
  2  8  2  0  0  0  0
  3 28  1  6  0  0  0
  3  4  1  0  0  0  0
  4  2  1  0  0  0  0
  5  1  2  0  0  0  0
  6  5  1  0  0  0  0
  7  6  2  0  0  0  0
  7  2  1  0  0  0  0
  8  1  1  0  0  0  0
  9  7  1  0  0  0  0
 10  9  1  0  0  0  0
 10  3  1  0  0  0  0
 11  9  2  0  0  0  0
 12 16  1  0  0  0  0
 13 17  1  0  0  0  0
 14 13  1  0  0  0  0
 14 19  1  0  0  0  0
 15 18  1  0  0  0  0
 16 11  1  1  0  0  0
 17 12  1  0  0  0  0
 17 18  1  0  0  0  0
 17 16  1  0  0  0  0
 19 15  1  0  0  0  0
 20 25  1  0  0  0  0
 22 26  1  6  0  0  0
 22 16  1  0  0  0  0
 22 21  1  0  0  0  0
 23 26  1  0  0  0  0
 23 25  1  0  0  0  0
 24 21  1  0  0  0  0
 25 24  2  0  0  0  0
 28 27  1  0  0  0  0
 29 28  1  0  0  0  0
 30 31  1  0  0  0  0
 30 29  1  0  0  0  0
 32 30  2  0  0  0  0
M  END
>  <MODEL>
9

>  <REMARK>
 VINA RESULT:      -3.6      2.597      6.940
  Name = 
  5 active torsions:
  status: ('A' for Active; 'I' for Inactive)
    1  A    between atoms: C_3  and  N_15
    2  A    between atoms: C_4  and  C_20
    3  A    between atoms: N_15  and  C_20
    4  A    between atoms: C_19  and  C_24
    5  A    between atoms: C_19  and  N_32
                            x       y       z     vdW  Elec       q    Type
                         _______ _______ _______ _____ _____    ______ ____

>  <TORSDO>
F 5

$$$$
