=
 OpenBabel11072410203D

 33 37  0  0  1  0  0  0  0  0999 V2000
  160.4800  209.6450  153.5260 C   0  0  0  0  0  0  0  0  0  0  0  0
  160.3530  209.7820  154.9860 C   0  0  1  0  0  3  0  0  0  0  0  0
  161.3510  209.9370  155.8360 C   0  0  0  0  0  3  0  0  0  0  0  0
  160.8390  210.5610  157.0070 N   0  0  0  0  0  0  0  0  0  0  0  0
  159.6020  210.8220  156.8680 N   0  0  0  0  0  2  0  0  0  0  0  0
  158.5580  211.4270  154.7160 C   0  0  0  0  0  3  0  0  0  0  0  0
  159.1130  210.3320  155.5900 C   0  0  1  0  0  3  0  0  0  0  0  0
  158.7850  211.4390  153.3900 C   0  0  0  0  0  0  0  0  0  0  0  0
  159.7160  210.4450  152.7720 C   0  0  0  0  0  3  0  0  0  0  0  0
  162.1330  209.9550  149.2040 C   0  0  0  0  0  2  0  0  0  0  0  0
  161.4800  208.9030  151.3570 C   0  0  2  0  0  3  0  0  0  0  0  0
  161.6980  208.6100  148.6170 C   0  0  0  0  0  3  0  0  0  0  0  0
  161.4630  208.7240  152.8710 C   0  0  2  0  0  3  0  0  0  0  0  0
  161.5190  207.5000  149.3700 C   0  0  0  0  0  0  0  0  0  0  0  0
  161.9180  207.5670  150.8170 C   0  0  2  0  0  3  0  0  0  0  0  0
  161.1220  205.4300  151.6610 O   0  0  0  0  0  0  0  0  0  0  0  0
  161.3090  206.6650  151.8190 C   0  0  0  0  0  0  0  0  0  0  0  0
  162.3640  209.9630  150.7340 C   0  0  0  0  0  2  0  0  0  0  0  0
  161.0740  207.3300  153.0540 N   0  0  0  0  0  2  0  0  0  0  0  0
  159.7620  205.9640  148.8960 F   0  0  0  0  0  0  0  0  0  0  0  0
  161.1160  206.2000  148.7350 C   0  0  1  0  0  3  0  0  0  0  0  0
  160.5490  206.4360  146.3070 O   0  0  0  0  0  0  0  0  0  0  0  0
  161.4900  206.1540  147.2900 C   0  0  0  0  0  0  0  0  0  0  0  0
  162.6670  205.8530  146.9620 O   0  0  0  0  0  1  0  0  0  0  0  0
  158.1610  212.4180  152.6120 O   0  0  0  0  0  0  0  0  0  0  0  0
  158.4280  213.8030  152.7810 C   0  0  0  0  0  2  0  0  0  0  0  0
  157.6990  213.7480  149.2530 C   0  0  0  0  0  3  0  0  0  0  0  0
  158.6980  214.4500  151.4350 C   0  0  1  0  0  3  0  0  0  0  0  0
  159.0380  213.4080  148.7590 C   0  0  0  0  0  0  0  0  0  0  0  0
  159.1930  213.0070  147.5750 O   0  0  0  0  0  0  0  0  0  0  0  0
  160.0300  213.9760  150.9030 C   0  0  0  0  0  3  0  0  0  0  0  0
  160.1890  213.5130  149.6620 C   0  0  0  0  0  3  0  0  0  0  0  0
  157.5380  214.2120  150.4940 C   0  0  0  0  0  3  0  0  0  0  0  0
  1  2  1  0  0  0  0
  2  7  1  0  0  0  0
  2  3  1  6  0  0  0
  3  4  2  0  0  0  0
  5  4  1  0  0  0  0
  7  6  1  6  0  0  0
  7  5  1  0  0  0  0
  8  6  2  0  0  0  0
  9  8  1  0  0  0  0
  9  1  2  0  0  0  0
 10 18  1  0  0  0  0
 11 18  1  1  0  0  0
 11 13  1  0  0  0  0
 12 10  1  0  0  0  0
 12 14  2  0  0  0  0
 13 19  1  0  0  0  0
 13  1  1  1  0  0  0
 15 14  1  6  0  0  0
 15 11  1  0  0  0  0
 15 17  1  0  0  0  0
 16 17  2  0  0  0  0
 17 19  1  0  0  0  0
 21 20  1  6  0  0  0
 21 14  1  0  0  0  0
 22 23  2  0  0  0  0
 23 21  1  0  0  0  0
 24 23  1  0  0  0  0
 25 26  1  0  0  0  0
 25  8  1  0  0  0  0
 27 33  2  0  0  0  0
 28 26  1  1  0  0  0
 29 27  1  0  0  0  0
 29 32  1  0  0  0  0
 30 29  2  0  0  0  0
 31 28  1  0  0  0  0
 32 31  2  0  0  0  0
 33 28  1  0  0  0  0
M  END
>  <MODEL>
1

>  <REMARK>
 VINA RESULT:      -7.5      0.000      0.000
  Name = 
  6 active torsions:
  status: ('A' for Active; 'I' for Inactive)
    1  A    between atoms: C_5  and  C_6
    2  A    between atoms: C_7  and  C_29
    3  A    between atoms: C_10  and  C_14
    4  A    between atoms: C_14  and  O_32
    5  A    between atoms: C_23  and  C_29
    6  A    between atoms: C_24  and  O_32
                            x       y       z     vdW  Elec       q    Type
                         _______ _______ _______ _____ _____    ______ ____

>  <TORSDO>
F 6

$$$$
=
 OpenBabel11072410203D

 33 37  0  0  1  0  0  0  0  0999 V2000
  161.6490  207.2430  151.4590 C   0  0  0  0  0  0  0  0  0  0  0  0
  161.6650  205.9110  152.0860 C   0  0  1  0  0  3  0  0  0  0  0  0
  161.0600  205.5800  153.2110 C   0  0  0  0  0  3  0  0  0  0  0  0
  160.8430  204.1740  153.1970 N   0  0  0  0  0  0  0  0  0  0  0  0
  161.2490  203.6710  152.1020 N   0  0  0  0  0  2  0  0  0  0  0  0
  161.1650  204.8480  149.9350 C   0  0  0  0  0  3  0  0  0  0  0  0
  161.8590  204.6900  151.2640 C   0  0  1  0  0  3  0  0  0  0  0  0
  160.9760  206.0650  149.3920 C   0  0  0  0  0  0  0  0  0  0  0  0
  161.3200  207.3000  150.1620 C   0  0  0  0  0  3  0  0  0  0  0  0
  160.1720  208.2710  155.7330 C   0  0  0  0  0  2  0  0  0  0  0  0
  160.9620  208.6490  153.4090 C   0  0  2  0  0  3  0  0  0  0  0  0
  159.3510  209.5360  155.4720 C   0  0  0  0  0  3  0  0  0  0  0  0
  161.9030  208.5090  152.2170 C   0  0  2  0  0  3  0  0  0  0  0  0
  159.6010  210.3800  154.4440 C   0  0  0  0  0  0  0  0  0  0  0  0
  160.8380  210.1340  153.6270 C   0  0  2  0  0  3  0  0  0  0  0  0
  160.5900  211.7580  151.8340 O   0  0  0  0  0  0  0  0  0  0  0  0
  160.9380  210.6160  152.2310 C   0  0  0  0  0  0  0  0  0  0  0  0
  161.3280  208.0190  154.7350 C   0  0  0  0  0  2  0  0  0  0  0  0
  161.6040  209.6780  151.3960 N   0  0  0  0  0  2  0  0  0  0  0  0
  157.4790  211.3070  153.8910 F   0  0  0  0  0  0  0  0  0  0  0  0
  158.7770  211.6210  154.2540 C   0  0  1  0  0  3  0  0  0  0  0  0
  159.9790  213.0400  155.9310 O   0  0  0  0  0  0  0  0  0  0  0  0
  158.7900  212.4830  155.4720 C   0  0  0  0  0  0  0  0  0  0  0  0
  157.7160  212.7040  156.0890 O   0  0  0  0  0  1  0  0  0  0  0  0
  160.4210  206.1480  148.1130 O   0  0  0  0  0  0  0  0  0  0  0  0
  161.1180  206.7320  147.0210 C   0  0  0  0  0  2  0  0  0  0  0  0
  160.3560  204.1930  144.5810 C   0  0  0  0  0  3  0  0  0  0  0  0
  161.6820  205.6460  146.1230 C   0  0  1  0  0  3  0  0  0  0  0  0
  160.7570  203.0150  145.3580 C   0  0  0  0  0  0  0  0  0  0  0  0
  160.4000  201.8640  144.9940 O   0  0  0  0  0  0  0  0  0  0  0  0
  161.9650  204.4090  146.9410 C   0  0  0  0  0  3  0  0  0  0  0  0
  161.5530  203.1930  146.5780 C   0  0  0  0  0  3  0  0  0  0  0  0
  160.7670  205.4100  144.9430 C   0  0  0  0  0  3  0  0  0  0  0  0
  1  2  1  0  0  0  0
  2  3  1  6  0  0  0
  4  3  2  0  0  0  0
  5  4  1  0  0  0  0
  7  6  1  6  0  0  0
  7  2  1  0  0  0  0
  7  5  1  0  0  0  0
  8  6  2  0  0  0  0
  8  9  1  0  0  0  0
  9  1  2  0  0  0  0
 11 15  1  0  0  0  0
 11 18  1  1  0  0  0
 12 10  1  0  0  0  0
 13  1  1  6  0  0  0
 13 11  1  0  0  0  0
 14 12  2  0  0  0  0
 15 17  1  6  0  0  0
 15 14  1  0  0  0  0
 16 17  2  0  0  0  0
 18 10  1  0  0  0  0
 19 13  1  0  0  0  0
 19 17  1  0  0  0  0
 21 20  1  1  0  0  0
 21 14  1  0  0  0  0
 21 23  1  0  0  0  0
 23 22  2  0  0  0  0
 23 24  1  0  0  0  0
 25  8  1  0  0  0  0
 26 25  1  0  0  0  0
 27 33  2  0  0  0  0
 27 29  1  0  0  0  0
 28 31  1  0  0  0  0
 28 26  1  1  0  0  0
 29 32  1  0  0  0  0
 30 29  2  0  0  0  0
 32 31  2  0  0  0  0
 33 28  1  0  0  0  0
M  END
>  <MODEL>
2

>  <REMARK>
 VINA RESULT:      -7.3      3.239      8.096
  Name = 
  6 active torsions:
  status: ('A' for Active; 'I' for Inactive)
    1  A    between atoms: C_5  and  C_6
    2  A    between atoms: C_7  and  C_29
    3  A    between atoms: C_10  and  C_14
    4  A    between atoms: C_14  and  O_32
    5  A    between atoms: C_23  and  C_29
    6  A    between atoms: C_24  and  O_32
                            x       y       z     vdW  Elec       q    Type
                         _______ _______ _______ _____ _____    ______ ____

>  <TORSDO>
F 6

$$$$
=
 OpenBabel11072410203D

 33 37  0  0  1  0  0  0  0  0999 V2000
  161.4990  208.8990  152.0990 C   0  0  0  0  0  0  0  0  0  0  0  0
  161.4810  207.7630  153.0350 C   0  0  1  0  0  3  0  0  0  0  0  0
  160.5830  207.5550  153.9800 C   0  0  0  0  0  3  0  0  0  0  0  0
  160.5720  206.1650  154.2790 N   0  0  0  0  0  0  0  0  0  0  0  0
  161.3840  205.5400  153.5260 N   0  0  0  0  0  2  0  0  0  0  0  0
  161.8770  206.1910  151.1970 C   0  0  0  0  0  3  0  0  0  0  0  0
  162.1000  206.4650  152.6630 C   0  0  1  0  0  3  0  0  0  0  0  0
  161.7210  207.1980  150.3190 C   0  0  0  0  0  0  0  0  0  0  0  0
  161.6190  208.6120  150.7970 C   0  0  0  0  0  3  0  0  0  0  0  0
  162.2240  210.6360  156.3380 C   0  0  0  0  0  2  0  0  0  0  0  0
  161.2730  210.4460  154.0510 C   0  0  2  0  0  3  0  0  0  0  0  0
  160.8390  211.1930  156.6770 C   0  0  0  0  0  3  0  0  0  0  0  0
  161.3120  210.3210  152.5320 C   0  0  2  0  0  3  0  0  0  0  0  0
  159.9610  211.6120  155.7360 C   0  0  0  0  0  0  0  0  0  0  0  0
  160.4410  211.6740  154.3130 C   0  0  2  0  0  3  0  0  0  0  0  0
  158.3980  212.2170  153.1130 O   0  0  0  0  0  0  0  0  0  0  0  0
  159.4900  211.5960  153.1830 C   0  0  0  0  0  0  0  0  0  0  0  0
  162.5640  210.5900  154.8280 C   0  0  0  0  0  2  0  0  0  0  0  0
  160.0140  210.8300  152.1050 N   0  0  0  0  0  2  0  0  0  0  0  0
  158.0380  211.4120  157.1250 F   0  0  0  0  0  0  0  0  0  0  0  0
  158.6250  212.1740  156.1300 C   0  0  1  0  0  3  0  0  0  0  0  0
  159.8250  214.3710  156.1750 O   0  0  0  0  0  0  0  0  0  0  0  0
  158.7310  213.6020  156.5530 C   0  0  0  0  0  0  0  0  0  0  0  0
  157.8230  214.1100  157.2590 O   0  0  0  0  0  1  0  0  0  0  0  0
  161.6210  206.8920  148.9600 O   0  0  0  0  0  0  0  0  0  0  0  0
  160.7800  205.8530  148.4770 C   0  0  0  0  0  2  0  0  0  0  0  0
  161.3320  203.4370  145.8610 C   0  0  0  0  0  3  0  0  0  0  0  0
  161.6190  204.6760  148.0130 C   0  0  1  0  0  3  0  0  0  0  0  0
  161.0040  202.2210  146.6150 C   0  0  0  0  0  0  0  0  0  0  0  0
  160.7900  201.1380  146.0090 O   0  0  0  0  0  0  0  0  0  0  0  0
  161.1660  203.4220  148.7220 C   0  0  0  0  0  3  0  0  0  0  0  0
  160.9000  202.2840  148.0770 C   0  0  0  0  0  3  0  0  0  0  0  0
  161.5980  204.5750  146.5050 C   0  0  0  0  0  3  0  0  0  0  0  0
  1  2  1  0  0  0  0
  2  3  1  6  0  0  0
  3  4  2  0  0  0  0
  5  4  1  0  0  0  0
  7  6  1  6  0  0  0
  7  2  1  0  0  0  0
  7  5  1  0  0  0  0
  8  9  1  0  0  0  0
  8  6  2  0  0  0  0
  9  1  2  0  0  0  0
 10 12  1  0  0  0  0
 11 15  1  0  0  0  0
 11 18  1  6  0  0  0
 13  1  1  1  0  0  0
 13 11  1  0  0  0  0
 14 21  1  0  0  0  0
 14 12  2  0  0  0  0
 15 17  1  6  0  0  0
 15 14  1  0  0  0  0
 16 17  2  0  0  0  0
 18 10  1  0  0  0  0
 19 13  1  0  0  0  0
 19 17  1  0  0  0  0
 21 23  1  0  0  0  0
 21 20  1  1  0  0  0
 22 23  2  0  0  0  0
 23 24  1  0  0  0  0
 25  8  1  0  0  0  0
 26 25  1  0  0  0  0
 27 33  2  0  0  0  0
 27 29  1  0  0  0  0
 28 26  1  6  0  0  0
 28 31  1  0  0  0  0
 29 32  1  0  0  0  0
 30 29  2  0  0  0  0
 32 31  2  0  0  0  0
 33 28  1  0  0  0  0
M  END
>  <MODEL>
3

>  <REMARK>
 VINA RESULT:      -7.3      3.244      8.369
  Name = 
  6 active torsions:
  status: ('A' for Active; 'I' for Inactive)
    1  A    between atoms: C_5  and  C_6
    2  A    between atoms: C_7  and  C_29
    3  A    between atoms: C_10  and  C_14
    4  A    between atoms: C_14  and  O_32
    5  A    between atoms: C_23  and  C_29
    6  A    between atoms: C_24  and  O_32
                            x       y       z     vdW  Elec       q    Type
                         _______ _______ _______ _____ _____    ______ ____

>  <TORSDO>
F 6

$$$$
=
 OpenBabel11072410203D

 33 37  0  0  1  0  0  0  0  0999 V2000
  161.3440  208.3130  151.7270 C   0  0  0  0  0  0  0  0  0  0  0  0
  161.4400  208.3920  150.2600 C   0  0  1  0  0  3  0  0  0  0  0  0
  162.3970  208.9950  149.5800 C   0  0  0  0  0  3  0  0  0  0  0  0
  162.4520  208.4110  148.2850 N   0  0  0  0  0  0  0  0  0  0  0  0
  161.6090  207.4640  148.1860 N   0  0  0  0  0  2  0  0  0  0  0  0
  160.9650  205.9960  150.0610 C   0  0  0  0  0  3  0  0  0  0  0  0
  160.8250  207.3450  149.4040 C   0  0  1  0  0  3  0  0  0  0  0  0
  161.0480  205.8810  151.3990 C   0  0  0  0  0  0  0  0  0  0  0  0
  161.1510  207.1000  152.2590 C   0  0  0  0  0  3  0  0  0  0  0  0
  160.0680  208.6620  156.1720 C   0  0  0  0  0  2  0  0  0  0  0  0
  160.6600  209.3970  153.8740 C   0  0  2  0  0  3  0  0  0  0  0  0
  159.1150  209.8590  156.1190 C   0  0  0  0  0  3  0  0  0  0  0  0
  161.5280  209.4980  152.6250 C   0  0  2  0  0  3  0  0  0  0  0  0
  159.2160  210.8430  155.1950 C   0  0  0  0  0  0  0  0  0  0  0  0
  160.4120  210.8240  154.2860 C   0  0  2  0  0  3  0  0  0  0  0  0
  159.8930  212.6190  152.7300 O   0  0  0  0  0  0  0  0  0  0  0  0
  160.3730  211.4780  152.9590 C   0  0  0  0  0  0  0  0  0  0  0  0
  161.1730  208.6510  155.0880 C   0  0  0  0  0  2  0  0  0  0  0  0
  161.0660  210.7210  151.9760 N   0  0  0  0  0  2  0  0  0  0  0  0
  156.9660  211.5890  155.4210 F   0  0  0  0  0  0  0  0  0  0  0  0
  158.2680  212.0070  155.2080 C   0  0  1  0  0  3  0  0  0  0  0  0
  159.9030  213.6580  156.1420 O   0  0  0  0  0  0  0  0  0  0  0  0
  158.6660  213.0290  156.2220 C   0  0  0  0  0  0  0  0  0  0  0  0
  157.8750  213.3190  157.1560 O   0  0  0  0  0  1  0  0  0  0  0  0
  161.0720  204.6020  151.9610 O   0  0  0  0  0  0  0  0  0  0  0  0
  161.6900  203.5000  151.3110 C   0  0  0  0  0  2  0  0  0  0  0  0
  160.9180  200.6190  149.2880 C   0  0  0  0  0  3  0  0  0  0  0  0
  160.7460  202.9080  150.2800 C   0  0  1  0  0  3  0  0  0  0  0  0
  161.1320  201.2180  147.9660 C   0  0  0  0  0  0  0  0  0  0  0  0
  161.2450  200.4840  146.9490 O   0  0  0  0  0  0  0  0  0  0  0  0
  161.0810  203.4560  148.9130 C   0  0  0  0  0  3  0  0  0  0  0  0
  161.2410  202.6760  147.8420 C   0  0  0  0  0  3  0  0  0  0  0  0
  160.7570  201.3980  150.3600 C   0  0  0  0  0  3  0  0  0  0  0  0
  1  9  2  0  0  0  0
  2  3  1  1  0  0  0
  2  1  1  0  0  0  0
  4  3  2  0  0  0  0
  5  4  1  0  0  0  0
  5  7  1  0  0  0  0
  6  8  2  0  0  0  0
  7  6  1  1  0  0  0
  7  2  1  0  0  0  0
  8 25  1  0  0  0  0
  8  9  1  0  0  0  0
 11 15  1  0  0  0  0
 11 18  1  1  0  0  0
 12 10  1  0  0  0  0
 13  1  1  6  0  0  0
 13 11  1  0  0  0  0
 14 21  1  0  0  0  0
 14 12  2  0  0  0  0
 15 17  1  6  0  0  0
 15 14  1  0  0  0  0
 16 17  2  0  0  0  0
 18 10  1  0  0  0  0
 19 13  1  0  0  0  0
 19 17  1  0  0  0  0
 21 20  1  1  0  0  0
 21 23  1  0  0  0  0
 22 23  2  0  0  0  0
 23 24  1  0  0  0  0
 26 25  1  0  0  0  0
 27 33  2  0  0  0  0
 28 33  1  0  0  0  0
 28 26  1  1  0  0  0
 29 27  1  0  0  0  0
 30 29  2  0  0  0  0
 31 28  1  0  0  0  0
 32 29  1  0  0  0  0
 32 31  2  0  0  0  0
M  END
>  <MODEL>
4

>  <REMARK>
 VINA RESULT:      -7.3      3.425      8.866
  Name = 
  6 active torsions:
  status: ('A' for Active; 'I' for Inactive)
    1  A    between atoms: C_5  and  C_6
    2  A    between atoms: C_7  and  C_29
    3  A    between atoms: C_10  and  C_14
    4  A    between atoms: C_14  and  O_32
    5  A    between atoms: C_23  and  C_29
    6  A    between atoms: C_24  and  O_32
                            x       y       z     vdW  Elec       q    Type
                         _______ _______ _______ _____ _____    ______ ____

>  <TORSDO>
F 6

$$$$
=
 OpenBabel11072410203D

 33 37  0  0  1  0  0  0  0  0999 V2000
  161.4790  207.1400  151.4000 C   0  0  0  0  0  0  0  0  0  0  0  0
  161.3720  207.5190  149.9820 C   0  0  1  0  0  3  0  0  0  0  0  0
  162.2520  208.2340  149.3060 C   0  0  0  0  0  3  0  0  0  0  0  0
  162.0980  207.9310  147.9250 N   0  0  0  0  0  0  0  0  0  0  0  0
  161.2050  207.0400  147.7610 N   0  0  0  0  0  2  0  0  0  0  0  0
  160.7620  205.2250  149.3730 C   0  0  0  0  0  3  0  0  0  0  0  0
  160.5950  206.6840  149.0310 C   0  0  1  0  0  3  0  0  0  0  0  0
  161.0270  204.8340  150.6330 C   0  0  0  0  0  0  0  0  0  0  0  0
  161.3060  205.8460  151.6980 C   0  0  0  0  0  3  0  0  0  0  0  0
  160.0810  207.0280  155.8200 C   0  0  0  0  0  2  0  0  0  0  0  0
  160.9130  207.9840  153.6840 C   0  0  2  0  0  3  0  0  0  0  0  0
  159.3790  208.3830  155.9490 C   0  0  0  0  0  3  0  0  0  0  0  0
  161.8430  208.1090  152.4830 C   0  0  2  0  0  3  0  0  0  0  0  0
  159.7100  209.4600  155.1990 C   0  0  0  0  0  0  0  0  0  0  0  0
  160.9230  209.3500  154.3200 C   0  0  2  0  0  3  0  0  0  0  0  0
  160.8310  211.4340  153.0700 O   0  0  0  0  0  0  0  0  0  0  0  0
  161.0730  210.2000  153.1170 C   0  0  0  0  0  0  0  0  0  0  0  0
  161.2140  206.9720  154.7680 C   0  0  0  0  0  2  0  0  0  0  0  0
  161.6560  209.4850  152.0360 N   0  0  0  0  0  2  0  0  0  0  0  0
  157.6420  210.5840  155.5630 F   0  0  0  0  0  0  0  0  0  0  0  0
  159.0020  210.7710  155.3880 C   0  0  1  0  0  3  0  0  0  0  0  0
  160.9150  211.4020  156.8750 O   0  0  0  0  0  0  0  0  0  0  0  0
  159.5780  211.5490  156.5250 C   0  0  0  0  0  0  0  0  0  0  0  0
  158.8450  212.3410  157.1710 O   0  0  0  0  0  1  0  0  0  0  0  0
  161.0690  203.4660  150.9140 O   0  0  0  0  0  0  0  0  0  0  0  0
  160.4450  202.5010  150.0790 C   0  0  0  0  0  2  0  0  0  0  0  0
  160.8300  202.2860  146.5020 C   0  0  0  0  0  3  0  0  0  0  0  0
  161.3710  202.1220  148.9380 C   0  0  1  0  0  3  0  0  0  0  0  0
  160.9590  200.8290  146.3840 C   0  0  0  0  0  0  0  0  0  0  0  0
  160.8340  200.2720  145.2620 O   0  0  0  0  0  0  0  0  0  0  0  0
  161.3780  200.6210  148.7690 C   0  0  0  0  0  3  0  0  0  0  0  0
  161.2060  200.0260  147.5860 C   0  0  0  0  0  3  0  0  0  0  0  0
  161.0030  202.8820  147.6840 C   0  0  0  0  0  3  0  0  0  0  0  0
  1  9  2  0  0  0  0
  2  3  1  6  0  0  0
  2  1  1  0  0  0  0
  4  3  2  0  0  0  0
  5  4  1  0  0  0  0
  5  7  1  0  0  0  0
  6  8  2  0  0  0  0
  7  6  1  1  0  0  0
  7  2  1  0  0  0  0
  8 25  1  0  0  0  0
  8  9  1  0  0  0  0
 10 12  1  0  0  0  0
 11 15  1  0  0  0  0
 11 18  1  1  0  0  0
 13  1  1  6  0  0  0
 13 11  1  0  0  0  0
 14 21  1  0  0  0  0
 14 12  2  0  0  0  0
 15 17  1  6  0  0  0
 15 14  1  0  0  0  0
 16 17  2  0  0  0  0
 18 10  1  0  0  0  0
 19 13  1  0  0  0  0
 19 17  1  0  0  0  0
 21 20  1  1  0  0  0
 21 23  1  0  0  0  0
 23 22  2  0  0  0  0
 23 24  1  0  0  0  0
 26 25  1  0  0  0  0
 27 33  2  0  0  0  0
 28 26  1  1  0  0  0
 29 27  1  0  0  0  0
 29 32  1  0  0  0  0
 30 29  2  0  0  0  0
 31 28  1  0  0  0  0
 32 31  2  0  0  0  0
 33 28  1  0  0  0  0
M  END
>  <MODEL>
5

>  <REMARK>
 VINA RESULT:      -7.2      3.730      9.071
  Name = 
  6 active torsions:
  status: ('A' for Active; 'I' for Inactive)
    1  A    between atoms: C_5  and  C_6
    2  A    between atoms: C_7  and  C_29
    3  A    between atoms: C_10  and  C_14
    4  A    between atoms: C_14  and  O_32
    5  A    between atoms: C_23  and  C_29
    6  A    between atoms: C_24  and  O_32
                            x       y       z     vdW  Elec       q    Type
                         _______ _______ _______ _____ _____    ______ ____

>  <TORSDO>
F 6

$$$$
=
 OpenBabel11072410203D

 33 37  0  0  1  0  0  0  0  0999 V2000
  161.6620  211.6410  148.8010 C   0  0  0  0  0  0  0  0  0  0  0  0
  161.3690  211.7260  150.2410 C   0  0  1  0  0  3  0  0  0  0  0  0
  160.3130  212.3050  150.7800 C   0  0  0  0  0  3  0  0  0  0  0  0
  160.1010  211.7280  152.0630 N   0  0  0  0  0  0  0  0  0  0  0  0
  160.9510  210.8080  152.2840 N   0  0  0  0  0  2  0  0  0  0  0  0
  161.8820  209.3460  150.5270 C   0  0  0  0  0  3  0  0  0  0  0  0
  161.8940  210.7040  151.1820 C   0  0  1  0  0  3  0  0  0  0  0  0
  161.9820  209.2200  149.1910 C   0  0  0  0  0  0  0  0  0  0  0  0
  161.9600  210.4300  148.3120 C   0  0  0  0  0  3  0  0  0  0  0  0
  158.2120  212.5760  145.8470 C   0  0  0  0  0  2  0  0  0  0  0  0
  160.5060  212.5950  146.8000 C   0  0  2  0  0  3  0  0  0  0  0  0
  158.9590  212.6000  144.5100 C   0  0  0  0  0  3  0  0  0  0  0  0
  161.5660  212.8130  147.8740 C   0  0  2  0  0  3  0  0  0  0  0  0
  160.2680  212.9230  144.4010 C   0  0  0  0  0  0  0  0  0  0  0  0
  160.9660  213.4280  145.6320 C   0  0  2  0  0  3  0  0  0  0  0  0
  163.2750  213.5660  144.8840 O   0  0  0  0  0  0  0  0  0  0  0  0
  162.4330  213.3060  145.7820 C   0  0  0  0  0  0  0  0  0  0  0  0
  159.0640  212.9560  147.0820 C   0  0  0  0  0  2  0  0  0  0  0  0
  162.8020  212.9820  147.1170 N   0  0  0  0  0  2  0  0  0  0  0  0
  161.6230  211.7760  142.8140 F   0  0  0  0  0  0  0  0  0  0  0  0
  160.9400  212.9550  143.0590 C   0  0  1  0  0  3  0  0  0  0  0  0
  159.4650  212.2040  141.1800 O   0  0  0  0  0  0  0  0  0  0  0  0
  159.9670  213.2380  141.9620 C   0  0  0  0  0  0  0  0  0  0  0  0
  159.6040  214.4220  141.7430 O   0  0  0  0  0  1  0  0  0  0  0  0
  162.0700  207.9380  148.6450 O   0  0  0  0  0  0  0  0  0  0  0  0
  162.2840  206.7850  149.4470 C   0  0  0  0  0  2  0  0  0  0  0  0
  160.7050  203.8120  150.7330 C   0  0  0  0  0  3  0  0  0  0  0  0
  161.1050  205.8370  149.3220 C   0  0  1  0  0  3  0  0  0  0  0  0
  160.8280  202.9660  149.5400 C   0  0  0  0  0  0  0  0  0  0  0  0
  160.6530  201.7230  149.6240 O   0  0  0  0  0  0  0  0  0  0  0  0
  161.3300  204.9010  148.1580 C   0  0  0  0  0  3  0  0  0  0  0  0
  161.1840  203.5780  148.2550 C   0  0  0  0  0  3  0  0  0  0  0  0
  160.8510  205.1340  150.6370 C   0  0  0  0  0  3  0  0  0  0  0  0
  1  2  1  0  0  0  0
  2  3  1  6  0  0  0
  2  7  1  0  0  0  0
  3  4  2  0  0  0  0
  4  5  1  0  0  0  0
  7  6  1  6  0  0  0
  7  5  1  0  0  0  0
  8  6  2  0  0  0  0
  9  1  2  0  0  0  0
  9  8  1  0  0  0  0
 10 18  1  0  0  0  0
 11 18  1  1  0  0  0
 11 13  1  0  0  0  0
 12 10  1  0  0  0  0
 13  1  1  1  0  0  0
 14 12  2  0  0  0  0
 15 14  1  6  0  0  0
 15 17  1  0  0  0  0
 15 11  1  0  0  0  0
 16 17  2  0  0  0  0
 17 19  1  0  0  0  0
 19 13  1  0  0  0  0
 21 20  1  6  0  0  0
 21 14  1  0  0  0  0
 22 23  2  0  0  0  0
 23 21  1  0  0  0  0
 24 23  1  0  0  0  0
 25  8  1  0  0  0  0
 25 26  1  0  0  0  0
 28 26  1  1  0  0  0
 28 33  1  0  0  0  0
 29 30  2  0  0  0  0
 29 27  1  0  0  0  0
 31 32  2  0  0  0  0
 31 28  1  0  0  0  0
 32 29  1  0  0  0  0
 33 27  2  0  0  0  0
M  END
>  <MODEL>
6

>  <REMARK>
 VINA RESULT:      -6.9      4.033      7.944
  Name = 
  6 active torsions:
  status: ('A' for Active; 'I' for Inactive)
    1  A    between atoms: C_5  and  C_6
    2  A    between atoms: C_7  and  C_29
    3  A    between atoms: C_10  and  C_14
    4  A    between atoms: C_14  and  O_32
    5  A    between atoms: C_23  and  C_29
    6  A    between atoms: C_24  and  O_32
                            x       y       z     vdW  Elec       q    Type
                         _______ _______ _______ _____ _____    ______ ____

>  <TORSDO>
F 6

$$$$
=
 OpenBabel11072410203D

 33 37  0  0  1  0  0  0  0  0999 V2000
  160.6760  209.6260  153.1000 C   0  0  0  0  0  0  0  0  0  0  0  0
  160.1540  209.9070  154.4480 C   0  0  1  0  0  3  0  0  0  0  0  0
  160.8690  209.9680  155.5550 C   0  0  0  0  0  3  0  0  0  0  0  0
  160.1590  210.7660  156.4940 N   0  0  0  0  0  0  0  0  0  0  0  0
  159.0870  211.2140  155.9780 N   0  0  0  0  0  2  0  0  0  0  0  0
  158.8480  211.7960  153.5920 C   0  0  0  0  0  3  0  0  0  0  0  0
  158.9130  210.7030  154.6280 C   0  0  1  0  0  3  0  0  0  0  0  0
  159.4520  211.6560  152.3980 C   0  0  0  0  0  0  0  0  0  0  0  0
  160.3250  210.4740  152.1240 C   0  0  0  0  0  3  0  0  0  0  0  0
  161.5040  207.6990  148.9640 C   0  0  0  0  0  2  0  0  0  0  0  0
  161.3540  207.8870  151.4360 C   0  0  2  0  0  3  0  0  0  0  0  0
  161.1200  206.2410  149.2280 C   0  0  0  0  0  3  0  0  0  0  0  0
  161.6220  208.5030  152.8050 C   0  0  2  0  0  3  0  0  0  0  0  0
  161.1950  205.6680  150.4520 C   0  0  0  0  0  0  0  0  0  0  0  0
  161.8310  206.4640  151.5560 C   0  0  2  0  0  3  0  0  0  0  0  0
  161.4290  205.0520  153.4940 O   0  0  0  0  0  0  0  0  0  0  0  0
  161.5070  206.1950  152.9750 C   0  0  0  0  0  0  0  0  0  0  0  0
  161.9960  208.4850  150.2030 C   0  0  0  0  0  2  0  0  0  0  0  0
  161.4220  207.3950  153.7320 N   0  0  0  0  0  2  0  0  0  0  0  0
  159.5990  204.1000  151.2700 F   0  0  0  0  0  0  0  0  0  0  0  0
  160.8280  204.2250  150.6460 C   0  0  1  0  0  3  0  0  0  0  0  0
  161.6590  203.8860  148.3080 O   0  0  0  0  0  0  0  0  0  0  0  0
  160.8420  203.4750  149.3540 C   0  0  0  0  0  0  0  0  0  0  0  0
  160.1050  202.4650  149.2140 O   0  0  0  0  0  1  0  0  0  0  0  0
  159.2740  212.6540  151.4360 O   0  0  0  0  0  0  0  0  0  0  0  0
  158.0910  213.4390  151.3700 C   0  0  0  0  0  2  0  0  0  0  0  0
  157.0820  212.8820  147.9550 C   0  0  0  0  0  3  0  0  0  0  0  0
  157.9490  214.0510  149.9880 C   0  0  1  0  0  3  0  0  0  0  0  0
  158.3900  213.0490  147.3120 C   0  0  0  0  0  0  0  0  0  0  0  0
  158.5670  212.6620  146.1270 O   0  0  0  0  0  0  0  0  0  0  0  0
  159.2990  214.0900  149.3110 C   0  0  0  0  0  3  0  0  0  0  0  0
  159.4970  213.6430  148.0690 C   0  0  0  0  0  3  0  0  0  0  0  0
  156.8830  213.3280  149.1970 C   0  0  0  0  0  3  0  0  0  0  0  0
  1  2  1  0  0  0  0
  2  7  1  0  0  0  0
  2  3  1  1  0  0  0
  3  4  2  0  0  0  0
  5  4  1  0  0  0  0
  7  6  1  6  0  0  0
  7  5  1  0  0  0  0
  8  6  2  0  0  0  0
  9  8  1  0  0  0  0
  9  1  2  0  0  0  0
 10 12  1  0  0  0  0
 10 18  1  0  0  0  0
 11 18  1  6  0  0  0
 11 15  1  0  0  0  0
 11 13  1  0  0  0  0
 12 14  2  0  0  0  0
 13  1  1  1  0  0  0
 13 19  1  0  0  0  0
 14 21  1  0  0  0  0
 15 14  1  6  0  0  0
 15 17  1  0  0  0  0
 17 16  2  0  0  0  0
 17 19  1  0  0  0  0
 21 20  1  6  0  0  0
 22 23  2  0  0  0  0
 23 21  1  0  0  0  0
 24 23  1  0  0  0  0
 25  8  1  0  0  0  0
 26 25  1  0  0  0  0
 27 33  2  0  0  0  0
 28 26  1  1  0  0  0
 29 27  1  0  0  0  0
 29 32  1  0  0  0  0
 30 29  2  0  0  0  0
 31 28  1  0  0  0  0
 32 31  2  0  0  0  0
 33 28  1  0  0  0  0
M  END
>  <MODEL>
7

>  <REMARK>
 VINA RESULT:      -6.9      1.551      1.937
  Name = 
  6 active torsions:
  status: ('A' for Active; 'I' for Inactive)
    1  A    between atoms: C_5  and  C_6
    2  A    between atoms: C_7  and  C_29
    3  A    between atoms: C_10  and  C_14
    4  A    between atoms: C_14  and  O_32
    5  A    between atoms: C_23  and  C_29
    6  A    between atoms: C_24  and  O_32
                            x       y       z     vdW  Elec       q    Type
                         _______ _______ _______ _____ _____    ______ ____

>  <TORSDO>
F 6

$$$$
=
 OpenBabel11072410203D

 33 37  0  0  1  0  0  0  0  0999 V2000
  160.9390  209.1220  153.3900 C   0  0  0  0  0  0  0  0  0  0  0  0
  160.7380  208.4260  154.6710 C   0  0  1  0  0  3  0  0  0  0  0  0
  159.7300  208.6150  155.5020 C   0  0  0  0  0  3  0  0  0  0  0  0
  159.5860  207.4420  156.2940 N   0  0  0  0  0  0  0  0  0  0  0  0
  160.4270  206.5580  155.9370 N   0  0  0  0  0  2  0  0  0  0  0  0
  161.2140  206.2650  153.6170 C   0  0  0  0  0  3  0  0  0  0  0  0
  161.2970  207.0680  154.8910 C   0  0  1  0  0  3  0  0  0  0  0  0
  161.2280  206.8680  152.4150 C   0  0  0  0  0  0  0  0  0  0  0  0
  161.1790  208.3600  152.3150 C   0  0  0  0  0  3  0  0  0  0  0  0
  160.3550  212.2360  156.7770 C   0  0  0  0  0  2  0  0  0  0  0  0
  160.2560  211.2580  154.4960 C   0  0  2  0  0  3  0  0  0  0  0  0
  159.0310  212.8840  156.3650 C   0  0  0  0  0  3  0  0  0  0  0  0
  160.8110  210.6060  153.2340 C   0  0  2  0  0  3  0  0  0  0  0  0
  158.6090  212.9510  155.0810 C   0  0  0  0  0  0  0  0  0  0  0  0
  159.5640  212.5050  154.0100 C   0  0  2  0  0  3  0  0  0  0  0  0
  158.1730  212.6030  152.0180 O   0  0  0  0  0  0  0  0  0  0  0  0
  159.0730  212.0390  152.6940 C   0  0  0  0  0  0  0  0  0  0  0  0
  161.1960  211.6590  155.6120 C   0  0  0  0  0  2  0  0  0  0  0  0
  159.8310  210.9410  152.2060 N   0  0  0  0  0  2  0  0  0  0  0  0
  157.4570  214.4530  153.6370 F   0  0  0  0  0  0  0  0  0  0  0  0
  157.3120  213.6230  154.7340 C   0  0  1  0  0  3  0  0  0  0  0  0
  156.3410  211.3280  154.9770 O   0  0  0  0  0  1  0  0  0  0  0  0
  156.2210  212.6300  154.5040 C   0  0  0  0  0  0  0  0  0  0  0  0
  155.1890  212.9740  153.8730 O   0  0  0  0  0  0  0  0  0  0  0  0
  161.2530  206.0730  151.2670 O   0  0  0  0  0  0  0  0  0  0  0  0
  161.6460  204.7080  151.2990 C   0  0  0  0  0  2  0  0  0  0  0  0
  160.8940  201.4140  150.0470 C   0  0  0  0  0  3  0  0  0  0  0  0
  160.7100  203.8760  150.4420 C   0  0  1  0  0  3  0  0  0  0  0  0
  161.1140  201.6680  148.6190 C   0  0  0  0  0  0  0  0  0  0  0  0
  161.2350  200.7060  147.8160 O   0  0  0  0  0  0  0  0  0  0  0  0
  161.0520  204.0700  148.9840 C   0  0  0  0  0  3  0  0  0  0  0  0
  161.2200  203.0500  148.1390 C   0  0  0  0  0  3  0  0  0  0  0  0
  160.7250  202.4320  150.8920 C   0  0  0  0  0  3  0  0  0  0  0  0
  1  2  1  0  0  0  0
  2  7  1  0  0  0  0
  2  3  1  6  0  0  0
  3  4  2  0  0  0  0
  5  4  1  0  0  0  0
  7  6  1  6  0  0  0
  7  5  1  0  0  0  0
  8  6  2  0  0  0  0
  9  8  1  0  0  0  0
  9  1  2  0  0  0  0
 11 18  1  1  0  0  0
 12 10  1  0  0  0  0
 13  1  1  1  0  0  0
 13 11  1  0  0  0  0
 14 12  2  0  0  0  0
 15 17  1  6  0  0  0
 15 11  1  0  0  0  0
 15 14  1  0  0  0  0
 16 17  2  0  0  0  0
 18 10  1  0  0  0  0
 19 17  1  0  0  0  0
 19 13  1  0  0  0  0
 21 20  1  6  0  0  0
 21 14  1  0  0  0  0
 23 21  1  0  0  0  0
 23 22  1  0  0  0  0
 24 23  2  0  0  0  0
 25 26  1  0  0  0  0
 25  8  1  0  0  0  0
 27 33  2  0  0  0  0
 28 33  1  0  0  0  0
 28 26  1  1  0  0  0
 29 27  1  0  0  0  0
 30 29  2  0  0  0  0
 31 28  1  0  0  0  0
 32 29  1  0  0  0  0
 32 31  2  0  0  0  0
M  END
>  <MODEL>
8

>  <REMARK>
 VINA RESULT:      -6.8      3.268      8.226
  Name = 
  6 active torsions:
  status: ('A' for Active; 'I' for Inactive)
    1  A    between atoms: C_5  and  C_6
    2  A    between atoms: C_7  and  C_29
    3  A    between atoms: C_10  and  C_14
    4  A    between atoms: C_14  and  O_32
    5  A    between atoms: C_23  and  C_29
    6  A    between atoms: C_24  and  O_32
                            x       y       z     vdW  Elec       q    Type
                         _______ _______ _______ _____ _____    ______ ____

>  <TORSDO>
F 6

$$$$
=
 OpenBabel11072410203D

 33 37  0  0  1  0  0  0  0  0999 V2000
  161.7550  206.0700  149.7180 C   0  0  0  0  0  0  0  0  0  0  0  0
  161.4670  206.3310  151.1380 C   0  0  1  0  0  3  0  0  0  0  0  0
  162.1520  205.8610  152.1630 C   0  0  0  0  0  3  0  0  0  0  0  0
  161.9370  206.7270  153.2700 N   0  0  0  0  0  0  0  0  0  0  0  0
  161.1980  207.7060  152.9330 N   0  0  0  0  0  2  0  0  0  0  0  0
  161.2060  208.7250  150.6860 C   0  0  0  0  0  3  0  0  0  0  0  0
  160.7660  207.5720  151.5520 C   0  0  1  0  0  3  0  0  0  0  0  0
  161.6380  208.5220  149.4290 C   0  0  0  0  0  0  0  0  0  0  0  0
  161.8290  207.1340  148.9070 C   0  0  0  0  0  3  0  0  0  0  0  0
  162.6300  204.9510  145.3030 C   0  0  0  0  0  2  0  0  0  0  0  0
  161.8980  204.6590  147.6580 C   0  0  2  0  0  3  0  0  0  0  0  0
  161.5020  203.9570  145.0140 C   0  0  0  0  0  3  0  0  0  0  0  0
  162.0380  204.7020  149.1760 C   0  0  2  0  0  3  0  0  0  0  0  0
  160.9220  203.1990  145.9740 C   0  0  0  0  0  0  0  0  0  0  0  0
  161.5280  203.2320  147.3480 C   0  0  2  0  0  3  0  0  0  0  0  0
  159.9310  201.9280  148.6370 O   0  0  0  0  0  0  0  0  0  0  0  0
  160.7240  202.9010  148.5450 C   0  0  0  0  0  0  0  0  0  0  0  0
  163.0760  205.0290  146.7830 C   0  0  0  0  0  2  0  0  0  0  0  0
  161.0470  203.7400  149.6460 N   0  0  0  0  0  2  0  0  0  0  0  0
  159.1300  202.6370  144.5110 F   0  0  0  0  0  0  0  0  0  0  0  0
  159.8360  202.2220  145.6260 C   0  0  1  0  0  3  0  0  0  0  0  0
  161.2080  200.2670  146.3790 O   0  0  0  0  0  1  0  0  0  0  0  0
  160.3780  200.8450  145.4260 C   0  0  0  0  0  0  0  0  0  0  0  0
  160.0820  200.2060  144.3840 O   0  0  0  0  0  0  0  0  0  0  0  0
  161.9360  209.6330  148.6360 O   0  0  0  0  0  0  0  0  0  0  0  0
  162.6120  210.7720  149.1500 C   0  0  0  0  0  2  0  0  0  0  0  0
  160.4530  212.2040  146.6460 C   0  0  0  0  0  3  0  0  0  0  0  0
  161.9630  212.0420  148.6320 C   0  0  1  0  0  3  0  0  0  0  0  0
  161.4330  213.0700  145.9820 C   0  0  0  0  0  0  0  0  0  0  0  0
  161.1800  213.5620  144.8510 O   0  0  0  0  0  0  0  0  0  0  0  0
  162.9740  212.8440  147.8480 C   0  0  0  0  0  3  0  0  0  0  0  0
  162.7210  213.3330  146.6320 C   0  0  0  0  0  3  0  0  0  0  0  0
  160.7030  211.7150  147.8620 C   0  0  0  0  0  3  0  0  0  0  0  0
  1  2  1  0  0  0  0
  2  7  1  0  0  0  0
  2  3  1  1  0  0  0
  3  4  2  0  0  0  0
  5  4  1  0  0  0  0
  7  6  1  6  0  0  0
  7  5  1  0  0  0  0
  8  6  2  0  0  0  0
  9  8  1  0  0  0  0
  9  1  2  0  0  0  0
 10 18  1  0  0  0  0
 11 18  1  6  0  0  0
 11 13  1  0  0  0  0
 12 10  1  0  0  0  0
 12 14  2  0  0  0  0
 13 19  1  0  0  0  0
 13  1  1  1  0  0  0
 15 14  1  6  0  0  0
 15 11  1  0  0  0  0
 15 17  1  0  0  0  0
 17 16  2  0  0  0  0
 17 19  1  0  0  0  0
 21 20  1  6  0  0  0
 21 14  1  0  0  0  0
 23 21  1  0  0  0  0
 23 22  1  0  0  0  0
 24 23  2  0  0  0  0
 25 26  1  0  0  0  0
 25  8  1  0  0  0  0
 27 33  2  0  0  0  0
 28 26  1  6  0  0  0
 29 32  1  0  0  0  0
 29 27  1  0  0  0  0
 30 29  2  0  0  0  0
 31 28  1  0  0  0  0
 32 31  2  0  0  0  0
 33 28  1  0  0  0  0
M  END
>  <MODEL>
9

>  <REMARK>
 VINA RESULT:      -6.5      3.746      5.375
  Name = 
  6 active torsions:
  status: ('A' for Active; 'I' for Inactive)
    1  A    between atoms: C_5  and  C_6
    2  A    between atoms: C_7  and  C_29
    3  A    between atoms: C_10  and  C_14
    4  A    between atoms: C_14  and  O_32
    5  A    between atoms: C_23  and  C_29
    6  A    between atoms: C_24  and  O_32
                            x       y       z     vdW  Elec       q    Type
                         _______ _______ _______ _____ _____    ______ ____

>  <TORSDO>
F 6

$$$$
