=
 OpenBabel11072410313D

 32 34  0  0  1  0  0  0  0  0999 V2000
  160.6490  206.2250  148.7070 C   0  0  1  0  0  3  0  0  0  0  0  0
  160.1460  206.1340  146.2400 C   0  0  0  0  0  3  0  0  0  0  0  0
  161.8710  205.6180  144.6710 N   0  0  0  0  0  0  0  0  0  0  0  0
  162.3990  205.6940  147.0010 C   0  0  0  0  0  3  0  0  0  0  0  0
  162.7860  205.4970  145.6730 C   0  0  0  0  0  3  0  0  0  0  0  0
  160.5720  205.9300  144.9260 C   0  0  0  0  0  3  0  0  0  0  0  0
  161.0710  206.0210  147.2850 C   0  0  0  0  0  0  0  0  0  0  0  0
  160.0340  205.0580  149.2000 O   0  0  0  0  0  0  0  0  0  0  0  0
  160.9460  204.3580  150.0260 C   0  0  1  0  0  3  0  0  0  0  0  0
  161.2630  204.4340  152.4860 C   0  0  0  0  0  2  0  0  0  0  0  0
  161.3000  202.9820  152.0590 C   0  0  0  0  0  2  0  0  0  0  0  0
  160.3560  203.9480  151.3750 C   0  0  0  0  0  3  0  0  0  0  0  0
  161.6380  203.1940  149.3180 C   0  0  0  0  0  2  0  0  0  0  0  0
  159.7610  201.7780  148.9660 O   0  0  0  0  0  0  0  0  0  0  0  0
  160.6740  202.4720  148.4440 C   0  0  0  0  0  0  0  0  0  0  0  0
  160.7720  202.6030  147.0570 O   0  0  0  0  0  0  0  0  0  0  0  0
  160.7830  201.4800  146.1840 C   0  0  0  0  0  2  0  0  0  0  0  0
  160.0260  201.7590  145.0450 O   0  0  0  0  0  1  0  0  0  0  0  0
  161.8030  206.5560  149.5350 N   0  0  0  0  0  2  0  0  0  0  0  0
  161.4990  207.7910  150.2390 C   0  0  2  0  0  3  0  0  0  0  0  0
  162.1360  208.8590  149.6070 O   0  0  0  0  0  1  0  0  0  0  0  0
  161.9690  207.6970  151.6780 C   0  0  0  0  0  2  0  0  0  0  0  0
  162.6130  210.2100  152.4970 O   0  0  0  0  0  1  0  0  0  0  0  0
  161.4900  209.2000  152.5730 P   0  0  1  0  0  0  0  0  0  0  0  0
  160.0970  209.8570  151.8670 O   0  0  0  0  0  0  0  0  0  0  0  0
  160.4670  207.2210  157.0980 C   0  0  0  0  0  2  0  0  0  0  0  0
  161.1630  208.7920  154.2890 C   0  0  0  0  0  0  0  0  0  0  0  0
  161.5460  208.2970  157.2600 C   0  0  0  0  0  2  0  0  0  0  0  0
  160.8080  207.3590  154.6100 C   0  0  0  0  0  2  0  0  0  0  0  0
  161.3490  209.7530  155.2160 C   0  0  0  0  0  3  0  0  0  0  0  0
  161.0860  209.6350  156.6950 C   0  0  0  0  0  2  0  0  0  0  0  0
  159.7830  207.2410  155.7280 C   0  0  0  0  0  2  0  0  0  0  0  0
  1  8  1  1  0  0  0
  1 19  1  0  0  0  0
  2  7  1  0  0  0  0
  3  6  1  0  0  0  0
  3  5  2  0  0  0  0
  4  7  2  0  0  0  0
  5  4  1  0  0  0  0
  6  2  2  0  0  0  0
  7  1  1  0  0  0  0
  8  9  1  0  0  0  0
  9 13  1  6  0  0  0
  9 12  1  0  0  0  0
 11 10  1  0  0  0  0
 12 11  1  0  0  0  0
 12 10  1  0  0  0  0
 15 14  2  0  0  0  0
 15 13  1  0  0  0  0
 16 15  1  0  0  0  0
 17 16  1  0  0  0  0
 18 17  1  0  0  0  0
 19 20  1  0  0  0  0
 20 21  1  6  0  0  0
 20 22  1  0  0  0  0
 22 24  1  0  0  0  0
 23 24  1  0  0  0  0
 24 25  2  6  0  0  0
 24 27  1  0  0  0  0
 26 28  1  0  0  0  0
 27 29  1  0  0  0  0
 27 30  2  0  0  0  0
 29 32  1  0  0  0  0
 30 31  1  0  0  0  0
 31 28  1  0  0  0  0
 32 26  1  0  0  0  0
M  END
>  <MODEL>
1

>  <REMARK>
 VINA RESULT:      -7.1      0.000      0.000
  Name = 
  13 active torsions:
  status: ('A' for Active; 'I' for Inactive)
    1  A    between atoms: C_1  and  C_7
    2  A    between atoms: C_1  and  O_11
    3  A    between atoms: C_1  and  C_18
    4  A    between atoms: C_5  and  C_12
    5  A    between atoms: C_5  and  N_23
    6  A    between atoms: C_7  and  C_28
    7  A    between atoms: C_9  and  O_22
    8  A    between atoms: C_10  and  O_11
    9  A    between atoms: C_10  and  C_21
   10  A    between atoms: C_10  and  N_23
   11  A    between atoms: C_12  and  P_29
   12  A    between atoms: C_17  and  P_29
   13  A    between atoms: O_22  and  C_28
                            x       y       z     vdW  Elec       q    Type
                         _______ _______ _______ _____ _____    ______ ____

>  <TORSDO>
F 13

$$$$
=
 OpenBabel11072410313D

 32 34  0  0  1  0  0  0  0  0999 V2000
  161.0900  209.9060  153.3690 C   0  0  1  0  0  3  0  0  0  0  0  0
  162.0100  209.9200  155.7140 C   0  0  0  0  0  3  0  0  0  0  0  0
  161.4090  208.2030  157.2610 N   0  0  0  0  0  0  0  0  0  0  0  0
  160.5070  208.1470  155.0480 C   0  0  0  0  0  3  0  0  0  0  0  0
  160.6220  207.5990  156.3280 C   0  0  0  0  0  3  0  0  0  0  0  0
  162.0980  209.3420  156.9820 C   0  0  0  0  0  3  0  0  0  0  0  0
  161.2020  209.3200  154.7410 C   0  0  0  0  0  0  0  0  0  0  0  0
  160.6830  211.2520  153.4500 O   0  0  0  0  0  0  0  0  0  0  0  0
  159.2780  211.3090  153.6130 C   0  0  1  0  0  3  0  0  0  0  0  0
  158.0960  211.0450  155.7800 C   0  0  0  0  0  2  0  0  0  0  0  0
  157.3300  212.0570  154.9540 C   0  0  0  0  0  2  0  0  0  0  0  0
  158.8420  212.0210  154.8930 C   0  0  0  0  0  3  0  0  0  0  0  0
  158.5420  211.8330  152.3800 C   0  0  0  0  0  2  0  0  0  0  0  0
  159.0270  214.1600  152.3270 O   0  0  0  0  0  0  0  0  0  0  0  0
  159.2410  213.0240  151.8260 C   0  0  0  0  0  0  0  0  0  0  0  0
  160.1560  212.8600  150.7830 O   0  0  0  0  0  0  0  0  0  0  0  0
  160.3970  213.8740  149.8150 C   0  0  0  0  0  2  0  0  0  0  0  0
  160.7840  213.2920  148.6070 O   0  0  0  0  0  1  0  0  0  0  0  0
  162.3700  209.8230  152.6760 N   0  0  0  0  0  2  0  0  0  0  0  0
  162.1410  209.1550  151.4050 C   0  0  2  0  0  3  0  0  0  0  0  0
  161.8750  210.1050  150.4190 O   0  0  0  0  0  1  0  0  0  0  0  0
  160.9690  208.2010  151.5240 C   0  0  0  0  0  2  0  0  0  0  0  0
  163.0420  206.4960  151.9660 O   0  0  0  0  0  0  0  0  0  0  0  0
  161.5790  206.4930  151.5840 P   0  0  1  0  0  0  0  0  0  0  0  0
  160.7000  205.6200  152.7400 O   0  0  0  0  0  1  0  0  0  0  0  0
  161.2650  205.1520  146.7330 C   0  0  0  0  0  2  0  0  0  0  0  0
  161.3790  205.7340  149.9720 C   0  0  0  0  0  0  0  0  0  0  0  0
  161.8170  203.9710  147.5390 C   0  0  0  0  0  2  0  0  0  0  0  0
  161.6160  206.6020  148.7580 C   0  0  0  0  0  2  0  0  0  0  0  0
  161.1290  204.4100  149.9210 C   0  0  0  0  0  3  0  0  0  0  0  0
  160.8810  203.5920  148.6800 C   0  0  0  0  0  2  0  0  0  0  0  0
  160.6830  206.2690  147.6030 C   0  0  0  0  0  2  0  0  0  0  0  0
  1 19  1  1  0  0  0
  1  8  1  0  0  0  0
  1  7  1  0  0  0  0
  2  6  1  0  0  0  0
  4  5  2  0  0  0  0
  5  3  1  0  0  0  0
  6  3  2  0  0  0  0
  7  4  1  0  0  0  0
  7  2  2  0  0  0  0
  8  9  1  0  0  0  0
  9 13  1  6  0  0  0
  9 12  1  0  0  0  0
 11 10  1  0  0  0  0
 12 11  1  0  0  0  0
 12 10  1  0  0  0  0
 15 14  2  0  0  0  0
 15 13  1  0  0  0  0
 16 15  1  0  0  0  0
 17 16  1  0  0  0  0
 18 17  1  0  0  0  0
 20 21  1  6  0  0  0
 20 22  1  0  0  0  0
 20 19  1  0  0  0  0
 22 24  1  0  0  0  0
 24 23  2  1  0  0  0
 24 25  1  0  0  0  0
 26 28  1  0  0  0  0
 26 32  1  0  0  0  0
 27 24  1  0  0  0  0
 28 31  1  0  0  0  0
 29 27  1  0  0  0  0
 30 27  2  0  0  0  0
 31 30  1  0  0  0  0
 32 29  1  0  0  0  0
M  END
>  <MODEL>
2

>  <REMARK>
 VINA RESULT:      -6.4      3.233      8.845
  Name = 
  13 active torsions:
  status: ('A' for Active; 'I' for Inactive)
    1  A    between atoms: C_1  and  C_7
    2  A    between atoms: C_1  and  O_11
    3  A    between atoms: C_1  and  C_18
    4  A    between atoms: C_5  and  C_12
    5  A    between atoms: C_5  and  N_23
    6  A    between atoms: C_7  and  C_28
    7  A    between atoms: C_9  and  O_22
    8  A    between atoms: C_10  and  O_11
    9  A    between atoms: C_10  and  C_21
   10  A    between atoms: C_10  and  N_23
   11  A    between atoms: C_12  and  P_29
   12  A    between atoms: C_17  and  P_29
   13  A    between atoms: O_22  and  C_28
                            x       y       z     vdW  Elec       q    Type
                         _______ _______ _______ _____ _____    ______ ____

>  <TORSDO>
F 13

$$$$
=
 OpenBabel11072410313D

 32 34  0  0  1  0  0  0  0  0999 V2000
  161.0800  209.7760  153.2320 C   0  0  1  0  0  3  0  0  0  0  0  0
  161.7950  209.5970  155.6410 C   0  0  0  0  0  3  0  0  0  0  0  0
  161.1220  207.7290  156.9690 N   0  0  0  0  0  0  0  0  0  0  0  0
  160.4160  207.8540  154.6890 C   0  0  0  0  0  3  0  0  0  0  0  0
  160.4390  207.1930  155.9190 C   0  0  0  0  0  3  0  0  0  0  0  0
  161.7940  208.9070  156.8550 C   0  0  0  0  0  3  0  0  0  0  0  0
  161.0930  209.0680  154.5510 C   0  0  0  0  0  0  0  0  0  0  0  0
  160.7070  211.1220  153.4100 O   0  0  0  0  0  0  0  0  0  0  0  0
  159.2960  211.2140  153.4780 C   0  0  1  0  0  3  0  0  0  0  0  0
  158.1640  210.7720  155.6420 C   0  0  0  0  0  2  0  0  0  0  0  0
  157.2820  211.7060  154.8410 C   0  0  0  0  0  2  0  0  0  0  0  0
  158.7890  211.8450  154.7740 C   0  0  0  0  0  3  0  0  0  0  0  0
  158.6670  211.8510  152.2390 C   0  0  0  0  0  2  0  0  0  0  0  0
  158.9360  214.1690  152.6960 O   0  0  0  0  0  0  0  0  0  0  0  0
  159.2690  213.1870  151.9800 C   0  0  0  0  0  0  0  0  0  0  0  0
  160.2250  213.3260  150.9710 O   0  0  0  0  0  0  0  0  0  0  0  0
  159.8790  213.6730  149.6360 C   0  0  0  0  0  2  0  0  0  0  0  0
  160.6510  212.9320  148.7400 O   0  0  0  0  0  1  0  0  0  0  0  0
  162.3960  209.7100  152.6090 N   0  0  0  0  0  2  0  0  0  0  0  0
  162.2100  209.2930  151.2290 C   0  0  2  0  0  3  0  0  0  0  0  0
  161.8640  210.3960  150.4490 O   0  0  0  0  0  1  0  0  0  0  0  0
  161.1150  208.2470  151.1460 C   0  0  0  0  0  2  0  0  0  0  0  0
  160.5420  207.3810  148.6310 O   0  0  0  0  0  0  0  0  0  0  0  0
  161.4730  207.0980  149.7890 P   0  0  1  0  0  0  0  0  0  0  0  0
  163.0760  207.3060  149.2820 O   0  0  0  0  0  1  0  0  0  0  0  0
  160.9730  202.1370  150.5430 C   0  0  0  0  0  2  0  0  0  0  0  0
  161.2330  205.4140  150.3570 C   0  0  0  0  0  0  0  0  0  0  0  0
  161.6470  202.7580  151.7710 C   0  0  0  0  0  2  0  0  0  0  0  0
  161.3410  204.3090  149.3320 C   0  0  0  0  0  2  0  0  0  0  0  0
  161.0690  205.2070  151.6790 C   0  0  0  0  0  3  0  0  0  0  0  0
  160.8050  203.8860  152.3540 C   0  0  0  0  0  2  0  0  0  0  0  0
  160.3680  203.1680  149.5870 C   0  0  0  0  0  2  0  0  0  0  0  0
  1 19  1  1  0  0  0
  1  8  1  0  0  0  0
  1  7  1  0  0  0  0
  2  6  1  0  0  0  0
  4  5  2  0  0  0  0
  5  3  1  0  0  0  0
  6  3  2  0  0  0  0
  7  4  1  0  0  0  0
  7  2  2  0  0  0  0
  8  9  1  0  0  0  0
  9 13  1  6  0  0  0
  9 12  1  0  0  0  0
 11 10  1  0  0  0  0
 12 11  1  0  0  0  0
 12 10  1  0  0  0  0
 15 13  1  0  0  0  0
 15 14  2  0  0  0  0
 16 15  1  0  0  0  0
 17 16  1  0  0  0  0
 18 17  1  0  0  0  0
 20 21  1  6  0  0  0
 20 19  1  0  0  0  0
 22 20  1  0  0  0  0
 24 23  2  6  0  0  0
 24 27  1  0  0  0  0
 24 22  1  0  0  0  0
 25 24  1  0  0  0  0
 26 28  1  0  0  0  0
 27 30  2  0  0  0  0
 28 31  1  0  0  0  0
 29 32  1  0  0  0  0
 29 27  1  0  0  0  0
 30 31  1  0  0  0  0
 32 26  1  0  0  0  0
M  END
>  <MODEL>
3

>  <REMARK>
 VINA RESULT:      -6.2      3.226      8.451
  Name = 
  13 active torsions:
  status: ('A' for Active; 'I' for Inactive)
    1  A    between atoms: C_1  and  C_7
    2  A    between atoms: C_1  and  O_11
    3  A    between atoms: C_1  and  C_18
    4  A    between atoms: C_5  and  C_12
    5  A    between atoms: C_5  and  N_23
    6  A    between atoms: C_7  and  C_28
    7  A    between atoms: C_9  and  O_22
    8  A    between atoms: C_10  and  O_11
    9  A    between atoms: C_10  and  C_21
   10  A    between atoms: C_10  and  N_23
   11  A    between atoms: C_12  and  P_29
   12  A    between atoms: C_17  and  P_29
   13  A    between atoms: O_22  and  C_28
                            x       y       z     vdW  Elec       q    Type
                         _______ _______ _______ _____ _____    ______ ____

>  <TORSDO>
F 13

$$$$
=
 OpenBabel11072410313D

 32 34  0  0  1  0  0  0  0  0999 V2000
  161.3650  210.2040  150.9170 C   0  0  1  0  0  3  0  0  0  0  0  0
  159.6730  210.8330  152.6740 C   0  0  0  0  0  3  0  0  0  0  0  0
  160.3200  211.0230  154.9650 N   0  0  0  0  0  0  0  0  0  0  0  0
  161.9620  210.4210  153.3360 C   0  0  0  0  0  3  0  0  0  0  0  0
  161.6050  210.6940  154.6590 C   0  0  0  0  0  3  0  0  0  0  0  0
  159.3560  211.0980  154.0080 C   0  0  0  0  0  3  0  0  0  0  0  0
  160.9860  210.4850  152.3380 C   0  0  0  0  0  0  0  0  0  0  0  0
  162.0000  211.3270  150.3540 O   0  0  0  0  0  0  0  0  0  0  0  0
  161.1530  211.9060  149.3780 C   0  0  1  0  0  3  0  0  0  0  0  0
  159.6090  213.5410  150.4270 C   0  0  0  0  0  2  0  0  0  0  0  0
  159.5810  213.7720  148.9310 C   0  0  0  0  0  2  0  0  0  0  0  0
  160.8780  213.3900  149.6140 C   0  0  0  0  0  3  0  0  0  0  0  0
  161.5930  211.6190  147.9430 C   0  0  0  0  0  2  0  0  0  0  0  0
  163.8040  212.4930  147.9550 O   0  0  0  0  0  0  0  0  0  0  0  0
  162.6290  212.5970  147.5130 C   0  0  0  0  0  0  0  0  0  0  0  0
  162.2930  213.5960  146.5950 O   0  0  0  0  0  0  0  0  0  0  0  0
  162.1210  213.3310  145.2090 C   0  0  0  0  0  2  0  0  0  0  0  0
  163.3560  213.0460  144.6250 O   0  0  0  0  0  1  0  0  0  0  0  0
  162.2570  209.0520  150.8500 N   0  0  0  0  0  2  0  0  0  0  0  0
  161.4700  207.9100  150.4150 C   0  0  2  0  0  3  0  0  0  0  0  0
  160.8880  207.2950  151.5230 O   0  0  0  0  0  1  0  0  0  0  0  0
  162.3550  206.9170  149.6870 C   0  0  0  0  0  2  0  0  0  0  0  0
  160.0270  206.7090  148.2950 O   0  0  0  0  0  1  0  0  0  0  0  0
  161.3860  206.0570  148.4170 P   0  0  1  0  0  0  0  0  0  0  0  0
  162.1910  206.1570  146.9300 O   0  0  0  0  0  0  0  0  0  0  0  0
  160.5740  201.5440  150.5160 C   0  0  0  0  0  2  0  0  0  0  0  0
  161.1890  204.3370  148.8840 C   0  0  0  0  0  0  0  0  0  0  0  0
  160.1320  201.4950  149.0490 C   0  0  0  0  0  2  0  0  0  0  0  0
  160.7560  204.0430  150.3010 C   0  0  0  0  0  2  0  0  0  0  0  0
  161.3370  203.3990  147.9260 C   0  0  0  0  0  3  0  0  0  0  0  0
  161.2630  201.9060  148.1150 C   0  0  0  0  0  2  0  0  0  0  0  0
  161.3980  202.7850  150.8660 C   0  0  0  0  0  2  0  0  0  0  0  0
  1  8  1  1  0  0  0
  1  7  1  0  0  0  0
  2  6  1  0  0  0  0
  4  5  2  0  0  0  0
  5  3  1  0  0  0  0
  6  3  2  0  0  0  0
  7  2  2  0  0  0  0
  7  4  1  0  0  0  0
  9 13  1  6  0  0  0
  9 12  1  0  0  0  0
  9  8  1  0  0  0  0
 11 12  1  0  0  0  0
 11 10  1  0  0  0  0
 12 10  1  0  0  0  0
 15 13  1  0  0  0  0
 15 14  2  0  0  0  0
 16 15  1  0  0  0  0
 17 16  1  0  0  0  0
 18 17  1  0  0  0  0
 19  1  1  0  0  0  0
 20 19  1  0  0  0  0
 20 21  1  1  0  0  0
 22 20  1  0  0  0  0
 23 24  1  0  0  0  0
 24 25  2  6  0  0  0
 24 27  1  0  0  0  0
 24 22  1  0  0  0  0
 26 32  1  0  0  0  0
 27 29  1  0  0  0  0
 28 26  1  0  0  0  0
 29 32  1  0  0  0  0
 30 31  1  0  0  0  0
 30 27  2  0  0  0  0
 31 28  1  0  0  0  0
M  END
>  <MODEL>
4

>  <REMARK>
 VINA RESULT:      -6.1      3.927      8.572
  Name = 
  13 active torsions:
  status: ('A' for Active; 'I' for Inactive)
    1  A    between atoms: C_1  and  C_7
    2  A    between atoms: C_1  and  O_11
    3  A    between atoms: C_1  and  C_18
    4  A    between atoms: C_5  and  C_12
    5  A    between atoms: C_5  and  N_23
    6  A    between atoms: C_7  and  C_28
    7  A    between atoms: C_9  and  O_22
    8  A    between atoms: C_10  and  O_11
    9  A    between atoms: C_10  and  C_21
   10  A    between atoms: C_10  and  N_23
   11  A    between atoms: C_12  and  P_29
   12  A    between atoms: C_17  and  P_29
   13  A    between atoms: O_22  and  C_28
                            x       y       z     vdW  Elec       q    Type
                         _______ _______ _______ _____ _____    ______ ____

>  <TORSDO>
F 13

$$$$
=
 OpenBabel11072410313D

 32 34  0  0  1  0  0  0  0  0999 V2000
  162.2470  209.3180  150.2340 C   0  0  1  0  0  3  0  0  0  0  0  0
  162.1460  211.0640  148.4210 C   0  0  0  0  0  3  0  0  0  0  0  0
  161.0570  213.1530  148.8110 N   0  0  0  0  0  0  0  0  0  0  0  0
  161.1230  211.5280  150.5620 C   0  0  0  0  0  3  0  0  0  0  0  0
  160.7400  212.7830  150.0830 C   0  0  0  0  0  3  0  0  0  0  0  0
  161.7450  212.3260  147.9790 C   0  0  0  0  0  3  0  0  0  0  0  0
  161.8260  210.6600  149.7230 C   0  0  0  0  0  0  0  0  0  0  0  0
  162.3580  209.3490  151.6380 O   0  0  0  0  0  0  0  0  0  0  0  0
  161.3730  208.5050  152.2060 C   0  0  1  0  0  3  0  0  0  0  0  0
  162.2750  206.2030  152.4210 C   0  0  0  0  0  2  0  0  0  0  0  0
  161.0080  206.2830  153.2460 C   0  0  0  0  0  2  0  0  0  0  0  0
  161.9420  207.4720  153.1780 C   0  0  0  0  0  3  0  0  0  0  0  0
  160.1870  209.2660  152.7990 C   0  0  0  0  0  2  0  0  0  0  0  0
  161.5350  210.6890  154.1440 O   0  0  0  0  0  0  0  0  0  0  0  0
  160.5660  209.8850  154.0980 C   0  0  0  0  0  0  0  0  0  0  0  0
  159.8180  209.5950  155.2410 O   0  0  0  0  0  0  0  0  0  0  0  0
  160.3120  208.7660  156.2860 C   0  0  0  0  0  2  0  0  0  0  0  0
  159.7120  207.5080  156.2140 O   0  0  0  0  0  1  0  0  0  0  0  0
  161.2790  208.3000  149.8430 N   0  0  0  0  0  2  0  0  0  0  0  0
  161.9390  207.3980  148.9140 C   0  0  2  0  0  3  0  0  0  0  0  0
  163.0200  208.0480  148.3190 O   0  0  0  0  0  1  0  0  0  0  0  0
  160.9630  206.9480  147.8440 C   0  0  0  0  0  2  0  0  0  0  0  0
  160.6970  205.0250  145.9380 O   0  0  0  0  0  0  0  0  0  0  0  0
  161.4680  205.3270  147.2040 P   0  0  1  0  0  0  0  0  0  0  0  0
  163.1260  205.3490  146.8590 O   0  0  0  0  0  1  0  0  0  0  0  0
  160.7750  201.2160  150.0410 C   0  0  0  0  0  2  0  0  0  0  0  0
  161.1220  204.0690  148.4340 C   0  0  0  0  0  0  0  0  0  0  0  0
  161.2980  202.3490  150.9310 C   0  0  0  0  0  2  0  0  0  0  0  0
  161.3390  202.6270  148.0370 C   0  0  0  0  0  2  0  0  0  0  0  0
  160.7860  204.4710  149.6760 C   0  0  0  0  0  3  0  0  0  0  0  0
  160.4110  203.5840  150.8350 C   0  0  0  0  0  2  0  0  0  0  0  0
  160.3190  201.6840  148.6570 C   0  0  0  0  0  2  0  0  0  0  0  0
  1 19  1  1  0  0  0
  1  8  1  0  0  0  0
  2  7  1  0  0  0  0
  3  5  2  0  0  0  0
  5  4  1  0  0  0  0
  6  2  2  0  0  0  0
  6  3  1  0  0  0  0
  7  1  1  0  0  0  0
  7  4  2  0  0  0  0
  8  9  1  0  0  0  0
  9 13  1  1  0  0  0
  9 12  1  0  0  0  0
 10 12  1  0  0  0  0
 10 11  1  0  0  0  0
 12 11  1  0  0  0  0
 13 15  1  0  0  0  0
 15 14  2  0  0  0  0
 15 16  1  0  0  0  0
 16 17  1  0  0  0  0
 18 17  1  0  0  0  0
 20 21  1  6  0  0  0
 20 19  1  0  0  0  0
 22 20  1  0  0  0  0
 24 23  2  6  0  0  0
 24 22  1  0  0  0  0
 24 27  1  0  0  0  0
 25 24  1  0  0  0  0
 26 28  1  0  0  0  0
 27 30  2  0  0  0  0
 29 27  1  0  0  0  0
 29 32  1  0  0  0  0
 30 31  1  0  0  0  0
 31 28  1  0  0  0  0
 32 26  1  0  0  0  0
M  END
>  <MODEL>
5

>  <REMARK>
 VINA RESULT:      -6.0      2.944      7.465
  Name = 
  13 active torsions:
  status: ('A' for Active; 'I' for Inactive)
    1  A    between atoms: C_1  and  C_7
    2  A    between atoms: C_1  and  O_11
    3  A    between atoms: C_1  and  C_18
    4  A    between atoms: C_5  and  C_12
    5  A    between atoms: C_5  and  N_23
    6  A    between atoms: C_7  and  C_28
    7  A    between atoms: C_9  and  O_22
    8  A    between atoms: C_10  and  O_11
    9  A    between atoms: C_10  and  C_21
   10  A    between atoms: C_10  and  N_23
   11  A    between atoms: C_12  and  P_29
   12  A    between atoms: C_17  and  P_29
   13  A    between atoms: O_22  and  C_28
                            x       y       z     vdW  Elec       q    Type
                         _______ _______ _______ _____ _____    ______ ____

>  <TORSDO>
F 13

$$$$
=
 OpenBabel11072410313D

 32 34  0  0  1  0  0  0  0  0999 V2000
  161.2300  208.1970  152.9730 C   0  0  1  0  0  3  0  0  0  0  0  0
  160.3910  206.9610  155.0020 C   0  0  0  0  0  3  0  0  0  0  0  0
  160.1530  208.0890  157.0930 N   0  0  0  0  0  0  0  0  0  0  0  0
  160.9550  209.3040  155.1980 C   0  0  0  0  0  3  0  0  0  0  0  0
  160.5980  209.2550  156.5480 C   0  0  0  0  0  3  0  0  0  0  0  0
  160.0440  206.9520  156.3540 C   0  0  0  0  0  3  0  0  0  0  0  0
  160.8570  208.1470  154.4220 C   0  0  0  0  0  0  0  0  0  0  0  0
  162.0400  209.3200  152.7200 O   0  0  0  0  0  0  0  0  0  0  0  0
  161.3230  210.2470  151.9250 C   0  0  1  0  0  3  0  0  0  0  0  0
  159.0330  211.0840  152.3890 C   0  0  0  0  0  2  0  0  0  0  0  0
  159.8350  212.2280  151.8050 C   0  0  0  0  0  2  0  0  0  0  0  0
  160.4980  211.2400  152.7420 C   0  0  0  0  0  3  0  0  0  0  0  0
  162.1860  210.9400  150.8710 C   0  0  0  0  0  2  0  0  0  0  0  0
  161.5880  209.1090  149.4770 O   0  0  0  0  0  0  0  0  0  0  0  0
  161.9930  210.3000  149.5410 C   0  0  0  0  0  0  0  0  0  0  0  0
  162.2290  211.0410  148.3810 O   0  0  0  0  0  0  0  0  0  0  0  0
  161.5380  212.2510  148.0950 C   0  0  0  0  0  2  0  0  0  0  0  0
  160.5040  212.0030  147.1910 O   0  0  0  0  0  1  0  0  0  0  0  0
  161.9430  206.9830  152.5920 N   0  0  0  0  0  2  0  0  0  0  0  0
  161.2190  206.3740  151.4880 C   0  0  2  0  0  3  0  0  0  0  0  0
  160.4700  205.2960  151.9590 O   0  0  0  0  0  1  0  0  0  0  0  0
  162.1930  205.8960  150.4290 C   0  0  0  0  0  2  0  0  0  0  0  0
  159.9620  206.3300  148.9330 O   0  0  0  0  0  1  0  0  0  0  0  0
  161.3140  205.6550  148.8600 P   0  0  1  0  0  0  0  0  0  0  0  0
  162.2140  206.3390  147.5990 O   0  0  0  0  0  0  0  0  0  0  0  0
  161.1840  200.8610  147.3000 C   0  0  0  0  0  2  0  0  0  0  0  0
  161.0950  203.9000  148.5650 C   0  0  0  0  0  0  0  0  0  0  0  0
  161.3050  200.8810  148.8270 C   0  0  0  0  0  2  0  0  0  0  0  0
  161.6890  203.3250  147.3010 C   0  0  0  0  0  2  0  0  0  0  0  0
  160.5040  203.1630  149.5280 C   0  0  0  0  0  3  0  0  0  0  0  0
  160.1820  201.6930  149.4610 C   0  0  0  0  0  2  0  0  0  0  0  0
  160.8330  202.2230  146.6940 C   0  0  0  0  0  2  0  0  0  0  0  0
  1 19  1  1  0  0  0
  1  7  1  0  0  0  0
  2  6  1  0  0  0  0
  4  5  2  0  0  0  0
  5  3  1  0  0  0  0
  6  3  2  0  0  0  0
  7  2  2  0  0  0  0
  7  4  1  0  0  0  0
  8  1  1  0  0  0  0
  9 13  1  1  0  0  0
  9  8  1  0  0  0  0
  9 12  1  0  0  0  0
 10 12  1  0  0  0  0
 11 10  1  0  0  0  0
 11 12  1  0  0  0  0
 14 15  2  0  0  0  0
 15 13  1  0  0  0  0
 16 15  1  0  0  0  0
 17 16  1  0  0  0  0
 18 17  1  0  0  0  0
 20 21  1  1  0  0  0
 20 19  1  0  0  0  0
 22 20  1  0  0  0  0
 24 25  2  6  0  0  0
 24 23  1  0  0  0  0
 24 22  1  0  0  0  0
 26 28  1  0  0  0  0
 27 24  1  0  0  0  0
 27 30  2  0  0  0  0
 28 31  1  0  0  0  0
 29 27  1  0  0  0  0
 31 30  1  0  0  0  0
 32 26  1  0  0  0  0
 32 29  1  0  0  0  0
M  END
>  <MODEL>
6

>  <REMARK>
 VINA RESULT:      -5.9      2.863      8.387
  Name = 
  13 active torsions:
  status: ('A' for Active; 'I' for Inactive)
    1  A    between atoms: C_1  and  C_7
    2  A    between atoms: C_1  and  O_11
    3  A    between atoms: C_1  and  C_18
    4  A    between atoms: C_5  and  C_12
    5  A    between atoms: C_5  and  N_23
    6  A    between atoms: C_7  and  C_28
    7  A    between atoms: C_9  and  O_22
    8  A    between atoms: C_10  and  O_11
    9  A    between atoms: C_10  and  C_21
   10  A    between atoms: C_10  and  N_23
   11  A    between atoms: C_12  and  P_29
   12  A    between atoms: C_17  and  P_29
   13  A    between atoms: O_22  and  C_28
                            x       y       z     vdW  Elec       q    Type
                         _______ _______ _______ _____ _____    ______ ____

>  <TORSDO>
F 13

$$$$
=
 OpenBabel11072410313D

 32 34  0  0  1  0  0  0  0  0999 V2000
  161.1520  209.9310  153.0540 C   0  0  1  0  0  3  0  0  0  0  0  0
  160.4090  207.9570  154.4310 C   0  0  0  0  0  3  0  0  0  0  0  0
  161.1530  207.7040  156.6850 N   0  0  0  0  0  0  0  0  0  0  0  0
  161.8890  209.5930  155.4200 C   0  0  0  0  0  3  0  0  0  0  0  0
  161.8790  208.8530  156.6050 C   0  0  0  0  0  3  0  0  0  0  0  0
  160.4250  207.2450  155.6320 C   0  0  0  0  0  3  0  0  0  0  0  0
  161.1530  209.1370  154.3230 C   0  0  0  0  0  0  0  0  0  0  0  0
  160.8060  211.2700  153.3210 O   0  0  0  0  0  0  0  0  0  0  0  0
  159.4190  211.3500  153.5950 C   0  0  1  0  0  3  0  0  0  0  0  0
  158.6620  211.2900  155.9570 C   0  0  0  0  0  2  0  0  0  0  0  0
  157.6190  212.0410  155.1560 C   0  0  0  0  0  2  0  0  0  0  0  0
  159.0880  212.1980  154.8220 C   0  0  0  0  0  3  0  0  0  0  0  0
  158.5800  211.7420  152.3780 C   0  0  0  0  0  2  0  0  0  0  0  0
  160.0630  213.1090  151.1190 O   0  0  0  0  0  0  0  0  0  0  0  0
  159.0300  213.0530  151.8380 C   0  0  0  0  0  0  0  0  0  0  0  0
  158.2790  214.2010  152.1060 O   0  0  0  0  0  0  0  0  0  0  0  0
  156.8910  214.2900  151.8060 C   0  0  0  0  0  2  0  0  0  0  0  0
  156.1630  214.4500  152.9860 O   0  0  0  0  0  1  0  0  0  0  0  0
  162.4670  209.8830  152.4250 N   0  0  0  0  0  2  0  0  0  0  0  0
  162.2880  209.4020  151.0650 C   0  0  2  0  0  3  0  0  0  0  0  0
  161.8340  210.4440  150.2570 O   0  0  0  0  0  1  0  0  0  0  0  0
  161.2840  208.2650  151.0450 C   0  0  0  0  0  2  0  0  0  0  0  0
  160.8390  207.3990  148.5040 O   0  0  0  0  0  0  0  0  0  0  0  0
  161.7030  207.1090  149.7110 P   0  0  1  0  0  0  0  0  0  0  0  0
  163.3330  207.2990  149.2920 O   0  0  0  0  0  1  0  0  0  0  0  0
  161.0190  202.1640  150.4270 C   0  0  0  0  0  2  0  0  0  0  0  0
  161.4130  205.4290  150.2680 C   0  0  0  0  0  0  0  0  0  0  0  0
  161.7700  202.7390  151.6320 C   0  0  0  0  0  2  0  0  0  0  0  0
  161.4310  204.3360  149.2260 C   0  0  0  0  0  2  0  0  0  0  0  0
  161.2960  205.2120  151.5940 C   0  0  0  0  0  3  0  0  0  0  0  0
  161.0030  203.8940  152.2640 C   0  0  0  0  0  2  0  0  0  0  0  0
  160.4200  203.2340  149.5090 C   0  0  0  0  0  2  0  0  0  0  0  0
  1 19  1  1  0  0  0
  1  8  1  0  0  0  0
  1  7  1  0  0  0  0
  2  6  1  0  0  0  0
  4  5  2  0  0  0  0
  5  3  1  0  0  0  0
  6  3  2  0  0  0  0
  7  2  2  0  0  0  0
  7  4  1  0  0  0  0
  8  9  1  0  0  0  0
  9 13  1  6  0  0  0
  9 12  1  0  0  0  0
 11 10  1  0  0  0  0
 12 11  1  0  0  0  0
 12 10  1  0  0  0  0
 14 15  2  0  0  0  0
 15 16  1  0  0  0  0
 15 13  1  0  0  0  0
 17 16  1  0  0  0  0
 17 18  1  0  0  0  0
 20 21  1  6  0  0  0
 20 19  1  0  0  0  0
 22 20  1  0  0  0  0
 24 23  2  6  0  0  0
 24 27  1  0  0  0  0
 24 22  1  0  0  0  0
 25 24  1  0  0  0  0
 26 28  1  0  0  0  0
 27 30  2  0  0  0  0
 28 31  1  0  0  0  0
 29 32  1  0  0  0  0
 29 27  1  0  0  0  0
 30 31  1  0  0  0  0
 32 26  1  0  0  0  0
M  END
>  <MODEL>
7

>  <REMARK>
 VINA RESULT:      -5.9      3.253      8.692
  Name = 
  13 active torsions:
  status: ('A' for Active; 'I' for Inactive)
    1  A    between atoms: C_1  and  C_7
    2  A    between atoms: C_1  and  O_11
    3  A    between atoms: C_1  and  C_18
    4  A    between atoms: C_5  and  C_12
    5  A    between atoms: C_5  and  N_23
    6  A    between atoms: C_7  and  C_28
    7  A    between atoms: C_9  and  O_22
    8  A    between atoms: C_10  and  O_11
    9  A    between atoms: C_10  and  C_21
   10  A    between atoms: C_10  and  N_23
   11  A    between atoms: C_12  and  P_29
   12  A    between atoms: C_17  and  P_29
   13  A    between atoms: O_22  and  C_28
                            x       y       z     vdW  Elec       q    Type
                         _______ _______ _______ _____ _____    ______ ____

>  <TORSDO>
F 13

$$$$
=
 OpenBabel11072410313D

 32 34  0  0  1  0  0  0  0  0999 V2000
  160.2050  210.9350  153.3060 C   0  0  1  0  0  3  0  0  0  0  0  0
  158.9060  213.0910  153.1950 C   0  0  0  0  0  3  0  0  0  0  0  0
  158.9880  214.4530  151.2360 N   0  0  0  0  0  0  0  0  0  0  0  0
  160.2390  212.4180  151.2930 C   0  0  0  0  0  3  0  0  0  0  0  0
  159.8310  213.5750  150.6250 C   0  0  0  0  0  3  0  0  0  0  0  0
  158.5220  214.2360  152.4950 C   0  0  0  0  0  3  0  0  0  0  0  0
  159.7780  212.1780  152.5900 C   0  0  0  0  0  0  0  0  0  0  0  0
  159.3180  210.6580  154.3650 O   0  0  0  0  0  0  0  0  0  0  0  0
  160.0570  210.4470  155.5540 C   0  0  1  0  0  3  0  0  0  0  0  0
  162.4680  210.3290  156.1300 C   0  0  0  0  0  2  0  0  0  0  0  0
  161.8240  211.3520  157.0420 C   0  0  0  0  0  2  0  0  0  0  0  0
  161.3690  211.2280  155.6020 C   0  0  0  0  0  3  0  0  0  0  0  0
  159.2280  210.6280  156.8260 C   0  0  0  0  0  2  0  0  0  0  0  0
  158.3440  212.8260  156.6260 O   0  0  0  0  0  0  0  0  0  0  0  0
  158.1160  211.5870  156.5880 C   0  0  0  0  0  0  0  0  0  0  0  0
  156.8410  211.1010  156.2870 O   0  0  0  0  0  0  0  0  0  0  0  0
  156.0610  211.6190  155.2160 C   0  0  0  0  0  2  0  0  0  0  0  0
  155.3140  210.5930  154.6360 O   0  0  0  0  0  1  0  0  0  0  0  0
  160.2360  209.8050  152.3860 N   0  0  0  0  0  2  0  0  0  0  0  0
  161.5670  209.2250  152.4440 C   0  0  2  0  0  3  0  0  0  0  0  0
  162.5110  210.2370  152.6140 O   0  0  0  0  0  1  0  0  0  0  0  0
  161.8590  208.4640  151.1650 C   0  0  0  0  0  2  0  0  0  0  0  0
  163.0740  206.2120  152.0890 O   0  0  0  0  0  0  0  0  0  0  0  0
  161.7690  206.6800  151.4850 P   0  0  1  0  0  0  0  0  0  0  0  0
  160.5060  206.3650  152.5690 O   0  0  0  0  0  1  0  0  0  0  0  0
  161.2060  204.9990  146.7640 C   0  0  0  0  0  2  0  0  0  0  0  0
  161.4730  205.8140  149.9430 C   0  0  0  0  0  0  0  0  0  0  0  0
  161.7370  203.8570  147.6370 C   0  0  0  0  0  2  0  0  0  0  0  0
  161.6990  206.5770  148.6600 C   0  0  0  0  0  2  0  0  0  0  0  0
  161.1640  204.5030  150.0020 C   0  0  0  0  0  3  0  0  0  0  0  0
  160.8320  203.6080  148.8360 C   0  0  0  0  0  2  0  0  0  0  0  0
  160.7080  206.2030  147.5680 C   0  0  0  0  0  2  0  0  0  0  0  0
  1 19  1  6  0  0  0
  1  8  1  0  0  0  0
  3  6  1  0  0  0  0
  4  7  2  0  0  0  0
  5  3  2  0  0  0  0
  5  4  1  0  0  0  0
  6  2  2  0  0  0  0
  7  2  1  0  0  0  0
  7  1  1  0  0  0  0
  8  9  1  0  0  0  0
  9 12  1  0  0  0  0
  9 13  1  1  0  0  0
 10 11  1  0  0  0  0
 12 10  1  0  0  0  0
 12 11  1  0  0  0  0
 15 14  2  0  0  0  0
 15 13  1  0  0  0  0
 16 15  1  0  0  0  0
 17 16  1  0  0  0  0
 18 17  1  0  0  0  0
 19 20  1  0  0  0  0
 20 21  1  6  0  0  0
 22 24  1  0  0  0  0
 22 20  1  0  0  0  0
 24 23  2  1  0  0  0
 24 25  1  0  0  0  0
 26 32  1  0  0  0  0
 26 28  1  0  0  0  0
 27 30  2  0  0  0  0
 27 24  1  0  0  0  0
 28 31  1  0  0  0  0
 29 27  1  0  0  0  0
 31 30  1  0  0  0  0
 32 29  1  0  0  0  0
M  END
>  <MODEL>
8

>  <REMARK>
 VINA RESULT:      -5.6      3.725      9.006
  Name = 
  13 active torsions:
  status: ('A' for Active; 'I' for Inactive)
    1  A    between atoms: C_1  and  C_7
    2  A    between atoms: C_1  and  O_11
    3  A    between atoms: C_1  and  C_18
    4  A    between atoms: C_5  and  C_12
    5  A    between atoms: C_5  and  N_23
    6  A    between atoms: C_7  and  C_28
    7  A    between atoms: C_9  and  O_22
    8  A    between atoms: C_10  and  O_11
    9  A    between atoms: C_10  and  C_21
   10  A    between atoms: C_10  and  N_23
   11  A    between atoms: C_12  and  P_29
   12  A    between atoms: C_17  and  P_29
   13  A    between atoms: O_22  and  C_28
                            x       y       z     vdW  Elec       q    Type
                         _______ _______ _______ _____ _____    ______ ____

>  <TORSDO>
F 13

$$$$
=
 OpenBabel11072410313D

 32 34  0  0  1  0  0  0  0  0999 V2000
  161.2050  210.0000  153.0350 C   0  0  1  0  0  3  0  0  0  0  0  0
  161.1600  208.5920  155.1240 C   0  0  0  0  0  3  0  0  0  0  0  0
  162.2670  209.3330  157.1060 N   0  0  0  0  0  0  0  0  0  0  0  0
  162.3400  210.7030  155.1500 C   0  0  0  0  0  3  0  0  0  0  0  0
  162.6800  210.4720  156.4850 C   0  0  0  0  0  3  0  0  0  0  0  0
  161.5210  208.3980  156.4590 C   0  0  0  0  0  3  0  0  0  0  0  0
  161.5800  209.7530  154.4630 C   0  0  0  0  0  0  0  0  0  0  0  0
  161.2190  211.3820  152.7630 O   0  0  0  0  0  0  0  0  0  0  0  0
  159.8880  211.8560  152.6700 C   0  0  1  0  0  3  0  0  0  0  0  0
  159.7060  213.8350  151.1840 C   0  0  0  0  0  2  0  0  0  0  0  0
  158.3160  213.2630  151.3660 C   0  0  0  0  0  2  0  0  0  0  0  0
  159.5090  212.3350  151.2700 C   0  0  0  0  0  3  0  0  0  0  0  0
  158.8560  210.8890  153.2510 C   0  0  0  0  0  2  0  0  0  0  0  0
  158.0170  210.6330  155.4610 O   0  0  0  0  0  0  0  0  0  0  0  0
  158.3020  211.4250  154.5230 C   0  0  0  0  0  0  0  0  0  0  0  0
  158.1400  212.8040  154.6760 O   0  0  0  0  0  0  0  0  0  0  0  0
  156.9040  213.3880  155.0670 C   0  0  0  0  0  2  0  0  0  0  0  0
  155.9210  213.0930  154.1210 O   0  0  0  0  0  1  0  0  0  0  0  0
  162.1340  209.3170  152.1420 N   0  0  0  0  0  2  0  0  0  0  0  0
  161.3780  208.3240  151.3960 C   0  0  2  0  0  3  0  0  0  0  0  0
  160.4560  207.7060  152.2400 O   0  0  0  0  0  1  0  0  0  0  0  0
  162.3170  207.2840  150.8160 C   0  0  0  0  0  2  0  0  0  0  0  0
  160.3140  207.3280  148.9760 O   0  0  0  0  0  1  0  0  0  0  0  0
  161.6210  206.6290  149.2740 P   0  0  1  0  0  0  0  0  0  0  0  0
  162.7060  206.9050  148.0030 O   0  0  0  0  0  0  0  0  0  0  0  0
  160.6140  201.8750  150.6210 C   0  0  0  0  0  2  0  0  0  0  0  0
  161.3340  204.8680  149.4530 C   0  0  0  0  0  0  0  0  0  0  0  0
  160.1030  202.1040  149.1950 C   0  0  0  0  0  2  0  0  0  0  0  0
  160.9480  204.3590  150.8220 C   0  0  0  0  0  2  0  0  0  0  0  0
  161.3770  204.1020  148.3440 C   0  0  0  0  0  3  0  0  0  0  0  0
  161.2140  202.6060  148.2820 C   0  0  0  0  0  2  0  0  0  0  0  0
  161.5330  202.9890  151.1300 C   0  0  0  0  0  2  0  0  0  0  0  0
  1 19  1  6  0  0  0
  1  7  1  0  0  0  0
  2  6  1  0  0  0  0
  4  5  2  0  0  0  0
  5  3  1  0  0  0  0
  6  3  2  0  0  0  0
  7  2  2  0  0  0  0
  7  4  1  0  0  0  0
  8  1  1  0  0  0  0
  9  8  1  0  0  0  0
  9 13  1  6  0  0  0
 10 12  1  0  0  0  0
 10 11  1  0  0  0  0
 12 11  1  0  0  0  0
 12  9  1  0  0  0  0
 13 15  1  0  0  0  0
 15 16  1  0  0  0  0
 15 14  2  0  0  0  0
 16 17  1  0  0  0  0
 18 17  1  0  0  0  0
 20 19  1  0  0  0  0
 20 21  1  1  0  0  0
 22 20  1  0  0  0  0
 23 24  1  0  0  0  0
 24 25  2  6  0  0  0
 24 27  1  0  0  0  0
 24 22  1  0  0  0  0
 26 32  1  0  0  0  0
 27 29  1  0  0  0  0
 28 26  1  0  0  0  0
 29 32  1  0  0  0  0
 30 27  2  0  0  0  0
 31 30  1  0  0  0  0
 31 28  1  0  0  0  0
M  END
>  <MODEL>
9

>  <REMARK>
 VINA RESULT:      -5.6      3.427      9.130
  Name = 
  13 active torsions:
  status: ('A' for Active; 'I' for Inactive)
    1  A    between atoms: C_1  and  C_7
    2  A    between atoms: C_1  and  O_11
    3  A    between atoms: C_1  and  C_18
    4  A    between atoms: C_5  and  C_12
    5  A    between atoms: C_5  and  N_23
    6  A    between atoms: C_7  and  C_28
    7  A    between atoms: C_9  and  O_22
    8  A    between atoms: C_10  and  O_11
    9  A    between atoms: C_10  and  C_21
   10  A    between atoms: C_10  and  N_23
   11  A    between atoms: C_12  and  P_29
   12  A    between atoms: C_17  and  P_29
   13  A    between atoms: O_22  and  C_28
                            x       y       z     vdW  Elec       q    Type
                         _______ _______ _______ _____ _____    ______ ____

>  <TORSDO>
F 13

$$$$
