=
 OpenBabel11072414283D

 47 51  0  0  1  0  0  0  0  0999 V2000
  162.7100  208.3070  151.9010 N   0  0  0  0  0  2  0  0  0  0  0  0
  161.2190  213.0440  149.8460 N   0  0  0  0  0  2  0  0  0  0  0  0
  162.9600  206.9310  152.3210 C   0  0  0  0  0  2  0  0  0  0  0  0
  161.4630  210.7560  148.8250 N   0  0  0  0  0  2  0  0  0  0  0  0
  160.5190  209.9540  150.9060 C   0  0  1  0  0  3  0  0  0  0  0  0
  160.6350  206.0880  153.8970 N   0  0  0  0  0  1  0  0  0  0  0  0
  162.2610  206.5900  147.6140 C   0  0  0  0  0  2  0  0  0  0  0  0
  160.6830  209.7060  152.3730 N   0  0  2  0  0  0  0  0  0  0  0  0
  161.3300  208.3370  149.2050 C   0  0  0  0  0  2  0  0  0  0  0  0
  163.3320  208.6880  147.9010 O   0  0  0  0  0  1  0  0  0  0  0  0
  161.1570  210.9540  151.7620 C   0  0  2  0  0  3  0  0  0  0  0  0
  160.9120  204.9110  149.8660 C   0  0  0  0  0  0  0  0  0  0  0  0
  160.1800  212.1080  151.8960 C   0  0  0  0  0  2  0  0  0  0  0  0
  160.9940  205.7200  147.4550 C   0  0  1  0  0  3  0  0  0  0  0  0
  160.9490  204.5110  148.4140 C   0  0  1  0  0  3  0  0  0  0  0  0
  161.5800  209.7060  149.8410 C   0  0  1  0  0  3  0  0  0  0  0  0
  161.9690  205.6180  150.4530 C   0  0  0  0  0  3  0  0  0  0  0  0
  162.0720  208.0890  147.8820 C   0  0  1  0  0  3  0  0  0  0  0  0
  159.7450  204.9790  151.9510 N   0  0  0  0  0  0  0  0  0  0  0  0
  161.9300  212.1020  149.0210 C   0  0  0  0  0  0  0  0  0  0  0  0
  159.9520  212.7650  150.5230 C   0  0  1  0  0  3  0  0  0  0  0  0
  159.7960  204.5940  150.6470 C   0  0  0  0  0  3  0  0  0  0  0  0
  160.7570  205.6870  152.5330 C   0  0  0  0  0  0  0  0  0  0  0  0
  162.9680  212.4820  148.4160 O   0  0  0  0  0  0  0  0  0  0  0  0
  161.8200  208.9050  152.8920 C   0  0  2  0  0  3  0  0  0  0  0  0
  161.8940  206.0290  151.7820 C   0  0  0  0  0  0  0  0  0  0  0  0
  159.6670  206.4680  147.4130 C   0  0  0  0  0  1  0  0  0  0  0  0
  160.7380  200.0680  145.4160 O   0  0  0  0  0  1  0  0  0  0  0  0
  161.2060  200.8780  146.4510 C   0  0  1  0  0  3  0  0  0  0  0  0
  162.1980  203.1510  146.6280 C   0  0  0  0  0  2  0  0  0  0  0  0
  160.5610  201.5580  148.8620 C   0  0  0  0  0  2  0  0  0  0  0  0
  161.9400  202.2060  148.9860 C   0  0  0  0  0  2  0  0  0  0  0  0
  161.0360  202.3380  146.0640 C   0  0  0  0  0  2  0  0  0  0  0  0
  160.4750  200.5160  147.7450 C   0  0  0  0  0  2  0  0  0  0  0  0
  162.0550  203.4720  148.1230 C   0  0  2  0  0  3  0  0  0  0  0  0
  162.5620  209.5560  154.0630 C   0  0  0  0  0  2  0  0  0  0  0  0
  161.7520  209.5540  155.2750 N   0  0  0  0  0  2  0  0  0  0  0  0
  161.5000  210.9500  155.6070 C   0  0  0  0  0  2  0  0  0  0  0  0
  160.0170  211.2750  155.4670 C   0  0  0  0  0  2  0  0  0  0  0  0
  159.6490  212.3630  156.3630 N   0  0  0  0  0  0  0  0  0  0  0  0
  160.7650  212.6090  157.1760 N   0  0  0  0  0  1  0  0  0  0  0  0
  159.4820  213.4640  155.5940 O   0  0  0  0  0  1  0  0  0  0  0  0
  159.2380  213.9550  150.6910 O   0  0  0  0  0  0  0  0  0  0  0  0
  156.5200  214.4190  150.8110 O   0  0  0  0  0  1  0  0  0  0  0  0
  157.7910  214.4530  148.3670 O   0  0  0  0  0  0  0  0  0  0  0  0
  157.4840  212.2400  149.7330 O   0  0  0  0  0  1  0  0  0  0  0  0
  157.7570  213.7200  149.8910 P   0  0  0  0  0  0  0  0  0  0  0  0
  1  3  1  0  0  0  0
  1 25  1  0  0  0  0
  2 21  1  0  0  0  0
  4 20  1  0  0  0  0
  4 16  1  0  0  0  0
  5 11  1  0  0  0  0
  5  8  1  0  0  0  0
  7 18  1  0  0  0  0
  8 25  1  0  0  0  0
  9 16  1  0  0  0  0
 11 13  1  0  0  0  0
 11  8  1  0  0  0  0
 12 17  2  0  0  0  0
 12 22  1  0  0  0  0
 14  7  1  0  0  0  0
 14 15  1  0  0  0  0
 15 12  1  0  0  0  0
 16  5  1  0  0  0  0
 17 26  1  0  0  0  0
 18 10  1  0  0  0  0
 18  9  1  0  0  0  0
 19 23  1  0  0  0  0
 20  2  1  0  0  0  0
 21 43  1  0  0  0  0
 21 13  1  0  0  0  0
 22 19  2  0  0  0  0
 23  6  1  0  0  0  0
 24 20  2  0  0  0  0
 25 36  1  0  0  0  0
 26  3  1  0  0  0  0
 26 23  2  0  0  0  0
 27 14  1  0  0  0  0
 28 29  1  0  0  0  0
 29 34  1  0  0  0  0
 30 35  1  0  0  0  0
 31 32  1  0  0  0  0
 33 29  1  0  0  0  0
 33 30  1  0  0  0  0
 34 31  1  0  0  0  0
 35 15  1  0  0  0  0
 35 32  1  0  0  0  0
 36 37  1  0  0  0  0
 37 38  1  0  0  0  0
 39 38  1  0  0  0  0
 39 40  1  0  0  0  0
 40 41  1  0  0  0  0
 42 40  1  0  0  0  0
 45 47  2  0  0  0  0
 46 47  1  0  0  0  0
 47 43  1  0  0  0  0
 47 44  1  0  0  0  0
M  END
>  <MODEL>
1

>  <REMARK>
 VINA RESULT:       1.6      0.000      0.000
  Name = 
  8 active torsions:
  status: ('A' for Active; 'I' for Inactive)
    1  A    between atoms: C_3  and  N_11
    2  A    between atoms: C_3  and  C_34
    3  A    between atoms: N_11  and  C_24
    4  A    between atoms: N_20  and  C_34
    5  A    between atoms: C_21  and  C_46
    6  A    between atoms: C_24  and  C_43
    7  A    between atoms: O_36  and  C_38
    8  A    between atoms: O_36  and  P_47
                            x       y       z     vdW  Elec       q    Type
                         _______ _______ _______ _____ _____    ______ ____

>  <TORSDO>
F 8

$$$$
=
 OpenBabel11072414283D

 47 51  0  0  1  0  0  0  0  0999 V2000
  162.7860  208.3770  151.9000 N   0  0  0  0  0  2  0  0  0  0  0  0
  161.2860  213.0980  149.8130 N   0  0  0  0  0  2  0  0  0  0  0  0
  163.0330  207.0050  152.3340 C   0  0  0  0  0  2  0  0  0  0  0  0
  161.4810  210.7920  148.8210 N   0  0  0  0  0  2  0  0  0  0  0  0
  160.5840  210.0310  150.9380 C   0  0  1  0  0  3  0  0  0  0  0  0
  160.7430  206.2100  153.9840 N   0  0  0  0  0  1  0  0  0  0  0  0
  162.2060  206.6010  147.6530 C   0  0  0  0  0  2  0  0  0  0  0  0
  160.7850  209.8040  152.4040 N   0  0  2  0  0  0  0  0  0  0  0  0
  161.3350  208.3800  149.2410 C   0  0  0  0  0  2  0  0  0  0  0  0
  163.3040  208.6920  147.8800 O   0  0  0  0  0  1  0  0  0  0  0  0
  161.2550  211.0370  151.7610 C   0  0  2  0  0  3  0  0  0  0  0  0
  160.9010  204.9700  149.9660 C   0  0  0  0  0  0  0  0  0  0  0  0
  160.2930  212.2030  151.9030 C   0  0  0  0  0  2  0  0  0  0  0  0
  160.9260  205.7400  147.5420 C   0  0  1  0  0  3  0  0  0  0  0  0
  160.8950  204.5470  148.5190 C   0  0  1  0  0  3  0  0  0  0  0  0
  161.6140  209.7560  149.8500 C   0  0  1  0  0  3  0  0  0  0  0  0
  161.9800  205.6740  150.5140 C   0  0  0  0  0  3  0  0  0  0  0  0
  162.0390  208.1050  147.9030 C   0  0  1  0  0  3  0  0  0  0  0  0
  159.7910  205.0810  152.0800 N   0  0  0  0  0  0  0  0  0  0  0  0
  161.9650  212.1360  148.9840 C   0  0  0  0  0  0  0  0  0  0  0  0
  160.0350  212.8410  150.5280 C   0  0  1  0  0  3  0  0  0  0  0  0
  159.8030  204.6760  150.7810 C   0  0  0  0  0  3  0  0  0  0  0  0
  160.8250  205.7870  152.6240 C   0  0  0  0  0  0  0  0  0  0  0  0
  162.9910  212.4960  148.3460 O   0  0  0  0  0  0  0  0  0  0  0  0
  161.9280  208.9990  152.9050 C   0  0  2  0  0  3  0  0  0  0  0  0
  161.9450  206.1060  151.8380 C   0  0  0  0  0  0  0  0  0  0  0  0
  159.6060  206.5010  147.5230 C   0  0  0  0  0  1  0  0  0  0  0  0
  160.6740  200.2640  145.2990 O   0  0  0  0  0  1  0  0  0  0  0  0
  161.1260  201.0080  146.3880 C   0  0  1  0  0  3  0  0  0  0  0  0
  162.1710  203.2410  146.7120 C   0  0  0  0  0  2  0  0  0  0  0  0
  160.4140  201.5880  148.8060 C   0  0  0  0  0  2  0  0  0  0  0  0
  161.8030  202.1890  149.0090 C   0  0  0  0  0  2  0  0  0  0  0  0
  161.0090  202.4900  146.0690 C   0  0  0  0  0  2  0  0  0  0  0  0
  160.3390  200.6050  147.6360 C   0  0  0  0  0  2  0  0  0  0  0  0
  161.9830  203.4930  148.2160 C   0  0  2  0  0  3  0  0  0  0  0  0
  162.7070  209.6600  154.0460 C   0  0  0  0  0  2  0  0  0  0  0  0
  161.8120  210.2840  155.0120 N   0  0  0  0  0  2  0  0  0  0  0  0
  161.1610  209.2000  155.7340 C   0  0  0  0  0  2  0  0  0  0  0  0
  159.7090  209.5540  156.0390 C   0  0  0  0  0  2  0  0  0  0  0  0
  159.4500  210.9520  155.7200 N   0  0  0  0  0  0  0  0  0  0  0  0
  158.3050  210.9740  154.9120 N   0  0  0  0  0  1  0  0  0  0  0  0
  159.1150  211.5620  156.8810 O   0  0  0  0  0  1  0  0  0  0  0  0
  159.3370  214.0410  150.6950 O   0  0  0  0  0  0  0  0  0  0  0  0
  156.6440  213.8660  150.1180 O   0  0  0  0  0  0  0  0  0  0  0  0
  157.8040  211.9720  151.7480 O   0  0  0  0  0  1  0  0  0  0  0  0
  157.4870  214.4530  152.5230 O   0  0  0  0  0  1  0  0  0  0  0  0
  157.8150  213.6060  151.3120 P   0  0  0  0  0  0  0  0  0  0  0  0
  1  3  1  0  0  0  0
  1 25  1  0  0  0  0
  2 21  1  0  0  0  0
  4 20  1  0  0  0  0
  4 16  1  0  0  0  0
  5 11  1  0  0  0  0
  5  8  1  0  0  0  0
  7 18  1  0  0  0  0
  8 25  1  0  0  0  0
  9 16  1  0  0  0  0
 10 18  1  0  0  0  0
 11 13  1  0  0  0  0
 11  8  1  0  0  0  0
 12 17  2  0  0  0  0
 12 22  1  0  0  0  0
 14  7  1  0  0  0  0
 14 15  1  0  0  0  0
 15 12  1  0  0  0  0
 16  5  1  0  0  0  0
 17 26  1  0  0  0  0
 18  9  1  0  0  0  0
 19 23  1  0  0  0  0
 20  2  1  0  0  0  0
 21 43  1  0  0  0  0
 21 13  1  0  0  0  0
 22 19  2  0  0  0  0
 23  6  1  0  0  0  0
 24 20  2  0  0  0  0
 25 36  1  0  0  0  0
 26  3  1  0  0  0  0
 26 23  2  0  0  0  0
 27 14  1  0  0  0  0
 28 29  1  0  0  0  0
 29 34  1  0  0  0  0
 30 35  1  0  0  0  0
 31 32  1  0  0  0  0
 33 29  1  0  0  0  0
 33 30  1  0  0  0  0
 34 31  1  0  0  0  0
 35 15  1  0  0  0  0
 35 32  1  0  0  0  0
 36 37  1  0  0  0  0
 37 38  1  0  0  0  0
 38 39  1  0  0  0  0
 40 39  1  0  0  0  0
 40 42  1  0  0  0  0
 41 40  1  0  0  0  0
 43 47  1  0  0  0  0
 44 47  2  0  0  0  0
 47 45  1  0  0  0  0
 47 46  1  0  0  0  0
M  END
>  <MODEL>
2

>  <REMARK>
 VINA RESULT:       1.9      0.842      1.154
  Name = 
  8 active torsions:
  status: ('A' for Active; 'I' for Inactive)
    1  A    between atoms: C_3  and  N_11
    2  A    between atoms: C_3  and  C_34
    3  A    between atoms: N_11  and  C_24
    4  A    between atoms: N_20  and  C_34
    5  A    between atoms: C_21  and  C_46
    6  A    between atoms: C_24  and  C_43
    7  A    between atoms: O_36  and  C_38
    8  A    between atoms: O_36  and  P_47
                            x       y       z     vdW  Elec       q    Type
                         _______ _______ _______ _____ _____    ______ ____

>  <TORSDO>
F 8

$$$$
=
 OpenBabel11072414283D

 47 51  0  0  1  0  0  0  0  0999 V2000
  160.5650  209.8030  150.0220 N   0  0  0  0  0  2  0  0  0  0  0  0
  160.9110  213.5750  146.2080 N   0  0  0  0  0  2  0  0  0  0  0  0
  160.4790  208.9520  151.2050 C   0  0  0  0  0  2  0  0  0  0  0  0
  159.7310  213.5170  148.4320 N   0  0  0  0  0  2  0  0  0  0  0  0
  161.7100  212.3630  149.2170 C   0  0  1  0  0  3  0  0  0  0  0  0
  163.1130  209.0140  152.4920 N   0  0  0  0  0  1  0  0  0  0  0  0
  157.7660  212.7210  152.2990 C   0  0  0  0  0  2  0  0  0  0  0  0
  162.5460  211.1210  149.2270 N   0  0  2  0  0  0  0  0  0  0  0  0
  159.7530  212.6370  150.7210 C   0  0  0  0  0  2  0  0  0  0  0  0
  157.4700  212.4390  149.9620 O   0  0  0  0  0  1  0  0  0  0  0  0
  161.9610  211.6240  147.9790 C   0  0  2  0  0  3  0  0  0  0  0  0
  160.0340  211.4440  154.0140 C   0  0  0  0  0  0  0  0  0  0  0  0
  162.9180  212.4640  147.1510 C   0  0  0  0  0  2  0  0  0  0  0  0
  158.4590  213.3790  153.5130 C   0  0  1  0  0  3  0  0  0  0  0  0
  158.9730  212.3660  154.5580 C   0  0  1  0  0  3  0  0  0  0  0  0
  160.1890  212.4060  149.2720 C   0  0  1  0  0  3  0  0  0  0  0  0
  159.7590  210.5580  152.9650 C   0  0  0  0  0  3  0  0  0  0  0  0
  158.2890  213.0680  150.9000 C   0  0  1  0  0  3  0  0  0  0  0  0
  162.2960  210.6720  154.0370 N   0  0  0  0  0  0  0  0  0  0  0  0
  159.7100  213.4650  146.9950 C   0  0  0  0  0  0  0  0  0  0  0  0
  162.2490  213.7920  146.7600 C   0  0  1  0  0  3  0  0  0  0  0  0
  161.3270  211.4810  154.5450 C   0  0  0  0  0  3  0  0  0  0  0  0
  162.0500  209.8180  153.0010 C   0  0  0  0  0  0  0  0  0  0  0  0
  158.6000  213.3670  146.4050 O   0  0  0  0  0  0  0  0  0  0  0  0
  161.9620  209.8070  149.5950 C   0  0  2  0  0  3  0  0  0  0  0  0
  160.7650  209.7530  152.4360 C   0  0  0  0  0  0  0  0  0  0  0  0
  159.4960  214.4500  153.1950 C   0  0  0  0  0  1  0  0  0  0  0  0
  154.1680  214.1200  156.1720 O   0  0  0  0  0  1  0  0  0  0  0  0
  155.2930  213.2970  156.2050 C   0  0  1  0  0  3  0  0  0  0  0  0
  156.4650  211.8110  154.5920 C   0  0  0  0  0  2  0  0  0  0  0  0
  157.7110  213.3060  157.1260 C   0  0  0  0  0  2  0  0  0  0  0  0
  157.7870  211.8200  156.7760 C   0  0  0  0  0  2  0  0  0  0  0  0
  155.8950  213.2090  154.8120 C   0  0  0  0  0  2  0  0  0  0  0  0
  156.2790  213.8310  157.2460 C   0  0  0  0  0  2  0  0  0  0  0  0
  157.8320  211.5930  155.2570 C   0  0  2  0  0  3  0  0  0  0  0  0
  162.3020  208.6750  148.6190 C   0  0  0  0  0  2  0  0  0  0  0  0
  161.6110  207.4410  148.9720 N   0  0  0  0  0  2  0  0  0  0  0  0
  161.9280  206.4750  147.9290 C   0  0  0  0  0  2  0  0  0  0  0  0
  161.0890  205.2130  148.0950 C   0  0  0  0  0  2  0  0  0  0  0  0
  161.7440  204.0810  147.4540 N   0  0  0  0  0  0  0  0  0  0  0  0
  161.2600  202.9250  148.0840 N   0  0  0  0  0  1  0  0  0  0  0  0
  161.2960  204.0410  146.1770 O   0  0  0  0  0  1  0  0  0  0  0  0
  163.0420  214.4530  145.8180 O   0  0  0  0  0  0  0  0  0  0  0  0
  163.6490  214.3660  143.1280 O   0  0  0  0  0  0  0  0  0  0  0  0
  162.4460  212.1900  144.3130 O   0  0  0  0  0  1  0  0  0  0  0  0
  161.1730  214.4510  143.9630 O   0  0  0  0  0  1  0  0  0  0  0  0
  162.5320  213.8790  144.3020 P   0  0  0  0  0  0  0  0  0  0  0  0
  1  3  1  0  0  0  0
  2 21  1  0  0  0  0
  2 20  1  0  0  0  0
  3 26  1  0  0  0  0
  4 16  1  0  0  0  0
  5  8  1  0  0  0  0
  5 16  1  0  0  0  0
  6 23  1  0  0  0  0
  7 14  1  0  0  0  0
  8 25  1  0  0  0  0
  9 18  1  0  0  0  0
 10 18  1  0  0  0  0
 11  5  1  0  0  0  0
 11  8  1  0  0  0  0
 12 22  1  0  0  0  0
 12 15  1  0  0  0  0
 13 11  1  0  0  0  0
 14 15  1  0  0  0  0
 15 35  1  0  0  0  0
 16  9  1  0  0  0  0
 17 12  2  0  0  0  0
 18  7  1  0  0  0  0
 19 22  2  0  0  0  0
 20  4  1  0  0  0  0
 21 13  1  0  0  0  0
 23 19  1  0  0  0  0
 24 20  2  0  0  0  0
 25  1  1  0  0  0  0
 26 17  1  0  0  0  0
 26 23  2  0  0  0  0
 27 14  1  0  0  0  0
 28 29  1  0  0  0  0
 29 34  1  0  0  0  0
 30 33  1  0  0  0  0
 30 35  1  0  0  0  0
 31 34  1  0  0  0  0
 32 31  1  0  0  0  0
 33 29  1  0  0  0  0
 35 32  1  0  0  0  0
 36 37  1  0  0  0  0
 36 25  1  0  0  0  0
 38 39  1  0  0  0  0
 38 37  1  0  0  0  0
 40 41  1  0  0  0  0
 40 39  1  0  0  0  0
 42 40  1  0  0  0  0
 43 21  1  0  0  0  0
 44 47  2  0  0  0  0
 46 47  1  0  0  0  0
 47 45  1  0  0  0  0
 47 43  1  0  0  0  0
M  END
>  <MODEL>
3

>  <REMARK>
 VINA RESULT:       2.9      3.104      9.047
  Name = 
  8 active torsions:
  status: ('A' for Active; 'I' for Inactive)
    1  A    between atoms: C_3  and  N_11
    2  A    between atoms: C_3  and  C_34
    3  A    between atoms: N_11  and  C_24
    4  A    between atoms: N_20  and  C_34
    5  A    between atoms: C_21  and  C_46
    6  A    between atoms: C_24  and  C_43
    7  A    between atoms: O_36  and  C_38
    8  A    between atoms: O_36  and  P_47
                            x       y       z     vdW  Elec       q    Type
                         _______ _______ _______ _____ _____    ______ ____

>  <TORSDO>
F 8

$$$$
