=
 OpenBabel11072409533D

 64 67  0  0  1  0  0  0  0  0999 V2000
  159.8290  210.2200  153.8750 C   0  0  0  0  0  3  0  0  0  0  0  0
  161.9970  208.8110  156.5330 C   0  0  0  0  0  2  0  0  0  0  0  0
  160.9210  211.8590  156.2730 C   0  0  1  0  0  3  0  0  0  0  0  0
  161.9150  209.8150  155.4000 C   0  0  0  0  0  0  0  0  0  0  0  0
  159.9030  212.3280  155.2680 C   0  0  2  0  0  3  0  0  0  0  0  0
  163.0780  208.8720  155.5020 C   0  0  0  0  0  2  0  0  0  0  0  0
  162.1970  211.2470  155.7300 C   0  0  0  0  0  2  0  0  0  0  0  0
  160.8210  209.4440  154.3740 C   0  0  0  0  0  0  0  0  0  0  0  0
  159.5280  211.6740  153.9400 C   0  0  2  0  0  3  0  0  0  0  0  0
  160.0160  213.7220  155.1960 O   0  0  0  0  0  1  0  0  0  0  0  0
  158.0120  212.0650  153.3850 C   0  0  1  0  0  0  0  0  0  0  0  0
  157.3410  210.6810  153.1840 C   0  0  0  0  0  1  0  0  0  0  0  0
  157.1360  212.6720  154.4600 C   0  0  0  0  0  2  0  0  0  0  0  0
  157.1080  212.0140  155.6580 O   0  0  0  0  0  0  0  0  0  0  0  0
  154.5830  212.0720  154.5020 O   0  0  0  0  0  0  0  0  0  0  0  0
  155.4540  210.0160  155.7900 O   0  0  0  0  0  1  0  0  0  0  0  0
  155.4630  211.5020  155.7930 P   0  0  0  0  0  0  0  0  0  0  0  0
  154.8310  212.0470  157.2600 O   0  0  0  0  0  1  0  0  0  0  0  0
  158.0650  212.8940  152.0590 N   0  0  0  0  0  0  0  0  0  0  0  0
  156.2020  214.4510  150.5140 O   0  0  0  0  0  1  0  0  0  0  0  0
  155.5360  214.1010  153.0810 O   0  0  0  0  0  1  0  0  0  0  0  0
  156.8660  214.2210  151.9030 P   0  0  0  0  0  0  0  0  0  0  0  0
  159.3690  213.5840  151.7810 C   0  0  0  0  0  2  0  0  0  0  0  0
  160.0880  213.3980  150.3010 C   0  0  2  0  0  3  0  0  0  0  0  0
  161.1750  214.2310  149.9490 O   0  0  0  0  0  1  0  0  0  0  0  0
  159.1760  213.4010  149.0880 C   0  0  0  0  0  2  0  0  0  0  0  0
  159.9670  213.4720  147.7770 C   0  0  1  0  0  3  0  0  0  0  0  0
  161.1980  212.7730  147.8300 O   0  0  0  0  0  1  0  0  0  0  0  0
  159.1510  212.8330  146.7310 C   0  0  0  0  0  0  0  0  0  0  0  0
  157.8490  212.5910  146.9160 O   0  0  0  0  0  1  0  0  0  0  0  0
  159.7430  212.4320  145.6550 O   0  0  0  0  0  0  0  0  0  0  0  0
  161.1810  212.8600  157.2590 O   0  0  0  0  0  0  0  0  0  0  0  0
  160.3760  214.0130  157.0670 C   0  0  0  0  0  1  0  0  0  0  0  0
  160.8140  208.0370  153.9170 C   0  0  1  0  0  3  0  0  0  0  0  0
  159.6470  207.3690  154.3960 O   0  0  0  0  0  0  0  0  0  0  0  0
  159.5180  207.3420  155.8180 C   0  0  0  0  0  1  0  0  0  0  0  0
  161.4710  207.7100  152.5340 C   0  0  1  0  0  3  0  0  0  0  0  0
  161.5170  209.1510  151.9070 C   0  0  2  0  0  3  0  0  0  0  0  0
  160.3230  209.4960  151.3720 O   0  0  0  0  0  1  0  0  0  0  0  0
  162.6320  209.4900  151.1060 O   0  0  0  0  0  0  0  0  0  0  0  0
  161.9860  209.7340  149.9020 C   0  0  0  0  0  2  0  0  0  0  0  0
  162.6880  210.0340  148.6430 C   0  0  0  0  0  1  0  0  0  0  0  0
  162.7960  207.1830  152.4650 O   0  0  0  0  0  0  0  0  0  0  0  0
  163.2780  204.7160  152.2550 C   0  0  0  0  0  1  0  0  0  0  0  0
  162.7820  206.0410  151.5940 C   0  0  1  0  0  3  0  0  0  0  0  0
  161.3730  205.8550  151.0960 C   0  0  1  0  0  3  0  0  0  0  0  0
  160.8770  206.6910  149.9530 C   0  0  0  0  0  1  0  0  0  0  0  0
  160.7230  202.2820  150.2370 C   0  0  1  0  0  3  0  0  0  0  0  0
  161.9670  205.3500  144.6350 C   0  0  0  0  0  3  0  0  0  0  0  0
  160.7150  205.0610  145.0730 C   0  0  0  0  0  3  0  0  0  0  0  0
  160.0970  204.1200  153.0270 O   0  0  0  0  0  1  0  0  0  0  0  0
  161.6120  204.2810  147.2720 C   0  0  0  0  0  0  0  0  0  0  0  0
  160.3380  204.3540  146.3650 C   0  0  2  0  0  3  0  0  0  0  0  0
  161.1750  203.6100  149.7760 C   0  0  0  0  0  0  0  0  0  0  0  0
  163.1530  205.0050  145.4460 C   0  0  0  0  0  3  0  0  0  0  0  0
  160.8460  203.5110  152.0530 C   0  0  1  0  0  3  0  0  0  0  0  0
  160.2420  202.3660  151.5530 O   0  0  0  0  0  0  0  0  0  0  0  0
  161.0480  204.4410  150.8800 N   0  0  0  0  0  0  0  0  0  0  0  0
  161.4600  203.9730  148.4790 C   0  0  0  0  0  0  0  0  0  0  0  0
  162.9600  204.5390  146.6740 C   0  0  0  0  0  3  0  0  0  0  0  0
  160.3720  201.0480  149.4100 C   0  0  0  0  0  2  0  0  0  0  0  0
  161.4000  200.9260  148.2710 C   0  0  0  0  0  1  0  0  0  0  0  0
  159.9460  203.0000  146.1720 O   0  0  0  0  0  0  0  0  0  0  0  0
  159.7350  202.6440  144.8410 C   0  0  0  0  0  1  0  0  0  0  0  0
  1  9  1  0  0  0  0
  1  8  2  0  0  0  0
  3 32  1  6  0  0  0
  4  6  1  0  0  0  0
  4  7  1  0  0  0  0
  4  2  1  0  0  0  0
  5 10  1  6  0  0  0
  5  3  1  0  0  0  0
  6  2  1  0  0  0  0
  7  3  1  0  0  0  0
  8  4  1  0  0  0  0
  9 11  1  1  0  0  0
  9  5  1  0  0  0  0
 11 12  1  6  0  0  0
 11 13  1  0  0  0  0
 13 14  1  0  0  0  0
 14 17  1  0  0  0  0
 15 17  2  0  0  0  0
 16 17  1  0  0  0  0
 17 18  1  0  0  0  0
 19 11  1  0  0  0  0
 20 22  1  0  0  0  0
 22 19  1  0  0  0  0
 22 21  1  0  0  0  0
 23 19  1  0  0  0  0
 24 25  1  6  0  0  0
 24 23  1  0  0  0  0
 26 24  1  0  0  0  0
 27 28  1  1  0  0  0
 27 26  1  0  0  0  0
 29 30  1  0  0  0  0
 29 27  1  0  0  0  0
 31 29  2  0  0  0  0
 33 32  1  0  0  0  0
 34  8  1  0  0  0  0
 34 35  1  6  0  0  0
 35 36  1  0  0  0  0
 37 43  1  1  0  0  0
 37 34  1  0  0  0  0
 38 39  1  6  0  0  0
 38 37  1  0  0  0  0
 40 38  1  0  0  0  0
 41 40  1  0  0  0  0
 42 41  1  0  0  0  0
 45 44  1  1  0  0  0
 45 43  1  0  0  0  0
 46 47  1  6  0  0  0
 46 45  1  0  0  0  0
 48 61  1  6  0  0  0
 48 57  1  0  0  0  0
 49 50  2  0  0  0  0
 49 55  1  0  0  0  0
 50 53  1  0  0  0  0
 52 59  2  0  0  0  0
 53 63  1  6  0  0  0
 53 52  1  0  0  0  0
 54 48  1  0  0  0  0
 54 58  1  0  0  0  0
 55 60  2  0  0  0  0
 56 51  1  1  0  0  0
 57 56  1  0  0  0  0
 58 46  1  0  0  0  0
 58 56  1  0  0  0  0
 59 54  2  0  0  0  0
 60 52  1  0  0  0  0
 62 61  1  0  0  0  0
 64 63  1  0  0  0  0
M  END
>  <MODEL>
1

>  <REMARK>
 VINA RESULT:      -0.4      0.000      0.000
  Name = 
  24 active torsions:
  status: ('A' for Active; 'I' for Inactive)
    1  A    between atoms: C_2  and  C_23
    2  A    between atoms: O_6  and  C_17
    3  A    between atoms: C_7  and  C_13
    4  A    between atoms: C_7  and  O_32
    5  A    between atoms: C_7  and  C_33
    6  A    between atoms: C_8  and  C_26
    7  A    between atoms: C_8  and  C_44
    8  A    between atoms: N_9  and  C_26
    9  A    between atoms: N_9  and  C_31
   10  A    between atoms: N_9  and  P_51
   11  A    between atoms: O_12  and  C_21
   12  A    between atoms: C_13  and  O_36
   13  A    between atoms: O_19  and  C_33
   14  A    between atoms: C_20  and  C_28
   15  A    between atoms: O_24  and  P_43
   16  A    between atoms: O_24  and  C_54
   17  A    between atoms: C_25  and  N_48
   18  A    between atoms: C_25  and  C_63
   19  A    between atoms: C_28  and  C_44
   20  A    between atoms: C_31  and  C_54
   21  A    between atoms: C_31  and  C_58
   22  A    between atoms: O_32  and  C_63
   23  A    between atoms: C_33  and  C_53
   24  A    between atoms: O_36  and  C_40
                            x       y       z     vdW  Elec       q    Type
                         _______ _______ _______ _____ _____    ______ ____

>  <TORSDO>
F 24

$$$$
