=
 OpenBabel11072411303D

 35 39  0  0  1  0  0  0  0  0999 V2000
  159.3670  211.2620  154.9690 N   0  0  0  0  0  0  0  0  0  0  0  0
  160.4720  209.1460  155.3300 C   0  0  0  0  0  3  0  0  0  0  0  0
  160.2170  210.0700  153.1160 C   0  0  0  0  0  0  0  0  0  0  0  0
  159.3360  212.6000  151.4340 C   0  0  0  0  0  0  0  0  0  0  0  0
  162.2490  210.8830  148.5270 C   0  0  0  0  0  2  0  0  0  0  0  0
  162.0930  208.6860  149.6330 C   0  0  0  0  0  3  0  0  0  0  0  0
  159.0130  212.2450  152.7880 N   0  0  0  0  0  2  0  0  0  0  0  0
  159.8820  213.3060  148.7740 C   0  0  0  0  0  3  0  0  0  0  0  0
  158.3610  213.2310  150.6550 C   0  0  0  0  0  3  0  0  0  0  0  0
  162.1950  212.3530  148.9390 C   0  0  0  0  0  2  0  0  0  0  0  0
  160.6050  212.3700  150.8860 C   0  0  0  0  0  3  0  0  0  0  0  0
  160.5160  209.7580  151.8440 N   0  0  0  0  0  0  0  0  0  0  0  0
  161.1660  208.5980  151.8660 N   0  0  0  0  0  0  0  0  0  0  0  0
  160.6550  209.0810  153.9550 C   0  0  0  0  0  0  0  0  0  0  0  0
  160.8740  212.7030  149.5510 C   0  0  0  0  0  0  0  0  0  0  0  0
  161.7280  207.9750  150.7010 C   0  0  0  0  0  3  0  0  0  0  0  0
  159.5670  211.2060  153.6170 C   0  0  0  0  0  0  0  0  0  0  0  0
  159.8030  210.2810  155.8220 C   0  0  0  0  0  3  0  0  0  0  0  0
  162.0150  210.0740  149.6650 O   0  0  0  0  0  0  0  0  0  0  0  0
  158.6260  213.5910  149.3230 C   0  0  0  0  0  0  0  0  0  0  0  0
  161.2530  208.1460  153.1400 C   0  0  0  0  0  0  0  0  0  0  0  0
  157.6410  214.2280  148.4980 N   0  0  0  0  0  2  0  0  0  0  0  0
  156.9190  213.6360  147.4120 C   0  0  0  0  0  0  0  0  0  0  0  0
  157.1080  212.4380  147.0770 O   0  0  0  0  0  0  0  0  0  0  0  0
  155.9290  214.4530  146.6650 C   0  0  0  0  0  1  0  0  0  0  0  0
  161.8970  206.8680  153.5660 C   0  0  0  0  0  2  0  0  0  0  0  0
  160.9820  205.7010  153.2500 C   0  0  0  0  0  2  0  0  0  0  0  0
  160.7700  204.7240  150.9960 C   0  0  1  0  0  3  0  0  0  0  0  0
  160.7660  203.5850  151.9940 C   0  0  0  0  0  2  0  0  0  0  0  0
  161.6420  204.7940  152.2340 C   0  0  2  0  0  3  0  0  0  0  0  0
  161.5860  204.3620  149.8490 N   0  0  0  0  0  2  0  0  0  0  0  0
  160.8190  204.6980  148.6610 C   0  0  0  0  0  2  0  0  0  0  0  0
  162.0890  203.9600  146.6490 O   0  0  0  0  0  0  0  0  0  0  0  0
  162.1960  206.1360  147.3620 O   0  0  0  0  0  1  0  0  0  0  0  0
  161.7400  204.9770  147.5280 C   0  0  0  0  0  0  0  0  0  0  0  0
  1 18  1  0  0  0  0
  2 18  2  0  0  0  0
  3 17  1  0  0  0  0
  3 14  1  0  0  0  0
  4  7  1  0  0  0  0
  5 10  1  0  0  0  0
  5 19  1  0  0  0  0
  6 19  1  0  0  0  0
  6 16  2  0  0  0  0
  7 17  1  0  0  0  0
  8 20  2  0  0  0  0
  8 15  1  0  0  0  0
  9  4  2  0  0  0  0
 10 15  1  0  0  0  0
 11  4  1  0  0  0  0
 12 13  1  0  0  0  0
 12  3  2  0  0  0  0
 13 21  1  0  0  0  0
 14  2  1  0  0  0  0
 15 11  2  0  0  0  0
 16 13  1  0  0  0  0
 17  1  2  0  0  0  0
 20  9  1  0  0  0  0
 21 26  1  0  0  0  0
 21 14  2  0  0  0  0
 22 20  1  0  0  0  0
 23 22  1  0  0  0  0
 24 23  2  0  0  0  0
 25 23  1  0  0  0  0
 27 26  1  0  0  0  0
 28 31  1  6  0  0  0
 28 29  1  0  0  0  0
 28 30  1  0  0  0  0
 29 30  1  0  0  0  0
 30 27  1  1  0  0  0
 32 31  1  0  0  0  0
 33 35  2  0  0  0  0
 34 35  1  0  0  0  0
 35 32  1  0  0  0  0
M  END
>  <MODEL>
1

>  <REMARK>
 VINA RESULT:      -7.1      0.000      0.000
  Name = 
  7 active torsions:
  status: ('A' for Active; 'I' for Inactive)
    1  A    between atoms: C_4  and  N_5
    2  A    between atoms: N_5  and  C_7
    3  A    between atoms: C_7  and  C_20
    4  A    between atoms: N_8  and  C_34
    5  A    between atoms: C_21  and  C_23
    6  A    between atoms: C_21  and  C_30
    7  A    between atoms: C_23  and  C_35
                            x       y       z     vdW  Elec       q    Type
                         _______ _______ _______ _____ _____    ______ ____

>  <TORSDO>
F 7

$$$$
=
 OpenBabel11072411303D

 35 39  0  0  1  0  0  0  0  0999 V2000
  158.4010  212.3780  154.5440 N   0  0  0  0  0  0  0  0  0  0  0  0
  159.6850  210.4720  155.2840 C   0  0  0  0  0  3  0  0  0  0  0  0
  159.6430  211.1370  152.9640 C   0  0  0  0  0  0  0  0  0  0  0  0
  158.7190  213.3540  150.9060 C   0  0  0  0  0  0  0  0  0  0  0  0
  162.2020  211.7690  148.6170 C   0  0  0  0  0  2  0  0  0  0  0  0
  162.1510  209.6880  149.9350 C   0  0  0  0  0  3  0  0  0  0  0  0
  158.2490  213.0910  152.2380 N   0  0  0  0  0  2  0  0  0  0  0  0
  159.5540  213.8690  148.2770 C   0  0  0  0  0  3  0  0  0  0  0  0
  157.7980  213.7730  149.9400 C   0  0  0  0  0  3  0  0  0  0  0  0
  161.9160  213.2520  148.8490 C   0  0  0  0  0  2  0  0  0  0  0  0
  160.0720  213.2440  150.5580 C   0  0  0  0  0  3  0  0  0  0  0  0
  160.1560  210.7470  151.7860 N   0  0  0  0  0  0  0  0  0  0  0  0
  160.9300  209.6920  152.0240 N   0  0  0  0  0  0  0  0  0  0  0  0
  160.0700  210.3010  153.9600 C   0  0  0  0  0  0  0  0  0  0  0  0
  160.4880  213.4800  149.2410 C   0  0  0  0  0  0  0  0  0  0  0  0
  161.7230  209.0400  151.0210 C   0  0  0  0  0  3  0  0  0  0  0  0
  158.7980  212.2190  153.2440 C   0  0  0  0  0  0  0  0  0  0  0  0
  158.8230  211.5500  155.5520 C   0  0  0  0  0  3  0  0  0  0  0  0
  161.9040  211.0500  149.7990 O   0  0  0  0  0  0  0  0  0  0  0  0
  158.2070  214.0350  148.6220 C   0  0  0  0  0  0  0  0  0  0  0  0
  160.8860  209.3800  153.3410 C   0  0  0  0  0  0  0  0  0  0  0  0
  157.2820  214.4530  147.6090 N   0  0  0  0  0  2  0  0  0  0  0  0
  156.8780  213.7060  146.4560 C   0  0  0  0  0  0  0  0  0  0  0  0
  157.3340  212.5550  146.2290 O   0  0  0  0  0  0  0  0  0  0  0  0
  155.9030  214.3020  145.5070 C   0  0  0  0  0  1  0  0  0  0  0  0
  161.6090  208.2460  153.9900 C   0  0  0  0  0  2  0  0  0  0  0  0
  160.8650  206.9490  153.7350 C   0  0  0  0  0  2  0  0  0  0  0  0
  160.8620  205.6230  151.6560 C   0  0  1  0  0  3  0  0  0  0  0  0
  161.0790  204.6680  152.8110 C   0  0  0  0  0  2  0  0  0  0  0  0
  161.6970  206.0480  152.8480 C   0  0  2  0  0  3  0  0  0  0  0  0
  161.7390  205.2610  150.5550 N   0  0  0  0  0  2  0  0  0  0  0  0
  160.9080  205.1620  149.3670 C   0  0  0  0  0  2  0  0  0  0  0  0
  161.7820  203.9050  147.4020 O   0  0  0  0  0  0  0  0  0  0  0  0
  160.8990  202.7910  149.2020 O   0  0  0  0  0  1  0  0  0  0  0  0
  161.1900  203.8870  148.6590 C   0  0  0  0  0  0  0  0  0  0  0  0
  1 18  1  0  0  0  0
  2 18  2  0  0  0  0
  3 17  1  0  0  0  0
  3 14  1  0  0  0  0
  4  7  1  0  0  0  0
  5 10  1  0  0  0  0
  5 19  1  0  0  0  0
  6 16  2  0  0  0  0
  7 17  1  0  0  0  0
  8 20  2  0  0  0  0
  8 15  1  0  0  0  0
  9  4  2  0  0  0  0
 10 15  1  0  0  0  0
 11  4  1  0  0  0  0
 12 13  1  0  0  0  0
 12  3  2  0  0  0  0
 13 21  1  0  0  0  0
 14  2  1  0  0  0  0
 15 11  2  0  0  0  0
 16 13  1  0  0  0  0
 17  1  2  0  0  0  0
 19  6  1  0  0  0  0
 20  9  1  0  0  0  0
 21 14  2  0  0  0  0
 21 26  1  0  0  0  0
 22 20  1  0  0  0  0
 23 22  1  0  0  0  0
 24 23  2  0  0  0  0
 25 23  1  0  0  0  0
 27 26  1  0  0  0  0
 28 31  1  6  0  0  0
 28 29  1  0  0  0  0
 28 30  1  0  0  0  0
 29 30  1  0  0  0  0
 30 27  1  1  0  0  0
 32 31  1  0  0  0  0
 33 35  2  0  0  0  0
 35 34  1  0  0  0  0
 35 32  1  0  0  0  0
M  END
>  <MODEL>
2

>  <REMARK>
 VINA RESULT:      -7.0      1.103      1.352
  Name = 
  7 active torsions:
  status: ('A' for Active; 'I' for Inactive)
    1  A    between atoms: C_4  and  N_5
    2  A    between atoms: N_5  and  C_7
    3  A    between atoms: C_7  and  C_20
    4  A    between atoms: N_8  and  C_34
    5  A    between atoms: C_21  and  C_23
    6  A    between atoms: C_21  and  C_30
    7  A    between atoms: C_23  and  C_35
                            x       y       z     vdW  Elec       q    Type
                         _______ _______ _______ _____ _____    ______ ____

>  <TORSDO>
F 7

$$$$
=
 OpenBabel11072411303D

 35 39  0  0  1  0  0  0  0  0999 V2000
  161.4760  202.4840  152.0510 N   0  0  0  0  0  0  0  0  0  0  0  0
  161.3530  201.9150  149.7080 C   0  0  0  0  0  3  0  0  0  0  0  0
  161.0710  204.1880  150.4680 C   0  0  0  0  0  0  0  0  0  0  0  0
  161.2570  206.1500  152.9420 C   0  0  0  0  0  0  0  0  0  0  0  0
  161.9850  209.1300  149.7050 C   0  0  0  0  0  2  0  0  0  0  0  0
  160.9850  207.6070  148.0460 C   0  0  0  0  0  3  0  0  0  0  0  0
  161.1520  204.7180  152.9180 N   0  0  0  0  0  2  0  0  0  0  0  0
  161.3970  208.9510  153.0460 C   0  0  0  0  0  3  0  0  0  0  0  0
  160.6000  206.8550  153.9550 C   0  0  0  0  0  3  0  0  0  0  0  0
  162.8180  209.0100  150.9800 C   0  0  0  0  0  2  0  0  0  0  0  0
  162.0290  206.8570  152.0090 C   0  0  0  0  0  3  0  0  0  0  0  0
  160.8270  205.4060  149.9590 N   0  0  0  0  0  0  0  0  0  0  0  0
  160.7520  205.2730  148.6380 N   0  0  0  0  0  0  0  0  0  0  0  0
  161.1200  203.2620  149.4620 C   0  0  0  0  0  0  0  0  0  0  0  0
  162.0840  208.2560  152.0460 C   0  0  0  0  0  0  0  0  0  0  0  0
  160.5860  206.3730  147.7310 C   0  0  0  0  0  3  0  0  0  0  0  0
  161.2660  203.8120  151.8040 C   0  0  0  0  0  0  0  0  0  0  0  0
  161.5310  201.5450  151.0540 C   0  0  0  0  0  3  0  0  0  0  0  0
  161.6580  207.8340  149.2420 O   0  0  0  0  0  0  0  0  0  0  0  0
  160.6660  208.2570  154.0160 C   0  0  0  0  0  0  0  0  0  0  0  0
  160.9080  203.9710  148.2990 C   0  0  0  0  0  0  0  0  0  0  0  0
  159.9910  209.0040  155.0380 N   0  0  0  0  0  2  0  0  0  0  0  0
  160.5990  209.7220  156.1180 C   0  0  0  0  0  0  0  0  0  0  0  0
  161.8490  209.7530  156.2620 O   0  0  0  0  0  0  0  0  0  0  0  0
  159.7370  210.4450  157.0880 C   0  0  0  0  0  1  0  0  0  0  0  0
  160.8680  203.4230  146.9110 C   0  0  0  0  0  2  0  0  0  0  0  0
  161.7450  204.2630  146.0020 C   0  0  0  0  0  2  0  0  0  0  0  0
  161.6210  205.7340  144.0270 C   0  0  1  0  0  3  0  0  0  0  0  0
  160.2890  205.8120  144.7430 C   0  0  0  0  0  2  0  0  0  0  0  0
  161.0370  204.4990  144.6850 C   0  0  2  0  0  3  0  0  0  0  0  0
  161.3980  205.6700  142.5930 N   0  0  0  0  0  2  0  0  0  0  0  0
  162.3870  206.5360  141.9720 C   0  0  0  0  0  2  0  0  0  0  0  0
  161.3750  207.8680  140.1260 O   0  0  0  0  0  1  0  0  0  0  0  0
  162.4020  205.8650  139.6910 O   0  0  0  0  0  0  0  0  0  0  0  0
  162.0570  206.7300  140.5360 C   0  0  0  0  0  0  0  0  0  0  0  0
  2 18  2  0  0  0  0
  3 17  1  0  0  0  0
  4  9  1  0  0  0  0
  5 10  1  0  0  0  0
  6 19  1  0  0  0  0
  7  4  1  0  0  0  0
  8 20  1  0  0  0  0
  9 20  2  0  0  0  0
 10 15  1  0  0  0  0
 11 15  1  0  0  0  0
 11  4  2  0  0  0  0
 12  3  2  0  0  0  0
 13 12  1  0  0  0  0
 14  2  1  0  0  0  0
 14  3  1  0  0  0  0
 15  8  2  0  0  0  0
 16  6  2  0  0  0  0
 16 13  1  0  0  0  0
 17  1  2  0  0  0  0
 17  7  1  0  0  0  0
 18  1  1  0  0  0  0
 19  5  1  0  0  0  0
 20 22  1  0  0  0  0
 21 13  1  0  0  0  0
 21 14  2  0  0  0  0
 22 23  1  0  0  0  0
 23 24  2  0  0  0  0
 23 25  1  0  0  0  0
 26 21  1  0  0  0  0
 27 26  1  0  0  0  0
 28 31  1  6  0  0  0
 28 30  1  0  0  0  0
 28 29  1  0  0  0  0
 30 29  1  0  0  0  0
 30 27  1  1  0  0  0
 32 31  1  0  0  0  0
 33 35  1  0  0  0  0
 34 35  2  0  0  0  0
 35 32  1  0  0  0  0
M  END
>  <MODEL>
3

>  <REMARK>
 VINA RESULT:      -5.8      3.781      7.308
  Name = 
  7 active torsions:
  status: ('A' for Active; 'I' for Inactive)
    1  A    between atoms: C_4  and  N_5
    2  A    between atoms: N_5  and  C_7
    3  A    between atoms: C_7  and  C_20
    4  A    between atoms: N_8  and  C_34
    5  A    between atoms: C_21  and  C_23
    6  A    between atoms: C_21  and  C_30
    7  A    between atoms: C_23  and  C_35
                            x       y       z     vdW  Elec       q    Type
                         _______ _______ _______ _____ _____    ______ ____

>  <TORSDO>
F 7

$$$$
=
 OpenBabel11072411303D

 35 39  0  0  1  0  0  0  0  0999 V2000
  160.9620  206.6580  154.1080 N   0  0  0  0  0  0  0  0  0  0  0  0
  161.6070  204.8850  152.6010 C   0  0  0  0  0  3  0  0  0  0  0  0
  161.0210  207.0790  151.7850 C   0  0  0  0  0  0  0  0  0  0  0  0
  160.3480  210.0640  152.5880 C   0  0  0  0  0  0  0  0  0  0  0  0
  161.9600  210.8480  148.5060 C   0  0  0  0  0  2  0  0  0  0  0  0
  161.5890  208.4930  147.8810 C   0  0  0  0  0  3  0  0  0  0  0  0
  160.3040  208.8710  153.3870 N   0  0  0  0  0  2  0  0  0  0  0  0
  160.3520  212.4140  151.0550 C   0  0  0  0  0  3  0  0  0  0  0  0
  159.3800  211.0500  152.8010 C   0  0  0  0  0  3  0  0  0  0  0  0
  162.3510  211.6290  149.7600 C   0  0  0  0  0  2  0  0  0  0  0  0
  161.3500  210.2860  151.6340 C   0  0  0  0  0  3  0  0  0  0  0  0
  160.9090  207.7320  150.6170 N   0  0  0  0  0  0  0  0  0  0  0  0
  161.2610  206.8830  149.6570 N   0  0  0  0  0  0  0  0  0  0  0  0
  161.4170  205.7880  151.5630 C   0  0  0  0  0  0  0  0  0  0  0  0
  161.3430  211.4490  150.8530 C   0  0  0  0  0  0  0  0  0  0  0  0
  161.3520  207.2390  148.2690 C   0  0  0  0  0  3  0  0  0  0  0  0
  160.7960  207.5510  153.0850 C   0  0  0  0  0  0  0  0  0  0  0  0
  161.3620  205.3630  153.9020 C   0  0  0  0  0  3  0  0  0  0  0  0
  161.8420  209.4760  148.8320 O   0  0  0  0  0  0  0  0  0  0  0  0
  159.3760  212.2310  152.0410 C   0  0  0  0  0  0  0  0  0  0  0  0
  161.5600  205.6780  150.1970 C   0  0  0  0  0  0  0  0  0  0  0  0
  158.3870  213.2530  152.2310 N   0  0  0  0  0  2  0  0  0  0  0  0
  157.4040  213.3120  153.2700 C   0  0  0  0  0  0  0  0  0  0  0  0
  157.3270  212.4140  154.1500 O   0  0  0  0  0  0  0  0  0  0  0  0
  156.4550  214.4530  153.3110 C   0  0  0  0  0  1  0  0  0  0  0  0
  161.9800  204.4640  149.4370 C   0  0  0  0  0  2  0  0  0  0  0  0
  160.8840  203.4180  149.4920 C   0  0  0  0  0  2  0  0  0  0  0  0
  160.2060  202.1460  147.4910 C   0  0  1  0  0  3  0  0  0  0  0  0
  160.1580  201.2020  148.6750 C   0  0  0  0  0  2  0  0  0  0  0  0
  161.2420  202.2530  148.5940 C   0  0  2  0  0  3  0  0  0  0  0  0
  160.7860  201.4610  146.3480 N   0  0  0  0  0  2  0  0  0  0  0  0
  160.4030  202.2140  145.1650 C   0  0  0  0  0  2  0  0  0  0  0  0
  162.3720  203.6820  145.5820 O   0  0  0  0  0  1  0  0  0  0  0  0
  160.3900  204.5700  144.8450 O   0  0  0  0  0  0  0  0  0  0  0  0
  161.0460  203.5530  145.1890 C   0  0  0  0  0  0  0  0  0  0  0  0
  2 18  2  0  0  0  0
  3 17  1  0  0  0  0
  4  9  1  0  0  0  0
  4  7  1  0  0  0  0
  5 19  1  0  0  0  0
  5 10  1  0  0  0  0
  6 16  2  0  0  0  0
  6 19  1  0  0  0  0
  8 20  1  0  0  0  0
 10 15  1  0  0  0  0
 11  4  2  0  0  0  0
 12  3  2  0  0  0  0
 13 21  1  0  0  0  0
 13 12  1  0  0  0  0
 14  3  1  0  0  0  0
 14  2  1  0  0  0  0
 15  8  2  0  0  0  0
 15 11  1  0  0  0  0
 16 13  1  0  0  0  0
 17  7  1  0  0  0  0
 17  1  2  0  0  0  0
 18  1  1  0  0  0  0
 20 22  1  0  0  0  0
 20  9  2  0  0  0  0
 21 14  2  0  0  0  0
 22 23  1  0  0  0  0
 23 25  1  0  0  0  0
 23 24  2  0  0  0  0
 26 27  1  0  0  0  0
 26 21  1  0  0  0  0
 28 31  1  6  0  0  0
 28 30  1  0  0  0  0
 28 29  1  0  0  0  0
 30 29  1  0  0  0  0
 30 27  1  1  0  0  0
 32 35  1  0  0  0  0
 32 31  1  0  0  0  0
 34 35  2  0  0  0  0
 35 33  1  0  0  0  0
M  END
>  <MODEL>
4

>  <REMARK>
 VINA RESULT:      -5.7      2.490      3.884
  Name = 
  7 active torsions:
  status: ('A' for Active; 'I' for Inactive)
    1  A    between atoms: C_4  and  N_5
    2  A    between atoms: N_5  and  C_7
    3  A    between atoms: C_7  and  C_20
    4  A    between atoms: N_8  and  C_34
    5  A    between atoms: C_21  and  C_23
    6  A    between atoms: C_21  and  C_30
    7  A    between atoms: C_23  and  C_35
                            x       y       z     vdW  Elec       q    Type
                         _______ _______ _______ _____ _____    ______ ____

>  <TORSDO>
F 7

$$$$
=
 OpenBabel11072411303D

 35 39  0  0  1  0  0  0  0  0999 V2000
  161.0140  203.9440  153.0670 N   0  0  0  0  0  0  0  0  0  0  0  0
  161.3120  203.2620  150.7700 C   0  0  0  0  0  3  0  0  0  0  0  0
  161.0240  205.5830  151.3670 C   0  0  0  0  0  0  0  0  0  0  0  0
  160.8460  207.6580  153.7470 C   0  0  0  0  0  0  0  0  0  0  0  0
  162.3600  210.4270  150.5970 C   0  0  0  0  0  2  0  0  0  0  0  0
  161.6110  208.8730  148.8370 C   0  0  0  0  0  3  0  0  0  0  0  0
  160.6620  206.2330  153.7610 N   0  0  0  0  0  2  0  0  0  0  0  0
  161.1300  210.4500  153.7620 C   0  0  0  0  0  3  0  0  0  0  0  0
  160.0490  208.4470  154.5830 C   0  0  0  0  0  3  0  0  0  0  0  0
  162.9230  210.3310  152.0140 C   0  0  0  0  0  2  0  0  0  0  0  0
  161.8240  208.2760  152.9550 C   0  0  0  0  0  3  0  0  0  0  0  0
  160.9560  206.7840  150.7700 N   0  0  0  0  0  0  0  0  0  0  0  0
  161.1290  206.5860  149.4670 N   0  0  0  0  0  0  0  0  0  0  0  0
  161.2110  204.6040  150.4280 C   0  0  0  0  0  0  0  0  0  0  0  0
  161.9540  209.6710  152.9450 C   0  0  0  0  0  0  0  0  0  0  0  0
  161.2060  207.6460  148.5010 C   0  0  0  0  0  3  0  0  0  0  0  0
  160.9350  205.2670  152.7290 C   0  0  0  0  0  0  0  0  0  0  0  0
  161.2050  202.9530  152.1380 C   0  0  0  0  0  3  0  0  0  0  0  0
  162.0530  209.1260  150.1310 O   0  0  0  0  0  0  0  0  0  0  0  0
  160.1850  209.8440  154.5990 C   0  0  0  0  0  0  0  0  0  0  0  0
  161.2700  205.2630  149.2190 C   0  0  0  0  0  0  0  0  0  0  0  0
  159.3720  210.6770  155.4370 N   0  0  0  0  0  2  0  0  0  0  0  0
  158.2170  211.4250  155.0400 C   0  0  0  0  0  0  0  0  0  0  0  0
  157.8030  211.4080  153.8510 O   0  0  0  0  0  0  0  0  0  0  0  0
  157.4930  212.2380  156.0510 C   0  0  0  0  0  1  0  0  0  0  0  0
  161.4660  204.6470  147.8730 C   0  0  0  0  0  2  0  0  0  0  0  0
  161.4810  203.1360  147.9970 C   0  0  0  0  0  2  0  0  0  0  0  0
  160.1030  202.3720  146.0990 C   0  0  1  0  0  3  0  0  0  0  0  0
  160.8310  201.1650  146.6560 C   0  0  0  0  0  2  0  0  0  0  0  0
  161.5220  202.5100  146.6190 C   0  0  2  0  0  3  0  0  0  0  0  0
  160.1240  202.3230  144.6470 N   0  0  0  0  0  2  0  0  0  0  0  0
  159.4770  203.5360  144.1750 C   0  0  0  0  0  2  0  0  0  0  0  0
  159.8030  205.8190  145.1170 O   0  0  0  0  0  1  0  0  0  0  0  0
  161.5480  204.7030  144.1340 O   0  0  0  0  0  0  0  0  0  0  0  0
  160.3360  204.7130  144.4680 C   0  0  0  0  0  0  0  0  0  0  0  0
  2 18  2  0  0  0  0
  3 17  1  0  0  0  0
  4  7  1  0  0  0  0
  4  9  1  0  0  0  0
  5 10  1  0  0  0  0
  6 19  1  0  0  0  0
  8 20  1  0  0  0  0
  9 20  2  0  0  0  0
 10 15  1  0  0  0  0
 11  4  2  0  0  0  0
 12  3  2  0  0  0  0
 13 12  1  0  0  0  0
 14  2  1  0  0  0  0
 14  3  1  0  0  0  0
 15 11  1  0  0  0  0
 15  8  2  0  0  0  0
 16  6  2  0  0  0  0
 16 13  1  0  0  0  0
 17  1  2  0  0  0  0
 17  7  1  0  0  0  0
 18  1  1  0  0  0  0
 19  5  1  0  0  0  0
 20 22  1  0  0  0  0
 21 13  1  0  0  0  0
 21 14  2  0  0  0  0
 23 22  1  0  0  0  0
 23 25  1  0  0  0  0
 24 23  2  0  0  0  0
 26 27  1  0  0  0  0
 26 21  1  0  0  0  0
 28 31  1  6  0  0  0
 28 30  1  0  0  0  0
 28 29  1  0  0  0  0
 30 29  1  0  0  0  0
 30 27  1  1  0  0  0
 32 35  1  0  0  0  0
 32 31  1  0  0  0  0
 34 35  2  0  0  0  0
 35 33  1  0  0  0  0
M  END
>  <MODEL>
5

>  <REMARK>
 VINA RESULT:      -5.4      3.371      5.662
  Name = 
  7 active torsions:
  status: ('A' for Active; 'I' for Inactive)
    1  A    between atoms: C_4  and  N_5
    2  A    between atoms: N_5  and  C_7
    3  A    between atoms: C_7  and  C_20
    4  A    between atoms: N_8  and  C_34
    5  A    between atoms: C_21  and  C_23
    6  A    between atoms: C_21  and  C_30
    7  A    between atoms: C_23  and  C_35
                            x       y       z     vdW  Elec       q    Type
                         _______ _______ _______ _____ _____    ______ ____

>  <TORSDO>
F 7

$$$$
=
 OpenBabel11072411303D

 35 39  0  0  1  0  0  0  0  0999 V2000
  161.0190  203.9240  151.9780 N   0  0  0  0  0  0  0  0  0  0  0  0
  161.4710  203.7960  149.6090 C   0  0  0  0  0  3  0  0  0  0  0  0
  161.1650  205.9170  150.7190 C   0  0  0  0  0  0  0  0  0  0  0  0
  160.8410  207.3760  153.5070 C   0  0  0  0  0  0  0  0  0  0  0  0
  162.6010  210.7690  151.2100 C   0  0  0  0  0  2  0  0  0  0  0  0
  161.9610  209.6940  149.0870 C   0  0  0  0  0  3  0  0  0  0  0  0
  160.6430  205.9940  153.1710 N   0  0  0  0  0  2  0  0  0  0  0  0
  161.1510  210.0770  154.2020 C   0  0  0  0  0  3  0  0  0  0  0  0
  159.9950  207.9660  154.4510 C   0  0  0  0  0  3  0  0  0  0  0  0
  163.0620  210.3270  152.5980 C   0  0  0  0  0  2  0  0  0  0  0  0
  161.8780  208.1370  152.9500 C   0  0  0  0  0  3  0  0  0  0  0  0
  161.1510  207.2270  150.4220 N   0  0  0  0  0  0  0  0  0  0  0  0
  161.4140  207.3380  149.1230 N   0  0  0  0  0  0  0  0  0  0  0  0
  161.4080  205.1830  149.5900 C   0  0  0  0  0  0  0  0  0  0  0  0
  162.0230  209.4920  153.2800 C   0  0  0  0  0  0  0  0  0  0  0  0
  161.5690  208.5930  148.4430 C   0  0  0  0  0  3  0  0  0  0  0  0
  160.9780  205.2920  151.9590 C   0  0  0  0  0  0  0  0  0  0  0  0
  161.2650  203.1760  150.8550 C   0  0  0  0  0  3  0  0  0  0  0  0
  162.3140  209.6240  150.4300 O   0  0  0  0  0  0  0  0  0  0  0  0
  160.1440  209.3170  154.8070 C   0  0  0  0  0  0  0  0  0  0  0  0
  161.5580  206.1060  148.5770 C   0  0  0  0  0  0  0  0  0  0  0  0
  159.2820  209.9490  155.7640 N   0  0  0  0  0  2  0  0  0  0  0  0
  158.2840  210.9410  155.4940 C   0  0  0  0  0  0  0  0  0  0  0  0
  158.0760  211.3590  154.3250 O   0  0  0  0  0  0  0  0  0  0  0  0
  157.4790  211.4870  156.6170 C   0  0  0  0  0  1  0  0  0  0  0  0
  161.8420  205.8200  147.1400 C   0  0  0  0  0  2  0  0  0  0  0  0
  160.5420  205.5790  146.3980 C   0  0  0  0  0  2  0  0  0  0  0  0
  161.1780  203.2180  146.0760 C   0  0  1  0  0  3  0  0  0  0  0  0
  162.1910  204.0710  145.3430 C   0  0  0  0  0  2  0  0  0  0  0  0
  160.7370  204.4850  145.3690 C   0  0  2  0  0  3  0  0  0  0  0  0
  160.8340  202.0650  145.2610 N   0  0  0  0  0  2  0  0  0  0  0  0
  160.1400  201.1260  146.1280 C   0  0  0  0  0  2  0  0  0  0  0  0
  161.5340  200.5720  148.1170 O   0  0  0  0  0  1  0  0  0  0  0  0
  161.5860  199.2420  146.2500 O   0  0  0  0  0  0  0  0  0  0  0  0
  161.1260  200.2610  146.8260 C   0  0  0  0  0  0  0  0  0  0  0  0
  2 18  2  0  0  0  0
  3 17  1  0  0  0  0
  4  9  1  0  0  0  0
  5 10  1  0  0  0  0
  6 19  1  0  0  0  0
  7  4  1  0  0  0  0
  8 20  1  0  0  0  0
  9 20  2  0  0  0  0
 10 15  1  0  0  0  0
 11 15  1  0  0  0  0
 11  4  2  0  0  0  0
 12  3  2  0  0  0  0
 13 12  1  0  0  0  0
 14  2  1  0  0  0  0
 14  3  1  0  0  0  0
 15  8  2  0  0  0  0
 16  6  2  0  0  0  0
 16 13  1  0  0  0  0
 17  1  2  0  0  0  0
 17  7  1  0  0  0  0
 18  1  1  0  0  0  0
 19  5  1  0  0  0  0
 20 22  1  0  0  0  0
 21 13  1  0  0  0  0
 21 14  2  0  0  0  0
 23 22  1  0  0  0  0
 23 25  1  0  0  0  0
 24 23  2  0  0  0  0
 26 21  1  0  0  0  0
 27 26  1  0  0  0  0
 28 31  1  6  0  0  0
 29 30  1  0  0  0  0
 29 28  1  0  0  0  0
 30 28  1  0  0  0  0
 30 27  1  1  0  0  0
 31 32  1  0  0  0  0
 32 35  1  0  0  0  0
 34 35  2  0  0  0  0
 35 33  1  0  0  0  0
M  END
>  <MODEL>
6

>  <REMARK>
 VINA RESULT:      -5.4      3.466      6.091
  Name = 
  7 active torsions:
  status: ('A' for Active; 'I' for Inactive)
    1  A    between atoms: C_4  and  N_5
    2  A    between atoms: N_5  and  C_7
    3  A    between atoms: C_7  and  C_20
    4  A    between atoms: N_8  and  C_34
    5  A    between atoms: C_21  and  C_23
    6  A    between atoms: C_21  and  C_30
    7  A    between atoms: C_23  and  C_35
                            x       y       z     vdW  Elec       q    Type
                         _______ _______ _______ _____ _____    ______ ____

>  <TORSDO>
F 7

$$$$
=
 OpenBabel11072411303D

 35 39  0  0  1  0  0  0  0  0999 V2000
  160.2460  205.9350  154.8330 N   0  0  0  0  0  0  0  0  0  0  0  0
  160.8110  208.2460  155.2450 C   0  0  0  0  0  3  0  0  0  0  0  0
  161.2290  207.2100  153.1060 C   0  0  0  0  0  0  0  0  0  0  0  0
  160.7670  204.6400  151.3210 C   0  0  0  0  0  0  0  0  0  0  0  0
  161.2060  207.6270  148.0390 C   0  0  0  0  0  2  0  0  0  0  0  0
  162.3310  209.1880  149.5790 C   0  0  0  0  0  3  0  0  0  0  0  0
  160.6750  204.7910  152.7460 N   0  0  0  0  0  2  0  0  0  0  0  0
  160.9980  204.2750  148.5480 C   0  0  0  0  0  3  0  0  0  0  0  0
  161.2720  203.4430  150.8030 C   0  0  0  0  0  3  0  0  0  0  0  0
  160.1000  206.5760  148.1160 C   0  0  0  0  0  2  0  0  0  0  0  0
  160.3310  205.6360  150.4360 C   0  0  0  0  0  3  0  0  0  0  0  0
  161.7480  207.5260  151.9080 N   0  0  0  0  0  0  0  0  0  0  0  0
  162.0980  208.8080  151.9570 N   0  0  0  0  0  0  0  0  0  0  0  0
  161.2790  208.2950  153.9380 C   0  0  0  0  0  0  0  0  0  0  0  0
  160.4640  205.4650  149.0510 C   0  0  0  0  0  0  0  0  0  0  0  0
  162.6160  209.5390  150.8350 C   0  0  0  0  0  3  0  0  0  0  0  0
  160.6890  205.9920  153.5400 C   0  0  0  0  0  0  0  0  0  0  0  0
  160.2860  207.0140  155.6770 C   0  0  0  0  0  3  0  0  0  0  0  0
  161.4450  208.1440  149.3350 O   0  0  0  0  0  0  0  0  0  0  0  0
  161.3890  203.2500  149.4170 C   0  0  0  0  0  0  0  0  0  0  0  0
  161.8430  209.3060  153.1900 C   0  0  0  0  0  0  0  0  0  0  0  0
  161.9150  202.0370  148.8610 N   0  0  0  0  0  2  0  0  0  0  0  0
  161.2310  201.1240  147.9940 C   0  0  0  0  0  0  0  0  0  0  0  0
  160.0420  201.3300  147.6330 O   0  0  0  0  0  0  0  0  0  0  0  0
  161.9370  199.9100  147.5120 C   0  0  0  0  0  1  0  0  0  0  0  0
  162.1170  210.7040  153.6370 C   0  0  0  0  0  2  0  0  0  0  0  0
  160.8080  211.4380  153.8580 C   0  0  0  0  0  2  0  0  0  0  0  0
  159.2020  212.8290  152.6070 C   0  0  1  0  0  3  0  0  0  0  0  0
  158.5920  211.4520  152.7670 C   0  0  0  0  0  2  0  0  0  0  0  0
  160.0800  211.5940  152.5400 C   0  0  2  0  0  3  0  0  0  0  0  0
  158.9520  213.3180  151.2620 N   0  0  0  0  0  2  0  0  0  0  0  0
  157.6030  213.8600  151.2530 C   0  0  0  0  0  2  0  0  0  0  0  0
  155.6100  213.7540  149.7620 O   0  0  0  0  0  1  0  0  0  0  0  0
  157.7160  213.4100  148.9210 O   0  0  0  0  0  0  0  0  0  0  0  0
  156.9880  213.6590  149.9150 C   0  0  0  0  0  0  0  0  0  0  0  0
  1 18  1  0  0  0  0
  2 18  2  0  0  0  0
  3 17  1  0  0  0  0
  3 14  1  0  0  0  0
  4  7  1  0  0  0  0
  5 10  1  0  0  0  0
  5 19  1  0  0  0  0
  6 16  2  0  0  0  0
  7 17  1  0  0  0  0
  8 15  2  0  0  0  0
  8 20  1  0  0  0  0
  9  4  1  0  0  0  0
 10 15  1  0  0  0  0
 11  4  2  0  0  0  0
 12 13  1  0  0  0  0
 12  3  2  0  0  0  0
 13 21  1  0  0  0  0
 14  2  1  0  0  0  0
 15 11  1  0  0  0  0
 16 13  1  0  0  0  0
 17  1  2  0  0  0  0
 19  6  1  0  0  0  0
 20  9  2  0  0  0  0
 21 26  1  0  0  0  0
 21 14  2  0  0  0  0
 22 20  1  0  0  0  0
 23 22  1  0  0  0  0
 24 23  2  0  0  0  0
 25 23  1  0  0  0  0
 26 27  1  0  0  0  0
 28 31  1  6  0  0  0
 28 29  1  0  0  0  0
 30 28  1  0  0  0  0
 30 29  1  0  0  0  0
 30 27  1  1  0  0  0
 32 31  1  0  0  0  0
 33 35  1  0  0  0  0
 34 35  2  0  0  0  0
 35 32  1  0  0  0  0
M  END
>  <MODEL>
7

>  <REMARK>
 VINA RESULT:      -5.4      2.121      7.830
  Name = 
  7 active torsions:
  status: ('A' for Active; 'I' for Inactive)
    1  A    between atoms: C_4  and  N_5
    2  A    between atoms: N_5  and  C_7
    3  A    between atoms: C_7  and  C_20
    4  A    between atoms: N_8  and  C_34
    5  A    between atoms: C_21  and  C_23
    6  A    between atoms: C_21  and  C_30
    7  A    between atoms: C_23  and  C_35
                            x       y       z     vdW  Elec       q    Type
                         _______ _______ _______ _____ _____    ______ ____

>  <TORSDO>
F 7

$$$$
=
 OpenBabel11072411303D

 35 39  0  0  1  0  0  0  0  0999 V2000
  162.0050  209.8740  149.6240 N   0  0  0  0  0  0  0  0  0  0  0  0
  161.3910  207.7190  148.7230 C   0  0  0  0  0  3  0  0  0  0  0  0
  161.7670  208.0340  151.0860 C   0  0  0  0  0  0  0  0  0  0  0  0
  162.2790  210.1470  153.3830 C   0  0  0  0  0  0  0  0  0  0  0  0
  160.3560  206.9690  155.8520 C   0  0  0  0  0  2  0  0  0  0  0  0
  160.8510  205.2900  154.1180 C   0  0  0  0  0  3  0  0  0  0  0  0
  162.4570  210.2790  151.9640 N   0  0  0  0  0  2  0  0  0  0  0  0
  162.0100  209.9190  156.1680 C   0  0  0  0  0  3  0  0  0  0  0  0
  163.1860  210.7820  154.2370 C   0  0  0  0  0  3  0  0  0  0  0  0
  159.9930  208.4520  155.9070 C   0  0  0  0  0  2  0  0  0  0  0  0
  161.2040  209.4370  153.9370 C   0  0  0  0  0  3  0  0  0  0  0  0
  161.7570  207.3160  152.2200 N   0  0  0  0  0  0  0  0  0  0  0  0
  161.4060  206.0750  151.8970 N   0  0  0  0  0  0  0  0  0  0  0  0
  161.4490  207.2330  150.0220 C   0  0  0  0  0  0  0  0  0  0  0  0
  161.0790  209.3040  155.3260 C   0  0  0  0  0  0  0  0  0  0  0  0
  161.2000  205.0270  152.8570 C   0  0  0  0  0  3  0  0  0  0  0  0
  162.0410  209.3970  150.9050 C   0  0  0  0  0  0  0  0  0  0  0  0
  161.6840  209.0840  148.5500 C   0  0  0  0  0  3  0  0  0  0  0  0
  160.5920  206.6000  154.5060 O   0  0  0  0  0  0  0  0  0  0  0  0
  163.0590  210.6750  155.6320 C   0  0  0  0  0  0  0  0  0  0  0  0
  161.2270  205.9830  150.5580 C   0  0  0  0  0  0  0  0  0  0  0  0
  163.9830  211.3070  156.5290 N   0  0  0  0  0  2  0  0  0  0  0  0
  165.2610  211.8610  156.1940 C   0  0  0  0  0  0  0  0  0  0  0  0
  165.6970  211.8330  155.0130 O   0  0  0  0  0  0  0  0  0  0  0  0
  166.0880  212.4800  157.2600 C   0  0  0  0  0  1  0  0  0  0  0  0
  160.8460  204.7460  149.8150 C   0  0  0  0  0  2  0  0  0  0  0  0
  161.8810  204.4470  148.7490 C   0  0  0  0  0  2  0  0  0  0  0  0
  161.7800  203.3180  146.5590 C   0  0  1  0  0  3  0  0  0  0  0  0
  162.2780  204.7290  146.3260 C   0  0  0  0  0  2  0  0  0  0  0  0
  161.2290  204.4660  147.3830 C   0  0  2  0  0  3  0  0  0  0  0  0
  160.8240  202.9650  145.5220 N   0  0  0  0  0  2  0  0  0  0  0  0
  160.6260  201.5270  145.6030 C   0  0  0  0  0  2  0  0  0  0  0  0
  159.9230  201.6440  147.9900 O   0  0  0  0  0  1  0  0  0  0  0  0
  161.5640  200.1870  147.3270 O   0  0  0  0  0  0  0  0  0  0  0  0
  160.7370  201.0810  147.0160 C   0  0  0  0  0  0  0  0  0  0  0  0
  1 17  2  0  0  0  0
  2 14  1  0  0  0  0
  3 12  2  0  0  0  0
  4 11  2  0  0  0  0
  4  9  1  0  0  0  0
  5 10  1  0  0  0  0
  6 19  1  0  0  0  0
  7  4  1  0  0  0  0
  9 20  2  0  0  0  0
 11 15  1  0  0  0  0
 13 12  1  0  0  0  0
 13 16  1  0  0  0  0
 14 21  2  0  0  0  0
 14  3  1  0  0  0  0
 15 10  1  0  0  0  0
 15  8  2  0  0  0  0
 16  6  2  0  0  0  0
 17  3  1  0  0  0  0
 17  7  1  0  0  0  0
 18  2  2  0  0  0  0
 18  1  1  0  0  0  0
 19  5  1  0  0  0  0
 20  8  1  0  0  0  0
 20 22  1  0  0  0  0
 21 13  1  0  0  0  0
 23 22  1  0  0  0  0
 23 25  1  0  0  0  0
 24 23  2  0  0  0  0
 26 21  1  0  0  0  0
 27 26  1  0  0  0  0
 28 31  1  6  0  0  0
 28 30  1  0  0  0  0
 29 28  1  0  0  0  0
 29 30  1  0  0  0  0
 30 27  1  1  0  0  0
 31 32  1  0  0  0  0
 32 35  1  0  0  0  0
 35 34  2  0  0  0  0
 35 33  1  0  0  0  0
M  END
>  <MODEL>
8

>  <REMARK>
 VINA RESULT:      -5.3      3.926      6.692
  Name = 
  7 active torsions:
  status: ('A' for Active; 'I' for Inactive)
    1  A    between atoms: C_4  and  N_5
    2  A    between atoms: N_5  and  C_7
    3  A    between atoms: C_7  and  C_20
    4  A    between atoms: N_8  and  C_34
    5  A    between atoms: C_21  and  C_23
    6  A    between atoms: C_21  and  C_30
    7  A    between atoms: C_23  and  C_35
                            x       y       z     vdW  Elec       q    Type
                         _______ _______ _______ _____ _____    ______ ____

>  <TORSDO>
F 7

$$$$
=
 OpenBabel11072411303D

 35 39  0  0  1  0  0  0  0  0999 V2000
  160.2170  205.9000  154.8390 N   0  0  0  0  0  0  0  0  0  0  0  0
  160.7770  208.2120  155.2540 C   0  0  0  0  0  3  0  0  0  0  0  0
  161.2060  207.1770  153.1160 C   0  0  0  0  0  0  0  0  0  0  0  0
  160.7550  204.6060  151.3300 C   0  0  0  0  0  0  0  0  0  0  0  0
  161.2040  207.5930  148.0500 C   0  0  0  0  0  2  0  0  0  0  0  0
  162.3210  209.1560  149.5940 C   0  0  0  0  0  3  0  0  0  0  0  0
  160.6560  204.7570  152.7550 N   0  0  0  0  0  2  0  0  0  0  0  0
  160.9990  204.2410  148.5580 C   0  0  0  0  0  3  0  0  0  0  0  0
  161.2640  203.4090  150.8150 C   0  0  0  0  0  3  0  0  0  0  0  0
  160.0990  206.5410  148.1220 C   0  0  0  0  0  2  0  0  0  0  0  0
  160.3210  205.6010  150.4430 C   0  0  0  0  0  3  0  0  0  0  0  0
  161.7300  207.4930  151.9210 N   0  0  0  0  0  0  0  0  0  0  0  0
  162.0780  208.7760  151.9720 N   0  0  0  0  0  0  0  0  0  0  0  0
  161.2510  208.2620  153.9490 C   0  0  0  0  0  0  0  0  0  0  0  0
  160.4610  205.4300  149.0590 C   0  0  0  0  0  0  0  0  0  0  0  0
  162.5990  209.5070  150.8510 C   0  0  0  0  0  3  0  0  0  0  0  0
  160.6650  205.9580  153.5480 C   0  0  0  0  0  0  0  0  0  0  0  0
  160.2520  206.9800  155.6840 C   0  0  0  0  0  3  0  0  0  0  0  0
  161.4370  208.1110  149.3460 O   0  0  0  0  0  0  0  0  0  0  0  0
  161.3870  203.2170  149.4290 C   0  0  0  0  0  0  0  0  0  0  0  0
  161.8160  209.2740  153.2030 C   0  0  0  0  0  0  0  0  0  0  0  0
  161.9170  202.0040  148.8750 N   0  0  0  0  0  2  0  0  0  0  0  0
  161.2470  201.1040  147.9850 C   0  0  0  0  0  0  0  0  0  0  0  0
  160.0690  201.3220  147.5970 O   0  0  0  0  0  0  0  0  0  0  0  0
  161.9560  199.8890  147.5090 C   0  0  0  0  0  1  0  0  0  0  0  0
  162.0870  210.6720  153.6510 C   0  0  0  0  0  2  0  0  0  0  0  0
  160.8300  211.5090  153.5070 C   0  0  0  0  0  2  0  0  0  0  0  0
  158.6730  211.5400  154.7020 C   0  0  1  0  0  3  0  0  0  0  0  0
  159.2950  212.9150  154.8380 C   0  0  0  0  0  2  0  0  0  0  0  0
  160.1750  211.6840  154.8600 C   0  0  2  0  0  3  0  0  0  0  0  0
  158.0890  211.1440  155.9720 N   0  0  0  0  0  2  0  0  0  0  0  0
  156.8930  211.9480  156.1570 C   0  0  0  0  0  2  0  0  0  0  0  0
  155.3850  210.3330  155.0070 O   0  0  0  0  0  1  0  0  0  0  0  0
  155.5120  212.5130  154.3060 O   0  0  0  0  0  0  0  0  0  0  0  0
  155.8970  211.6210  155.1040 C   0  0  0  0  0  0  0  0  0  0  0  0
  1 18  1  0  0  0  0
  2 18  2  0  0  0  0
  3 17  1  0  0  0  0
  3 14  1  0  0  0  0
  4  7  1  0  0  0  0
  5 10  1  0  0  0  0
  5 19  1  0  0  0  0
  6 16  2  0  0  0  0
  7 17  1  0  0  0  0
  8 15  2  0  0  0  0
  8 20  1  0  0  0  0
  9  4  1  0  0  0  0
 10 15  1  0  0  0  0
 11  4  2  0  0  0  0
 12 13  1  0  0  0  0
 12  3  2  0  0  0  0
 13 21  1  0  0  0  0
 14  2  1  0  0  0  0
 15 11  1  0  0  0  0
 16 13  1  0  0  0  0
 17  1  2  0  0  0  0
 19  6  1  0  0  0  0
 20  9  2  0  0  0  0
 21 26  1  0  0  0  0
 21 14  2  0  0  0  0
 22 20  1  0  0  0  0
 23 22  1  0  0  0  0
 24 23  2  0  0  0  0
 25 23  1  0  0  0  0
 27 26  1  0  0  0  0
 28 29  1  0  0  0  0
 28 30  1  0  0  0  0
 28 31  1  1  0  0  0
 29 30  1  0  0  0  0
 30 27  1  6  0  0  0
 31 32  1  0  0  0  0
 33 35  1  0  0  0  0
 34 35  2  0  0  0  0
 35 32  1  0  0  0  0
M  END
>  <MODEL>
9

>  <REMARK>
 VINA RESULT:      -5.2      3.455      8.130
  Name = 
  7 active torsions:
  status: ('A' for Active; 'I' for Inactive)
    1  A    between atoms: C_4  and  N_5
    2  A    between atoms: N_5  and  C_7
    3  A    between atoms: C_7  and  C_20
    4  A    between atoms: N_8  and  C_34
    5  A    between atoms: C_21  and  C_23
    6  A    between atoms: C_21  and  C_30
    7  A    between atoms: C_23  and  C_35
                            x       y       z     vdW  Elec       q    Type
                         _______ _______ _______ _____ _____    ______ ____

>  <TORSDO>
F 7

$$$$
