=
 OpenBabel11072410333D

 54 60  0  0  1  0  0  0  0  0999 V2000
  159.1420  211.2970  153.5850 C   0  0  2  0  0  3  0  0  0  0  0  0
  158.3910  208.2480  155.4900 O   0  0  0  0  0  0  0  0  0  0  0  0
  160.7770  203.8620  150.3400 C   0  0  1  0  0  3  0  0  0  0  0  0
  161.3540  210.0470  153.9140 C   0  0  1  0  0  3  0  0  0  0  0  0
  160.3150  210.8080  154.4380 C   0  0  2  0  0  0  0  0  0  0  0  0
  159.6070  208.1800  155.1760 C   0  0  0  0  0  0  0  0  0  0  0  0
  161.1070  206.3220  154.2600 C   0  0  2  0  0  3  0  0  0  0  0  0
  161.1810  203.4460  146.0900 C   0  0  0  0  0  3  0  0  0  0  0  0
  161.3030  204.8200  148.0660 C   0  0  0  0  0  3  0  0  0  0  0  0
  160.6410  202.5360  148.2300 N   0  0  0  0  0  0  0  0  0  0  0  0
  161.8780  205.8080  145.8740 N   0  0  0  0  0  0  0  0  0  0  0  0
  159.3680  212.7330  153.1320 C   0  0  0  0  0  2  0  0  0  0  0  0
  161.6890  208.3210  148.4880 C   0  0  2  0  0  3  0  0  0  0  0  0
  160.8730  203.7340  148.8380 C   0  0  0  0  0  0  0  0  0  0  0  0
  163.0480  206.9590  152.8450 C   0  0  0  0  0  3  0  0  0  0  0  0
  161.9650  205.6990  144.4270 C   0  0  0  0  0  1  0  0  0  0  0  0
  158.4540  213.9630  148.9720 C   0  0  2  0  0  3  0  0  0  0  0  0
  161.0970  211.8410  147.9390 C   0  0  1  0  0  3  0  0  0  0  0  0
  160.9770  210.4900  147.6120 O   0  0  0  0  0  0  0  0  0  0  0  0
  161.1830  205.5250  151.9310 C   0  0  2  0  0  3  0  0  0  0  0  0
  162.4540  206.9570  154.0480 C   0  0  0  0  0  3  0  0  0  0  0  0
  159.7970  213.8690  148.2350 C   0  0  0  0  0  2  0  0  0  0  0  0
  160.2580  209.3350  154.6520 N   0  0  0  0  0  0  0  0  0  0  0  0
  160.2890  206.1800  152.9760 C   0  0  0  0  0  2  0  0  0  0  0  0
  161.4440  204.6900  146.6780 C   0  0  0  0  0  0  0  0  0  0  0  0
  161.4580  209.8130  148.7410 C   0  0  2  0  0  3  0  0  0  0  0  0
  158.4570  213.0780  151.9670 C   0  0  0  0  0  2  0  0  0  0  0  0
  162.8550  209.2900  148.4670 C   0  0  0  0  0  2  0  0  0  0  0  0
  160.6820  211.6770  155.9920 S   0  0  0  0  0  1  0  0  0  0  0  0
  162.3660  206.4370  151.6020 C   0  0  0  0  0  2  0  0  0  0  0  0
  161.2300  209.7480  152.4260 C   0  0  0  0  0  1  0  0  0  0  0  0
  157.9540  211.2100  154.3130 O   0  0  0  0  0  1  0  0  0  0  0  0
  160.4250  205.2220  150.7290 N   0  0  0  0  0  2  0  0  0  0  0  0
  161.1840  212.6050  146.7610 O   0  0  0  0  0  0  0  0  0  0  0  0
  158.0730  212.6900  149.5870 N   0  0  0  0  0  2  0  0  0  0  0  0
  160.3500  206.9100  155.4490 C   0  0  0  0  0  2  0  0  0  0  0  0
  161.3150  207.8720  147.0750 C   0  0  0  0  0  2  0  0  0  0  0  0
  158.9670  212.4130  150.7020 C   0  0  0  0  0  2  0  0  0  0  0  0
  162.4240  207.0140  146.4840 C   0  0  0  0  0  2  0  0  0  0  0  0
  160.7780  202.3740  146.8880 C   0  0  0  0  0  3  0  0  0  0  0  0
  159.9390  212.5970  147.4160 C   0  0  1  0  0  3  0  0  0  0  0  0
  156.0830  214.1670  148.6010 O   0  0  0  0  0  1  0  0  0  0  0  0
  157.3330  214.4530  148.0500 C   0  0  2  0  0  3  0  0  0  0  0  0
  156.9860  214.4040  145.6540 N   0  0  0  0  0  2  0  0  0  0  0  0
  157.4390  213.8150  146.6990 C   0  0  0  0  0  3  0  0  0  0  0  0
  159.7630  202.8900  150.9310 C   0  0  0  0  0  2  0  0  0  0  0  0
  160.4170  202.0740  152.0340 C   0  0  0  0  0  2  0  0  0  0  0  0
  161.2270  200.9360  151.4350 C   0  0  2  0  0  3  0  0  0  0  0  0
  163.0540  202.4000  152.2570 C   0  0  0  0  0  2  0  0  0  0  0  0
  163.5480  200.9720  152.3250 C   0  0  0  0  0  2  0  0  0  0  0  0
  162.6520  201.4080  151.1810 C   0  0  0  0  0  3  0  0  0  0  0  0
  161.2640  200.2670  149.1270 O   0  0  0  0  0  0  0  0  0  0  0  0
  159.2030  200.2850  150.1270 O   0  0  0  0  0  1  0  0  0  0  0  0
  160.5810  200.4530  150.1700 C   0  0  0  0  0  0  0  0  0  0  0  0
  1 32  1  1  0  0  0
  1  5  1  0  0  0  0
  3 33  1  0  0  0  0
  3 46  1  6  0  0  0
  4 31  1  6  0  0  0
  4  5  1  0  0  0  0
  4 23  1  0  0  0  0
  5 23  1  0  0  0  0
  5 29  1  1  0  0  0
  6 36  1  0  0  0  0
  6  2  2  0  0  0  0
  7 24  1  6  0  0  0
  7 36  1  0  0  0  0
  8 25  2  0  0  0  0
  8 40  1  0  0  0  0
  9 14  2  0  0  0  0
 10 14  1  0  0  0  0
 11 39  1  0  0  0  0
 11 25  1  0  0  0  0
 12  1  1  0  0  0  0
 13 37  1  6  0  0  0
 13 26  1  0  0  0  0
 14  3  1  0  0  0  0
 15 21  2  0  0  0  0
 16 11  1  0  0  0  0
 17 43  1  6  0  0  0
 17 35  1  0  0  0  0
 18 34  1  6  0  0  0
 19 18  1  0  0  0  0
 19 26  1  0  0  0  0
 20 30  1  6  0  0  0
 20 24  1  0  0  0  0
 21  7  1  0  0  0  0
 22 17  1  0  0  0  0
 23  6  1  0  0  0  0
 25  9  1  0  0  0  0
 26 28  1  6  0  0  0
 27 12  1  0  0  0  0
 28 13  1  0  0  0  0
 30 15  1  0  0  0  0
 33 20  1  0  0  0  0
 34 41  1  0  0  0  0
 35 38  1  0  0  0  0
 38 27  1  0  0  0  0
 39 37  1  0  0  0  0
 40 10  2  0  0  0  0
 41 18  1  0  0  0  0
 41 22  1  1  0  0  0
 43 42  1  1  0  0  0
 44 45  2  0  0  0  0
 45 43  1  0  0  0  0
 46 47  1  0  0  0  0
 48 47  1  6  0  0  0
 49 50  1  0  0  0  0
 51 48  1  0  0  0  0
 51 49  1  0  0  0  0
 51 50  1  0  0  0  0
 52 54  2  0  0  0  0
 53 54  1  0  0  0  0
 54 48  1  0  0  0  0
M  END
>  <MODEL>
1

>  <REMARK>
 VINA RESULT:       7.1      0.000      0.000
  Name = 
  7 active torsions:
  status: ('A' for Active; 'I' for Inactive)
    1  A    between atoms: C_3  and  C_51
    2  A    between atoms: C_10  and  C_29
    3  A    between atoms: C_20  and  C_49
    4  A    between atoms: C_23  and  C_29
    5  A    between atoms: C_33  and  C_49
    6  A    between atoms: C_38  and  C_49
    7  A    between atoms: C_38  and  C_51
                            x       y       z     vdW  Elec       q    Type
                         _______ _______ _______ _____ _____    ______ ____

>  <TORSDO>
F 7

$$$$
