=
 OpenBabel11072413373D

 43 49  0  0  1  0  0  0  0  0999 V2000
  161.1350  209.0570  151.5810 N   0  0  0  0  0  0  0  0  0  0  0  0
  161.8170  207.4530  147.7300 C   0  0  0  0  0  3  0  0  0  0  0  0
  161.6770  206.0860  147.5000 C   0  0  0  0  0  0  0  0  0  0  0  0
  161.5370  207.1000  150.1190 C   0  0  0  0  0  0  0  0  0  0  0  0
  161.6330  211.3390  150.7380 C   0  0  0  0  0  3  0  0  0  0  0  0
  161.5540  209.9510  150.5280 C   0  0  0  0  0  0  0  0  0  0  0  0
  161.4290  205.7140  149.8900 C   0  0  0  0  0  0  0  0  0  0  0  0
  161.2390  204.7510  151.0140 C   0  0  0  0  0  1  0  0  0  0  0  0
  161.8800  209.4260  149.2630 C   0  0  0  0  0  0  0  0  0  0  0  0
  162.3940  211.6630  148.4680 C   0  0  0  0  0  0  0  0  0  0  0  0
  162.0530  212.1890  149.7160 C   0  0  0  0  0  3  0  0  0  0  0  0
  161.7530  207.9720  149.0310 C   0  0  0  0  0  0  0  0  0  0  0  0
  162.3040  210.2890  148.2400 C   0  0  0  0  0  3  0  0  0  0  0  0
  161.5090  207.6410  151.5280 C   0  0  0  0  0  2  0  0  0  0  0  0
  161.5010  205.2150  148.5870 C   0  0  0  0  0  3  0  0  0  0  0  0
  162.8280  212.5060  147.4540 O   0  0  0  0  0  1  0  0  0  0  0  0
  162.6350  210.8230  155.8320 C   0  0  0  0  0  1  0  0  0  0  0  0
  159.9120  211.8000  157.2610 O   0  0  0  0  0  1  0  0  0  0  0  0
  161.5740  209.5260  154.0160 C   0  0  2  0  0  3  0  0  0  0  0  0
  158.8810  213.2950  155.6740 C   0  0  2  0  0  3  0  0  0  0  0  0
  160.4500  211.6430  154.9220 C   0  0  2  0  0  3  0  0  0  0  0  0
  158.1920  212.4150  154.6390 C   0  0  0  0  0  2  0  0  0  0  0  0
  160.1500  212.5550  156.1040 C   0  0  2  0  0  3  0  0  0  0  0  0
  159.0950  211.2120  154.4370 C   0  0  1  0  0  3  0  0  0  0  0  0
  160.4550  208.4910  153.9050 C   0  0  0  0  0  2  0  0  0  0  0  0
  159.1950  210.7560  152.6910 S   0  0  0  0  0  0  0  0  0  0  0  0
  161.2970  210.4110  155.2380 C   0  0  2  0  0  3  0  0  0  0  0  0
  160.5860  209.5590  152.8410 C   0  0  2  0  0  0  0  0  0  0  0  0
  157.9960  213.5490  156.7600 O   0  0  0  0  0  0  0  0  0  0  0  0
  155.7760  213.9710  156.3750 O   0  0  0  0  0  0  0  0  0  0  0  0
  156.6540  213.1570  156.7590 C   0  0  0  0  0  0  0  0  0  0  0  0
  155.4650  211.1990  156.1760 O   0  0  0  0  0  1  0  0  0  0  0  0
  156.2400  211.7840  157.1790 C   0  0  0  0  0  2  0  0  0  0  0  0
  162.2450  204.1410  146.0940 C   0  0  2  0  0  3  0  0  0  0  0  0
  163.5290  204.0600  145.5530 O   0  0  0  0  0  1  0  0  0  0  0  0
  161.2620  203.4780  145.1790 C   0  0  2  0  0  3  0  0  0  0  0  0
  160.5090  205.6470  145.4000 N   0  0  0  0  0  2  0  0  0  0  0  0
  160.0790  204.3270  145.1520 N   0  0  0  0  0  2  0  0  0  0  0  0
  161.7900  205.5740  146.1000 C   0  0  1  0  0  3  0  0  0  0  0  0
  160.9330  202.0570  145.6470 C   0  0  2  0  0  3  0  0  0  0  0  0
  159.7510  201.4880  144.8780 C   0  0  0  0  0  1  0  0  0  0  0  0
  161.2740  200.7150  147.6270 O   0  0  0  0  0  1  0  0  0  0  0  0
  160.7390  201.9150  147.1600 C   0  0  0  0  0  2  0  0  0  0  0  0
  1 28  1  0  0  0  0
  2 12  1  0  0  0  0
  3  2  2  0  0  0  0
  3 15  1  0  0  0  0
  4 14  1  0  0  0  0
  6  5  1  0  0  0  0
  6  1  1  0  0  0  0
  7  4  1  0  0  0  0
  7  8  1  0  0  0  0
  9  6  2  0  0  0  0
 10 11  1  0  0  0  0
 11  5  2  0  0  0  0
 12  9  1  0  0  0  0
 12  4  2  0  0  0  0
 13 10  2  0  0  0  0
 13  9  1  0  0  0  0
 14  1  1  0  0  0  0
 15  7  2  0  0  0  0
 16 10  1  0  0  0  0
 19 25  1  1  0  0  0
 19 27  1  0  0  0  0
 20 23  1  0  0  0  0
 20 29  1  1  0  0  0
 21 27  1  0  0  0  0
 21 23  1  0  0  0  0
 22 20  1  0  0  0  0
 23 18  1  0  0  0  0
 24 22  1  0  0  0  0
 24 21  1  0  0  0  0
 26 28  1  0  0  0  0
 26 24  1  0  0  0  0
 27 17  1  0  0  0  0
 28 25  1  0  0  0  0
 28 19  1  0  0  0  0
 30 31  2  0  0  0  0
 31 29  1  0  0  0  0
 31 33  1  0  0  0  0
 32 33  1  0  0  0  0
 34 39  1  0  0  0  0
 35 34  1  0  0  0  0
 36 40  1  0  0  0  0
 36 34  1  0  0  0  0
 37 39  1  0  0  0  0
 38 36  1  0  0  0  0
 38 37  1  0  0  0  0
 39  3  1  0  0  0  0
 40 43  1  0  0  0  0
 41 40  1  0  0  0  0
 43 42  1  0  0  0  0
M  END
>  <MODEL>
1

>  <REMARK>
 VINA RESULT:      -7.9      0.000      0.000
  Name = 
  7 active torsions:
  status: ('A' for Active; 'I' for Inactive)
    1  A    between atoms: N_1  and  C_41
    2  A    between atoms: C_5  and  C_17
    3  A    between atoms: C_5  and  C_35
    4  A    between atoms: C_6  and  C_42
    5  A    between atoms: C_13  and  O_27
    6  A    between atoms: C_26  and  O_27
    7  A    between atoms: C_26  and  C_34
                            x       y       z     vdW  Elec       q    Type
                         _______ _______ _______ _____ _____    ______ ____

>  <TORSDO>
F 7

$$$$
=
 OpenBabel11072413373D

 43 49  0  0  1  0  0  0  0  0999 V2000
  161.3890  208.0470  151.8270 N   0  0  0  0  0  0  0  0  0  0  0  0
  159.5850  211.4420  153.5840 C   0  0  0  0  0  3  0  0  0  0  0  0
  159.4150  212.6130  152.8470 C   0  0  0  0  0  0  0  0  0  0  0  0
  160.8970  210.4730  151.7820 C   0  0  0  0  0  0  0  0  0  0  0  0
  161.1040  206.7790  153.9430 C   0  0  0  0  0  3  0  0  0  0  0  0
  160.9950  207.9760  153.2140 C   0  0  0  0  0  0  0  0  0  0  0  0
  160.7540  211.6690  151.0500 C   0  0  0  0  0  0  0  0  0  0  0  0
  161.3760  211.8380  149.7040 C   0  0  0  0  0  1  0  0  0  0  0  0
  160.4810  209.1230  153.8470 C   0  0  0  0  0  0  0  0  0  0  0  0
  160.2400  207.8740  155.9150 C   0  0  0  0  0  0  0  0  0  0  0  0
  160.7310  206.7280  155.2860 C   0  0  0  0  0  3  0  0  0  0  0  0
  160.3250  210.3690  153.0670 C   0  0  0  0  0  0  0  0  0  0  0  0
  160.1100  209.0650  155.2000 C   0  0  0  0  0  3  0  0  0  0  0  0
  161.7320  209.3420  151.2320 C   0  0  0  0  0  2  0  0  0  0  0  0
  160.0180  212.7290  151.5850 C   0  0  0  0  0  3  0  0  0  0  0  0
  159.8840  207.8300  157.2570 O   0  0  0  0  0  1  0  0  0  0  0  0
  160.7770  203.2480  152.0030 C   0  0  0  0  0  1  0  0  0  0  0  0
  161.9120  202.2250  149.1620 O   0  0  0  0  0  1  0  0  0  0  0  0
  161.6760  205.5460  151.8780 C   0  0  2  0  0  3  0  0  0  0  0  0
  160.6960  203.4980  147.5130 C   0  0  2  0  0  3  0  0  0  0  0  0
  160.9190  204.3350  149.7510 C   0  0  2  0  0  3  0  0  0  0  0  0
  161.3620  204.8660  147.4500 C   0  0  0  0  0  2  0  0  0  0  0  0
  160.7840  203.0350  148.9690 C   0  0  2  0  0  3  0  0  0  0  0  0
  161.7700  205.2050  148.8700 C   0  0  1  0  0  3  0  0  0  0  0  0
  163.0150  206.1900  151.5200 C   0  0  0  0  0  2  0  0  0  0  0  0
  161.4480  206.9430  149.2470 S   0  0  0  0  0  0  0  0  0  0  0  0
  161.5650  204.2110  151.1300 C   0  0  2  0  0  3  0  0  0  0  0  0
  161.7290  206.8470  151.0640 C   0  0  2  0  0  0  0  0  0  0  0  0
  161.3380  202.6040  146.6100 O   0  0  0  0  0  0  0  0  0  0  0  0
  159.8690  202.1690  144.9050 O   0  0  0  0  0  0  0  0  0  0  0  0
  160.6370  201.7140  145.7900 C   0  0  0  0  0  0  0  0  0  0  0  0
  161.5160  199.9410  147.0830 O   0  0  0  0  0  1  0  0  0  0  0  0
  160.7980  200.2350  145.9230 C   0  0  0  0  0  2  0  0  0  0  0  0
  157.1830  213.4190  153.5170 C   0  0  2  0  0  3  0  0  0  0  0  0
  156.4830  214.2500  152.6410 O   0  0  0  0  0  1  0  0  0  0  0  0
  156.8250  213.7500  154.9330 C   0  0  2  0  0  3  0  0  0  0  0  0
  159.1100  214.0310  154.8120 N   0  0  0  0  0  2  0  0  0  0  0  0
  158.0620  213.7070  155.6990 N   0  0  0  0  0  2  0  0  0  0  0  0
  158.6500  213.7440  153.4550 C   0  0  1  0  0  3  0  0  0  0  0  0
  155.7780  212.7760  155.4860 C   0  0  2  0  0  3  0  0  0  0  0  0
  155.3780  213.1510  156.9040 C   0  0  0  0  0  1  0  0  0  0  0  0
  155.2260  210.5740  154.6590 O   0  0  0  0  0  1  0  0  0  0  0  0
  156.1710  211.2980  155.3860 C   0  0  0  0  0  2  0  0  0  0  0  0
  1  6  1  0  0  0  0
  3 39  1  0  0  0  0
  3  2  2  0  0  0  0
  4 12  2  0  0  0  0
  5 11  1  0  0  0  0
  6  9  1  0  0  0  0
  6  5  2  0  0  0  0
  7 15  2  0  0  0  0
  7  4  1  0  0  0  0
  8  7  1  0  0  0  0
  9 13  2  0  0  0  0
 10 16  1  0  0  0  0
 11 10  2  0  0  0  0
 12  2  1  0  0  0  0
 12  9  1  0  0  0  0
 13 10  1  0  0  0  0
 14  4  1  0  0  0  0
 14  1  1  0  0  0  0
 15  3  1  0  0  0  0
 19 25  1  6  0  0  0
 20 29  1  6  0  0  0
 20 23  1  0  0  0  0
 21 27  1  0  0  0  0
 22 20  1  0  0  0  0
 22 24  1  0  0  0  0
 23 18  1  0  0  0  0
 23 21  1  0  0  0  0
 24 26  1  0  0  0  0
 24 21  1  0  0  0  0
 26 28  1  0  0  0  0
 27 19  1  0  0  0  0
 27 17  1  0  0  0  0
 28 25  1  0  0  0  0
 28  1  1  0  0  0  0
 28 19  1  0  0  0  0
 30 31  2  0  0  0  0
 31 33  1  0  0  0  0
 31 29  1  0  0  0  0
 33 32  1  0  0  0  0
 34 36  1  0  0  0  0
 35 34  1  0  0  0  0
 36 40  1  0  0  0  0
 36 38  1  0  0  0  0
 37 38  1  0  0  0  0
 39 34  1  0  0  0  0
 39 37  1  0  0  0  0
 40 41  1  0  0  0  0
 42 43  1  0  0  0  0
 43 40  1  0  0  0  0
M  END
>  <MODEL>
2

>  <REMARK>
 VINA RESULT:      -7.6      2.882     10.750
  Name = 
  7 active torsions:
  status: ('A' for Active; 'I' for Inactive)
    1  A    between atoms: N_1  and  C_41
    2  A    between atoms: C_5  and  C_17
    3  A    between atoms: C_5  and  C_35
    4  A    between atoms: C_6  and  C_42
    5  A    between atoms: C_13  and  O_27
    6  A    between atoms: C_26  and  O_27
    7  A    between atoms: C_26  and  C_34
                            x       y       z     vdW  Elec       q    Type
                         _______ _______ _______ _____ _____    ______ ____

>  <TORSDO>
F 7

$$$$
=
 OpenBabel11072413373D

 43 49  0  0  1  0  0  0  0  0999 V2000
  161.2590  208.7580  151.8360 N   0  0  0  0  0  0  0  0  0  0  0  0
  159.3900  211.7640  154.1460 C   0  0  0  0  0  3  0  0  0  0  0  0
  159.1090  213.0100  153.5890 C   0  0  0  0  0  0  0  0  0  0  0  0
  160.6330  211.1320  152.1560 C   0  0  0  0  0  0  0  0  0  0  0  0
  161.1820  207.2000  153.7690 C   0  0  0  0  0  3  0  0  0  0  0  0
  160.9600  208.4760  153.2200 C   0  0  0  0  0  0  0  0  0  0  0  0
  160.3770  212.4040  151.6060 C   0  0  0  0  0  0  0  0  0  0  0  0
  160.9000  212.7920  150.2620 C   0  0  0  0  0  1  0  0  0  0  0  0
  160.4260  209.4920  154.0340 C   0  0  0  0  0  0  0  0  0  0  0  0
  160.3890  207.9620  155.9200 C   0  0  0  0  0  0  0  0  0  0  0  0
  160.9010  206.9460  155.1110 C   0  0  0  0  0  3  0  0  0  0  0  0
  160.1520  210.8190  153.4450 C   0  0  0  0  0  0  0  0  0  0  0  0
  160.1480  209.2290  155.3850 C   0  0  0  0  0  3  0  0  0  0  0  0
  161.4910  210.1400  151.4080 C   0  0  0  0  0  2  0  0  0  0  0  0
  159.6210  213.3340  152.3230 C   0  0  0  0  0  3  0  0  0  0  0  0
  160.1250  207.7150  157.2610 O   0  0  0  0  0  1  0  0  0  0  0  0
  160.4950  204.0300  151.1280 C   0  0  0  0  0  1  0  0  0  0  0  0
  161.7870  203.4700  148.2260 O   0  0  0  0  0  1  0  0  0  0  0  0
  161.4680  206.2760  151.4640 C   0  0  2  0  0  3  0  0  0  0  0  0
  160.7230  205.0590  146.7550 C   0  0  2  0  0  3  0  0  0  0  0  0
  160.8200  205.4840  149.1150 C   0  0  2  0  0  3  0  0  0  0  0  0
  161.4320  206.3880  146.9740 C   0  0  0  0  0  2  0  0  0  0  0  0
  160.6990  204.3460  148.1110 C   0  0  2  0  0  3  0  0  0  0  0  0
  161.7530  206.4590  148.4550 C   0  0  1  0  0  3  0  0  0  0  0  0
  162.8460  206.9180  151.3070 C   0  0  0  0  0  2  0  0  0  0  0  0
  161.4570  208.1170  149.1110 S   0  0  0  0  0  0  0  0  0  0  0  0
  161.3680  205.0970  150.4870 C   0  0  2  0  0  3  0  0  0  0  0  0
  161.6140  207.6960  150.8960 C   0  0  2  0  0  0  0  0  0  0  0  0
  161.3970  204.3090  145.7510 O   0  0  0  0  0  0  0  0  0  0  0  0
  160.8790  204.1730  143.5220 O   0  0  0  0  0  0  0  0  0  0  0  0
  160.7350  203.7030  144.6790 C   0  0  0  0  0  0  0  0  0  0  0  0
  160.6810  201.3960  145.1940 O   0  0  0  0  0  1  0  0  0  0  0  0
  159.8800  202.4920  144.8700 C   0  0  0  0  0  2  0  0  0  0  0  0
  157.0310  213.3920  154.8620 C   0  0  2  0  0  3  0  0  0  0  0  0
  155.9610  214.0170  154.2210 O   0  0  0  0  0  1  0  0  0  0  0  0
  157.0170  213.7230  156.3230 C   0  0  2  0  0  3  0  0  0  0  0  0
  159.0710  214.4470  155.5650 N   0  0  0  0  0  2  0  0  0  0  0  0
  158.3980  213.9710  156.7090 N   0  0  0  0  0  2  0  0  0  0  0  0
  158.3240  213.9990  154.3910 C   0  0  1  0  0  3  0  0  0  0  0  0
  156.3880  212.5930  157.1450 C   0  0  2  0  0  3  0  0  0  0  0  0
  156.8960  211.2360  156.6870 C   0  0  0  0  0  1  0  0  0  0  0  0
  154.3750  213.9230  157.0190 O   0  0  0  0  0  1  0  0  0  0  0  0
  154.8570  212.6280  157.2050 C   0  0  0  0  0  2  0  0  0  0  0  0
  1  6  1  0  0  0  0
  3  2  1  0  0  0  0
  3 39  1  0  0  0  0
  4 12  1  0  0  0  0
  5 11  1  0  0  0  0
  6  5  2  0  0  0  0
  6  9  1  0  0  0  0
  7  4  2  0  0  0  0
  7 15  1  0  0  0  0
  8  7  1  0  0  0  0
  9 13  2  0  0  0  0
 10 16  1  0  0  0  0
 11 10  2  0  0  0  0
 12  9  1  0  0  0  0
 12  2  2  0  0  0  0
 13 10  1  0  0  0  0
 14  1  1  0  0  0  0
 14  4  1  0  0  0  0
 15  3  2  0  0  0  0
 19 25  1  1  0  0  0
 20 29  1  6  0  0  0
 20 22  1  0  0  0  0
 20 23  1  0  0  0  0
 21 27  1  0  0  0  0
 22 24  1  0  0  0  0
 23 18  1  0  0  0  0
 23 21  1  0  0  0  0
 24 26  1  0  0  0  0
 24 21  1  0  0  0  0
 26 28  1  0  0  0  0
 27 17  1  0  0  0  0
 27 19  1  0  0  0  0
 28 25  1  0  0  0  0
 28 19  1  0  0  0  0
 28  1  1  0  0  0  0
 30 31  2  0  0  0  0
 31 33  1  0  0  0  0
 31 29  1  0  0  0  0
 33 32  1  0  0  0  0
 34 36  1  0  0  0  0
 35 34  1  0  0  0  0
 36 38  1  0  0  0  0
 36 40  1  0  0  0  0
 37 38  1  0  0  0  0
 39 34  1  0  0  0  0
 39 37  1  0  0  0  0
 40 43  1  0  0  0  0
 41 40  1  0  0  0  0
 42 43  1  0  0  0  0
M  END
>  <MODEL>
3

>  <REMARK>
 VINA RESULT:      -6.0      2.827     11.006
  Name = 
  7 active torsions:
  status: ('A' for Active; 'I' for Inactive)
    1  A    between atoms: N_1  and  C_41
    2  A    between atoms: C_5  and  C_17
    3  A    between atoms: C_5  and  C_35
    4  A    between atoms: C_6  and  C_42
    5  A    between atoms: C_13  and  O_27
    6  A    between atoms: C_26  and  O_27
    7  A    between atoms: C_26  and  C_34
                            x       y       z     vdW  Elec       q    Type
                         _______ _______ _______ _____ _____    ______ ____

>  <TORSDO>
F 7

$$$$
=
 OpenBabel11072413373D

 43 49  0  0  1  0  0  0  0  0999 V2000
  160.5160  213.3570  147.3190 N   0  0  0  0  0  0  0  0  0  0  0  0
  159.7550  213.4310  143.1620 C   0  0  0  0  0  3  0  0  0  0  0  0
  160.7930  213.2420  142.2500 C   0  0  0  0  0  0  0  0  0  0  0  0
  161.3510  213.5100  144.9930 C   0  0  0  0  0  0  0  0  0  0  0  0
  158.1090  213.7520  147.7840 C   0  0  0  0  0  3  0  0  0  0  0  0
  159.1700  213.6240  146.8700 C   0  0  0  0  0  0  0  0  0  0  0  0
  162.4030  213.3520  144.0680 C   0  0  0  0  0  0  0  0  0  0  0  0
  163.8290  213.3210  144.5080 C   0  0  0  0  0  1  0  0  0  0  0  0
  158.9110  213.7500  145.4930 C   0  0  0  0  0  0  0  0  0  0  0  0
  156.5670  214.1660  145.9710 C   0  0  0  0  0  0  0  0  0  0  0  0
  156.8160  214.0240  147.3380 C   0  0  0  0  0  3  0  0  0  0  0  0
  160.0190  213.5710  144.5320 C   0  0  0  0  0  0  0  0  0  0  0  0
  157.6080  214.0250  145.0520 C   0  0  0  0  0  3  0  0  0  0  0  0
  161.6520  213.7020  146.4600 C   0  0  0  0  0  2  0  0  0  0  0  0
  162.1190  213.2210  142.7070 C   0  0  0  0  0  3  0  0  0  0  0  0
  155.2830  214.4530  145.5260 O   0  0  0  0  0  1  0  0  0  0  0  0
  158.4060  213.4370  151.6750 C   0  0  0  0  0  1  0  0  0  0  0  0
  160.4910  211.8610  153.5670 O   0  0  0  0  0  1  0  0  0  0  0  0
  159.9110  213.7190  149.7370 C   0  0  2  0  0  3  0  0  0  0  0  0
  160.8380  209.7380  152.4750 C   0  0  2  0  0  3  0  0  0  0  0  0
  160.0760  211.6290  151.2090 C   0  0  2  0  0  3  0  0  0  0  0  0
  161.8290  209.9920  151.3480 C   0  0  0  0  0  2  0  0  0  0  0  0
  159.9740  210.9970  152.5910 C   0  0  2  0  0  3  0  0  0  0  0  0
  161.4920  211.3590  150.7860 C   0  0  1  0  0  3  0  0  0  0  0  0
  161.3540  214.1710  149.5140 C   0  0  0  0  0  2  0  0  0  0  0  0
  161.5950  211.3690  148.9810 S   0  0  0  0  0  0  0  0  0  0  0  0
  159.7990  213.1300  151.1490 C   0  0  2  0  0  3  0  0  0  0  0  0
  160.8070  213.0110  148.7100 C   0  0  2  0  0  0  0  0  0  0  0  0
  161.5370  209.4370  153.6780 O   0  0  0  0  0  0  0  0  0  0  0  0
  161.4900  208.2910  155.6620 O   0  0  0  0  0  0  0  0  0  0  0  0
  161.3140  208.2710  154.4180 C   0  0  0  0  0  0  0  0  0  0  0  0
  161.9390  206.3310  153.2210 O   0  0  0  0  0  1  0  0  0  0  0  0
  160.8490  207.0090  153.7680 C   0  0  0  0  0  2  0  0  0  0  0  0
  161.6680  212.6900  140.0120 C   0  0  2  0  0  3  0  0  0  0  0  0
  162.1030  213.7300  139.1900 O   0  0  0  0  0  1  0  0  0  0  0  0
  161.1300  211.5680  139.1770 C   0  0  2  0  0  3  0  0  0  0  0  0
  159.3880  212.1770  140.5590 N   0  0  0  0  0  2  0  0  0  0  0  0
  159.9300  211.0880  139.8460 N   0  0  0  0  0  2  0  0  0  0  0  0
  160.4650  213.1360  140.7950 C   0  0  1  0  0  3  0  0  0  0  0  0
  162.1690  210.4560  139.0000 C   0  0  2  0  0  3  0  0  0  0  0  0
  162.2120  209.9720  137.5600 C   0  0  0  0  0  1  0  0  0  0  0  0
  161.3400  208.2210  139.3930 O   0  0  0  0  0  1  0  0  0  0  0  0
  162.0210  209.2870  139.9800 C   0  0  0  0  0  2  0  0  0  0  0  0
  1 28  1  0  0  0  0
  2 12  1  0  0  0  0
  3 15  1  0  0  0  0
  3  2  2  0  0  0  0
  4 14  1  0  0  0  0
  6  1  1  0  0  0  0
  6  5  2  0  0  0  0
  7  8  1  0  0  0  0
  7  4  1  0  0  0  0
  9  6  1  0  0  0  0
 10 11  2  0  0  0  0
 11  5  1  0  0  0  0
 12  4  2  0  0  0  0
 12  9  1  0  0  0  0
 13  9  2  0  0  0  0
 13 10  1  0  0  0  0
 14  1  1  0  0  0  0
 15  7  2  0  0  0  0
 16 10  1  0  0  0  0
 19 25  1  1  0  0  0
 19 27  1  0  0  0  0
 20 23  1  0  0  0  0
 20 29  1  1  0  0  0
 21 23  1  0  0  0  0
 22 20  1  0  0  0  0
 23 18  1  0  0  0  0
 24 21  1  0  0  0  0
 24 22  1  0  0  0  0
 26 24  1  0  0  0  0
 27 21  1  0  0  0  0
 27 17  1  0  0  0  0
 28 26  1  0  0  0  0
 28 25  1  0  0  0  0
 28 19  1  0  0  0  0
 29 31  1  0  0  0  0
 31 30  2  0  0  0  0
 32 33  1  0  0  0  0
 33 31  1  0  0  0  0
 34 39  1  0  0  0  0
 35 34  1  0  0  0  0
 36 38  1  0  0  0  0
 36 34  1  0  0  0  0
 37 39  1  0  0  0  0
 38 37  1  0  0  0  0
 39  3  1  0  0  0  0
 40 36  1  0  0  0  0
 40 43  1  0  0  0  0
 41 40  1  0  0  0  0
 42 43  1  0  0  0  0
M  END
>  <MODEL>
4

>  <REMARK>
 VINA RESULT:      -5.3      5.626      7.834
  Name = 
  7 active torsions:
  status: ('A' for Active; 'I' for Inactive)
    1  A    between atoms: N_1  and  C_41
    2  A    between atoms: C_5  and  C_17
    3  A    between atoms: C_5  and  C_35
    4  A    between atoms: C_6  and  C_42
    5  A    between atoms: C_13  and  O_27
    6  A    between atoms: C_26  and  O_27
    7  A    between atoms: C_26  and  C_34
                            x       y       z     vdW  Elec       q    Type
                         _______ _______ _______ _____ _____    ______ ____

>  <TORSDO>
F 7

$$$$
