=
 OpenBabel11072409583D

 48 52  0  0  1  0  0  0  0  0999 V2000
  161.6220  211.9410  149.7770 C   0  0  1  0  0  3  0  0  0  0  0  0
  160.8270  212.4230  150.9790 C   0  0  0  0  0  2  0  0  0  0  0  0
  160.9590  209.9010  151.0120 C   0  0  1  0  0  3  0  0  0  0  0  0
  160.0310  211.1280  153.1940 C   0  0  2  0  0  3  0  0  0  0  0  0
  160.5090  211.1610  151.7410 C   0  0  1  0  0  0  0  0  0  0  0  0
  161.4970  210.4220  149.6830 C   0  0  0  0  0  2  0  0  0  0  0  0
  159.0280  211.0990  152.0550 C   0  0  0  0  0  2  0  0  0  0  0  0
  159.4060  213.4490  147.1010 O   0  0  0  0  0  0  0  0  0  0  0  0
  159.8230  213.1890  148.4430 C   0  0  0  0  0  2  0  0  0  0  0  0
  163.5030  212.4240  147.5190 C   0  0  0  0  0  1  0  0  0  0  0  0
  160.3030  213.8360  146.0980 C   0  0  0  0  0  0  0  0  0  0  0  0
  161.6270  213.6360  146.2890 C   0  0  0  0  0  0  0  0  0  0  0  0
  161.2190  212.6310  148.4970 C   0  0  0  0  0  0  0  0  0  0  0  0
  162.0760  212.8810  147.4790 C   0  0  0  0  0  0  0  0  0  0  0  0
  158.5410  213.9610  144.3460 C   0  0  0  0  0  1  0  0  0  0  0  0
  159.7740  214.3830  144.9220 O   0  0  0  0  0  0  0  0  0  0  0  0
  162.5960  214.1230  145.3990 O   0  0  0  0  0  0  0  0  0  0  0  0
  163.2100  213.2940  144.4220 C   0  0  0  0  0  2  0  0  0  0  0  0
  162.7930  213.8840  142.7500 S   0  0  0  0  0  1  0  0  0  0  0  0
  161.6970  207.0790  153.2080 C   0  0  0  0  0  2  0  0  0  0  0  0
  162.0690  209.1370  151.7650 C   0  0  2  0  0  3  0  0  0  0  0  0
  162.7190  208.1580  150.9580 O   0  0  0  0  0  0  0  0  0  0  0  0
  161.6090  208.5940  153.1310 C   0  0  0  0  0  2  0  0  0  0  0  0
  161.1260  206.4940  151.9360 C   0  0  1  0  0  3  0  0  0  0  0  0
  161.9150  207.0010  150.7180 C   0  0  1  0  0  3  0  0  0  0  0  0
  161.1900  205.1020  151.9930 O   0  0  0  0  0  1  0  0  0  0  0  0
  161.0390  207.1260  149.4610 C   0  0  2  0  0  3  0  0  0  0  0  0
  160.1640  206.0330  149.3650 O   0  0  0  0  0  1  0  0  0  0  0  0
  161.4300  206.6460  147.1570 O   0  0  0  0  0  0  0  0  0  0  0  0
  163.0640  207.8850  148.1730 O   0  0  0  0  0  1  0  0  0  0  0  0
  161.8470  207.2140  148.2010 C   0  0  0  0  0  0  0  0  0  0  0  0
  160.0520  212.5070  153.8540 C   0  0  2  0  0  3  0  0  0  0  0  0
  160.4840  212.3780  155.2380 N   0  0  0  0  0  2  0  0  0  0  0  0
  161.0920  211.0600  155.3870 C   0  0  0  0  0  2  0  0  0  0  0  0
  161.5820  209.4750  157.2250 C   0  0  0  0  0  2  0  0  0  0  0  0
  159.4920  209.3600  156.1750 C   0  0  0  0  0  0  0  0  0  0  0  0
  160.5060  210.3450  156.5870 C   0  0  2  0  0  3  0  0  0  0  0  0
  158.4420  209.6540  155.6180 O   0  0  0  0  0  0  0  0  0  0  0  0
  162.1010  207.3070  156.4800 C   0  0  0  0  0  1  0  0  0  0  0  0
  159.8540  207.9800  156.5490 C   0  0  0  0  0  2  0  0  0  0  0  0
  161.1360  208.0690  157.2490 N   0  0  0  0  0  0  0  0  0  0  0  0
  158.6760  213.1760  153.8070 C   0  0  2  0  0  3  0  0  0  0  0  0
  158.7410  214.4530  153.2380 O   0  0  0  0  0  0  0  0  0  0  0  0
  157.8210  214.4270  152.1860 C   0  0  0  0  0  1  0  0  0  0  0  0
  158.5320  213.9610  156.0670 O   0  0  0  0  0  0  0  0  0  0  0  0
  158.0420  213.2290  155.1620 C   0  0  0  0  0  0  0  0  0  0  0  0
  156.8480  212.4170  155.4210 C   0  0  0  0  0  3  0  0  0  0  0  0
  155.7450  212.5270  154.6870 C   0  0  0  0  0  2  0  0  0  0  0  0
  1 13  1  6  0  0  0
  1  2  1  0  0  0  0
  3  6  1  6  0  0  0
  3  5  1  0  0  0  0
  3 21  1  0  0  0  0
  4 32  1  1  0  0  0
  5  2  1  6  0  0  0
  5  7  1  0  0  0  0
  5  4  1  0  0  0  0
  6  1  1  0  0  0  0
  7  4  1  0  0  0  0
  8  9  1  0  0  0  0
  9 13  1  0  0  0  0
 11 12  2  0  0  0  0
 11  8  1  0  0  0  0
 12 14  1  0  0  0  0
 14 10  1  0  0  0  0
 14 13  2  0  0  0  0
 15 16  1  0  0  0  0
 16 11  1  0  0  0  0
 17 12  1  0  0  0  0
 18 17  1  0  0  0  0
 19 18  1  0  0  0  0
 21 23  1  1  0  0  0
 22 21  1  0  0  0  0
 23 20  1  0  0  0  0
 24 26  1  1  0  0  0
 24 20  1  0  0  0  0
 25 27  1  6  0  0  0
 25 22  1  0  0  0  0
 25 24  1  0  0  0  0
 27 28  1  6  0  0  0
 29 31  2  0  0  0  0
 30 31  1  0  0  0  0
 31 27  1  0  0  0  0
 32 33  1  1  0  0  0
 33 34  1  0  0  0  0
 35 41  1  0  0  0  0
 36 40  1  0  0  0  0
 36 37  1  0  0  0  0
 37 34  1  6  0  0  0
 37 35  1  0  0  0  0
 38 36  2  0  0  0  0
 39 41  1  0  0  0  0
 40 41  1  0  0  0  0
 42 43  1  1  0  0  0
 42 32  1  0  0  0  0
 42 46  1  0  0  0  0
 44 43  1  0  0  0  0
 46 47  1  0  0  0  0
 46 45  2  0  0  0  0
 48 47  2  0  0  0  0
M  END
>  <MODEL>
1

>  <REMARK>
 VINA RESULT:      -3.9      0.000      0.000
  Name = 
  15 active torsions:
  status: ('A' for Active; 'I' for Inactive)
    1  A    between atoms: O_1  and  C_45
    2  A    between atoms: O_4  and  C_10
    3  A    between atoms: O_4  and  C_40
    4  A    between atoms: C_6  and  C_42
    5  A    between atoms: C_12  and  C_14
    6  A    between atoms: C_18  and  C_41
    7  A    between atoms: N_19  and  C_41
    8  A    between atoms: N_19  and  C_48
    9  A    between atoms: C_21  and  C_36
   10  A    between atoms: C_23  and  C_48
   11  A    between atoms: O_28  and  C_39
   12  A    between atoms: C_36  and  C_45
   13  A    between atoms: C_37  and  C_38
   14  A    between atoms: C_37  and  C_46
   15  A    between atoms: C_41  and  C_45
                            x       y       z     vdW  Elec       q    Type
                         _______ _______ _______ _____ _____    ______ ____

>  <TORSDO>
F 15

$$$$
=
 OpenBabel11072409583D

 48 52  0  0  1  0  0  0  0  0999 V2000
  162.0150  210.6940  150.8480 C   0  0  1  0  0  3  0  0  0  0  0  0
  161.2370  211.0360  152.1070 C   0  0  0  0  0  2  0  0  0  0  0  0
  161.0060  208.5700  151.6180 C   0  0  1  0  0  3  0  0  0  0  0  0
  160.1530  209.4550  153.9880 C   0  0  2  0  0  3  0  0  0  0  0  0
  160.7040  209.7090  152.5840 C   0  0  1  0  0  0  0  0  0  0  0  0
  161.6790  209.2630  150.4370 C   0  0  0  0  0  2  0  0  0  0  0  0
  159.2150  209.8080  152.8480 C   0  0  0  0  0  2  0  0  0  0  0  0
  162.5380  212.5800  147.6040 O   0  0  0  0  0  0  0  0  0  0  0  0
  162.4950  211.4180  148.4350 C   0  0  0  0  0  2  0  0  0  0  0  0
  160.0740  212.9440  151.0400 C   0  0  0  0  0  1  0  0  0  0  0  0
  161.5190  213.5410  147.6030 C   0  0  0  0  0  0  0  0  0  0  0  0
  160.6440  213.5690  148.6340 C   0  0  0  0  0  0  0  0  0  0  0  0
  161.7800  211.6830  149.7310 C   0  0  0  0  0  0  0  0  0  0  0  0
  160.8770  212.6890  149.8010 C   0  0  0  0  0  0  0  0  0  0  0  0
  162.2660  214.3180  145.3620 C   0  0  0  0  0  1  0  0  0  0  0  0
  161.4800  214.4530  146.5420 O   0  0  0  0  0  0  0  0  0  0  0  0
  159.5150  214.4030  148.6390 O   0  0  0  0  0  0  0  0  0  0  0  0
  158.3960  214.1650  147.7950 C   0  0  0  0  0  2  0  0  0  0  0  0
  157.1150  213.2400  148.7000 S   0  0  0  0  0  1  0  0  0  0  0  0
  161.2880  205.1370  152.8300 C   0  0  0  0  0  2  0  0  0  0  0  0
  161.9550  207.5110  152.2180 C   0  0  2  0  0  3  0  0  0  0  0  0
  162.6890  206.7950  151.2280 O   0  0  0  0  0  0  0  0  0  0  0  0
  161.2670  206.5970  153.2490 C   0  0  0  0  0  2  0  0  0  0  0  0
  160.9040  205.0460  151.3710 C   0  0  1  0  0  3  0  0  0  0  0  0
  161.8920  205.8500  150.5100 C   0  0  1  0  0  3  0  0  0  0  0  0
  160.9080  203.7100  150.9700 O   0  0  0  0  0  1  0  0  0  0  0  0
  161.2290  206.4490  149.2590 C   0  0  2  0  0  3  0  0  0  0  0  0
  159.8380  206.2680  149.3100 O   0  0  0  0  0  1  0  0  0  0  0  0
  162.3830  206.5780  147.1740 O   0  0  0  0  0  0  0  0  0  0  0  0
  161.5230  204.5170  147.6730 O   0  0  0  0  0  1  0  0  0  0  0  0
  161.7510  205.8520  147.9860 C   0  0  0  0  0  0  0  0  0  0  0  0
  160.3370  210.6520  154.9200 C   0  0  2  0  0  3  0  0  0  0  0  0
  160.5440  211.8570  154.1310 N   0  0  0  0  0  2  0  0  0  0  0  0
  159.5000  212.8080  154.5000 C   0  0  0  0  0  2  0  0  0  0  0  0
  157.3520  212.2820  155.6130 C   0  0  0  0  0  2  0  0  0  0  0  0
  158.9730  213.4720  156.8130 C   0  0  0  0  0  0  0  0  0  0  0  0
  158.8590  212.4000  155.8100 C   0  0  2  0  0  3  0  0  0  0  0  0
  160.0390  213.8770  157.2610 O   0  0  0  0  0  0  0  0  0  0  0  0
  155.8860  214.1150  155.7330 C   0  0  0  0  0  1  0  0  0  0  0  0
  157.6620  213.9760  157.2610 C   0  0  0  0  0  2  0  0  0  0  0  0
  156.6560  213.1910  156.5430 N   0  0  0  0  0  0  0  0  0  0  0  0
  161.5230  210.4530  155.8690 C   0  0  2  0  0  3  0  0  0  0  0  0
  162.7460  210.5920  155.2040 O   0  0  0  0  0  0  0  0  0  0  0  0
  163.6150  211.1320  156.1550 C   0  0  0  0  0  1  0  0  0  0  0  0
  162.4990  208.5770  156.9960 O   0  0  0  0  0  0  0  0  0  0  0  0
  161.4470  209.1360  156.5770 C   0  0  0  0  0  0  0  0  0  0  0  0
  160.1360  208.5080  156.7730 C   0  0  0  0  0  3  0  0  0  0  0  0
  159.9840  207.1880  156.8180 C   0  0  0  0  0  2  0  0  0  0  0  0
  1 13  1  6  0  0  0
  1  2  1  0  0  0  0
  3  6  1  6  0  0  0
  3 21  1  0  0  0  0
  3  5  1  0  0  0  0
  4 32  1  1  0  0  0
  5  2  1  6  0  0  0
  5  7  1  0  0  0  0
  5  4  1  0  0  0  0
  6  1  1  0  0  0  0
  7  4  1  0  0  0  0
  8  9  1  0  0  0  0
  9 13  1  0  0  0  0
 11  8  1  0  0  0  0
 11 12  2  0  0  0  0
 12 17  1  0  0  0  0
 12 14  1  0  0  0  0
 13 14  2  0  0  0  0
 14 10  1  0  0  0  0
 15 16  1  0  0  0  0
 16 11  1  0  0  0  0
 18 17  1  0  0  0  0
 18 19  1  0  0  0  0
 20 23  1  0  0  0  0
 21 23  1  6  0  0  0
 22 21  1  0  0  0  0
 24 26  1  6  0  0  0
 24 20  1  0  0  0  0
 25 27  1  6  0  0  0
 25 22  1  0  0  0  0
 25 24  1  0  0  0  0
 27 28  1  1  0  0  0
 29 31  2  0  0  0  0
 30 31  1  0  0  0  0
 31 27  1  0  0  0  0
 32 33  1  6  0  0  0
 32 42  1  0  0  0  0
 33 34  1  0  0  0  0
 35 37  1  0  0  0  0
 35 41  1  0  0  0  0
 36 38  2  0  0  0  0
 36 40  1  0  0  0  0
 37 34  1  6  0  0  0
 37 36  1  0  0  0  0
 39 41  1  0  0  0  0
 41 40  1  0  0  0  0
 42 43  1  6  0  0  0
 42 46  1  0  0  0  0
 43 44  1  0  0  0  0
 46 47  1  0  0  0  0
 46 45  2  0  0  0  0
 47 48  2  0  0  0  0
M  END
>  <MODEL>
2

>  <REMARK>
 VINA RESULT:      -3.8      2.169      4.078
  Name = 
  15 active torsions:
  status: ('A' for Active; 'I' for Inactive)
    1  A    between atoms: O_1  and  C_45
    2  A    between atoms: O_4  and  C_10
    3  A    between atoms: O_4  and  C_40
    4  A    between atoms: C_6  and  C_42
    5  A    between atoms: C_12  and  C_14
    6  A    between atoms: C_18  and  C_41
    7  A    between atoms: N_19  and  C_41
    8  A    between atoms: N_19  and  C_48
    9  A    between atoms: C_21  and  C_36
   10  A    between atoms: C_23  and  C_48
   11  A    between atoms: O_28  and  C_39
   12  A    between atoms: C_36  and  C_45
   13  A    between atoms: C_37  and  C_38
   14  A    between atoms: C_37  and  C_46
   15  A    between atoms: C_41  and  C_45
                            x       y       z     vdW  Elec       q    Type
                         _______ _______ _______ _____ _____    ______ ____

>  <TORSDO>
F 15

$$$$
=
 OpenBabel11072409583D

 48 52  0  0  1  0  0  0  0  0999 V2000
  161.7710  211.4720  150.5930 C   0  0  1  0  0  3  0  0  0  0  0  0
  160.8230  212.0440  151.6330 C   0  0  0  0  0  2  0  0  0  0  0  0
  160.7150  209.5220  151.6920 C   0  0  1  0  0  3  0  0  0  0  0  0
  159.5310  210.8660  153.6720 C   0  0  2  0  0  3  0  0  0  0  0  0
  160.2600  210.8300  152.3270 C   0  0  1  0  0  0  0  0  0  0  0  0
  161.5250  209.9690  150.4790 C   0  0  0  0  0  2  0  0  0  0  0  0
  158.7470  210.9080  152.3720 C   0  0  0  0  0  2  0  0  0  0  0  0
  162.7320  212.7050  147.1420 O   0  0  0  0  0  0  0  0  0  0  0  0
  162.6330  211.7410  148.1930 C   0  0  0  0  0  2  0  0  0  0  0  0
  159.6410  213.4520  149.9530 C   0  0  0  0  0  1  0  0  0  0  0  0
  161.6530  213.5100  146.7580 C   0  0  0  0  0  0  0  0  0  0  0  0
  160.5990  213.6380  147.5970 C   0  0  0  0  0  0  0  0  0  0  0  0
  161.6660  212.1730  149.2610 C   0  0  0  0  0  0  0  0  0  0  0  0
  160.6830  213.0520  148.9530 C   0  0  0  0  0  0  0  0  0  0  0  0
  162.4260  213.6490  144.3980 C   0  0  0  0  0  1  0  0  0  0  0  0
  161.7360  214.1740  145.5280 O   0  0  0  0  0  0  0  0  0  0  0  0
  159.4220  214.3070  147.2270 O   0  0  0  0  0  0  0  0  0  0  0  0
  158.8320  214.1470  145.9440 C   0  0  0  0  0  2  0  0  0  0  0  0
  157.1410  213.4930  146.1110 S   0  0  0  0  0  1  0  0  0  0  0  0
  160.9450  206.4170  153.5990 C   0  0  0  0  0  2  0  0  0  0  0  0
  161.5980  208.6740  152.6310 C   0  0  2  0  0  3  0  0  0  0  0  0
  162.5170  207.8390  151.9310 O   0  0  0  0  0  0  0  0  0  0  0  0
  160.7890  207.9250  153.7080 C   0  0  0  0  0  2  0  0  0  0  0  0
  160.8120  206.0180  152.1470 C   0  0  1  0  0  3  0  0  0  0  0  0
  161.8930  206.7160  151.3040 C   0  0  1  0  0  3  0  0  0  0  0  0
  160.9430  204.6350  152.0290 O   0  0  0  0  0  1  0  0  0  0  0  0
  161.4210  207.0120  149.8710 C   0  0  2  0  0  3  0  0  0  0  0  0
  160.0660  206.6740  149.7240 O   0  0  0  0  0  1  0  0  0  0  0  0
  163.3900  206.6620  148.5700 O   0  0  0  0  0  1  0  0  0  0  0  0
  161.6810  205.2000  148.1440 O   0  0  0  0  0  0  0  0  0  0  0  0
  162.2200  206.2780  148.8370 C   0  0  0  0  0  0  0  0  0  0  0  0
  159.5610  212.2480  154.3230 C   0  0  2  0  0  3  0  0  0  0  0  0
  159.7070  212.1050  155.7650 N   0  0  0  0  0  2  0  0  0  0  0  0
  159.6850  210.6780  156.0680 C   0  0  0  0  0  2  0  0  0  0  0  0
  161.7480  211.3500  157.2610 C   0  0  0  0  0  2  0  0  0  0  0  0
  161.2280  209.0710  157.1210 C   0  0  0  0  0  0  0  0  0  0  0  0
  160.5710  210.3820  157.2610 C   0  0  2  0  0  3  0  0  0  0  0  0
  160.6250  208.0060  157.0860 O   0  0  0  0  0  0  0  0  0  0  0  0
  163.7080  211.0020  156.0110 C   0  0  0  0  0  1  0  0  0  0  0  0
  162.6980  209.1730  157.0790 C   0  0  0  0  0  2  0  0  0  0  0  0
  163.0150  210.5950  157.2180 N   0  0  0  0  0  0  0  0  0  0  0  0
  158.2920  213.0470  154.0140 C   0  0  2  0  0  3  0  0  0  0  0  0
  158.5900  214.3040  153.4770 O   0  0  0  0  0  0  0  0  0  0  0  0
  157.7220  214.4490  152.3920 C   0  0  0  0  0  1  0  0  0  0  0  0
  157.6670  214.0430  156.1020 O   0  0  0  0  0  0  0  0  0  0  0  0
  157.4140  213.1760  155.2190 C   0  0  0  0  0  0  0  0  0  0  0  0
  156.2600  212.2800  155.3590 C   0  0  0  0  0  3  0  0  0  0  0  0
  155.7060  212.0200  156.5380 C   0  0  0  0  0  2  0  0  0  0  0  0
  1 13  1  6  0  0  0
  1  2  1  0  0  0  0
  3  6  1  6  0  0  0
  3  5  1  0  0  0  0
  3 21  1  0  0  0  0
  4 32  1  1  0  0  0
  5  2  1  6  0  0  0
  5  7  1  0  0  0  0
  5  4  1  0  0  0  0
  6  1  1  0  0  0  0
  7  4  1  0  0  0  0
  8  9  1  0  0  0  0
  9 13  1  0  0  0  0
 11  8  1  0  0  0  0
 11 12  2  0  0  0  0
 12 14  1  0  0  0  0
 14 13  2  0  0  0  0
 14 10  1  0  0  0  0
 15 16  1  0  0  0  0
 16 11  1  0  0  0  0
 17 12  1  0  0  0  0
 18 19  1  0  0  0  0
 18 17  1  0  0  0  0
 20 23  1  0  0  0  0
 21 23  1  6  0  0  0
 22 21  1  0  0  0  0
 24 26  1  1  0  0  0
 24 20  1  0  0  0  0
 25 27  1  6  0  0  0
 25 22  1  0  0  0  0
 25 24  1  0  0  0  0
 27 28  1  1  0  0  0
 29 31  1  0  0  0  0
 30 31  2  0  0  0  0
 31 27  1  0  0  0  0
 32 33  1  1  0  0  0
 33 34  1  0  0  0  0
 36 37  1  0  0  0  0
 37 34  1  6  0  0  0
 37 35  1  0  0  0  0
 38 36  2  0  0  0  0
 39 41  1  0  0  0  0
 40 36  1  0  0  0  0
 40 41  1  0  0  0  0
 41 35  1  0  0  0  0
 42 43  1  1  0  0  0
 42 32  1  0  0  0  0
 42 46  1  0  0  0  0
 44 43  1  0  0  0  0
 46 47  1  0  0  0  0
 46 45  2  0  0  0  0
 47 48  2  0  0  0  0
M  END
>  <MODEL>
3

>  <REMARK>
 VINA RESULT:      -3.7      1.548      2.251
  Name = 
  15 active torsions:
  status: ('A' for Active; 'I' for Inactive)
    1  A    between atoms: O_1  and  C_45
    2  A    between atoms: O_4  and  C_10
    3  A    between atoms: O_4  and  C_40
    4  A    between atoms: C_6  and  C_42
    5  A    between atoms: C_12  and  C_14
    6  A    between atoms: C_18  and  C_41
    7  A    between atoms: N_19  and  C_41
    8  A    between atoms: N_19  and  C_48
    9  A    between atoms: C_21  and  C_36
   10  A    between atoms: C_23  and  C_48
   11  A    between atoms: O_28  and  C_39
   12  A    between atoms: C_36  and  C_45
   13  A    between atoms: C_37  and  C_38
   14  A    between atoms: C_37  and  C_46
   15  A    between atoms: C_41  and  C_45
                            x       y       z     vdW  Elec       q    Type
                         _______ _______ _______ _____ _____    ______ ____

>  <TORSDO>
F 15

$$$$
=
 OpenBabel11072409583D

 48 52  0  0  1  0  0  0  0  0999 V2000
  161.1960  209.4450  152.9310 C   0  0  1  0  0  3  0  0  0  0  0  0
  160.2490  210.2500  152.0550 C   0  0  0  0  0  2  0  0  0  0  0  0
  159.7490  210.7140  154.4860 C   0  0  1  0  0  3  0  0  0  0  0  0
  158.5970  212.2800  152.6570 C   0  0  2  0  0  3  0  0  0  0  0  0
  159.4410  211.0610  153.0350 C   0  0  1  0  0  0  0  0  0  0  0  0
  160.7340  209.5540  154.3820 C   0  0  0  0  0  2  0  0  0  0  0  0
  157.9610  210.9040  152.7490 C   0  0  0  0  0  2  0  0  0  0  0  0
  161.4920  205.6730  153.1160 O   0  0  0  0  0  0  0  0  0  0  0  0
  160.9600  206.9510  153.4740 C   0  0  0  0  0  2  0  0  0  0  0  0
  161.9330  208.6770  150.1500 C   0  0  0  0  0  1  0  0  0  0  0  0
  161.6720  205.2830  151.7830 C   0  0  0  0  0  0  0  0  0  0  0  0
  161.6740  206.2290  150.8170 C   0  0  0  0  0  0  0  0  0  0  0  0
  161.3330  208.0130  152.4770 C   0  0  0  0  0  0  0  0  0  0  0  0
  161.6380  207.6560  151.2070 C   0  0  0  0  0  0  0  0  0  0  0  0
  160.8190  202.9810  151.3790 C   0  0  0  0  0  1  0  0  0  0  0  0
  161.8790  203.9220  151.5220 O   0  0  0  0  0  0  0  0  0  0  0  0
  161.7050  205.9080  149.4510 O   0  0  0  0  0  0  0  0  0  0  0  0
  160.5430  205.9610  148.6350 C   0  0  0  0  0  2  0  0  0  0  0  0
  161.0160  206.1270  146.8840 S   0  0  0  0  0  1  0  0  0  0  0  0
  159.3740  214.1980  155.5150 C   0  0  0  0  0  2  0  0  0  0  0  0
  160.3940  211.8840  155.2590 C   0  0  2  0  0  3  0  0  0  0  0  0
  160.0990  211.8620  156.6540 O   0  0  0  0  0  0  0  0  0  0  0  0
  160.1410  213.2540  154.6030 C   0  0  0  0  0  2  0  0  0  0  0  0
  158.2250  213.4410  156.1400 C   0  0  1  0  0  3  0  0  0  0  0  0
  158.7540  212.2460  156.9510 C   0  0  1  0  0  3  0  0  0  0  0  0
  157.5030  214.2940  156.9750 O   0  0  0  0  0  1  0  0  0  0  0  0
  157.7760  211.0600  156.9570 C   0  0  2  0  0  3  0  0  0  0  0  0
  158.3700  209.9350  156.3630 O   0  0  0  0  0  1  0  0  0  0  0  0
  156.2380  210.7900  155.1520 O   0  0  0  0  0  0  0  0  0  0  0  0
  155.5940  212.2970  156.7490 O   0  0  0  0  0  1  0  0  0  0  0  0
  156.4930  211.3660  156.2430 C   0  0  0  0  0  0  0  0  0  0  0  0
  158.7750  212.6910  151.1950 C   0  0  2  0  0  3  0  0  0  0  0  0
  160.1680  213.0370  150.9530 N   0  0  0  0  0  2  0  0  0  0  0  0
  160.2200  213.8080  149.7150 C   0  0  0  0  0  2  0  0  0  0  0  0
  161.7040  212.0690  148.7640 C   0  0  0  0  0  2  0  0  0  0  0  0
  160.7630  213.6520  147.3170 C   0  0  0  0  0  0  0  0  0  0  0  0
  160.4390  212.8870  148.5330 C   0  0  2  0  0  3  0  0  0  0  0  0
  159.9950  214.4410  146.7820 O   0  0  0  0  0  0  0  0  0  0  0  0
  163.8610  212.8530  148.2550 C   0  0  0  0  0  1  0  0  0  0  0  0
  162.0990  213.3300  146.7810 C   0  0  0  0  0  2  0  0  0  0  0  0
  162.6570  212.3030  147.6630 N   0  0  0  0  0  0  0  0  0  0  0  0
  157.8810  213.8790  150.8290 C   0  0  2  0  0  3  0  0  0  0  0  0
  157.2950  214.4530  151.9630 O   0  0  0  0  0  0  0  0  0  0  0  0
  156.2260  213.6130  152.2820 C   0  0  0  0  0  1  0  0  0  0  0  0
  155.7310  214.1010  149.7960 O   0  0  0  0  0  0  0  0  0  0  0  0
  156.8390  213.4970  149.8260 C   0  0  0  0  0  0  0  0  0  0  0  0
  157.1250  212.4100  148.8820 C   0  0  0  0  0  3  0  0  0  0  0  0
  157.2440  212.6210  147.5750 C   0  0  0  0  0  2  0  0  0  0  0  0
  1 13  1  6  0  0  0
  1  6  1  0  0  0  0
  2  1  1  0  0  0  0
  3  6  1  6  0  0  0
  3 21  1  0  0  0  0
  4 32  1  6  0  0  0
  4  7  1  0  0  0  0
  4  5  1  0  0  0  0
  5  2  1  6  0  0  0
  5  3  1  0  0  0  0
  7  5  1  0  0  0  0
  8  9  1  0  0  0  0
 10 14  1  0  0  0  0
 11  8  1  0  0  0  0
 12 14  1  0  0  0  0
 12 11  2  0  0  0  0
 13  9  1  0  0  0  0
 14 13  2  0  0  0  0
 15 16  1  0  0  0  0
 16 11  1  0  0  0  0
 17 12  1  0  0  0  0
 18 17  1  0  0  0  0
 19 18  1  0  0  0  0
 20 24  1  0  0  0  0
 21 23  1  6  0  0  0
 21 22  1  0  0  0  0
 22 25  1  0  0  0  0
 23 20  1  0  0  0  0
 24 25  1  0  0  0  0
 24 26  1  1  0  0  0
 25 27  1  6  0  0  0
 27 28  1  6  0  0  0
 29 31  2  0  0  0  0
 31 30  1  0  0  0  0
 31 27  1  0  0  0  0
 32 33  1  1  0  0  0
 34 33  1  0  0  0  0
 36 37  1  0  0  0  0
 37 35  1  0  0  0  0
 37 34  1  1  0  0  0
 38 36  2  0  0  0  0
 40 36  1  0  0  0  0
 40 41  1  0  0  0  0
 41 39  1  0  0  0  0
 41 35  1  0  0  0  0
 42 46  1  6  0  0  0
 42 32  1  0  0  0  0
 42 43  1  0  0  0  0
 43 44  1  0  0  0  0
 45 46  2  0  0  0  0
 47 46  1  0  0  0  0
 48 47  2  0  0  0  0
M  END
>  <MODEL>
4

>  <REMARK>
 VINA RESULT:      -1.8      2.548      7.908
  Name = 
  15 active torsions:
  status: ('A' for Active; 'I' for Inactive)
    1  A    between atoms: O_1  and  C_45
    2  A    between atoms: O_4  and  C_10
    3  A    between atoms: O_4  and  C_40
    4  A    between atoms: C_6  and  C_42
    5  A    between atoms: C_12  and  C_14
    6  A    between atoms: C_18  and  C_41
    7  A    between atoms: N_19  and  C_41
    8  A    between atoms: N_19  and  C_48
    9  A    between atoms: C_21  and  C_36
   10  A    between atoms: C_23  and  C_48
   11  A    between atoms: O_28  and  C_39
   12  A    between atoms: C_36  and  C_45
   13  A    between atoms: C_37  and  C_38
   14  A    between atoms: C_37  and  C_46
   15  A    between atoms: C_41  and  C_45
                            x       y       z     vdW  Elec       q    Type
                         _______ _______ _______ _____ _____    ______ ____

>  <TORSDO>
F 15

$$$$
=
 OpenBabel11072409583D

 48 52  0  0  1  0  0  0  0  0999 V2000
  161.9540  207.7570  151.3560 C   0  0  1  0  0  3  0  0  0  0  0  0
  161.0590  208.9650  151.1290 C   0  0  0  0  0  2  0  0  0  0  0  0
  161.2190  208.4880  153.6030 C   0  0  1  0  0  3  0  0  0  0  0  0
  160.1040  210.7930  152.8480 C   0  0  2  0  0  3  0  0  0  0  0  0
  160.6970  209.4220  152.5180 C   0  0  1  0  0  0  0  0  0  0  0  0
  161.8550  207.3420  152.8220 C   0  0  0  0  0  2  0  0  0  0  0  0
  159.1960  209.5950  152.6370 C   0  0  0  0  0  2  0  0  0  0  0  0
  160.9130  204.3150  150.1650 O   0  0  0  0  0  0  0  0  0  0  0  0
  160.8120  205.4950  150.9650 C   0  0  0  0  0  2  0  0  0  0  0  0
  162.7210  207.7650  148.4780 C   0  0  0  0  0  1  0  0  0  0  0  0
  161.1120  204.3620  148.7800 C   0  0  0  0  0  0  0  0  0  0  0  0
  161.5570  205.5100  148.2200 C   0  0  0  0  0  0  0  0  0  0  0  0
  161.6460  206.6190  150.4140 C   0  0  0  0  0  0  0  0  0  0  0  0
  161.9650  206.6290  149.0990 C   0  0  0  0  0  0  0  0  0  0  0  0
  160.8120  201.8970  148.6270 C   0  0  0  0  0  1  0  0  0  0  0  0
  160.8700  203.1960  148.0440 O   0  0  0  0  0  0  0  0  0  0  0  0
  161.6450  205.6830  146.8300 O   0  0  0  0  0  0  0  0  0  0  0  0
  160.5130  206.0100  146.0360 C   0  0  0  0  0  2  0  0  0  0  0  0
  160.7650  205.4440  144.3230 S   0  0  0  0  0  1  0  0  0  0  0  0
  162.1790  211.5580  155.3310 C   0  0  0  0  0  2  0  0  0  0  0  0
  162.2740  209.1550  154.5120 C   0  0  2  0  0  3  0  0  0  0  0  0
  162.0420  208.9250  155.8990 O   0  0  0  0  0  0  0  0  0  0  0  0
  162.5160  210.6370  154.1700 C   0  0  0  0  0  2  0  0  0  0  0  0
  160.8560  211.1300  155.9230 C   0  0  1  0  0  3  0  0  0  0  0  0
  160.9420  209.6770  156.4180 C   0  0  1  0  0  3  0  0  0  0  0  0
  160.5260  211.9710  156.9860 O   0  0  0  0  0  1  0  0  0  0  0  0
  159.5990  208.9370  156.3030 C   0  0  2  0  0  3  0  0  0  0  0  0
  158.6930  209.4180  157.2600 O   0  0  0  0  0  1  0  0  0  0  0  0
  160.6250  206.9990  157.2440 O   0  0  0  0  0  1  0  0  0  0  0  0
  158.9340  206.5700  155.7630 O   0  0  0  0  0  0  0  0  0  0  0  0
  159.7410  207.4530  156.4710 C   0  0  0  0  0  0  0  0  0  0  0  0
  160.0550  211.7220  151.6350 C   0  0  2  0  0  3  0  0  0  0  0  0
  161.3890  211.8520  151.0660 N   0  0  0  0  0  2  0  0  0  0  0  0
  161.2660  211.7040  149.6200 C   0  0  0  0  0  2  0  0  0  0  0  0
  160.4970  213.5640  148.1790 C   0  0  0  0  0  2  0  0  0  0  0  0
  162.6460  212.7000  147.8400 C   0  0  0  0  0  0  0  0  0  0  0  0
  161.6910  212.9800  148.9250 C   0  0  2  0  0  3  0  0  0  0  0  0
  163.7590  212.2220  148.0180 O   0  0  0  0  0  0  0  0  0  0  0  0
  159.8570  212.8770  146.0240 C   0  0  0  0  0  1  0  0  0  0  0  0
  162.1400  213.1050  146.5150 C   0  0  0  0  0  2  0  0  0  0  0  0
  160.8180  213.6900  146.7450 N   0  0  0  0  0  0  0  0  0  0  0  0
  159.5210  213.1090  152.0070 C   0  0  2  0  0  3  0  0  0  0  0  0
  159.7000  213.3840  153.3670 O   0  0  0  0  0  0  0  0  0  0  0  0
  158.4300  213.7260  153.8370 C   0  0  0  0  0  1  0  0  0  0  0  0
  157.1670  212.8380  152.3660 O   0  0  0  0  0  0  0  0  0  0  0  0
  158.0860  213.2690  151.6150 C   0  0  0  0  0  0  0  0  0  0  0  0
  157.7640  213.9330  150.3460 C   0  0  0  0  0  3  0  0  0  0  0  0
  157.0920  213.3190  149.3770 C   0  0  0  0  0  2  0  0  0  0  0  0
  1 13  1  6  0  0  0
  1  6  1  0  0  0  0
  2  1  1  0  0  0  0
  3  6  1  6  0  0  0
  3 21  1  0  0  0  0
  4 32  1  6  0  0  0
  5  2  1  6  0  0  0
  5  7  1  0  0  0  0
  5  4  1  0  0  0  0
  5  3  1  0  0  0  0
  7  4  1  0  0  0  0
  8  9  1  0  0  0  0
 10 14  1  0  0  0  0
 11  8  1  0  0  0  0
 12 11  2  0  0  0  0
 12 14  1  0  0  0  0
 13  9  1  0  0  0  0
 14 13  2  0  0  0  0
 16 15  1  0  0  0  0
 16 11  1  0  0  0  0
 17 12  1  0  0  0  0
 18 17  1  0  0  0  0
 19 18  1  0  0  0  0
 20 24  1  0  0  0  0
 21 23  1  1  0  0  0
 21 22  1  0  0  0  0
 22 25  1  0  0  0  0
 23 20  1  0  0  0  0
 24 25  1  0  0  0  0
 24 26  1  1  0  0  0
 25 27  1  6  0  0  0
 27 31  1  0  0  0  0
 27 28  1  1  0  0  0
 30 31  2  0  0  0  0
 31 29  1  0  0  0  0
 32 33  1  1  0  0  0
 32 42  1  0  0  0  0
 34 33  1  0  0  0  0
 35 37  1  0  0  0  0
 36 38  2  0  0  0  0
 36 37  1  0  0  0  0
 37 34  1  6  0  0  0
 39 41  1  0  0  0  0
 40 41  1  0  0  0  0
 40 36  1  0  0  0  0
 41 35  1  0  0  0  0
 42 46  1  1  0  0  0
 42 43  1  0  0  0  0
 43 44  1  0  0  0  0
 46 45  2  0  0  0  0
 47 46  1  0  0  0  0
 48 47  2  0  0  0  0
M  END
>  <MODEL>
5

>  <REMARK>
 VINA RESULT:      -1.5      2.679      7.276
  Name = 
  15 active torsions:
  status: ('A' for Active; 'I' for Inactive)
    1  A    between atoms: O_1  and  C_45
    2  A    between atoms: O_4  and  C_10
    3  A    between atoms: O_4  and  C_40
    4  A    between atoms: C_6  and  C_42
    5  A    between atoms: C_12  and  C_14
    6  A    between atoms: C_18  and  C_41
    7  A    between atoms: N_19  and  C_41
    8  A    between atoms: N_19  and  C_48
    9  A    between atoms: C_21  and  C_36
   10  A    between atoms: C_23  and  C_48
   11  A    between atoms: O_28  and  C_39
   12  A    between atoms: C_36  and  C_45
   13  A    between atoms: C_37  and  C_38
   14  A    between atoms: C_37  and  C_46
   15  A    between atoms: C_41  and  C_45
                            x       y       z     vdW  Elec       q    Type
                         _______ _______ _______ _____ _____    ______ ____

>  <TORSDO>
F 15

$$$$
=
 OpenBabel11072409583D

 48 52  0  0  1  0  0  0  0  0999 V2000
  161.9360  208.7380  151.0550 C   0  0  1  0  0  3  0  0  0  0  0  0
  160.8720  209.8230  151.0700 C   0  0  0  0  0  2  0  0  0  0  0  0
  161.1840  208.9160  153.4060 C   0  0  1  0  0  3  0  0  0  0  0  0
  159.7280  211.1350  153.1150 C   0  0  2  0  0  3  0  0  0  0  0  0
  160.4970  209.9510  152.5240 C   0  0  1  0  0  0  0  0  0  0  0  0
  161.9480  208.0440  152.4150 C   0  0  0  0  0  2  0  0  0  0  0  0
  158.9910  209.8790  152.6850 C   0  0  0  0  0  2  0  0  0  0  0  0
  161.3540  207.4540  147.5390 O   0  0  0  0  0  0  0  0  0  0  0  0
  161.9220  208.3180  148.5260 C   0  0  0  0  0  2  0  0  0  0  0  0
  161.5200  205.8160  151.4510 C   0  0  0  0  0  1  0  0  0  0  0  0
  161.3240  206.0620  147.6880 C   0  0  0  0  0  0  0  0  0  0  0  0
  161.5160  205.5300  148.9160 C   0  0  0  0  0  0  0  0  0  0  0  0
  161.7600  207.7650  149.9150 C   0  0  0  0  0  0  0  0  0  0  0  0
  161.6010  206.4320  150.0860 C   0  0  0  0  0  0  0  0  0  0  0  0
  162.0660  204.8650  145.6380 C   0  0  0  0  0  1  0  0  0  0  0  0
  161.0590  205.2870  146.5520 O   0  0  0  0  0  0  0  0  0  0  0  0
  161.6430  204.1480  149.1250 O   0  0  0  0  0  0  0  0  0  0  0  0
  160.5130  203.2900  149.2160 C   0  0  0  0  0  2  0  0  0  0  0  0
  160.9030  201.6640  148.4950 S   0  0  0  0  0  1  0  0  0  0  0  0
  161.8220  211.7790  155.5810 C   0  0  0  0  0  2  0  0  0  0  0  0
  162.1640  209.5460  154.4180 C   0  0  2  0  0  3  0  0  0  0  0  0
  161.9570  209.0910  155.7530 O   0  0  0  0  0  0  0  0  0  0  0  0
  162.2510  211.0790  154.3020 C   0  0  0  0  0  2  0  0  0  0  0  0
  160.5500  211.1350  156.0830 C   0  0  1  0  0  3  0  0  0  0  0  0
  160.7860  209.6410  156.3600 C   0  0  1  0  0  3  0  0  0  0  0  0
  160.1360  211.7710  157.2530 O   0  0  0  0  0  1  0  0  0  0  0  0
  159.5270  208.7920  156.1180 C   0  0  2  0  0  3  0  0  0  0  0  0
  158.4320  209.3360  156.8080 O   0  0  0  0  0  1  0  0  0  0  0  0
  160.7000  207.0420  157.2370 O   0  0  0  0  0  1  0  0  0  0  0  0
  158.8070  206.3810  156.1350 O   0  0  0  0  0  0  0  0  0  0  0  0
  159.7050  207.3630  156.5350 C   0  0  0  0  0  0  0  0  0  0  0  0
  159.5060  212.2590  152.1030 C   0  0  2  0  0  3  0  0  0  0  0  0
  160.7670  212.5880  151.4560 N   0  0  0  0  0  2  0  0  0  0  0  0
  160.4580  213.3660  150.2610 C   0  0  0  0  0  2  0  0  0  0  0  0
  162.0710  212.6460  148.5260 C   0  0  0  0  0  2  0  0  0  0  0  0
  159.8530  213.0490  147.8940 C   0  0  0  0  0  0  0  0  0  0  0  0
  160.6350  212.5140  149.0210 C   0  0  2  0  0  3  0  0  0  0  0  0
  158.6300  213.1160  147.8840 O   0  0  0  0  0  0  0  0  0  0  0  0
  162.8060  214.4000  147.1450 C   0  0  0  0  0  1  0  0  0  0  0  0
  160.6970  213.4500  146.7530 C   0  0  0  0  0  2  0  0  0  0  0  0
  162.0760  213.1470  147.1390 N   0  0  0  0  0  0  0  0  0  0  0  0
  158.9290  213.5120  152.7690 C   0  0  2  0  0  3  0  0  0  0  0  0
  159.5000  213.7390  154.0260 O   0  0  0  0  0  0  0  0  0  0  0  0
  158.5250  214.4320  154.7470 C   0  0  0  0  0  1  0  0  0  0  0  0
  156.8850  212.7390  153.7510 O   0  0  0  0  0  0  0  0  0  0  0  0
  157.4370  213.4490  152.8640 C   0  0  0  0  0  0  0  0  0  0  0  0
  156.6300  214.2210  151.9130 C   0  0  0  0  0  3  0  0  0  0  0  0
  157.0280  214.4440  150.6650 C   0  0  0  0  0  2  0  0  0  0  0  0
  1 13  1  6  0  0  0
  1  2  1  0  0  0  0
  1  6  1  0  0  0  0
  3  6  1  6  0  0  0
  3 21  1  0  0  0  0
  4 32  1  6  0  0  0
  5  2  1  6  0  0  0
  5  7  1  0  0  0  0
  5  4  1  0  0  0  0
  5  3  1  0  0  0  0
  7  4  1  0  0  0  0
  8 11  1  0  0  0  0
  8  9  1  0  0  0  0
  9 13  1  0  0  0  0
 11 12  2  0  0  0  0
 12 17  1  0  0  0  0
 12 14  1  0  0  0  0
 13 14  2  0  0  0  0
 14 10  1  0  0  0  0
 15 16  1  0  0  0  0
 16 11  1  0  0  0  0
 17 18  1  0  0  0  0
 19 18  1  0  0  0  0
 20 24  1  0  0  0  0
 21 23  1  1  0  0  0
 21 22  1  0  0  0  0
 22 25  1  0  0  0  0
 23 20  1  0  0  0  0
 24 25  1  0  0  0  0
 24 26  1  1  0  0  0
 25 27  1  6  0  0  0
 27 31  1  0  0  0  0
 27 28  1  1  0  0  0
 30 31  2  0  0  0  0
 31 29  1  0  0  0  0
 32 33  1  1  0  0  0
 32 42  1  0  0  0  0
 34 33  1  0  0  0  0
 35 37  1  0  0  0  0
 36 37  1  0  0  0  0
 37 34  1  1  0  0  0
 38 36  2  0  0  0  0
 40 41  1  0  0  0  0
 40 36  1  0  0  0  0
 41 39  1  0  0  0  0
 41 35  1  0  0  0  0
 42 46  1  1  0  0  0
 42 43  1  0  0  0  0
 43 44  1  0  0  0  0
 46 45  2  0  0  0  0
 47 46  1  0  0  0  0
 48 47  2  0  0  0  0
M  END
>  <MODEL>
6

>  <REMARK>
 VINA RESULT:      -1.1      2.910      7.080
  Name = 
  15 active torsions:
  status: ('A' for Active; 'I' for Inactive)
    1  A    between atoms: O_1  and  C_45
    2  A    between atoms: O_4  and  C_10
    3  A    between atoms: O_4  and  C_40
    4  A    between atoms: C_6  and  C_42
    5  A    between atoms: C_12  and  C_14
    6  A    between atoms: C_18  and  C_41
    7  A    between atoms: N_19  and  C_41
    8  A    between atoms: N_19  and  C_48
    9  A    between atoms: C_21  and  C_36
   10  A    between atoms: C_23  and  C_48
   11  A    between atoms: O_28  and  C_39
   12  A    between atoms: C_36  and  C_45
   13  A    between atoms: C_37  and  C_38
   14  A    between atoms: C_37  and  C_46
   15  A    between atoms: C_41  and  C_45
                            x       y       z     vdW  Elec       q    Type
                         _______ _______ _______ _____ _____    ______ ____

>  <TORSDO>
F 15

$$$$
