=
 OpenBabel11072414113D

 28 31  0  0  1  0  0  0  0  0999 V2000
  161.1420  206.1450  152.0780 C   0  0  1  0  0  3  0  0  0  0  0  0
  160.7100  208.9340  153.0370 C   0  0  0  0  0  0  0  0  0  0  0  0
  161.9280  206.6810  153.1980 C   0  0  2  0  0  3  0  0  0  0  0  0
  160.0920  209.9340  153.5890 N   0  0  0  0  0  0  0  0  0  0  0  0
  159.9510  210.0240  155.0440 C   0  0  2  0  0  3  0  0  0  0  0  0
  161.1570  207.7990  153.8380 C   0  0  0  0  0  0  0  0  0  0  0  0
  162.0970  208.2150  151.1780 C   0  0  2  0  0  3  0  0  0  0  0  0
  162.3770  206.8930  151.7900 N   0  0  2  0  0  0  0  0  0  0  0  0
  160.7610  207.6880  155.0720 N   0  0  0  0  0  0  0  0  0  0  0  0
  159.8160  208.6320  155.6750 C   0  0  0  0  0  2  0  0  0  0  0  0
  160.9510  208.9040  151.6780 O   0  0  0  0  0  0  0  0  0  0  0  0
  157.9900  211.4530  154.3640 N   0  0  0  0  0  2  0  0  0  0  0  0
  158.5190  211.1170  156.6150 O   0  0  0  0  0  0  0  0  0  0  0  0
  156.8490  212.3050  154.6470 C   0  0  0  0  0  1  0  0  0  0  0  0
  158.7880  210.8860  155.4030 C   0  0  0  0  0  0  0  0  0  0  0  0
  162.1060  209.3870  149.0850 O   0  0  0  0  0  1  0  0  0  0  0  0
  162.0470  208.1170  149.6600 C   0  0  0  0  0  2  0  0  0  0  0  0
  161.3890  204.7700  151.9460 O   0  0  0  0  0  0  0  0  0  0  0  0
  161.0490  204.3740  150.6350 C   0  0  1  0  0  3  0  0  0  0  0  0
  162.0700  204.8600  149.5910 C   0  0  0  0  0  2  0  0  0  0  0  0
  160.8470  202.9800  150.5450 O   0  0  0  0  0  0  0  0  0  0  0  0
  159.7340  201.3670  149.2790 N   0  0  0  0  0  1  0  0  0  0  0  0
  161.6180  204.4660  148.1840 C   0  0  1  0  0  3  0  0  0  0  0  0
  160.1870  202.7450  149.3270 C   0  0  2  0  0  3  0  0  0  0  0  0
  161.1370  203.0100  148.1560 C   0  0  0  0  0  2  0  0  0  0  0  0
  160.5330  205.4210  147.6930 C   0  0  0  0  0  2  0  0  0  0  0  0
  160.1310  206.2710  145.4940 O   0  0  0  0  0  1  0  0  0  0  0  0
  161.0380  206.2910  146.5540 C   0  0  0  0  0  2  0  0  0  0  0  0
  1 18  1  1  0  0  0
  1  3  1  0  0  0  0
  2  4  2  0  0  0  0
  2  6  1  0  0  0  0
  3  6  1  6  0  0  0
  4  5  1  0  0  0  0
  5 15  1  6  0  0  0
  5 10  1  0  0  0  0
  6  9  2  0  0  0  0
  7 17  1  6  0  0  0
  7 11  1  0  0  0  0
  7  8  1  0  0  0  0
  8  1  1  0  0  0  0
  8  3  1  0  0  0  0
  9 10  1  0  0  0  0
 11  2  1  0  0  0  0
 12 14  1  0  0  0  0
 12 15  1  0  0  0  0
 15 13  2  0  0  0  0
 16 17  1  0  0  0  0
 19 18  1  0  0  0  0
 20 19  1  0  0  0  0
 21 19  1  0  0  0  0
 22 24  1  0  0  0  0
 23 20  1  0  0  0  0
 24 21  1  0  0  0  0
 25 23  1  0  0  0  0
 25 24  1  0  0  0  0
 26 23  1  0  0  0  0
 27 28  1  0  0  0  0
 28 26  1  0  0  0  0
M  END
>  <MODEL>
1

>  <REMARK>
 VINA RESULT:      -7.1      0.000      0.000
  Name = 
  6 active torsions:
  status: ('A' for Active; 'I' for Inactive)
    1  A    between atoms: C_1  and  O_27
    2  A    between atoms: C_2  and  O_27
    3  A    between atoms: C_9  and  C_28
    4  A    between atoms: C_12  and  C_25
    5  A    between atoms: C_15  and  C_19
    6  A    between atoms: C_15  and  C_26
                            x       y       z     vdW  Elec       q    Type
                         _______ _______ _______ _____ _____    ______ ____

>  <TORSDO>
F 6

$$$$
=
 OpenBabel11072414113D

 28 31  0  0  1  0  0  0  0  0999 V2000
  161.3630  208.6690  148.8040 C   0  0  1  0  0  3  0  0  0  0  0  0
  161.6110  209.3860  151.6870 C   0  0  0  0  0  0  0  0  0  0  0  0
  162.5010  208.1890  149.5990 C   0  0  2  0  0  3  0  0  0  0  0  0
  161.3190  209.3990  152.9520 N   0  0  0  0  0  0  0  0  0  0  0  0
  161.6120  208.2460  153.8060 C   0  0  2  0  0  3  0  0  0  0  0  0
  162.1070  208.1710  151.0480 C   0  0  0  0  0  0  0  0  0  0  0  0
  162.2980  210.7170  149.7750 C   0  0  2  0  0  3  0  0  0  0  0  0
  162.5560  209.5230  148.9320 N   0  0  2  0  0  0  0  0  0  0  0  0
  162.0670  207.0430  151.6940 N   0  0  0  0  0  0  0  0  0  0  0  0
  161.4720  206.9300  153.0290 C   0  0  0  0  0  2  0  0  0  0  0  0
  161.4490  210.5110  150.9030 O   0  0  0  0  0  0  0  0  0  0  0  0
  160.7320  207.1200  155.8820 N   0  0  0  0  0  2  0  0  0  0  0  0
  159.9830  209.2400  155.2450 O   0  0  0  0  0  0  0  0  0  0  0  0
  159.8930  207.0610  157.0660 C   0  0  0  0  0  1  0  0  0  0  0  0
  160.7300  208.2500  155.0090 C   0  0  0  0  0  0  0  0  0  0  0  0
  162.8250  212.3590  148.1080 O   0  0  0  0  0  1  0  0  0  0  0  0
  161.8050  211.8850  148.9340 C   0  0  0  0  0  2  0  0  0  0  0  0
  161.3710  208.0440  147.5470 O   0  0  0  0  0  0  0  0  0  0  0  0
  161.6550  206.6730  147.7260 C   0  0  1  0  0  3  0  0  0  0  0  0
  160.4280  205.8780  148.2110 C   0  0  0  0  0  2  0  0  0  0  0  0
  162.2130  206.0990  146.5640 O   0  0  0  0  0  0  0  0  0  0  0  0
  163.5680  204.3340  145.8630 N   0  0  0  0  0  1  0  0  0  0  0  0
  160.8080  204.4170  148.4560 C   0  0  1  0  0  3  0  0  0  0  0  0
  162.7690  204.8670  146.9510 C   0  0  2  0  0  3  0  0  0  0  0  0
  161.6570  203.8750  147.2990 C   0  0  0  0  0  2  0  0  0  0  0  0
  161.5330  204.2790  149.7920 C   0  0  0  0  0  2  0  0  0  0  0  0
  161.3580  203.3210  151.9770 O   0  0  0  0  0  1  0  0  0  0  0  0
  160.6160  203.7070  150.8610 C   0  0  0  0  0  2  0  0  0  0  0  0
  1 18  1  6  0  0  0
  1  8  1  0  0  0  0
  1  3  1  0  0  0  0
  2  4  2  0  0  0  0
  3  6  1  1  0  0  0
  4  5  1  0  0  0  0
  5 15  1  1  0  0  0
  6  2  1  0  0  0  0
  6  9  2  0  0  0  0
  7 17  1  6  0  0  0
  7 11  1  0  0  0  0
  8  3  1  0  0  0  0
  8  7  1  0  0  0  0
  9 10  1  0  0  0  0
 10  5  1  0  0  0  0
 11  2  1  0  0  0  0
 12 14  1  0  0  0  0
 15 13  2  0  0  0  0
 15 12  1  0  0  0  0
 16 17  1  0  0  0  0
 18 19  1  0  0  0  0
 19 20  1  0  0  0  0
 20 23  1  0  0  0  0
 21 24  1  0  0  0  0
 21 19  1  0  0  0  0
 22 24  1  0  0  0  0
 23 26  1  0  0  0  0
 24 25  1  0  0  0  0
 25 23  1  0  0  0  0
 26 28  1  0  0  0  0
 28 27  1  0  0  0  0
M  END
>  <MODEL>
2

>  <REMARK>
 VINA RESULT:      -7.0      2.262      3.954
  Name = 
  6 active torsions:
  status: ('A' for Active; 'I' for Inactive)
    1  A    between atoms: C_1  and  O_27
    2  A    between atoms: C_2  and  O_27
    3  A    between atoms: C_9  and  C_28
    4  A    between atoms: C_12  and  C_25
    5  A    between atoms: C_15  and  C_19
    6  A    between atoms: C_15  and  C_26
                            x       y       z     vdW  Elec       q    Type
                         _______ _______ _______ _____ _____    ______ ____

>  <TORSDO>
F 6

$$$$
=
 OpenBabel11072414113D

 28 31  0  0  1  0  0  0  0  0999 V2000
  161.4210  208.2730  150.4310 C   0  0  1  0  0  3  0  0  0  0  0  0
  161.6020  205.5860  149.1520 C   0  0  0  0  0  0  0  0  0  0  0  0
  162.6700  207.8300  149.7960 C   0  0  2  0  0  3  0  0  0  0  0  0
  161.3630  204.6470  148.2870 N   0  0  0  0  0  0  0  0  0  0  0  0
  161.9510  204.6900  146.9460 C   0  0  2  0  0  3  0  0  0  0  0  0
  162.3450  206.7820  148.7690 C   0  0  0  0  0  0  0  0  0  0  0  0
  161.8850  206.1190  151.5050 C   0  0  2  0  0  3  0  0  0  0  0  0
  162.3840  207.4870  151.2200 N   0  0  2  0  0  0  0  0  0  0  0  0
  162.5960  207.0080  147.5130 N   0  0  0  0  0  0  0  0  0  0  0  0
  162.0940  206.1340  146.4490 C   0  0  0  0  0  2  0  0  0  0  0  0
  161.1510  205.4920  150.4540 O   0  0  0  0  0  0  0  0  0  0  0  0
  161.0030  202.4730  146.2130 N   0  0  0  0  0  2  0  0  0  0  0  0
  160.5850  204.4270  145.0030 O   0  0  0  0  0  0  0  0  0  0  0  0
  160.2300  201.6270  145.3210 C   0  0  0  0  0  1  0  0  0  0  0  0
  161.1380  203.8770  145.9950 C   0  0  0  0  0  0  0  0  0  0  0  0
  161.0730  204.7860  153.3260 O   0  0  0  0  0  1  0  0  0  0  0  0
  161.1000  206.0810  152.8080 C   0  0  0  0  0  2  0  0  0  0  0  0
  161.5280  209.6270  150.7820 O   0  0  0  0  0  0  0  0  0  0  0  0
  161.0090  209.7990  152.0830 C   0  0  1  0  0  3  0  0  0  0  0  0
  162.1130  210.0550  153.1250 C   0  0  0  0  0  2  0  0  0  0  0  0
  160.0200  210.8050  152.1240 O   0  0  0  0  0  0  0  0  0  0  0  0
  158.1600  211.4960  153.3490 N   0  0  0  0  0  1  0  0  0  0  0  0
  161.5050  210.1630  154.5250 C   0  0  1  0  0  3  0  0  0  0  0  0
  159.3410  210.6540  153.3450 C   0  0  2  0  0  3  0  0  0  0  0  0
  160.2550  211.0510  154.5070 C   0  0  0  0  0  2  0  0  0  0  0  0
  161.1930  208.7720  155.0710 C   0  0  0  0  0  2  0  0  0  0  0  0
  162.6630  209.6230  156.7560 O   0  0  0  0  0  1  0  0  0  0  0  0
  161.7920  208.5750  156.4540 C   0  0  0  0  0  2  0  0  0  0  0  0
  1 18  1  1  0  0  0
  1  8  1  0  0  0  0
  2 11  1  0  0  0  0
  3  6  1  6  0  0  0
  3  1  1  0  0  0  0
  3  8  1  0  0  0  0
  4  2  2  0  0  0  0
  5 15  1  6  0  0  0
  5  4  1  0  0  0  0
  6  2  1  0  0  0  0
  7 17  1  1  0  0  0
  8  7  1  0  0  0  0
  9  6  2  0  0  0  0
 10  5  1  0  0  0  0
 10  9  1  0  0  0  0
 11  7  1  0  0  0  0
 13 15  2  0  0  0  0
 14 12  1  0  0  0  0
 15 12  1  0  0  0  0
 17 16  1  0  0  0  0
 18 19  1  0  0  0  0
 19 21  1  0  0  0  0
 19 20  1  0  0  0  0
 20 23  1  0  0  0  0
 21 24  1  0  0  0  0
 23 26  1  0  0  0  0
 24 22  1  0  0  0  0
 24 25  1  0  0  0  0
 25 23  1  0  0  0  0
 26 28  1  0  0  0  0
 28 27  1  0  0  0  0
M  END
>  <MODEL>
3

>  <REMARK>
 VINA RESULT:      -7.0      2.123      8.478
  Name = 
  6 active torsions:
  status: ('A' for Active; 'I' for Inactive)
    1  A    between atoms: C_1  and  O_27
    2  A    between atoms: C_2  and  O_27
    3  A    between atoms: C_9  and  C_28
    4  A    between atoms: C_12  and  C_25
    5  A    between atoms: C_15  and  C_19
    6  A    between atoms: C_15  and  C_26
                            x       y       z     vdW  Elec       q    Type
                         _______ _______ _______ _____ _____    ______ ____

>  <TORSDO>
F 6

$$$$
=
 OpenBabel11072414113D

 28 31  0  0  1  0  0  0  0  0999 V2000
  160.5620  210.3160  153.4930 C   0  0  1  0  0  3  0  0  0  0  0  0
  161.2060  207.9100  151.8560 C   0  0  0  0  0  0  0  0  0  0  0  0
  161.9220  210.1030  152.9820 C   0  0  2  0  0  3  0  0  0  0  0  0
  161.1860  207.1120  150.8320 N   0  0  0  0  0  0  0  0  0  0  0  0
  161.9280  207.4320  149.6100 C   0  0  2  0  0  3  0  0  0  0  0  0
  161.8500  209.2170  151.7710 C   0  0  0  0  0  0  0  0  0  0  0  0
  161.1300  208.0640  154.2780 C   0  0  2  0  0  3  0  0  0  0  0  0
  161.5020  209.5010  154.2810 N   0  0  2  0  0  0  0  0  0  0  0  0
  162.2280  209.6730  150.6130 N   0  0  0  0  0  0  0  0  0  0  0  0
  161.9670  208.9470  149.3660 C   0  0  0  0  0  2  0  0  0  0  0  0
  160.6100  207.5570  153.0500 O   0  0  0  0  0  0  0  0  0  0  0  0
  162.1340  206.5160  147.2720 N   0  0  0  0  0  2  0  0  0  0  0  0
  160.1460  206.3100  148.4810 O   0  0  0  0  0  0  0  0  0  0  0  0
  161.6180  205.8340  146.0980 C   0  0  0  0  0  1  0  0  0  0  0  0
  161.3390  206.7200  148.4400 C   0  0  0  0  0  0  0  0  0  0  0  0
  160.4340  208.5920  156.5120 O   0  0  0  0  0  1  0  0  0  0  0  0
  160.1980  207.7360  155.4360 C   0  0  0  0  0  2  0  0  0  0  0  0
  160.4680  211.5960  154.0600 O   0  0  0  0  0  0  0  0  0  0  0  0
  159.3190  212.2340  153.5470 C   0  0  1  0  0  3  0  0  0  0  0  0
  158.7430  213.2790  154.5200 C   0  0  0  0  0  2  0  0  0  0  0  0
  159.5570  212.7950  152.2730 O   0  0  0  0  0  0  0  0  0  0  0  0
  158.4560  213.4360  150.3190 N   0  0  0  0  0  1  0  0  0  0  0  0
  157.4620  213.8880  153.9460 C   0  0  1  0  0  3  0  0  0  0  0  0
  158.2980  213.0830  151.7180 C   0  0  2  0  0  3  0  0  0  0  0  0
  157.6480  214.2480  152.4670 C   0  0  0  0  0  2  0  0  0  0  0  0
  156.2900  212.9310  154.1450 C   0  0  0  0  0  2  0  0  0  0  0  0
  156.1090  211.0470  155.6090 O   0  0  0  0  0  1  0  0  0  0  0  0
  156.2180  212.4380  155.5810 C   0  0  0  0  0  2  0  0  0  0  0  0
  1 18  1  1  0  0  0
  1  8  1  0  0  0  0
  2 11  1  0  0  0  0
  3  6  1  6  0  0  0
  3  1  1  0  0  0  0
  3  8  1  0  0  0  0
  4  2  2  0  0  0  0
  5 15  1  6  0  0  0
  5  4  1  0  0  0  0
  6  2  1  0  0  0  0
  7  8  1  0  0  0  0
  7 17  1  1  0  0  0
  9  6  2  0  0  0  0
 10  5  1  0  0  0  0
 10  9  1  0  0  0  0
 11  7  1  0  0  0  0
 12 15  1  0  0  0  0
 14 12  1  0  0  0  0
 15 13  2  0  0  0  0
 17 16  1  0  0  0  0
 19 18  1  0  0  0  0
 19 20  1  0  0  0  0
 21 19  1  0  0  0  0
 22 24  1  0  0  0  0
 23 26  1  0  0  0  0
 23 20  1  0  0  0  0
 24 21  1  0  0  0  0
 24 25  1  0  0  0  0
 25 23  1  0  0  0  0
 26 28  1  0  0  0  0
 28 27  1  0  0  0  0
M  END
>  <MODEL>
4

>  <REMARK>
 VINA RESULT:      -6.8      2.653      8.407
  Name = 
  6 active torsions:
  status: ('A' for Active; 'I' for Inactive)
    1  A    between atoms: C_1  and  O_27
    2  A    between atoms: C_2  and  O_27
    3  A    between atoms: C_9  and  C_28
    4  A    between atoms: C_12  and  C_25
    5  A    between atoms: C_15  and  C_19
    6  A    between atoms: C_15  and  C_26
                            x       y       z     vdW  Elec       q    Type
                         _______ _______ _______ _____ _____    ______ ____

>  <TORSDO>
F 6

$$$$
=
 OpenBabel11072414113D

 28 31  0  0  1  0  0  0  0  0999 V2000
  160.8720  208.4080  153.1810 C   0  0  1  0  0  3  0  0  0  0  0  0
  159.5060  211.0550  153.2870 C   0  0  0  0  0  0  0  0  0  0  0  0
  161.1340  209.3410  154.2850 C   0  0  2  0  0  3  0  0  0  0  0  0
  158.5260  211.8990  153.4110 N   0  0  0  0  0  0  0  0  0  0  0  0
  157.9420  212.1900  154.7220 C   0  0  2  0  0  3  0  0  0  0  0  0
  159.9590  210.2650  154.4270 C   0  0  0  0  0  0  0  0  0  0  0  0
  161.5140  210.4840  152.0460 C   0  0  2  0  0  3  0  0  0  0  0  0
  161.9140  209.4350  153.0160 N   0  0  2  0  0  0  0  0  0  0  0  0
  159.2540  210.2520  155.5200 N   0  0  0  0  0  0  0  0  0  0  0  0
  157.9710  210.9520  155.6290 C   0  0  0  0  0  2  0  0  0  0  0  0
  160.1390  210.8670  152.0750 O   0  0  0  0  0  0  0  0  0  0  0  0
  156.2330  213.5440  153.4590 N   0  0  0  0  0  2  0  0  0  0  0  0
  155.6680  212.4110  155.4230 O   0  0  0  0  0  0  0  0  0  0  0  0
  154.9000  214.0820  153.2580 C   0  0  0  0  0  1  0  0  0  0  0  0
  156.5510  212.7060  154.5700 C   0  0  0  0  0  0  0  0  0  0  0  0
  161.9080  211.2380  149.8030 O   0  0  0  0  0  1  0  0  0  0  0  0
  161.9430  210.1160  150.6330 C   0  0  0  0  0  2  0  0  0  0  0  0
  161.4760  207.1720  153.4570 O   0  0  0  0  0  0  0  0  0  0  0  0
  161.1980  206.2860  152.3940 C   0  0  1  0  0  3  0  0  0  0  0  0
  162.0590  206.5730  151.1500 C   0  0  0  0  0  2  0  0  0  0  0  0
  161.3080  204.9370  152.7950 O   0  0  0  0  0  0  0  0  0  0  0  0
  160.5490  202.7980  152.2580 N   0  0  0  0  0  1  0  0  0  0  0  0
  161.6680  205.6330  150.0080 C   0  0  1  0  0  3  0  0  0  0  0  0
  160.6860  204.1670  151.7980 C   0  0  2  0  0  3  0  0  0  0  0  0
  161.5220  204.1930  150.5160 C   0  0  0  0  0  2  0  0  0  0  0  0
  160.3860  206.1220  149.3400 C   0  0  0  0  0  2  0  0  0  0  0  0
  161.9490  206.2650  147.5360 O   0  0  0  0  0  1  0  0  0  0  0  0
  160.5950  206.3610  147.8530 C   0  0  0  0  0  2  0  0  0  0  0  0
  1 18  1  1  0  0  0
  1  3  1  0  0  0  0
  2  4  2  0  0  0  0
  2  6  1  0  0  0  0
  3  6  1  6  0  0  0
  4  5  1  0  0  0  0
  5 15  1  6  0  0  0
  5 10  1  0  0  0  0
  6  9  2  0  0  0  0
  7 17  1  6  0  0  0
  7 11  1  0  0  0  0
  7  8  1  0  0  0  0
  8  1  1  0  0  0  0
  8  3  1  0  0  0  0
  9 10  1  0  0  0  0
 11  2  1  0  0  0  0
 12 15  1  0  0  0  0
 14 12  1  0  0  0  0
 15 13  2  0  0  0  0
 16 17  1  0  0  0  0
 19 21  1  0  0  0  0
 19 18  1  0  0  0  0
 20 19  1  0  0  0  0
 23 25  1  0  0  0  0
 23 20  1  0  0  0  0
 24 22  1  0  0  0  0
 24 21  1  0  0  0  0
 25 24  1  0  0  0  0
 26 23  1  0  0  0  0
 27 28  1  0  0  0  0
 28 26  1  0  0  0  0
M  END
>  <MODEL>
5

>  <REMARK>
 VINA RESULT:      -6.8      1.960      2.681
  Name = 
  6 active torsions:
  status: ('A' for Active; 'I' for Inactive)
    1  A    between atoms: C_1  and  O_27
    2  A    between atoms: C_2  and  O_27
    3  A    between atoms: C_9  and  C_28
    4  A    between atoms: C_12  and  C_25
    5  A    between atoms: C_15  and  C_19
    6  A    between atoms: C_15  and  C_26
                            x       y       z     vdW  Elec       q    Type
                         _______ _______ _______ _____ _____    ______ ____

>  <TORSDO>
F 6

$$$$
=
 OpenBabel11072414113D

 28 31  0  0  1  0  0  0  0  0999 V2000
  162.4670  209.5240  151.6330 C   0  0  1  0  0  3  0  0  0  0  0  0
  161.5060  207.6970  149.4830 C   0  0  0  0  0  0  0  0  0  0  0  0
  161.0950  208.9990  151.6550 C   0  0  2  0  0  3  0  0  0  0  0  0
  161.4240  206.6110  148.7750 N   0  0  0  0  0  0  0  0  0  0  0  0
  160.7460  205.4210  149.2950 C   0  0  2  0  0  3  0  0  0  0  0  0
  161.0540  207.7200  150.8700 C   0  0  0  0  0  0  0  0  0  0  0  0
  161.5800  210.1240  149.4280 C   0  0  2  0  0  3  0  0  0  0  0  0
  161.4140  210.2450  150.8970 N   0  0  2  0  0  0  0  0  0  0  0  0
  160.7540  206.6040  151.4670 N   0  0  0  0  0  0  0  0  0  0  0  0
  160.9230  205.3020  150.8150 C   0  0  0  0  0  2  0  0  0  0  0  0
  162.0360  208.8570  148.9540 O   0  0  0  0  0  0  0  0  0  0  0  0
  160.7600  202.9170  149.0190 N   0  0  0  0  0  2  0  0  0  0  0  0
  162.0810  204.2900  147.6680 O   0  0  0  0  0  0  0  0  0  0  0  0
  161.2060  201.6860  148.3900 C   0  0  0  0  0  1  0  0  0  0  0  0
  161.2410  204.1950  148.6040 C   0  0  0  0  0  0  0  0  0  0  0  0
  161.7830  211.9200  147.8510 O   0  0  0  0  0  1  0  0  0  0  0  0
  162.4460  211.2490  148.8790 C   0  0  0  0  0  2  0  0  0  0  0  0
  162.7340  210.1930  152.8370 O   0  0  0  0  0  0  0  0  0  0  0  0
  161.5470  210.2420  153.5990 C   0  0  1  0  0  3  0  0  0  0  0  0
  161.7880  209.9040  155.0820 C   0  0  0  0  0  2  0  0  0  0  0  0
  160.8830  211.4790  153.4550 O   0  0  0  0  0  0  0  0  0  0  0  0
  158.7700  212.4530  153.6160 N   0  0  0  0  0  1  0  0  0  0  0  0
  160.4620  209.9020  155.8460 C   0  0  1  0  0  3  0  0  0  0  0  0
  159.5810  211.2980  153.9520 C   0  0  2  0  0  3  0  0  0  0  0  0
  159.6180  211.1260  155.4720 C   0  0  0  0  0  2  0  0  0  0  0  0
  159.7060  208.6020  155.5840 C   0  0  0  0  0  2  0  0  0  0  0  0
  160.6180  206.5770  154.6940 O   0  0  0  0  0  1  0  0  0  0  0  0
  160.5920  207.3900  155.8270 C   0  0  0  0  0  2  0  0  0  0  0  0
  1  3  1  0  0  0  0
  1 18  1  1  0  0  0
  2  6  1  0  0  0  0
  3  6  1  6  0  0  0
  4  5  1  0  0  0  0
  4  2  2  0  0  0  0
  5 15  1  6  0  0  0
  5 10  1  0  0  0  0
  6  9  2  0  0  0  0
  7 17  1  1  0  0  0
  7  8  1  0  0  0  0
  8  1  1  0  0  0  0
  8  3  1  0  0  0  0
 10  9  1  0  0  0  0
 11  7  1  0  0  0  0
 11  2  1  0  0  0  0
 13 15  2  0  0  0  0
 14 12  1  0  0  0  0
 15 12  1  0  0  0  0
 16 17  1  0  0  0  0
 18 19  1  0  0  0  0
 19 20  1  0  0  0  0
 20 23  1  0  0  0  0
 21 19  1  0  0  0  0
 21 24  1  0  0  0  0
 22 24  1  0  0  0  0
 24 25  1  0  0  0  0
 25 23  1  0  0  0  0
 26 28  1  0  0  0  0
 26 23  1  0  0  0  0
 27 28  1  0  0  0  0
M  END
>  <MODEL>
6

>  <REMARK>
 VINA RESULT:      -6.6      2.205      7.691
  Name = 
  6 active torsions:
  status: ('A' for Active; 'I' for Inactive)
    1  A    between atoms: C_1  and  O_27
    2  A    between atoms: C_2  and  O_27
    3  A    between atoms: C_9  and  C_28
    4  A    between atoms: C_12  and  C_25
    5  A    between atoms: C_15  and  C_19
    6  A    between atoms: C_15  and  C_26
                            x       y       z     vdW  Elec       q    Type
                         _______ _______ _______ _____ _____    ______ ____

>  <TORSDO>
F 6

$$$$
=
 OpenBabel11072414113D

 28 31  0  0  1  0  0  0  0  0999 V2000
  160.5630  210.3870  152.9310 C   0  0  1  0  0  3  0  0  0  0  0  0
  161.2870  207.5020  153.1250 C   0  0  0  0  0  0  0  0  0  0  0  0
  161.8770  209.9140  152.4770 C   0  0  2  0  0  3  0  0  0  0  0  0
  161.2460  206.2310  152.8610 N   0  0  0  0  0  0  0  0  0  0  0  0
  161.8180  205.7000  151.6210 C   0  0  2  0  0  3  0  0  0  0  0  0
  161.7750  208.4560  152.1340 C   0  0  0  0  0  0  0  0  0  0  0  0
  161.4470  209.1810  154.8730 C   0  0  2  0  0  3  0  0  0  0  0  0
  161.6610  210.2860  153.9060 N   0  0  2  0  0  0  0  0  0  0  0  0
  161.9800  208.0620  150.9110 N   0  0  0  0  0  0  0  0  0  0  0  0
  161.6690  206.7000  150.4680 C   0  0  0  0  0  2  0  0  0  0  0  0
  160.8590  207.9940  154.3420 O   0  0  0  0  0  0  0  0  0  0  0  0
  161.0710  204.0140  149.9050 N   0  0  0  0  0  2  0  0  0  0  0  0
  160.7620  203.6320  152.1890 O   0  0  0  0  0  0  0  0  0  0  0  0
  160.4650  202.7560  149.5030 C   0  0  0  0  0  1  0  0  0  0  0  0
  161.1900  204.3920  151.2760 C   0  0  0  0  0  0  0  0  0  0  0  0
  159.3330  209.3170  155.9970 O   0  0  0  0  0  1  0  0  0  0  0  0
  160.6810  209.6630  156.0960 C   0  0  0  0  0  2  0  0  0  0  0  0
  160.3920  211.7300  152.5590 O   0  0  0  0  0  0  0  0  0  0  0  0
  159.4440  212.3200  153.4220 C   0  0  1  0  0  3  0  0  0  0  0  0
  158.1500  211.4910  153.5260 C   0  0  0  0  0  2  0  0  0  0  0  0
  159.9890  212.5840  154.6970 O   0  0  0  0  0  0  0  0  0  0  0  0
  159.7160  213.9680  156.5540 N   0  0  0  0  0  1  0  0  0  0  0  0
  157.1320  212.2090  154.4150 C   0  0  1  0  0  3  0  0  0  0  0  0
  159.1020  213.4650  155.3400 C   0  0  2  0  0  3  0  0  0  0  0  0
  157.8020  212.7380  155.6890 C   0  0  0  0  0  2  0  0  0  0  0  0
  156.4520  213.3310  153.6340 C   0  0  0  0  0  2  0  0  0  0  0  0
  154.3470  214.4530  153.4650 O   0  0  0  0  0  1  0  0  0  0  0  0
  155.2220  213.8440  154.3650 C   0  0  0  0  0  2  0  0  0  0  0  0
  1 18  1  6  0  0  0
  1  8  1  0  0  0  0
  2 11  1  0  0  0  0
  3  6  1  1  0  0  0
  3  1  1  0  0  0  0
  3  8  1  0  0  0  0
  4  2  2  0  0  0  0
  5 15  1  6  0  0  0
  5  4  1  0  0  0  0
  6  2  1  0  0  0  0
  7 17  1  1  0  0  0
  8  7  1  0  0  0  0
  9  6  2  0  0  0  0
 10  9  1  0  0  0  0
 10  5  1  0  0  0  0
 11  7  1  0  0  0  0
 12 15  1  0  0  0  0
 14 12  1  0  0  0  0
 15 13  2  0  0  0  0
 16 17  1  0  0  0  0
 18 19  1  0  0  0  0
 19 20  1  0  0  0  0
 19 21  1  0  0  0  0
 20 23  1  0  0  0  0
 21 24  1  0  0  0  0
 23 25  1  0  0  0  0
 24 25  1  0  0  0  0
 24 22  1  0  0  0  0
 26 28  1  0  0  0  0
 26 23  1  0  0  0  0
 27 28  1  0  0  0  0
M  END
>  <MODEL>
7

>  <REMARK>
 VINA RESULT:      -6.6      2.543      8.503
  Name = 
  6 active torsions:
  status: ('A' for Active; 'I' for Inactive)
    1  A    between atoms: C_1  and  O_27
    2  A    between atoms: C_2  and  O_27
    3  A    between atoms: C_9  and  C_28
    4  A    between atoms: C_12  and  C_25
    5  A    between atoms: C_15  and  C_19
    6  A    between atoms: C_15  and  C_26
                            x       y       z     vdW  Elec       q    Type
                         _______ _______ _______ _____ _____    ______ ____

>  <TORSDO>
F 6

$$$$
=
 OpenBabel11072414113D

 28 31  0  0  1  0  0  0  0  0999 V2000
  161.2160  205.6620  152.1960 C   0  0  1  0  0  3  0  0  0  0  0  0
  160.9250  208.5220  152.9860 C   0  0  0  0  0  0  0  0  0  0  0  0
  161.9300  206.1910  153.3650 C   0  0  2  0  0  3  0  0  0  0  0  0
  160.3400  209.5930  153.4280 N   0  0  0  0  0  0  0  0  0  0  0  0
  160.0640  209.7680  154.8560 C   0  0  2  0  0  3  0  0  0  0  0  0
  161.1960  207.3970  153.8760 C   0  0  0  0  0  0  0  0  0  0  0  0
  162.4230  207.6030  151.3090 C   0  0  2  0  0  3  0  0  0  0  0  0
  162.5320  206.2960  152.0030 N   0  0  2  0  0  0  0  0  0  0  0  0
  160.6730  207.3810  155.0670 N   0  0  0  0  0  0  0  0  0  0  0  0
  159.7540  208.4240  155.5290 C   0  0  0  0  0  2  0  0  0  0  0  0
  161.2950  208.4040  151.6610 O   0  0  0  0  0  0  0  0  0  0  0  0
  158.4170  211.4360  153.9320 N   0  0  0  0  0  2  0  0  0  0  0  0
  158.4830  210.9370  156.2140 O   0  0  0  0  0  0  0  0  0  0  0  0
  157.3340  212.3940  154.0630 C   0  0  0  0  0  1  0  0  0  0  0  0
  158.9470  210.7350  155.0580 C   0  0  0  0  0  0  0  0  0  0  0  0
  162.1850  208.6230  149.1510 O   0  0  0  0  0  1  0  0  0  0  0  0
  162.5150  207.4320  149.8000 C   0  0  0  0  0  2  0  0  0  0  0  0
  161.3610  204.2670  152.1480 O   0  0  0  0  0  0  0  0  0  0  0  0
  161.2940  203.8520  150.8010 C   0  0  1  0  0  3  0  0  0  0  0  0
  160.4660  202.5660  150.6240 C   0  0  0  0  0  2  0  0  0  0  0  0
  160.8270  204.8830  149.9580 O   0  0  0  0  0  0  0  0  0  0  0  0
  160.8950  205.6110  147.7430 N   0  0  0  0  0  1  0  0  0  0  0  0
  160.4850  202.1220  149.1600 C   0  0  1  0  0  3  0  0  0  0  0  0
  161.1270  204.4950  148.6410 C   0  0  2  0  0  3  0  0  0  0  0  0
  160.2450  203.3150  148.2280 C   0  0  0  0  0  2  0  0  0  0  0  0
  161.8030  201.4200  148.8400 C   0  0  0  0  0  2  0  0  0  0  0  0
  161.2140  200.5570  146.6890 O   0  0  0  0  0  1  0  0  0  0  0  0
  161.5760  200.1850  147.9830 C   0  0  0  0  0  2  0  0  0  0  0  0
  1 18  1  1  0  0  0
  1  3  1  0  0  0  0
  2  4  2  0  0  0  0
  2  6  1  0  0  0  0
  3  6  1  6  0  0  0
  4  5  1  0  0  0  0
  5 15  1  6  0  0  0
  5 10  1  0  0  0  0
  6  9  2  0  0  0  0
  7 17  1  6  0  0  0
  7 11  1  0  0  0  0
  7  8  1  0  0  0  0
  8  1  1  0  0  0  0
  8  3  1  0  0  0  0
  9 10  1  0  0  0  0
 11  2  1  0  0  0  0
 12 14  1  0  0  0  0
 12 15  1  0  0  0  0
 15 13  2  0  0  0  0
 16 17  1  0  0  0  0
 19 18  1  0  0  0  0
 20 19  1  0  0  0  0
 21 19  1  0  0  0  0
 22 24  1  0  0  0  0
 23 20  1  0  0  0  0
 24 21  1  0  0  0  0
 25 24  1  0  0  0  0
 25 23  1  0  0  0  0
 26 23  1  0  0  0  0
 27 28  1  0  0  0  0
 28 26  1  0  0  0  0
M  END
>  <MODEL>
8

>  <REMARK>
 VINA RESULT:      -6.5      1.552      2.294
  Name = 
  6 active torsions:
  status: ('A' for Active; 'I' for Inactive)
    1  A    between atoms: C_1  and  O_27
    2  A    between atoms: C_2  and  O_27
    3  A    between atoms: C_9  and  C_28
    4  A    between atoms: C_12  and  C_25
    5  A    between atoms: C_15  and  C_19
    6  A    between atoms: C_15  and  C_26
                            x       y       z     vdW  Elec       q    Type
                         _______ _______ _______ _____ _____    ______ ____

>  <TORSDO>
F 6

$$$$
=
 OpenBabel11072414113D

 28 31  0  0  1  0  0  0  0  0999 V2000
  161.9690  207.0140  150.4300 C   0  0  1  0  0  3  0  0  0  0  0  0
  161.4530  207.2530  153.3560 C   0  0  0  0  0  0  0  0  0  0  0  0
  160.7450  207.6590  150.9230 C   0  0  2  0  0  3  0  0  0  0  0  0
  161.6170  207.6650  154.5760 N   0  0  0  0  0  0  0  0  0  0  0  0
  161.2100  209.0140  154.9780 C   0  0  2  0  0  3  0  0  0  0  0  0
  160.9920  208.1650  152.3150 C   0  0  0  0  0  0  0  0  0  0  0  0
  160.9960  205.3390  151.9320 C   0  0  2  0  0  3  0  0  0  0  0  0
  160.7920  206.1800  150.7270 N   0  0  2  0  0  0  0  0  0  0  0  0
  160.9370  209.4420  152.5580 N   0  0  0  0  0  0  0  0  0  0  0  0
  161.3930  210.0140  153.8280 C   0  0  0  0  0  2  0  0  0  0  0  0
  161.7220  205.9460  153.0000 O   0  0  0  0  0  0  0  0  0  0  0  0
  162.7950  210.6100  156.1140 N   0  0  0  0  0  2  0  0  0  0  0  0
  161.8820  208.7900  157.2600 O   0  0  0  0  0  0  0  0  0  0  0  0
  163.5610  211.0820  157.2540 C   0  0  0  0  0  1  0  0  0  0  0  0
  161.9670  209.4490  156.1870 C   0  0  0  0  0  0  0  0  0  0  0  0
  160.9660  202.9640  152.2630 O   0  0  0  0  0  1  0  0  0  0  0  0
  161.6000  203.9920  151.5650 C   0  0  0  0  0  2  0  0  0  0  0  0
  162.0710  207.1980  149.0420 O   0  0  0  0  0  0  0  0  0  0  0  0
  162.0580  205.9320  148.4170 C   0  0  1  0  0  3  0  0  0  0  0  0
  160.6360  205.3540  148.2940 C   0  0  0  0  0  2  0  0  0  0  0  0
  162.7110  205.9600  147.1660 O   0  0  0  0  0  0  0  0  0  0  0  0
  163.8250  204.5810  145.6500 N   0  0  0  0  0  1  0  0  0  0  0  0
  160.6850  203.9550  147.6760 C   0  0  1  0  0  3  0  0  0  0  0  0
  162.9460  204.6220  146.8040 C   0  0  2  0  0  3  0  0  0  0  0  0
  161.6240  203.9310  146.4630 C   0  0  0  0  0  2  0  0  0  0  0  0
  161.1040  202.9300  148.7260 C   0  0  0  0  0  2  0  0  0  0  0  0
  161.3610  200.5880  148.3140 O   0  0  0  0  0  1  0  0  0  0  0  0
  160.4140  201.5950  148.5010 C   0  0  0  0  0  2  0  0  0  0  0  0
  1 18  1  6  0  0  0
  1  8  1  0  0  0  0
  1  3  1  0  0  0  0
  2  4  2  0  0  0  0
  3  6  1  1  0  0  0
  4  5  1  0  0  0  0
  5 15  1  1  0  0  0
  6  9  2  0  0  0  0
  6  2  1  0  0  0  0
  7 17  1  6  0  0  0
  7 11  1  0  0  0  0
  8  3  1  0  0  0  0
  8  7  1  0  0  0  0
  9 10  1  0  0  0  0
 10  5  1  0  0  0  0
 11  2  1  0  0  0  0
 12 15  1  0  0  0  0
 12 14  1  0  0  0  0
 15 13  2  0  0  0  0
 17 16  1  0  0  0  0
 19 18  1  0  0  0  0
 20 19  1  0  0  0  0
 21 19  1  0  0  0  0
 22 24  1  0  0  0  0
 23 20  1  0  0  0  0
 23 26  1  0  0  0  0
 24 21  1  0  0  0  0
 25 24  1  0  0  0  0
 25 23  1  0  0  0  0
 27 28  1  0  0  0  0
 28 26  1  0  0  0  0
M  END
>  <MODEL>
9

>  <REMARK>
 VINA RESULT:      -6.5      2.389      3.984
  Name = 
  6 active torsions:
  status: ('A' for Active; 'I' for Inactive)
    1  A    between atoms: C_1  and  O_27
    2  A    between atoms: C_2  and  O_27
    3  A    between atoms: C_9  and  C_28
    4  A    between atoms: C_12  and  C_25
    5  A    between atoms: C_15  and  C_19
    6  A    between atoms: C_15  and  C_26
                            x       y       z     vdW  Elec       q    Type
                         _______ _______ _______ _____ _____    ______ ____

>  <TORSDO>
F 6

$$$$
