=
 OpenBabel11072411153D

 28 32  0  0  1  0  0  0  0  0999 V2000
  161.5420  206.1950  149.1970 C   0  0  2  0  0  3  0  0  0  0  0  0
  161.3710  202.9500  149.0090 C   0  0  0  0  0  2  0  0  0  0  0  0
  161.6420  203.9780  151.3020 C   0  0  0  0  0  1  0  0  0  0  0  0
  160.2220  205.3850  146.0470 C   0  0  0  0  0  2  0  0  0  0  0  0
  160.9980  204.2390  146.6740 C   0  0  2  0  0  0  0  0  0  0  0  0
  160.9750  206.6220  146.4220 C   0  0  0  0  0  2  0  0  0  0  0  0
  160.5490  205.0290  149.1760 C   0  0  2  0  0  3  0  0  0  0  0  0
  162.3880  206.1480  146.7650 C   0  0  2  0  0  3  0  0  0  0  0  0
  160.7180  203.7900  150.1220 C   0  0  1  0  0  3  0  0  0  0  0  0
  161.1330  204.1450  148.1300 C   0  0  1  0  0  0  0  0  0  0  0  0
  162.3440  204.7010  147.3300 C   0  0  1  0  0  0  0  0  0  0  0  0
  162.6840  205.9260  148.2170 C   0  0  2  0  0  3  0  0  0  0  0  0
  160.5100  203.2200  144.8210 O   0  0  0  0  0  1  0  0  0  0  0  0
  161.1750  203.0600  145.9460 O   0  0  0  0  0  0  0  0  0  0  0  0
  161.8010  207.0880  150.4420 C   0  0  1  0  0  0  0  0  0  0  0  0
  163.2710  206.9720  150.8410 C   0  0  0  0  0  1  0  0  0  0  0  0
  161.5000  208.5630  150.0810 C   0  0  2  0  0  3  0  0  0  0  0  0
  161.9150  208.8680  148.7810 O   0  0  0  0  0  1  0  0  0  0  0  0
  162.1180  209.5710  151.0510 C   0  0  0  0  0  1  0  0  0  0  0  0
  160.9820  206.7010  151.5760 N   0  0  0  0  0  0  0  0  0  0  0  0
  161.3760  206.7990  152.7950 C   0  0  0  0  0  3  0  0  0  0  0  0
  160.4350  206.5280  153.9230 C   0  0  0  0  0  2  0  0  0  0  0  0
  159.9940  207.3990  156.0680 O   0  0  0  0  0  0  0  0  0  0  0  0
  160.4880  207.6110  154.9690 C   0  0  0  0  0  0  0  0  0  0  0  0
  161.2250  208.9020  154.7130 C   0  0  0  0  0  2  0  0  0  0  0  0
  161.1690  211.1810  155.5020 O   0  0  0  0  0  1  0  0  0  0  0  0
  160.3770  210.1790  154.9380 C   0  0  1  0  0  3  0  0  0  0  0  0
  159.6910  210.7300  153.6820 C   0  0  0  0  0  1  0  0  0  0  0  0
  1 15  1  1  0  0  0
  2  9  1  0  0  0  0
  4  6  1  0  0  0  0
  4  5  1  0  0  0  0
  5 14  1  6  0  0  0
  5 11  1  0  0  0  0
  5 10  1  0  0  0  0
  6  8  1  0  0  0  0
  7  1  1  0  0  0  0
  7  9  1  0  0  0  0
  8 11  1  0  0  0  0
  8 12  1  0  0  0  0
  9  3  1  0  0  0  0
 10  2  1  0  0  0  0
 10  7  1  0  0  0  0
 11 10  1  0  0  0  0
 11 12  1  0  0  0  0
 12  1  1  0  0  0  0
 13 14  1  0  0  0  0
 15 16  1  0  0  0  0
 15 20  1  0  0  0  0
 17 15  1  0  0  0  0
 17 19  1  0  0  0  0
 18 17  1  0  0  0  0
 20 21  2  0  0  0  0
 21 22  1  0  0  0  0
 22 24  1  0  0  0  0
 24 23  2  0  0  0  0
 25 27  1  0  0  0  0
 25 24  1  0  0  0  0
 27 26  1  0  0  0  0
 28 27  1  0  0  0  0
M  END
>  <MODEL>
1

>  <REMARK>
 VINA RESULT:      -6.2      0.000      0.000
  Name = 
  8 active torsions:
  status: ('A' for Active; 'I' for Inactive)
    1  A    between atoms: C_1  and  C_21
    2  A    between atoms: C_4  and  C_21
    3  A    between atoms: N_6  and  C_21
    4  A    between atoms: C_10  and  C_17
    5  A    between atoms: C_11  and  O_19
    6  A    between atoms: C_15  and  C_23
    7  A    between atoms: C_17  and  C_27
    8  A    between atoms: C_23  and  C_27
                            x       y       z     vdW  Elec       q    Type
                         _______ _______ _______ _____ _____    ______ ____

>  <TORSDO>
F 8

$$$$
=
 OpenBabel11072411153D

 28 32  0  0  1  0  0  0  0  0999 V2000
  160.9500  207.4510  153.0170 C   0  0  2  0  0  3  0  0  0  0  0  0
  161.6700  210.6010  153.4070 C   0  0  0  0  0  2  0  0  0  0  0  0
  162.3350  209.5090  151.2270 C   0  0  0  0  0  1  0  0  0  0  0  0
  159.0050  208.6610  155.6770 C   0  0  0  0  0  2  0  0  0  0  0  0
  160.2330  209.5140  155.4080 C   0  0  2  0  0  0  0  0  0  0  0  0
  159.4490  207.2500  155.4480 C   0  0  0  0  0  2  0  0  0  0  0  0
  160.3800  208.8610  152.8320 C   0  0  2  0  0  3  0  0  0  0  0  0
  160.9710  207.2760  155.5860 C   0  0  2  0  0  3  0  0  0  0  0  0
  161.1840  209.9800  152.0850 C   0  0  1  0  0  3  0  0  0  0  0  0
  160.8360  209.5440  154.0740 C   0  0  1  0  0  0  0  0  0  0  0  0
  161.5240  208.6620  155.1530 C   0  0  1  0  0  0  0  0  0  0  0  0
  161.7550  207.3800  154.3130 C   0  0  2  0  0  3  0  0  0  0  0  0
  159.3950  210.8330  156.9140 O   0  0  0  0  0  1  0  0  0  0  0  0
  160.5060  210.5960  156.2490 O   0  0  0  0  0  0  0  0  0  0  0  0
  161.3150  206.5050  151.8390 C   0  0  1  0  0  0  0  0  0  0  0  0
  162.8260  206.2810  151.8320 C   0  0  0  0  0  1  0  0  0  0  0  0
  160.6120  205.1420  152.0460 C   0  0  2  0  0  3  0  0  0  0  0  0
  161.0310  204.5220  153.2280 O   0  0  0  0  0  1  0  0  0  0  0  0
  160.8010  204.1710  150.8800 C   0  0  0  0  0  1  0  0  0  0  0  0
  160.9220  207.0510  150.5540 N   0  0  0  0  0  0  0  0  0  0  0  0
  161.6430  206.9470  149.4950 C   0  0  0  0  0  3  0  0  0  0  0  0
  161.1180  207.3950  148.1700 C   0  0  0  0  0  2  0  0  0  0  0  0
  160.3540  206.3910  146.1790 O   0  0  0  0  0  0  0  0  0  0  0  0
  161.0360  206.2570  147.1860 C   0  0  0  0  0  0  0  0  0  0  0  0
  161.8580  205.0070  147.3760 C   0  0  0  0  0  2  0  0  0  0  0  0
  161.8940  203.4500  145.5330 O   0  0  0  0  0  1  0  0  0  0  0  0
  161.2460  203.7350  146.7360 C   0  0  1  0  0  3  0  0  0  0  0  0
  161.2710  202.4870  147.6280 C   0  0  0  0  0  1  0  0  0  0  0  0
  1 15  1  6  0  0  0
  1 12  1  0  0  0  0
  2 10  1  0  0  0  0
  3  9  1  0  0  0  0
  5  4  1  0  0  0  0
  5 14  1  1  0  0  0
  6  8  1  0  0  0  0
  6  4  1  0  0  0  0
  7  1  1  0  0  0  0
  7 10  1  0  0  0  0
  9  7  1  0  0  0  0
  9  2  1  0  0  0  0
 10 11  1  0  0  0  0
 10  5  1  0  0  0  0
 11  5  1  0  0  0  0
 11  8  1  0  0  0  0
 12 11  1  0  0  0  0
 12  8  1  0  0  0  0
 14 13  1  0  0  0  0
 15 17  1  0  0  0  0
 16 15  1  0  0  0  0
 17 18  1  0  0  0  0
 19 17  1  0  0  0  0
 20 15  1  0  0  0  0
 21 20  2  0  0  0  0
 22 21  1  0  0  0  0
 23 24  2  0  0  0  0
 24 25  1  0  0  0  0
 24 22  1  0  0  0  0
 26 27  1  0  0  0  0
 27 25  1  0  0  0  0
 27 28  1  0  0  0  0
M  END
>  <MODEL>
2

>  <REMARK>
 VINA RESULT:      -6.1      1.606      8.165
  Name = 
  8 active torsions:
  status: ('A' for Active; 'I' for Inactive)
    1  A    between atoms: C_1  and  C_21
    2  A    between atoms: C_4  and  C_21
    3  A    between atoms: N_6  and  C_21
    4  A    between atoms: C_10  and  C_17
    5  A    between atoms: C_11  and  O_19
    6  A    between atoms: C_15  and  C_23
    7  A    between atoms: C_17  and  C_27
    8  A    between atoms: C_23  and  C_27
                            x       y       z     vdW  Elec       q    Type
                         _______ _______ _______ _____ _____    ______ ____

>  <TORSDO>
F 8

$$$$
=
 OpenBabel11072411153D

 28 32  0  0  1  0  0  0  0  0999 V2000
  159.4560  210.9180  154.8940 C   0  0  2  0  0  3  0  0  0  0  0  0
  158.5550  213.2270  152.7850 C   0  0  0  0  0  2  0  0  0  0  0  0
  160.3820  211.6350  152.0680 C   0  0  0  0  0  1  0  0  0  0  0  0
  156.3470  212.1580  155.9480 C   0  0  0  0  0  2  0  0  0  0  0  0
  157.0920  213.1250  155.0440 C   0  0  2  0  0  0  0  0  0  0  0  0
  157.4010  211.5190  156.7960 C   0  0  0  0  0  2  0  0  0  0  0  0
  158.4520  211.2200  153.7770 C   0  0  2  0  0  3  0  0  0  0  0  0
  158.5920  212.4780  156.7520 C   0  0  2  0  0  3  0  0  0  0  0  0
  158.9130  211.7830  152.3890 C   0  0  1  0  0  3  0  0  0  0  0  0
  158.0730  212.6280  154.0760 C   0  0  1  0  0  0  0  0  0  0  0  0
  158.6150  213.2410  155.3980 C   0  0  1  0  0  0  0  0  0  0  0  0
  159.6670  212.1610  155.7570 C   0  0  2  0  0  3  0  0  0  0  0  0
  155.2370  214.2440  154.9160 O   0  0  0  0  0  1  0  0  0  0  0  0
  156.5410  214.3840  154.7940 O   0  0  0  0  0  0  0  0  0  0  0  0
  160.6010  209.8740  154.7680 C   0  0  1  0  0  0  0  0  0  0  0  0
  161.9200  210.6080  154.5320 C   0  0  0  0  0  1  0  0  0  0  0  0
  160.7080  209.0750  156.0890 C   0  0  2  0  0  3  0  0  0  0  0  0
  162.0210  208.6590  156.3320 O   0  0  0  0  0  1  0  0  0  0  0  0
  159.7810  207.8610  156.1490 C   0  0  0  0  0  1  0  0  0  0  0  0
  160.3830  208.9490  153.6710 N   0  0  0  0  0  0  0  0  0  0  0  0
  161.3410  208.4160  152.9990 C   0  0  0  0  0  3  0  0  0  0  0  0
  161.0600  207.3580  151.9830 C   0  0  0  0  0  2  0  0  0  0  0  0
  161.2860  205.7410  153.6830 O   0  0  0  0  0  0  0  0  0  0  0  0
  161.4170  205.9850  152.4910 C   0  0  0  0  0  0  0  0  0  0  0  0
  161.8310  204.8900  151.5420 C   0  0  0  0  0  2  0  0  0  0  0  0
  160.8640  205.1020  149.3410 O   0  0  0  0  0  1  0  0  0  0  0  0
  160.7210  204.4380  150.5610 C   0  0  1  0  0  3  0  0  0  0  0  0
  160.6600  202.9270  150.3030 C   0  0  0  0  0  1  0  0  0  0  0  0
  1 15  1  6  0  0  0
  1 12  1  0  0  0  0
  2 10  1  0  0  0  0
  3  9  1  0  0  0  0
  4  6  1  0  0  0  0
  5 14  1  6  0  0  0
  5 11  1  0  0  0  0
  5  4  1  0  0  0  0
  7 10  1  0  0  0  0
  7  1  1  0  0  0  0
  8  6  1  0  0  0  0
  9  2  1  0  0  0  0
  9  7  1  0  0  0  0
 10  5  1  0  0  0  0
 10 11  1  0  0  0  0
 11 12  1  0  0  0  0
 11  8  1  0  0  0  0
 12  8  1  0  0  0  0
 14 13  1  0  0  0  0
 15 17  1  0  0  0  0
 16 15  1  0  0  0  0
 17 19  1  0  0  0  0
 17 18  1  0  0  0  0
 20 15  1  0  0  0  0
 21 20  2  0  0  0  0
 22 24  1  0  0  0  0
 22 21  1  0  0  0  0
 24 23  2  0  0  0  0
 25 24  1  0  0  0  0
 26 27  1  0  0  0  0
 27 25  1  0  0  0  0
 28 27  1  0  0  0  0
M  END
>  <MODEL>
3

>  <REMARK>
 VINA RESULT:      -6.1      2.875      9.078
  Name = 
  8 active torsions:
  status: ('A' for Active; 'I' for Inactive)
    1  A    between atoms: C_1  and  C_21
    2  A    between atoms: C_4  and  C_21
    3  A    between atoms: N_6  and  C_21
    4  A    between atoms: C_10  and  C_17
    5  A    between atoms: C_11  and  O_19
    6  A    between atoms: C_15  and  C_23
    7  A    between atoms: C_17  and  C_27
    8  A    between atoms: C_23  and  C_27
                            x       y       z     vdW  Elec       q    Type
                         _______ _______ _______ _____ _____    ______ ____

>  <TORSDO>
F 8

$$$$
=
 OpenBabel11072411153D

 28 32  0  0  1  0  0  0  0  0999 V2000
  159.8540  210.5080  154.8750 C   0  0  2  0  0  3  0  0  0  0  0  0
  159.6090  212.3360  152.1930 C   0  0  0  0  0  2  0  0  0  0  0  0
  161.3450  210.5000  152.2040 C   0  0  0  0  0  1  0  0  0  0  0  0
  156.7650  212.1690  155.0040 C   0  0  0  0  0  2  0  0  0  0  0  0
  157.7630  212.8520  154.0850 C   0  0  2  0  0  0  0  0  0  0  0  0
  157.5720  211.6680  156.1590 C   0  0  0  0  0  2  0  0  0  0  0  0
  159.1060  210.6180  153.5430 C   0  0  2  0  0  3  0  0  0  0  0  0
  158.8510  212.5060  156.1540 C   0  0  2  0  0  3  0  0  0  0  0  0
  159.8690  210.8180  152.1870 C   0  0  1  0  0  3  0  0  0  0  0  0
  158.8400  212.0800  153.4580 C   0  0  1  0  0  0  0  0  0  0  0  0
  159.2010  212.9380  154.7030 C   0  0  1  0  0  0  0  0  0  0  0  0
  160.0440  211.8970  155.4830 C   0  0  2  0  0  3  0  0  0  0  0  0
  156.1390  213.9410  153.1430 O   0  0  0  0  0  1  0  0  0  0  0  0
  157.4100  214.0560  153.4710 O   0  0  0  0  0  0  0  0  0  0  0  0
  160.8790  209.3860  155.2010 C   0  0  1  0  0  0  0  0  0  0  0  0
  162.2820  209.8770  154.8500 C   0  0  0  0  0  1  0  0  0  0  0  0
  160.8270  209.0760  156.7170 C   0  0  2  0  0  3  0  0  0  0  0  0
  162.1080  208.8920  157.2470 O   0  0  0  0  0  1  0  0  0  0  0  0
  159.9650  207.8630  157.0660 C   0  0  0  0  0  1  0  0  0  0  0  0
  160.6140  208.1680  154.4590 N   0  0  0  0  0  0  0  0  0  0  0  0
  161.5440  207.4110  153.9950 C   0  0  0  0  0  3  0  0  0  0  0  0
  161.2130  206.0950  153.3710 C   0  0  0  0  0  2  0  0  0  0  0  0
  162.4600  206.7630  151.4860 O   0  0  0  0  0  0  0  0  0  0  0  0
  161.5370  206.0750  151.8990 C   0  0  0  0  0  0  0  0  0  0  0  0
  160.8080  205.1500  150.9570 C   0  0  0  0  0  2  0  0  0  0  0  0
  161.1880  204.0310  148.8530 O   0  0  0  0  0  1  0  0  0  0  0  0
  161.2350  205.2810  149.4740 C   0  0  1  0  0  3  0  0  0  0  0  0
  160.4120  206.2800  148.6500 C   0  0  0  0  0  1  0  0  0  0  0  0
  1 15  1  6  0  0  0
  1 12  1  0  0  0  0
  2 10  1  0  0  0  0
  4  6  1  0  0  0  0
  5 14  1  6  0  0  0
  5 11  1  0  0  0  0
  5  4  1  0  0  0  0
  7  1  1  0  0  0  0
  8  6  1  0  0  0  0
  9  2  1  0  0  0  0
  9  3  1  0  0  0  0
  9  7  1  0  0  0  0
 10  7  1  0  0  0  0
 10  5  1  0  0  0  0
 10 11  1  0  0  0  0
 11 12  1  0  0  0  0
 11  8  1  0  0  0  0
 12  8  1  0  0  0  0
 13 14  1  0  0  0  0
 15 17  1  0  0  0  0
 16 15  1  0  0  0  0
 17 19  1  0  0  0  0
 17 18  1  0  0  0  0
 20 15  1  0  0  0  0
 21 20  2  0  0  0  0
 22 21  1  0  0  0  0
 23 24  2  0  0  0  0
 24 22  1  0  0  0  0
 25 24  1  0  0  0  0
 26 27  1  0  0  0  0
 27 25  1  0  0  0  0
 28 27  1  0  0  0  0
M  END
>  <MODEL>
4

>  <REMARK>
 VINA RESULT:      -5.8      2.601      8.593
  Name = 
  8 active torsions:
  status: ('A' for Active; 'I' for Inactive)
    1  A    between atoms: C_1  and  C_21
    2  A    between atoms: C_4  and  C_21
    3  A    between atoms: N_6  and  C_21
    4  A    between atoms: C_10  and  C_17
    5  A    between atoms: C_11  and  O_19
    6  A    between atoms: C_15  and  C_23
    7  A    between atoms: C_17  and  C_27
    8  A    between atoms: C_23  and  C_27
                            x       y       z     vdW  Elec       q    Type
                         _______ _______ _______ _____ _____    ______ ____

>  <TORSDO>
F 8

$$$$
=
 OpenBabel11072411153D

 28 32  0  0  1  0  0  0  0  0999 V2000
  161.2040  203.7350  149.1670 C   0  0  2  0  0  3  0  0  0  0  0  0
  160.9000  203.6550  145.9270 C   0  0  0  0  0  2  0  0  0  0  0  0
  161.0150  205.9230  147.0360 C   0  0  0  0  0  1  0  0  0  0  0  0
  162.0620  200.5030  148.1030 C   0  0  0  0  0  2  0  0  0  0  0  0
  161.2040  201.2470  147.0940 C   0  0  2  0  0  0  0  0  0  0  0  0
  161.5320  200.9040  149.4430 C   0  0  0  0  0  2  0  0  0  0  0  0
  162.0170  203.6600  147.8710 C   0  0  2  0  0  3  0  0  0  0  0  0
  160.1110  201.4040  149.1840 C   0  0  2  0  0  3  0  0  0  0  0  0
  161.7760  204.6640  146.6910 C   0  0  1  0  0  3  0  0  0  0  0  0
  161.2100  202.7110  147.0550 C   0  0  1  0  0  0  0  0  0  0  0  0
  160.0110  202.0160  147.7590 C   0  0  1  0  0  0  0  0  0  0  0  0
  159.9400  202.8860  149.0410 C   0  0  2  0  0  3  0  0  0  0  0  0
  161.2750  199.3650  146.0170 O   0  0  0  0  0  1  0  0  0  0  0  0
  160.7890  200.5860  145.9360 O   0  0  0  0  0  0  0  0  0  0  0  0
  161.2030  204.9660  150.1170 C   0  0  1  0  0  0  0  0  0  0  0  0
  159.7590  205.3680  150.4080 C   0  0  0  0  0  1  0  0  0  0  0  0
  161.8890  204.5790  151.4490 C   0  0  2  0  0  3  0  0  0  0  0  0
  161.9270  203.1920  151.6230 O   0  0  0  0  0  1  0  0  0  0  0  0
  161.2450  205.2180  152.6800 C   0  0  0  0  0  1  0  0  0  0  0  0
  161.8940  206.1040  149.5410 N   0  0  0  0  0  0  0  0  0  0  0  0
  161.4870  207.3160  149.6770 C   0  0  0  0  0  3  0  0  0  0  0  0
  162.3210  208.4570  149.1910 C   0  0  0  0  0  2  0  0  0  0  0  0
  161.9550  210.7450  149.6180 O   0  0  0  0  0  0  0  0  0  0  0  0
  162.2180  209.6530  150.1010 C   0  0  0  0  0  0  0  0  0  0  0  0
  162.3340  209.5010  151.5970 C   0  0  0  0  0  2  0  0  0  0  0  0
  160.4560  208.5880  152.8050 O   0  0  0  0  0  1  0  0  0  0  0  0
  161.0250  209.7880  152.3740 C   0  0  1  0  0  3  0  0  0  0  0  0
  161.1790  210.7300  153.5760 C   0  0  0  0  0  1  0  0  0  0  0  0
  1 15  1  6  0  0  0
  2  9  1  0  0  0  0
  2 10  1  0  0  0  0
  4  6  1  0  0  0  0
  5 14  1  6  0  0  0
  5 11  1  0  0  0  0
  5  4  1  0  0  0  0
  7  1  1  0  0  0  0
  8  6  1  0  0  0  0
  9  3  1  0  0  0  0
  9  7  1  0  0  0  0
 10  5  1  0  0  0  0
 10 11  1  0  0  0  0
 10  7  1  0  0  0  0
 11 12  1  0  0  0  0
 11  8  1  0  0  0  0
 12  1  1  0  0  0  0
 12  8  1  0  0  0  0
 14 13  1  0  0  0  0
 15 16  1  0  0  0  0
 15 17  1  0  0  0  0
 17 18  1  0  0  0  0
 17 19  1  0  0  0  0
 20 21  2  0  0  0  0
 20 15  1  0  0  0  0
 22 21  1  0  0  0  0
 22 24  1  0  0  0  0
 23 24  2  0  0  0  0
 24 25  1  0  0  0  0
 25 27  1  0  0  0  0
 27 26  1  0  0  0  0
 27 28  1  0  0  0  0
M  END
>  <MODEL>
5

>  <REMARK>
 VINA RESULT:      -5.6      2.115      4.223
  Name = 
  8 active torsions:
  status: ('A' for Active; 'I' for Inactive)
    1  A    between atoms: C_1  and  C_21
    2  A    between atoms: C_4  and  C_21
    3  A    between atoms: N_6  and  C_21
    4  A    between atoms: C_10  and  C_17
    5  A    between atoms: C_11  and  O_19
    6  A    between atoms: C_15  and  C_23
    7  A    between atoms: C_17  and  C_27
    8  A    between atoms: C_23  and  C_27
                            x       y       z     vdW  Elec       q    Type
                         _______ _______ _______ _____ _____    ______ ____

>  <TORSDO>
F 8

$$$$
=
 OpenBabel11072411153D

 28 32  0  0  1  0  0  0  0  0999 V2000
  161.6180  204.4970  148.0350 C   0  0  2  0  0  3  0  0  0  0  0  0
  160.2750  201.5320  148.0430 C   0  0  0  0  0  2  0  0  0  0  0  0
  160.8360  202.5580  145.8020 C   0  0  0  0  0  1  0  0  0  0  0  0
  161.9530  203.1910  151.2760 C   0  0  0  0  0  2  0  0  0  0  0  0
  160.8450  202.5210  150.4820 C   0  0  2  0  0  0  0  0  0  0  0  0
  161.9040  204.6330  150.8820 C   0  0  0  0  0  2  0  0  0  0  0  0
  161.9620  203.0060  148.1160 C   0  0  2  0  0  3  0  0  0  0  0  0
  160.4960  204.8530  150.3260 C   0  0  2  0  0  3  0  0  0  0  0  0
  161.3920  201.9750  147.0800 C   0  0  1  0  0  3  0  0  0  0  0  0
  160.8960  202.4910  149.0180 C   0  0  1  0  0  0  0  0  0  0  0  0
  159.9640  203.5420  149.6830 C   0  0  1  0  0  0  0  0  0  0  0  0
  160.3480  204.7830  148.8370 C   0  0  2  0  0  3  0  0  0  0  0  0
  160.5720  200.3900  150.7880 O   0  0  0  0  0  1  0  0  0  0  0  0
  160.0490  201.5570  151.1050 O   0  0  0  0  0  0  0  0  0  0  0  0
  161.9750  205.4030  146.8250 C   0  0  1  0  0  0  0  0  0  0  0  0
  163.3670  205.0300  146.3180 C   0  0  0  0  0  1  0  0  0  0  0  0
  160.9520  205.1610  145.6890 C   0  0  2  0  0  3  0  0  0  0  0  0
  161.5770  205.1040  144.4390 O   0  0  0  0  0  1  0  0  0  0  0  0
  159.8330  206.2010  145.6390 C   0  0  0  0  0  1  0  0  0  0  0  0
  161.9720  206.8120  147.1730 N   0  0  0  0  0  0  0  0  0  0  0  0
  162.3400  207.2520  148.3240 C   0  0  0  0  0  3  0  0  0  0  0  0
  162.4580  208.7200  148.5730 C   0  0  0  0  0  2  0  0  0  0  0  0
  162.0610  210.2580  150.3150 O   0  0  0  0  0  0  0  0  0  0  0  0
  161.9520  209.0980  149.9410 C   0  0  0  0  0  0  0  0  0  0  0  0
  161.2300  208.0950  150.8050 C   0  0  0  0  0  2  0  0  0  0  0  0
  160.2310  209.3720  152.5930 O   0  0  0  0  0  1  0  0  0  0  0  0
  161.2290  208.4350  152.3170 C   0  0  1  0  0  3  0  0  0  0  0  0
  161.0570  207.2300  153.2510 C   0  0  0  0  0  1  0  0  0  0  0  0
  1 15  1  6  0  0  0
  1  7  1  0  0  0  0
  1 12  1  0  0  0  0
  2 10  1  0  0  0  0
  3  9  1  0  0  0  0
  5 14  1  1  0  0  0
  5  4  1  0  0  0  0
  6  4  1  0  0  0  0
  7 10  1  0  0  0  0
  8  6  1  0  0  0  0
  9  2  1  0  0  0  0
  9  7  1  0  0  0  0
 10 11  1  0  0  0  0
 10  5  1  0  0  0  0
 11  8  1  0  0  0  0
 11  5  1  0  0  0  0
 12 11  1  0  0  0  0
 12  8  1  0  0  0  0
 13 14  1  0  0  0  0
 15 20  1  0  0  0  0
 16 15  1  0  0  0  0
 17 15  1  0  0  0  0
 18 17  1  0  0  0  0
 19 17  1  0  0  0  0
 20 21  2  0  0  0  0
 21 22  1  0  0  0  0
 22 24  1  0  0  0  0
 24 23  2  0  0  0  0
 24 25  1  0  0  0  0
 25 27  1  0  0  0  0
 27 26  1  0  0  0  0
 27 28  1  0  0  0  0
M  END
>  <MODEL>
6

>  <REMARK>
 VINA RESULT:      -5.6      2.216      4.674
  Name = 
  8 active torsions:
  status: ('A' for Active; 'I' for Inactive)
    1  A    between atoms: C_1  and  C_21
    2  A    between atoms: C_4  and  C_21
    3  A    between atoms: N_6  and  C_21
    4  A    between atoms: C_10  and  C_17
    5  A    between atoms: C_11  and  O_19
    6  A    between atoms: C_15  and  C_23
    7  A    between atoms: C_17  and  C_27
    8  A    between atoms: C_23  and  C_27
                            x       y       z     vdW  Elec       q    Type
                         _______ _______ _______ _____ _____    ______ ____

>  <TORSDO>
F 8

$$$$
=
 OpenBabel11072411153D

 28 32  0  0  1  0  0  0  0  0999 V2000
  161.2070  203.9070  149.0250 C   0  0  2  0  0  3  0  0  0  0  0  0
  160.9010  203.5020  145.8110 C   0  0  0  0  0  2  0  0  0  0  0  0
  161.0170  205.8690  146.6870 C   0  0  0  0  0  1  0  0  0  0  0  0
  162.0650  200.5840  148.2910 C   0  0  0  0  0  2  0  0  0  0  0  0
  161.2060  201.2230  147.2130 C   0  0  2  0  0  0  0  0  0  0  0  0
  161.5360  201.1170  149.5840 C   0  0  0  0  0  2  0  0  0  0  0  0
  162.0190  203.7010  147.7430 C   0  0  2  0  0  3  0  0  0  0  0  0
  160.1140  201.5880  149.2770 C   0  0  2  0  0  3  0  0  0  0  0  0
  161.7780  204.5830  146.4690 C   0  0  1  0  0  3  0  0  0  0  0  0
  161.2120  202.6760  147.0270 C   0  0  1  0  0  0  0  0  0  0  0  0
  160.0130  202.0550  147.7980 C   0  0  1  0  0  0  0  0  0  0  0  0
  159.9430  203.0480  148.9860 C   0  0  2  0  0  3  0  0  0  0  0  0
  161.5100  199.3470  146.1650 O   0  0  0  0  0  1  0  0  0  0  0  0
  160.7900  200.4490  146.1270 O   0  0  0  0  0  0  0  0  0  0  0  0
  161.2070  205.2260  149.8470 C   0  0  1  0  0  0  0  0  0  0  0  0
  159.7630  205.6330  150.1340 C   0  0  0  0  0  1  0  0  0  0  0  0
  161.9320  204.9860  151.1940 C   0  0  2  0  0  3  0  0  0  0  0  0
  161.7740  203.6670  151.6330 O   0  0  0  0  0  1  0  0  0  0  0  0
  161.4920  205.9380  152.3060 C   0  0  0  0  0  1  0  0  0  0  0  0
  161.8640  206.3120  149.1430 N   0  0  0  0  0  0  0  0  0  0  0  0
  161.5160  207.5430  149.2680 C   0  0  0  0  0  3  0  0  0  0  0  0
  162.3240  208.6290  148.6360 C   0  0  0  0  0  2  0  0  0  0  0  0
  162.0060  210.1780  150.3840 O   0  0  0  0  0  0  0  0  0  0  0  0
  161.9560  209.9870  149.1770 C   0  0  0  0  0  0  0  0  0  0  0  0
  161.6300  211.1290  148.2490 C   0  0  0  0  0  2  0  0  0  0  0  0
  163.6640  212.1980  147.5130 O   0  0  0  0  0  1  0  0  0  0  0  0
  162.5760  212.3490  148.3760 C   0  0  1  0  0  3  0  0  0  0  0  0
  161.9170  213.7100  148.1170 C   0  0  0  0  0  1  0  0  0  0  0  0
  1 15  1  6  0  0  0
  2  9  1  0  0  0  0
  2 10  1  0  0  0  0
  4  6  1  0  0  0  0
  5 14  1  6  0  0  0
  5 11  1  0  0  0  0
  5  4  1  0  0  0  0
  7  1  1  0  0  0  0
  8  6  1  0  0  0  0
  9  3  1  0  0  0  0
  9  7  1  0  0  0  0
 10  5  1  0  0  0  0
 10  7  1  0  0  0  0
 10 11  1  0  0  0  0
 11 12  1  0  0  0  0
 11  8  1  0  0  0  0
 12  1  1  0  0  0  0
 12  8  1  0  0  0  0
 14 13  1  0  0  0  0
 15 16  1  0  0  0  0
 15 17  1  0  0  0  0
 17 18  1  0  0  0  0
 17 19  1  0  0  0  0
 20 21  2  0  0  0  0
 20 15  1  0  0  0  0
 22 24  1  0  0  0  0
 22 21  1  0  0  0  0
 24 23  2  0  0  0  0
 25 27  1  0  0  0  0
 25 24  1  0  0  0  0
 26 27  1  0  0  0  0
 28 27  1  0  0  0  0
M  END
>  <MODEL>
7

>  <REMARK>
 VINA RESULT:      -5.5      2.709      4.904
  Name = 
  8 active torsions:
  status: ('A' for Active; 'I' for Inactive)
    1  A    between atoms: C_1  and  C_21
    2  A    between atoms: C_4  and  C_21
    3  A    between atoms: N_6  and  C_21
    4  A    between atoms: C_10  and  C_17
    5  A    between atoms: C_11  and  O_19
    6  A    between atoms: C_15  and  C_23
    7  A    between atoms: C_17  and  C_27
    8  A    between atoms: C_23  and  C_27
                            x       y       z     vdW  Elec       q    Type
                         _______ _______ _______ _____ _____    ______ ____

>  <TORSDO>
F 8

$$$$
=
 OpenBabel11072411153D

 28 32  0  0  1  0  0  0  0  0999 V2000
  161.1230  208.4870  152.0650 C   0  0  2  0  0  3  0  0  0  0  0  0
  161.7750  205.6540  153.5270 C   0  0  0  0  0  2  0  0  0  0  0  0
  161.4900  207.6910  154.9950 C   0  0  0  0  0  1  0  0  0  0  0  0
  160.4570  205.9270  149.7580 C   0  0  0  0  0  2  0  0  0  0  0  0
  161.4020  205.4920  150.8650 C   0  0  2  0  0  0  0  0  0  0  0  0
  160.8310  207.3440  149.4550 C   0  0  0  0  0  2  0  0  0  0  0  0
  160.4560  207.2350  152.6410 C   0  0  2  0  0  3  0  0  0  0  0  0
  162.2610  207.5050  149.9730 C   0  0  2  0  0  3  0  0  0  0  0  0
  160.7990  206.7090  154.0780 C   0  0  1  0  0  3  0  0  0  0  0  0
  161.3670  206.1550  152.1710 C   0  0  1  0  0  0  0  0  0  0  0  0
  162.4990  206.5640  151.1870 C   0  0  1  0  0  0  0  0  0  0  0  0
  162.4120  208.1050  151.3380 C   0  0  2  0  0  3  0  0  0  0  0  0
  161.1630  203.4960  150.0480 O   0  0  0  0  0  1  0  0  0  0  0  0
  161.9540  204.2100  150.8230 O   0  0  0  0  0  0  0  0  0  0  0  0
  160.9940  209.9030  152.6930 C   0  0  1  0  0  0  0  0  0  0  0  0
  162.3520  210.3270  153.2470 C   0  0  0  0  0  1  0  0  0  0  0  0
  160.5690  210.9090  151.5960 C   0  0  2  0  0  3  0  0  0  0  0  0
  161.6070  211.1480  150.6900 O   0  0  0  0  0  1  0  0  0  0  0  0
  160.0710  212.2450  152.1480 C   0  0  0  0  0  1  0  0  0  0  0  0
  160.0220  209.9390  153.7710 N   0  0  0  0  0  0  0  0  0  0  0  0
  160.2490  210.5020  154.9030 C   0  0  0  0  0  3  0  0  0  0  0  0
  159.1600  210.6390  155.9160 C   0  0  0  0  0  2  0  0  0  0  0  0
  159.3950  212.9770  155.7320 O   0  0  0  0  0  0  0  0  0  0  0  0
  158.6390  212.0510  155.9920 C   0  0  0  0  0  0  0  0  0  0  0  0
  157.1860  212.3270  156.2840 C   0  0  0  0  0  2  0  0  0  0  0  0
  156.9160  212.3290  153.8860 O   0  0  0  0  0  1  0  0  0  0  0  0
  156.2360  212.0950  155.0830 C   0  0  1  0  0  3  0  0  0  0  0  0
  155.5900  210.7040  155.0280 C   0  0  0  0  0  1  0  0  0  0  0  0
  1  7  1  0  0  0  0
  1 15  1  1  0  0  0
  2  9  1  0  0  0  0
  4  5  1  0  0  0  0
  5 14  1  6  0  0  0
  5 11  1  0  0  0  0
  5 10  1  0  0  0  0
  6  4  1  0  0  0  0
  6  8  1  0  0  0  0
  7  9  1  0  0  0  0
  8 11  1  0  0  0  0
  8 12  1  0  0  0  0
  9  3  1  0  0  0  0
 10  7  1  0  0  0  0
 10  2  1  0  0  0  0
 11 12  1  0  0  0  0
 11 10  1  0  0  0  0
 12  1  1  0  0  0  0
 13 14  1  0  0  0  0
 15 16  1  0  0  0  0
 15 20  1  0  0  0  0
 17 19  1  0  0  0  0
 17 15  1  0  0  0  0
 18 17  1  0  0  0  0
 20 21  2  0  0  0  0
 21 22  1  0  0  0  0
 22 24  1  0  0  0  0
 23 24  2  0  0  0  0
 24 25  1  0  0  0  0
 26 27  1  0  0  0  0
 27 25  1  0  0  0  0
 28 27  1  0  0  0  0
M  END
>  <MODEL>
8

>  <REMARK>
 VINA RESULT:      -5.4      2.731      4.391
  Name = 
  8 active torsions:
  status: ('A' for Active; 'I' for Inactive)
    1  A    between atoms: C_1  and  C_21
    2  A    between atoms: C_4  and  C_21
    3  A    between atoms: N_6  and  C_21
    4  A    between atoms: C_10  and  C_17
    5  A    between atoms: C_11  and  O_19
    6  A    between atoms: C_15  and  C_23
    7  A    between atoms: C_17  and  C_27
    8  A    between atoms: C_23  and  C_27
                            x       y       z     vdW  Elec       q    Type
                         _______ _______ _______ _____ _____    ______ ____

>  <TORSDO>
F 8

$$$$
=
 OpenBabel11072411153D

 28 32  0  0  1  0  0  0  0  0999 V2000
  161.6890  204.5460  148.1670 C   0  0  2  0  0  3  0  0  0  0  0  0
  160.2180  201.6910  148.6950 C   0  0  0  0  0  2  0  0  0  0  0  0
  160.8180  202.2770  146.3110 C   0  0  0  0  0  1  0  0  0  0  0  0
  161.9750  203.8240  151.5900 C   0  0  0  0  0  2  0  0  0  0  0  0
  160.8360  203.0730  150.9220 C   0  0  2  0  0  0  0  0  0  0  0  0
  161.9880  205.1740  150.9450 C   0  0  0  0  0  2  0  0  0  0  0  0
  161.9680  203.0800  148.5130 C   0  0  2  0  0  3  0  0  0  0  0  0
  160.5900  205.3530  150.3520 C   0  0  2  0  0  3  0  0  0  0  0  0
  161.3510  201.9070  147.6750 C   0  0  1  0  0  3  0  0  0  0  0  0
  160.8830  202.7810  149.4870 C   0  0  1  0  0  0  0  0  0  0  0  0
  159.9990  203.9730  149.9490 C   0  0  1  0  0  0  0  0  0  0  0  0
  160.4360  205.0250  148.8980 C   0  0  2  0  0  3  0  0  0  0  0  0
  160.0790  202.7440  152.9290 O   0  0  0  0  0  1  0  0  0  0  0  0
  160.0010  202.2710  151.7030 O   0  0  0  0  0  0  0  0  0  0  0  0
  162.0830  205.2060  146.8160 C   0  0  1  0  0  0  0  0  0  0  0  0
  163.3510  204.5380  146.2880 C   0  0  0  0  0  1  0  0  0  0  0  0
  160.9440  204.9880  145.7920 C   0  0  2  0  0  3  0  0  0  0  0  0
  161.4430  204.6160  144.5400 O   0  0  0  0  0  1  0  0  0  0  0  0
  160.0290  206.2020  145.6230 C   0  0  0  0  0  1  0  0  0  0  0  0
  162.3320  206.6290  146.9530 N   0  0  0  0  0  0  0  0  0  0  0  0
  162.2910  207.2460  148.0800 C   0  0  0  0  0  3  0  0  0  0  0  0
  162.7030  208.6780  148.1790 C   0  0  0  0  0  2  0  0  0  0  0  0
  161.5060  208.6740  150.2090 O   0  0  0  0  0  0  0  0  0  0  0  0
  162.0930  209.3550  149.3790 C   0  0  0  0  0  0  0  0  0  0  0  0
  162.2830  210.8310  149.6170 C   0  0  0  0  0  2  0  0  0  0  0  0
  160.8860  212.5610  148.6780 O   0  0  0  0  0  1  0  0  0  0  0  0
  161.9670  211.7240  148.3900 C   0  0  1  0  0  3  0  0  0  0  0  0
  163.1400  212.5760  147.8900 C   0  0  0  0  0  1  0  0  0  0  0  0
  1 15  1  6  0  0  0
  1  7  1  0  0  0  0
  1 12  1  0  0  0  0
  2 10  1  0  0  0  0
  3  9  1  0  0  0  0
  5  4  1  0  0  0  0
  5 14  1  1  0  0  0
  6  4  1  0  0  0  0
  7 10  1  0  0  0  0
  8  6  1  0  0  0  0
  9  7  1  0  0  0  0
  9  2  1  0  0  0  0
 10 11  1  0  0  0  0
 10  5  1  0  0  0  0
 11  8  1  0  0  0  0
 11  5  1  0  0  0  0
 12 11  1  0  0  0  0
 12  8  1  0  0  0  0
 14 13  1  0  0  0  0
 15 20  1  0  0  0  0
 16 15  1  0  0  0  0
 17 15  1  0  0  0  0
 18 17  1  0  0  0  0
 19 17  1  0  0  0  0
 20 21  2  0  0  0  0
 21 22  1  0  0  0  0
 22 24  1  0  0  0  0
 24 25  1  0  0  0  0
 24 23  2  0  0  0  0
 27 26  1  0  0  0  0
 27 25  1  0  0  0  0
 28 27  1  0  0  0  0
M  END
>  <MODEL>
9

>  <REMARK>
 VINA RESULT:      -5.3      3.000      5.239
  Name = 
  8 active torsions:
  status: ('A' for Active; 'I' for Inactive)
    1  A    between atoms: C_1  and  C_21
    2  A    between atoms: C_4  and  C_21
    3  A    between atoms: N_6  and  C_21
    4  A    between atoms: C_10  and  C_17
    5  A    between atoms: C_11  and  O_19
    6  A    between atoms: C_15  and  C_23
    7  A    between atoms: C_17  and  C_27
    8  A    between atoms: C_23  and  C_27
                            x       y       z     vdW  Elec       q    Type
                         _______ _______ _______ _____ _____    ______ ____

>  <TORSDO>
F 8

$$$$
