=
 OpenBabel11072411353D

 25 27  0  0  1  0  0  0  0  0999 V2000
  161.2950  207.3320  152.1590 C   0  0  1  0  0  3  0  0  0  0  0  0
  160.0260  211.8320  156.4080 O   0  0  0  0  0  0  0  0  0  0  0  0
  160.3200  209.4550  156.6830 C   0  0  0  0  0  2  0  0  0  0  0  0
  161.1850  208.6210  152.9830 C   0  0  1  0  0  3  0  0  0  0  0  0
  159.7370  210.5820  154.5520 C   0  0  1  0  0  3  0  0  0  0  0  0
  159.2770  211.6950  155.3130 O   0  0  0  0  0  0  0  0  0  0  0  0
  160.1980  209.6020  152.3300 C   0  0  0  0  0  2  0  0  0  0  0  0
  160.8510  208.3660  154.4690 C   0  0  0  0  0  2  0  0  0  0  0  0
  162.1660  210.3260  155.2670 C   0  0  0  0  0  1  0  0  0  0  0  0
  159.7190  210.7490  157.2610 C   0  0  0  0  0  2  0  0  0  0  0  0
  160.1020  210.9140  153.1130 C   0  0  0  0  0  2  0  0  0  0  0  0
  160.7800  209.6810  155.2430 C   0  0  2  0  0  0  0  0  0  0  0  0
  162.1180  206.8920  148.3840 C   0  0  0  0  0  0  0  0  0  0  0  0
  161.9500  205.8570  147.4190 N   0  0  0  0  0  2  0  0  0  0  0  0
  161.6920  206.6410  149.7810 C   0  0  0  0  0  0  0  0  0  0  0  0
  161.2000  205.3650  150.0880 O   0  0  0  0  0  0  0  0  0  0  0  0
  161.7240  207.5910  150.7390 C   0  0  0  0  0  0  0  0  0  0  0  0
  161.5250  204.5540  147.8160 C   0  0  0  0  0  0  0  0  0  0  0  0
  160.3550  203.1810  149.5490 C   0  0  0  0  0  1  0  0  0  0  0  0
  161.4370  204.2100  149.2800 C   0  0  2  0  0  3  0  0  0  0  0  0
  162.6010  207.9980  148.0230 O   0  0  0  0  0  0  0  0  0  0  0  0
  162.1840  208.8710  150.4500 O   0  0  0  0  0  1  0  0  0  0  0  0
  161.3250  203.6720  146.9370 O   0  0  0  0  0  0  0  0  0  0  0  0
  161.2000  205.1560  153.1690 O   0  0  0  0  0  1  0  0  0  0  0  0
  162.0670  206.1930  152.8270 C   0  0  0  0  0  2  0  0  0  0  0  0
  1 25  1  1  0  0  0
  2 10  1  0  0  0  0
  3 10  1  0  0  0  0
  4  1  1  6  0  0  0
  4  8  1  0  0  0  0
  5 11  1  6  0  0  0
  5 12  1  0  0  0  0
  5  6  1  0  0  0  0
  6  2  1  0  0  0  0
  7  4  1  0  0  0  0
  7 11  1  0  0  0  0
  8 12  1  0  0  0  0
 12  9  1  6  0  0  0
 12  3  1  0  0  0  0
 13 15  1  0  0  0  0
 14 18  1  0  0  0  0
 14 13  1  0  0  0  0
 15 16  1  0  0  0  0
 15 17  2  0  0  0  0
 17  1  1  0  0  0  0
 18 20  1  0  0  0  0
 20 19  1  6  0  0  0
 20 16  1  0  0  0  0
 21 13  2  0  0  0  0
 22 17  1  0  0  0  0
 23 18  2  0  0  0  0
 25 24  1  0  0  0  0
M  END
>  <MODEL>
1

>  <REMARK>
 VINA RESULT:      -7.7      0.000      0.000
  Name = 
  3 active torsions:
  status: ('A' for Active; 'I' for Inactive)
    1  A    between atoms: C_4  and  C_18
    2  A    between atoms: C_10  and  C_18
    3  A    between atoms: C_15  and  C_18
                            x       y       z     vdW  Elec       q    Type
                         _______ _______ _______ _____ _____    ______ ____

>  <TORSDO>
F 3

$$$$
=
 OpenBabel11072411353D

 25 27  0  0  1  0  0  0  0  0999 V2000
  161.3980  207.4480  150.0360 C   0  0  1  0  0  3  0  0  0  0  0  0
  161.4320  203.0710  145.4790 O   0  0  0  0  0  0  0  0  0  0  0  0
  161.0430  205.4480  145.3660 C   0  0  0  0  0  2  0  0  0  0  0  0
  161.6520  206.2380  149.1260 C   0  0  1  0  0  3  0  0  0  0  0  0
  160.8100  204.0610  147.4090 C   0  0  1  0  0  3  0  0  0  0  0  0
  160.6800  202.9170  146.5690 O   0  0  0  0  0  0  0  0  0  0  0  0
  160.9840  204.9780  149.6980 C   0  0  0  0  0  2  0  0  0  0  0  0
  161.2540  206.4900  147.6560 C   0  0  0  0  0  2  0  0  0  0  0  0
  163.0650  205.0380  146.7500 C   0  0  0  0  0  1  0  0  0  0  0  0
  160.8290  204.0800  144.6950 C   0  0  0  0  0  2  0  0  0  0  0  0
  161.2590  203.7480  148.8280 C   0  0  0  0  0  2  0  0  0  0  0  0
  161.5540  205.2640  146.7960 C   0  0  2  0  0  0  0  0  0  0  0  0
  161.0920  207.5790  153.9100 C   0  0  0  0  0  0  0  0  0  0  0  0
  160.5270  208.4820  154.8570 N   0  0  0  0  0  2  0  0  0  0  0  0
  161.0330  207.9260  152.4700 C   0  0  0  0  0  0  0  0  0  0  0  0
  160.4720  209.1630  152.1250 O   0  0  0  0  0  0  0  0  0  0  0  0
  161.4550  207.0910  151.4980 C   0  0  0  0  0  0  0  0  0  0  0  0
  160.0500  209.7630  154.4470 C   0  0  0  0  0  0  0  0  0  0  0  0
  159.2200  211.1690  152.5520 C   0  0  0  0  0  1  0  0  0  0  0  0
  160.3190  210.2460  153.0460 C   0  0  2  0  0  3  0  0  0  0  0  0
  161.6060  206.5030  154.3160 O   0  0  0  0  0  0  0  0  0  0  0  0
  161.9910  205.8480  151.8160 O   0  0  0  0  0  1  0  0  0  0  0  0
  159.5000  210.5200  155.2920 O   0  0  0  0  0  0  0  0  0  0  0  0
  161.5380  209.4350  148.6960 O   0  0  0  0  0  1  0  0  0  0  0  0
  162.1940  208.7070  149.6880 C   0  0  0  0  0  2  0  0  0  0  0  0
  1 25  1  1  0  0  0
  1 17  1  0  0  0  0
  2  6  1  0  0  0  0
  3 12  1  0  0  0  0
  4  7  1  0  0  0  0
  4  1  1  1  0  0  0
  5 11  1  1  0  0  0
  6  5  1  0  0  0  0
  8  4  1  0  0  0  0
 10  3  1  0  0  0  0
 10  2  1  0  0  0  0
 11  7  1  0  0  0  0
 12  9  1  6  0  0  0
 12  5  1  0  0  0  0
 12  8  1  0  0  0  0
 13 21  2  0  0  0  0
 13 14  1  0  0  0  0
 15 13  1  0  0  0  0
 16 15  1  0  0  0  0
 16 20  1  0  0  0  0
 17 22  1  0  0  0  0
 17 15  2  0  0  0  0
 18 14  1  0  0  0  0
 18 23  2  0  0  0  0
 20 19  1  6  0  0  0
 20 18  1  0  0  0  0
 24 25  1  0  0  0  0
M  END
>  <MODEL>
2

>  <REMARK>
 VINA RESULT:      -7.7      2.189      8.290
  Name = 
  3 active torsions:
  status: ('A' for Active; 'I' for Inactive)
    1  A    between atoms: C_4  and  C_18
    2  A    between atoms: C_10  and  C_18
    3  A    between atoms: C_15  and  C_18
                            x       y       z     vdW  Elec       q    Type
                         _______ _______ _______ _____ _____    ______ ____

>  <TORSDO>
F 3

$$$$
=
 OpenBabel11072411353D

 25 27  0  0  1  0  0  0  0  0999 V2000
  161.1630  206.6150  152.1080 C   0  0  1  0  0  3  0  0  0  0  0  0
  160.8120  210.6030  156.9950 O   0  0  0  0  0  0  0  0  0  0  0  0
  162.2510  210.6180  155.0600 C   0  0  0  0  0  2  0  0  0  0  0  0
  160.7400  207.5050  153.2830 C   0  0  1  0  0  3  0  0  0  0  0  0
  161.0610  208.6260  155.9370 C   0  0  1  0  0  3  0  0  0  0  0  0
  160.9540  209.2930  157.1920 O   0  0  0  0  0  0  0  0  0  0  0  0
  160.4990  206.6620  154.5450 C   0  0  0  0  0  2  0  0  0  0  0  0
  161.7150  208.6730  153.5440 C   0  0  0  0  0  2  0  0  0  0  0  0
  159.9160  210.2160  154.3120 C   0  0  0  0  0  1  0  0  0  0  0  0
  162.0480  211.0880  156.5110 C   0  0  0  0  0  2  0  0  0  0  0  0
  160.0340  207.5250  155.7220 C   0  0  0  0  0  2  0  0  0  0  0  0
  161.2290  209.5380  154.7040 C   0  0  2  0  0  0  0  0  0  0  0  0
  161.4820  207.5360  148.3440 C   0  0  0  0  0  0  0  0  0  0  0  0
  161.4300  206.8210  147.1120 N   0  0  0  0  0  2  0  0  0  0  0  0
  161.3500  206.7820  149.6130 C   0  0  0  0  0  0  0  0  0  0  0  0
  161.2430  205.3870  149.5290 O   0  0  0  0  0  0  0  0  0  0  0  0
  161.2910  207.3830  150.8200 C   0  0  0  0  0  0  0  0  0  0  0  0
  161.4070  205.3940  147.1000 C   0  0  0  0  0  0  0  0  0  0  0  0
  160.8950  203.3060  148.3790 C   0  0  0  0  0  1  0  0  0  0  0  0
  161.6330  204.6320  148.3790 C   0  0  2  0  0  3  0  0  0  0  0  0
  161.6130  208.7890  148.3230 O   0  0  0  0  0  0  0  0  0  0  0  0
  161.3700  208.7680  150.9250 O   0  0  0  0  0  1  0  0  0  0  0  0
  161.3010  204.7850  146.0010 O   0  0  0  0  0  0  0  0  0  0  0  0
  161.9770  204.3580  152.2030 O   0  0  0  0  0  1  0  0  0  0  0  0
  162.3500  205.6890  152.3820 C   0  0  0  0  0  2  0  0  0  0  0  0
  1 25  1  1  0  0  0
  2  6  1  0  0  0  0
  3 10  1  0  0  0  0
  4  1  1  6  0  0  0
  4  8  1  0  0  0  0
  4  7  1  0  0  0  0
  5 11  1  6  0  0  0
  5  6  1  0  0  0  0
  7 11  1  0  0  0  0
  8 12  1  0  0  0  0
 10  2  1  0  0  0  0
 12  9  1  6  0  0  0
 12  3  1  0  0  0  0
 12  5  1  0  0  0  0
 13 15  1  0  0  0  0
 14 13  1  0  0  0  0
 15 17  2  0  0  0  0
 16 15  1  0  0  0  0
 17 22  1  0  0  0  0
 17  1  1  0  0  0  0
 18 14  1  0  0  0  0
 18 20  1  0  0  0  0
 20 19  1  6  0  0  0
 20 16  1  0  0  0  0
 21 13  2  0  0  0  0
 23 18  2  0  0  0  0
 24 25  1  0  0  0  0
M  END
>  <MODEL>
3

>  <REMARK>
 VINA RESULT:      -7.3      1.264      1.921
  Name = 
  3 active torsions:
  status: ('A' for Active; 'I' for Inactive)
    1  A    between atoms: C_4  and  C_18
    2  A    between atoms: C_10  and  C_18
    3  A    between atoms: C_15  and  C_18
                            x       y       z     vdW  Elec       q    Type
                         _______ _______ _______ _____ _____    ______ ____

>  <TORSDO>
F 3

$$$$
=
 OpenBabel11072411353D

 25 27  0  0  1  0  0  0  0  0999 V2000
  161.5550  206.7240  150.6800 C   0  0  1  0  0  3  0  0  0  0  0  0
  160.8870  209.8280  156.1420 O   0  0  0  0  0  0  0  0  0  0  0  0
  161.9160  210.5070  154.0700 C   0  0  0  0  0  2  0  0  0  0  0  0
  161.0950  207.3010  152.0250 C   0  0  1  0  0  3  0  0  0  0  0  0
  161.5160  208.1590  154.7610 C   0  0  1  0  0  3  0  0  0  0  0  0
  161.4320  208.6130  156.1090 O   0  0  0  0  0  0  0  0  0  0  0  0
  161.3220  206.2870  153.1580 C   0  0  0  0  0  2  0  0  0  0  0  0
  161.7210  208.6760  152.3430 C   0  0  0  0  0  2  0  0  0  0  0  0
  159.7070  209.4890  153.5650 C   0  0  0  0  0  1  0  0  0  0  0  0
  161.8310  210.7230  155.5910 C   0  0  0  0  0  2  0  0  0  0  0  0
  160.8310  206.8250  154.5040 C   0  0  0  0  0  2  0  0  0  0  0  0
  161.2060  209.2110  153.6780 C   0  0  2  0  0  0  0  0  0  0  0  0
  160.8460  203.2110  149.1720 C   0  0  0  0  0  0  0  0  0  0  0  0
  160.9850  202.6060  147.8880 N   0  0  0  0  0  2  0  0  0  0  0  0
  161.2040  204.6410  149.3300 C   0  0  0  0  0  0  0  0  0  0  0  0
  161.6040  205.3380  148.1810 O   0  0  0  0  0  0  0  0  0  0  0  0
  161.1960  205.2700  150.5230 C   0  0  0  0  0  0  0  0  0  0  0  0
  161.3140  203.3940  146.7450 C   0  0  0  0  0  0  0  0  0  0  0  0
  162.3310  205.5170  145.8980 C   0  0  0  0  0  1  0  0  0  0  0  0
  161.3260  204.8960  146.8510 C   0  0  2  0  0  3  0  0  0  0  0  0
  160.4470  202.5130  150.1410 O   0  0  0  0  0  0  0  0  0  0  0  0
  160.8270  204.5910  151.6790 O   0  0  0  0  0  1  0  0  0  0  0  0
  161.4900  202.8280  145.6320 O   0  0  0  0  0  0  0  0  0  0  0  0
  162.3280  208.2870  149.0290 O   0  0  0  0  0  1  0  0  0  0  0  0
  161.2100  207.5700  149.4530 C   0  0  0  0  0  2  0  0  0  0  0  0
  1 25  1  6  0  0  0
  3 10  1  0  0  0  0
  4  1  1  6  0  0  0
  4  8  1  0  0  0  0
  4  7  1  0  0  0  0
  5 11  1  1  0  0  0
  5  6  1  0  0  0  0
  6  2  1  0  0  0  0
  7 11  1  0  0  0  0
  8 12  1  0  0  0  0
 10  2  1  0  0  0  0
 12  9  1  6  0  0  0
 12  3  1  0  0  0  0
 12  5  1  0  0  0  0
 13 15  1  0  0  0  0
 13 21  2  0  0  0  0
 14 13  1  0  0  0  0
 15 17  2  0  0  0  0
 16 15  1  0  0  0  0
 17  1  1  0  0  0  0
 17 22  1  0  0  0  0
 18 20  1  0  0  0  0
 18 14  1  0  0  0  0
 20 19  1  6  0  0  0
 20 16  1  0  0  0  0
 23 18  2  0  0  0  0
 24 25  1  0  0  0  0
M  END
>  <MODEL>
4

>  <REMARK>
 VINA RESULT:      -7.1      1.683      3.349
  Name = 
  3 active torsions:
  status: ('A' for Active; 'I' for Inactive)
    1  A    between atoms: C_4  and  C_18
    2  A    between atoms: C_10  and  C_18
    3  A    between atoms: C_15  and  C_18
                            x       y       z     vdW  Elec       q    Type
                         _______ _______ _______ _____ _____    ______ ____

>  <TORSDO>
F 3

$$$$
=
 OpenBabel11072411353D

 25 27  0  0  1  0  0  0  0  0999 V2000
  161.7130  205.6090  150.6740 C   0  0  1  0  0  3  0  0  0  0  0  0
  161.3420  203.7170  144.6570 O   0  0  0  0  0  0  0  0  0  0  0  0
  160.8370  205.8490  145.6630 C   0  0  0  0  0  2  0  0  0  0  0  0
  161.8980  204.9560  149.2980 C   0  0  1  0  0  3  0  0  0  0  0  0
  160.9350  203.6880  146.8760 C   0  0  1  0  0  3  0  0  0  0  0  0
  160.7470  203.0260  145.6280 O   0  0  0  0  0  0  0  0  0  0  0  0
  161.3680  203.5140  149.3040 C   0  0  0  0  0  2  0  0  0  0  0  0
  161.3000  205.7890  148.1440 C   0  0  0  0  0  2  0  0  0  0  0  0
  163.0390  205.0710  146.5100 C   0  0  0  0  0  1  0  0  0  0  0  0
  160.5980  204.9040  144.4730 C   0  0  0  0  0  2  0  0  0  0  0  0
  161.5800  202.8270  147.9520 C   0  0  0  0  0  2  0  0  0  0  0  0
  161.5380  205.1050  146.8000 C   0  0  2  0  0  0  0  0  0  0  0  0
  161.8680  209.3660  151.6630 C   0  0  0  0  0  0  0  0  0  0  0  0
  161.6980  210.1100  152.8670 N   0  0  0  0  0  2  0  0  0  0  0  0
  161.6790  207.8960  151.7000 C   0  0  0  0  0  0  0  0  0  0  0  0
  161.2800  207.3260  152.9170 O   0  0  0  0  0  0  0  0  0  0  0  0
  161.9110  207.1010  150.6350 C   0  0  0  0  0  0  0  0  0  0  0  0
  161.2080  209.4800  154.0490 C   0  0  0  0  0  0  0  0  0  0  0  0
  160.8950  207.3290  155.2880 C   0  0  0  0  0  1  0  0  0  0  0  0
  160.6820  208.0700  153.9810 C   0  0  2  0  0  3  0  0  0  0  0  0
  162.1960  209.9690  150.6070 O   0  0  0  0  0  0  0  0  0  0  0  0
  162.3310  207.6430  149.4260 O   0  0  0  0  0  1  0  0  0  0  0  0
  161.1230  210.1440  155.1170 O   0  0  0  0  0  0  0  0  0  0  0  0
  160.7850  204.2790  152.4450 O   0  0  0  0  0  1  0  0  0  0  0  0
  160.4560  205.1840  151.4350 C   0  0  0  0  0  2  0  0  0  0  0  0
  1 25  1  6  0  0  0
  2  6  1  0  0  0  0
  3 12  1  0  0  0  0
  4  7  1  0  0  0  0
  4  1  1  1  0  0  0
  5 11  1  1  0  0  0
  6  5  1  0  0  0  0
  8  4  1  0  0  0  0
 10  2  1  0  0  0  0
 10  3  1  0  0  0  0
 11  7  1  0  0  0  0
 12  9  1  6  0  0  0
 12  5  1  0  0  0  0
 12  8  1  0  0  0  0
 13 15  1  0  0  0  0
 13 14  1  0  0  0  0
 14 18  1  0  0  0  0
 15 16  1  0  0  0  0
 16 20  1  0  0  0  0
 17  1  1  0  0  0  0
 17 15  2  0  0  0  0
 18 23  2  0  0  0  0
 20 18  1  0  0  0  0
 20 19  1  1  0  0  0
 21 13  2  0  0  0  0
 22 17  1  0  0  0  0
 25 24  1  0  0  0  0
M  END
>  <MODEL>
5

>  <REMARK>
 VINA RESULT:      -6.9      2.223      8.000
  Name = 
  3 active torsions:
  status: ('A' for Active; 'I' for Inactive)
    1  A    between atoms: C_4  and  C_18
    2  A    between atoms: C_10  and  C_18
    3  A    between atoms: C_15  and  C_18
                            x       y       z     vdW  Elec       q    Type
                         _______ _______ _______ _____ _____    ______ ____

>  <TORSDO>
F 3

$$$$
=
 OpenBabel11072411353D

 25 27  0  0  1  0  0  0  0  0999 V2000
  161.6850  208.2550  152.2380 C   0  0  1  0  0  3  0  0  0  0  0  0
  159.2680  212.2040  156.5360 O   0  0  0  0  0  0  0  0  0  0  0  0
  158.3210  211.3420  154.4930 C   0  0  0  0  0  2  0  0  0  0  0  0
  161.2840  209.0230  153.5040 C   0  0  1  0  0  3  0  0  0  0  0  0
  160.7450  211.4390  155.0130 C   0  0  1  0  0  3  0  0  0  0  0  0
  160.4560  212.4430  155.9820 O   0  0  0  0  0  0  0  0  0  0  0  0
  162.4180  209.9570  153.9560 C   0  0  0  0  0  2  0  0  0  0  0  0
  159.9400  209.7690  153.3630 C   0  0  0  0  0  2  0  0  0  0  0  0
  159.3310  209.4580  155.7590 C   0  0  0  0  0  1  0  0  0  0  0  0
  158.2890  212.4600  155.5500 C   0  0  0  0  0  2  0  0  0  0  0  0
  162.0560  210.7030  155.2430 C   0  0  0  0  0  2  0  0  0  0  0  0
  159.5810  210.4910  154.6590 C   0  0  2  0  0  0  0  0  0  0  0  0
  161.0330  204.5210  151.3710 C   0  0  0  0  0  0  0  0  0  0  0  0
  161.0620  203.7300  150.1850 N   0  0  0  0  0  2  0  0  0  0  0  0
  161.3150  205.9730  151.2680 C   0  0  0  0  0  0  0  0  0  0  0  0
  161.5350  206.5000  149.9880 O   0  0  0  0  0  0  0  0  0  0  0  0
  161.4040  206.7800  152.3450 C   0  0  0  0  0  0  0  0  0  0  0  0
  161.2060  204.3440  148.9050 C   0  0  0  0  0  0  0  0  0  0  0  0
  161.9820  206.3530  147.6310 C   0  0  0  0  0  1  0  0  0  0  0  0
  161.1340  205.8440  148.7830 C   0  0  2  0  0  3  0  0  0  0  0  0
  160.7930  203.9650  152.4760 O   0  0  0  0  0  0  0  0  0  0  0  0
  161.2140  206.2730  153.6260 O   0  0  0  0  0  1  0  0  0  0  0  0
  161.2890  203.6210  147.8760 O   0  0  0  0  0  0  0  0  0  0  0  0
  162.1890  209.7040  150.3910 O   0  0  0  0  0  1  0  0  0  0  0  0
  161.2060  208.8690  150.9210 C   0  0  0  0  0  2  0  0  0  0  0  0
  1 25  1  6  0  0  0
  1 17  1  0  0  0  0
  3 12  1  0  0  0  0
  3 10  1  0  0  0  0
  4  1  1  6  0  0  0
  4  7  1  0  0  0  0
  5 11  1  1  0  0  0
  5  6  1  0  0  0  0
  6  2  1  0  0  0  0
  7 11  1  0  0  0  0
  8  4  1  0  0  0  0
  8 12  1  0  0  0  0
 10  2  1  0  0  0  0
 12  5  1  0  0  0  0
 12  9  1  1  0  0  0
 13 21  2  0  0  0  0
 14 13  1  0  0  0  0
 15 13  1  0  0  0  0
 15 17  2  0  0  0  0
 16 15  1  0  0  0  0
 17 22  1  0  0  0  0
 18 14  1  0  0  0  0
 20 19  1  6  0  0  0
 20 18  1  0  0  0  0
 20 16  1  0  0  0  0
 23 18  2  0  0  0  0
 24 25  1  0  0  0  0
M  END
>  <MODEL>
6

>  <REMARK>
 VINA RESULT:      -6.9      1.431      2.928
  Name = 
  3 active torsions:
  status: ('A' for Active; 'I' for Inactive)
    1  A    between atoms: C_4  and  C_18
    2  A    between atoms: C_10  and  C_18
    3  A    between atoms: C_15  and  C_18
                            x       y       z     vdW  Elec       q    Type
                         _______ _______ _______ _____ _____    ______ ____

>  <TORSDO>
F 3

$$$$
=
 OpenBabel11072411353D

 25 27  0  0  1  0  0  0  0  0999 V2000
  161.6950  206.9180  151.0400 C   0  0  1  0  0  3  0  0  0  0  0  0
  160.5890  211.1080  155.6390 O   0  0  0  0  0  0  0  0  0  0  0  0
  159.2930  209.2130  154.9000 C   0  0  0  0  0  2  0  0  0  0  0  0
  161.7720  207.9330  152.1890 C   0  0  1  0  0  3  0  0  0  0  0  0
  161.0140  210.3790  153.5460 C   0  0  1  0  0  3  0  0  0  0  0  0
  160.8580  211.5110  154.3970 O   0  0  0  0  0  0  0  0  0  0  0  0
  162.2170  209.3090  151.6700 C   0  0  0  0  0  2  0  0  0  0  0  0
  160.4700  208.0170  153.0140 C   0  0  0  0  0  2  0  0  0  0  0  0
  161.6630  208.5090  155.1450 C   0  0  0  0  0  1  0  0  0  0  0  0
  159.2830  210.5690  155.6280 C   0  0  0  0  0  2  0  0  0  0  0  0
  162.3420  210.3280  152.8060 C   0  0  0  0  0  2  0  0  0  0  0  0
  160.6150  209.0200  154.1560 C   0  0  2  0  0  0  0  0  0  0  0  0
  160.9330  203.1070  151.1560 C   0  0  0  0  0  0  0  0  0  0  0  0
  160.8530  202.0540  150.1990 N   0  0  0  0  0  2  0  0  0  0  0  0
  161.2200  204.4820  150.6840 C   0  0  0  0  0  0  0  0  0  0  0  0
  161.3370  204.6800  149.3010 O   0  0  0  0  0  0  0  0  0  0  0  0
  161.4080  205.5210  151.5230 C   0  0  0  0  0  0  0  0  0  0  0  0
  160.8950  202.3380  148.8010 C   0  0  0  0  0  0  0  0  0  0  0  0
  161.5820  203.9580  147.0220 C   0  0  0  0  0  1  0  0  0  0  0  0
  160.8290  203.7660  148.3260 C   0  0  2  0  0  3  0  0  0  0  0  0
  160.7810  202.8410  152.3780 O   0  0  0  0  0  0  0  0  0  0  0  0
  161.3220  205.3430  152.9000 O   0  0  0  0  0  1  0  0  0  0  0  0
  160.8830  201.3860  147.9740 O   0  0  0  0  0  0  0  0  0  0  0  0
  161.6290  207.7610  148.7930 O   0  0  0  0  0  1  0  0  0  0  0  0
  160.8270  207.3390  149.8530 C   0  0  0  0  0  2  0  0  0  0  0  0
  1 25  1  6  0  0  0
  1 17  1  0  0  0  0
  3 10  1  0  0  0  0
  4  1  1  6  0  0  0
  4  8  1  0  0  0  0
  5 11  1  1  0  0  0
  5 12  1  0  0  0  0
  5  6  1  0  0  0  0
  6  2  1  0  0  0  0
  7  4  1  0  0  0  0
  7 11  1  0  0  0  0
  8 12  1  0  0  0  0
 10  2  1  0  0  0  0
 12  3  1  0  0  0  0
 12  9  1  1  0  0  0
 13 21  2  0  0  0  0
 14 13  1  0  0  0  0
 15 13  1  0  0  0  0
 15 17  2  0  0  0  0
 16 15  1  0  0  0  0
 17 22  1  0  0  0  0
 18 14  1  0  0  0  0
 20 19  1  6  0  0  0
 20 18  1  0  0  0  0
 20 16  1  0  0  0  0
 23 18  2  0  0  0  0
 24 25  1  0  0  0  0
M  END
>  <MODEL>
7

>  <REMARK>
 VINA RESULT:      -6.7      1.704      2.984
  Name = 
  3 active torsions:
  status: ('A' for Active; 'I' for Inactive)
    1  A    between atoms: C_4  and  C_18
    2  A    between atoms: C_10  and  C_18
    3  A    between atoms: C_15  and  C_18
                            x       y       z     vdW  Elec       q    Type
                         _______ _______ _______ _____ _____    ______ ____

>  <TORSDO>
F 3

$$$$
=
 OpenBabel11072411353D

 25 27  0  0  1  0  0  0  0  0999 V2000
  161.3300  207.4940  151.0350 C   0  0  1  0  0  3  0  0  0  0  0  0
  160.6150  201.5600  148.9890 O   0  0  0  0  0  0  0  0  0  0  0  0
  161.4250  202.4040  151.0970 C   0  0  0  0  0  2  0  0  0  0  0  0
  160.8840  206.1860  150.3690 C   0  0  1  0  0  3  0  0  0  0  0  0
  161.3610  203.6890  148.9770 C   0  0  1  0  0  3  0  0  0  0  0  0
  161.3030  202.4510  148.2750 O   0  0  0  0  0  0  0  0  0  0  0  0
  161.3020  206.1590  148.8900 C   0  0  0  0  0  2  0  0  0  0  0  0
  161.3530  204.9270  151.1280 C   0  0  0  0  0  2  0  0  0  0  0  0
  159.3320  203.6060  150.5110 C   0  0  0  0  0  1  0  0  0  0  0  0
  161.4060  201.2240  150.1100 C   0  0  0  0  0  2  0  0  0  0  0  0
  160.8310  204.8800  148.1930 C   0  0  0  0  0  2  0  0  0  0  0  0
  160.8580  203.6590  150.4340 C   0  0  2  0  0  0  0  0  0  0  0  0
  160.8340  208.2900  154.8090 C   0  0  0  0  0  0  0  0  0  0  0  0
  160.1860  209.3150  155.5580 N   0  0  0  0  0  2  0  0  0  0  0  0
  160.8290  208.3740  153.3290 C   0  0  0  0  0  0  0  0  0  0  0  0
  160.2320  209.5020  152.7480 O   0  0  0  0  0  0  0  0  0  0  0  0
  161.3320  207.4040  152.5380 C   0  0  0  0  0  0  0  0  0  0  0  0
  159.6750  210.4780  154.9070 C   0  0  0  0  0  0  0  0  0  0  0  0
  158.8770  211.4850  152.7610 C   0  0  0  0  0  1  0  0  0  0  0  0
  159.9890  210.7200  153.4540 C   0  0  2  0  0  3  0  0  0  0  0  0
  161.3730  207.3290  155.4200 O   0  0  0  0  0  0  0  0  0  0  0  0
  161.9050  206.2650  153.0930 O   0  0  0  0  0  1  0  0  0  0  0  0
  159.0530  211.3430  155.5820 O   0  0  0  0  0  0  0  0  0  0  0  0
  162.3320  209.3820  149.9410 O   0  0  0  0  0  1  0  0  0  0  0  0
  162.6040  208.1190  150.4640 C   0  0  0  0  0  2  0  0  0  0  0  0
  1 25  1  6  0  0  0
  1 17  1  0  0  0  0
  2 10  1  0  0  0  0
  4  1  1  1  0  0  0
  4  8  1  0  0  0  0
  5 11  1  6  0  0  0
  5 12  1  0  0  0  0
  6  5  1  0  0  0  0
  6  2  1  0  0  0  0
  7  4  1  0  0  0  0
 10  3  1  0  0  0  0
 11  7  1  0  0  0  0
 12  9  1  1  0  0  0
 12  3  1  0  0  0  0
 12  8  1  0  0  0  0
 13 21  2  0  0  0  0
 13 14  1  0  0  0  0
 15 13  1  0  0  0  0
 16 15  1  0  0  0  0
 16 20  1  0  0  0  0
 17 22  1  0  0  0  0
 17 15  2  0  0  0  0
 18 14  1  0  0  0  0
 18 23  2  0  0  0  0
 20 19  1  6  0  0  0
 20 18  1  0  0  0  0
 24 25  1  0  0  0  0
M  END
>  <MODEL>
8

>  <REMARK>
 VINA RESULT:      -6.6      2.367      7.793
  Name = 
  3 active torsions:
  status: ('A' for Active; 'I' for Inactive)
    1  A    between atoms: C_4  and  C_18
    2  A    between atoms: C_10  and  C_18
    3  A    between atoms: C_15  and  C_18
                            x       y       z     vdW  Elec       q    Type
                         _______ _______ _______ _____ _____    ______ ____

>  <TORSDO>
F 3

$$$$
=
 OpenBabel11072411353D

 25 27  0  0  1  0  0  0  0  0999 V2000
  161.5440  207.7330  151.9670 C   0  0  1  0  0  3  0  0  0  0  0  0
  161.7350  204.9620  146.2920 O   0  0  0  0  0  0  0  0  0  0  0  0
  161.1800  204.0600  148.4590 C   0  0  0  0  0  2  0  0  0  0  0  0
  161.4860  207.3720  150.4770 C   0  0  1  0  0  3  0  0  0  0  0  0
  162.5040  206.1210  148.0680 C   0  0  1  0  0  3  0  0  0  0  0  0
  162.7810  205.6460  146.7540 O   0  0  0  0  0  0  0  0  0  0  0  0
  162.7040  207.9390  149.7320 C   0  0  0  0  0  2  0  0  0  0  0  0
  161.3040  205.8600  150.2250 C   0  0  0  0  0  2  0  0  0  0  0  0
  159.9620  206.2030  148.1540 C   0  0  0  0  0  1  0  0  0  0  0  0
  161.6650  203.7590  147.0300 C   0  0  0  0  0  2  0  0  0  0  0  0
  162.6470  207.6270  148.2340 C   0  0  0  0  0  2  0  0  0  0  0  0
  161.2260  205.5640  148.7290 C   0  0  2  0  0  0  0  0  0  0  0  0
  160.3580  211.0100  153.6920 C   0  0  0  0  0  0  0  0  0  0  0  0
  160.0300  211.3990  155.0240 N   0  0  0  0  0  2  0  0  0  0  0  0
  160.7420  209.6020  153.4340 C   0  0  0  0  0  0  0  0  0  0  0  0
  160.7000  208.7110  154.5160 O   0  0  0  0  0  0  0  0  0  0  0  0
  161.1600  209.1660  152.2280 C   0  0  0  0  0  0  0  0  0  0  0  0
  159.9230  210.4240  156.0610 C   0  0  0  0  0  0  0  0  0  0  0  0
  160.5590  208.1350  156.8440 C   0  0  0  0  0  1  0  0  0  0  0  0
  159.9650  208.9590  155.7170 C   0  0  2  0  0  3  0  0  0  0  0  0
  160.3370  211.8740  152.7760 O   0  0  0  0  0  0  0  0  0  0  0  0
  161.2330  210.0380  151.1470 O   0  0  0  0  0  1  0  0  0  0  0  0
  159.6910  210.7990  157.2420 O   0  0  0  0  0  0  0  0  0  0  0  0
  161.8040  205.8990  153.4940 O   0  0  0  0  0  1  0  0  0  0  0  0
  160.8590  206.7410  152.9080 C   0  0  0  0  0  2  0  0  0  0  0  0
  1 17  1  0  0  0  0
  1 25  1  1  0  0  0
  2  6  1  0  0  0  0
  2 10  1  0  0  0  0
  3 12  1  0  0  0  0
  4  1  1  1  0  0  0
  5 11  1  6  0  0  0
  5 12  1  0  0  0  0
  6  5  1  0  0  0  0
  7  4  1  0  0  0  0
  8  4  1  0  0  0  0
 10  3  1  0  0  0  0
 11  7  1  0  0  0  0
 12  9  1  6  0  0  0
 12  8  1  0  0  0  0
 13 14  1  0  0  0  0
 14 18  1  0  0  0  0
 15 13  1  0  0  0  0
 15 16  1  0  0  0  0
 16 20  1  0  0  0  0
 17 15  2  0  0  0  0
 18 23  2  0  0  0  0
 20 18  1  0  0  0  0
 20 19  1  1  0  0  0
 21 13  2  0  0  0  0
 22 17  1  0  0  0  0
 25 24  1  0  0  0  0
M  END
>  <MODEL>
9

>  <REMARK>
 VINA RESULT:      -6.6      2.439      7.686
  Name = 
  3 active torsions:
  status: ('A' for Active; 'I' for Inactive)
    1  A    between atoms: C_4  and  C_18
    2  A    between atoms: C_10  and  C_18
    3  A    between atoms: C_15  and  C_18
                            x       y       z     vdW  Elec       q    Type
                         _______ _______ _______ _____ _____    ______ ____

>  <TORSDO>
F 3

$$$$
