=
 OpenBabel11072414113D

 28 31  0  0  1  0  0  0  0  0999 V2000
  161.6100  208.8450  150.5060 N   0  0  0  0  0  0  0  0  0  0  0  0
  160.9790  209.8800  152.5430 N   0  0  0  0  0  2  0  0  0  0  0  0
  161.8720  211.1880  150.6420 N   0  0  0  0  0  2  0  0  0  0  0  0
  161.4940  209.9320  151.2090 C   0  0  0  0  0  0  0  0  0  0  0  0
  161.2420  210.6990  154.8480 C   0  0  1  0  0  3  0  0  0  0  0  0
  159.4720  211.6600  153.3610 C   0  0  0  0  0  0  0  0  0  0  0  0
  158.9480  212.0720  152.0060 C   0  0  0  0  0  2  0  0  0  0  0  0
  159.1220  212.5920  154.4230 N   0  0  0  0  0  0  0  0  0  0  0  0
  162.7070  210.3280  154.9790 C   0  0  0  0  0  1  0  0  0  0  0  0
  160.9280  211.8120  155.8120 C   0  0  0  0  0  2  0  0  0  0  0  0
  159.9140  212.6590  155.6130 C   0  0  0  0  0  3  0  0  0  0  0  0
  158.3100  210.9060  152.7580 C   0  0  0  0  0  2  0  0  0  0  0  0
  160.8860  211.0610  153.3970 C   0  0  2  0  0  3  0  0  0  0  0  0
  162.3330  207.0000  151.8920 C   0  0  0  0  0  3  0  0  0  0  0  0
  161.0140  206.6090  149.8520 C   0  0  0  0  0  3  0  0  0  0  0  0
  160.4560  204.6790  151.2600 N   0  0  0  0  0  0  0  0  0  0  0  0
  161.2510  207.5230  151.0030 C   0  0  2  0  0  3  0  0  0  0  0  0
  162.2470  205.8270  152.5160 C   0  0  0  0  0  3  0  0  0  0  0  0
  161.1410  204.8630  152.3540 C   0  0  0  0  0  3  0  0  0  0  0  0
  160.6200  205.3430  149.9950 C   0  0  0  0  0  3  0  0  0  0  0  0
  162.3940  211.2760  149.3450 N   0  0  0  0  0  2  0  0  0  0  0  0
  161.6940  212.3610  148.6790 C   0  0  1  0  0  3  0  0  0  0  0  0
  162.7000  213.3830  148.1520 C   0  0  0  0  0  2  0  0  0  0  0  0
  160.8810  211.8030  147.5120 C   0  0  0  0  0  2  0  0  0  0  0  0
  161.1570  213.7870  146.2380 C   0  0  0  0  0  2  0  0  0  0  0  0
  161.9870  214.4530  147.3330 C   0  0  0  0  0  2  0  0  0  0  0  0
  160.1720  212.8870  146.8350 N   0  0  0  0  0  0  0  0  0  0  0  0
  159.4880  212.3240  145.8110 O   0  0  0  0  0  1  0  0  0  0  0  0
  1  4  2  0  0  0  0
  3  4  1  0  0  0  0
  4  2  1  0  0  0  0
  5  9  1  6  0  0  0
  5 10  1  0  0  0  0
  6 13  1  0  0  0  0
  6  8  1  0  0  0  0
  7 12  1  0  0  0  0
  7  6  1  0  0  0  0
  8 11  2  0  0  0  0
 11 10  1  0  0  0  0
 12  6  1  0  0  0  0
 13  2  1  6  0  0  0
 13  5  1  0  0  0  0
 14 18  2  0  0  0  0
 15 20  2  0  0  0  0
 15 17  1  0  0  0  0
 16 19  2  0  0  0  0
 17  1  1  6  0  0  0
 17 14  1  0  0  0  0
 19 18  1  0  0  0  0
 20 16  1  0  0  0  0
 21  3  1  0  0  0  0
 22 21  1  6  0  0  0
 23 22  1  0  0  0  0
 24 22  1  0  0  0  0
 25 27  1  0  0  0  0
 25 26  1  0  0  0  0
 26 23  1  0  0  0  0
 27 24  1  0  0  0  0
 28 27  1  0  0  0  0
M  END
>  <MODEL>
1

>  <REMARK>
 VINA RESULT:      -5.8      0.000      0.000
  Name = 
  4 active torsions:
  status: ('A' for Active; 'I' for Inactive)
    1  A    between atoms: N_2  and  C_17
    2  A    between atoms: C_6  and  N_24
    3  A    between atoms: N_8  and  C_26
    4  A    between atoms: N_10  and  N_24
                            x       y       z     vdW  Elec       q    Type
                         _______ _______ _______ _____ _____    ______ ____

>  <TORSDO>
F 4

$$$$
=
 OpenBabel11072414113D

 28 31  0  0  1  0  0  0  0  0999 V2000
  161.6290  210.0420  151.2490 N   0  0  0  0  0  0  0  0  0  0  0  0
  161.1660  211.7840  149.7070 N   0  0  0  0  0  2  0  0  0  0  0  0
  162.1960  209.6510  148.9900 N   0  0  0  0  0  2  0  0  0  0  0  0
  161.6660  210.4800  150.0260 C   0  0  0  0  0  0  0  0  0  0  0  0
  162.5510  213.1300  148.1840 C   0  0  1  0  0  3  0  0  0  0  0  0
  160.0550  213.2850  148.0900 C   0  0  0  0  0  0  0  0  0  0  0  0
  158.6760  212.6860  148.2250 C   0  0  0  0  0  2  0  0  0  0  0  0
  160.1790  214.1980  146.9630 N   0  0  0  0  0  2  0  0  0  0  0  0
  163.7520  212.2040  148.2050 C   0  0  0  0  0  1  0  0  0  0  0  0
  162.5720  213.9350  146.9120 C   0  0  0  0  0  3  0  0  0  0  0  0
  161.4620  214.4530  146.3800 C   0  0  0  0  0  3  0  0  0  0  0  0
  159.1490  213.7580  149.2040 C   0  0  0  0  0  2  0  0  0  0  0  0
  161.2400  212.3470  148.3630 C   0  0  2  0  0  3  0  0  0  0  0  0
  161.6920  210.3250  153.6500 C   0  0  0  0  0  3  0  0  0  0  0  0
  159.6210  210.7250  152.3830 C   0  0  0  0  0  3  0  0  0  0  0  0
  159.3660  212.1730  154.3470 N   0  0  0  0  0  0  0  0  0  0  0  0
  161.1080  210.8190  152.3660 C   0  0  2  0  0  3  0  0  0  0  0  0
  161.4190  210.8840  154.8270 C   0  0  0  0  0  3  0  0  0  0  0  0
  160.4560  211.9840  155.0370 C   0  0  0  0  0  3  0  0  0  0  0  0
  158.8590  211.3750  153.2640 C   0  0  0  0  0  3  0  0  0  0  0  0
  162.7070  208.3750  149.2650 N   0  0  0  0  0  2  0  0  0  0  0  0
  161.6930  207.4170  148.8630 C   0  0  1  0  0  3  0  0  0  0  0  0
  162.1020  206.7480  147.5500 C   0  0  0  0  0  2  0  0  0  0  0  0
  161.5390  206.3520  149.9460 C   0  0  0  0  0  2  0  0  0  0  0  0
  160.9900  204.6720  148.3610 C   0  0  0  0  0  2  0  0  0  0  0  0
  161.1160  205.6430  147.1900 C   0  0  0  0  0  2  0  0  0  0  0  0
  160.5210  205.3800  149.5510 N   0  0  0  0  0  0  0  0  0  0  0  0
  160.4480  204.4660  150.5460 O   0  0  0  0  0  1  0  0  0  0  0  0
  2  4  1  0  0  0  0
  3 21  1  0  0  0  0
  3  4  1  0  0  0  0
  4  1  2  0  0  0  0
  5  9  1  6  0  0  0
  5 13  1  0  0  0  0
  6  7  1  0  0  0  0
  6 13  1  0  0  0  0
  6 12  1  0  0  0  0
  7 12  1  0  0  0  0
  8  6  1  0  0  0  0
 10  5  1  0  0  0  0
 11 10  2  0  0  0  0
 11  8  1  0  0  0  0
 13  2  1  1  0  0  0
 14 18  2  0  0  0  0
 15 20  2  0  0  0  0
 16 19  2  0  0  0  0
 17  1  1  6  0  0  0
 17 15  1  0  0  0  0
 17 14  1  0  0  0  0
 18 19  1  0  0  0  0
 20 16  1  0  0  0  0
 22 21  1  1  0  0  0
 22 24  1  0  0  0  0
 23 22  1  0  0  0  0
 25 27  1  0  0  0  0
 26 23  1  0  0  0  0
 26 25  1  0  0  0  0
 27 24  1  0  0  0  0
 27 28  1  0  0  0  0
M  END
>  <MODEL>
2

>  <REMARK>
 VINA RESULT:      -5.5      2.312      6.387
  Name = 
  4 active torsions:
  status: ('A' for Active; 'I' for Inactive)
    1  A    between atoms: N_2  and  C_17
    2  A    between atoms: C_6  and  N_24
    3  A    between atoms: N_8  and  C_26
    4  A    between atoms: N_10  and  N_24
                            x       y       z     vdW  Elec       q    Type
                         _______ _______ _______ _____ _____    ______ ____

>  <TORSDO>
F 4

$$$$
=
 OpenBabel11072414113D

 28 31  0  0  1  0  0  0  0  0999 V2000
  161.7940  209.1400  152.1580 N   0  0  0  0  0  0  0  0  0  0  0  0
  160.3890  210.9710  151.6140 N   0  0  0  0  0  2  0  0  0  0  0  0
  161.8240  210.9870  153.6290 N   0  0  0  0  0  2  0  0  0  0  0  0
  161.3470  210.3230  152.4570 C   0  0  0  0  0  0  0  0  0  0  0  0
  158.3560  212.1040  152.4100 C   0  0  1  0  0  3  0  0  0  0  0  0
  159.8350  213.2070  150.7190 C   0  0  0  0  0  0  0  0  0  0  0  0
  161.1880  213.4840  150.1100 C   0  0  0  0  0  2  0  0  0  0  0  0
  158.9720  214.3790  150.7660 N   0  0  0  0  0  0  0  0  0  0  0  0
  158.2920  211.3890  153.7470 C   0  0  0  0  0  1  0  0  0  0  0  0
  157.6320  213.4190  152.5210 C   0  0  0  0  0  2  0  0  0  0  0  0
  157.9100  214.4530  151.7220 C   0  0  0  0  0  3  0  0  0  0  0  0
  160.1410  212.6890  149.3320 C   0  0  0  0  0  2  0  0  0  0  0  0
  159.8090  212.2710  151.9370 C   0  0  2  0  0  3  0  0  0  0  0  0
  161.2480  206.9380  151.3190 C   0  0  0  0  0  3  0  0  0  0  0  0
  162.3290  208.6110  149.8740 C   0  0  0  0  0  3  0  0  0  0  0  0
  161.1080  207.1990  148.2820 N   0  0  0  0  0  0  0  0  0  0  0  0
  161.3620  208.3910  150.9850 C   0  0  2  0  0  3  0  0  0  0  0  0
  160.8320  206.0290  150.4410 C   0  0  0  0  0  3  0  0  0  0  0  0
  160.5190  206.3030  149.0240 C   0  0  0  0  0  3  0  0  0  0  0  0
  162.1710  208.0920  148.6550 C   0  0  0  0  0  3  0  0  0  0  0  0
  162.7510  210.3780  154.4870 N   0  0  0  0  0  2  0  0  0  0  0  0
  162.1040  210.2390  155.7800 C   0  0  1  0  0  3  0  0  0  0  0  0
  161.0730  211.3520  155.9680 C   0  0  0  0  0  2  0  0  0  0  0  0
  161.4050  208.8840  155.8570 C   0  0  0  0  0  2  0  0  0  0  0  0
  159.6890  209.7340  157.2610 C   0  0  0  0  0  2  0  0  0  0  0  0
  160.2920  211.1360  157.2590 C   0  0  0  0  0  2  0  0  0  0  0  0
  160.7500  208.7330  157.1550 N   0  0  0  0  0  0  0  0  0  0  0  0
  160.1440  207.5220  157.1470 O   0  0  0  0  0  1  0  0  0  0  0  0
  1  4  2  0  0  0  0
  2  4  1  0  0  0  0
  3 21  1  0  0  0  0
  4  3  1  0  0  0  0
  5 10  1  0  0  0  0
  5  9  1  1  0  0  0
  6  8  1  0  0  0  0
  6 13  1  0  0  0  0
  7  6  1  0  0  0  0
  8 11  2  0  0  0  0
 11 10  1  0  0  0  0
 12  7  1  0  0  0  0
 12  6  1  0  0  0  0
 13  2  1  6  0  0  0
 13  5  1  0  0  0  0
 15 17  1  0  0  0  0
 16 20  1  0  0  0  0
 16 19  2  0  0  0  0
 17 14  1  0  0  0  0
 17  1  1  1  0  0  0
 18 14  2  0  0  0  0
 19 18  1  0  0  0  0
 20 15  2  0  0  0  0
 22 21  1  6  0  0  0
 22 24  1  0  0  0  0
 22 23  1  0  0  0  0
 23 26  1  0  0  0  0
 24 27  1  0  0  0  0
 26 25  1  0  0  0  0
 27 25  1  0  0  0  0
 28 27  1  0  0  0  0
M  END
>  <MODEL>
3

>  <REMARK>
 VINA RESULT:      -5.4      3.127      5.896
  Name = 
  4 active torsions:
  status: ('A' for Active; 'I' for Inactive)
    1  A    between atoms: N_2  and  C_17
    2  A    between atoms: C_6  and  N_24
    3  A    between atoms: N_8  and  C_26
    4  A    between atoms: N_10  and  N_24
                            x       y       z     vdW  Elec       q    Type
                         _______ _______ _______ _____ _____    ______ ____

>  <TORSDO>
F 4

$$$$
=
 OpenBabel11072414113D

 28 31  0  0  1  0  0  0  0  0999 V2000
  161.1020  210.6410  151.9480 N   0  0  0  0  0  0  0  0  0  0  0  0
  161.2160  208.2960  151.6160 N   0  0  0  0  0  2  0  0  0  0  0  0
  162.4750  209.8750  150.1860 N   0  0  0  0  0  2  0  0  0  0  0  0
  161.5770  209.6380  151.2720 C   0  0  0  0  0  0  0  0  0  0  0  0
  160.8310  206.9790  149.5750 C   0  0  1  0  0  3  0  0  0  0  0  0
  161.5690  205.8520  151.6840 C   0  0  0  0  0  0  0  0  0  0  0  0
  162.3310  205.8280  152.9870 C   0  0  0  0  0  2  0  0  0  0  0  0
  161.6250  204.5900  150.9600 N   0  0  0  0  0  2  0  0  0  0  0  0
  161.0840  208.1180  148.6050 C   0  0  0  0  0  1  0  0  0  0  0  0
  161.0890  205.6710  148.8760 C   0  0  0  0  0  3  0  0  0  0  0  0
  161.4220  204.5620  149.5430 C   0  0  0  0  0  3  0  0  0  0  0  0
  160.8040  205.8130  152.9870 C   0  0  0  0  0  2  0  0  0  0  0  0
  161.6710  207.1390  150.8520 C   0  0  2  0  0  3  0  0  0  0  0  0
  159.0760  211.4930  152.9570 C   0  0  0  0  0  3  0  0  0  0  0  0
  160.9270  210.6570  154.3460 C   0  0  0  0  0  3  0  0  0  0  0  0
  158.9550  210.2910  155.7590 N   0  0  0  0  0  0  0  0  0  0  0  0
  160.1810  210.4930  153.0680 C   0  0  2  0  0  3  0  0  0  0  0  0
  158.0710  211.5530  153.8280 C   0  0  0  0  0  3  0  0  0  0  0  0
  157.9550  210.7230  155.0430 C   0  0  0  0  0  3  0  0  0  0  0  0
  160.3580  210.5240  155.5450 C   0  0  0  0  0  3  0  0  0  0  0  0
  162.8390  211.1750  149.8100 N   0  0  0  0  0  2  0  0  0  0  0  0
  161.9560  211.5660  148.7250 C   0  0  1  0  0  3  0  0  0  0  0  0
  160.9230  212.5720  149.2330 C   0  0  0  0  0  2  0  0  0  0  0  0
  162.7750  212.2040  147.6050 C   0  0  0  0  0  2  0  0  0  0  0  0
  160.9960  213.6500  146.9880 C   0  0  0  0  0  2  0  0  0  0  0  0
  160.0800  213.0930  148.0750 C   0  0  0  0  0  2  0  0  0  0  0  0
  161.8950  212.6020  146.5080 N   0  0  0  0  0  0  0  0  0  0  0  0
  162.6830  213.1680  145.5630 O   0  0  0  0  0  1  0  0  0  0  0  0
  3  4  1  0  0  0  0
  4  2  1  0  0  0  0
  4  1  2  0  0  0  0
  5  9  1  6  0  0  0
  5 13  1  0  0  0  0
  6 12  1  0  0  0  0
  6  7  1  0  0  0  0
  8  6  1  0  0  0  0
 10 11  2  0  0  0  0
 10  5  1  0  0  0  0
 11  8  1  0  0  0  0
 12  7  1  0  0  0  0
 13  2  1  1  0  0  0
 13  6  1  0  0  0  0
 14 17  1  0  0  0  0
 14 18  2  0  0  0  0
 15 20  2  0  0  0  0
 17  1  1  6  0  0  0
 17 15  1  0  0  0  0
 18 19  1  0  0  0  0
 19 16  2  0  0  0  0
 20 16  1  0  0  0  0
 21  3  1  0  0  0  0
 22 23  1  0  0  0  0
 22 21  1  1  0  0  0
 24 22  1  0  0  0  0
 25 26  1  0  0  0  0
 26 23  1  0  0  0  0
 27 25  1  0  0  0  0
 27 24  1  0  0  0  0
 28 27  1  0  0  0  0
M  END
>  <MODEL>
4

>  <REMARK>
 VINA RESULT:      -5.1      1.396      5.510
  Name = 
  4 active torsions:
  status: ('A' for Active; 'I' for Inactive)
    1  A    between atoms: N_2  and  C_17
    2  A    between atoms: C_6  and  N_24
    3  A    between atoms: N_8  and  C_26
    4  A    between atoms: N_10  and  N_24
                            x       y       z     vdW  Elec       q    Type
                         _______ _______ _______ _____ _____    ______ ____

>  <TORSDO>
F 4

$$$$
=
 OpenBabel11072414113D

 28 31  0  0  1  0  0  0  0  0999 V2000
  161.6470  210.0390  148.6910 N   0  0  0  0  0  0  0  0  0  0  0  0
  162.0130  209.8260  151.0240 N   0  0  0  0  0  2  0  0  0  0  0  0
  161.3510  207.8920  149.6290 N   0  0  0  0  0  2  0  0  0  0  0  0
  161.6660  209.2810  149.7460 C   0  0  0  0  0  0  0  0  0  0  0  0
  161.8410  207.5400  151.9160 C   0  0  1  0  0  3  0  0  0  0  0  0
  160.8330  209.4610  153.1640 C   0  0  0  0  0  0  0  0  0  0  0  0
  160.8110  210.9090  153.5920 C   0  0  0  0  0  2  0  0  0  0  0  0
  160.4510  208.5400  154.2250 N   0  0  0  0  0  2  0  0  0  0  0  0
  163.0780  207.0060  151.2180 C   0  0  0  0  0  1  0  0  0  0  0  0
  161.5650  206.7030  153.1360 C   0  0  0  0  0  3  0  0  0  0  0  0
  160.8850  207.1770  154.1850 C   0  0  0  0  0  3  0  0  0  0  0  0
  159.7260  210.3630  152.6660 C   0  0  0  0  0  2  0  0  0  0  0  0
  161.9900  209.0330  152.2490 C   0  0  2  0  0  3  0  0  0  0  0  0
  160.7110  212.2590  148.4740 C   0  0  0  0  0  3  0  0  0  0  0  0
  162.9920  211.7660  147.6960 C   0  0  0  0  0  3  0  0  0  0  0  0
  163.0850  214.1590  148.2270 N   0  0  0  0  0  0  0  0  0  0  0  0
  161.9530  211.4640  148.7190 C   0  0  2  0  0  3  0  0  0  0  0  0
  160.6950  213.5900  148.4860 C   0  0  0  0  0  3  0  0  0  0  0  0
  161.8850  214.4480  148.6480 C   0  0  0  0  0  3  0  0  0  0  0  0
  163.5120  212.9820  147.5210 C   0  0  0  0  0  3  0  0  0  0  0  0
  160.9920  207.3260  148.3980 N   0  0  0  0  0  2  0  0  0  0  0  0
  161.5380  205.9810  148.3750 C   0  0  1  0  0  3  0  0  0  0  0  0
  160.7290  205.0750  149.3040 C   0  0  0  0  0  2  0  0  0  0  0  0
  161.4770  205.4300  146.9520 C   0  0  0  0  0  2  0  0  0  0  0  0
  161.1650  203.2050  147.7170 C   0  0  0  0  0  2  0  0  0  0  0  0
  161.2070  203.6330  149.1820 C   0  0  0  0  0  2  0  0  0  0  0  0
  162.0250  204.0750  146.9170 N   0  0  0  0  0  0  0  0  0  0  0  0
  161.9270  203.6490  145.6360 O   0  0  0  0  0  1  0  0  0  0  0  0
  1  4  2  0  0  0  0
  3  4  1  0  0  0  0
  4  2  1  0  0  0  0
  5  9  1  1  0  0  0
  5 13  1  0  0  0  0
  5 10  1  0  0  0  0
  6  7  1  0  0  0  0
  6  8  1  0  0  0  0
 10 11  2  0  0  0  0
 11  8  1  0  0  0  0
 12  6  1  0  0  0  0
 12  7  1  0  0  0  0
 13  2  1  6  0  0  0
 13  6  1  0  0  0  0
 14 18  2  0  0  0  0
 14 17  1  0  0  0  0
 15 17  1  0  0  0  0
 16 19  2  0  0  0  0
 17  1  1  6  0  0  0
 18 19  1  0  0  0  0
 20 15  2  0  0  0  0
 20 16  1  0  0  0  0
 21  3  1  0  0  0  0
 22 21  1  6  0  0  0
 22 23  1  0  0  0  0
 24 22  1  0  0  0  0
 25 26  1  0  0  0  0
 26 23  1  0  0  0  0
 27 24  1  0  0  0  0
 27 25  1  0  0  0  0
 28 27  1  0  0  0  0
M  END
>  <MODEL>
5

>  <REMARK>
 VINA RESULT:      -5.1      2.590      6.573
  Name = 
  4 active torsions:
  status: ('A' for Active; 'I' for Inactive)
    1  A    between atoms: N_2  and  C_17
    2  A    between atoms: C_6  and  N_24
    3  A    between atoms: N_8  and  C_26
    4  A    between atoms: N_10  and  N_24
                            x       y       z     vdW  Elec       q    Type
                         _______ _______ _______ _____ _____    ______ ____

>  <TORSDO>
F 4

$$$$
=
 OpenBabel11072414113D

 28 31  0  0  1  0  0  0  0  0999 V2000
  161.4590  208.4620  151.0370 N   0  0  0  0  0  0  0  0  0  0  0  0
  160.2580  209.0960  152.9810 N   0  0  0  0  0  2  0  0  0  0  0  0
  161.5040  210.7490  151.6250 N   0  0  0  0  0  2  0  0  0  0  0  0
  161.0900  209.4010  151.8560 C   0  0  0  0  0  0  0  0  0  0  0  0
  159.6190  211.4530  153.2760 C   0  0  1  0  0  3  0  0  0  0  0  0
  160.9490  210.2750  155.0390 C   0  0  0  0  0  0  0  0  0  0  0  0
  161.3300  209.0410  155.8210 C   0  0  0  0  0  2  0  0  0  0  0  0
  160.8820  211.4780  155.8580 N   0  0  0  0  0  2  0  0  0  0  0  0
  158.3990  211.3970  152.3760 C   0  0  0  0  0  1  0  0  0  0  0  0
  159.4540  212.5790  154.2610 C   0  0  0  0  0  3  0  0  0  0  0  0
  160.0790  212.5880  155.4420 C   0  0  0  0  0  3  0  0  0  0  0  0
  162.3320  209.6900  154.8690 C   0  0  0  0  0  2  0  0  0  0  0  0
  159.8660  210.1010  153.9640 C   0  0  2  0  0  3  0  0  0  0  0  0
  161.9490  206.4160  152.2300 C   0  0  0  0  0  3  0  0  0  0  0  0
  161.2050  206.3660  149.8850 C   0  0  0  0  0  3  0  0  0  0  0  0
  160.4570  204.1990  150.7580 N   0  0  0  0  0  0  0  0  0  0  0  0
  161.0840  207.0630  151.1960 C   0  0  2  0  0  3  0  0  0  0  0  0
  161.7950  205.1480  152.6050 C   0  0  0  0  0  3  0  0  0  0  0  0
  160.8360  204.2000  152.0060 C   0  0  0  0  0  3  0  0  0  0  0  0
  160.8800  205.0850  149.7070 C   0  0  0  0  0  3  0  0  0  0  0  0
  162.3300  211.0830  150.5430 N   0  0  0  0  0  2  0  0  0  0  0  0
  161.4790  211.6840  149.5310 C   0  0  1  0  0  3  0  0  0  0  0  0
  160.8230  212.9480  150.0860 C   0  0  0  0  0  2  0  0  0  0  0  0
  162.3190  212.0460  148.3080 C   0  0  0  0  0  2  0  0  0  0  0  0
  160.9510  213.9180  147.7960 C   0  0  0  0  0  2  0  0  0  0  0  0
  160.0380  213.6610  148.9920 C   0  0  0  0  0  2  0  0  0  0  0  0
  161.4720  212.6520  147.2820 N   0  0  0  0  0  0  0  0  0  0  0  0
  162.2800  212.9570  146.2400 O   0  0  0  0  0  1  0  0  0  0  0  0
  1  4  2  0  0  0  0
  3  4  1  0  0  0  0
  4  2  1  0  0  0  0
  5  9  1  1  0  0  0
  5 13  1  0  0  0  0
  5 10  1  0  0  0  0
  6  7  1  0  0  0  0
  6  8  1  0  0  0  0
 10 11  2  0  0  0  0
 11  8  1  0  0  0  0
 12  6  1  0  0  0  0
 12  7  1  0  0  0  0
 13  2  1  6  0  0  0
 13  6  1  0  0  0  0
 14 18  2  0  0  0  0
 15 17  1  0  0  0  0
 16 19  2  0  0  0  0
 17  1  1  6  0  0  0
 17 14  1  0  0  0  0
 19 18  1  0  0  0  0
 20 15  2  0  0  0  0
 20 16  1  0  0  0  0
 21  3  1  0  0  0  0
 22 23  1  0  0  0  0
 22 21  1  1  0  0  0
 24 22  1  0  0  0  0
 25 26  1  0  0  0  0
 26 23  1  0  0  0  0
 27 25  1  0  0  0  0
 27 24  1  0  0  0  0
 28 27  1  0  0  0  0
M  END
>  <MODEL>
6

>  <REMARK>
 VINA RESULT:      -4.8      1.250      2.270
  Name = 
  4 active torsions:
  status: ('A' for Active; 'I' for Inactive)
    1  A    between atoms: N_2  and  C_17
    2  A    between atoms: C_6  and  N_24
    3  A    between atoms: N_8  and  C_26
    4  A    between atoms: N_10  and  N_24
                            x       y       z     vdW  Elec       q    Type
                         _______ _______ _______ _____ _____    ______ ____

>  <TORSDO>
F 4

$$$$
=
 OpenBabel11072414113D

 28 31  0  0  1  0  0  0  0  0999 V2000
  161.9590  208.8580  150.7510 N   0  0  0  0  0  0  0  0  0  0  0  0
  161.3160  209.8730  152.7950 N   0  0  0  0  0  2  0  0  0  0  0  0
  161.8840  211.2180  150.7970 N   0  0  0  0  0  2  0  0  0  0  0  0
  161.7310  209.9440  151.4270 C   0  0  0  0  0  0  0  0  0  0  0  0
  161.5850  210.8070  155.0540 C   0  0  1  0  0  3  0  0  0  0  0  0
  159.6240  211.4620  153.6440 C   0  0  0  0  0  0  0  0  0  0  0  0
  158.9770  211.7470  152.3100 C   0  0  0  0  0  2  0  0  0  0  0  0
  159.2050  212.3770  154.6960 N   0  0  0  0  0  0  0  0  0  0  0  0
  163.0930  210.6430  155.1120 C   0  0  0  0  0  1  0  0  0  0  0  0
  161.1730  211.9020  156.0010 C   0  0  0  0  0  2  0  0  0  0  0  0
  160.0430  212.5960  155.8360 C   0  0  0  0  0  3  0  0  0  0  0  0
  158.5470  210.5340  153.1320 C   0  0  0  0  0  2  0  0  0  0  0  0
  161.1070  211.0610  153.6160 C   0  0  2  0  0  3  0  0  0  0  0  0
  161.1510  206.6170  150.3320 C   0  0  0  0  0  3  0  0  0  0  0  0
  161.0680  207.5910  152.5900 C   0  0  0  0  0  3  0  0  0  0  0  0
  161.2060  205.1800  153.0230 N   0  0  0  0  0  0  0  0  0  0  0  0
  161.8290  207.5200  151.3120 C   0  0  2  0  0  3  0  0  0  0  0  0
  160.9410  205.3240  150.5710 C   0  0  0  0  0  3  0  0  0  0  0  0
  161.2560  204.6370  151.8390 C   0  0  0  0  0  3  0  0  0  0  0  0
  160.8330  206.5280  153.3600 C   0  0  0  0  0  3  0  0  0  0  0  0
  162.3030  211.3280  149.4640 N   0  0  0  0  0  2  0  0  0  0  0  0
  161.9000  212.6440  149.0000 C   0  0  1  0  0  3  0  0  0  0  0  0
  161.9360  212.6900  147.4730 C   0  0  0  0  0  2  0  0  0  0  0  0
  160.4820  212.9410  149.4810 C   0  0  0  0  0  2  0  0  0  0  0  0
  159.9930  214.2470  147.5590 C   0  0  0  0  0  2  0  0  0  0  0  0
  161.3830  214.0190  146.9710 C   0  0  0  0  0  2  0  0  0  0  0  0
  160.0650  214.2640  149.0200 N   0  0  0  0  0  0  0  0  0  0  0  0
  158.8020  214.4530  149.4700 O   0  0  0  0  0  1  0  0  0  0  0  0
  1  4  2  0  0  0  0
  3  4  1  0  0  0  0
  4  2  1  0  0  0  0
  5  9  1  6  0  0  0
  5 10  1  0  0  0  0
  6  8  1  0  0  0  0
  7 12  1  0  0  0  0
  7  6  1  0  0  0  0
  8 11  2  0  0  0  0
 11 10  1  0  0  0  0
 12  6  1  0  0  0  0
 13  2  1  6  0  0  0
 13  6  1  0  0  0  0
 13  5  1  0  0  0  0
 14 18  2  0  0  0  0
 14 17  1  0  0  0  0
 15 20  2  0  0  0  0
 16 20  1  0  0  0  0
 17  1  1  6  0  0  0
 17 15  1  0  0  0  0
 18 19  1  0  0  0  0
 19 16  2  0  0  0  0
 21  3  1  0  0  0  0
 22 21  1  6  0  0  0
 22 24  1  0  0  0  0
 23 22  1  0  0  0  0
 25 27  1  0  0  0  0
 26 23  1  0  0  0  0
 26 25  1  0  0  0  0
 27 28  1  0  0  0  0
 27 24  1  0  0  0  0
M  END
>  <MODEL>
7

>  <REMARK>
 VINA RESULT:      -4.6      1.285      1.624
  Name = 
  4 active torsions:
  status: ('A' for Active; 'I' for Inactive)
    1  A    between atoms: N_2  and  C_17
    2  A    between atoms: C_6  and  N_24
    3  A    between atoms: N_8  and  C_26
    4  A    between atoms: N_10  and  N_24
                            x       y       z     vdW  Elec       q    Type
                         _______ _______ _______ _____ _____    ______ ____

>  <TORSDO>
F 4

$$$$
=
 OpenBabel11072414113D

 28 31  0  0  1  0  0  0  0  0999 V2000
  160.8540  211.2930  151.4930 N   0  0  0  0  0  0  0  0  0  0  0  0
  160.8090  212.2190  149.3110 N   0  0  0  0  0  2  0  0  0  0  0  0
  161.9580  210.0810  149.7940 N   0  0  0  0  0  2  0  0  0  0  0  0
  161.1980  211.2050  150.2440 C   0  0  0  0  0  0  0  0  0  0  0  0
  162.5400  212.9650  147.7320 C   0  0  1  0  0  3  0  0  0  0  0  0
  160.1480  212.8300  147.0100 C   0  0  0  0  0  0  0  0  0  0  0  0
  158.7740  212.2070  147.0590 C   0  0  0  0  0  2  0  0  0  0  0  0
  160.5570  213.2210  145.6680 N   0  0  0  0  0  0  0  0  0  0  0  0
  163.6910  212.2440  148.4090 C   0  0  0  0  0  1  0  0  0  0  0  0
  162.8850  213.1890  146.2840 C   0  0  0  0  0  2  0  0  0  0  0  0
  161.9460  213.3420  145.3450 C   0  0  0  0  0  3  0  0  0  0  0  0
  158.9980  213.6220  147.5880 C   0  0  0  0  0  2  0  0  0  0  0  0
  161.2200  212.1990  147.9110 C   0  0  2  0  0  3  0  0  0  0  0  0
  159.8630  212.2030  153.5040 C   0  0  0  0  0  3  0  0  0  0  0  0
  158.7850  212.5060  151.3130 C   0  0  0  0  0  3  0  0  0  0  0  0
  158.0100  214.4490  152.5930 N   0  0  0  0  0  0  0  0  0  0  0  0
  160.0810  212.4020  152.0380 C   0  0  2  0  0  3  0  0  0  0  0  0
  159.2210  213.0880  154.2620 C   0  0  0  0  0  3  0  0  0  0  0  0
  158.5720  214.3160  153.7620 C   0  0  0  0  0  3  0  0  0  0  0  0
  157.8860  213.4600  151.5570 C   0  0  0  0  0  3  0  0  0  0  0  0
  162.3690  209.0760  150.6790 N   0  0  0  0  0  2  0  0  0  0  0  0
  162.2390  207.8120  149.9760 C   0  0  1  0  0  3  0  0  0  0  0  0
  161.3760  206.8500  150.7930 C   0  0  0  0  0  2  0  0  0  0  0  0
  161.5840  208.0490  148.6170 C   0  0  0  0  0  2  0  0  0  0  0  0
  160.5240  205.9250  148.6420 C   0  0  0  0  0  2  0  0  0  0  0  0
  161.1180  205.5720  150.0040 C   0  0  0  0  0  2  0  0  0  0  0  0
  161.4470  206.7820  147.9010 N   0  0  0  0  0  0  0  0  0  0  0  0
  160.8520  207.0670  146.7190 O   0  0  0  0  0  1  0  0  0  0  0  0
  2  4  1  0  0  0  0
  3  4  1  0  0  0  0
  3 21  1  0  0  0  0
  4  1  2  0  0  0  0
  5 13  1  0  0  0  0
  5  9  1  6  0  0  0
  6  7  1  0  0  0  0
  6 12  1  0  0  0  0
  6 13  1  0  0  0  0
  7 12  1  0  0  0  0
  8  6  1  0  0  0  0
 10  5  1  0  0  0  0
 11  8  2  0  0  0  0
 11 10  1  0  0  0  0
 13  2  1  1  0  0  0
 14 18  2  0  0  0  0
 15 20  2  0  0  0  0
 15 17  1  0  0  0  0
 16 19  2  0  0  0  0
 17  1  1  6  0  0  0
 17 14  1  0  0  0  0
 19 18  1  0  0  0  0
 20 16  1  0  0  0  0
 22 21  1  1  0  0  0
 22 23  1  0  0  0  0
 24 22  1  0  0  0  0
 25 26  1  0  0  0  0
 26 23  1  0  0  0  0
 27 24  1  0  0  0  0
 27 25  1  0  0  0  0
 28 27  1  0  0  0  0
M  END
>  <MODEL>
8

>  <REMARK>
 VINA RESULT:      -4.5      2.108      6.864
  Name = 
  4 active torsions:
  status: ('A' for Active; 'I' for Inactive)
    1  A    between atoms: N_2  and  C_17
    2  A    between atoms: C_6  and  N_24
    3  A    between atoms: N_8  and  C_26
    4  A    between atoms: N_10  and  N_24
                            x       y       z     vdW  Elec       q    Type
                         _______ _______ _______ _____ _____    ______ ____

>  <TORSDO>
F 4

$$$$
=
 OpenBabel11072414113D

 28 31  0  0  1  0  0  0  0  0999 V2000
  160.7640  209.1290  151.7690 N   0  0  0  0  0  0  0  0  0  0  0  0
  160.0790  209.4450  154.0160 N   0  0  0  0  0  2  0  0  0  0  0  0
  160.4930  211.3570  152.5010 N   0  0  0  0  0  2  0  0  0  0  0  0
  160.4600  209.9470  152.7310 C   0  0  0  0  0  0  0  0  0  0  0  0
  158.9370  211.5160  154.6920 C   0  0  1  0  0  3  0  0  0  0  0  0
  161.0820  210.8420  155.7910 C   0  0  0  0  0  0  0  0  0  0  0  0
  162.0510  209.8010  156.2970 C   0  0  0  0  0  2  0  0  0  0  0  0
  160.9650  211.9970  156.6710 N   0  0  0  0  0  2  0  0  0  0  0  0
  157.5480  211.0740  154.2690 C   0  0  0  0  0  1  0  0  0  0  0  0
  158.8130  212.5740  155.7560 C   0  0  0  0  0  3  0  0  0  0  0  0
  159.7840  212.8050  156.6440 C   0  0  0  0  0  3  0  0  0  0  0  0
  162.4210  210.6860  155.1090 C   0  0  0  0  0  2  0  0  0  0  0  0
  159.7880  210.3200  155.1480 C   0  0  2  0  0  3  0  0  0  0  0  0
  161.6660  207.2730  153.0300 C   0  0  0  0  0  3  0  0  0  0  0  0
  161.1730  207.0510  150.6300 C   0  0  0  0  0  3  0  0  0  0  0  0
  160.9480  204.7550  151.4640 N   0  0  0  0  0  0  0  0  0  0  0  0
  160.7570  207.6790  151.9140 C   0  0  2  0  0  3  0  0  0  0  0  0
  161.8190  206.0060  153.4080 C   0  0  0  0  0  3  0  0  0  0  0  0
  161.2000  204.8440  152.7400 C   0  0  0  0  0  3  0  0  0  0  0  0
  161.2150  205.7310  150.4420 C   0  0  0  0  0  3  0  0  0  0  0  0
  160.8750  211.8860  151.2610 N   0  0  0  0  0  2  0  0  0  0  0  0
  160.0500  213.0580  151.0280 C   0  0  1  0  0  3  0  0  0  0  0  0
  159.9160  213.3100  149.5260 C   0  0  0  0  0  2  0  0  0  0  0  0
  158.6640  212.8350  151.6290 C   0  0  0  0  0  2  0  0  0  0  0  0
  157.6140  214.1580  149.9600 C   0  0  0  0  0  2  0  0  0  0  0  0
  158.9410  214.4530  149.2660 C   0  0  0  0  0  2  0  0  0  0  0  0
  157.8240  214.0090  151.4000 N   0  0  0  0  0  0  0  0  0  0  0  0
  156.6160  213.7350  151.9440 O   0  0  0  0  0  1  0  0  0  0  0  0
  1  4  2  0  0  0  0
  3  4  1  0  0  0  0
  4  2  1  0  0  0  0
  5  9  1  1  0  0  0
  5 13  1  0  0  0  0
  5 10  1  0  0  0  0
  6  7  1  0  0  0  0
  6  8  1  0  0  0  0
 10 11  2  0  0  0  0
 11  8  1  0  0  0  0
 12  6  1  0  0  0  0
 12  7  1  0  0  0  0
 13  2  1  6  0  0  0
 13  6  1  0  0  0  0
 14 18  2  0  0  0  0
 15 17  1  0  0  0  0
 16 19  2  0  0  0  0
 17  1  1  6  0  0  0
 17 14  1  0  0  0  0
 19 18  1  0  0  0  0
 20 15  2  0  0  0  0
 20 16  1  0  0  0  0
 21  3  1  0  0  0  0
 22 21  1  6  0  0  0
 22 24  1  0  0  0  0
 23 22  1  0  0  0  0
 25 27  1  0  0  0  0
 26 23  1  0  0  0  0
 26 25  1  0  0  0  0
 27 24  1  0  0  0  0
 27 28  1  0  0  0  0
M  END
>  <MODEL>
9

>  <REMARK>
 VINA RESULT:      -4.4      2.330      3.280
  Name = 
  4 active torsions:
  status: ('A' for Active; 'I' for Inactive)
    1  A    between atoms: N_2  and  C_17
    2  A    between atoms: C_6  and  N_24
    3  A    between atoms: N_8  and  C_26
    4  A    between atoms: N_10  and  N_24
                            x       y       z     vdW  Elec       q    Type
                         _______ _______ _______ _____ _____    ______ ____

>  <TORSDO>
F 4

$$$$
