=
 OpenBabel11072411293D

 35 39  0  0  1  0  0  0  0  0999 V2000
  162.6550  204.8490  151.7290 C   0  0  0  0  0  0  0  0  0  0  0  0
  160.8870  204.4970  150.3140 O   0  0  0  0  0  0  0  0  0  0  0  0
  161.6500  202.3250  150.1610 C   0  0  0  0  0  2  0  0  0  0  0  0
  161.9830  206.9730  147.4040 N   0  0  0  0  0  2  0  0  0  0  0  0
  162.2060  212.4880  149.0360 C   0  0  0  0  0  3  0  0  0  0  0  0
  163.0490  209.0580  148.0640 C   0  0  0  0  0  2  0  0  0  0  0  0
  160.8020  209.4030  150.9870 N   0  0  0  0  0  0  0  0  0  0  0  0
  162.7610  207.5960  148.4700 C   0  0  1  0  0  3  0  0  0  0  0  0
  162.2890  205.5500  147.3870 C   0  0  2  0  0  3  0  0  0  0  0  0
  159.4160  201.2060  149.9590 C   0  0  0  0  0  1  0  0  0  0  0  0
  161.5520  206.7650  150.6520 C   0  0  0  0  0  0  0  0  0  0  0  0
  161.5520  209.0300  149.9200 C   0  0  0  0  0  0  0  0  0  0  0  0
  160.6250  201.7110  149.1940 C   0  0  0  0  0  0  0  0  0  0  0  0
  160.1620  202.7110  148.1330 C   0  0  0  0  0  2  0  0  0  0  0  0
  160.7120  204.7940  145.7500 F   0  0  0  0  0  0  0  0  0  0  0  0
  160.4020  208.4530  151.8770 C   0  0  0  0  0  3  0  0  0  0  0  0
  162.1760  211.1850  148.9780 C   0  0  0  0  0  0  0  0  0  0  0  0
  163.4010  205.2660  146.3860 C   0  0  0  0  0  1  0  0  0  0  0  0
  161.3030  203.3290  147.4580 N   0  0  0  0  0  2  0  0  0  0  0  0
  161.2710  200.5230  148.5060 C   0  0  0  0  0  1  0  0  0  0  0  0
  160.7780  207.1500  151.7090 N   0  0  0  0  0  0  0  0  0  0  0  0
  163.6050  205.3700  152.2910 O   0  0  0  0  0  0  0  0  0  0  0  0
  162.0410  203.5920  152.1080 C   0  0  0  0  0  2  0  0  0  0  0  0
  161.9230  207.7330  149.7110 C   0  0  0  0  0  0  0  0  0  0  0  0
  159.9710  205.2550  147.8240 F   0  0  0  0  0  0  0  0  0  0  0  0
  162.1420  209.8820  148.9190 C   0  0  0  0  0  0  0  0  0  0  0  0
  161.0320  204.7250  147.0960 C   0  0  0  0  0  0  0  0  0  0  0  0
  162.0010  205.3420  150.5190 C   0  0  1  0  0  3  0  0  0  0  0  0
  161.0720  203.3430  151.0440 N   0  0  1  0  0  0  0  0  0  0  0  0
  160.9600  213.2930  148.8520 C   0  0  0  0  0  2  0  0  0  0  0  0
  160.4980  212.5680  145.4030 N   0  0  0  0  0  2  0  0  0  0  0  0
  161.7190  213.3590  145.4310 C   0  0  0  0  0  2  0  0  0  0  0  0
  159.8550  212.8600  146.6640 C   0  0  0  0  0  2  0  0  0  0  0  0
  162.0360  213.6900  146.7560 O   0  0  0  0  0  0  0  0  0  0  0  0
  160.8040  213.7600  147.4110 C   0  0  2  0  0  3  0  0  0  0  0  0
  1 23  1  0  0  0  0
  1 22  2  0  0  0  0
  2 29  1  0  0  0  0
  4  8  1  0  0  0  0
  6 26  1  0  0  0  0
  7 16  1  0  0  0  0
  8  6  1  6  0  0  0
  8 24  1  0  0  0  0
  9 18  1  6  0  0  0
  9  4  1  0  0  0  0
 11 21  1  0  0  0  0
 12  7  2  0  0  0  0
 13 10  1  0  0  0  0
 13  3  1  0  0  0  0
 14 13  1  0  0  0  0
 15 27  1  0  0  0  0
 17  5  2  0  0  0  0
 19 14  1  0  0  0  0
 20 13  1  0  0  0  0
 21 16  2  0  0  0  0
 24 12  1  0  0  0  0
 24 11  2  0  0  0  0
 26 17  2  0  0  0  0
 26 12  1  0  0  0  0
 27  9  1  0  0  0  0
 27 19  1  0  0  0  0
 27 25  1  0  0  0  0
 28  2  1  1  0  0  0
 28 11  1  0  0  0  0
 28  1  1  0  0  0  0
 29  3  1  6  0  0  0
 29 23  1  0  0  0  0
 30  5  1  0  0  0  0
 31 32  1  0  0  0  0
 31 33  1  0  0  0  0
 32 34  1  0  0  0  0
 33 35  1  0  0  0  0
 34 35  1  0  0  0  0
 35 30  1  1  0  0  0
M  END
>  <MODEL>
1

>  <REMARK>
 VINA RESULT:      -3.0      0.000      0.000
  Name = 
  2 active torsions:
  status: ('A' for Active; 'I' for Inactive)
    1  A    between atoms: C_6  and  C_26
    2  A    between atoms: C_26  and  C_35
                            x       y       z     vdW  Elec       q    Type
                         _______ _______ _______ _____ _____    ______ ____

>  <TORSDO>
F 2

$$$$
=
 OpenBabel11072411293D

 35 39  0  0  1  0  0  0  0  0999 V2000
  162.6390  204.9430  151.7280 C   0  0  0  0  0  0  0  0  0  0  0  0
  160.8760  204.5880  150.3090 O   0  0  0  0  0  0  0  0  0  0  0  0
  161.6390  202.4160  150.1630 C   0  0  0  0  0  2  0  0  0  0  0  0
  161.9790  207.0570  147.3960 N   0  0  0  0  0  2  0  0  0  0  0  0
  162.1970  212.5760  149.0140 C   0  0  0  0  0  3  0  0  0  0  0  0
  163.0430  209.1430  148.0530 C   0  0  0  0  0  2  0  0  0  0  0  0
  160.7870  209.4960  150.9690 N   0  0  0  0  0  0  0  0  0  0  0  0
  162.7550  207.6820  148.4620 C   0  0  1  0  0  3  0  0  0  0  0  0
  162.2860  205.6340  147.3830 C   0  0  2  0  0  3  0  0  0  0  0  0
  159.4060  201.2960  149.9570 C   0  0  0  0  0  1  0  0  0  0  0  0
  161.5390  206.8570  150.6430 C   0  0  0  0  0  0  0  0  0  0  0  0
  161.5410  209.1200  149.9060 C   0  0  0  0  0  0  0  0  0  0  0  0
  160.6170  201.7990  149.1950 C   0  0  0  0  0  0  0  0  0  0  0  0
  160.1570  202.7970  148.1300 C   0  0  0  0  0  2  0  0  0  0  0  0
  160.7140  204.8740  145.7440 F   0  0  0  0  0  0  0  0  0  0  0  0
  160.3850  208.5480  151.8600 C   0  0  0  0  0  3  0  0  0  0  0  0
  162.1670  211.2730  148.9600 C   0  0  0  0  0  0  0  0  0  0  0  0
  163.4010  205.3470  146.3870 C   0  0  0  0  0  1  0  0  0  0  0  0
  161.3000  203.4130  147.4570 N   0  0  0  0  0  2  0  0  0  0  0  0
  161.2650  200.6100  148.5120 C   0  0  0  0  0  1  0  0  0  0  0  0
  160.7620  207.2450  151.6970 N   0  0  0  0  0  0  0  0  0  0  0  0
  163.5870  205.4660  152.2920 O   0  0  0  0  0  0  0  0  0  0  0  0
  162.0240  203.6870  152.1090 C   0  0  0  0  0  2  0  0  0  0  0  0
  161.9130  207.8220  149.7010 C   0  0  0  0  0  0  0  0  0  0  0  0
  159.9670  205.3400  147.8140 F   0  0  0  0  0  0  0  0  0  0  0  0
  162.1340  209.9690  148.9040 C   0  0  0  0  0  0  0  0  0  0  0  0
  161.0300  204.8080  147.0910 C   0  0  0  0  0  0  0  0  0  0  0  0
  161.9890  205.4330  150.5150 C   0  0  1  0  0  3  0  0  0  0  0  0
  161.0580  203.4350  151.0420 N   0  0  1  0  0  0  0  0  0  0  0  0
  160.9520  213.3800  148.8250 C   0  0  0  0  0  2  0  0  0  0  0  0
  158.0790  214.3910  150.6560 N   0  0  0  0  0  2  0  0  0  0  0  0
  159.1260  214.3220  151.6640 C   0  0  0  0  0  2  0  0  0  0  0  0
  158.5840  213.5940  149.5620 C   0  0  0  0  0  2  0  0  0  0  0  0
  160.3390  213.9590  151.0600 O   0  0  0  0  0  0  0  0  0  0  0  0
  159.9700  213.1680  149.9690 C   0  0  2  0  0  3  0  0  0  0  0  0
  1 23  1  0  0  0  0
  1 22  2  0  0  0  0
  2 29  1  0  0  0  0
  4  8  1  0  0  0  0
  6 26  1  0  0  0  0
  7 16  1  0  0  0  0
  8  6  1  6  0  0  0
  8 24  1  0  0  0  0
  9 18  1  6  0  0  0
  9  4  1  0  0  0  0
 11 21  1  0  0  0  0
 12  7  2  0  0  0  0
 13 10  1  0  0  0  0
 13  3  1  0  0  0  0
 14 13  1  0  0  0  0
 15 27  1  0  0  0  0
 17  5  2  0  0  0  0
 19 14  1  0  0  0  0
 20 13  1  0  0  0  0
 21 16  2  0  0  0  0
 24 12  1  0  0  0  0
 24 11  2  0  0  0  0
 26 17  2  0  0  0  0
 26 12  1  0  0  0  0
 27  9  1  0  0  0  0
 27 19  1  0  0  0  0
 27 25  1  0  0  0  0
 28  2  1  1  0  0  0
 28 11  1  0  0  0  0
 28  1  1  0  0  0  0
 29  3  1  6  0  0  0
 29 23  1  0  0  0  0
 30  5  1  0  0  0  0
 31 32  1  0  0  0  0
 33 35  1  0  0  0  0
 33 31  1  0  0  0  0
 34 32  1  0  0  0  0
 35 30  1  6  0  0  0
 35 34  1  0  0  0  0
M  END
>  <MODEL>
2

>  <REMARK>
 VINA RESULT:      -2.4      1.499      1.876
  Name = 
  2 active torsions:
  status: ('A' for Active; 'I' for Inactive)
    1  A    between atoms: C_6  and  C_26
    2  A    between atoms: C_26  and  C_35
                            x       y       z     vdW  Elec       q    Type
                         _______ _______ _______ _____ _____    ______ ____

>  <TORSDO>
F 2

$$$$
=
 OpenBabel11072411293D

 35 39  0  0  1  0  0  0  0  0999 V2000
  162.0290  210.2060  151.4460 C   0  0  0  0  0  0  0  0  0  0  0  0
  160.0180  209.9410  152.5110 O   0  0  0  0  0  0  0  0  0  0  0  0
  160.5210  211.9100  153.6040 C   0  0  0  0  0  2  0  0  0  0  0  0
  160.8390  206.5720  154.4540 N   0  0  0  0  0  2  0  0  0  0  0  0
  161.8930  202.1080  150.9780 C   0  0  0  0  0  3  0  0  0  0  0  0
  162.2070  204.9280  153.2950 C   0  0  0  0  0  2  0  0  0  0  0  0
  160.5430  205.6640  150.0690 N   0  0  0  0  0  0  0  0  0  0  0  0
  161.8480  206.4260  153.4100 C   0  0  1  0  0  3  0  0  0  0  0  0
  160.9940  207.8880  155.0570 C   0  0  2  0  0  3  0  0  0  0  0  0
  158.1850  212.8040  153.7610 C   0  0  0  0  0  1  0  0  0  0  0  0
  160.9550  207.9940  151.4970 C   0  0  0  0  0  0  0  0  0  0  0  0
  161.0570  205.6220  151.3240 C   0  0  0  0  0  0  0  0  0  0  0  0
  159.2890  212.0790  154.5070 C   0  0  0  0  0  0  0  0  0  0  0  0
  158.7530  210.7370  155.0090 C   0  0  0  0  0  2  0  0  0  0  0  0
  159.0910  207.9180  156.5110 F   0  0  0  0  0  0  0  0  0  0  0  0
  160.2080  206.8710  149.5340 C   0  0  0  0  0  3  0  0  0  0  0  0
  161.7220  203.2890  151.5050 C   0  0  0  0  0  0  0  0  0  0  0  0
  161.8820  207.7990  156.2890 C   0  0  0  0  0  1  0  0  0  0  0  0
  159.8160  209.9400  155.6180 N   0  0  0  0  0  2  0  0  0  0  0  0
  159.6840  212.9310  155.6980 C   0  0  0  0  0  1  0  0  0  0  0  0
  160.4180  208.0200  150.2420 N   0  0  0  0  0  0  0  0  0  0  0  0
  163.1090  209.9650  150.9300 O   0  0  0  0  0  0  0  0  0  0  0  0
  161.3670  211.4950  151.4450 C   0  0  0  0  0  2  0  0  0  0  0  0
  161.2540  206.7500  152.0670 C   0  0  0  0  0  0  0  0  0  0  0  0
  158.7680  208.2640  154.3110 F   0  0  0  0  0  0  0  0  0  0  0  0
  161.5480  204.4690  152.0340 C   0  0  0  0  0  0  0  0  0  0  0  0
  159.6290  208.5040  155.3770 C   0  0  0  0  0  0  0  0  0  0  0  0
  161.2300  209.2700  152.2320 C   0  0  1  0  0  3  0  0  0  0  0  0
  160.2090  211.2910  152.3120 N   0  0  1  0  0  0  0  0  0  0  0  0
  160.7220  201.2600  150.6010 C   0  0  0  0  0  2  0  0  0  0  0  0
  161.6360  201.3920  147.1690 N   0  0  0  0  0  2  0  0  0  0  0  0
  160.9850  202.6720  147.4040 C   0  0  0  0  0  2  0  0  0  0  0  0
  161.1850  200.5570  148.2580 C   0  0  0  0  0  2  0  0  0  0  0  0
  160.5960  202.7640  148.7490 O   0  0  0  0  0  0  0  0  0  0  0  0
  160.3450  201.4460  149.1370 C   0  0  2  0  0  3  0  0  0  0  0  0
  3 13  1  0  0  0  0
  4  9  1  0  0  0  0
  5 17  2  0  0  0  0
  7 12  1  0  0  0  0
  8  6  1  6  0  0  0
  8  4  1  0  0  0  0
  9 27  1  0  0  0  0
  9 18  1  1  0  0  0
 10 13  1  0  0  0  0
 11 24  1  0  0  0  0
 11 28  1  0  0  0  0
 12 26  1  0  0  0  0
 12 24  2  0  0  0  0
 13 14  1  0  0  0  0
 13 20  1  0  0  0  0
 14 19  1  0  0  0  0
 16  7  2  0  0  0  0
 16 21  1  0  0  0  0
 17 26  2  0  0  0  0
 21 11  2  0  0  0  0
 22  1  2  0  0  0  0
 23  1  1  0  0  0  0
 24  8  1  0  0  0  0
 25 27  1  0  0  0  0
 26  6  1  0  0  0  0
 27 19  1  0  0  0  0
 27 15  1  0  0  0  0
 28  1  1  6  0  0  0
 28  2  1  0  0  0  0
 29 23  1  6  0  0  0
 29  2  1  0  0  0  0
 29  3  1  0  0  0  0
 30  5  1  0  0  0  0
 31 32  1  0  0  0  0
 31 33  1  0  0  0  0
 32 34  1  0  0  0  0
 33 35  1  0  0  0  0
 34 35  1  0  0  0  0
 35 30  1  1  0  0  0
M  END
>  <MODEL>
3

>  <REMARK>
 VINA RESULT:      -2.1      3.630      8.824
  Name = 
  2 active torsions:
  status: ('A' for Active; 'I' for Inactive)
    1  A    between atoms: C_6  and  C_26
    2  A    between atoms: C_26  and  C_35
                            x       y       z     vdW  Elec       q    Type
                         _______ _______ _______ _____ _____    ______ ____

>  <TORSDO>
F 2

$$$$
