=
 OpenBabel11072414023D

 61 69  0  0  1  0  0  0  0  0999 V2000
  161.4310  210.2700  150.7530 C   0  0  1  0  0  3  0  0  0  0  0  0
  162.0710  208.9500  148.7130 C   0  0  0  0  0  3  0  0  0  0  0  0
  161.5210  207.8090  148.3320 C   0  0  0  0  0  3  0  0  0  0  0  0
  162.1290  209.0130  150.2050 C   0  0  2  0  0  3  0  0  0  0  0  0
  161.4730  207.7280  150.5960 C   0  0  0  0  0  3  0  0  0  0  0  0
  161.1450  207.0430  149.5110 C   0  0  0  0  0  3  0  0  0  0  0  0
  160.3350  212.3980  152.4670 O   0  0  0  0  0  0  0  0  0  0  0  0
  161.6170  210.4610  152.1980 N   0  0  0  0  0  2  0  0  0  0  0  0
  160.9200  211.4160  153.0080 C   0  0  0  0  0  0  0  0  0  0  0  0
  163.6400  210.9350  156.9320 C   0  0  0  0  0  1  0  0  0  0  0  0
  160.0840  212.4440  155.1200 C   0  0  0  0  0  2  0  0  0  0  0  0
  160.1940  209.8800  154.8890 C   0  0  1  0  0  3  0  0  0  0  0  0
  157.1430  213.4820  156.6880 C   0  0  0  0  0  0  0  0  0  0  0  0
  154.9330  214.2400  157.2460 C   0  0  0  0  0  3  0  0  0  0  0  0
  159.5430  211.4830  157.2600 O   0  0  0  0  0  1  0  0  0  0  0  0
  162.3440  210.5680  156.4040 N   0  0  0  0  0  0  0  0  0  0  0  0
  158.0950  209.0390  154.9040 C   0  0  0  0  0  2  0  0  0  0  0  0
  159.1180  209.5280  154.0650 O   0  0  0  0  0  0  0  0  0  0  0  0
  161.1360  207.8150  155.9140 C   0  0  0  0  0  1  0  0  0  0  0  0
  157.7380  211.5090  155.5830 C   0  0  1  0  0  3  0  0  0  0  0  0
  155.2510  212.1220  156.0820 C   0  0  0  0  0  3  0  0  0  0  0  0
  158.5530  213.5030  156.6750 N   0  0  0  0  0  2  0  0  0  0  0  0
  162.5890  209.7220  155.2160 C   0  0  1  0  0  3  0  0  0  0  0  0
  156.3230  214.4530  157.2600 C   0  0  0  0  0  3  0  0  0  0  0  0
  156.6310  212.3440  156.1290 C   0  0  0  0  0  0  0  0  0  0  0  0
  161.3430  208.8970  154.8730 C   0  0  2  0  0  3  0  0  0  0  0  0
  159.0110  212.2020  156.1820 C   0  0  2  0  0  0  0  0  0  0  0  0
  154.3970  213.0780  156.6580 C   0  0  0  0  0  3  0  0  0  0  0  0
  162.2590  211.1460  155.0490 C   0  0  1  0  0  3  0  0  0  0  0  0
  157.5880  210.0320  155.9760 C   0  0  0  0  0  2  0  0  0  0  0  0
  160.8190  211.2250  154.5140 C   0  0  1  0  0  0  0  0  0  0  0  0
  161.7790  211.5290  149.9530 C   0  0  0  0  0  2  0  0  0  0  0  0
  160.6240  211.9690  149.0490 C   0  0  1  0  0  3  0  0  0  0  0  0
  161.1140  214.3500  149.8070 O   0  0  0  0  0  1  0  0  0  0  0  0
  159.1560  213.8920  148.6330 O   0  0  0  0  0  0  0  0  0  0  0  0
  158.8120  213.5700  149.9660 C   0  0  0  0  0  2  0  0  0  0  0  0
  160.1760  213.3770  149.4470 C   0  0  1  0  0  0  0  0  0  0  0  0
  161.0450  211.8800  147.5800 C   0  0  0  0  0  2  0  0  0  0  0  0
  162.0990  212.9040  147.1480 C   0  0  1  0  0  3  0  0  0  0  0  0
  163.4770  212.3180  146.9590 C   0  0  0  0  0  3  0  0  0  0  0  0
  164.3190  212.1870  147.9860 C   0  0  0  0  0  2  0  0  0  0  0  0
  161.6550  213.7520  145.9610 C   0  0  0  0  0  2  0  0  0  0  0  0
  161.2640  212.8180  144.8210 C   0  0  0  0  0  2  0  0  0  0  0  0
  161.0710  213.5610  143.5440 C   0  0  0  0  0  3  0  0  0  0  0  0
  162.0430  213.6240  142.6320 C   0  0  0  0  0  3  0  0  0  0  0  0
  161.8760  214.4530  141.3950 C   0  0  0  0  0  2  0  0  0  0  0  0
  159.6670  212.4920  138.2900 N   0  0  0  0  0  0  0  0  0  0  0  0
  159.6640  213.9350  140.1990 C   0  0  0  0  0  3  0  0  0  0  0  0
  161.1100  213.6860  140.3700 C   0  0  0  0  0  0  0  0  0  0  0  0
  157.6450  213.5930  139.0840 F   0  0  0  0  0  0  0  0  0  0  0  0
  161.7500  212.8440  139.5420 C   0  0  0  0  0  3  0  0  0  0  0  0
  161.0240  212.1980  138.4920 N   0  0  0  0  0  2  0  0  0  0  0  0
  158.9830  213.3640  139.2080 C   0  0  0  0  0  0  0  0  0  0  0  0
  158.9670  211.9430  137.1380 C   0  0  0  0  0  2  0  0  0  0  0  0
  158.8040  209.3800  137.4710 C   0  0  0  0  0  2  0  0  0  0  0  0
  158.7170  210.1220  138.6690 O   0  0  0  0  0  0  0  0  0  0  0  0
  158.1610  210.7130  137.5220 C   0  0  1  0  0  0  0  0  0  0  0  0
  156.6480  210.8010  137.6630 C   0  0  0  0  0  2  0  0  0  0  0  0
  156.0820  209.6460  138.4770 C   0  0  0  0  0  2  0  0  0  0  0  0
  154.5930  209.7620  138.5710 C   0  0  0  0  0  3  0  0  0  0  0  0
  153.9610  210.6330  137.8670 N   0  0  0  0  0  2  0  0  0  0  0  0
  1 32  1  6  0  0  0
  1  8  1  0  0  0  0
  2  4  1  0  0  0  0
  3  2  2  0  0  0  0
  3  6  1  0  0  0  0
  4  5  1  0  0  0  0
  4  1  1  1  0  0  0
  6  5  2  0  0  0  0
  7  9  2  0  0  0  0
  8  9  1  0  0  0  0
 11 27  1  0  0  0  0
 12 18  1  6  0  0  0
 13 24  1  0  0  0  0
 14 24  2  0  0  0  0
 16 10  1  0  0  0  0
 17 30  1  0  0  0  0
 18 17  1  0  0  0  0
 20 30  1  1  0  0  0
 20 25  1  0  0  0  0
 20 27  1  0  0  0  0
 21 25  1  0  0  0  0
 21 28  2  0  0  0  0
 22 13  1  0  0  0  0
 23 16  1  1  0  0  0
 25 13  2  0  0  0  0
 26 12  1  0  0  0  0
 26 23  1  0  0  0  0
 26 19  1  1  0  0  0
 27 22  1  0  0  0  0
 27 15  1  1  0  0  0
 28 14  1  0  0  0  0
 29 23  1  0  0  0  0
 29 16  1  1  0  0  0
 31  9  1  6  0  0  0
 31 12  1  0  0  0  0
 31 29  1  0  0  0  0
 31 11  1  0  0  0  0
 33 38  1  6  0  0  0
 33 37  1  0  0  0  0
 33 32  1  0  0  0  0
 35 37  1  0  0  0  0
 35 36  1  0  0  0  0
 37 34  1  1  0  0  0
 37 36  1  0  0  0  0
 39 42  1  6  0  0  0
 39 38  1  0  0  0  0
 40 39  1  0  0  0  0
 40 41  2  0  0  0  0
 43 42  1  0  0  0  0
 44 43  1  0  0  0  0
 45 44  2  0  0  0  0
 46 45  1  0  0  0  0
 47 52  1  0  0  0  0
 47 53  1  0  0  0  0
 48 49  1  0  0  0  0
 49 46  1  0  0  0  0
 50 53  1  0  0  0  0
 51 49  2  0  0  0  0
 52 51  1  0  0  0  0
 53 48  2  0  0  0  0
 54 47  1  0  0  0  0
 55 57  1  0  0  0  0
 55 56  1  0  0  0  0
 57 54  1  6  0  0  0
 57 58  1  0  0  0  0
 57 56  1  0  0  0  0
 58 59  1  0  0  0  0
 59 60  1  0  0  0  0
 61 60  2  0  0  0  0
M  END
>  <MODEL>
1

>  <REMARK>
 VINA RESULT:      -1.6      0.000      0.000
  Name = 
  19 active torsions:
  status: ('A' for Active; 'I' for Inactive)
    1  A    between atoms: C_1  and  C_34
    2  A    between atoms: C_1  and  C_40
    3  A    between atoms: N_3  and  C_58
    4  A    between atoms: C_6  and  C_23
    5  A    between atoms: C_6  and  C_43
    6  A    between atoms: C_13  and  C_22
    7  A    between atoms: C_13  and  C_50
    8  A    between atoms: C_19  and  C_48
    9  A    between atoms: C_21  and  C_56
   10  A    between atoms: C_21  and  C_57
   11  A    between atoms: C_22  and  C_29
   12  A    between atoms: C_25  and  C_57
   13  A    between atoms: C_29  and  C_58
   14  A    between atoms: C_31  and  C_48
   15  A    between atoms: C_31  and  C_56
   16  A    between atoms: N_38  and  C_48
   17  A    between atoms: C_40  and  C_57
   18  A    between atoms: C_45  and  C_61
   19  A    between atoms: C_54  and  C_56
                            x       y       z     vdW  Elec       q    Type
                         _______ _______ _______ _____ _____    ______ ____

>  <TORSDO>
F 19

$$$$
=
 OpenBabel11072414023D

 61 69  0  0  1  0  0  0  0  0999 V2000
  160.8380  206.7860  151.3120 C   0  0  1  0  0  3  0  0  0  0  0  0
  162.1240  204.7630  152.0650 C   0  0  0  0  0  3  0  0  0  0  0  0
  161.9920  203.5420  151.5720 C   0  0  0  0  0  3  0  0  0  0  0  0
  160.7970  205.4510  152.0760 C   0  0  2  0  0  3  0  0  0  0  0  0
  159.9060  204.4200  151.4610 C   0  0  0  0  0  3  0  0  0  0  0  0
  160.6040  203.3270  151.1930 C   0  0  0  0  0  3  0  0  0  0  0  0
  161.7600  207.3580  154.0490 O   0  0  0  0  0  0  0  0  0  0  0  0
  160.5290  207.9520  152.1510 N   0  0  0  0  0  2  0  0  0  0  0  0
  161.1430  208.2580  153.4090 C   0  0  0  0  0  0  0  0  0  0  0  0
  163.5060  211.1820  156.3920 C   0  0  0  0  0  1  0  0  0  0  0  0
  161.2950  210.6650  152.7800 C   0  0  0  0  0  2  0  0  0  0  0  0
  159.8810  209.9500  154.8110 C   0  0  1  0  0  3  0  0  0  0  0  0
  159.6880  213.1070  150.8720 C   0  0  0  0  0  0  0  0  0  0  0  0
  158.3980  214.3500  149.2720 C   0  0  0  0  0  3  0  0  0  0  0  0
  160.5420  212.6600  153.8980 O   0  0  0  0  0  1  0  0  0  0  0  0
  162.1860  210.9520  155.8450 N   0  0  0  0  0  0  0  0  0  0  0  0
  157.6980  210.3570  154.3800 C   0  0  0  0  0  2  0  0  0  0  0  0
  158.7140  209.3850  154.2790 O   0  0  0  0  0  0  0  0  0  0  0  0
  159.5670  210.3000  157.2570 C   0  0  0  0  0  1  0  0  0  0  0  0
  158.9080  211.5450  152.4280 C   0  0  1  0  0  3  0  0  0  0  0  0
  157.3040  212.7780  150.7790 C   0  0  0  0  0  3  0  0  0  0  0  0
  160.8390  212.7310  151.5930 N   0  0  0  0  0  2  0  0  0  0  0  0
  161.7650  209.6080  156.2940 C   0  0  1  0  0  3  0  0  0  0  0  0
  159.6470  214.0410  149.8370 C   0  0  0  0  0  3  0  0  0  0  0  0
  158.5540  212.5030  151.3420 C   0  0  0  0  0  0  0  0  0  0  0  0
  160.2420  209.4560  156.1940 C   0  0  2  0  0  3  0  0  0  0  0  0
  160.4050  211.9070  152.7240 C   0  0  2  0  0  0  0  0  0  0  0  0
  157.2280  213.7200  149.7400 C   0  0  0  0  0  3  0  0  0  0  0  0
  162.3000  209.7950  154.9370 C   0  0  1  0  0  3  0  0  0  0  0  0
  157.9800  211.6870  153.6430 C   0  0  0  0  0  2  0  0  0  0  0  0
  161.1190  209.6770  153.9560 C   0  0  1  0  0  0  0  0  0  0  0  0
  162.1380  206.9690  150.5220 C   0  0  0  0  0  2  0  0  0  0  0  0
  161.8810  207.0780  149.0160 C   0  0  1  0  0  3  0  0  0  0  0  0
  163.3960  208.5280  147.5730 O   0  0  0  0  0  1  0  0  0  0  0  0
  161.3270  209.3470  148.2610 O   0  0  0  0  0  0  0  0  0  0  0  0
  162.1640  209.6240  149.3670 C   0  0  0  0  0  2  0  0  0  0  0  0
  162.3670  208.4390  148.5160 C   0  0  1  0  0  0  0  0  0  0  0  0
  162.5500  205.9110  148.2860 C   0  0  0  0  0  2  0  0  0  0  0  0
  162.2820  205.8540  146.7790 C   0  0  1  0  0  3  0  0  0  0  0  0
  163.3080  205.0610  146.0060 C   0  0  0  0  0  3  0  0  0  0  0  0
  163.3930  203.7360  146.1300 C   0  0  0  0  0  2  0  0  0  0  0  0
  160.8520  205.4470  146.4420 C   0  0  0  0  0  2  0  0  0  0  0  0
  160.4690  206.0850  145.1120 C   0  0  0  0  0  2  0  0  0  0  0  0
  161.4220  205.7100  144.0290 C   0  0  0  0  0  3  0  0  0  0  0  0
  161.3170  206.2390  142.8080 C   0  0  0  0  0  3  0  0  0  0  0  0
  162.2160  205.7850  141.7000 C   0  0  0  0  0  2  0  0  0  0  0  0
  161.9710  208.4810  138.3770 N   0  0  0  0  0  0  0  0  0  0  0  0
  161.5620  208.0560  140.6950 C   0  0  0  0  0  3  0  0  0  0  0  0
  162.0480  206.6740  140.5130 C   0  0  0  0  0  0  0  0  0  0  0  0
  161.0540  210.1750  139.8660 F   0  0  0  0  0  0  0  0  0  0  0  0
  162.4280  206.2500  139.2960 C   0  0  0  0  0  3  0  0  0  0  0  0
  162.3650  207.1480  138.1830 N   0  0  0  0  0  2  0  0  0  0  0  0
  161.5270  208.9110  139.6760 C   0  0  0  0  0  0  0  0  0  0  0  0
  162.0420  209.4280  137.2740 C   0  0  0  0  0  2  0  0  0  0  0  0
  163.2290  211.4510  138.3710 C   0  0  0  0  0  2  0  0  0  0  0  0
  162.8820  211.6530  137.0170 O   0  0  0  0  0  0  0  0  0  0  0  0
  162.0070  210.8610  137.7790 C   0  0  1  0  0  0  0  0  0  0  0  0
  160.6770  211.5790  137.9560 C   0  0  0  0  0  2  0  0  0  0  0  0
  159.6070  211.0390  137.0160 C   0  0  0  0  0  2  0  0  0  0  0  0
  158.3480  210.7580  137.7750 C   0  0  0  0  0  3  0  0  0  0  0  0
  157.4700  209.9450  137.3040 N   0  0  0  0  0  2  0  0  0  0  0  0
  1 32  1  1  0  0  0
  1  8  1  0  0  0  0
  2  4  1  0  0  0  0
  3  2  2  0  0  0  0
  4  1  1  6  0  0  0
  5  4  1  0  0  0  0
  6  5  2  0  0  0  0
  6  3  1  0  0  0  0
  8  9  1  0  0  0  0
  9  7  2  0  0  0  0
 11 31  1  0  0  0  0
 12 18  1  6  0  0  0
 12 26  1  0  0  0  0
 13 25  1  0  0  0  0
 13 22  1  0  0  0  0
 14 28  2  0  0  0  0
 14 24  1  0  0  0  0
 16 10  1  0  0  0  0
 18 17  1  0  0  0  0
 20 27  1  0  0  0  0
 20 30  1  1  0  0  0
 21 25  2  0  0  0  0
 22 27  1  0  0  0  0
 23 16  1  1  0  0  0
 24 13  2  0  0  0  0
 25 20  1  0  0  0  0
 26 23  1  0  0  0  0
 26 19  1  1  0  0  0
 27 11  1  0  0  0  0
 27 15  1  1  0  0  0
 28 21  1  0  0  0  0
 29 16  1  1  0  0  0
 29 23  1  0  0  0  0
 30 17  1  0  0  0  0
 31  9  1  6  0  0  0
 31 12  1  0  0  0  0
 31 29  1  0  0  0  0
 33 38  1  6  0  0  0
 33 32  1  0  0  0  0
 35 37  1  0  0  0  0
 35 36  1  0  0  0  0
 37 34  1  6  0  0  0
 37 33  1  0  0  0  0
 37 36  1  0  0  0  0
 39 40  1  6  0  0  0
 39 38  1  0  0  0  0
 40 41  2  0  0  0  0
 42 39  1  0  0  0  0
 43 42  1  0  0  0  0
 44 43  1  0  0  0  0
 45 44  2  0  0  0  0
 46 45  1  0  0  0  0
 47 53  1  0  0  0  0
 49 48  1  0  0  0  0
 49 46  1  0  0  0  0
 51 49  2  0  0  0  0
 52 47  1  0  0  0  0
 52 51  1  0  0  0  0
 53 50  1  0  0  0  0
 53 48  2  0  0  0  0
 54 47  1  0  0  0  0
 56 57  1  0  0  0  0
 56 55  1  0  0  0  0
 57 54  1  6  0  0  0
 57 58  1  0  0  0  0
 57 55  1  0  0  0  0
 59 60  1  0  0  0  0
 59 58  1  0  0  0  0
 61 60  2  0  0  0  0
M  END
>  <MODEL>
2

>  <REMARK>
 VINA RESULT:      -1.0      3.127      5.199
  Name = 
  19 active torsions:
  status: ('A' for Active; 'I' for Inactive)
    1  A    between atoms: C_1  and  C_34
    2  A    between atoms: C_1  and  C_40
    3  A    between atoms: N_3  and  C_58
    4  A    between atoms: C_6  and  C_23
    5  A    between atoms: C_6  and  C_43
    6  A    between atoms: C_13  and  C_22
    7  A    between atoms: C_13  and  C_50
    8  A    between atoms: C_19  and  C_48
    9  A    between atoms: C_21  and  C_56
   10  A    between atoms: C_21  and  C_57
   11  A    between atoms: C_22  and  C_29
   12  A    between atoms: C_25  and  C_57
   13  A    between atoms: C_29  and  C_58
   14  A    between atoms: C_31  and  C_48
   15  A    between atoms: C_31  and  C_56
   16  A    between atoms: N_38  and  C_48
   17  A    between atoms: C_40  and  C_57
   18  A    between atoms: C_45  and  C_61
   19  A    between atoms: C_54  and  C_56
                            x       y       z     vdW  Elec       q    Type
                         _______ _______ _______ _____ _____    ______ ____

>  <TORSDO>
F 19

$$$$
=
 OpenBabel11072414023D

 61 69  0  0  1  0  0  0  0  0999 V2000
  160.4130  208.1640  153.9610 C   0  0  1  0  0  3  0  0  0  0  0  0
  160.4120  208.7620  156.4020 C   0  0  0  0  0  3  0  0  0  0  0  0
  161.4190  208.5720  157.2400 C   0  0  0  0  0  3  0  0  0  0  0  0
  160.3610  207.6450  155.4100 C   0  0  2  0  0  3  0  0  0  0  0  0
  161.5430  206.8210  155.8080 C   0  0  0  0  0  3  0  0  0  0  0  0
  162.1280  207.3570  156.8680 C   0  0  0  0  0  3  0  0  0  0  0  0
  158.2890  209.4700  155.5270 O   0  0  0  0  0  0  0  0  0  0  0  0
  159.8700  209.5210  153.8050 N   0  0  0  0  0  2  0  0  0  0  0  0
  158.9570  210.1600  154.7060 C   0  0  0  0  0  0  0  0  0  0  0  0
  160.3580  214.0140  157.2000 C   0  0  0  0  0  1  0  0  0  0  0  0
  159.4380  212.2460  153.4270 C   0  0  0  0  0  2  0  0  0  0  0  0
  157.3960  212.1360  154.9950 C   0  0  1  0  0  3  0  0  0  0  0  0
  158.6840  213.8560  150.4230 C   0  0  0  0  0  0  0  0  0  0  0  0
  158.0640  214.4470  148.1790 C   0  0  0  0  0  3  0  0  0  0  0  0
  158.4670  214.4470  153.5350 O   0  0  0  0  0  1  0  0  0  0  0  0
  159.2820  213.5460  156.3530 N   0  0  0  0  0  0  0  0  0  0  0  0
  155.5030  212.2590  153.7630 C   0  0  0  0  0  2  0  0  0  0  0  0
  156.4420  211.3650  154.3190 O   0  0  0  0  0  0  0  0  0  0  0  0
  156.3130  213.2290  156.9530 C   0  0  0  0  0  1  0  0  0  0  0  0
  157.3520  212.8290  152.0470 C   0  0  1  0  0  3  0  0  0  0  0  0
  156.4500  213.3780  149.6600 C   0  0  0  0  0  3  0  0  0  0  0  0
  159.5110  213.7960  151.5630 N   0  0  0  0  0  2  0  0  0  0  0  0
  158.6640  212.3930  157.0420 C   0  0  1  0  0  3  0  0  0  0  0  0
  159.0380  214.4070  149.1920 C   0  0  0  0  0  3  0  0  0  0  0  0
  157.4290  213.3690  150.6600 C   0  0  0  0  0  0  0  0  0  0  0  0
  157.2540  212.1300  156.5000 C   0  0  2  0  0  3  0  0  0  0  0  0
  158.6850  213.3520  152.6870 C   0  0  2  0  0  0  0  0  0  0  0  0
  156.7730  213.9340  148.4110 C   0  0  0  0  0  3  0  0  0  0  0  0
  159.6270  212.1680  155.9520 C   0  0  1  0  0  3  0  0  0  0  0  0
  156.0840  213.2980  152.7760 C   0  0  0  0  0  2  0  0  0  0  0  0
  158.8310  211.6760  154.7300 C   0  0  1  0  0  0  0  0  0  0  0  0
  161.8050  208.0210  153.3380 C   0  0  0  0  0  2  0  0  0  0  0  0
  161.7420  207.4110  151.9350 C   0  0  1  0  0  3  0  0  0  0  0  0
  163.0370  208.0680  149.8440 O   0  0  0  0  0  1  0  0  0  0  0  0
  161.2140  209.3480  150.5220 O   0  0  0  0  0  0  0  0  0  0  0  0
  162.2740  209.8620  151.3050 C   0  0  0  0  0  2  0  0  0  0  0  0
  162.2150  208.4440  150.9100 C   0  0  1  0  0  0  0  0  0  0  0  0
  162.5630  206.1190  151.8880 C   0  0  0  0  0  2  0  0  0  0  0  0
  161.7470  204.8310  152.0380 C   0  0  1  0  0  3  0  0  0  0  0  0
  160.5370  204.9750  152.9300 C   0  0  0  0  0  3  0  0  0  0  0  0
  160.3370  204.1510  153.9600 C   0  0  0  0  0  2  0  0  0  0  0  0
  161.4160  204.1770  150.7010 C   0  0  0  0  0  2  0  0  0  0  0  0
  160.6450  202.8900  150.9720 C   0  0  0  0  0  2  0  0  0  0  0  0
  160.5540  202.0380  149.7530 C   0  0  0  0  0  3  0  0  0  0  0  0
  161.5480  201.2140  149.4140 C   0  0  0  0  0  3  0  0  0  0  0  0
  161.4890  200.4340  148.1370 C   0  0  0  0  0  2  0  0  0  0  0  0
  160.6290  203.1990  144.9770 N   0  0  0  0  0  0  0  0  0  0  0  0
  160.1420  201.1230  146.0620 C   0  0  0  0  0  3  0  0  0  0  0  0
  161.2690  201.3590  146.9860 C   0  0  0  0  0  0  0  0  0  0  0  0
  158.8110  201.7500  144.2530 F   0  0  0  0  0  0  0  0  0  0  0  0
  162.0340  202.4550  146.8490 C   0  0  0  0  0  3  0  0  0  0  0  0
  161.7450  203.3920  145.8070 N   0  0  0  0  0  2  0  0  0  0  0  0
  159.8430  202.0010  145.1070 C   0  0  0  0  0  0  0  0  0  0  0  0
  160.2550  204.2230  144.0120 C   0  0  0  0  0  2  0  0  0  0  0  0
  162.4850  205.4960  143.6750 C   0  0  0  0  0  2  0  0  0  0  0  0
  161.4060  206.0190  142.9300 O   0  0  0  0  0  0  0  0  0  0  0  0
  161.0970  205.4760  144.1880 C   0  0  1  0  0  0  0  0  0  0  0  0
  160.6400  206.5790  145.1320 C   0  0  0  0  0  2  0  0  0  0  0  0
  159.9900  206.0210  146.3910 C   0  0  0  0  0  2  0  0  0  0  0  0
  160.8100  206.3690  147.5930 C   0  0  0  0  0  3  0  0  0  0  0  0
  160.2440  206.6100  148.7220 N   0  0  0  0  0  2  0  0  0  0  0  0
  1 32  1  1  0  0  0
  2  3  2  0  0  0  0
  4  1  1  6  0  0  0
  4  5  1  0  0  0  0
  4  2  1  0  0  0  0
  5  6  2  0  0  0  0
  6  3  1  0  0  0  0
  8  1  1  0  0  0  0
  8  9  1  0  0  0  0
  9  7  2  0  0  0  0
 11 31  1  0  0  0  0
 12 18  1  6  0  0  0
 12 26  1  0  0  0  0
 13 25  1  0  0  0  0
 13 22  1  0  0  0  0
 14 28  2  0  0  0  0
 14 24  1  0  0  0  0
 16 10  1  0  0  0  0
 17 18  1  0  0  0  0
 20 27  1  0  0  0  0
 20 30  1  1  0  0  0
 21 25  2  0  0  0  0
 22 27  1  0  0  0  0
 23 16  1  6  0  0  0
 24 13  2  0  0  0  0
 25 20  1  0  0  0  0
 26 19  1  6  0  0  0
 26 23  1  0  0  0  0
 27 11  1  0  0  0  0
 27 15  1  1  0  0  0
 28 21  1  0  0  0  0
 29 16  1  6  0  0  0
 29 23  1  0  0  0  0
 30 17  1  0  0  0  0
 31  9  1  6  0  0  0
 31 12  1  0  0  0  0
 31 29  1  0  0  0  0
 33 38  1  1  0  0  0
 33 32  1  0  0  0  0
 35 37  1  0  0  0  0
 35 36  1  0  0  0  0
 37 34  1  6  0  0  0
 37 36  1  0  0  0  0
 37 33  1  0  0  0  0
 38 39  1  0  0  0  0
 39 42  1  6  0  0  0
 39 40  1  0  0  0  0
 40 41  2  0  0  0  0
 42 43  1  0  0  0  0
 44 43  1  0  0  0  0
 45 44  2  0  0  0  0
 46 45  1  0  0  0  0
 47 53  1  0  0  0  0
 47 52  1  0  0  0  0
 48 49  1  0  0  0  0
 49 46  1  0  0  0  0
 50 53  1  0  0  0  0
 51 49  2  0  0  0  0
 52 51  1  0  0  0  0
 53 48  2  0  0  0  0
 54 47  1  0  0  0  0
 55 57  1  0  0  0  0
 56 55  1  0  0  0  0
 56 57  1  0  0  0  0
 57 54  1  1  0  0  0
 57 58  1  0  0  0  0
 58 59  1  0  0  0  0
 59 60  1  0  0  0  0
 60 61  2  0  0  0  0
M  END
>  <MODEL>
3

>  <REMARK>
 VINA RESULT:      -0.5      5.488      8.413
  Name = 
  19 active torsions:
  status: ('A' for Active; 'I' for Inactive)
    1  A    between atoms: C_1  and  C_34
    2  A    between atoms: C_1  and  C_40
    3  A    between atoms: N_3  and  C_58
    4  A    between atoms: C_6  and  C_23
    5  A    between atoms: C_6  and  C_43
    6  A    between atoms: C_13  and  C_22
    7  A    between atoms: C_13  and  C_50
    8  A    between atoms: C_19  and  C_48
    9  A    between atoms: C_21  and  C_56
   10  A    between atoms: C_21  and  C_57
   11  A    between atoms: C_22  and  C_29
   12  A    between atoms: C_25  and  C_57
   13  A    between atoms: C_29  and  C_58
   14  A    between atoms: C_31  and  C_48
   15  A    between atoms: C_31  and  C_56
   16  A    between atoms: N_38  and  C_48
   17  A    between atoms: C_40  and  C_57
   18  A    between atoms: C_45  and  C_61
   19  A    between atoms: C_54  and  C_56
                            x       y       z     vdW  Elec       q    Type
                         _______ _______ _______ _____ _____    ______ ____

>  <TORSDO>
F 19

$$$$
=
 OpenBabel11072414023D

 61 69  0  0  1  0  0  0  0  0999 V2000
  162.0250  208.4290  149.1400 C   0  0  1  0  0  3  0  0  0  0  0  0
  160.4210  206.5490  148.6820 C   0  0  0  0  0  3  0  0  0  0  0  0
  160.7370  205.2650  148.6310 C   0  0  0  0  0  3  0  0  0  0  0  0
  161.5430  207.3700  148.1320 C   0  0  2  0  0  3  0  0  0  0  0  0
  162.5620  206.3250  147.8070 C   0  0  0  0  0  3  0  0  0  0  0  0
  162.0770  205.1240  148.0840 C   0  0  0  0  0  3  0  0  0  0  0  0
  160.5960  209.6430  146.8710 O   0  0  0  0  0  0  0  0  0  0  0  0
  162.2260  209.7570  148.5430 N   0  0  0  0  0  2  0  0  0  0  0  0
  161.3850  210.3590  147.5510 C   0  0  0  0  0  0  0  0  0  0  0  0
  162.6000  214.4480  149.7510 C   0  0  0  0  0  1  0  0  0  0  0  0
  162.2730  212.2070  146.1340 C   0  0  0  0  0  2  0  0  0  0  0  0
  159.9680  212.4400  147.2600 C   0  0  1  0  0  3  0  0  0  0  0  0
  162.2460  213.4060  142.8560 C   0  0  0  0  0  0  0  0  0  0  0  0
  162.1170  213.7010  140.4750 C   0  0  0  0  0  3  0  0  0  0  0  0
  161.4870  214.4520  145.7560 O   0  0  0  0  0  1  0  0  0  0  0  0
  161.6700  213.9230  148.7740 N   0  0  0  0  0  0  0  0  0  0  0  0
  158.3620  212.4890  145.6680 C   0  0  0  0  0  2  0  0  0  0  0  0
  159.1000  211.6340  146.5130 O   0  0  0  0  0  0  0  0  0  0  0  0
  158.6250  213.8630  148.8010 C   0  0  0  0  0  1  0  0  0  0  0  0
  160.5460  212.7010  144.2990 C   0  0  1  0  0  3  0  0  0  0  0  0
  160.1670  212.9480  141.7290 C   0  0  0  0  0  3  0  0  0  0  0  0
  162.8310  213.4650  144.1370 N   0  0  0  0  0  2  0  0  0  0  0  0
  160.8380  212.9190  149.4690 C   0  0  1  0  0  3  0  0  0  0  0  0
  162.8730  213.7520  141.6600 C   0  0  0  0  0  3  0  0  0  0  0  0
  160.9310  213.0300  142.8980 C   0  0  0  0  0  0  0  0  0  0  0  0
  159.5400  212.6600  148.6940 C   0  0  2  0  0  3  0  0  0  0  0  0
  161.7710  213.2360  145.1200 C   0  0  2  0  0  0  0  0  0  0  0  0
  160.7680  213.2990  140.5080 C   0  0  0  0  0  3  0  0  0  0  0  0
  161.9690  212.4850  148.6340 C   0  0  1  0  0  3  0  0  0  0  0  0
  159.2060  213.3400  144.6900 C   0  0  0  0  0  2  0  0  0  0  0  0
  161.3830  211.8670  147.3520 C   0  0  1  0  0  0  0  0  0  0  0  0
  161.1490  208.4840  150.3950 C   0  0  0  0  0  2  0  0  0  0  0  0
  161.8890  209.1090  151.5820 C   0  0  1  0  0  3  0  0  0  0  0  0
  159.5130  209.4850  152.4140 O   0  0  0  0  0  1  0  0  0  0  0  0
  161.3090  209.8330  153.8540 O   0  0  0  0  0  0  0  0  0  0  0  0
  161.2240  211.0560  153.1480 C   0  0  0  0  0  2  0  0  0  0  0  0
  160.8770  209.7690  152.5200 C   0  0  1  0  0  0  0  0  0  0  0  0
  162.7380  208.0480  152.2860 C   0  0  0  0  0  2  0  0  0  0  0  0
  161.9910  206.7630  152.6550 C   0  0  1  0  0  3  0  0  0  0  0  0
  160.7110  207.0000  153.4200 C   0  0  0  0  0  3  0  0  0  0  0  0
  160.6300  206.7450  154.7270 C   0  0  0  0  0  2  0  0  0  0  0  0
  161.7990  205.8240  151.4690 C   0  0  0  0  0  2  0  0  0  0  0  0
  160.6540  204.8710  151.7890 C   0  0  0  0  0  2  0  0  0  0  0  0
  160.8360  203.5490  151.1240 C   0  0  0  0  0  3  0  0  0  0  0  0
  161.0890  202.4500  151.8370 C   0  0  0  0  0  3  0  0  0  0  0  0
  161.3670  201.1460  151.1550 C   0  0  0  0  0  2  0  0  0  0  0  0
  160.3410  201.2080  146.9940 N   0  0  0  0  0  0  0  0  0  0  0  0
  161.7970  200.4300  148.7260 C   0  0  0  0  0  3  0  0  0  0  0  0
  161.0560  201.2570  149.7000 C   0  0  0  0  0  0  0  0  0  0  0  0
  162.1660  199.6560  146.5590 F   0  0  0  0  0  0  0  0  0  0  0  0
  160.0400  202.0340  149.2870 C   0  0  0  0  0  3  0  0  0  0  0  0
  159.6800  202.0490  147.9020 N   0  0  0  0  0  2  0  0  0  0  0  0
  161.4530  200.4110  147.4410 C   0  0  0  0  0  0  0  0  0  0  0  0
  159.8800  201.1200  145.6160 C   0  0  0  0  0  2  0  0  0  0  0  0
  159.3510  202.6560  143.6000 C   0  0  0  0  0  2  0  0  0  0  0  0
  158.7580  203.0740  144.8120 O   0  0  0  0  0  0  0  0  0  0  0  0
  160.0170  202.4570  144.9060 C   0  0  1  0  0  0  0  0  0  0  0  0
  161.0570  203.4670  145.3700 C   0  0  0  0  0  2  0  0  0  0  0  0
  160.6420  204.8990  145.0580 C   0  0  0  0  0  2  0  0  0  0  0  0
  161.6360  205.5360  144.1380 C   0  0  0  0  0  3  0  0  0  0  0  0
  162.8120  205.8410  144.5590 N   0  0  0  0  0  2  0  0  0  0  0  0
  1 32  1  1  0  0  0
  3  2  2  0  0  0  0
  4  2  1  0  0  0  0
  4  1  1  1  0  0  0
  5  6  2  0  0  0  0
  5  4  1  0  0  0  0
  6  3  1  0  0  0  0
  7  9  2  0  0  0  0
  8  1  1  0  0  0  0
  9  8  1  0  0  0  0
 11 31  1  0  0  0  0
 12 18  1  1  0  0  0
 12 31  1  0  0  0  0
 12 26  1  0  0  0  0
 13 25  1  0  0  0  0
 13 22  1  0  0  0  0
 14 28  2  0  0  0  0
 14 24  1  0  0  0  0
 16 10  1  0  0  0  0
 17 18  1  0  0  0  0
 20 30  1  1  0  0  0
 20 27  1  0  0  0  0
 21 25  2  0  0  0  0
 22 27  1  0  0  0  0
 23 16  1  6  0  0  0
 24 13  2  0  0  0  0
 25 20  1  0  0  0  0
 26 19  1  6  0  0  0
 26 23  1  0  0  0  0
 27 15  1  1  0  0  0
 27 11  1  0  0  0  0
 28 21  1  0  0  0  0
 29 16  1  6  0  0  0
 29 23  1  0  0  0  0
 30 17  1  0  0  0  0
 31  9  1  1  0  0  0
 31 29  1  0  0  0  0
 33 32  1  6  0  0  0
 33 38  1  0  0  0  0
 33 37  1  0  0  0  0
 36 35  1  0  0  0  0
 37 34  1  6  0  0  0
 37 36  1  0  0  0  0
 37 35  1  0  0  0  0
 38 39  1  0  0  0  0
 39 42  1  6  0  0  0
 39 40  1  0  0  0  0
 40 41  2  0  0  0  0
 42 43  1  0  0  0  0
 44 43  1  0  0  0  0
 44 45  2  0  0  0  0
 46 45  1  0  0  0  0
 47 53  1  0  0  0  0
 47 52  1  0  0  0  0
 48 49  1  0  0  0  0
 49 46  1  0  0  0  0
 50 53  1  0  0  0  0
 51 49  2  0  0  0  0
 52 51  1  0  0  0  0
 53 48  2  0  0  0  0
 54 47  1  0  0  0  0
 55 56  1  0  0  0  0
 55 57  1  0  0  0  0
 56 57  1  0  0  0  0
 57 58  1  1  0  0  0
 57 54  1  0  0  0  0
 59 58  1  0  0  0  0
 60 61  2  0  0  0  0
 60 59  1  0  0  0  0
M  END
>  <MODEL>
4

>  <REMARK>
 VINA RESULT:       1.0      4.767     10.717
  Name = 
  19 active torsions:
  status: ('A' for Active; 'I' for Inactive)
    1  A    between atoms: C_1  and  C_34
    2  A    between atoms: C_1  and  C_40
    3  A    between atoms: N_3  and  C_58
    4  A    between atoms: C_6  and  C_23
    5  A    between atoms: C_6  and  C_43
    6  A    between atoms: C_13  and  C_22
    7  A    between atoms: C_13  and  C_50
    8  A    between atoms: C_19  and  C_48
    9  A    between atoms: C_21  and  C_56
   10  A    between atoms: C_21  and  C_57
   11  A    between atoms: C_22  and  C_29
   12  A    between atoms: C_25  and  C_57
   13  A    between atoms: C_29  and  C_58
   14  A    between atoms: C_31  and  C_48
   15  A    between atoms: C_31  and  C_56
   16  A    between atoms: N_38  and  C_48
   17  A    between atoms: C_40  and  C_57
   18  A    between atoms: C_45  and  C_61
   19  A    between atoms: C_54  and  C_56
                            x       y       z     vdW  Elec       q    Type
                         _______ _______ _______ _____ _____    ______ ____

>  <TORSDO>
F 19

$$$$
