=
 OpenBabel11072410183D

 33 36  0  0  1  0  0  0  0  0999 V2000
  161.2450  208.0120  152.6140 C   0  0  0  0  0  0  0  0  0  0  0  0
  161.1850  206.7480  151.9410 N   0  0  0  0  0  2  0  0  0  0  0  0
  161.5700  209.0640  152.0020 O   0  0  0  0  0  0  0  0  0  0  0  0
  161.8370  206.0050  147.7950 C   0  0  0  0  0  0  0  0  0  0  0  0
  161.2070  205.2160  150.0240 C   0  0  0  0  0  0  0  0  0  0  0  0
  160.8130  204.2020  150.8420 N   0  0  0  0  0  0  0  0  0  0  0  0
  161.2530  203.6490  148.1970 C   0  0  0  0  0  3  0  0  0  0  0  0
  161.4170  206.5040  150.5450 C   0  0  0  0  0  0  0  0  0  0  0  0
  160.6380  202.9430  150.3660 C   0  0  0  0  0  3  0  0  0  0  0  0
  161.8600  207.5210  149.6890 C   0  0  0  0  0  3  0  0  0  0  0  0
  161.4230  204.9610  148.6500 C   0  0  0  0  0  0  0  0  0  0  0  0
  160.8620  202.6720  149.0550 N   0  0  0  0  0  0  0  0  0  0  0  0
  162.0740  207.2720  148.3330 C   0  0  0  0  0  3  0  0  0  0  0  0
  161.0870  205.7620  145.3730 C   0  0  0  0  0  0  0  0  0  0  0  0
  161.4780  205.3660  143.9950 C   0  0  0  0  0  1  0  0  0  0  0  0
  159.9050  206.2410  145.5820 N   0  0  0  0  0  2  0  0  0  0  0  0
  162.0870  205.8080  146.3950 N   0  0  0  0  0  2  0  0  0  0  0  0
  160.8510  208.0970  154.3560 S   0  0  0  0  0  0  0  0  0  0  0  0
  162.0260  210.4430  155.1140 C   0  0  0  0  0  1  0  0  0  0  0  0
  160.8220  209.9120  154.3580 C   0  0  2  0  0  3  0  0  0  0  0  0
  159.5450  210.3940  155.0300 C   0  0  0  0  0  2  0  0  0  0  0  0
  157.3080  211.5960  154.4980 C   0  0  1  0  0  3  0  0  0  0  0  0
  157.0200  212.9990  153.9460 C   0  0  0  0  0  2  0  0  0  0  0  0
  158.3710  213.4540  153.3860 C   0  0  1  0  0  3  0  0  0  0  0  0
  158.9630  211.2350  152.6760 C   0  0  0  0  0  2  0  0  0  0  0  0
  159.3220  212.8190  154.3660 C   0  0  0  0  0  2  0  0  0  0  0  0
  158.6170  212.6220  152.1220 C   0  0  2  0  0  3  0  0  0  0  0  0
  158.8010  211.4270  154.1830 C   0  0  2  0  0  0  0  0  0  0  0  0
  159.3250  213.7220  150.1240 O   0  0  0  0  0  1  0  0  0  0  0  0
  159.7840  213.1870  151.3270 C   0  0  0  0  0  2  0  0  0  0  0  0
  157.0870  211.5940  155.8800 O   0  0  0  0  0  0  0  0  0  0  0  0
  155.7110  211.4050  156.0230 C   0  0  0  0  0  2  0  0  0  0  0  0
  155.2960  210.1550  155.2750 C   0  0  0  0  0  1  0  0  0  0  0  0
  1 18  1  0  0  0  0
  2  1  1  0  0  0  0
  3  1  2  0  0  0  0
  4 13  2  0  0  0  0
  4 11  1  0  0  0  0
  5  8  1  0  0  0  0
  5  6  1  0  0  0  0
  7 11  1  0  0  0  0
  7 12  2  0  0  0  0
  8  2  1  0  0  0  0
  9  6  2  0  0  0  0
 10  8  2  0  0  0  0
 11  5  2  0  0  0  0
 12  9  1  0  0  0  0
 13 10  1  0  0  0  0
 14 16  2  0  0  0  0
 14 17  1  0  0  0  0
 15 14  1  0  0  0  0
 17  4  1  0  0  0  0
 18 20  1  0  0  0  0
 20 21  1  0  0  0  0
 20 19  1  1  0  0  0
 22 31  1  1  0  0  0
 23 22  1  0  0  0  0
 24 23  1  1  0  0  0
 24 26  1  0  0  0  0
 25 28  1  0  0  0  0
 27 30  1  1  0  0  0
 27 25  1  0  0  0  0
 27 24  1  0  0  0  0
 28 26  1  0  0  0  0
 28 22  1  0  0  0  0
 28 21  1  1  0  0  0
 29 30  1  0  0  0  0
 31 32  1  0  0  0  0
 33 32  1  0  0  0  0
M  END
>  <MODEL>
1

>  <REMARK>
 VINA RESULT:      -7.8      0.000      0.000
  Name = 
  9 active torsions:
  status: ('A' for Active; 'I' for Inactive)
    1  A    between atoms: C_1  and  O_9
    2  A    between atoms: C_2  and  O_9
    3  A    between atoms: C_4  and  S_32
    4  A    between atoms: C_5  and  N_25
    5  A    between atoms: C_15  and  N_29
    6  A    between atoms: C_16  and  C_20
    7  A    between atoms: C_16  and  C_28
    8  A    between atoms: C_20  and  S_32
    9  A    between atoms: C_26  and  C_27
                            x       y       z     vdW  Elec       q    Type
                         _______ _______ _______ _____ _____    ______ ____

>  <TORSDO>
F 9

$$$$
=
 OpenBabel11072410183D

 33 36  0  0  1  0  0  0  0  0999 V2000
  160.8550  207.4060  155.2310 C   0  0  0  0  0  0  0  0  0  0  0  0
  161.7840  207.1770  154.1650 N   0  0  0  0  0  2  0  0  0  0  0  0
  159.6720  206.9740  155.1720 O   0  0  0  0  0  0  0  0  0  0  0  0
  161.1260  204.9570  150.5870 C   0  0  0  0  0  0  0  0  0  0  0  0
  161.6520  207.0630  151.7170 C   0  0  0  0  0  0  0  0  0  0  0  0
  161.9420  208.3910  151.6480 N   0  0  0  0  0  0  0  0  0  0  0  0
  161.4920  207.0320  149.3150 C   0  0  0  0  0  3  0  0  0  0  0  0
  161.5500  206.4240  152.9640 C   0  0  0  0  0  0  0  0  0  0  0  0
  162.0110  209.0340  150.4550 C   0  0  0  0  0  3  0  0  0  0  0  0
  161.2120  205.0650  153.0090 C   0  0  0  0  0  3  0  0  0  0  0  0
  161.4330  206.3340  150.5250 C   0  0  0  0  0  0  0  0  0  0  0  0
  161.7830  208.3580  149.3010 N   0  0  0  0  0  0  0  0  0  0  0  0
  160.9960  204.3430  151.8350 C   0  0  0  0  0  3  0  0  0  0  0  0
  160.9220  202.7350  149.3570 C   0  0  0  0  0  0  0  0  0  0  0  0
  160.8280  202.0620  148.0360 C   0  0  0  0  0  1  0  0  0  0  0  0
  160.8440  202.0270  150.4360 N   0  0  0  0  0  2  0  0  0  0  0  0
  160.8800  204.1640  149.4150 N   0  0  0  0  0  2  0  0  0  0  0  0
  161.3820  208.3220  156.6730 S   0  0  0  0  0  0  0  0  0  0  0  0
  162.6610  210.6470  156.0240 C   0  0  0  0  0  1  0  0  0  0  0  0
  161.3560  209.9090  155.7910 C   0  0  2  0  0  3  0  0  0  0  0  0
  160.1970  210.7500  156.3060 C   0  0  0  0  0  2  0  0  0  0  0  0
  157.8180  211.2980  155.4250 C   0  0  1  0  0  3  0  0  0  0  0  0
  157.3260  212.3650  154.4380 C   0  0  0  0  0  2  0  0  0  0  0  0
  158.6070  212.8380  153.7440 C   0  0  1  0  0  3  0  0  0  0  0  0
  159.5970  210.6490  153.8110 C   0  0  0  0  0  2  0  0  0  0  0  0
  159.6010  212.7400  154.8700 C   0  0  0  0  0  2  0  0  0  0  0  0
  159.0500  211.6900  152.8290 C   0  0  2  0  0  3  0  0  0  0  0  0
  159.3320  211.2980  155.1690 C   0  0  2  0  0  0  0  0  0  0  0  0
  159.6200  213.0670  150.9620 O   0  0  0  0  0  1  0  0  0  0  0  0
  160.1430  212.1550  151.8790 C   0  0  0  0  0  2  0  0  0  0  0  0
  157.5330  211.7150  156.7300 O   0  0  0  0  0  0  0  0  0  0  0  0
  156.2840  212.3320  156.6450 C   0  0  0  0  0  2  0  0  0  0  0  0
  155.2170  211.3750  157.1360 C   0  0  0  0  0  1  0  0  0  0  0  0
  1 18  1  0  0  0  0
  2  1  1  0  0  0  0
  3  1  2  0  0  0  0
  4 13  1  0  0  0  0
  5  8  2  0  0  0  0
  6  5  1  0  0  0  0
  7 11  1  0  0  0  0
  8 10  1  0  0  0  0
  8  2  1  0  0  0  0
  9  6  2  0  0  0  0
 11  4  2  0  0  0  0
 11  5  1  0  0  0  0
 12  7  2  0  0  0  0
 12  9  1  0  0  0  0
 13 10  2  0  0  0  0
 14 17  1  0  0  0  0
 14 16  2  0  0  0  0
 15 14  1  0  0  0  0
 17  4  1  0  0  0  0
 20 19  1  1  0  0  0
 20 21  1  0  0  0  0
 20 18  1  0  0  0  0
 22 31  1  1  0  0  0
 23 22  1  0  0  0  0
 24 23  1  1  0  0  0
 24 26  1  0  0  0  0
 25 28  1  0  0  0  0
 26 28  1  0  0  0  0
 27 30  1  6  0  0  0
 27 24  1  0  0  0  0
 27 25  1  0  0  0  0
 28 22  1  0  0  0  0
 28 21  1  1  0  0  0
 29 30  1  0  0  0  0
 32 31  1  0  0  0  0
 32 33  1  0  0  0  0
M  END
>  <MODEL>
2

>  <REMARK>
 VINA RESULT:      -7.3      2.092      3.208
  Name = 
  9 active torsions:
  status: ('A' for Active; 'I' for Inactive)
    1  A    between atoms: C_1  and  O_9
    2  A    between atoms: C_2  and  O_9
    3  A    between atoms: C_4  and  S_32
    4  A    between atoms: C_5  and  N_25
    5  A    between atoms: C_15  and  N_29
    6  A    between atoms: C_16  and  C_20
    7  A    between atoms: C_16  and  C_28
    8  A    between atoms: C_20  and  S_32
    9  A    between atoms: C_26  and  C_27
                            x       y       z     vdW  Elec       q    Type
                         _______ _______ _______ _____ _____    ______ ____

>  <TORSDO>
F 9

$$$$
=
 OpenBabel11072410183D

 33 36  0  0  1  0  0  0  0  0999 V2000
  161.1100  207.1860  153.9280 C   0  0  0  0  0  0  0  0  0  0  0  0
  160.6090  207.6800  152.6800 N   0  0  0  0  0  2  0  0  0  0  0  0
  161.9590  206.2560  153.9710 O   0  0  0  0  0  0  0  0  0  0  0  0
  161.8280  206.4550  148.7830 C   0  0  0  0  0  0  0  0  0  0  0  0
  161.5020  208.2110  150.4560 C   0  0  0  0  0  0  0  0  0  0  0  0
  161.5770  209.5230  150.8100 N   0  0  0  0  0  0  0  0  0  0  0  0
  162.3380  208.8090  148.2800 C   0  0  0  0  0  3  0  0  0  0  0  0
  161.0080  207.2610  151.3650 C   0  0  0  0  0  0  0  0  0  0  0  0
  162.0190  210.4620  149.9350 C   0  0  0  0  0  3  0  0  0  0  0  0
  160.9050  205.9220  150.9630 C   0  0  0  0  0  3  0  0  0  0  0  0
  161.9060  207.8130  149.1610 C   0  0  0  0  0  0  0  0  0  0  0  0
  162.3910  210.1050  148.6800 N   0  0  0  0  0  0  0  0  0  0  0  0
  161.3030  205.5260  149.6860 C   0  0  0  0  0  3  0  0  0  0  0  0
  161.3220  205.8100  146.3710 C   0  0  0  0  0  0  0  0  0  0  0  0
  161.8260  205.1450  145.1420 C   0  0  0  0  0  1  0  0  0  0  0  0
  160.1650  206.3850  146.3510 N   0  0  0  0  0  2  0  0  0  0  0  0
  162.2090  205.9890  147.4800 N   0  0  0  0  0  2  0  0  0  0  0  0
  160.5170  207.9030  155.4560 S   0  0  0  0  0  0  0  0  0  0  0  0
  161.8700  210.2350  155.0170 C   0  0  0  0  0  1  0  0  0  0  0  0
  160.5190  209.5870  154.7760 C   0  0  2  0  0  3  0  0  0  0  0  0
  159.4330  210.4050  155.4590 C   0  0  0  0  0  2  0  0  0  0  0  0
  157.2240  211.5400  154.7080 C   0  0  1  0  0  3  0  0  0  0  0  0
  156.9620  212.8890  154.0260 C   0  0  0  0  0  2  0  0  0  0  0  0
  158.3400  213.3080  153.5040 C   0  0  1  0  0  3  0  0  0  0  0  0
  158.9780  211.0430  153.0150 C   0  0  0  0  0  2  0  0  0  0  0  0
  159.2370  212.7650  154.5850 C   0  0  0  0  0  2  0  0  0  0  0  0
  158.6580  212.3760  152.3300 C   0  0  2  0  0  3  0  0  0  0  0  0
  158.7330  211.3580  154.4900 C   0  0  2  0  0  0  0  0  0  0  0  0
  159.7490  214.2560  151.3400 O   0  0  0  0  0  1  0  0  0  0  0  0
  159.8650  212.8830  151.5550 C   0  0  0  0  0  2  0  0  0  0  0  0
  156.9270  211.6500  156.0710 O   0  0  0  0  0  0  0  0  0  0  0  0
  155.5670  211.3530  156.1680 C   0  0  0  0  0  2  0  0  0  0  0  0
  155.2570  210.1380  155.3200 C   0  0  0  0  0  1  0  0  0  0  0  0
  1  3  2  0  0  0  0
  1 18  1  0  0  0  0
  2  1  1  0  0  0  0
  4 11  2  0  0  0  0
  4 13  1  0  0  0  0
  5  6  1  0  0  0  0
  5  8  2  0  0  0  0
  7 12  2  0  0  0  0
  7 11  1  0  0  0  0
  8  2  1  0  0  0  0
  9  6  2  0  0  0  0
 10  8  1  0  0  0  0
 11  5  1  0  0  0  0
 12  9  1  0  0  0  0
 13 10  2  0  0  0  0
 14 17  1  0  0  0  0
 15 14  1  0  0  0  0
 16 14  2  0  0  0  0
 17  4  1  0  0  0  0
 20 19  1  1  0  0  0
 20 18  1  0  0  0  0
 20 21  1  0  0  0  0
 22 31  1  1  0  0  0
 23 22  1  0  0  0  0
 24 23  1  1  0  0  0
 24 26  1  0  0  0  0
 25 28  1  0  0  0  0
 27 30  1  1  0  0  0
 27 25  1  0  0  0  0
 27 24  1  0  0  0  0
 28 26  1  0  0  0  0
 28 22  1  0  0  0  0
 28 21  1  1  0  0  0
 29 30  1  0  0  0  0
 31 32  1  0  0  0  0
 33 32  1  0  0  0  0
M  END
>  <MODEL>
3

>  <REMARK>
 VINA RESULT:      -7.3      1.497      2.637
  Name = 
  9 active torsions:
  status: ('A' for Active; 'I' for Inactive)
    1  A    between atoms: C_1  and  O_9
    2  A    between atoms: C_2  and  O_9
    3  A    between atoms: C_4  and  S_32
    4  A    between atoms: C_5  and  N_25
    5  A    between atoms: C_15  and  N_29
    6  A    between atoms: C_16  and  C_20
    7  A    between atoms: C_16  and  C_28
    8  A    between atoms: C_20  and  S_32
    9  A    between atoms: C_26  and  C_27
                            x       y       z     vdW  Elec       q    Type
                         _______ _______ _______ _____ _____    ______ ____

>  <TORSDO>
F 9

$$$$
=
 OpenBabel11072410183D

 33 36  0  0  1  0  0  0  0  0999 V2000
  161.0070  205.2610  151.6290 C   0  0  0  0  0  0  0  0  0  0  0  0
  161.3760  206.0090  152.7940 N   0  0  0  0  0  2  0  0  0  0  0  0
  160.3360  205.7860  150.7000 O   0  0  0  0  0  0  0  0  0  0  0  0
  160.6020  210.1260  153.5800 C   0  0  0  0  0  0  0  0  0  0  0  0
  160.7760  207.8100  154.3500 C   0  0  0  0  0  0  0  0  0  0  0  0
  160.6870  206.8980  155.3560 N   0  0  0  0  0  0  0  0  0  0  0  0
  160.1390  209.5200  155.9200 C   0  0  0  0  0  3  0  0  0  0  0  0
  161.1060  207.3970  153.0480 C   0  0  0  0  0  0  0  0  0  0  0  0
  160.3360  207.2710  156.6130 C   0  0  0  0  0  3  0  0  0  0  0  0
  161.1540  208.3500  152.0220 C   0  0  0  0  0  3  0  0  0  0  0  0
  160.5170  209.1730  154.6180 C   0  0  0  0  0  0  0  0  0  0  0  0
  160.0610  208.5710  156.8880 N   0  0  0  0  0  0  0  0  0  0  0  0
  160.8980  209.6960  152.2840 C   0  0  0  0  0  3  0  0  0  0  0  0
  159.0620  212.1550  153.6330 C   0  0  0  0  0  0  0  0  0  0  0  0
  158.9780  213.6370  153.6960 C   0  0  0  0  0  1  0  0  0  0  0  0
  157.9730  211.4580  153.6380 N   0  0  0  0  0  2  0  0  0  0  0  0
  160.3370  211.5220  153.7840 N   0  0  0  0  0  2  0  0  0  0  0  0
  161.5070  203.5500  151.4910 S   0  0  0  0  0  0  0  0  0  0  0  0
  160.0550  202.0960  149.6910 C   0  0  0  0  0  1  0  0  0  0  0  0
  160.8370  203.3910  149.8100 C   0  0  2  0  0  3  0  0  0  0  0  0
  161.9840  203.3870  148.8110 C   0  0  0  0  0  2  0  0  0  0  0  0
  161.8490  203.9130  146.2740 C   0  0  1  0  0  3  0  0  0  0  0  0
  161.0970  205.0090  145.5060 C   0  0  0  0  0  2  0  0  0  0  0  0
  160.7140  206.0180  146.5940 C   0  0  1  0  0  3  0  0  0  0  0  0
  162.7390  205.6370  147.8310 C   0  0  0  0  0  2  0  0  0  0  0  0
  160.4580  205.1030  147.7620 C   0  0  0  0  0  2  0  0  0  0  0  0
  162.0150  206.7120  147.0140 C   0  0  2  0  0  3  0  0  0  0  0  0
  161.7990  204.4380  147.7150 C   0  0  2  0  0  0  0  0  0  0  0  0
  162.5420  207.9300  149.0010 O   0  0  0  0  0  1  0  0  0  0  0  0
  161.7170  207.9290  147.8770 C   0  0  0  0  0  2  0  0  0  0  0  0
  161.1470  202.7080  146.1570 O   0  0  0  0  0  0  0  0  0  0  0  0
  160.4730  202.8010  144.9380 C   0  0  0  0  0  2  0  0  0  0  0  0
  159.6690  201.5390  144.7120 C   0  0  0  0  0  1  0  0  0  0  0  0
  1  2  1  0  0  0  0
  2  8  1  0  0  0  0
  3  1  2  0  0  0  0
  4 17  1  0  0  0  0
  4 11  1  0  0  0  0
  5 11  2  0  0  0  0
  5  6  1  0  0  0  0
  6  9  2  0  0  0  0
  7 12  2  0  0  0  0
  8  5  1  0  0  0  0
  9 12  1  0  0  0  0
 10 13  1  0  0  0  0
 10  8  2  0  0  0  0
 11  7  1  0  0  0  0
 13  4  2  0  0  0  0
 14 16  2  0  0  0  0
 14 15  1  0  0  0  0
 14 17  1  0  0  0  0
 18  1  1  0  0  0  0
 20 19  1  1  0  0  0
 20 18  1  0  0  0  0
 21 20  1  0  0  0  0
 22 31  1  1  0  0  0
 22 28  1  0  0  0  0
 23 22  1  0  0  0  0
 24 23  1  6  0  0  0
 24 27  1  0  0  0  0
 24 26  1  0  0  0  0
 27 25  1  0  0  0  0
 27 30  1  1  0  0  0
 28 26  1  0  0  0  0
 28 25  1  0  0  0  0
 28 21  1  1  0  0  0
 30 29  1  0  0  0  0
 32 31  1  0  0  0  0
 33 32  1  0  0  0  0
M  END
>  <MODEL>
4

>  <REMARK>
 VINA RESULT:      -6.9      3.352      9.015
  Name = 
  9 active torsions:
  status: ('A' for Active; 'I' for Inactive)
    1  A    between atoms: C_1  and  O_9
    2  A    between atoms: C_2  and  O_9
    3  A    between atoms: C_4  and  S_32
    4  A    between atoms: C_5  and  N_25
    5  A    between atoms: C_15  and  N_29
    6  A    between atoms: C_16  and  C_20
    7  A    between atoms: C_16  and  C_28
    8  A    between atoms: C_20  and  S_32
    9  A    between atoms: C_26  and  C_27
                            x       y       z     vdW  Elec       q    Type
                         _______ _______ _______ _____ _____    ______ ____

>  <TORSDO>
F 9

$$$$
=
 OpenBabel11072410183D

 33 36  0  0  1  0  0  0  0  0999 V2000
  161.9800  209.4020  152.0450 C   0  0  0  0  0  0  0  0  0  0  0  0
  161.3400  208.1240  151.9500 N   0  0  0  0  0  2  0  0  0  0  0  0
  162.5720  209.9120  151.0570 O   0  0  0  0  0  0  0  0  0  0  0  0
  160.9840  205.6600  148.4900 C   0  0  0  0  0  0  0  0  0  0  0  0
  161.1060  205.9070  150.9220 C   0  0  0  0  0  0  0  0  0  0  0  0
  161.1140  205.3420  152.1600 N   0  0  0  0  0  0  0  0  0  0  0  0
  160.9220  203.7000  149.9780 C   0  0  0  0  0  3  0  0  0  0  0  0
  161.2310  207.2990  150.7780 C   0  0  0  0  0  0  0  0  0  0  0  0
  161.0290  203.9970  152.3180 C   0  0  0  0  0  3  0  0  0  0  0  0
  161.2580  207.8530  149.4910 C   0  0  0  0  0  3  0  0  0  0  0  0
  160.9890  205.0830  149.7790 C   0  0  0  0  0  0  0  0  0  0  0  0
  160.9390  203.1860  151.2340 N   0  0  0  0  0  0  0  0  0  0  0  0
  161.1430  207.0420  148.3620 C   0  0  0  0  0  3  0  0  0  0  0  0
  161.9370  204.6680  146.3460 C   0  0  0  0  0  0  0  0  0  0  0  0
  161.6320  203.9900  145.0590 C   0  0  0  0  0  1  0  0  0  0  0  0
  163.1690  204.8810  146.6720 N   0  0  0  0  0  2  0  0  0  0  0  0
  160.8830  204.8770  147.2910 N   0  0  0  0  0  2  0  0  0  0  0  0
  161.9370  210.2900  153.5960 S   0  0  0  0  0  0  0  0  0  0  0  0
  160.3430  211.5900  151.7990 C   0  0  0  0  0  1  0  0  0  0  0  0
  160.3360  211.0590  153.2210 C   0  0  2  0  0  3  0  0  0  0  0  0
  160.0900  212.2060  154.1900 C   0  0  0  0  0  2  0  0  0  0  0  0
  158.7540  210.9370  156.0180 C   0  0  1  0  0  3  0  0  0  0  0  0
  157.6070  211.3920  156.9310 C   0  0  0  0  0  2  0  0  0  0  0  0
  157.1160  212.6900  156.2810 C   0  0  1  0  0  3  0  0  0  0  0  0
  157.5460  211.8830  154.0580 C   0  0  0  0  0  2  0  0  0  0  0  0
  158.4070  213.2560  155.7520 C   0  0  0  0  0  2  0  0  0  0  0  0
  156.3970  212.2810  154.9910 C   0  0  2  0  0  3  0  0  0  0  0  0
  158.7740  212.0440  154.9540 C   0  0  2  0  0  0  0  0  0  0  0  0
  156.0670  213.7310  153.1220 O   0  0  0  0  0  1  0  0  0  0  0  0
  155.6220  213.4560  154.4140 C   0  0  0  0  0  2  0  0  0  0  0  0
  159.9460  210.9270  156.7500 O   0  0  0  0  0  0  0  0  0  0  0  0
  160.0820  209.6120  157.1960 C   0  0  0  0  0  2  0  0  0  0  0  0
  159.8490  208.6630  156.0400 C   0  0  0  0  0  1  0  0  0  0  0  0
  1 18  1  0  0  0  0
  2  1  1  0  0  0  0
  3  1  2  0  0  0  0
  4 11  1  0  0  0  0
  5  6  1  0  0  0  0
  6  9  2  0  0  0  0
  7 12  2  0  0  0  0
  8  5  1  0  0  0  0
  8  2  1  0  0  0  0
 10  8  2  0  0  0  0
 11  7  1  0  0  0  0
 11  5  2  0  0  0  0
 12  9  1  0  0  0  0
 13  4  2  0  0  0  0
 13 10  1  0  0  0  0
 14 16  2  0  0  0  0
 14 17  1  0  0  0  0
 15 14  1  0  0  0  0
 17  4  1  0  0  0  0
 20 19  1  6  0  0  0
 20 18  1  0  0  0  0
 20 21  1  0  0  0  0
 22 31  1  1  0  0  0
 22 23  1  0  0  0  0
 24 26  1  6  0  0  0
 24 23  1  0  0  0  0
 25 28  1  0  0  0  0
 25 27  1  0  0  0  0
 27 30  1  6  0  0  0
 27 24  1  0  0  0  0
 28 21  1  6  0  0  0
 28 26  1  0  0  0  0
 28 22  1  0  0  0  0
 29 30  1  0  0  0  0
 31 32  1  0  0  0  0
 33 32  1  0  0  0  0
M  END
>  <MODEL>
5

>  <REMARK>
 VINA RESULT:      -6.7      1.807      2.660
  Name = 
  9 active torsions:
  status: ('A' for Active; 'I' for Inactive)
    1  A    between atoms: C_1  and  O_9
    2  A    between atoms: C_2  and  O_9
    3  A    between atoms: C_4  and  S_32
    4  A    between atoms: C_5  and  N_25
    5  A    between atoms: C_15  and  N_29
    6  A    between atoms: C_16  and  C_20
    7  A    between atoms: C_16  and  C_28
    8  A    between atoms: C_20  and  S_32
    9  A    between atoms: C_26  and  C_27
                            x       y       z     vdW  Elec       q    Type
                         _______ _______ _______ _____ _____    ______ ____

>  <TORSDO>
F 9

$$$$
=
 OpenBabel11072410183D

 33 36  0  0  1  0  0  0  0  0999 V2000
  161.6100  208.1640  151.9670 C   0  0  0  0  0  0  0  0  0  0  0  0
  161.9930  209.4850  152.3670 N   0  0  0  0  0  2  0  0  0  0  0  0
  160.4510  207.7230  152.1880 O   0  0  0  0  0  0  0  0  0  0  0  0
  159.5470  212.4300  154.2420 C   0  0  0  0  0  0  0  0  0  0  0  0
  161.2650  210.6920  154.3760 C   0  0  0  0  0  0  0  0  0  0  0  0
  162.1340  209.9570  155.1210 N   0  0  0  0  0  0  0  0  0  0  0  0
  160.5650  211.8040  156.3930 C   0  0  0  0  0  3  0  0  0  0  0  0
  161.1570  210.4720  152.9930 C   0  0  0  0  0  0  0  0  0  0  0  0
  162.2290  210.1300  156.4640 C   0  0  0  0  0  3  0  0  0  0  0  0
  160.2260  211.2150  152.2540 C   0  0  0  0  0  3  0  0  0  0  0  0
  160.4560  211.6650  155.0060 C   0  0  0  0  0  0  0  0  0  0  0  0
  161.4460  211.0430  157.0920 N   0  0  0  0  0  0  0  0  0  0  0  0
  159.4270  212.1770  152.8730 C   0  0  0  0  0  3  0  0  0  0  0  0
  157.3370  213.2070  155.2420 C   0  0  0  0  0  0  0  0  0  0  0  0
  156.5120  214.3730  155.6530 C   0  0  0  0  0  1  0  0  0  0  0  0
  156.8920  212.0120  155.4520 N   0  0  0  0  0  2  0  0  0  0  0  0
  158.6880  213.4220  154.8230 N   0  0  0  0  0  2  0  0  0  0  0  0
  162.8020  207.1200  151.1370 S   0  0  0  0  0  0  0  0  0  0  0  0
  161.9560  209.1670  149.5390 C   0  0  0  0  0  1  0  0  0  0  0  0
  162.2940  207.6880  149.4890 C   0  0  2  0  0  3  0  0  0  0  0  0
  161.0720  206.9010  149.0410 C   0  0  0  0  0  2  0  0  0  0  0  0
  161.5090  204.3450  148.9360 C   0  0  1  0  0  3  0  0  0  0  0  0
  161.3340  203.3350  147.7940 C   0  0  0  0  0  2  0  0  0  0  0  0
  161.1980  204.2150  146.5470 C   0  0  1  0  0  3  0  0  0  0  0  0
  162.7380  205.8580  147.3890 C   0  0  0  0  0  2  0  0  0  0  0  0
  160.4560  205.4000  147.1060 C   0  0  0  0  0  2  0  0  0  0  0  0
  162.5870  204.8070  146.2840 C   0  0  2  0  0  3  0  0  0  0  0  0
  161.4480  205.6860  148.1910 C   0  0  2  0  0  0  0  0  0  0  0  0
  161.5290  205.0790  144.1600 O   0  0  0  0  0  1  0  0  0  0  0  0
  162.6390  205.4620  144.9120 C   0  0  0  0  0  2  0  0  0  0  0  0
  160.4360  204.2200  149.8260 O   0  0  0  0  0  0  0  0  0  0  0  0
  160.8700  203.3040  150.7850 C   0  0  0  0  0  2  0  0  0  0  0  0
  160.8320  203.9530  152.1530 C   0  0  0  0  0  1  0  0  0  0  0  0
  1  3  2  0  0  0  0
  1  2  1  0  0  0  0
  2  8  1  0  0  0  0
  4 17  1  0  0  0  0
  4 11  1  0  0  0  0
  5 11  2  0  0  0  0
  5  6  1  0  0  0  0
  6  9  2  0  0  0  0
  7 12  2  0  0  0  0
  8  5  1  0  0  0  0
  9 12  1  0  0  0  0
 10 13  1  0  0  0  0
 10  8  2  0  0  0  0
 11  7  1  0  0  0  0
 13  4  2  0  0  0  0
 14 16  2  0  0  0  0
 14 15  1  0  0  0  0
 17 14  1  0  0  0  0
 18  1  1  0  0  0  0
 20 19  1  1  0  0  0
 20 18  1  0  0  0  0
 21 20  1  0  0  0  0
 22 31  1  1  0  0  0
 23 22  1  0  0  0  0
 24 26  1  1  0  0  0
 24 23  1  0  0  0  0
 25 28  1  0  0  0  0
 26 28  1  0  0  0  0
 27 30  1  6  0  0  0
 27 24  1  0  0  0  0
 27 25  1  0  0  0  0
 28 22  1  0  0  0  0
 28 21  1  1  0  0  0
 29 30  1  0  0  0  0
 31 32  1  0  0  0  0
 32 33  1  0  0  0  0
M  END
>  <MODEL>
6

>  <REMARK>
 VINA RESULT:      -6.7      3.319      9.287
  Name = 
  9 active torsions:
  status: ('A' for Active; 'I' for Inactive)
    1  A    between atoms: C_1  and  O_9
    2  A    between atoms: C_2  and  O_9
    3  A    between atoms: C_4  and  S_32
    4  A    between atoms: C_5  and  N_25
    5  A    between atoms: C_15  and  N_29
    6  A    between atoms: C_16  and  C_20
    7  A    between atoms: C_16  and  C_28
    8  A    between atoms: C_20  and  S_32
    9  A    between atoms: C_26  and  C_27
                            x       y       z     vdW  Elec       q    Type
                         _______ _______ _______ _____ _____    ______ ____

>  <TORSDO>
F 9

$$$$
=
 OpenBabel11072410183D

 33 36  0  0  1  0  0  0  0  0999 V2000
  161.5280  206.9320  152.8310 C   0  0  0  0  0  0  0  0  0  0  0  0
  160.6520  206.6570  151.7320 N   0  0  0  0  0  2  0  0  0  0  0  0
  162.5220  206.1970  153.0760 O   0  0  0  0  0  0  0  0  0  0  0  0
  161.0870  203.5430  148.8540 C   0  0  0  0  0  0  0  0  0  0  0  0
  161.1220  205.9200  149.4380 C   0  0  0  0  0  0  0  0  0  0  0  0
  161.2910  207.2170  149.0650 N   0  0  0  0  0  0  0  0  0  0  0  0
  161.5460  205.2680  147.1600 C   0  0  0  0  0  3  0  0  0  0  0  0
  160.7870  205.6030  150.7650 C   0  0  0  0  0  0  0  0  0  0  0  0
  161.5810  207.5470  147.7810 C   0  0  0  0  0  3  0  0  0  0  0  0
  160.5800  204.2610  151.1150 C   0  0  0  0  0  3  0  0  0  0  0  0
  161.2660  204.8920  148.4780 C   0  0  0  0  0  0  0  0  0  0  0  0
  161.7020  206.5780  146.8380 N   0  0  0  0  0  0  0  0  0  0  0  0
  160.7220  203.2460  150.1690 C   0  0  0  0  0  3  0  0  0  0  0  0
  161.2590  201.0690  148.2720 C   0  0  0  0  0  0  0  0  0  0  0  0
  161.5690  200.0700  147.2160 C   0  0  0  0  0  1  0  0  0  0  0  0
  160.8530  200.6620  149.4290 N   0  0  0  0  0  2  0  0  0  0  0  0
  161.2060  202.4560  147.9240 N   0  0  0  0  0  2  0  0  0  0  0  0
  161.2060  208.3470  153.8760 S   0  0  0  0  0  0  0  0  0  0  0  0
  162.3250  209.1640  151.5230 C   0  0  0  0  0  1  0  0  0  0  0  0
  161.1910  209.5000  152.4740 C   0  0  2  0  0  3  0  0  0  0  0  0
  161.3630  210.9210  152.9900 C   0  0  0  0  0  2  0  0  0  0  0  0
  159.7540  212.8730  152.4120 C   0  0  1  0  0  3  0  0  0  0  0  0
  158.2230  212.9680  152.4560 C   0  0  0  0  0  2  0  0  0  0  0  0
  157.8060  211.7590  153.2990 C   0  0  1  0  0  3  0  0  0  0  0  0
  159.7440  211.9230  154.7120 C   0  0  0  0  0  2  0  0  0  0  0  0
  158.8460  210.7480  152.8930 C   0  0  0  0  0  2  0  0  0  0  0  0
  158.2190  212.0760  154.7410 C   0  0  2  0  0  3  0  0  0  0  0  0
  160.0200  211.6090  153.2420 C   0  0  2  0  0  0  0  0  0  0  0  0
  156.2570  210.8780  155.3880 O   0  0  0  0  0  1  0  0  0  0  0  0
  157.5990  211.0780  155.7070 C   0  0  0  0  0  2  0  0  0  0  0  0
  160.1640  212.6950  151.0860 O   0  0  0  0  0  0  0  0  0  0  0  0
  159.5600  213.7360  150.3800 C   0  0  0  0  0  2  0  0  0  0  0  0
  160.0330  213.7070  148.9420 C   0  0  0  0  0  1  0  0  0  0  0  0
  1  3  2  0  0  0  0
  1 18  1  0  0  0  0
  2  1  1  0  0  0  0
  4 13  1  0  0  0  0
  5  8  2  0  0  0  0
  6  5  1  0  0  0  0
  7 11  1  0  0  0  0
  8 10  1  0  0  0  0
  8  2  1  0  0  0  0
  9  6  2  0  0  0  0
 11  4  2  0  0  0  0
 11  5  1  0  0  0  0
 12  7  2  0  0  0  0
 12  9  1  0  0  0  0
 13 10  2  0  0  0  0
 14 16  2  0  0  0  0
 15 14  1  0  0  0  0
 17 14  1  0  0  0  0
 17  4  1  0  0  0  0
 20 19  1  6  0  0  0
 20 21  1  0  0  0  0
 20 18  1  0  0  0  0
 22 31  1  6  0  0  0
 22 23  1  0  0  0  0
 22 28  1  0  0  0  0
 24 23  1  6  0  0  0
 24 27  1  0  0  0  0
 25 27  1  0  0  0  0
 26 28  1  0  0  0  0
 26 24  1  0  0  0  0
 27 30  1  1  0  0  0
 28 21  1  6  0  0  0
 28 25  1  0  0  0  0
 29 30  1  0  0  0  0
 32 31  1  0  0  0  0
 33 32  1  0  0  0  0
M  END
>  <MODEL>
7

>  <REMARK>
 VINA RESULT:      -6.6      1.596      4.102
  Name = 
  9 active torsions:
  status: ('A' for Active; 'I' for Inactive)
    1  A    between atoms: C_1  and  O_9
    2  A    between atoms: C_2  and  O_9
    3  A    between atoms: C_4  and  S_32
    4  A    between atoms: C_5  and  N_25
    5  A    between atoms: C_15  and  N_29
    6  A    between atoms: C_16  and  C_20
    7  A    between atoms: C_16  and  C_28
    8  A    between atoms: C_20  and  S_32
    9  A    between atoms: C_26  and  C_27
                            x       y       z     vdW  Elec       q    Type
                         _______ _______ _______ _____ _____    ______ ____

>  <TORSDO>
F 9

$$$$
=
 OpenBabel11072410183D

 33 36  0  0  1  0  0  0  0  0999 V2000
  162.0850  207.8700  150.3440 C   0  0  0  0  0  0  0  0  0  0  0  0
  161.1560  207.2450  149.4510 N   0  0  0  0  0  2  0  0  0  0  0  0
  163.0820  207.2460  150.7940 O   0  0  0  0  0  0  0  0  0  0  0  0
  161.3560  203.2830  147.8900 C   0  0  0  0  0  0  0  0  0  0  0  0
  161.0520  204.8140  149.7750 C   0  0  0  0  0  0  0  0  0  0  0  0
  160.8270  205.0100  151.1030 N   0  0  0  0  0  0  0  0  0  0  0  0
  160.9830  202.4410  150.1720 C   0  0  0  0  0  3  0  0  0  0  0  0
  161.2360  205.9120  148.9190 C   0  0  0  0  0  0  0  0  0  0  0  0
  160.6810  203.9620  151.9530 C   0  0  0  0  0  3  0  0  0  0  0  0
  161.5040  205.6830  147.5630 C   0  0  0  0  0  3  0  0  0  0  0  0
  161.1190  203.4970  149.2650 C   0  0  0  0  0  0  0  0  0  0  0  0
  160.7640  202.6900  151.4880 N   0  0  0  0  0  0  0  0  0  0  0  0
  161.5700  204.3850  147.0570 C   0  0  0  0  0  3  0  0  0  0  0  0
  160.7950  201.5450  146.1150 C   0  0  0  0  0  0  0  0  0  0  0  0
  160.8340  200.1070  145.7420 C   0  0  0  0  0  1  0  0  0  0  0  0
  160.3440  202.4070  145.2640 N   0  0  0  0  0  2  0  0  0  0  0  0
  161.4490  201.9720  147.3130 N   0  0  0  0  0  2  0  0  0  0  0  0
  161.8240  209.5720  150.8290 S   0  0  0  0  0  0  0  0  0  0  0  0
  160.8320  207.6750  152.5240 C   0  0  0  0  0  1  0  0  0  0  0  0
  161.3130  209.1130  152.5100 C   0  0  2  0  0  3  0  0  0  0  0  0
  160.1870  210.0320  152.9600 C   0  0  0  0  0  2  0  0  0  0  0  0
  160.0820  212.0860  154.5420 C   0  0  1  0  0  3  0  0  0  0  0  0
  159.8890  212.1840  156.0620 C   0  0  0  0  0  2  0  0  0  0  0  0
  160.1520  210.7580  156.5550 C   0  0  1  0  0  3  0  0  0  0  0  0
  161.8440  210.3640  154.8940 C   0  0  0  0  0  2  0  0  0  0  0  0
  159.5960  209.9480  155.4130 C   0  0  0  0  0  2  0  0  0  0  0  0
  161.6590  210.5210  156.4070 C   0  0  2  0  0  3  0  0  0  0  0  0
  160.4320  210.6030  154.3580 C   0  0  2  0  0  0  0  0  0  0  0  0
  161.9570  208.1550  156.2770 O   0  0  0  0  0  1  0  0  0  0  0  0
  162.0750  209.2500  157.1320 C   0  0  0  0  0  2  0  0  0  0  0  0
  158.8750  212.3960  153.9060 O   0  0  0  0  0  0  0  0  0  0  0  0
  158.2320  213.2860  154.7690 C   0  0  0  0  0  2  0  0  0  0  0  0
  156.7410  213.2470  154.5090 C   0  0  0  0  0  1  0  0  0  0  0  0
  1  3  2  0  0  0  0
  1 18  1  0  0  0  0
  2  1  1  0  0  0  0
  4 11  1  0  0  0  0
  5  6  1  0  0  0  0
  6  9  2  0  0  0  0
  7 12  2  0  0  0  0
  8  2  1  0  0  0  0
  8  5  1  0  0  0  0
 10  8  2  0  0  0  0
 11  5  2  0  0  0  0
 11  7  1  0  0  0  0
 12  9  1  0  0  0  0
 13 10  1  0  0  0  0
 13  4  2  0  0  0  0
 14 17  1  0  0  0  0
 15 14  1  0  0  0  0
 16 14  2  0  0  0  0
 17  4  1  0  0  0  0
 18 20  1  0  0  0  0
 20 19  1  6  0  0  0
 20 21  1  0  0  0  0
 22 31  1  6  0  0  0
 22 23  1  0  0  0  0
 23 24  1  0  0  0  0
 24 26  1  6  0  0  0
 25 27  1  0  0  0  0
 27 24  1  0  0  0  0
 27 30  1  1  0  0  0
 28 21  1  6  0  0  0
 28 22  1  0  0  0  0
 28 25  1  0  0  0  0
 28 26  1  0  0  0  0
 29 30  1  0  0  0  0
 31 32  1  0  0  0  0
 33 32  1  0  0  0  0
M  END
>  <MODEL>
8

>  <REMARK>
 VINA RESULT:      -6.6      2.182      3.693
  Name = 
  9 active torsions:
  status: ('A' for Active; 'I' for Inactive)
    1  A    between atoms: C_1  and  O_9
    2  A    between atoms: C_2  and  O_9
    3  A    between atoms: C_4  and  S_32
    4  A    between atoms: C_5  and  N_25
    5  A    between atoms: C_15  and  N_29
    6  A    between atoms: C_16  and  C_20
    7  A    between atoms: C_16  and  C_28
    8  A    between atoms: C_20  and  S_32
    9  A    between atoms: C_26  and  C_27
                            x       y       z     vdW  Elec       q    Type
                         _______ _______ _______ _____ _____    ______ ____

>  <TORSDO>
F 9

$$$$
=
 OpenBabel11072410183D

 33 36  0  0  1  0  0  0  0  0999 V2000
  161.8370  209.7850  152.3450 C   0  0  0  0  0  0  0  0  0  0  0  0
  162.1960  208.4620  151.9290 N   0  0  0  0  0  2  0  0  0  0  0  0
  161.2130  210.5660  151.5790 O   0  0  0  0  0  0  0  0  0  0  0  0
  161.2110  206.5940  148.2260 C   0  0  0  0  0  0  0  0  0  0  0  0
  161.4920  206.4860  150.6550 C   0  0  0  0  0  0  0  0  0  0  0  0
  161.4490  205.7680  151.8100 N   0  0  0  0  0  0  0  0  0  0  0  0
  160.8430  204.4980  149.4620 C   0  0  0  0  0  3  0  0  0  0  0  0
  161.8760  207.8370  150.6750 C   0  0  0  0  0  0  0  0  0  0  0  0
  161.1140  204.4530  151.8080 C   0  0  0  0  0  3  0  0  0  0  0  0
  161.9490  208.5440  149.4670 C   0  0  0  0  0  3  0  0  0  0  0  0
  161.1660  205.8590  149.4310 C   0  0  0  0  0  0  0  0  0  0  0  0
  160.8190  203.8250  150.6410 N   0  0  0  0  0  0  0  0  0  0  0  0
  161.6270  207.9270  148.2580 C   0  0  0  0  0  3  0  0  0  0  0  0
  161.8600  205.4440  146.0480 C   0  0  0  0  0  0  0  0  0  0  0  0
  161.4210  205.0480  144.6840 C   0  0  0  0  0  1  0  0  0  0  0  0
  163.0340  205.0940  146.4610 N   0  0  0  0  0  2  0  0  0  0  0  0
  160.9060  206.0120  146.9500 N   0  0  0  0  0  2  0  0  0  0  0  0
  162.2850  210.3390  153.9860 S   0  0  0  0  0  0  0  0  0  0  0  0
  160.4200  208.5630  154.8970 C   0  0  0  0  0  1  0  0  0  0  0  0
  160.6180  210.0460  154.6430 C   0  0  2  0  0  3  0  0  0  0  0  0
  159.5880  210.5310  153.6330 C   0  0  0  0  0  2  0  0  0  0  0  0
  158.7660  212.9700  153.3070 C   0  0  1  0  0  3  0  0  0  0  0  0
  157.4810  213.6740  153.7650 C   0  0  0  0  0  2  0  0  0  0  0  0
  156.9060  212.7300  154.8250 C   0  0  1  0  0  3  0  0  0  0  0  0
  159.0840  212.0880  155.6110 C   0  0  0  0  0  2  0  0  0  0  0  0
  157.2990  211.3890  154.2630 C   0  0  0  0  0  2  0  0  0  0  0  0
  157.8240  212.8420  156.0470 C   0  0  2  0  0  3  0  0  0  0  0  0
  158.7600  211.7000  154.1690 C   0  0  2  0  0  0  0  0  0  0  0  0
  155.8040  212.3190  157.2090 O   0  0  0  0  0  1  0  0  0  0  0  0
  157.1900  212.1720  157.2560 C   0  0  0  0  0  2  0  0  0  0  0  0
  158.6540  212.6520  151.9490 O   0  0  0  0  0  0  0  0  0  0  0  0
  158.0000  213.7440  151.3760 C   0  0  0  0  0  2  0  0  0  0  0  0
  157.4540  213.3470  150.0210 C   0  0  0  0  0  1  0  0  0  0  0  0
  1 18  1  0  0  0  0
  2  1  1  0  0  0  0
  3  1  2  0  0  0  0
  4 13  2  0  0  0  0
  4 11  1  0  0  0  0
  5  8  1  0  0  0  0
  5  6  1  0  0  0  0
  7 12  2  0  0  0  0
  8  2  1  0  0  0  0
  9  6  2  0  0  0  0
 10  8  2  0  0  0  0
 11  7  1  0  0  0  0
 11  5  2  0  0  0  0
 12  9  1  0  0  0  0
 13 10  1  0  0  0  0
 14 16  2  0  0  0  0
 14 17  1  0  0  0  0
 15 14  1  0  0  0  0
 17  4  1  0  0  0  0
 18 20  1  0  0  0  0
 20 19  1  6  0  0  0
 21 20  1  0  0  0  0
 22 31  1  6  0  0  0
 22 23  1  0  0  0  0
 22 28  1  0  0  0  0
 24 23  1  6  0  0  0
 24 27  1  0  0  0  0
 25 27  1  0  0  0  0
 26 24  1  0  0  0  0
 27 30  1  1  0  0  0
 28 21  1  6  0  0  0
 28 26  1  0  0  0  0
 28 25  1  0  0  0  0
 29 30  1  0  0  0  0
 32 31  1  0  0  0  0
 33 32  1  0  0  0  0
M  END
>  <MODEL>
9

>  <REMARK>
 VINA RESULT:      -6.6      1.436      3.054
  Name = 
  9 active torsions:
  status: ('A' for Active; 'I' for Inactive)
    1  A    between atoms: C_1  and  O_9
    2  A    between atoms: C_2  and  O_9
    3  A    between atoms: C_4  and  S_32
    4  A    between atoms: C_5  and  N_25
    5  A    between atoms: C_15  and  N_29
    6  A    between atoms: C_16  and  C_20
    7  A    between atoms: C_16  and  C_28
    8  A    between atoms: C_20  and  S_32
    9  A    between atoms: C_26  and  C_27
                            x       y       z     vdW  Elec       q    Type
                         _______ _______ _______ _____ _____    ______ ____

>  <TORSDO>
F 9

$$$$
