=
 OpenBabel11072411143D

 30 32  0  0  1  0  0  0  0  0999 V2000
  161.9760  210.7030  154.0230 O   0  0  0  0  0  0  0  0  0  0  0  0
  159.6670  211.6670  155.1900 C   0  0  2  0  0  3  0  0  0  0  0  0
  159.6430  211.2960  153.6880 C   0  0  2  0  0  3  0  0  0  0  0  0
  159.9170  209.7620  156.7250 O   0  0  0  0  0  1  0  0  0  0  0  0
  161.1420  210.6520  151.9010 O   0  0  0  0  0  1  0  0  0  0  0  0
  163.3980  210.2120  157.2610 C   0  0  0  0  0  1  0  0  0  0  0  0
  161.8240  210.2160  155.3390 C   0  0  1  0  0  3  0  0  0  0  0  0
  160.8300  210.4010  153.2420 C   0  0  1  0  0  0  0  0  0  0  0  0
  161.3980  211.5750  156.9660 N   0  0  0  0  0  2  0  0  0  0  0  0
  162.6040  211.0830  156.3040 C   0  0  1  0  0  3  0  0  0  0  0  0
  160.5990  210.7760  156.0460 C   0  0  1  0  0  0  0  0  0  0  0  0
  157.9360  213.2950  156.0790 C   0  0  0  0  0  0  0  0  0  0  0  0
  156.9070  213.9880  155.2420 C   0  0  0  0  0  2  0  0  0  0  0  0
  158.2600  211.8370  155.8230 C   0  0  1  0  0  3  0  0  0  0  0  0
  158.4790  213.8990  156.9880 O   0  0  0  0  0  0  0  0  0  0  0  0
  157.1550  211.1490  155.0380 C   0  0  0  0  0  3  0  0  0  0  0  0
  155.6530  213.1230  155.2060 C   0  0  0  0  0  2  0  0  0  0  0  0
  155.9830  211.7320  154.7410 C   0  0  0  0  0  3  0  0  0  0  0  0
  160.3980  208.9250  153.3380 C   0  0  0  0  0  2  0  0  0  0  0  0
  160.9950  208.0850  152.2200 C   0  0  0  0  0  1  0  0  0  0  0  0
  159.5660  212.5960  152.8890 C   0  0  0  0  0  2  0  0  0  0  0  0
  158.2430  212.6770  152.1490 C   0  0  0  0  0  2  0  0  0  0  0  0
  158.4260  213.3780  150.8030 C   0  0  1  0  0  3  0  0  0  0  0  0
  157.2950  214.3540  150.4840 C   0  0  0  0  0  1  0  0  0  0  0  0
  159.7080  213.9530  150.6470 O   0  0  0  0  0  0  0  0  0  0  0  0
  160.0150  214.0330  149.2780 C   0  0  0  0  0  2  0  0  0  0  0  0
  161.7580  212.7150  148.0290 C   0  0  0  0  0  0  0  0  0  0  0  0
  163.1830  212.3240  147.8630 C   0  0  0  0  0  1  0  0  0  0  0  0
  160.8870  212.2400  147.2520 O   0  0  0  0  0  0  0  0  0  0  0  0
  161.3920  213.6240  149.0660 N   0  0  0  0  0  2  0  0  0  0  0  0
  2 14  1  1  0  0  0
  2 11  1  0  0  0  0
  3 21  1  6  0  0  0
  3  2  1  0  0  0  0
  7  1  1  6  0  0  0
  7 11  1  0  0  0  0
  7 10  1  0  0  0  0
  8  5  1  6  0  0  0
  8 19  1  0  0  0  0
  8  3  1  0  0  0  0
  8  1  1  0  0  0  0
 10  9  1  0  0  0  0
 10  6  1  1  0  0  0
 11  4  1  1  0  0  0
 11  9  1  0  0  0  0
 12 15  2  0  0  0  0
 13 12  1  0  0  0  0
 14 16  1  6  0  0  0
 14 12  1  0  0  0  0
 17 13  1  0  0  0  0
 18 16  2  0  0  0  0
 18 17  1  0  0  0  0
 20 19  1  0  0  0  0
 22 21  1  0  0  0  0
 23 24  1  1  0  0  0
 23 22  1  0  0  0  0
 25 23  1  0  0  0  0
 26 25  1  0  0  0  0
 27 30  1  0  0  0  0
 28 27  1  0  0  0  0
 29 27  2  0  0  0  0
 30 26  1  0  0  0  0
M  END
>  <MODEL>
1

>  <REMARK>
 VINA RESULT:      -4.8      0.000      0.000
  Name = 
  8 active torsions:
  status: ('A' for Active; 'I' for Inactive)
    1  A    between atoms: C_1  and  C_20
    2  A    between atoms: C_3  and  C_21
    3  A    between atoms: C_3  and  O_24
    4  A    between atoms: C_5  and  O_24
    5  A    between atoms: C_5  and  N_30
    6  A    between atoms: C_7  and  C_8
    7  A    between atoms: C_10  and  C_22
    8  A    between atoms: C_21  and  C_22
                            x       y       z     vdW  Elec       q    Type
                         _______ _______ _______ _____ _____    ______ ____

>  <TORSDO>
F 8

$$$$
=
 OpenBabel11072411143D

 30 32  0  0  1  0  0  0  0  0999 V2000
  157.3360  212.0410  153.6910 O   0  0  0  0  0  0  0  0  0  0  0  0
  158.9930  210.9640  155.6190 C   0  0  2  0  0  3  0  0  0  0  0  0
  159.5400  211.1420  154.1820 C   0  0  2  0  0  3  0  0  0  0  0  0
  158.5680  213.0600  156.8340 O   0  0  0  0  0  1  0  0  0  0  0  0
  158.7870  211.7320  151.9600 O   0  0  0  0  0  1  0  0  0  0  0  0
  155.0670  213.0910  156.2400 C   0  0  0  0  0  1  0  0  0  0  0  0
  157.1420  212.6660  154.9420 C   0  0  1  0  0  3  0  0  0  0  0  0
  158.7000  212.1080  153.3050 C   0  0  1  0  0  0  0  0  0  0  0  0
  156.8290  211.4770  156.7210 N   0  0  0  0  0  2  0  0  0  0  0  0
  155.9780  212.0220  155.6660 C   0  0  1  0  0  3  0  0  0  0  0  0
  157.9870  212.0570  156.0520 C   0  0  1  0  0  0  0  0  0  0  0  0
  160.4700  209.2440  156.7580 C   0  0  0  0  0  0  0  0  0  0  0  0
  161.8060  208.7950  156.2500 C   0  0  0  0  0  2  0  0  0  0  0  0
  160.0910  210.7090  156.6870 C   0  0  1  0  0  3  0  0  0  0  0  0
  159.7130  208.4310  157.2610 O   0  0  0  0  0  0  0  0  0  0  0  0
  161.3130  211.5970  156.5240 C   0  0  0  0  0  3  0  0  0  0  0  0
  162.8780  209.6930  156.8560 C   0  0  0  0  0  2  0  0  0  0  0  0
  162.5740  211.1400  156.5810 C   0  0  0  0  0  3  0  0  0  0  0  0
  159.2980  213.5240  153.4200 C   0  0  0  0  0  2  0  0  0  0  0  0
  159.5720  214.1370  152.0550 C   0  0  0  0  0  1  0  0  0  0  0  0
  159.6650  209.7530  153.5580 C   0  0  0  0  0  2  0  0  0  0  0  0
  161.0250  209.5950  152.9010 C   0  0  0  0  0  2  0  0  0  0  0  0
  160.9960  208.4590  151.8790 C   0  0  1  0  0  3  0  0  0  0  0  0
  161.9380  208.6990  150.7010 C   0  0  0  0  0  1  0  0  0  0  0  0
  161.1600  207.1840  152.4640 O   0  0  0  0  0  0  0  0  0  0  0  0
  162.2200  206.5160  151.8250 C   0  0  0  0  0  2  0  0  0  0  0  0
  161.0780  204.6870  150.5270 C   0  0  0  0  0  0  0  0  0  0  0  0
  160.7410  203.2460  150.3850 C   0  0  0  0  0  1  0  0  0  0  0  0
  160.6660  205.5110  149.6690 O   0  0  0  0  0  0  0  0  0  0  0  0
  161.8680  205.1200  151.6340 N   0  0  0  0  0  2  0  0  0  0  0  0
  2 11  1  0  0  0  0
  2 14  1  1  0  0  0
  3 21  1  6  0  0  0
  3  2  1  0  0  0  0
  7  1  1  6  0  0  0
  7 10  1  0  0  0  0
  7 11  1  0  0  0  0
  8  5  1  6  0  0  0
  8 19  1  0  0  0  0
  8  1  1  0  0  0  0
  8  3  1  0  0  0  0
 10  6  1  1  0  0  0
 10  9  1  0  0  0  0
 11  9  1  0  0  0  0
 11  4  1  1  0  0  0
 12 15  2  0  0  0  0
 13 12  1  0  0  0  0
 13 17  1  0  0  0  0
 14 16  1  6  0  0  0
 14 12  1  0  0  0  0
 16 18  2  0  0  0  0
 18 17  1  0  0  0  0
 20 19  1  0  0  0  0
 22 21  1  0  0  0  0
 23 24  1  6  0  0  0
 23 25  1  0  0  0  0
 23 22  1  0  0  0  0
 26 25  1  0  0  0  0
 27 30  1  0  0  0  0
 28 27  1  0  0  0  0
 29 27  2  0  0  0  0
 30 26  1  0  0  0  0
M  END
>  <MODEL>
2

>  <REMARK>
 VINA RESULT:      -4.4      2.848      5.964
  Name = 
  8 active torsions:
  status: ('A' for Active; 'I' for Inactive)
    1  A    between atoms: C_1  and  C_20
    2  A    between atoms: C_3  and  C_21
    3  A    between atoms: C_3  and  O_24
    4  A    between atoms: C_5  and  O_24
    5  A    between atoms: C_5  and  N_30
    6  A    between atoms: C_7  and  C_8
    7  A    between atoms: C_10  and  C_22
    8  A    between atoms: C_21  and  C_22
                            x       y       z     vdW  Elec       q    Type
                         _______ _______ _______ _____ _____    ______ ____

>  <TORSDO>
F 8

$$$$
=
 OpenBabel11072411143D

 30 32  0  0  1  0  0  0  0  0999 V2000
  157.6880  212.8580  152.0970 O   0  0  0  0  0  0  0  0  0  0  0  0
  159.0550  211.9470  154.3160 C   0  0  2  0  0  3  0  0  0  0  0  0
  159.7570  211.9000  152.9380 C   0  0  2  0  0  3  0  0  0  0  0  0
  158.6640  214.2070  155.2040 O   0  0  0  0  0  1  0  0  0  0  0  0
  159.2810  212.2350  150.5890 O   0  0  0  0  0  1  0  0  0  0  0  0
  155.2550  214.3720  154.2270 C   0  0  0  0  0  1  0  0  0  0  0  0
  157.4140  213.6530  153.2310 C   0  0  1  0  0  3  0  0  0  0  0  0
  159.0850  212.7900  151.8590 C   0  0  1  0  0  0  0  0  0  0  0  0
  156.8340  212.7320  155.0990 N   0  0  0  0  0  2  0  0  0  0  0  0
  156.1380  213.1820  153.8960 C   0  0  1  0  0  3  0  0  0  0  0  0
  158.0930  213.1460  154.4940 C   0  0  1  0  0  0  0  0  0  0  0  0
  159.4680  210.7810  156.5310 C   0  0  0  0  0  0  0  0  0  0  0  0
  160.1100  209.4360  156.6810 C   0  0  0  0  0  2  0  0  0  0  0  0
  160.0150  211.7690  155.5230 C   0  0  1  0  0  3  0  0  0  0  0  0
  158.5310  211.0840  157.2500 O   0  0  0  0  0  0  0  0  0  0  0  0
  161.4390  211.4250  155.1180 C   0  0  0  0  0  3  0  0  0  0  0  0
  161.6130  209.6360  156.8350 C   0  0  0  0  0  2  0  0  0  0  0  0
  162.1580  210.4490  155.6950 C   0  0  0  0  0  3  0  0  0  0  0  0
  159.7720  214.1700  151.8610 C   0  0  0  0  0  2  0  0  0  0  0  0
  160.4820  214.4530  150.5470 C   0  0  0  0  0  1  0  0  0  0  0  0
  159.8420  210.4350  152.5100 C   0  0  0  0  0  2  0  0  0  0  0  0
  161.1570  210.1740  151.7980 C   0  0  0  0  0  2  0  0  0  0  0  0
  161.4710  208.6780  151.7890 C   0  0  1  0  0  3  0  0  0  0  0  0
  161.0330  207.9730  153.0720 C   0  0  0  0  0  1  0  0  0  0  0  0
  161.0180  208.0240  150.6210 O   0  0  0  0  0  0  0  0  0  0  0  0
  162.1250  207.6810  149.8260 C   0  0  0  0  0  2  0  0  0  0  0  0
  161.2660  206.2880  147.9140 C   0  0  0  0  0  0  0  0  0  0  0  0
  160.8520  206.1980  146.4880 C   0  0  0  0  0  1  0  0  0  0  0  0
  161.2270  205.2600  148.6400 O   0  0  0  0  0  0  0  0  0  0  0  0
  161.7020  207.5390  148.4440 N   0  0  0  0  0  2  0  0  0  0  0  0
  2 11  1  0  0  0  0
  2 14  1  1  0  0  0
  3 21  1  6  0  0  0
  3  2  1  0  0  0  0
  7  1  1  6  0  0  0
  7 10  1  0  0  0  0
  7 11  1  0  0  0  0
  8  5  1  6  0  0  0
  8 19  1  0  0  0  0
  8  1  1  0  0  0  0
  8  3  1  0  0  0  0
 10  6  1  1  0  0  0
 10  9  1  0  0  0  0
 11  9  1  0  0  0  0
 11  4  1  1  0  0  0
 12 13  1  0  0  0  0
 12 15  2  0  0  0  0
 13 17  1  0  0  0  0
 14 16  1  6  0  0  0
 14 12  1  0  0  0  0
 16 18  2  0  0  0  0
 18 17  1  0  0  0  0
 20 19  1  0  0  0  0
 22 21  1  0  0  0  0
 23 22  1  0  0  0  0
 23 24  1  1  0  0  0
 25 23  1  0  0  0  0
 26 25  1  0  0  0  0
 27 30  1  0  0  0  0
 27 29  2  0  0  0  0
 28 27  1  0  0  0  0
 30 26  1  0  0  0  0
M  END
>  <MODEL>
3

>  <REMARK>
 VINA RESULT:      -4.2      2.749      5.470
  Name = 
  8 active torsions:
  status: ('A' for Active; 'I' for Inactive)
    1  A    between atoms: C_1  and  C_20
    2  A    between atoms: C_3  and  C_21
    3  A    between atoms: C_3  and  O_24
    4  A    between atoms: C_5  and  O_24
    5  A    between atoms: C_5  and  N_30
    6  A    between atoms: C_7  and  C_8
    7  A    between atoms: C_10  and  C_22
    8  A    between atoms: C_21  and  C_22
                            x       y       z     vdW  Elec       q    Type
                         _______ _______ _______ _____ _____    ______ ____

>  <TORSDO>
F 8

$$$$
=
 OpenBabel11072411143D

 30 32  0  0  1  0  0  0  0  0999 V2000
  159.9790  203.8580  150.7980 O   0  0  0  0  0  0  0  0  0  0  0  0
  161.0070  203.9030  148.2360 C   0  0  2  0  0  3  0  0  0  0  0  0
  161.2270  205.1340  149.1480 C   0  0  2  0  0  3  0  0  0  0  0  0
  162.2120  201.8730  148.9260 O   0  0  0  0  0  1  0  0  0  0  0  0
  160.5330  206.0140  151.2930 O   0  0  0  0  0  1  0  0  0  0  0  0
  159.4240  200.3430  150.5040 C   0  0  0  0  0  1  0  0  0  0  0  0
  160.4770  202.5910  150.4220 C   0  0  1  0  0  3  0  0  0  0  0  0
  160.9820  204.8520  150.6540 C   0  0  1  0  0  0  0  0  0  0  0  0
  159.8970  201.7030  148.5380 N   0  0  0  0  0  2  0  0  0  0  0  0
  159.3500  201.7300  149.8920 C   0  0  1  0  0  3  0  0  0  0  0  0
  160.9920  202.5520  148.9910 C   0  0  1  0  0  0  0  0  0  0  0  0
  161.1540  203.4600  145.7420 C   0  0  0  0  0  0  0  0  0  0  0  0
  160.8590  204.4700  144.6770 C   0  0  0  0  0  2  0  0  0  0  0  0
  161.9210  203.8740  146.9810 C   0  0  1  0  0  3  0  0  0  0  0  0
  160.8080  202.3010  145.5860 O   0  0  0  0  0  0  0  0  0  0  0  0
  162.6870  205.1670  146.7600 C   0  0  0  0  0  3  0  0  0  0  0  0
  162.1530  205.1980  144.3320 C   0  0  0  0  0  2  0  0  0  0  0  0
  162.7790  205.7790  145.5690 C   0  0  0  0  0  3  0  0  0  0  0  0
  162.3230  204.4650  151.3080 C   0  0  0  0  0  2  0  0  0  0  0  0
  162.7350  205.4550  152.3860 C   0  0  0  0  0  1  0  0  0  0  0  0
  160.3460  206.2660  148.6200 C   0  0  0  0  0  2  0  0  0  0  0  0
  161.2060  207.3450  147.9870 C   0  0  0  0  0  2  0  0  0  0  0  0
  161.5290  208.4370  149.0060 C   0  0  1  0  0  3  0  0  0  0  0  0
  162.7060  208.0740  149.9090 C   0  0  0  0  0  1  0  0  0  0  0  0
  161.6570  209.7180  148.4240 O   0  0  0  0  0  0  0  0  0  0  0  0
  161.9970  210.6470  149.4230 C   0  0  0  0  0  2  0  0  0  0  0  0
  162.5430  212.7840  148.2120 C   0  0  0  0  0  0  0  0  0  0  0  0
  162.1340  214.1510  147.7920 C   0  0  0  0  0  1  0  0  0  0  0  0
  163.6780  212.3460  147.8860 O   0  0  0  0  0  0  0  0  0  0  0  0
  161.6450  211.9840  148.9800 N   0  0  0  0  0  2  0  0  0  0  0  0
  2 14  1  6  0  0  0
  2 11  1  0  0  0  0
  2  3  1  0  0  0  0
  3 21  1  6  0  0  0
  3  8  1  0  0  0  0
  7  1  1  6  0  0  0
  8  1  1  0  0  0  0
  8  5  1  1  0  0  0
  8 19  1  0  0  0  0
  9 11  1  0  0  0  0
  9 10  1  0  0  0  0
 10  7  1  0  0  0  0
 10  6  1  1  0  0  0
 11  4  1  6  0  0  0
 11  7  1  0  0  0  0
 12 14  1  0  0  0  0
 13 12  1  0  0  0  0
 14 16  1  6  0  0  0
 15 12  2  0  0  0  0
 17 13  1  0  0  0  0
 17 18  1  0  0  0  0
 18 16  2  0  0  0  0
 19 20  1  0  0  0  0
 22 21  1  0  0  0  0
 22 23  1  0  0  0  0
 23 24  1  6  0  0  0
 25 23  1  0  0  0  0
 25 26  1  0  0  0  0
 27 30  1  0  0  0  0
 28 27  1  0  0  0  0
 29 27  2  0  0  0  0
 30 26  1  0  0  0  0
M  END
>  <MODEL>
4

>  <REMARK>
 VINA RESULT:      -4.0      6.052      9.639
  Name = 
  8 active torsions:
  status: ('A' for Active; 'I' for Inactive)
    1  A    between atoms: C_1  and  C_20
    2  A    between atoms: C_3  and  C_21
    3  A    between atoms: C_3  and  O_24
    4  A    between atoms: C_5  and  O_24
    5  A    between atoms: C_5  and  N_30
    6  A    between atoms: C_7  and  C_8
    7  A    between atoms: C_10  and  C_22
    8  A    between atoms: C_21  and  C_22
                            x       y       z     vdW  Elec       q    Type
                         _______ _______ _______ _____ _____    ______ ____

>  <TORSDO>
F 8

$$$$
=
 OpenBabel11072411143D

 30 32  0  0  1  0  0  0  0  0999 V2000
  159.9920  203.7880  150.8670 O   0  0  0  0  0  0  0  0  0  0  0  0
  161.0030  203.9090  148.3010 C   0  0  2  0  0  3  0  0  0  0  0  0
  161.2130  205.1200  149.2410 C   0  0  2  0  0  3  0  0  0  0  0  0
  162.2380  201.8780  148.9330 O   0  0  0  0  0  1  0  0  0  0  0  0
  160.5220  205.9380  151.4110 O   0  0  0  0  0  1  0  0  0  0  0  0
  159.4790  200.2750  150.4910 C   0  0  0  0  0  1  0  0  0  0  0  0
  160.5040  202.5370  150.4570 C   0  0  1  0  0  3  0  0  0  0  0  0
  160.9820  204.7980  150.7420 C   0  0  1  0  0  0  0  0  0  0  0  0
  159.9230  201.6890  148.5550 N   0  0  0  0  0  2  0  0  0  0  0  0
  159.3840  201.6760  149.9130 C   0  0  1  0  0  3  0  0  0  0  0  0
  161.0100  202.5400  149.0220 C   0  0  1  0  0  0  0  0  0  0  0  0
  161.1460  203.5040  145.8000 C   0  0  0  0  0  0  0  0  0  0  0  0
  160.8170  204.5210  144.7510 C   0  0  0  0  0  2  0  0  0  0  0  0
  161.9100  203.9220  147.0400 C   0  0  1  0  0  3  0  0  0  0  0  0
  160.8310  202.3390  145.6300 O   0  0  0  0  0  0  0  0  0  0  0  0
  162.6390  205.2390  146.8320 C   0  0  0  0  0  3  0  0  0  0  0  0
  162.0880  205.2870  144.4080 C   0  0  0  0  0  2  0  0  0  0  0  0
  162.7060  205.8690  145.6490 C   0  0  0  0  0  3  0  0  0  0  0  0
  162.3310  204.4120  151.3780 C   0  0  0  0  0  2  0  0  0  0  0  0
  162.8060  205.4540  152.3790 C   0  0  0  0  0  1  0  0  0  0  0  0
  160.3150  206.2530  148.7460 C   0  0  0  0  0  2  0  0  0  0  0  0
  161.1530  207.3320  148.0840 C   0  0  0  0  0  2  0  0  0  0  0  0
  161.8920  208.1560  149.1380 C   0  0  1  0  0  3  0  0  0  0  0  0
  162.3320  209.5240  148.6190 C   0  0  0  0  0  1  0  0  0  0  0  0
  161.2000  208.2320  150.3670 O   0  0  0  0  0  0  0  0  0  0  0  0
  162.0100  208.8840  151.3140 C   0  0  0  0  0  2  0  0  0  0  0  0
  160.8160  209.3460  153.4810 C   0  0  0  0  0  0  0  0  0  0  0  0
  159.9610  210.2480  154.2970 C   0  0  0  0  0  1  0  0  0  0  0  0
  161.2080  208.2520  153.9650 O   0  0  0  0  0  0  0  0  0  0  0  0
  161.1840  209.7310  152.1560 N   0  0  0  0  0  2  0  0  0  0  0  0
  2 14  1  6  0  0  0
  2 11  1  0  0  0  0
  2  3  1  0  0  0  0
  3 21  1  6  0  0  0
  3  8  1  0  0  0  0
  7  1  1  6  0  0  0
  8  1  1  0  0  0  0
  8 19  1  0  0  0  0
  8  5  1  1  0  0  0
  9 11  1  0  0  0  0
  9 10  1  0  0  0  0
 10  7  1  0  0  0  0
 10  6  1  1  0  0  0
 11  4  1  6  0  0  0
 11  7  1  0  0  0  0
 12 14  1  0  0  0  0
 13 12  1  0  0  0  0
 14 16  1  6  0  0  0
 15 12  2  0  0  0  0
 17 13  1  0  0  0  0
 17 18  1  0  0  0  0
 18 16  2  0  0  0  0
 19 20  1  0  0  0  0
 22 21  1  0  0  0  0
 22 23  1  0  0  0  0
 23 24  1  6  0  0  0
 23 25  1  0  0  0  0
 25 26  1  0  0  0  0
 26 30  1  0  0  0  0
 27 29  2  0  0  0  0
 27 28  1  0  0  0  0
 30 27  1  0  0  0  0
M  END
>  <MODEL>
5

>  <REMARK>
 VINA RESULT:      -3.9      6.075      9.920
  Name = 
  8 active torsions:
  status: ('A' for Active; 'I' for Inactive)
    1  A    between atoms: C_1  and  C_20
    2  A    between atoms: C_3  and  C_21
    3  A    between atoms: C_3  and  O_24
    4  A    between atoms: C_5  and  O_24
    5  A    between atoms: C_5  and  N_30
    6  A    between atoms: C_7  and  C_8
    7  A    between atoms: C_10  and  C_22
    8  A    between atoms: C_21  and  C_22
                            x       y       z     vdW  Elec       q    Type
                         _______ _______ _______ _____ _____    ______ ____

>  <TORSDO>
F 8

$$$$
=
 OpenBabel11072411143D

 30 32  0  0  1  0  0  0  0  0999 V2000
  159.6070  209.7940  155.7480 O   0  0  0  0  0  0  0  0  0  0  0  0
  160.8050  208.8610  153.4420 C   0  0  2  0  0  3  0  0  0  0  0  0
  160.6060  210.3860  153.6120 C   0  0  2  0  0  3  0  0  0  0  0  0
  162.4450  207.8510  154.9710 O   0  0  0  0  0  1  0  0  0  0  0  0
  159.5170  211.9720  155.0800 O   0  0  0  0  0  1  0  0  0  0  0  0
  160.0430  206.5890  157.2610 C   0  0  0  0  0  1  0  0  0  0  0  0
  160.4570  208.6990  156.0170 C   0  0  1  0  0  3  0  0  0  0  0  0
  160.3150  210.8220  155.0730 C   0  0  1  0  0  0  0  0  0  0  0  0
  160.3040  206.8820  154.8550 N   0  0  0  0  0  2  0  0  0  0  0  0
  159.6530  207.4170  156.0490 C   0  0  1  0  0  3  0  0  0  0  0  0
  161.0870  208.1080  154.7640 C   0  0  1  0  0  0  0  0  0  0  0  0
  161.3340  207.2480  151.5570 C   0  0  0  0  0  0  0  0  0  0  0  0
  160.8360  207.3840  150.1510 C   0  0  0  0  0  2  0  0  0  0  0  0
  161.7990  208.4740  152.3140 C   0  0  1  0  0  3  0  0  0  0  0  0
  161.3990  206.1420  152.0680 O   0  0  0  0  0  0  0  0  0  0  0  0
  162.1240  209.6230  151.3730 C   0  0  0  0  0  3  0  0  0  0  0  0
  161.8530  208.1940  149.3560 C   0  0  0  0  0  2  0  0  0  0  0  0
  162.1310  209.5060  150.0360 C   0  0  0  0  0  3  0  0  0  0  0  0
  161.6480  211.1920  155.7520 C   0  0  0  0  0  2  0  0  0  0  0  0
  161.4320  211.9430  157.0560 C   0  0  0  0  0  1  0  0  0  0  0  0
  159.5030  210.8210  152.6470 C   0  0  0  0  0  2  0  0  0  0  0  0
  159.7810  212.2220  152.1340 C   0  0  0  0  0  2  0  0  0  0  0  0
  158.4970  212.8630  151.6090 C   0  0  1  0  0  3  0  0  0  0  0  0
  157.4820  213.1470  152.7150 C   0  0  0  0  0  1  0  0  0  0  0  0
  158.7340  213.9830  150.7820 O   0  0  0  0  0  0  0  0  0  0  0  0
  160.0860  213.9940  150.3970 C   0  0  0  0  0  2  0  0  0  0  0  0
  160.8180  213.5520  148.0290 C   0  0  0  0  0  0  0  0  0  0  0  0
  160.9020  214.0080  146.6170 C   0  0  0  0  0  1  0  0  0  0  0  0
  161.3000  212.4360  148.3540 O   0  0  0  0  0  0  0  0  0  0  0  0
  160.1890  214.3860  149.0020 N   0  0  0  0  0  2  0  0  0  0  0  0
  2 14  1  6  0  0  0
  2  3  1  0  0  0  0
  2 11  1  0  0  0  0
  3 21  1  6  0  0  0
  3  8  1  0  0  0  0
  7  1  1  6  0  0  0
  7 10  1  0  0  0  0
  8  5  1  6  0  0  0
  8  1  1  0  0  0  0
  8 19  1  0  0  0  0
  9 10  1  0  0  0  0
 10  6  1  1  0  0  0
 11  9  1  0  0  0  0
 11  4  1  1  0  0  0
 11  7  1  0  0  0  0
 12 15  2  0  0  0  0
 12 14  1  0  0  0  0
 13 12  1  0  0  0  0
 14 16  1  6  0  0  0
 17 18  1  0  0  0  0
 17 13  1  0  0  0  0
 18 16  2  0  0  0  0
 19 20  1  0  0  0  0
 22 21  1  0  0  0  0
 23 22  1  0  0  0  0
 23 24  1  1  0  0  0
 25 23  1  0  0  0  0
 26 25  1  0  0  0  0
 27 29  2  0  0  0  0
 27 30  1  0  0  0  0
 28 27  1  0  0  0  0
 30 26  1  0  0  0  0
M  END
>  <MODEL>
6

>  <REMARK>
 VINA RESULT:      -3.8      2.250      4.860
  Name = 
  8 active torsions:
  status: ('A' for Active; 'I' for Inactive)
    1  A    between atoms: C_1  and  C_20
    2  A    between atoms: C_3  and  C_21
    3  A    between atoms: C_3  and  O_24
    4  A    between atoms: C_5  and  O_24
    5  A    between atoms: C_5  and  N_30
    6  A    between atoms: C_7  and  C_8
    7  A    between atoms: C_10  and  C_22
    8  A    between atoms: C_21  and  C_22
                            x       y       z     vdW  Elec       q    Type
                         _______ _______ _______ _____ _____    ______ ____

>  <TORSDO>
F 8

$$$$
=
 OpenBabel11072411143D

 30 32  0  0  1  0  0  0  0  0999 V2000
  160.1760  206.4520  153.8670 O   0  0  0  0  0  0  0  0  0  0  0  0
  161.3700  207.8430  151.8030 C   0  0  2  0  0  3  0  0  0  0  0  0
  160.9760  208.6100  153.0870 C   0  0  2  0  0  3  0  0  0  0  0  0
  163.2070  206.2310  152.0790 O   0  0  0  0  0  1  0  0  0  0  0  0
  159.7590  208.2870  155.1540 O   0  0  0  0  0  1  0  0  0  0  0  0
  161.1160  203.3720  152.3240 C   0  0  0  0  0  1  0  0  0  0  0  0
  161.1790  205.6800  153.2400 C   0  0  1  0  0  3  0  0  0  0  0  0
  160.7040  207.6930  154.3090 C   0  0  1  0  0  0  0  0  0  0  0  0
  161.2130  205.4710  151.0880 N   0  0  0  0  0  2  0  0  0  0  0  0
  160.5580  204.7780  152.1950 C   0  0  1  0  0  3  0  0  0  0  0  0
  161.8170  206.3830  152.0510 C   0  0  1  0  0  0  0  0  0  0  0  0
  162.1200  208.2810  149.4190 C   0  0  0  0  0  0  0  0  0  0  0  0
  161.5120  209.3010  148.5060 C   0  0  0  0  0  2  0  0  0  0  0  0
  162.3490  208.6160  150.8780 C   0  0  1  0  0  3  0  0  0  0  0  0
  162.4630  207.2000  148.9700 O   0  0  0  0  0  0  0  0  0  0  0  0
  162.3460  210.1180  151.1150 C   0  0  0  0  0  3  0  0  0  0  0  0
  162.2680  210.6130  148.6790 C   0  0  0  0  0  2  0  0  0  0  0  0
  162.2910  211.0240  150.1250 C   0  0  0  0  0  3  0  0  0  0  0  0
  162.0070  207.5480  155.1180 C   0  0  0  0  0  2  0  0  0  0  0  0
  161.9200  208.2450  156.4660 C   0  0  0  0  0  1  0  0  0  0  0  0
  159.7780  209.4960  152.7490 C   0  0  0  0  0  2  0  0  0  0  0  0
  159.9310  210.8560  153.4060 C   0  0  0  0  0  2  0  0  0  0  0  0
  158.5980  211.6030  153.4070 C   0  0  1  0  0  3  0  0  0  0  0  0
  157.8420  211.4640  154.7270 C   0  0  0  0  0  1  0  0  0  0  0  0
  158.7140  212.9450  152.9800 O   0  0  0  0  0  0  0  0  0  0  0  0
  158.5720  212.9990  151.5820 C   0  0  0  0  0  2  0  0  0  0  0  0
  159.8870  213.7990  149.5910 C   0  0  0  0  0  0  0  0  0  0  0  0
  161.1360  214.3910  149.0440 C   0  0  0  0  0  1  0  0  0  0  0  0
  158.9470  213.4960  148.8100 O   0  0  0  0  0  0  0  0  0  0  0  0
  159.7660  213.5810  150.9960 N   0  0  0  0  0  2  0  0  0  0  0  0
  1  8  1  0  0  0  0
  2 14  1  1  0  0  0
  2 11  1  0  0  0  0
  2  3  1  0  0  0  0
  3 21  1  6  0  0  0
  3  8  1  0  0  0  0
  7  1  1  6  0  0  0
  8 19  1  0  0  0  0
  8  5  1  1  0  0  0
  9 11  1  0  0  0  0
  9 10  1  0  0  0  0
 10  6  1  1  0  0  0
 10  7  1  0  0  0  0
 11  4  1  1  0  0  0
 11  7  1  0  0  0  0
 12 14  1  0  0  0  0
 13 17  1  0  0  0  0
 13 12  1  0  0  0  0
 14 16  1  6  0  0  0
 15 12  2  0  0  0  0
 17 18  1  0  0  0  0
 18 16  2  0  0  0  0
 19 20  1  0  0  0  0
 21 22  1  0  0  0  0
 22 23  1  0  0  0  0
 23 24  1  1  0  0  0
 25 23  1  0  0  0  0
 26 25  1  0  0  0  0
 27 30  1  0  0  0  0
 28 27  1  0  0  0  0
 29 27  2  0  0  0  0
 30 26  1  0  0  0  0
M  END
>  <MODEL>
7

>  <REMARK>
 VINA RESULT:      -3.8      2.986      5.999
  Name = 
  8 active torsions:
  status: ('A' for Active; 'I' for Inactive)
    1  A    between atoms: C_1  and  C_20
    2  A    between atoms: C_3  and  C_21
    3  A    between atoms: C_3  and  O_24
    4  A    between atoms: C_5  and  O_24
    5  A    between atoms: C_5  and  N_30
    6  A    between atoms: C_7  and  C_8
    7  A    between atoms: C_10  and  C_22
    8  A    between atoms: C_21  and  C_22
                            x       y       z     vdW  Elec       q    Type
                         _______ _______ _______ _____ _____    ______ ____

>  <TORSDO>
F 8

$$$$
=
 OpenBabel11072411143D

 30 32  0  0  1  0  0  0  0  0999 V2000
  161.9020  202.6970  145.5640 O   0  0  0  0  0  0  0  0  0  0  0  0
  161.1690  202.9890  148.2090 C   0  0  2  0  0  3  0  0  0  0  0  0
  161.4120  204.2590  147.3590 C   0  0  2  0  0  3  0  0  0  0  0  0
  159.1900  201.6760  147.5720 O   0  0  0  0  0  1  0  0  0  0  0  0
  162.2510  204.9180  145.1880 O   0  0  0  0  0  1  0  0  0  0  0  0
  160.9820  199.2490  145.6990 C   0  0  0  0  0  1  0  0  0  0  0  0
  160.9560  201.7210  145.9450 C   0  0  1  0  0  3  0  0  0  0  0  0
  161.4110  204.0010  145.8290 C   0  0  1  0  0  0  0  0  0  0  0  0
  161.2520  200.5530  147.7410 N   0  0  0  0  0  2  0  0  0  0  0  0
  161.6640  200.4430  146.3430 C   0  0  1  0  0  3  0  0  0  0  0  0
  160.5740  201.8020  147.4160 C   0  0  1  0  0  0  0  0  0  0  0  0
  160.8650  202.3040  150.6330 C   0  0  0  0  0  0  0  0  0  0  0  0
  161.6870  202.8170  151.7750 C   0  0  0  0  0  2  0  0  0  0  0  0
  160.4170  203.2530  149.5410 C   0  0  1  0  0  3  0  0  0  0  0  0
  160.5300  201.1310  150.6110 O   0  0  0  0  0  0  0  0  0  0  0  0
  160.4810  204.7010  149.9970 C   0  0  0  0  0  3  0  0  0  0  0  0
  161.0040  204.0560  152.3410 C   0  0  0  0  0  2  0  0  0  0  0  0
  160.7650  205.0690  151.2570 C   0  0  0  0  0  3  0  0  0  0  0  0
  159.9860  204.2380  145.2900 C   0  0  0  0  0  2  0  0  0  0  0  0
  159.6680  205.7180  145.1570 C   0  0  0  0  0  1  0  0  0  0  0  0
  162.7150  204.8970  147.8390 C   0  0  0  0  0  2  0  0  0  0  0  0
  162.8660  206.2860  147.2450 C   0  0  0  0  0  2  0  0  0  0  0  0
  162.2880  207.3380  148.1920 C   0  0  1  0  0  3  0  0  0  0  0  0
  160.7600  207.3520  148.1980 C   0  0  0  0  0  1  0  0  0  0  0  0
  162.8420  207.2790  149.4900 O   0  0  0  0  0  0  0  0  0  0  0  0
  162.3000  208.3150  150.2710 C   0  0  0  0  0  2  0  0  0  0  0  0
  161.1580  208.4190  152.5110 C   0  0  0  0  0  0  0  0  0  0  0  0
  161.0400  207.9160  153.9050 C   0  0  0  0  0  1  0  0  0  0  0  0
  160.3920  209.3360  152.1130 O   0  0  0  0  0  0  0  0  0  0  0  0
  162.1370  207.8560  151.6390 N   0  0  0  0  0  2  0  0  0  0  0  0
  1  8  1  0  0  0  0
  2 14  1  1  0  0  0
  3 21  1  1  0  0  0
  3  2  1  0  0  0  0
  7  1  1  1  0  0  0
  7 10  1  0  0  0  0
  7 11  1  0  0  0  0
  8  5  1  6  0  0  0
  8  3  1  0  0  0  0
 10  6  1  6  0  0  0
 10  9  1  0  0  0  0
 11  4  1  1  0  0  0
 11  9  1  0  0  0  0
 11  2  1  0  0  0  0
 12 13  1  0  0  0  0
 13 17  1  0  0  0  0
 14 16  1  1  0  0  0
 14 12  1  0  0  0  0
 15 12  2  0  0  0  0
 16 18  2  0  0  0  0
 18 17  1  0  0  0  0
 19  8  1  0  0  0  0
 20 19  1  0  0  0  0
 22 21  1  0  0  0  0
 22 23  1  0  0  0  0
 23 24  1  1  0  0  0
 23 25  1  0  0  0  0
 25 26  1  0  0  0  0
 26 30  1  0  0  0  0
 27 28  1  0  0  0  0
 29 27  2  0  0  0  0
 30 27  1  0  0  0  0
M  END
>  <MODEL>
8

>  <REMARK>
 VINA RESULT:      -3.7      6.944     10.508
  Name = 
  8 active torsions:
  status: ('A' for Active; 'I' for Inactive)
    1  A    between atoms: C_1  and  C_20
    2  A    between atoms: C_3  and  C_21
    3  A    between atoms: C_3  and  O_24
    4  A    between atoms: C_5  and  O_24
    5  A    between atoms: C_5  and  N_30
    6  A    between atoms: C_7  and  C_8
    7  A    between atoms: C_10  and  C_22
    8  A    between atoms: C_21  and  C_22
                            x       y       z     vdW  Elec       q    Type
                         _______ _______ _______ _____ _____    ______ ____

>  <TORSDO>
F 8

$$$$
=
 OpenBabel11072411143D

 30 32  0  0  1  0  0  0  0  0999 V2000
  161.9850  202.9570  145.8940 O   0  0  0  0  0  0  0  0  0  0  0  0
  161.2920  203.4520  148.5200 C   0  0  2  0  0  3  0  0  0  0  0  0
  161.4760  204.6520  147.5600 C   0  0  2  0  0  3  0  0  0  0  0  0
  159.3460  202.0280  148.0390 O   0  0  0  0  0  1  0  0  0  0  0  0
  162.2530  205.1480  145.3230 O   0  0  0  0  0  1  0  0  0  0  0  0
  161.1820  199.5070  146.3410 C   0  0  0  0  0  1  0  0  0  0  0  0
  161.0780  201.9890  146.3770 C   0  0  1  0  0  3  0  0  0  0  0  0
  161.4550  204.2640  146.0580 C   0  0  1  0  0  0  0  0  0  0  0  0
  161.4460  200.9890  148.2590 N   0  0  0  0  0  2  0  0  0  0  0  0
  161.8350  200.7730  146.8670 C   0  0  1  0  0  3  0  0  0  0  0  0
  160.7210  202.1830  147.8430 C   0  0  1  0  0  0  0  0  0  0  0  0
  161.2810  203.2530  151.0490 C   0  0  0  0  0  0  0  0  0  0  0  0
  161.9910  204.1840  151.9820 C   0  0  0  0  0  2  0  0  0  0  0  0
  160.5550  203.8060  149.8400 C   0  0  1  0  0  3  0  0  0  0  0  0
  161.2600  202.0580  151.2920 O   0  0  0  0  0  0  0  0  0  0  0  0
  160.2630  205.2890  149.9930 C   0  0  0  0  0  3  0  0  0  0  0  0
  161.0370  205.3120  152.3560 C   0  0  0  0  0  2  0  0  0  0  0  0
  160.4970  205.9780  151.1210 C   0  0  0  0  0  3  0  0  0  0  0  0
  160.0140  204.4080  145.5300 C   0  0  0  0  0  2  0  0  0  0  0  0
  159.6380  205.8630  145.2970 C   0  0  0  0  0  1  0  0  0  0  0  0
  162.7660  205.3690  147.9550 C   0  0  0  0  0  2  0  0  0  0  0  0
  162.7020  206.8280  147.5380 C   0  0  0  0  0  2  0  0  0  0  0  0
  162.0020  207.6600  148.6120 C   0  0  1  0  0  3  0  0  0  0  0  0
  162.8080  207.7570  149.9050 C   0  0  0  0  0  1  0  0  0  0  0  0
  161.5670  208.9190  148.1400 O   0  0  0  0  0  0  0  0  0  0  0  0
  162.2740  209.9330  148.8110 C   0  0  0  0  0  2  0  0  0  0  0  0
  162.4080  212.3240  148.0380 C   0  0  0  0  0  0  0  0  0  0  0  0
  161.7250  213.6190  147.7800 C   0  0  0  0  0  1  0  0  0  0  0  0
  163.6420  212.2150  147.8140 O   0  0  0  0  0  0  0  0  0  0  0  0
  161.6560  211.2180  148.5350 N   0  0  0  0  0  2  0  0  0  0  0  0
  1  8  1  0  0  0  0
  2 14  1  1  0  0  0
  3 21  1  1  0  0  0
  3  2  1  0  0  0  0
  7  1  1  1  0  0  0
  7 10  1  0  0  0  0
  7 11  1  0  0  0  0
  8  5  1  6  0  0  0
  8  3  1  0  0  0  0
 10  6  1  6  0  0  0
 10  9  1  0  0  0  0
 11  4  1  1  0  0  0
 11  9  1  0  0  0  0
 11  2  1  0  0  0  0
 12 15  2  0  0  0  0
 12 13  1  0  0  0  0
 13 17  1  0  0  0  0
 14 16  1  1  0  0  0
 14 12  1  0  0  0  0
 16 18  2  0  0  0  0
 18 17  1  0  0  0  0
 19  8  1  0  0  0  0
 20 19  1  0  0  0  0
 22 21  1  0  0  0  0
 22 23  1  0  0  0  0
 23 24  1  1  0  0  0
 25 23  1  0  0  0  0
 25 26  1  0  0  0  0
 27 30  1  0  0  0  0
 28 27  1  0  0  0  0
 29 27  2  0  0  0  0
 30 26  1  0  0  0  0
M  END
>  <MODEL>
9

>  <REMARK>
 VINA RESULT:      -3.7      6.402      9.707
  Name = 
  8 active torsions:
  status: ('A' for Active; 'I' for Inactive)
    1  A    between atoms: C_1  and  C_20
    2  A    between atoms: C_3  and  C_21
    3  A    between atoms: C_3  and  O_24
    4  A    between atoms: C_5  and  O_24
    5  A    between atoms: C_5  and  N_30
    6  A    between atoms: C_7  and  C_8
    7  A    between atoms: C_10  and  C_22
    8  A    between atoms: C_21  and  C_22
                            x       y       z     vdW  Elec       q    Type
                         _______ _______ _______ _____ _____    ______ ____

>  <TORSDO>
F 8

$$$$
