=
 OpenBabel11072413383D

 43 49  0  0  1  0  0  0  0  0999 V2000
  161.4650  205.9810  153.9350 C   0  0  0  0  0  2  0  0  0  0  0  0
  159.5570  208.5700  155.9190 C   0  0  0  0  0  3  0  0  0  0  0  0
  161.2070  208.5360  153.7090 C   0  0  0  0  0  0  0  0  0  0  0  0
  161.9560  208.6350  152.4280 C   0  0  1  0  0  3  0  0  0  0  0  0
  159.7000  209.6890  155.1510 N   0  0  0  0  0  0  0  0  0  0  0  0
  160.1900  207.3730  155.5560 C   0  0  0  0  0  3  0  0  0  0  0  0
  161.4410  207.6760  151.5550 O   0  0  0  0  0  0  0  0  0  0  0  0
  161.7190  210.3150  151.7440 S   0  0  0  0  0  0  0  0  0  0  0  0
  162.3090  206.5630  151.5490 C   0  0  1  0  0  3  0  0  0  0  0  0
  162.6380  205.9920  152.9490 C   0  0  0  0  0  2  0  0  0  0  0  0
  159.5110  211.4700  152.8710 N   0  0  0  0  0  0  0  0  0  0  0  0
  160.5190  209.6730  154.0690 C   0  0  0  0  0  0  0  0  0  0  0  0
  160.5360  210.6930  153.0430 C   0  0  0  0  0  0  0  0  0  0  0  0
  161.0260  207.3400  154.4330 C   0  0  0  0  0  0  0  0  0  0  0  0
  161.9350  206.0020  149.0550 C   0  0  1  0  0  3  0  0  0  0  0  0
  160.7240  206.8250  148.9190 C   0  0  2  0  0  3  0  0  0  0  0  0
  163.0130  206.8370  148.4240 C   0  0  0  0  0  2  0  0  0  0  0  0
  160.2660  206.2600  146.6340 O   0  0  0  0  0  1  0  0  0  0  0  0
  161.8930  205.5040  150.4890 C   0  0  2  0  0  3  0  0  0  0  0  0
  159.6510  205.9320  149.4890 C   0  0  0  0  0  2  0  0  0  0  0  0
  160.7620  207.2590  147.4740 C   0  0  2  0  0  3  0  0  0  0  0  0
  160.3890  205.1220  150.5810 C   0  0  1  0  0  3  0  0  0  0  0  0
  162.2690  207.4490  147.2260 C   0  0  0  0  0  2  0  0  0  0  0  0
  160.1610  203.6580  150.3010 C   0  0  0  0  0  0  0  0  0  0  0  0
  159.0590  203.1690  150.5170 O   0  0  0  0  0  0  0  0  0  0  0  0
  161.4010  203.2620  148.1670 C   0  0  0  0  0  2  0  0  0  0  0  0
  161.2270  200.8570  147.3730 C   0  0  0  0  0  2  0  0  0  0  0  0
  161.7980  200.5570  148.7680 C   0  0  0  0  0  2  0  0  0  0  0  0
  161.0670  201.3430  149.8450 C   0  0  0  0  0  2  0  0  0  0  0  0
  160.7120  202.3000  147.2040 C   0  0  2  0  0  3  0  0  0  0  0  0
  161.2310  202.8520  149.6310 C   0  0  2  0  0  3  0  0  0  0  0  0
  162.0640  203.7980  145.7110 C   0  0  0  0  0  1  0  0  0  0  0  0
  160.9390  202.7900  145.7850 C   0  0  0  0  0  2  0  0  0  0  0  0
  158.9180  213.7750  149.3740 C   0  0  0  0  0  3  0  0  0  0  0  0
  160.2030  213.4330  149.7800 C   0  0  0  0  0  0  0  0  0  0  0  0
  159.2920  212.2420  151.6860 C   0  0  0  0  0  0  0  0  0  0  0  0
  161.3870  213.9220  149.0210 C   0  0  0  0  0  1  0  0  0  0  0  0
  157.8080  213.3800  150.1380 C   0  0  0  0  0  0  0  0  0  0  0  0
  160.3900  212.6550  150.9260 C   0  0  0  0  0  3  0  0  0  0  0  0
  158.0030  212.6300  151.3090 C   0  0  0  0  0  3  0  0  0  0  0  0
  156.4710  213.8720  149.7830 C   0  0  0  0  0  0  0  0  0  0  0  0
  155.5460  214.1530  150.7830 O   0  0  0  0  0  1  0  0  0  0  0  0
  156.1880  214.1160  148.5720 O   0  0  0  0  0  0  0  0  0  0  0  0
  1 14  1  0  0  0  0
  3 12  2  0  0  0  0
  3 14  1  0  0  0  0
  4  7  1  6  0  0  0
  4  3  1  0  0  0  0
  5  2  2  0  0  0  0
  6  2  1  0  0  0  0
  8  4  1  0  0  0  0
  8 13  1  0  0  0  0
  9  7  1  0  0  0  0
  9 10  1  1  0  0  0
 10  1  1  0  0  0  0
 11 13  2  0  0  0  0
 12  5  1  0  0  0  0
 13 12  1  0  0  0  0
 14  6  2  0  0  0  0
 15 17  1  1  0  0  0
 15 19  1  0  0  0  0
 16 15  1  0  0  0  0
 16 20  1  6  0  0  0
 19 22  1  0  0  0  0
 19  9  1  1  0  0  0
 20 22  1  0  0  0  0
 21 18  1  6  0  0  0
 21 16  1  0  0  0  0
 22 24  1  6  0  0  0
 23 21  1  0  0  0  0
 23 17  1  0  0  0  0
 24 25  2  0  0  0  0
 26 31  1  0  0  0  0
 27 28  1  0  0  0  0
 28 29  1  0  0  0  0
 30 33  1  6  0  0  0
 30 27  1  0  0  0  0
 30 26  1  0  0  0  0
 31 29  1  0  0  0  0
 31 24  1  6  0  0  0
 32 33  1  0  0  0  0
 34 35  2  0  0  0  0
 34 38  1  0  0  0  0
 35 39  1  0  0  0  0
 36 11  1  0  0  0  0
 37 35  1  0  0  0  0
 38 40  2  0  0  0  0
 39 36  2  0  0  0  0
 40 36  1  0  0  0  0
 41 38  1  0  0  0  0
 41 42  1  0  0  0  0
 43 41  2  0  0  0  0
M  END
>  <MODEL>
1

>  <REMARK>
 VINA RESULT:      -6.3      0.000      0.000
  Name = 
  6 active torsions:
  status: ('A' for Active; 'I' for Inactive)
    1  A    between atoms: C_3  and  C_27
    2  A    between atoms: C_3  and  C_40
    3  A    between atoms: C_15  and  C_34
    4  A    between atoms: C_17  and  N_30
    5  A    between atoms: C_21  and  C_26
    6  A    between atoms: C_25  and  C_36
                            x       y       z     vdW  Elec       q    Type
                         _______ _______ _______ _____ _____    ______ ____

>  <TORSDO>
F 6

$$$$
=
 OpenBabel11072413383D

 43 49  0  0  1  0  0  0  0  0999 V2000
  161.3260  206.2080  153.8180 C   0  0  0  0  0  2  0  0  0  0  0  0
  160.1710  208.2250  156.7970 C   0  0  0  0  0  3  0  0  0  0  0  0
  160.9540  208.7290  154.2000 C   0  0  0  0  0  0  0  0  0  0  0  0
  161.2120  209.1210  152.7880 C   0  0  1  0  0  3  0  0  0  0  0  0
  160.0160  209.4710  156.2620 N   0  0  0  0  0  0  0  0  0  0  0  0
  160.6630  207.1710  156.0130 C   0  0  0  0  0  3  0  0  0  0  0  0
  160.4460  208.2910  151.9680 O   0  0  0  0  0  0  0  0  0  0  0  0
  160.7200  210.8690  152.5700 S   0  0  0  0  0  0  0  0  0  0  0  0
  161.2810  207.2770  151.4510 C   0  0  1  0  0  3  0  0  0  0  0  0
  162.0850  206.4960  152.5180 C   0  0  0  0  0  2  0  0  0  0  0  0
  159.0150  211.6080  154.5770 N   0  0  0  0  0  0  0  0  0  0  0  0
  160.4100  209.7200  154.9870 C   0  0  0  0  0  0  0  0  0  0  0  0
  160.0520  210.9040  154.2380 C   0  0  0  0  0  0  0  0  0  0  0  0
  161.0590  207.4120  154.6920 C   0  0  0  0  0  0  0  0  0  0  0  0
  160.4450  204.9240  150.7860 C   0  0  1  0  0  3  0  0  0  0  0  0
  161.7850  204.3850  150.5110 C   0  0  2  0  0  3  0  0  0  0  0  0
  160.1000  204.3660  152.1360 C   0  0  0  0  0  2  0  0  0  0  0  0
  161.0650  202.2180  149.7840 O   0  0  0  0  0  1  0  0  0  0  0  0
  160.5450  206.3920  150.4060 C   0  0  2  0  0  3  0  0  0  0  0  0
  162.0720  204.8990  149.1230 C   0  0  0  0  0  2  0  0  0  0  0  0
  161.6440  202.9200  150.8420 C   0  0  2  0  0  3  0  0  0  0  0  0
  161.3320  206.2570  149.0730 C   0  0  1  0  0  3  0  0  0  0  0  0
  160.6790  202.9450  152.0420 C   0  0  0  0  0  2  0  0  0  0  0  0
  160.4160  206.2390  147.8760 C   0  0  0  0  0  0  0  0  0  0  0  0
  159.2340  206.5270  148.0190 O   0  0  0  0  0  0  0  0  0  0  0  0
  160.4400  204.7220  145.8890 C   0  0  0  0  0  2  0  0  0  0  0  0
  162.7750  203.9010  145.3210 C   0  0  0  0  0  2  0  0  0  0  0  0
  163.0810  205.4060  145.2580 C   0  0  0  0  0  2  0  0  0  0  0  0
  162.5090  206.1370  146.4630 C   0  0  0  0  0  2  0  0  0  0  0  0
  161.4280  203.5630  145.9890 C   0  0  2  0  0  3  0  0  0  0  0  0
  160.9820  206.0120  146.5080 C   0  0  2  0  0  3  0  0  0  0  0  0
  160.6420  201.2050  146.3400 C   0  0  0  0  0  1  0  0  0  0  0  0
  160.8010  202.3370  145.3500 C   0  0  0  0  0  2  0  0  0  0  0  0
  157.0940  214.3930  152.0370 C   0  0  0  0  0  3  0  0  0  0  0  0
  156.4510  213.9220  153.1770 C   0  0  0  0  0  0  0  0  0  0  0  0
  158.3840  212.5560  153.7110 C   0  0  0  0  0  0  0  0  0  0  0  0
  155.0590  214.3490  153.4860 C   0  0  0  0  0  1  0  0  0  0  0  0
  158.3760  213.9260  151.7070 C   0  0  0  0  0  0  0  0  0  0  0  0
  157.0990  213.0170  154.0210 C   0  0  0  0  0  3  0  0  0  0  0  0
  159.0090  212.9880  152.5380 C   0  0  0  0  0  3  0  0  0  0  0  0
  158.9820  214.3140  150.4270 C   0  0  0  0  0  0  0  0  0  0  0  0
  160.3620  214.4510  150.3250 O   0  0  0  0  0  1  0  0  0  0  0  0
  158.2550  214.4460  149.3980 O   0  0  0  0  0  0  0  0  0  0  0  0
  1 14  1  0  0  0  0
  3 14  2  0  0  0  0
  3 12  1  0  0  0  0
  4  7  1  6  0  0  0
  4  3  1  0  0  0  0
  5  2  1  0  0  0  0
  6  2  2  0  0  0  0
  8  4  1  0  0  0  0
  8 13  1  0  0  0  0
  9  7  1  0  0  0  0
  9 10  1  1  0  0  0
 10  1  1  0  0  0  0
 12  5  2  0  0  0  0
 13 11  2  0  0  0  0
 13 12  1  0  0  0  0
 14  6  1  0  0  0  0
 15 17  1  1  0  0  0
 16 20  1  6  0  0  0
 16 15  1  0  0  0  0
 16 21  1  0  0  0  0
 19 15  1  0  0  0  0
 19  9  1  1  0  0  0
 21 18  1  6  0  0  0
 21 23  1  0  0  0  0
 22 24  1  6  0  0  0
 22 20  1  0  0  0  0
 22 19  1  0  0  0  0
 23 17  1  0  0  0  0
 24 25  2  0  0  0  0
 26 30  1  0  0  0  0
 26 31  1  0  0  0  0
 27 30  1  0  0  0  0
 28 27  1  0  0  0  0
 28 29  1  0  0  0  0
 29 31  1  0  0  0  0
 30 33  1  6  0  0  0
 31 24  1  1  0  0  0
 33 32  1  0  0  0  0
 34 35  1  0  0  0  0
 35 37  1  0  0  0  0
 35 39  2  0  0  0  0
 36 39  1  0  0  0  0
 36 11  1  0  0  0  0
 38 34  2  0  0  0  0
 38 40  1  0  0  0  0
 40 36  2  0  0  0  0
 41 38  1  0  0  0  0
 42 41  1  0  0  0  0
 43 41  2  0  0  0  0
M  END
>  <MODEL>
2

>  <REMARK>
 VINA RESULT:      -6.2      1.714      3.421
  Name = 
  6 active torsions:
  status: ('A' for Active; 'I' for Inactive)
    1  A    between atoms: C_3  and  C_27
    2  A    between atoms: C_3  and  C_40
    3  A    between atoms: C_15  and  C_34
    4  A    between atoms: C_17  and  N_30
    5  A    between atoms: C_21  and  C_26
    6  A    between atoms: C_25  and  C_36
                            x       y       z     vdW  Elec       q    Type
                         _______ _______ _______ _____ _____    ______ ____

>  <TORSDO>
F 6

$$$$
=
 OpenBabel11072413383D

 43 49  0  0  1  0  0  0  0  0999 V2000
  161.6150  207.8600  152.4820 C   0  0  0  0  0  2  0  0  0  0  0  0
  159.9790  211.1960  153.1700 C   0  0  0  0  0  3  0  0  0  0  0  0
  161.6050  210.1100  151.2250 C   0  0  0  0  0  0  0  0  0  0  0  0
  162.3540  209.6080  150.0420 C   0  0  1  0  0  3  0  0  0  0  0  0
  160.2260  211.8840  152.0180 N   0  0  0  0  0  0  0  0  0  0  0  0
  160.4900  209.9020  153.3490 C   0  0  0  0  0  3  0  0  0  0  0  0
  161.7440  208.4270  149.6180 O   0  0  0  0  0  0  0  0  0  0  0  0
  162.2790  210.8760  148.7250 S   0  0  0  0  0  0  0  0  0  0  0  0
  162.4990  207.3350  150.0970 C   0  0  1  0  0  3  0  0  0  0  0  0
  162.7780  207.3600  151.6180 C   0  0  0  0  0  2  0  0  0  0  0  0
  160.2000  212.5860  149.2050 N   0  0  0  0  0  0  0  0  0  0  0  0
  161.0340  211.3520  151.0660 C   0  0  0  0  0  0  0  0  0  0  0  0
  161.1450  211.8570  149.7150 C   0  0  0  0  0  0  0  0  0  0  0  0
  161.3130  209.3370  152.3670 C   0  0  0  0  0  0  0  0  0  0  0  0
  161.9120  205.8990  148.0310 C   0  0  1  0  0  3  0  0  0  0  0  0
  160.7110  206.6700  147.6760 C   0  0  2  0  0  3  0  0  0  0  0  0
  162.9510  206.3810  147.0610 C   0  0  0  0  0  2  0  0  0  0  0  0
  160.0570  205.3130  145.8110 O   0  0  0  0  0  1  0  0  0  0  0  0
  161.9750  205.9780  149.5470 C   0  0  2  0  0  3  0  0  0  0  0  0
  159.6700  206.1120  148.6130 C   0  0  0  0  0  2  0  0  0  0  0  0
  160.6400  206.5280  146.1760 C   0  0  2  0  0  3  0  0  0  0  0  0
  160.4770  205.7340  149.8770 C   0  0  1  0  0  3  0  0  0  0  0  0
  162.1260  206.5350  145.7730 C   0  0  0  0  0  2  0  0  0  0  0  0
  160.1960  204.2860  150.1870 C   0  0  0  0  0  0  0  0  0  0  0  0
  159.1150  203.9720  150.6710 O   0  0  0  0  0  0  0  0  0  0  0  0
  161.4030  203.2480  148.2600 C   0  0  0  0  0  2  0  0  0  0  0  0
  160.9700  200.7530  148.0710 C   0  0  0  0  0  2  0  0  0  0  0  0
  161.4930  200.7480  149.5160 C   0  0  0  0  0  2  0  0  0  0  0  0
  160.8440  201.8480  150.3430 C   0  0  0  0  0  2  0  0  0  0  0  0
  160.6200  202.1560  147.5370 C   0  0  2  0  0  3  0  0  0  0  0  0
  161.1760  203.2320  149.7730 C   0  0  2  0  0  3  0  0  0  0  0  0
  160.0920  201.2670  145.2490 C   0  0  0  0  0  1  0  0  0  0  0  0
  160.9110  202.2540  146.0500 C   0  0  0  0  0  2  0  0  0  0  0  0
  159.7020  213.2600  145.0590 C   0  0  0  0  0  3  0  0  0  0  0  0
  158.5940  213.1770  145.8950 C   0  0  0  0  0  0  0  0  0  0  0  0
  160.0500  212.8220  147.8020 C   0  0  0  0  0  0  0  0  0  0  0  0
  157.2190  213.2670  145.3320 C   0  0  0  0  0  1  0  0  0  0  0  0
  160.9940  213.0940  145.5820 C   0  0  0  0  0  0  0  0  0  0  0  0
  158.7670  212.9730  147.2660 C   0  0  0  0  0  3  0  0  0  0  0  0
  161.1620  212.8530  146.9550 C   0  0  0  0  0  3  0  0  0  0  0  0
  162.1440  213.0350  144.6700 C   0  0  0  0  0  0  0  0  0  0  0  0
  161.9870  212.5270  143.3860 O   0  0  0  0  0  0  0  0  0  0  0  0
  163.2590  213.5200  145.0280 O   0  0  0  0  0  1  0  0  0  0  0  0
  2  6  1  0  0  0  0
  3 14  1  0  0  0  0
  4  8  1  6  0  0  0
  4  3  1  0  0  0  0
  5  2  2  0  0  0  0
  7  4  1  0  0  0  0
  7  9  1  0  0  0  0
  8 13  1  0  0  0  0
  9 10  1  1  0  0  0
 10  1  1  0  0  0  0
 11 13  2  0  0  0  0
 12  3  2  0  0  0  0
 12  5  1  0  0  0  0
 13 12  1  0  0  0  0
 14  1  1  0  0  0  0
 14  6  2  0  0  0  0
 15 17  1  6  0  0  0
 15 19  1  0  0  0  0
 16 15  1  0  0  0  0
 16 20  1  1  0  0  0
 19 22  1  0  0  0  0
 19  9  1  6  0  0  0
 20 22  1  0  0  0  0
 21 18  1  1  0  0  0
 21 16  1  0  0  0  0
 22 24  1  6  0  0  0
 23 21  1  0  0  0  0
 23 17  1  0  0  0  0
 24 25  2  0  0  0  0
 26 31  1  0  0  0  0
 27 28  1  0  0  0  0
 28 29  1  0  0  0  0
 30 33  1  6  0  0  0
 30 27  1  0  0  0  0
 30 26  1  0  0  0  0
 31 24  1  6  0  0  0
 31 29  1  0  0  0  0
 32 33  1  0  0  0  0
 34 38  2  0  0  0  0
 34 35  1  0  0  0  0
 35 39  2  0  0  0  0
 36 11  1  0  0  0  0
 37 35  1  0  0  0  0
 38 40  1  0  0  0  0
 39 36  1  0  0  0  0
 40 36  2  0  0  0  0
 41 43  1  0  0  0  0
 41 38  1  0  0  0  0
 42 41  2  0  0  0  0
M  END
>  <MODEL>
3

>  <REMARK>
 VINA RESULT:      -4.9      2.577      3.547
  Name = 
  6 active torsions:
  status: ('A' for Active; 'I' for Inactive)
    1  A    between atoms: C_3  and  C_27
    2  A    between atoms: C_3  and  C_40
    3  A    between atoms: C_15  and  C_34
    4  A    between atoms: C_17  and  N_30
    5  A    between atoms: C_21  and  C_26
    6  A    between atoms: C_25  and  C_36
                            x       y       z     vdW  Elec       q    Type
                         _______ _______ _______ _____ _____    ______ ____

>  <TORSDO>
F 6

$$$$
=
 OpenBabel11072413383D

 43 49  0  0  1  0  0  0  0  0999 V2000
  161.6250  210.6120  147.4580 C   0  0  0  0  0  2  0  0  0  0  0  0
  161.6120  207.0090  148.5980 C   0  0  0  0  0  3  0  0  0  0  0  0
  162.0660  209.4820  149.7320 C   0  0  0  0  0  0  0  0  0  0  0  0
  162.1890  210.7540  150.4950 C   0  0  1  0  0  3  0  0  0  0  0  0
  161.7370  207.1320  149.9510 N   0  0  0  0  0  0  0  0  0  0  0  0
  161.6410  208.1450  147.7750 C   0  0  0  0  0  3  0  0  0  0  0  0
  161.0910  211.5530  150.1730 O   0  0  0  0  0  0  0  0  0  0  0  0
  162.1940  210.3620  152.2810 S   0  0  0  0  0  0  0  0  0  0  0  0
  161.4990  212.5140  149.2220 C   0  0  1  0  0  3  0  0  0  0  0  0
  162.2090  211.9310  147.9780 C   0  0  0  0  0  2  0  0  0  0  0  0
  161.1320  207.8750  152.6870 N   0  0  0  0  0  0  0  0  0  0  0  0
  161.9700  208.3480  150.5070 C   0  0  0  0  0  0  0  0  0  0  0  0
  161.8500  208.6360  151.9190 C   0  0  0  0  0  0  0  0  0  0  0  0
  161.8660  209.4070  148.3390 C   0  0  0  0  0  0  0  0  0  0  0  0
  159.5840  213.9890  150.1330 C   0  0  1  0  0  3  0  0  0  0  0  0
  158.6760  212.8650  150.4060 C   0  0  2  0  0  3  0  0  0  0  0  0
  160.1340  214.3450  151.4840 C   0  0  0  0  0  2  0  0  0  0  0  0
  156.8250  214.1870  151.1630 O   0  0  0  0  0  1  0  0  0  0  0  0
  160.3760  213.5450  148.9160 C   0  0  2  0  0  3  0  0  0  0  0  0
  158.0830  212.5800  149.0490 C   0  0  0  0  0  2  0  0  0  0  0  0
  157.8640  213.3530  151.5810 C   0  0  2  0  0  3  0  0  0  0  0  0
  159.2230  212.9420  148.0670 C   0  0  1  0  0  3  0  0  0  0  0  0
  158.8970  214.1670  152.3800 C   0  0  0  0  0  2  0  0  0  0  0  0
  158.6760  213.9340  147.0730 C   0  0  0  0  0  0  0  0  0  0  0  0
  157.5860  214.4530  147.2770 O   0  0  0  0  0  0  0  0  0  0  0  0
  159.2170  213.5830  144.6570 C   0  0  0  0  0  2  0  0  0  0  0  0
  161.6710  213.0530  144.2780 C   0  0  0  0  0  2  0  0  0  0  0  0
  161.8750  214.3840  145.0200 C   0  0  0  0  0  2  0  0  0  0  0  0
  161.0170  214.4530  146.2740 C   0  0  0  0  0  2  0  0  0  0  0  0
  160.2430  212.4850  144.3910 C   0  0  2  0  0  3  0  0  0  0  0  0
  159.5270  214.3830  145.9240 C   0  0  2  0  0  3  0  0  0  0  0  0
  160.3870  212.4450  141.8860 C   0  0  0  0  0  1  0  0  0  0  0  0
  159.8510  211.7540  143.1200 C   0  0  0  0  0  2  0  0  0  0  0  0
  159.7360  208.9810  156.5240 C   0  0  0  0  0  3  0  0  0  0  0  0
  160.0200  207.6500  156.2370 C   0  0  0  0  0  0  0  0  0  0  0  0
  160.6670  208.2680  153.9820 C   0  0  0  0  0  0  0  0  0  0  0  0
  159.7810  206.5930  157.2570 C   0  0  0  0  0  1  0  0  0  0  0  0
  159.8870  209.9640  155.5340 C   0  0  0  0  0  0  0  0  0  0  0  0
  160.4980  207.2950  154.9730 C   0  0  0  0  0  3  0  0  0  0  0  0
  160.3330  209.5980  154.2540 C   0  0  0  0  0  3  0  0  0  0  0  0
  159.4440  211.3380  155.8020 C   0  0  0  0  0  0  0  0  0  0  0  0
  160.1310  212.4110  155.2460 O   0  0  0  0  0  0  0  0  0  0  0  0
  158.3900  211.5420  156.4750 O   0  0  0  0  0  1  0  0  0  0  0  0
  1 10  1  0  0  0  0
  1 14  1  0  0  0  0
  2  5  1  0  0  0  0
  3 12  1  0  0  0  0
  4  3  1  6  0  0  0
  4  8  1  0  0  0  0
  5 12  2  0  0  0  0
  6 14  1  0  0  0  0
  6  2  2  0  0  0  0
  7  4  1  0  0  0  0
  9 10  1  6  0  0  0
  9  7  1  0  0  0  0
 11 36  1  0  0  0  0
 12 13  1  0  0  0  0
 13  8  1  0  0  0  0
 13 11  2  0  0  0  0
 14  3  2  0  0  0  0
 15 16  1  0  0  0  0
 15 17  1  1  0  0  0
 16 20  1  6  0  0  0
 16 21  1  0  0  0  0
 17 23  1  0  0  0  0
 19  9  1  1  0  0  0
 19 15  1  0  0  0  0
 21 18  1  6  0  0  0
 21 23  1  0  0  0  0
 22 24  1  6  0  0  0
 22 19  1  0  0  0  0
 22 20  1  0  0  0  0
 24 25  2  0  0  0  0
 26 31  1  0  0  0  0
 27 30  1  0  0  0  0
 27 28  1  0  0  0  0
 28 29  1  0  0  0  0
 30 33  1  6  0  0  0
 30 26  1  0  0  0  0
 31 29  1  0  0  0  0
 31 24  1  1  0  0  0
 32 33  1  0  0  0  0
 35 34  1  0  0  0  0
 35 37  1  0  0  0  0
 36 40  2  0  0  0  0
 36 39  1  0  0  0  0
 38 41  1  0  0  0  0
 38 34  2  0  0  0  0
 39 35  2  0  0  0  0
 40 38  1  0  0  0  0
 41 43  1  0  0  0  0
 42 41  2  0  0  0  0
M  END
>  <MODEL>
4

>  <REMARK>
 VINA RESULT:      -4.4      3.287      8.376
  Name = 
  6 active torsions:
  status: ('A' for Active; 'I' for Inactive)
    1  A    between atoms: C_3  and  C_27
    2  A    between atoms: C_3  and  C_40
    3  A    between atoms: C_15  and  C_34
    4  A    between atoms: C_17  and  N_30
    5  A    between atoms: C_21  and  C_26
    6  A    between atoms: C_25  and  C_36
                            x       y       z     vdW  Elec       q    Type
                         _______ _______ _______ _____ _____    ______ ____

>  <TORSDO>
F 6

$$$$
=
 OpenBabel11072413383D

 43 49  0  0  1  0  0  0  0  0999 V2000
  162.0880  209.4040  147.9000 C   0  0  0  0  0  2  0  0  0  0  0  0
  160.7870  206.7140  150.2140 C   0  0  0  0  0  3  0  0  0  0  0  0
  161.8540  209.2450  150.4620 C   0  0  0  0  0  0  0  0  0  0  0  0
  162.2760  210.6480  150.7240 C   0  0  1  0  0  3  0  0  0  0  0  0
  160.7720  207.3510  151.4210 N   0  0  0  0  0  0  0  0  0  0  0  0
  161.2800  207.3640  149.0730 C   0  0  0  0  0  3  0  0  0  0  0  0
  161.5390  211.4800  149.8810 O   0  0  0  0  0  0  0  0  0  0  0  0
  161.9300  211.0410  152.4760 S   0  0  0  0  0  0  0  0  0  0  0  0
  162.3480  211.8330  148.7800 C   0  0  1  0  0  3  0  0  0  0  0  0
  162.9880  210.6360  148.0380 C   0  0  0  0  0  2  0  0  0  0  0  0
  160.0910  209.2800  153.4750 N   0  0  0  0  0  0  0  0  0  0  0  0
  161.3060  208.5920  151.5430 C   0  0  0  0  0  0  0  0  0  0  0  0
  161.1050  209.4580  152.6840 C   0  0  0  0  0  0  0  0  0  0  0  0
  161.8200  208.6510  149.1840 C   0  0  0  0  0  0  0  0  0  0  0  0
  160.5600  213.6820  148.5390 C   0  0  1  0  0  3  0  0  0  0  0  0
  159.4150  212.7600  148.5870 C   0  0  2  0  0  3  0  0  0  0  0  0
  160.6000  214.2800  149.9160 C   0  0  0  0  0  2  0  0  0  0  0  0
  157.7140  214.4180  148.2620 O   0  0  0  0  0  1  0  0  0  0  0  0
  161.6590  212.8820  147.8620 C   0  0  2  0  0  3  0  0  0  0  0  0
  159.3540  212.2340  147.1750 C   0  0  0  0  0  2  0  0  0  0  0  0
  158.3240  213.5940  149.2110 C   0  0  2  0  0  3  0  0  0  0  0  0
  160.8320  212.2290  146.7190 C   0  0  1  0  0  3  0  0  0  0  0  0
  159.1040  214.4530  150.2230 C   0  0  0  0  0  2  0  0  0  0  0  0
  160.9210  213.0170  145.4370 C   0  0  0  0  0  0  0  0  0  0  0  0
  161.9400  213.6510  145.1900 O   0  0  0  0  0  0  0  0  0  0  0  0
  160.1600  211.8360  143.3700 C   0  0  0  0  0  2  0  0  0  0  0  0
  159.6930  213.4350  141.4530 C   0  0  0  0  0  2  0  0  0  0  0  0
  158.7420  214.0790  142.4750 C   0  0  0  0  0  2  0  0  0  0  0  0
  159.4210  214.2570  143.8250 C   0  0  0  0  0  2  0  0  0  0  0  0
  160.6890  212.4330  142.0690 C   0  0  2  0  0  3  0  0  0  0  0  0
  159.8320  212.9030  144.4160 C   0  0  2  0  0  3  0  0  0  0  0  0
  162.2740  211.5230  140.3480 C   0  0  0  0  0  1  0  0  0  0  0  0
  160.9810  211.3000  141.1010 C   0  0  0  0  0  2  0  0  0  0  0  0
  158.7270  212.1980  156.2170 C   0  0  0  0  0  3  0  0  0  0  0  0
  160.0540  211.7810  156.2370 C   0  0  0  0  0  0  0  0  0  0  0  0
  159.6150  210.2720  154.3890 C   0  0  0  0  0  0  0  0  0  0  0  0
  160.9940  212.3140  157.2610 C   0  0  0  0  0  1  0  0  0  0  0  0
  157.8240  211.6340  155.3020 C   0  0  0  0  0  0  0  0  0  0  0  0
  160.5010  210.8300  155.3160 C   0  0  0  0  0  3  0  0  0  0  0  0
  158.2700  210.6520  154.4030 C   0  0  0  0  0  3  0  0  0  0  0  0
  156.3970  211.9710  155.3890 C   0  0  0  0  0  0  0  0  0  0  0  0
  155.5200  211.1160  156.0460 O   0  0  0  0  0  1  0  0  0  0  0  0
  155.9820  213.0780  154.9340 O   0  0  0  0  0  0  0  0  0  0  0  0
  1 10  1  0  0  0  0
  1 14  1  0  0  0  0
  2  5  1  0  0  0  0
  3  4  1  0  0  0  0
  3 12  1  0  0  0  0
  4  7  1  6  0  0  0
  4  8  1  0  0  0  0
  5 12  2  0  0  0  0
  6 14  1  0  0  0  0
  6  2  2  0  0  0  0
  8 13  1  0  0  0  0
  9 10  1  6  0  0  0
  9  7  1  0  0  0  0
 11 36  1  0  0  0  0
 12 13  1  0  0  0  0
 13 11  2  0  0  0  0
 14  3  2  0  0  0  0
 15 16  1  0  0  0  0
 15 17  1  1  0  0  0
 16 20  1  6  0  0  0
 16 21  1  0  0  0  0
 17 23  1  0  0  0  0
 19 15  1  0  0  0  0
 19  9  1  1  0  0  0
 21 18  1  6  0  0  0
 21 23  1  0  0  0  0
 22 24  1  6  0  0  0
 22 20  1  0  0  0  0
 22 19  1  0  0  0  0
 25 24  2  0  0  0  0
 26 31  1  0  0  0  0
 27 30  1  0  0  0  0
 27 28  1  0  0  0  0
 28 29  1  0  0  0  0
 29 31  1  0  0  0  0
 30 33  1  6  0  0  0
 30 26  1  0  0  0  0
 31 24  1  1  0  0  0
 32 33  1  0  0  0  0
 34 35  1  0  0  0  0
 35 37  1  0  0  0  0
 36 40  2  0  0  0  0
 36 39  1  0  0  0  0
 38 41  1  0  0  0  0
 38 34  2  0  0  0  0
 39 35  2  0  0  0  0
 40 38  1  0  0  0  0
 41 42  1  0  0  0  0
 43 41  2  0  0  0  0
M  END
>  <MODEL>
5

>  <REMARK>
 VINA RESULT:      -4.1      3.971      7.816
  Name = 
  6 active torsions:
  status: ('A' for Active; 'I' for Inactive)
    1  A    between atoms: C_3  and  C_27
    2  A    between atoms: C_3  and  C_40
    3  A    between atoms: C_15  and  C_34
    4  A    between atoms: C_17  and  N_30
    5  A    between atoms: C_21  and  C_26
    6  A    between atoms: C_25  and  C_36
                            x       y       z     vdW  Elec       q    Type
                         _______ _______ _______ _____ _____    ______ ____

>  <TORSDO>
F 6

$$$$
=
 OpenBabel11072413383D

 43 49  0  0  1  0  0  0  0  0999 V2000
  161.3860  205.9670  153.9480 C   0  0  0  0  0  2  0  0  0  0  0  0
  159.5040  208.6180  155.8740 C   0  0  0  0  0  3  0  0  0  0  0  0
  161.2190  208.5280  153.7150 C   0  0  0  0  0  0  0  0  0  0  0  0
  162.0110  208.6030  152.4580 C   0  0  1  0  0  3  0  0  0  0  0  0
  159.7070  209.7310  155.1110 N   0  0  0  0  0  0  0  0  0  0  0  0
  160.1080  207.4000  155.5290 C   0  0  0  0  0  3  0  0  0  0  0  0
  161.4920  207.6600  151.5690 O   0  0  0  0  0  0  0  0  0  0  0  0
  161.8520  210.2890  151.7690 S   0  0  0  0  0  0  0  0  0  0  0  0
  162.3220  206.5190  151.5900 C   0  0  1  0  0  3  0  0  0  0  0  0
  162.5890  205.9390  152.9990 C   0  0  0  0  0  2  0  0  0  0  0  0
  159.6490  211.5170  152.8270 N   0  0  0  0  0  0  0  0  0  0  0  0
  160.5590  209.6880  154.0550 C   0  0  0  0  0  0  0  0  0  0  0  0
  160.6420  210.7060  153.0310 C   0  0  0  0  0  0  0  0  0  0  0  0
  160.9770  207.3390  154.4330 C   0  0  0  0  0  0  0  0  0  0  0  0
  161.9490  205.9890  149.0890 C   0  0  1  0  0  3  0  0  0  0  0  0
  160.7400  206.8170  148.9620 C   0  0  2  0  0  3  0  0  0  0  0  0
  163.0290  206.8290  148.4690 C   0  0  0  0  0  2  0  0  0  0  0  0
  160.2820  206.2820  146.6700 O   0  0  0  0  0  1  0  0  0  0  0  0
  161.9040  205.4740  150.5170 C   0  0  2  0  0  3  0  0  0  0  0  0
  159.6650  205.9200  149.5210 C   0  0  0  0  0  2  0  0  0  0  0  0
  160.7800  207.2690  147.5230 C   0  0  2  0  0  3  0  0  0  0  0  0
  160.4000  205.0940  150.6030 C   0  0  1  0  0  3  0  0  0  0  0  0
  162.2880  207.4580  147.2780 C   0  0  0  0  0  2  0  0  0  0  0  0
  160.1680  203.6350  150.3050 C   0  0  0  0  0  0  0  0  0  0  0  0
  159.0650  203.1460  150.5140 O   0  0  0  0  0  0  0  0  0  0  0  0
  161.3830  203.2360  148.1570 C   0  0  0  0  0  2  0  0  0  0  0  0
  161.2220  200.8230  147.3830 C   0  0  0  0  0  2  0  0  0  0  0  0
  161.8150  200.5390  148.7720 C   0  0  0  0  0  2  0  0  0  0  0  0
  161.0910  201.3260  149.8530 C   0  0  0  0  0  2  0  0  0  0  0  0
  160.6900  202.2600  147.2100 C   0  0  2  0  0  3  0  0  0  0  0  0
  161.2370  202.8350  149.6260 C   0  0  2  0  0  3  0  0  0  0  0  0
  162.0170  203.7490  145.6860 C   0  0  0  0  0  1  0  0  0  0  0  0
  160.8930  202.7410  145.7850 C   0  0  0  0  0  2  0  0  0  0  0  0
  159.1270  213.8010  149.3050 C   0  0  0  0  0  3  0  0  0  0  0  0
  158.0460  213.5410  150.1400 C   0  0  0  0  0  0  0  0  0  0  0  0
  159.4920  212.2950  151.6370 C   0  0  0  0  0  0  0  0  0  0  0  0
  156.6820  214.0140  149.7750 C   0  0  0  0  0  1  0  0  0  0  0  0
  160.3950  213.2850  149.6120 C   0  0  0  0  0  0  0  0  0  0  0  0
  158.2290  212.8020  151.3120 C   0  0  0  0  0  3  0  0  0  0  0  0
  160.5680  212.5120  150.7720 C   0  0  0  0  0  3  0  0  0  0  0  0
  161.4940  213.4390  148.6500 C   0  0  0  0  0  0  0  0  0  0  0  0
  162.4430  212.4330  148.5120 O   0  0  0  0  0  1  0  0  0  0  0  0
  161.5310  214.4530  147.8910 O   0  0  0  0  0  0  0  0  0  0  0  0
  1 14  1  0  0  0  0
  3 12  2  0  0  0  0
  3 14  1  0  0  0  0
  4  7  1  6  0  0  0
  4  3  1  0  0  0  0
  5  2  2  0  0  0  0
  6  2  1  0  0  0  0
  7  9  1  0  0  0  0
  8  4  1  0  0  0  0
  8 13  1  0  0  0  0
  9 10  1  1  0  0  0
 10  1  1  0  0  0  0
 11 13  2  0  0  0  0
 12  5  1  0  0  0  0
 13 12  1  0  0  0  0
 14  6  2  0  0  0  0
 15 17  1  1  0  0  0
 15 19  1  0  0  0  0
 16 15  1  0  0  0  0
 16 20  1  6  0  0  0
 19 22  1  0  0  0  0
 19  9  1  1  0  0  0
 20 22  1  0  0  0  0
 21 18  1  6  0  0  0
 21 16  1  0  0  0  0
 22 24  1  6  0  0  0
 23 21  1  0  0  0  0
 23 17  1  0  0  0  0
 24 25  2  0  0  0  0
 26 31  1  0  0  0  0
 27 28  1  0  0  0  0
 28 29  1  0  0  0  0
 30 33  1  6  0  0  0
 30 27  1  0  0  0  0
 30 26  1  0  0  0  0
 31 29  1  0  0  0  0
 31 24  1  6  0  0  0
 32 33  1  0  0  0  0
 34 38  2  0  0  0  0
 34 35  1  0  0  0  0
 35 39  2  0  0  0  0
 36 11  1  0  0  0  0
 37 35  1  0  0  0  0
 38 40  1  0  0  0  0
 39 36  1  0  0  0  0
 40 36  2  0  0  0  0
 41 38  1  0  0  0  0
 42 41  1  0  0  0  0
 43 41  2  0  0  0  0
M  END
>  <MODEL>
6

>  <REMARK>
 VINA RESULT:      -4.1      1.315      1.917
  Name = 
  6 active torsions:
  status: ('A' for Active; 'I' for Inactive)
    1  A    between atoms: C_3  and  C_27
    2  A    between atoms: C_3  and  C_40
    3  A    between atoms: C_15  and  C_34
    4  A    between atoms: C_17  and  N_30
    5  A    between atoms: C_21  and  C_26
    6  A    between atoms: C_25  and  C_36
                            x       y       z     vdW  Elec       q    Type
                         _______ _______ _______ _____ _____    ______ ____

>  <TORSDO>
F 6

$$$$
=
 OpenBabel11072413383D

 43 49  0  0  1  0  0  0  0  0999 V2000
  161.5290  211.8080  151.5890 C   0  0  0  0  0  2  0  0  0  0  0  0
  161.2640  210.7030  147.9850 C   0  0  0  0  0  3  0  0  0  0  0  0
  162.1180  209.6140  150.3710 C   0  0  0  0  0  0  0  0  0  0  0  0
  162.4690  208.8630  151.6070 C   0  0  1  0  0  3  0  0  0  0  0  0
  161.5650  209.3740  148.0650 N   0  0  0  0  0  0  0  0  0  0  0  0
  161.3160  211.5140  149.1280 C   0  0  0  0  0  3  0  0  0  0  0  0
  161.4340  209.0420  152.5250 O   0  0  0  0  0  0  0  0  0  0  0  0
  162.6490  207.0940  151.1800 S   0  0  0  0  0  0  0  0  0  0  0  0
  161.8250  210.0280  153.4560 C   0  0  1  0  0  3  0  0  0  0  0  0
  162.3110  211.3550  152.8270 C   0  0  0  0  0  2  0  0  0  0  0  0
  161.3800  206.5790  148.8120 N   0  0  0  0  0  0  0  0  0  0  0  0
  161.9940  208.8420  149.2380 C   0  0  0  0  0  0  0  0  0  0  0  0
  162.0780  207.4240  149.5080 C   0  0  0  0  0  0  0  0  0  0  0  0
  161.7430  210.9730  150.3470 C   0  0  0  0  0  0  0  0  0  0  0  0
  160.9490  209.1790  155.7330 C   0  0  1  0  0  3  0  0  0  0  0  0
  160.3740  207.9380  155.1950 C   0  0  2  0  0  3  0  0  0  0  0  0
  162.2340  208.7360  156.3710 C   0  0  0  0  0  2  0  0  0  0  0  0
  159.4470  207.1470  157.2600 O   0  0  0  0  0  1  0  0  0  0  0  0
  160.7920  210.1860  154.6070 C   0  0  2  0  0  3  0  0  0  0  0  0
  159.0550  208.4010  154.6310 C   0  0  0  0  0  2  0  0  0  0  0  0
  160.4910  206.9730  156.3490 C   0  0  2  0  0  3  0  0  0  0  0  0
  159.3420  209.8470  154.1630 C   0  0  1  0  0  3  0  0  0  0  0  0
  161.8230  207.3930  156.9960 C   0  0  0  0  0  2  0  0  0  0  0  0
  158.3270  210.7520  154.8140 C   0  0  0  0  0  0  0  0  0  0  0  0
  157.6280  210.3170  155.7220 O   0  0  0  0  0  0  0  0  0  0  0  0
  157.2310  212.9510  155.2740 C   0  0  0  0  0  2  0  0  0  0  0  0
  156.1790  213.9670  153.1980 C   0  0  0  0  0  2  0  0  0  0  0  0
  157.6020  213.8160  152.6380 C   0  0  0  0  0  2  0  0  0  0  0  0
  158.1700  212.4370  152.9370 C   0  0  0  0  0  2  0  0  0  0  0  0
  155.9340  213.1850  154.5050 C   0  0  2  0  0  3  0  0  0  0  0  0
  158.2790  212.2030  154.4480 C   0  0  2  0  0  3  0  0  0  0  0  0
  155.0380  213.4440  156.8350 C   0  0  0  0  0  1  0  0  0  0  0  0
  154.9650  213.9310  155.4050 C   0  0  0  0  0  2  0  0  0  0  0  0
  160.6390  202.6150  150.0900 C   0  0  0  0  0  3  0  0  0  0  0  0
  160.6930  203.6520  151.0150 C   0  0  0  0  0  0  0  0  0  0  0  0
  161.1220  205.2340  149.2260 C   0  0  0  0  0  0  0  0  0  0  0  0
  160.5470  203.3710  152.4690 C   0  0  0  0  0  1  0  0  0  0  0  0
  160.8570  202.8720  148.7280 C   0  0  0  0  0  0  0  0  0  0  0  0
  160.9190  204.9620  150.5830 C   0  0  0  0  0  3  0  0  0  0  0  0
  161.1210  204.1840  148.3020 C   0  0  0  0  0  3  0  0  0  0  0  0
  160.9460  201.7520  147.7820 C   0  0  0  0  0  0  0  0  0  0  0  0
  160.8270  201.9840  146.4170 O   0  0  0  0  0  0  0  0  0  0  0  0
  161.2100  200.5880  148.2070 O   0  0  0  0  0  1  0  0  0  0  0  0
  1 10  1  0  0  0  0
  2  5  2  0  0  0  0
  2  6  1  0  0  0  0
  4  3  1  6  0  0  0
  4  7  1  0  0  0  0
  5 12  1  0  0  0  0
  6 14  2  0  0  0  0
  7  9  1  0  0  0  0
  8  4  1  0  0  0  0
  9 10  1  6  0  0  0
 11 36  1  0  0  0  0
 11 13  2  0  0  0  0
 12 13  1  0  0  0  0
 12  3  2  0  0  0  0
 13  8  1  0  0  0  0
 14  3  1  0  0  0  0
 14  1  1  0  0  0  0
 15 17  1  6  0  0  0
 16 20  1  1  0  0  0
 16 15  1  0  0  0  0
 16 21  1  0  0  0  0
 17 23  1  0  0  0  0
 19  9  1  6  0  0  0
 19 15  1  0  0  0  0
 21 23  1  0  0  0  0
 21 18  1  1  0  0  0
 22 19  1  0  0  0  0
 22 20  1  0  0  0  0
 22 24  1  1  0  0  0
 24 25  2  0  0  0  0
 27 30  1  0  0  0  0
 28 29  1  0  0  0  0
 28 27  1  0  0  0  0
 29 31  1  0  0  0  0
 30 26  1  0  0  0  0
 30 33  1  1  0  0  0
 31 24  1  6  0  0  0
 31 26  1  0  0  0  0
 33 32  1  0  0  0  0
 34 35  1  0  0  0  0
 35 37  1  0  0  0  0
 36 39  1  0  0  0  0
 38 34  2  0  0  0  0
 39 35  2  0  0  0  0
 40 38  1  0  0  0  0
 40 36  2  0  0  0  0
 41 43  1  0  0  0  0
 41 38  1  0  0  0  0
 42 41  2  0  0  0  0
M  END
>  <MODEL>
7

>  <REMARK>
 VINA RESULT:      -3.5      3.063      9.605
  Name = 
  6 active torsions:
  status: ('A' for Active; 'I' for Inactive)
    1  A    between atoms: C_3  and  C_27
    2  A    between atoms: C_3  and  C_40
    3  A    between atoms: C_15  and  C_34
    4  A    between atoms: C_17  and  N_30
    5  A    between atoms: C_21  and  C_26
    6  A    between atoms: C_25  and  C_36
                            x       y       z     vdW  Elec       q    Type
                         _______ _______ _______ _____ _____    ______ ____

>  <TORSDO>
F 6

$$$$
