=
 OpenBabel11072414493D

 47 54  0  0  1  0  0  0  0  0999 V2000
  161.7870  206.7140  150.2450 N   0  0  0  0  0  0  0  0  0  0  0  0
  162.7240  210.0560  152.7490 C   0  0  0  0  0  2  0  0  0  0  0  0
  159.2860  211.6970  150.9770 C   0  0  1  0  0  3  0  0  0  0  0  0
  159.4200  210.1760  150.9860 C   0  0  0  0  0  2  0  0  0  0  0  0
  160.4100  209.6420  152.0350 C   0  0  1  0  0  0  0  0  0  0  0  0
  161.5260  207.3000  152.7080 C   0  0  0  0  0  2  0  0  0  0  0  0
  162.8550  211.4770  154.6600 O   0  0  0  0  0  1  0  0  0  0  0  0
  158.9150  211.1350  153.5210 C   0  0  1  0  0  3  0  0  0  0  0  0
  161.3000  210.6580  152.8690 C   0  0  2  0  0  0  0  0  0  0  0  0
  161.5780  214.4490  149.4430 C   0  0  0  0  0  2  0  0  0  0  0  0
  162.9920  208.1210  148.6060 C   0  0  0  0  0  2  0  0  0  0  0  0
  158.8260  212.1960  152.3720 C   0  0  1  0  0  3  0  0  0  0  0  0
  160.0070  210.0440  153.4170 C   0  0  2  0  0  3  0  0  0  0  0  0
  162.8820  211.4040  147.6150 O   0  0  0  0  0  0  0  0  0  0  0  0
  161.1010  211.5640  149.2110 C   0  0  0  0  0  2  0  0  0  0  0  0
  162.4470  212.1080  148.7490 C   0  0  2  0  0  3  0  0  0  0  0  0
  160.2840  213.7840  149.9310 C   0  0  0  0  0  2  0  0  0  0  0  0
  162.7720  214.0690  147.4390 O   0  0  0  0  0  0  0  0  0  0  0  0
  162.2200  210.3780  154.0860 C   0  0  0  0  0  0  0  0  0  0  0  0
  161.8480  207.7630  151.2910 C   0  0  2  0  0  3  0  0  0  0  0  0
  163.4820  210.2270  148.0880 C   0  0  0  0  0  2  0  0  0  0  0  0
  161.6880  207.4140  148.9640 C   0  0  0  0  0  2  0  0  0  0  0  0
  162.2880  213.5750  148.4450 C   0  0  0  0  0  0  0  0  0  0  0  0
  162.0740  209.2440  154.8930 O   0  0  0  0  0  1  0  0  0  0  0  0
  162.7340  209.1220  147.6690 O   0  0  0  0  0  0  0  0  0  0  0  0
  160.5590  212.3600  150.4040 C   0  0  1  0  0  3  0  0  0  0  0  0
  160.4960  208.1090  151.9200 C   0  0  2  0  0  3  0  0  0  0  0  0
  160.7970  212.1130  157.2540 C   0  0  0  0  0  1  0  0  0  0  0  0
  159.7750  213.0200  156.5820 C   0  0  0  0  0  0  0  0  0  0  0  0
  158.8160  211.6610  154.9560 C   0  0  2  0  0  3  0  0  0  0  0  0
  157.4560  213.1490  156.3760 C   0  0  2  0  0  3  0  0  0  0  0  0
  157.3860  212.0710  155.3050 C   0  0  0  0  0  2  0  0  0  0  0  0
  158.5270  212.8780  157.2600 O   0  0  0  0  0  0  0  0  0  0  0  0
  160.2560  214.4530  156.7450 C   0  0  0  0  0  1  0  0  0  0  0  0
  159.7200  212.7220  155.1870 O   0  0  0  0  0  0  0  0  0  0  0  0
  156.1530  213.1460  157.1620 C   0  0  0  0  0  2  0  0  0  0  0  0
  155.1100  212.7030  156.3490 O   0  0  0  0  0  1  0  0  0  0  0  0
  158.3510  214.2410  152.8710 F   0  0  0  0  0  0  0  0  0  0  0  0
  159.3930  213.4350  152.7090 O   0  0  0  0  0  0  0  0  0  0  0  0
  160.6170  205.8390  150.3220 C   0  0  0  0  0  2  0  0  0  0  0  0
  161.0470  204.3860  150.3070 C   0  0  0  0  0  2  0  0  0  0  0  0
  161.7090  204.1730  147.8900 C   0  0  0  0  0  2  0  0  0  0  0  0
  160.6580  202.3020  149.0660 N   0  0  0  0  0  2  0  0  0  0  0  0
  160.7020  203.7620  148.9640 C   0  0  1  0  0  3  0  0  0  0  0  0
  161.2860  203.5230  146.5750 C   0  0  0  0  0  2  0  0  0  0  0  0
  160.8490  201.4770  147.9080 C   0  0  0  0  0  3  0  0  0  0  0  0
  161.1620  202.0290  146.7290 C   0  0  0  0  0  3  0  0  0  0  0  0
  1 40  1  0  0  0  0
  1 20  1  0  0  0  0
  2 19  1  0  0  0  0
  3  4  1  1  0  0  0
  3 12  1  0  0  0  0
  5  4  1  6  0  0  0
  5  9  1  0  0  0  0
  5 13  1  0  0  0  0
  8 30  1  1  0  0  0
  9  2  1  6  0  0  0
  9 13  1  0  0  0  0
  9 19  1  0  0  0  0
 10 17  1  0  0  0  0
 11 22  1  0  0  0  0
 12 39  1  1  0  0  0
 12  8  1  0  0  0  0
 13  8  1  0  0  0  0
 14 21  1  0  0  0  0
 14 16  1  0  0  0  0
 15 26  1  0  0  0  0
 16 15  1  0  0  0  0
 17 26  1  0  0  0  0
 18 23  2  0  0  0  0
 19  7  1  0  0  0  0
 19 24  1  0  0  0  0
 20 27  1  0  0  0  0
 20  6  1  0  0  0  0
 22  1  1  0  0  0  0
 23 16  1  0  0  0  0
 23 10  1  0  0  0  0
 25 21  1  0  0  0  0
 25 11  1  0  0  0  0
 26  3  1  0  0  0  0
 27  5  1  0  0  0  0
 27  6  1  0  0  0  0
 29 34  1  0  0  0  0
 29 28  1  0  0  0  0
 29 33  1  0  0  0  0
 30 35  1  0  0  0  0
 30 32  1  0  0  0  0
 31 36  1  0  0  0  0
 31 33  1  0  0  0  0
 32 31  1  0  0  0  0
 35 29  1  0  0  0  0
 37 36  1  0  0  0  0
 39 38  1  0  0  0  0
 41 40  1  0  0  0  0
 42 44  1  0  0  0  0
 44 43  1  0  0  0  0
 44 41  1  0  0  0  0
 45 47  1  0  0  0  0
 45 42  1  0  0  0  0
 46 43  1  0  0  0  0
 47 46  2  0  0  0  0
M  END
>  <MODEL>
1

>  <REMARK>
 VINA RESULT:       2.7      0.000      0.000
  Name = 
  6 active torsions:
  status: ('A' for Active; 'I' for Inactive)
    1  A    between atoms: N_2  and  C_18
    2  A    between atoms: C_5  and  C_15
    3  A    between atoms: C_9  and  C_16
    4  A    between atoms: C_18  and  C_24
    5  A    between atoms: C_19  and  C_24
    6  A    between atoms: C_23  and  O_33
                            x       y       z     vdW  Elec       q    Type
                         _______ _______ _______ _____ _____    ______ ____

>  <TORSDO>
F 6

$$$$
=
 OpenBabel11072414493D

 47 54  0  0  1  0  0  0  0  0999 V2000
  162.1180  210.8570  148.2780 N   0  0  0  0  0  0  0  0  0  0  0  0
  159.0900  210.0680  151.1980 C   0  0  0  0  0  2  0  0  0  0  0  0
  162.3090  208.4390  153.3510 C   0  0  1  0  0  3  0  0  0  0  0  0
  162.6290  209.4710  152.2730 C   0  0  0  0  0  2  0  0  0  0  0  0
  161.4340  210.3540  151.8770 C   0  0  1  0  0  0  0  0  0  0  0  0
  160.8510  212.2040  150.0270 C   0  0  0  0  0  2  0  0  0  0  0  0
  157.5660  210.3710  153.0070 O   0  0  0  0  0  1  0  0  0  0  0  0
  161.4130  210.6600  154.4410 C   0  0  1  0  0  3  0  0  0  0  0  0
  159.9910  210.0350  152.4590 C   0  0  2  0  0  0  0  0  0  0  0  0
  160.5140  204.9880  153.1260 C   0  0  0  0  0  2  0  0  0  0  0  0
  161.6290  208.4970  147.7230 C   0  0  0  0  0  2  0  0  0  0  0  0
  161.7930  209.1520  154.6280 C   0  0  1  0  0  3  0  0  0  0  0  0
  160.9060  211.1130  153.0520 C   0  0  2  0  0  3  0  0  0  0  0  0
  161.3110  205.5630  149.4720 O   0  0  0  0  0  0  0  0  0  0  0  0
  161.8380  206.9300  151.3690 C   0  0  0  0  0  2  0  0  0  0  0  0
  160.8550  205.9480  150.7420 C   0  0  2  0  0  3  0  0  0  0  0  0
  161.4760  206.0600  153.6550 C   0  0  0  0  0  2  0  0  0  0  0  0
  160.7350  203.6180  151.2130 O   0  0  0  0  0  0  0  0  0  0  0  0
  158.6900  210.8720  152.3540 C   0  0  0  0  0  0  0  0  0  0  0  0
  161.2160  210.8380  149.4540 C   0  0  2  0  0  3  0  0  0  0  0  0
  160.9150  206.5770  148.5870 C   0  0  0  0  0  2  0  0  0  0  0  0
  162.6800  209.5110  148.1670 C   0  0  0  0  0  2  0  0  0  0  0  0
  160.7260  204.7560  151.6540 C   0  0  0  0  0  0  0  0  0  0  0  0
  158.7000  212.2450  152.0820 O   0  0  0  0  0  1  0  0  0  0  0  0
  162.0480  207.2130  148.0710 O   0  0  0  0  0  0  0  0  0  0  0  0
  161.4100  207.3140  152.7900 C   0  0  1  0  0  3  0  0  0  0  0  0
  161.8620  211.3190  150.7560 C   0  0  2  0  0  3  0  0  0  0  0  0
  160.8120  213.8420  157.2610 C   0  0  0  0  0  1  0  0  0  0  0  0
  159.6900  213.2810  156.3980 C   0  0  0  0  0  0  0  0  0  0  0  0
  160.5790  211.3050  155.5530 C   0  0  2  0  0  3  0  0  0  0  0  0
  158.2680  211.4340  156.4040 C   0  0  2  0  0  3  0  0  0  0  0  0
  159.3260  210.4860  155.8600 C   0  0  0  0  0  2  0  0  0  0  0  0
  158.8800  212.4270  157.2040 O   0  0  0  0  0  0  0  0  0  0  0  0
  158.8430  214.4530  155.9290 C   0  0  0  0  0  1  0  0  0  0  0  0
  160.2480  212.6440  155.2480 O   0  0  0  0  0  0  0  0  0  0  0  0
  157.2910  210.6410  157.2600 C   0  0  0  0  0  2  0  0  0  0  0  0
  155.9850  210.8860  156.8380 O   0  0  0  0  0  1  0  0  0  0  0  0
  161.4780  207.7350  156.2260 F   0  0  0  0  0  0  0  0  0  0  0  0
  160.8090  208.4050  155.2960 O   0  0  0  0  0  0  0  0  0  0  0  0
  163.2600  211.7650  148.3960 C   0  0  0  0  0  2  0  0  0  0  0  0
  163.0110  213.0270  147.5960 C   0  0  0  0  0  2  0  0  0  0  0  0
  160.8400  214.2640  147.3100 C   0  0  0  0  0  2  0  0  0  0  0  0
  161.6840  212.7980  145.5420 N   0  0  0  0  0  2  0  0  0  0  0  0
  161.6170  212.9860  146.9920 C   0  0  1  0  0  3  0  0  0  0  0  0
  159.4520  214.1390  146.6870 C   0  0  0  0  0  2  0  0  0  0  0  0
  160.6010  213.2100  144.6950 C   0  0  0  0  0  3  0  0  0  0  0  0
  159.5490  213.8580  145.2100 C   0  0  0  0  0  3  0  0  0  0  0  0
  1 40  1  0  0  0  0
  1 20  1  0  0  0  0
  2 19  1  0  0  0  0
  3  4  1  6  0  0  0
  3 12  1  0  0  0  0
  5  4  1  1  0  0  0
  5  9  1  0  0  0  0
  5 13  1  0  0  0  0
  6 27  1  0  0  0  0
  8 12  1  0  0  0  0
  8 30  1  1  0  0  0
  9  2  1  1  0  0  0
  9 13  1  0  0  0  0
 10 17  1  0  0  0  0
 11 25  1  0  0  0  0
 11 22  1  0  0  0  0
 12 39  1  6  0  0  0
 13  8  1  0  0  0  0
 14 16  1  0  0  0  0
 15 26  1  0  0  0  0
 16 15  1  0  0  0  0
 16 23  1  0  0  0  0
 18 23  2  0  0  0  0
 19  9  1  0  0  0  0
 19  7  1  0  0  0  0
 20  6  1  0  0  0  0
 20 27  1  0  0  0  0
 21 14  1  0  0  0  0
 22  1  1  0  0  0  0
 23 10  1  0  0  0  0
 24 19  1  0  0  0  0
 25 21  1  0  0  0  0
 26  3  1  0  0  0  0
 26 17  1  0  0  0  0
 27  5  1  0  0  0  0
 29 33  1  0  0  0  0
 29 28  1  0  0  0  0
 30 32  1  0  0  0  0
 31 33  1  0  0  0  0
 31 36  1  0  0  0  0
 32 31  1  0  0  0  0
 34 29  1  0  0  0  0
 35 30  1  0  0  0  0
 35 29  1  0  0  0  0
 37 36  1  0  0  0  0
 39 38  1  0  0  0  0
 41 40  1  0  0  0  0
 43 44  1  0  0  0  0
 44 42  1  0  0  0  0
 44 41  1  0  0  0  0
 45 42  1  0  0  0  0
 46 47  2  0  0  0  0
 46 43  1  0  0  0  0
 47 45  1  0  0  0  0
M  END
>  <MODEL>
2

>  <REMARK>
 VINA RESULT:       4.8      2.810      6.198
  Name = 
  6 active torsions:
  status: ('A' for Active; 'I' for Inactive)
    1  A    between atoms: N_2  and  C_18
    2  A    between atoms: C_5  and  C_15
    3  A    between atoms: C_9  and  C_16
    4  A    between atoms: C_18  and  C_24
    5  A    between atoms: C_19  and  C_24
    6  A    between atoms: C_23  and  O_33
                            x       y       z     vdW  Elec       q    Type
                         _______ _______ _______ _____ _____    ______ ____

>  <TORSDO>
F 6

$$$$
=
 OpenBabel11072414493D

 47 54  0  0  1  0  0  0  0  0999 V2000
  162.3690  210.8150  157.2080 N   0  0  0  0  0  0  0  0  0  0  0  0
  159.9490  208.5110  154.5340 C   0  0  0  0  0  2  0  0  0  0  0  0
  161.6110  211.0650  151.6430 C   0  0  1  0  0  3  0  0  0  0  0  0
  162.3780  210.8830  152.9500 C   0  0  0  0  0  2  0  0  0  0  0  0
  161.9910  209.6160  153.7310 C   0  0  1  0  0  0  0  0  0  0  0  0
  162.5010  208.5170  156.1220 C   0  0  0  0  0  2  0  0  0  0  0  0
  159.2250  206.7570  153.0890 O   0  0  0  0  0  1  0  0  0  0  0  0
  162.5010  208.5990  151.4130 C   0  0  1  0  0  3  0  0  0  0  0  0
  160.7710  208.7280  153.2380 C   0  0  2  0  0  0  0  0  0  0  0  0
  158.0090  212.3850  150.9600 C   0  0  0  0  0  2  0  0  0  0  0  0
  160.4120  212.3170  157.0400 C   0  0  0  0  0  2  0  0  0  0  0  0
  161.8430  209.8410  150.7190 C   0  0  1  0  0  3  0  0  0  0  0  0
  162.2310  208.3840  152.9200 C   0  0  2  0  0  3  0  0  0  0  0  0
  158.5110  213.6230  154.5000 O   0  0  0  0  0  0  0  0  0  0  0  0
  160.0310  212.4250  153.0860 C   0  0  0  0  0  2  0  0  0  0  0  0
  158.5770  212.6680  153.4730 C   0  0  2  0  0  3  0  0  0  0  0  0
  159.4930  212.0940  150.6950 C   0  0  0  0  0  2  0  0  0  0  0  0
  157.0500  214.0730  152.3070 O   0  0  0  0  0  0  0  0  0  0  0  0
  160.3120  207.3350  153.7410 C   0  0  0  0  0  0  0  0  0  0  0  0
  161.8260  209.8820  156.1920 C   0  0  2  0  0  3  0  0  0  0  0  0
  158.7500  212.9310  155.6970 C   0  0  0  0  0  2  0  0  0  0  0  0
  161.9150  212.1510  156.8280 C   0  0  0  0  0  2  0  0  0  0  0  0
  157.8310  213.1370  152.2510 C   0  0  0  0  0  0  0  0  0  0  0  0
  161.1670  206.4660  154.4300 O   0  0  0  0  0  1  0  0  0  0  0  0
  159.9480  213.3780  156.2620 O   0  0  0  0  0  0  0  0  0  0  0  0
  160.1370  211.4420  151.9140 C   0  0  1  0  0  3  0  0  0  0  0  0
  162.7900  209.5640  155.0460 C   0  0  2  0  0  3  0  0  0  0  0  0
  161.8740  204.3520  151.4300 C   0  0  0  0  0  1  0  0  0  0  0  0
  161.2690  205.2710  150.3780 C   0  0  0  0  0  0  0  0  0  0  0  0
  162.4280  207.2680  150.6580 C   0  0  2  0  0  3  0  0  0  0  0  0
  161.9550  206.3400  148.4230 C   0  0  2  0  0  3  0  0  0  0  0  0
  162.6750  207.4580  149.1620 C   0  0  0  0  0  2  0  0  0  0  0  0
  162.0260  205.1440  149.1750 O   0  0  0  0  0  0  0  0  0  0  0  0
  159.8510  204.7930  150.1120 C   0  0  0  0  0  1  0  0  0  0  0  0
  161.2040  206.6020  150.8910 O   0  0  0  0  0  0  0  0  0  0  0  0
  162.6350  206.1220  147.0790 C   0  0  0  0  0  2  0  0  0  0  0  0
  161.7090  206.2750  146.0490 O   0  0  0  0  0  1  0  0  0  0  0  0
  161.0480  209.8170  148.7130 F   0  0  0  0  0  0  0  0  0  0  0  0
  160.7060  209.5220  149.9600 O   0  0  0  0  0  0  0  0  0  0  0  0
  163.8300  210.8820  157.2610 C   0  0  0  0  0  2  0  0  0  0  0  0
  164.2900  212.3250  157.2610 C   0  0  0  0  0  2  0  0  0  0  0  0
  165.9840  212.1310  155.4130 C   0  0  0  0  0  2  0  0  0  0  0  0
  166.3260  213.6990  157.2600 N   0  0  0  0  0  2  0  0  0  0  0  0
  165.7650  212.3940  156.9030 C   0  0  1  0  0  3  0  0  0  0  0  0
  167.4840  212.2010  155.1380 C   0  0  0  0  0  2  0  0  0  0  0  0
  167.5020  214.1990  156.6090 C   0  0  0  0  0  3  0  0  0  0  0  0
  168.0540  213.5190  155.5960 C   0  0  0  0  0  3  0  0  0  0  0  0
  1 40  1  0  0  0  0
  3 26  1  0  0  0  0
  3  4  1  1  0  0  0
  5  4  1  6  0  0  0
  5 27  1  0  0  0  0
  6 20  1  0  0  0  0
  7 19  1  0  0  0  0
  8 30  1  6  0  0  0
  8 13  1  0  0  0  0
  9  5  1  0  0  0  0
  9 19  1  0  0  0  0
  9  2  1  6  0  0  0
 10 23  1  0  0  0  0
 12 39  1  1  0  0  0
 12  8  1  0  0  0  0
 12  3  1  0  0  0  0
 13  9  1  0  0  0  0
 13  5  1  0  0  0  0
 14 21  1  0  0  0  0
 15 16  1  0  0  0  0
 16 14  1  0  0  0  0
 17 10  1  0  0  0  0
 17 26  1  0  0  0  0
 19 24  1  0  0  0  0
 19  2  1  0  0  0  0
 20  1  1  0  0  0  0
 21 25  1  0  0  0  0
 22 11  1  0  0  0  0
 22  1  1  0  0  0  0
 23 18  2  0  0  0  0
 23 16  1  0  0  0  0
 25 11  1  0  0  0  0
 26 15  1  0  0  0  0
 27  6  1  0  0  0  0
 27 20  1  0  0  0  0
 29 35  1  0  0  0  0
 29 28  1  0  0  0  0
 30 35  1  0  0  0  0
 31 32  1  0  0  0  0
 31 33  1  0  0  0  0
 32 30  1  0  0  0  0
 33 29  1  0  0  0  0
 34 29  1  0  0  0  0
 36 31  1  0  0  0  0
 37 36  1  0  0  0  0
 38 39  1  0  0  0  0
 40 41  1  0  0  0  0
 42 44  1  0  0  0  0
 44 43  1  0  0  0  0
 44 41  1  0  0  0  0
 45 42  1  0  0  0  0
 45 47  1  0  0  0  0
 46 43  1  0  0  0  0
 47 46  2  0  0  0  0
M  END
>  <MODEL>
3

>  <REMARK>
 VINA RESULT:       5.2      3.503      8.752
  Name = 
  6 active torsions:
  status: ('A' for Active; 'I' for Inactive)
    1  A    between atoms: N_2  and  C_18
    2  A    between atoms: C_5  and  C_15
    3  A    between atoms: C_9  and  C_16
    4  A    between atoms: C_18  and  C_24
    5  A    between atoms: C_19  and  C_24
    6  A    between atoms: C_23  and  O_33
                            x       y       z     vdW  Elec       q    Type
                         _______ _______ _______ _____ _____    ______ ____

>  <TORSDO>
F 6

$$$$
