=
 OpenBabel11072411363D

 25 28  0  0  1  0  0  0  0  0999 V2000
  160.5210  208.0200  153.3000 C   0  0  0  0  0  2  0  0  0  0  0  0
  160.0180  210.2380  154.5630 C   0  0  1  0  0  3  0  0  0  0  0  0
  161.1930  209.7730  155.4340 C   0  0  2  0  0  3  0  0  0  0  0  0
  160.7470  209.9500  157.1820 S   0  0  0  0  0  1  0  0  0  0  0  0
  162.9180  210.2420  153.7510 C   0  0  0  0  0  2  0  0  0  0  0  0
  162.4360  210.5920  155.1450 C   0  0  0  0  0  2  0  0  0  0  0  0
  161.8800  210.5920  152.6790 C   0  0  1  0  0  3  0  0  0  0  0  0
  162.0830  209.7620  151.4090 C   0  0  0  0  0  2  0  0  0  0  0  0
  162.2850  208.4060  151.7160 O   0  0  0  0  0  0  0  0  0  0  0  0
  160.3940  210.5890  153.1230 C   0  0  1  0  0  0  0  0  0  0  0  0
  159.6580  209.2820  153.4020 C   0  0  1  0  0  3  0  0  0  0  0  0
  161.0160  207.8290  151.8680 C   0  0  1  0  0  3  0  0  0  0  0  0
  159.5050  211.6540  152.5150 C   0  0  0  0  0  1  0  0  0  0  0  0
  161.0710  206.3720  151.5250 C   0  0  0  0  0  0  0  0  0  0  0  0
  161.2030  203.6430  151.0190 C   0  0  0  0  0  3  0  0  0  0  0  0
  161.0110  204.5260  149.9570 C   0  0  0  0  0  3  0  0  0  0  0  0
  161.2660  205.4500  152.5560 C   0  0  0  0  0  3  0  0  0  0  0  0
  160.9530  205.9060  150.2010 C   0  0  0  0  0  0  0  0  0  0  0  0
  161.3270  204.1180  152.2860 N   0  0  0  0  0  0  0  0  0  0  0  0
  160.7380  206.8200  149.1580 O   0  0  0  0  0  0  0  0  0  0  0  0
  162.5510  207.9170  148.2920 O   0  0  0  0  0  0  0  0  0  0  0  0
  161.6340  207.0730  148.1120 C   0  0  0  0  0  0  0  0  0  0  0  0
  162.5750  205.6350  146.4800 O   0  0  0  0  0  1  0  0  0  0  0  0
  161.5860  206.3250  146.8430 C   0  0  0  0  0  0  0  0  0  0  0  0
  160.4390  206.3380  146.0580 O   0  0  0  0  0  0  0  0  0  0  0  0
  1 11  1  0  0  0  0
  2  3  1  0  0  0  0
  3  4  1  0  0  0  0
  5  6  1  0  0  0  0
  6  3  1  0  0  0  0
  7 10  1  0  0  0  0
  7  5  1  0  0  0  0
  8  9  1  0  0  0  0
  8  7  1  0  0  0  0
  9 12  1  0  0  0  0
 10 11  1  0  0  0  0
 10  2  1  0  0  0  0
 11  2  1  0  0  0  0
 12  1  1  0  0  0  0
 13 10  1  0  0  0  0
 14 12  1  0  0  0  0
 14 17  1  0  0  0  0
 15 19  1  0  0  0  0
 16 18  1  0  0  0  0
 16 15  2  0  0  0  0
 18 14  2  0  0  0  0
 19 17  2  0  0  0  0
 20 18  1  0  0  0  0
 22 21  2  0  0  0  0
 22 20  1  0  0  0  0
 23 24  1  0  0  0  0
 24 22  1  0  0  0  0
 25 24  2  0  0  0  0
M  END
>  <MODEL>
1

>  <REMARK>
 VINA RESULT:      -6.5      0.000      0.000
  Name = 
  4 active torsions:
  status: ('A' for Active; 'I' for Inactive)
    1  A    between atoms: C_2  and  C_22
    2  A    between atoms: O_13  and  C_20
    3  A    between atoms: O_13  and  C_24
    4  A    between atoms: C_17  and  C_20
                            x       y       z     vdW  Elec       q    Type
                         _______ _______ _______ _____ _____    ______ ____

>  <TORSDO>
F 4

$$$$
=
 OpenBabel11072411363D

 25 28  0  0  1  0  0  0  0  0999 V2000
  160.9560  208.5930  153.0500 C   0  0  0  0  0  2  0  0  0  0  0  0
  160.8970  211.0420  153.9220 C   0  0  1  0  0  3  0  0  0  0  0  0
  159.3820  210.8000  153.9020 C   0  0  2  0  0  3  0  0  0  0  0  0
  158.5620  212.2130  153.1160 S   0  0  0  0  0  1  0  0  0  0  0  0
  159.3660  209.3080  155.8510 C   0  0  0  0  0  2  0  0  0  0  0  0
  158.8440  210.6230  155.3080 C   0  0  0  0  0  2  0  0  0  0  0  0
  160.8970  209.2900  155.9400 C   0  0  1  0  0  3  0  0  0  0  0  0
  161.4430  207.8600  155.9270 C   0  0  0  0  0  2  0  0  0  0  0  0
  160.8310  207.0930  154.9220 O   0  0  0  0  0  0  0  0  0  0  0  0
  161.6620  210.1960  154.9410 C   0  0  1  0  0  0  0  0  0  0  0  0
  161.7490  209.8370  153.4600 C   0  0  1  0  0  3  0  0  0  0  0  0
  161.5260  207.3500  153.7310 C   0  0  1  0  0  3  0  0  0  0  0  0
  162.9120  210.8730  155.4640 C   0  0  0  0  0  1  0  0  0  0  0  0
  161.4350  206.1660  152.8180 C   0  0  0  0  0  0  0  0  0  0  0  0
  161.2180  203.8960  151.2300 C   0  0  0  0  0  3  0  0  0  0  0  0
  161.8010  205.0470  150.7010 C   0  0  0  0  0  3  0  0  0  0  0  0
  160.8620  204.9890  153.3060 C   0  0  0  0  0  3  0  0  0  0  0  0
  161.9250  206.1940  151.4980 C   0  0  0  0  0  0  0  0  0  0  0  0
  160.7650  203.8900  152.5110 N   0  0  0  0  0  0  0  0  0  0  0  0
  162.4870  207.3760  150.9890 O   0  0  0  0  0  0  0  0  0  0  0  0
  162.0670  209.2880  149.8040 O   0  0  0  0  0  0  0  0  0  0  0  0
  162.0690  208.0290  149.8230 C   0  0  0  0  0  0  0  0  0  0  0  0
  162.5990  207.0140  147.7500 O   0  0  0  0  0  0  0  0  0  0  0  0
  161.7120  207.2920  148.5990 C   0  0  0  0  0  0  0  0  0  0  0  0
  160.4080  206.8610  148.3880 O   0  0  0  0  0  1  0  0  0  0  0  0
  1 11  1  0  0  0  0
  1 12  1  0  0  0  0
  2 10  1  0  0  0  0
  3  2  1  0  0  0  0
  3  6  1  0  0  0  0
  4  3  1  0  0  0  0
  5  7  1  0  0  0  0
  6  5  1  0  0  0  0
  8  7  1  0  0  0  0
  9  8  1  0  0  0  0
 10 13  1  0  0  0  0
 10  7  1  0  0  0  0
 11  2  1  0  0  0  0
 11 10  1  0  0  0  0
 12  9  1  0  0  0  0
 14 17  1  0  0  0  0
 14 12  1  0  0  0  0
 15 19  1  0  0  0  0
 16 15  2  0  0  0  0
 16 18  1  0  0  0  0
 18 14  2  0  0  0  0
 19 17  2  0  0  0  0
 20 18  1  0  0  0  0
 21 22  2  0  0  0  0
 22 20  1  0  0  0  0
 23 24  2  0  0  0  0
 24 22  1  0  0  0  0
 25 24  1  0  0  0  0
M  END
>  <MODEL>
2

>  <REMARK>
 VINA RESULT:      -5.9      1.712      2.748
  Name = 
  4 active torsions:
  status: ('A' for Active; 'I' for Inactive)
    1  A    between atoms: C_2  and  C_22
    2  A    between atoms: O_13  and  C_20
    3  A    between atoms: O_13  and  C_24
    4  A    between atoms: C_17  and  C_20
                            x       y       z     vdW  Elec       q    Type
                         _______ _______ _______ _____ _____    ______ ____

>  <TORSDO>
F 4

$$$$
=
 OpenBabel11072411363D

 25 28  0  0  1  0  0  0  0  0999 V2000
  161.4400  210.4610  153.6750 C   0  0  0  0  0  2  0  0  0  0  0  0
  161.3910  211.4010  156.1000 C   0  0  1  0  0  3  0  0  0  0  0  0
  159.9860  211.8520  155.6810 C   0  0  2  0  0  3  0  0  0  0  0  0
  159.7440  213.5810  156.1710 S   0  0  0  0  0  1  0  0  0  0  0  0
  159.0040  209.6030  155.7280 C   0  0  0  0  0  2  0  0  0  0  0  0
  158.9240  210.9900  156.3350 C   0  0  0  0  0  2  0  0  0  0  0  0
  160.3600  208.9380  155.9900 C   0  0  1  0  0  3  0  0  0  0  0  0
  160.6620  207.8510  154.9540 C   0  0  0  0  0  2  0  0  0  0  0  0
  160.3870  208.3020  153.6520 O   0  0  0  0  0  0  0  0  0  0  0  0
  161.5730  209.8840  156.1840 C   0  0  1  0  0  0  0  0  0  0  0  0
  162.1780  210.6420  155.0050 C   0  0  1  0  0  3  0  0  0  0  0  0
  161.5190  209.0060  153.2170 C   0  0  1  0  0  3  0  0  0  0  0  0
  162.6030  209.4610  157.2110 C   0  0  0  0  0  1  0  0  0  0  0  0
  161.6250  208.9340  151.7250 C   0  0  0  0  0  0  0  0  0  0  0  0
  161.8550  208.9320  148.9550 C   0  0  0  0  0  3  0  0  0  0  0  0
  161.4120  207.7800  149.6040 C   0  0  0  0  0  3  0  0  0  0  0  0
  162.0610  210.0650  151.0300 C   0  0  0  0  0  3  0  0  0  0  0  0
  161.2830  207.7750  151.0010 C   0  0  0  0  0  0  0  0  0  0  0  0
  162.1670  210.0420  149.6750 N   0  0  0  0  0  0  0  0  0  0  0  0
  160.8610  206.6250  151.6870 O   0  0  0  0  0  0  0  0  0  0  0  0
  162.5310  205.5570  152.8310 O   0  0  0  0  0  0  0  0  0  0  0  0
  161.6530  205.4960  151.9310 C   0  0  0  0  0  0  0  0  0  0  0  0
  161.2820  203.1570  151.8790 O   0  0  0  0  0  1  0  0  0  0  0  0
  161.4350  204.2220  151.2250 C   0  0  0  0  0  0  0  0  0  0  0  0
  161.3560  204.1870  149.8380 O   0  0  0  0  0  0  0  0  0  0  0  0
  1 11  1  0  0  0  0
  2 10  1  0  0  0  0
  3  2  1  0  0  0  0
  3  4  1  0  0  0  0
  3  6  1  0  0  0  0
  5  7  1  0  0  0  0
  5  6  1  0  0  0  0
  7 10  1  0  0  0  0
  8  7  1  0  0  0  0
  9  8  1  0  0  0  0
 10 13  1  0  0  0  0
 11  2  1  0  0  0  0
 11 10  1  0  0  0  0
 12  9  1  0  0  0  0
 12  1  1  0  0  0  0
 14 12  1  0  0  0  0
 15 16  2  0  0  0  0
 15 19  1  0  0  0  0
 16 18  1  0  0  0  0
 17 14  1  0  0  0  0
 18 20  1  0  0  0  0
 18 14  2  0  0  0  0
 19 17  2  0  0  0  0
 20 22  1  0  0  0  0
 22 21  2  0  0  0  0
 24 23  1  0  0  0  0
 24 22  1  0  0  0  0
 25 24  2  0  0  0  0
M  END
>  <MODEL>
3

>  <REMARK>
 VINA RESULT:      -5.9      2.546      4.110
  Name = 
  4 active torsions:
  status: ('A' for Active; 'I' for Inactive)
    1  A    between atoms: C_2  and  C_22
    2  A    between atoms: O_13  and  C_20
    3  A    between atoms: O_13  and  C_24
    4  A    between atoms: C_17  and  C_20
                            x       y       z     vdW  Elec       q    Type
                         _______ _______ _______ _____ _____    ______ ____

>  <TORSDO>
F 4

$$$$
=
 OpenBabel11072411363D

 25 28  0  0  1  0  0  0  0  0999 V2000
  161.4410  203.9280  148.1760 C   0  0  0  0  0  2  0  0  0  0  0  0
  161.8290  203.2030  145.7080 C   0  0  1  0  0  3  0  0  0  0  0  0
  160.2950  203.2120  145.6760 C   0  0  2  0  0  3  0  0  0  0  0  0
  159.7060  201.6900  144.8860 S   0  0  0  0  0  1  0  0  0  0  0  0
  160.0830  205.6570  145.7160 C   0  0  0  0  0  2  0  0  0  0  0  0
  159.7770  204.4120  144.9070 C   0  0  0  0  0  2  0  0  0  0  0  0
  161.5900  205.8570  145.9170 C   0  0  1  0  0  3  0  0  0  0  0  0
  161.8820  206.7200  147.1470 C   0  0  0  0  0  2  0  0  0  0  0  0
  161.1170  206.3070  148.2500 O   0  0  0  0  0  0  0  0  0  0  0  0
  162.4690  204.5790  145.9030 C   0  0  1  0  0  0  0  0  0  0  0  0
  162.4480  203.5960  147.0700 C   0  0  1  0  0  3  0  0  0  0  0  0
  161.8100  205.2460  148.8530 C   0  0  1  0  0  3  0  0  0  0  0  0
  163.8310  204.7030  145.2540 C   0  0  0  0  0  1  0  0  0  0  0  0
  161.4900  205.1900  150.3150 C   0  0  0  0  0  0  0  0  0  0  0  0
  160.8250  204.9720  153.0040 C   0  0  0  0  0  3  0  0  0  0  0  0
  161.5390  206.0870  152.5650 C   0  0  0  0  0  3  0  0  0  0  0  0
  160.7730  204.0940  150.8010 C   0  0  0  0  0  3  0  0  0  0  0  0
  161.8700  206.2110  151.2080 C   0  0  0  0  0  0  0  0  0  0  0  0
  160.4590  204.0070  152.1200 N   0  0  0  0  0  0  0  0  0  0  0  0
  162.6060  207.3090  150.7370 O   0  0  0  0  0  0  0  0  0  0  0  0
  161.9560  209.1420  149.5290 O   0  0  0  0  0  0  0  0  0  0  0  0
  162.1330  208.6250  150.6640 C   0  0  0  0  0  0  0  0  0  0  0  0
  162.6140  210.1090  152.4470 O   0  0  0  0  0  1  0  0  0  0  0  0
  161.7590  209.3890  151.8670 C   0  0  0  0  0  0  0  0  0  0  0  0
  160.4560  209.3570  152.3480 O   0  0  0  0  0  0  0  0  0  0  0  0
  1 12  1  0  0  0  0
  2 10  1  0  0  0  0
  2 11  1  0  0  0  0
  3  2  1  0  0  0  0
  4  3  1  0  0  0  0
  5  7  1  0  0  0  0
  6  3  1  0  0  0  0
  6  5  1  0  0  0  0
  7  8  1  0  0  0  0
  8  9  1  0  0  0  0
  9 12  1  0  0  0  0
 10  7  1  0  0  0  0
 10 11  1  0  0  0  0
 11  1  1  0  0  0  0
 12 14  1  0  0  0  0
 13 10  1  0  0  0  0
 14 17  2  0  0  0  0
 14 18  1  0  0  0  0
 16 15  1  0  0  0  0
 17 19  1  0  0  0  0
 18 16  2  0  0  0  0
 19 15  2  0  0  0  0
 20 18  1  0  0  0  0
 21 22  2  0  0  0  0
 22 20  1  0  0  0  0
 22 24  1  0  0  0  0
 24 25  2  0  0  0  0
 24 23  1  0  0  0  0
M  END
>  <MODEL>
4

>  <REMARK>
 VINA RESULT:      -5.2      3.575      7.443
  Name = 
  4 active torsions:
  status: ('A' for Active; 'I' for Inactive)
    1  A    between atoms: C_2  and  C_22
    2  A    between atoms: O_13  and  C_20
    3  A    between atoms: O_13  and  C_24
    4  A    between atoms: C_17  and  C_20
                            x       y       z     vdW  Elec       q    Type
                         _______ _______ _______ _____ _____    ______ ____

>  <TORSDO>
F 4

$$$$
=
 OpenBabel11072411363D

 25 28  0  0  1  0  0  0  0  0999 V2000
  160.8050  209.9560  152.6740 C   0  0  0  0  0  2  0  0  0  0  0  0
  160.6140  211.4510  154.7940 C   0  0  1  0  0  3  0  0  0  0  0  0
  159.1280  211.0890  154.6690 C   0  0  2  0  0  3  0  0  0  0  0  0
  158.1310  212.5930  154.8510 S   0  0  0  0  0  1  0  0  0  0  0  0
  159.3980  208.7650  155.4100 C   0  0  0  0  0  2  0  0  0  0  0  0
  158.7250  210.0850  155.7300 C   0  0  0  0  0  2  0  0  0  0  0  0
  160.9270  208.8770  155.4430 C   0  0  1  0  0  3  0  0  0  0  0  0
  161.5880  207.7820  154.6010 C   0  0  0  0  0  2  0  0  0  0  0  0
  160.9610  207.6560  153.3510 O   0  0  0  0  0  0  0  0  0  0  0  0
  161.5290  210.2710  155.1280 C   0  0  1  0  0  0  0  0  0  0  0  0
  161.5230  210.8290  153.7070 C   0  0  1  0  0  3  0  0  0  0  0  0
  161.5310  208.6220  152.5080 C   0  0  1  0  0  3  0  0  0  0  0  0
  162.7570  210.6710  155.9190 C   0  0  0  0  0  1  0  0  0  0  0  0
  161.4640  208.1640  151.0840 C   0  0  0  0  0  0  0  0  0  0  0  0
  161.3050  207.1900  148.4870 C   0  0  0  0  0  3  0  0  0  0  0  0
  161.7610  208.4900  148.7010 C   0  0  0  0  0  3  0  0  0  0  0  0
  161.0160  206.8670  150.8200 C   0  0  0  0  0  3  0  0  0  0  0  0
  161.8550  208.9870  150.0100 C   0  0  0  0  0  0  0  0  0  0  0  0
  160.9450  206.4110  149.5410 N   0  0  0  0  0  0  0  0  0  0  0  0
  162.2890  210.2980  150.2600 O   0  0  0  0  0  0  0  0  0  0  0  0
  160.8530  212.0800  150.2370 O   0  0  0  0  0  0  0  0  0  0  0  0
  161.7710  211.4480  149.6510 C   0  0  0  0  0  0  0  0  0  0  0  0
  163.4350  211.5750  147.9690 O   0  0  0  0  0  1  0  0  0  0  0  0
  162.3210  211.9820  148.3930 C   0  0  0  0  0  0  0  0  0  0  0  0
  161.6020  212.9050  147.6440 O   0  0  0  0  0  0  0  0  0  0  0  0
  1 11  1  0  0  0  0
  2 10  1  0  0  0  0
  3  2  1  0  0  0  0
  3  4  1  0  0  0  0
  3  6  1  0  0  0  0
  5  7  1  0  0  0  0
  5  6  1  0  0  0  0
  8  7  1  0  0  0  0
  9  8  1  0  0  0  0
 10  7  1  0  0  0  0
 10 13  1  0  0  0  0
 11  2  1  0  0  0  0
 11 10  1  0  0  0  0
 12  1  1  0  0  0  0
 12  9  1  0  0  0  0
 14 12  1  0  0  0  0
 15 16  2  0  0  0  0
 15 19  1  0  0  0  0
 16 18  1  0  0  0  0
 17 14  1  0  0  0  0
 18 20  1  0  0  0  0
 18 14  2  0  0  0  0
 19 17  2  0  0  0  0
 22 21  2  0  0  0  0
 22 20  1  0  0  0  0
 23 24  1  0  0  0  0
 24 22  1  0  0  0  0
 25 24  2  0  0  0  0
M  END
>  <MODEL>
5

>  <REMARK>
 VINA RESULT:      -4.8      2.702      3.901
  Name = 
  4 active torsions:
  status: ('A' for Active; 'I' for Inactive)
    1  A    between atoms: C_2  and  C_22
    2  A    between atoms: O_13  and  C_20
    3  A    between atoms: O_13  and  C_24
    4  A    between atoms: C_17  and  C_20
                            x       y       z     vdW  Elec       q    Type
                         _______ _______ _______ _____ _____    ______ ____

>  <TORSDO>
F 4

$$$$
=
 OpenBabel11072411363D

 25 28  0  0  1  0  0  0  0  0999 V2000
  161.6580  210.5880  153.4250 C   0  0  0  0  0  2  0  0  0  0  0  0
  161.7250  209.5810  155.8220 C   0  0  1  0  0  3  0  0  0  0  0  0
  162.2240  210.9870  156.1810 C   0  0  2  0  0  3  0  0  0  0  0  0
  163.6740  210.8480  157.2600 S   0  0  0  0  0  1  0  0  0  0  0  0
  160.0460  212.0800  155.8860 C   0  0  0  0  0  2  0  0  0  0  0  0
  161.1420  211.7800  156.8890 C   0  0  0  0  0  2  0  0  0  0  0  0
  159.3960  210.8010  155.3440 C   0  0  1  0  0  3  0  0  0  0  0  0
  158.7360  211.0410  153.9830 C   0  0  0  0  0  2  0  0  0  0  0  0
  159.5850  211.7650  153.1290 O   0  0  0  0  0  0  0  0  0  0  0  0
  160.2790  209.5260  155.3270 C   0  0  1  0  0  0  0  0  0  0  0  0
  161.4160  209.3700  154.3210 C   0  0  1  0  0  3  0  0  0  0  0  0
  160.4470  210.8370  152.5280 C   0  0  1  0  0  3  0  0  0  0  0  0
  159.5840  208.2200  155.6480 C   0  0  0  0  0  1  0  0  0  0  0  0
  160.8850  211.3390  151.1860 C   0  0  0  0  0  0  0  0  0  0  0  0
  161.6190  212.3800  148.7170 C   0  0  0  0  0  3  0  0  0  0  0  0
  162.0720  211.1140  149.0860 C   0  0  0  0  0  3  0  0  0  0  0  0
  160.4530  212.6010  150.7710 C   0  0  0  0  0  3  0  0  0  0  0  0
  161.6990  210.5760  150.3260 C   0  0  0  0  0  0  0  0  0  0  0  0
  160.8240  213.0910  149.5590 N   0  0  0  0  0  0  0  0  0  0  0  0
  162.1560  209.3140  150.7380 O   0  0  0  0  0  0  0  0  0  0  0  0
  160.8330  207.5550  151.3680 O   0  0  0  0  0  0  0  0  0  0  0  0
  161.5190  208.0980  150.4610 C   0  0  0  0  0  0  0  0  0  0  0  0
  160.6490  206.6890  148.7670 O   0  0  0  0  0  1  0  0  0  0  0  0
  161.5610  207.4790  149.1250 C   0  0  0  0  0  0  0  0  0  0  0  0
  162.5800  207.7920  148.2330 O   0  0  0  0  0  0  0  0  0  0  0  0
  1 11  1  0  0  0  0
  2  3  1  0  0  0  0
  3  6  1  0  0  0  0
  3  4  1  0  0  0  0
  5  6  1  0  0  0  0
  7  5  1  0  0  0  0
  8  7  1  0  0  0  0
  9  8  1  0  0  0  0
 10  7  1  0  0  0  0
 10 13  1  0  0  0  0
 10  2  1  0  0  0  0
 11 10  1  0  0  0  0
 11  2  1  0  0  0  0
 12  9  1  0  0  0  0
 12  1  1  0  0  0  0
 14 12  1  0  0  0  0
 15 16  2  0  0  0  0
 15 19  1  0  0  0  0
 16 18  1  0  0  0  0
 17 14  1  0  0  0  0
 18 20  1  0  0  0  0
 18 14  2  0  0  0  0
 19 17  2  0  0  0  0
 22 20  1  0  0  0  0
 22 21  2  0  0  0  0
 23 24  1  0  0  0  0
 24 22  1  0  0  0  0
 25 24  2  0  0  0  0
M  END
>  <MODEL>
6

>  <REMARK>
 VINA RESULT:      -4.7      2.753      4.551
  Name = 
  4 active torsions:
  status: ('A' for Active; 'I' for Inactive)
    1  A    between atoms: C_2  and  C_22
    2  A    between atoms: O_13  and  C_20
    3  A    between atoms: O_13  and  C_24
    4  A    between atoms: C_17  and  C_20
                            x       y       z     vdW  Elec       q    Type
                         _______ _______ _______ _____ _____    ______ ____

>  <TORSDO>
F 4

$$$$
=
 OpenBabel11072411363D

 25 28  0  0  1  0  0  0  0  0999 V2000
  161.0990  211.2730  141.4910 C   0  0  0  0  0  2  0  0  0  0  0  0
  160.8030  213.2040  143.2090 C   0  0  1  0  0  3  0  0  0  0  0  0
  162.3340  213.2470  143.1200 C   0  0  2  0  0  3  0  0  0  0  0  0
  163.0270  213.3270  144.7940 S   0  0  0  0  0  1  0  0  0  0  0  0
  162.4030  214.2410  140.8770 C   0  0  0  0  0  2  0  0  0  0  0  0
  162.7970  214.4530  142.3250 C   0  0  0  0  0  2  0  0  0  0  0  0
  160.8830  214.1330  140.7040 C   0  0  1  0  0  3  0  0  0  0  0  0
  160.5160  213.3790  139.4230 C   0  0  0  0  0  2  0  0  0  0  0  0
  161.2820  212.2090  139.2860 O   0  0  0  0  0  0  0  0  0  0  0  0
  160.0810  213.6030  141.9200 C   0  0  1  0  0  0  0  0  0  0  0  0
  160.1350  212.1300  142.3180 C   0  0  1  0  0  3  0  0  0  0  0  0
  160.6400  211.2120  140.0360 C   0  0  1  0  0  3  0  0  0  0  0  0
  158.7260  214.2350  142.1640 C   0  0  0  0  0  1  0  0  0  0  0  0
  160.9330  209.8640  139.4520 C   0  0  0  0  0  0  0  0  0  0  0  0
  161.5830  207.3530  138.4550 C   0  0  0  0  0  3  0  0  0  0  0  0
  160.5510  208.0780  137.8600 C   0  0  0  0  0  3  0  0  0  0  0  0
  161.9620  209.1020  140.0130 C   0  0  0  0  0  3  0  0  0  0  0  0
  160.2220  209.3510  138.3500 C   0  0  0  0  0  0  0  0  0  0  0  0
  162.2630  207.8760  139.5100 N   0  0  0  0  0  0  0  0  0  0  0  0
  159.1750  210.0970  137.7880 O   0  0  0  0  0  0  0  0  0  0  0  0
  157.3090  208.8400  137.3650 O   0  0  0  0  0  0  0  0  0  0  0  0
  157.8110  209.8290  137.9620 C   0  0  0  0  0  0  0  0  0  0  0  0
  157.4310  211.6540  139.4240 O   0  0  0  0  0  1  0  0  0  0  0  0
  156.9710  210.6140  138.8830 C   0  0  0  0  0  0  0  0  0  0  0  0
  155.6550  210.2430  139.1290 O   0  0  0  0  0  0  0  0  0  0  0  0
  1 11  1  0  0  0  0
  3  2  1  0  0  0  0
  3  4  1  0  0  0  0
  5  6  1  0  0  0  0
  6  3  1  0  0  0  0
  7  5  1  0  0  0  0
  7 10  1  0  0  0  0
  8  7  1  0  0  0  0
  9  8  1  0  0  0  0
  9 12  1  0  0  0  0
 10 13  1  0  0  0  0
 10 11  1  0  0  0  0
 10  2  1  0  0  0  0
 11  2  1  0  0  0  0
 12  1  1  0  0  0  0
 14 17  1  0  0  0  0
 14 12  1  0  0  0  0
 15 19  1  0  0  0  0
 16 18  1  0  0  0  0
 16 15  2  0  0  0  0
 18 14  2  0  0  0  0
 19 17  2  0  0  0  0
 20 22  1  0  0  0  0
 20 18  1  0  0  0  0
 21 22  2  0  0  0  0
 22 24  1  0  0  0  0
 24 25  2  0  0  0  0
 24 23  1  0  0  0  0
M  END
>  <MODEL>
7

>  <REMARK>
 VINA RESULT:      -4.2     10.902     12.184
  Name = 
  4 active torsions:
  status: ('A' for Active; 'I' for Inactive)
    1  A    between atoms: C_2  and  C_22
    2  A    between atoms: O_13  and  C_20
    3  A    between atoms: O_13  and  C_24
    4  A    between atoms: C_17  and  C_20
                            x       y       z     vdW  Elec       q    Type
                         _______ _______ _______ _____ _____    ______ ____

>  <TORSDO>
F 4

$$$$
=
 OpenBabel11072411363D

 25 28  0  0  1  0  0  0  0  0999 V2000
  160.6130  211.9460  143.0710 C   0  0  0  0  0  2  0  0  0  0  0  0
  162.1460  211.5770  141.0020 C   0  0  1  0  0  3  0  0  0  0  0  0
  160.9860  210.6760  140.5560 C   0  0  2  0  0  3  0  0  0  0  0  0
  161.6510  209.0960  139.9660 S   0  0  0  0  0  1  0  0  0  0  0  0
  159.4550  212.5230  140.0360 C   0  0  0  0  0  2  0  0  0  0  0  0
  160.1870  211.3330  139.4470 C   0  0  0  0  0  2  0  0  0  0  0  0
  160.4210  213.5760  140.5900 C   0  0  1  0  0  3  0  0  0  0  0  0
  159.7470  214.4530  141.6490 C   0  0  0  0  0  2  0  0  0  0  0  0
  159.0220  213.6740  142.5660 O   0  0  0  0  0  0  0  0  0  0  0  0
  161.8020  213.0660  141.0760 C   0  0  1  0  0  0  0  0  0  0  0  0
  161.9370  212.2680  142.3700 C   0  0  1  0  0  3  0  0  0  0  0  0
  159.9320  213.2320  143.5370 C   0  0  1  0  0  3  0  0  0  0  0  0
  162.9890  213.9680  140.8080 C   0  0  0  0  0  1  0  0  0  0  0  0
  159.2250  213.0060  144.8370 C   0  0  0  0  0  0  0  0  0  0  0  0
  157.7930  212.6140  147.1870 C   0  0  0  0  0  3  0  0  0  0  0  0
  159.1870  212.5810  147.2230 C   0  0  0  0  0  3  0  0  0  0  0  0
  157.8280  213.0330  144.8520 C   0  0  0  0  0  3  0  0  0  0  0  0
  159.9180  212.7890  146.0440 C   0  0  0  0  0  0  0  0  0  0  0  0
  157.1470  212.8380  146.0130 N   0  0  0  0  0  0  0  0  0  0  0  0
  161.3210  212.7410  146.0410 O   0  0  0  0  0  0  0  0  0  0  0  0
  162.2430  214.4390  147.2670 O   0  0  0  0  0  0  0  0  0  0  0  0
  162.1450  213.1980  147.0770 C   0  0  0  0  0  0  0  0  0  0  0  0
  162.1920  211.3330  148.5370 O   0  0  0  0  0  1  0  0  0  0  0  0
  162.8310  212.2740  147.9970 C   0  0  0  0  0  0  0  0  0  0  0  0
  164.1910  212.4050  148.2450 O   0  0  0  0  0  0  0  0  0  0  0  0
  1 12  1  0  0  0  0
  2 10  1  0  0  0  0
  2 11  1  0  0  0  0
  3  2  1  0  0  0  0
  4  3  1  0  0  0  0
  5  7  1  0  0  0  0
  6  5  1  0  0  0  0
  6  3  1  0  0  0  0
  7 10  1  0  0  0  0
  7  8  1  0  0  0  0
  8  9  1  0  0  0  0
  9 12  1  0  0  0  0
 10 11  1  0  0  0  0
 11  1  1  0  0  0  0
 12 14  1  0  0  0  0
 13 10  1  0  0  0  0
 14 17  2  0  0  0  0
 14 18  1  0  0  0  0
 15 16  1  0  0  0  0
 17 19  1  0  0  0  0
 18 16  2  0  0  0  0
 19 15  2  0  0  0  0
 20 18  1  0  0  0  0
 20 22  1  0  0  0  0
 22 21  2  0  0  0  0
 22 24  1  0  0  0  0
 24 25  2  0  0  0  0
 24 23  1  0  0  0  0
M  END
>  <MODEL>
8

>  <REMARK>
 VINA RESULT:      -4.2      8.222     11.124
  Name = 
  4 active torsions:
  status: ('A' for Active; 'I' for Inactive)
    1  A    between atoms: C_2  and  C_22
    2  A    between atoms: O_13  and  C_20
    3  A    between atoms: O_13  and  C_24
    4  A    between atoms: C_17  and  C_20
                            x       y       z     vdW  Elec       q    Type
                         _______ _______ _______ _____ _____    ______ ____

>  <TORSDO>
F 4

$$$$
=
 OpenBabel11072411363D

 25 28  0  0  1  0  0  0  0  0999 V2000
  159.8550  210.4740  139.6960 C   0  0  0  0  0  2  0  0  0  0  0  0
  162.2710  209.5220  139.8600 C   0  0  1  0  0  3  0  0  0  0  0  0
  161.5830  208.2400  139.3710 C   0  0  2  0  0  3  0  0  0  0  0  0
  162.1320  206.8430  140.3880 S   0  0  0  0  0  1  0  0  0  0  0  0
  161.2420  209.0310  137.0730 C   0  0  0  0  0  2  0  0  0  0  0  0
  161.9160  207.9690  137.9170 C   0  0  0  0  0  2  0  0  0  0  0  0
  161.7510  210.4390  137.4040 C   0  0  1  0  0  3  0  0  0  0  0  0
  160.7310  211.5110  137.0110 C   0  0  0  0  0  2  0  0  0  0  0  0
  159.4380  211.1590  137.4320 O   0  0  0  0  0  0  0  0  0  0  0  0
  162.2810  210.6650  138.8440 C   0  0  1  0  0  0  0  0  0  0  0  0
  161.3270  210.7350  140.0330 C   0  0  1  0  0  3  0  0  0  0  0  0
  159.3200  211.5640  138.7700 C   0  0  1  0  0  3  0  0  0  0  0  0
  163.4780  211.5830  138.9860 C   0  0  0  0  0  1  0  0  0  0  0  0
  157.8880  211.8640  139.0900 C   0  0  0  0  0  0  0  0  0  0  0  0
  155.1960  212.3060  139.6200 C   0  0  0  0  0  3  0  0  0  0  0  0
  156.1300  213.2800  139.9710 C   0  0  0  0  0  3  0  0  0  0  0  0
  156.9150  210.9190  138.7530 C   0  0  0  0  0  3  0  0  0  0  0  0
  157.4900  213.0710  139.6980 C   0  0  0  0  0  0  0  0  0  0  0  0
  155.6040  211.1560  139.0220 N   0  0  0  0  0  0  0  0  0  0  0  0
  158.4580  214.0210  140.0590 O   0  0  0  0  0  0  0  0  0  0  0  0
  158.7100  213.6460  142.3020 O   0  0  0  0  0  0  0  0  0  0  0  0
  159.2520  213.9650  141.2110 C   0  0  0  0  0  0  0  0  0  0  0  0
  161.3680  214.2400  142.2410 O   0  0  0  0  0  1  0  0  0  0  0  0
  160.7080  214.1870  141.1700 C   0  0  0  0  0  0  0  0  0  0  0  0
  161.3710  214.2970  139.9540 O   0  0  0  0  0  0  0  0  0  0  0  0
  1 11  1  0  0  0  0
  2 11  1  0  0  0  0
  3  2  1  0  0  0  0
  3  4  1  0  0  0  0
  5  7  1  0  0  0  0
  5  6  1  0  0  0  0
  6  3  1  0  0  0  0
  7 10  1  0  0  0  0
  8  7  1  0  0  0  0
  8  9  1  0  0  0  0
  9 12  1  0  0  0  0
 10 13  1  0  0  0  0
 10  2  1  0  0  0  0
 10 11  1  0  0  0  0
 12 14  1  0  0  0  0
 12  1  1  0  0  0  0
 14 18  1  0  0  0  0
 15 16  1  0  0  0  0
 17 19  1  0  0  0  0
 17 14  2  0  0  0  0
 18 16  2  0  0  0  0
 18 20  1  0  0  0  0
 19 15  2  0  0  0  0
 20 22  1  0  0  0  0
 22 21  2  0  0  0  0
 24 22  1  0  0  0  0
 24 23  1  0  0  0  0
 25 24  2  0  0  0  0
M  END
>  <MODEL>
9

>  <REMARK>
 VINA RESULT:      -4.2     12.248     14.027
  Name = 
  4 active torsions:
  status: ('A' for Active; 'I' for Inactive)
    1  A    between atoms: C_2  and  C_22
    2  A    between atoms: O_13  and  C_20
    3  A    between atoms: O_13  and  C_24
    4  A    between atoms: C_17  and  C_20
                            x       y       z     vdW  Elec       q    Type
                         _______ _______ _______ _____ _____    ______ ____

>  <TORSDO>
F 4

$$$$
