=
 OpenBabel11072415033D

 39 43  0  0  1  0  0  0  0  0999 V2000
  160.7830  209.9950  153.7790 C   0  0  0  0  0  0  0  0  0  0  0  0
  161.2960  207.6670  153.5440 C   0  0  0  0  0  0  0  0  0  0  0  0
  160.0570  211.9680  154.7290 C   0  0  0  0  0  0  0  0  0  0  0  0
  160.9270  207.4720  154.8480 N   0  0  0  0  0  0  0  0  0  0  0  0
  159.6990  213.1620  154.9200 O   0  0  0  0  0  0  0  0  0  0  0  0
  160.6150  211.4470  153.4290 C   0  0  2  0  0  3  0  0  0  0  0  0
  160.4020  209.7690  155.0830 C   0  0  0  0  0  0  0  0  0  0  0  0
  159.9590  210.9540  155.7270 N   0  0  0  0  0  0  0  0  0  0  0  0
  160.4740  208.4920  155.6340 C   0  0  0  0  0  3  0  0  0  0  0  0
  161.2380  208.9510  152.9750 C   0  0  0  0  0  3  0  0  0  0  0  0
  161.8050  206.5250  152.7310 C   0  0  0  0  0  2  0  0  0  0  0  0
  160.8990  205.3030  152.8490 C   0  0  0  0  0  2  0  0  0  0  0  0
  160.7460  204.5600  151.5260 C   0  0  0  0  0  2  0  0  0  0  0  0
  161.6660  205.1260  150.4500 C   0  0  0  0  0  2  0  0  0  0  0  0
  161.5780  205.3850  147.9790 C   0  0  1  0  0  0  0  0  0  0  0  0
  160.6490  204.8190  146.9050 C   0  0  2  0  0  3  0  0  0  0  0  0
  162.4190  206.4140  147.5390 O   0  0  0  0  0  0  0  0  0  0  0  0
  160.8740  205.6930  149.2760 C   0  0  2  0  0  3  0  0  0  0  0  0
  161.8200  203.9840  147.4210 C   0  0  2  0  0  3  0  0  0  0  0  0
  161.9800  207.5640  148.2230 C   0  0  0  0  0  2  0  0  0  0  0  0
  160.9560  207.1910  149.2900 C   0  0  0  0  0  2  0  0  0  0  0  0
  160.9150  205.3770  145.5370 C   0  0  0  0  0  0  0  0  0  0  0  0
  160.3110  206.4170  145.1700 O   0  0  0  0  0  1  0  0  0  0  0  0
  161.8140  204.7660  144.6690 O   0  0  0  0  0  0  0  0  0  0  0  0
  161.2670  202.8920  148.3200 C   0  0  0  0  0  2  0  0  0  0  0  0
  161.3360  200.5140  148.2150 O   0  0  0  0  0  1  0  0  0  0  0  0
  160.9390  201.6530  147.5110 C   0  0  0  0  0  2  0  0  0  0  0  0
  159.7000  211.6560  152.2980 N   0  0  0  0  0  2  0  0  0  0  0  0
  158.1960  213.4750  151.7270 C   0  0  0  0  0  2  0  0  0  0  0  0
  160.1850  213.1720  150.4800 C   0  0  0  0  0  2  0  0  0  0  0  0
  159.6420  213.0550  151.8750 C   0  0  2  0  0  3  0  0  0  0  0  0
  157.8310  213.3210  150.3820 O   0  0  0  0  0  0  0  0  0  0  0  0
  158.9970  213.6120  149.6580 C   0  0  0  0  0  2  0  0  0  0  0  0
  159.1460  211.0100  156.9350 C   0  0  0  0  0  2  0  0  0  0  0  0
  157.7380  211.4720  156.5980 C   0  0  0  0  0  2  0  0  0  0  0  0
  157.2460  210.7440  155.4850 O   0  0  0  0  0  0  0  0  0  0  0  0
  155.9800  210.9870  154.9600 C   0  0  0  0  0  0  0  0  0  0  0  0
  155.6700  212.2180  154.3950 O   0  0  0  0  0  0  0  0  0  0  0  0
  155.1050  210.0830  155.0030 O   0  0  0  0  0  1  0  0  0  0  0  0
  1  7  1  0  0  0  0
  2  4  2  0  0  0  0
  3  5  2  0  0  0  0
  3  8  1  0  0  0  0
  4  9  1  0  0  0  0
  6 28  1  6  0  0  0
  6  1  1  0  0  0  0
  6  3  1  0  0  0  0
  7  9  2  0  0  0  0
  7  8  1  0  0  0  0
  8 34  1  0  0  0  0
 10  2  1  0  0  0  0
 10  1  2  0  0  0  0
 11 12  1  0  0  0  0
 11  2  1  0  0  0  0
 13 12  1  0  0  0  0
 14 13  1  0  0  0  0
 15 17  1  6  0  0  0
 15 18  1  0  0  0  0
 16 22  1  6  0  0  0
 16 19  1  0  0  0  0
 16 15  1  0  0  0  0
 17 20  1  0  0  0  0
 18 21  1  0  0  0  0
 18 14  1  1  0  0  0
 19 15  1  0  0  0  0
 19 25  1  1  0  0  0
 20 21  1  0  0  0  0
 23 22  1  0  0  0  0
 24 22  2  0  0  0  0
 27 26  1  0  0  0  0
 27 25  1  0  0  0  0
 29 31  1  0  0  0  0
 30 31  1  0  0  0  0
 31 28  1  6  0  0  0
 32 29  1  0  0  0  0
 33 32  1  0  0  0  0
 33 30  1  0  0  0  0
 35 34  1  0  0  0  0
 36 35  1  0  0  0  0
 37 39  1  0  0  0  0
 37 36  1  0  0  0  0
 38 37  2  0  0  0  0
M  END
>  <MODEL>
1

>  <REMARK>
 VINA RESULT:      -7.7      0.000      0.000
  Name = 
  14 active torsions:
  status: ('A' for Active; 'I' for Inactive)
    1  A    between atoms: C_2  and  C_8
    2  A    between atoms: C_2  and  C_13
    3  A    between atoms: C_4  and  C_7
    4  A    between atoms: C_5  and  O_35
    5  A    between atoms: C_10  and  C_15
    6  A    between atoms: C_12  and  C_13
    7  A    between atoms: C_12  and  C_39
    8  A    between atoms: C_15  and  C_26
    9  A    between atoms: C_19  and  C_32
   10  A    between atoms: C_19  and  O_35
   11  A    between atoms: C_20  and  C_39
   12  A    between atoms: C_21  and  N_23
   13  A    between atoms: N_23  and  C_29
   14  A    between atoms: N_25  and  C_32
                            x       y       z     vdW  Elec       q    Type
                         _______ _______ _______ _____ _____    ______ ____

>  <TORSDO>
F 14

$$$$
=
 OpenBabel11072415033D

 39 43  0  0  1  0  0  0  0  0999 V2000
  159.5960  210.6720  153.3770 C   0  0  0  0  0  0  0  0  0  0  0  0
  160.9730  208.7130  153.4030 C   0  0  0  0  0  0  0  0  0  0  0  0
  158.7890  212.7450  152.7660 C   0  0  0  0  0  0  0  0  0  0  0  0
  161.6640  209.2060  152.3280 N   0  0  0  0  0  0  0  0  0  0  0  0
  158.1570  213.8360  152.7220 O   0  0  0  0  0  0  0  0  0  0  0  0
  158.5220  211.6500  153.7650 C   0  0  2  0  0  3  0  0  0  0  0  0
  160.3170  211.1530  152.3060 C   0  0  0  0  0  0  0  0  0  0  0  0
  159.8540  212.4230  151.8740 N   0  0  0  0  0  0  0  0  0  0  0  0
  161.3660  210.4140  151.7670 C   0  0  0  0  0  3  0  0  0  0  0  0
  159.9050  209.4420  153.9540 C   0  0  0  0  0  3  0  0  0  0  0  0
  161.3220  207.3780  153.9690 C   0  0  0  0  0  2  0  0  0  0  0  0
  161.8840  206.4430  152.9020 C   0  0  0  0  0  2  0  0  0  0  0  0
  160.8250  206.0010  151.8970 C   0  0  0  0  0  2  0  0  0  0  0  0
  161.4510  205.3970  150.6460 C   0  0  0  0  0  2  0  0  0  0  0  0
  161.5950  205.5160  148.1660 C   0  0  1  0  0  0  0  0  0  0  0  0
  160.7310  204.9420  147.0450 C   0  0  2  0  0  3  0  0  0  0  0  0
  162.5330  206.4690  147.7500 O   0  0  0  0  0  0  0  0  0  0  0  0
  160.8000  205.9380  149.3760 C   0  0  2  0  0  3  0  0  0  0  0  0
  161.7980  204.0740  147.7080 C   0  0  2  0  0  3  0  0  0  0  0  0
  162.1070  207.6800  148.3300 C   0  0  0  0  0  2  0  0  0  0  0  0
  160.9720  207.4280  149.3180 C   0  0  0  0  0  2  0  0  0  0  0  0
  161.1480  205.4030  145.6780 C   0  0  0  0  0  0  0  0  0  0  0  0
  162.1890  204.9240  145.1600 O   0  0  0  0  0  1  0  0  0  0  0  0
  160.4070  206.3470  144.9750 O   0  0  0  0  0  0  0  0  0  0  0  0
  161.1040  203.0680  148.6100 C   0  0  0  0  0  2  0  0  0  0  0  0
  161.2160  200.6900  148.5720 O   0  0  0  0  0  1  0  0  0  0  0  0
  160.7830  201.8010  147.8440 C   0  0  0  0  0  2  0  0  0  0  0  0
  158.6500  212.1100  155.1560 N   0  0  0  0  0  2  0  0  0  0  0  0
  156.2740  211.6130  155.1220 C   0  0  0  0  0  2  0  0  0  0  0  0
  157.1850  212.8250  156.9390 C   0  0  0  0  0  2  0  0  0  0  0  0
  157.5120  211.7130  155.9850 C   0  0  2  0  0  3  0  0  0  0  0  0
  155.5810  212.8300  155.2070 O   0  0  0  0  0  0  0  0  0  0  0  0
  155.8100  213.2820  156.5160 C   0  0  0  0  0  2  0  0  0  0  0  0
  160.6050  213.3650  151.0520 C   0  0  0  0  0  2  0  0  0  0  0  0
  160.3510  213.0930  149.5790 C   0  0  0  0  0  2  0  0  0  0  0  0
  161.4840  213.4730  148.8170 O   0  0  0  0  0  0  0  0  0  0  0  0
  162.1780  212.5520  148.0370 C   0  0  0  0  0  0  0  0  0  0  0  0
  162.6460  212.8990  146.7750 O   0  0  0  0  0  0  0  0  0  0  0  0
  162.3780  211.3900  148.4780 O   0  0  0  0  0  1  0  0  0  0  0  0
  1  6  1  0  0  0  0
  1 10  1  0  0  0  0
  2 10  2  0  0  0  0
  2 11  1  0  0  0  0
  3  6  1  0  0  0  0
  4  2  1  0  0  0  0
  5  3  2  0  0  0  0
  6 28  1  1  0  0  0
  7  1  2  0  0  0  0
  8  7  1  0  0  0  0
  8  3  1  0  0  0  0
  9  7  1  0  0  0  0
  9  4  2  0  0  0  0
 12 11  1  0  0  0  0
 13 12  1  0  0  0  0
 14 13  1  0  0  0  0
 15 17  1  6  0  0  0
 15 18  1  0  0  0  0
 16 22  1  6  0  0  0
 16 19  1  0  0  0  0
 16 15  1  0  0  0  0
 17 20  1  0  0  0  0
 18 14  1  1  0  0  0
 19 15  1  0  0  0  0
 19 25  1  1  0  0  0
 20 21  1  0  0  0  0
 21 18  1  0  0  0  0
 23 22  1  0  0  0  0
 24 22  2  0  0  0  0
 27 26  1  0  0  0  0
 27 25  1  0  0  0  0
 29 32  1  0  0  0  0
 29 31  1  0  0  0  0
 31 28  1  6  0  0  0
 31 30  1  0  0  0  0
 32 33  1  0  0  0  0
 33 30  1  0  0  0  0
 34  8  1  0  0  0  0
 35 34  1  0  0  0  0
 36 35  1  0  0  0  0
 37 39  1  0  0  0  0
 37 36  1  0  0  0  0
 38 37  2  0  0  0  0
M  END
>  <MODEL>
2

>  <REMARK>
 VINA RESULT:      -7.4      1.875      4.388
  Name = 
  14 active torsions:
  status: ('A' for Active; 'I' for Inactive)
    1  A    between atoms: C_2  and  C_8
    2  A    between atoms: C_2  and  C_13
    3  A    between atoms: C_4  and  C_7
    4  A    between atoms: C_5  and  O_35
    5  A    between atoms: C_10  and  C_15
    6  A    between atoms: C_12  and  C_13
    7  A    between atoms: C_12  and  C_39
    8  A    between atoms: C_15  and  C_26
    9  A    between atoms: C_19  and  C_32
   10  A    between atoms: C_19  and  O_35
   11  A    between atoms: C_20  and  C_39
   12  A    between atoms: C_21  and  N_23
   13  A    between atoms: N_23  and  C_29
   14  A    between atoms: N_25  and  C_32
                            x       y       z     vdW  Elec       q    Type
                         _______ _______ _______ _____ _____    ______ ____

>  <TORSDO>
F 14

$$$$
=
 OpenBabel11072415033D

 39 43  0  0  1  0  0  0  0  0999 V2000
  160.1320  210.7490  153.2710 C   0  0  0  0  0  0  0  0  0  0  0  0
  160.8160  208.4800  152.9200 C   0  0  0  0  0  0  0  0  0  0  0  0
  159.4030  212.6470  154.3590 C   0  0  0  0  0  0  0  0  0  0  0  0
  160.7060  208.2570  154.2670 N   0  0  0  0  0  0  0  0  0  0  0  0
  158.9720  213.8030  154.6260 O   0  0  0  0  0  0  0  0  0  0  0  0
  159.7660  212.1760  152.9750 C   0  0  2  0  0  3  0  0  0  0  0  0
  160.0140  210.4930  154.6200 C   0  0  0  0  0  0  0  0  0  0  0  0
  159.5820  211.6340  155.3470 N   0  0  0  0  0  0  0  0  0  0  0  0
  160.3050  209.2320  155.1330 C   0  0  0  0  0  3  0  0  0  0  0  0
  160.5340  209.7500  152.3860 C   0  0  0  0  0  3  0  0  0  0  0  0
  161.2770  207.3880  152.0150 C   0  0  0  0  0  2  0  0  0  0  0  0
  161.5810  207.9090  150.6130 C   0  0  0  0  0  2  0  0  0  0  0  0
  160.8410  207.1330  149.5290 C   0  0  0  0  0  2  0  0  0  0  0  0
  161.8050  206.4320  148.5790 C   0  0  0  0  0  2  0  0  0  0  0  0
  161.6220  204.0640  147.8410 C   0  0  1  0  0  0  0  0  0  0  0  0
  160.5340  203.0040  148.0040 C   0  0  2  0  0  3  0  0  0  0  0  0
  162.6280  203.7310  146.9250 O   0  0  0  0  0  0  0  0  0  0  0  0
  161.0760  205.4570  147.6580 C   0  0  2  0  0  3  0  0  0  0  0  0
  161.5380  203.2490  149.1290 C   0  0  2  0  0  3  0  0  0  0  0  0
  162.4760  204.6460  145.8660 C   0  0  0  0  0  2  0  0  0  0  0  0
  161.4630  205.7260  146.2340 C   0  0  0  0  0  2  0  0  0  0  0  0
  160.8240  201.7350  147.2560 C   0  0  0  0  0  0  0  0  0  0  0  0
  161.3270  200.7610  147.8720 O   0  0  0  0  0  1  0  0  0  0  0  0
  160.5480  201.6170  145.8980 O   0  0  0  0  0  0  0  0  0  0  0  0
  160.8290  203.9920  150.2480 C   0  0  0  0  0  2  0  0  0  0  0  0
  160.6550  203.4710  152.5650 O   0  0  0  0  0  1  0  0  0  0  0  0
  161.5650  203.8050  151.5590 C   0  0  0  0  0  2  0  0  0  0  0  0
  158.6480  212.2900  152.0270 N   0  0  0  0  0  2  0  0  0  0  0  0
  157.5930  213.5590  150.2470 C   0  0  0  0  0  2  0  0  0  0  0  0
  159.8970  213.8650  150.6890 C   0  0  0  0  0  2  0  0  0  0  0  0
  158.5920  213.6010  151.3810 C   0  0  2  0  0  3  0  0  0  0  0  0
  158.2890  213.2890  149.0590 O   0  0  0  0  0  0  0  0  0  0  0  0
  159.5340  213.9160  149.2240 C   0  0  0  0  0  2  0  0  0  0  0  0
  158.9970  211.6180  156.6810 C   0  0  0  0  0  2  0  0  0  0  0  0
  157.6010  212.2160  156.6480 C   0  0  0  0  0  2  0  0  0  0  0  0
  156.6560  211.2150  156.3060 O   0  0  0  0  0  0  0  0  0  0  0  0
  155.9290  211.2760  155.1200 C   0  0  0  0  0  0  0  0  0  0  0  0
  155.9210  212.4340  154.3520 O   0  0  0  0  0  0  0  0  0  0  0  0
  155.2680  210.2740  154.7440 O   0  0  0  0  0  1  0  0  0  0  0  0
  1  7  1  0  0  0  0
  2  4  2  0  0  0  0
  3  5  2  0  0  0  0
  3  8  1  0  0  0  0
  4  9  1  0  0  0  0
  6 28  1  6  0  0  0
  6  1  1  0  0  0  0
  6  3  1  0  0  0  0
  7  9  2  0  0  0  0
  7  8  1  0  0  0  0
  8 34  1  0  0  0  0
 10  2  1  0  0  0  0
 10  1  2  0  0  0  0
 11  2  1  0  0  0  0
 12 11  1  0  0  0  0
 13 12  1  0  0  0  0
 14 13  1  0  0  0  0
 15 17  1  6  0  0  0
 15 16  1  0  0  0  0
 15 19  1  0  0  0  0
 16 22  1  6  0  0  0
 16 19  1  0  0  0  0
 18 15  1  0  0  0  0
 18 14  1  1  0  0  0
 19 25  1  1  0  0  0
 20 21  1  0  0  0  0
 20 17  1  0  0  0  0
 21 18  1  0  0  0  0
 22 23  1  0  0  0  0
 24 22  2  0  0  0  0
 25 27  1  0  0  0  0
 27 26  1  0  0  0  0
 29 31  1  0  0  0  0
 30 31  1  0  0  0  0
 31 28  1  6  0  0  0
 32 33  1  0  0  0  0
 32 29  1  0  0  0  0
 33 30  1  0  0  0  0
 35 34  1  0  0  0  0
 36 35  1  0  0  0  0
 37 36  1  0  0  0  0
 38 37  2  0  0  0  0
 39 37  1  0  0  0  0
M  END
>  <MODEL>
3

>  <REMARK>
 VINA RESULT:      -7.4      1.400      2.389
  Name = 
  14 active torsions:
  status: ('A' for Active; 'I' for Inactive)
    1  A    between atoms: C_2  and  C_8
    2  A    between atoms: C_2  and  C_13
    3  A    between atoms: C_4  and  C_7
    4  A    between atoms: C_5  and  O_35
    5  A    between atoms: C_10  and  C_15
    6  A    between atoms: C_12  and  C_13
    7  A    between atoms: C_12  and  C_39
    8  A    between atoms: C_15  and  C_26
    9  A    between atoms: C_19  and  C_32
   10  A    between atoms: C_19  and  O_35
   11  A    between atoms: C_20  and  C_39
   12  A    between atoms: C_21  and  N_23
   13  A    between atoms: N_23  and  C_29
   14  A    between atoms: N_25  and  C_32
                            x       y       z     vdW  Elec       q    Type
                         _______ _______ _______ _____ _____    ______ ____

>  <TORSDO>
F 14

$$$$
=
 OpenBabel11072415033D

 39 43  0  0  1  0  0  0  0  0999 V2000
  161.2360  204.9570  149.7730 C   0  0  0  0  0  0  0  0  0  0  0  0
  161.3910  205.7440  152.0300 C   0  0  0  0  0  0  0  0  0  0  0  0
  161.0810  203.4970  147.9940 C   0  0  0  0  0  0  0  0  0  0  0  0
  161.2720  204.4530  152.4690 N   0  0  0  0  0  0  0  0  0  0  0  0
  161.0590  202.9910  146.8390 O   0  0  0  0  0  0  0  0  0  0  0  0
  161.1910  204.9750  148.2710 C   0  0  2  0  0  3  0  0  0  0  0  0
  161.1340  203.6660  150.2410 C   0  0  0  0  0  0  0  0  0  0  0  0
  161.0200  202.7210  149.1880 N   0  0  0  0  0  0  0  0  0  0  0  0
  161.1500  203.4020  151.6080 C   0  0  0  0  0  3  0  0  0  0  0  0
  161.3690  206.0300  150.6530 C   0  0  0  0  0  3  0  0  0  0  0  0
  161.5020  206.8630  153.0100 C   0  0  0  0  0  2  0  0  0  0  0  0
  160.6750  206.5960  154.2640 C   0  0  0  0  0  2  0  0  0  0  0  0
  160.9600  207.6000  155.3760 C   0  0  0  0  0  2  0  0  0  0  0  0
  161.1580  209.0080  154.8280 C   0  0  0  0  0  2  0  0  0  0  0  0
  160.0420  211.0640  153.9840 C   0  0  1  0  0  0  0  0  0  0  0  0
  159.0400  211.3170  152.8590 C   0  0  2  0  0  3  0  0  0  0  0  0
  160.2250  212.1440  154.8570 O   0  0  0  0  0  0  0  0  0  0  0  0
  159.8300  209.7480  154.6880 C   0  0  2  0  0  3  0  0  0  0  0  0
  160.5320  211.2230  152.5470 C   0  0  2  0  0  3  0  0  0  0  0  0
  159.7050  211.7090  156.0910 C   0  0  0  0  0  2  0  0  0  0  0  0
  159.3730  210.2210  156.0370 C   0  0  0  0  0  2  0  0  0  0  0  0
  158.5430  212.7330  152.8150 C   0  0  0  0  0  0  0  0  0  0  0  0
  157.3790  212.9880  153.2160 O   0  0  0  0  0  1  0  0  0  0  0  0
  159.3440  213.7660  152.3390 O   0  0  0  0  0  0  0  0  0  0  0  0
  160.7950  209.8910  151.8660 C   0  0  0  0  0  2  0  0  0  0  0  0
  162.0660  210.4420  149.9300 O   0  0  0  0  0  1  0  0  0  0  0  0
  162.1600  209.8910  151.2090 C   0  0  0  0  0  2  0  0  0  0  0  0
  162.3940  205.5730  147.6730 N   0  0  0  0  0  2  0  0  0  0  0  0
  160.5830  206.5510  146.3850 C   0  0  0  0  0  2  0  0  0  0  0  0
  162.5110  205.7550  145.2670 C   0  0  0  0  0  2  0  0  0  0  0  0
  162.0840  206.4370  146.5340 C   0  0  2  0  0  3  0  0  0  0  0  0
  160.1620  205.5970  145.4470 O   0  0  0  0  0  0  0  0  0  0  0  0
  161.2180  205.5090  144.5270 C   0  0  0  0  0  2  0  0  0  0  0  0
  161.2780  201.2910  149.3000 C   0  0  0  0  0  2  0  0  0  0  0  0
  160.5510  200.5390  148.1980 C   0  0  0  0  0  2  0  0  0  0  0  0
  161.4920  199.9050  147.3460 O   0  0  0  0  0  0  0  0  0  0  0  0
  161.1640  199.5440  146.0420 C   0  0  0  0  0  0  0  0  0  0  0  0
  160.4520  200.4130  145.2230 O   0  0  0  0  0  0  0  0  0  0  0  0
  161.5100  198.4170  145.6030 O   0  0  0  0  0  1  0  0  0  0  0  0
  1  7  2  0  0  0  0
  1 10  1  0  0  0  0
  2  4  1  0  0  0  0
  2 11  1  0  0  0  0
  3  6  1  0  0  0  0
  3  8  1  0  0  0  0
  5  3  2  0  0  0  0
  6 28  1  6  0  0  0
  6  1  1  0  0  0  0
  7  9  1  0  0  0  0
  8 34  1  0  0  0  0
  8  7  1  0  0  0  0
  9  4  2  0  0  0  0
 10  2  2  0  0  0  0
 11 12  1  0  0  0  0
 12 13  1  0  0  0  0
 14 13  1  0  0  0  0
 15 18  1  0  0  0  0
 15 17  1  1  0  0  0
 16 22  1  1  0  0  0
 16 15  1  0  0  0  0
 17 20  1  0  0  0  0
 18 14  1  1  0  0  0
 18 21  1  0  0  0  0
 19 25  1  6  0  0  0
 19 16  1  0  0  0  0
 19 15  1  0  0  0  0
 21 20  1  0  0  0  0
 22 23  1  0  0  0  0
 24 22  2  0  0  0  0
 26 27  1  0  0  0  0
 27 25  1  0  0  0  0
 29 31  1  0  0  0  0
 30 31  1  0  0  0  0
 31 28  1  1  0  0  0
 32 29  1  0  0  0  0
 33 30  1  0  0  0  0
 33 32  1  0  0  0  0
 35 34  1  0  0  0  0
 36 35  1  0  0  0  0
 37 36  1  0  0  0  0
 38 37  2  0  0  0  0
 39 37  1  0  0  0  0
M  END
>  <MODEL>
4

>  <REMARK>
 VINA RESULT:      -7.3      2.530      9.676
  Name = 
  14 active torsions:
  status: ('A' for Active; 'I' for Inactive)
    1  A    between atoms: C_2  and  C_8
    2  A    between atoms: C_2  and  C_13
    3  A    between atoms: C_4  and  C_7
    4  A    between atoms: C_5  and  O_35
    5  A    between atoms: C_10  and  C_15
    6  A    between atoms: C_12  and  C_13
    7  A    between atoms: C_12  and  C_39
    8  A    between atoms: C_15  and  C_26
    9  A    between atoms: C_19  and  C_32
   10  A    between atoms: C_19  and  O_35
   11  A    between atoms: C_20  and  C_39
   12  A    between atoms: C_21  and  N_23
   13  A    between atoms: N_23  and  C_29
   14  A    between atoms: N_25  and  C_32
                            x       y       z     vdW  Elec       q    Type
                         _______ _______ _______ _____ _____    ______ ____

>  <TORSDO>
F 14

$$$$
=
 OpenBabel11072415033D

 39 43  0  0  1  0  0  0  0  0999 V2000
  160.4790  210.2570  153.3440 C   0  0  0  0  0  0  0  0  0  0  0  0
  160.9830  207.9560  152.9130 C   0  0  0  0  0  0  0  0  0  0  0  0
  159.8960  212.1670  154.4980 C   0  0  0  0  0  0  0  0  0  0  0  0
  160.8490  207.6940  154.2500 N   0  0  0  0  0  0  0  0  0  0  0  0
  159.5560  213.3430  154.8050 O   0  0  0  0  0  0  0  0  0  0  0  0
  160.2290  211.7190  153.0980 C   0  0  2  0  0  3  0  0  0  0  0  0
  160.3340  209.9640  154.6820 C   0  0  0  0  0  0  0  0  0  0  0  0
  159.9900  211.1080  155.4490 N   0  0  0  0  0  0  0  0  0  0  0  0
  160.5220  208.6670  155.1500 C   0  0  0  0  0  3  0  0  0  0  0  0
  160.8060  209.2620  152.4250 C   0  0  0  0  0  3  0  0  0  0  0  0
  161.3630  206.8640  151.9700 C   0  0  0  0  0  2  0  0  0  0  0  0
  161.5270  205.5290  152.6920 C   0  0  0  0  0  2  0  0  0  0  0  0
  160.8330  204.3830  151.9630 C   0  0  0  0  0  2  0  0  0  0  0  0
  161.0530  204.4560  150.4570 C   0  0  0  0  0  2  0  0  0  0  0  0
  160.7870  202.8040  148.6170 C   0  0  1  0  0  0  0  0  0  0  0  0
  161.7050  202.3540  147.4810 C   0  0  2  0  0  3  0  0  0  0  0  0
  159.6570  202.0000  148.8070 O   0  0  0  0  0  0  0  0  0  0  0  0
  161.5260  203.1190  149.8930 C   0  0  2  0  0  3  0  0  0  0  0  0
  160.8670  203.6230  147.3300 C   0  0  2  0  0  3  0  0  0  0  0  0
  159.8470  201.3910  150.0620 C   0  0  0  0  0  2  0  0  0  0  0  0
  161.0480  202.0040  150.7760 C   0  0  0  0  0  2  0  0  0  0  0  0
  161.1460  201.2120  146.6840 C   0  0  0  0  0  0  0  0  0  0  0  0
  161.4410  200.0340  147.0100 O   0  0  0  0  0  1  0  0  0  0  0  0
  160.3100  201.4310  145.5940 O   0  0  0  0  0  0  0  0  0  0  0  0
  161.7890  204.8230  147.4550 C   0  0  0  0  0  2  0  0  0  0  0  0
  160.7330  206.8670  148.0630 O   0  0  0  0  0  1  0  0  0  0  0  0
  161.0950  206.0790  146.9700 C   0  0  0  0  0  2  0  0  0  0  0  0
  159.1280  211.9550  152.1530 N   0  0  0  0  0  2  0  0  0  0  0  0
  157.7880  213.6430  151.0350 C   0  0  0  0  0  2  0  0  0  0  0  0
  160.0350  213.3100  150.3710 C   0  0  0  0  0  2  0  0  0  0  0  0
  159.1550  213.3030  151.5870 C   0  0  2  0  0  3  0  0  0  0  0  0
  157.7830  213.3460  149.6650 O   0  0  0  0  0  0  0  0  0  0  0  0
  159.0900  213.6170  149.2340 C   0  0  0  0  0  2  0  0  0  0  0  0
  159.3970  211.0910  156.7800 C   0  0  0  0  0  2  0  0  0  0  0  0
  157.9200  211.4370  156.7010 C   0  0  0  0  0  2  0  0  0  0  0  0
  157.2830  210.6130  155.7390 O   0  0  0  0  0  0  0  0  0  0  0  0
  156.2560  211.0970  154.9330 C   0  0  0  0  0  0  0  0  0  0  0  0
  156.3620  212.3390  154.3180 O   0  0  0  0  0  0  0  0  0  0  0  0
  155.2180  210.4050  154.7660 O   0  0  0  0  0  1  0  0  0  0  0  0
  1  7  1  0  0  0  0
  2  4  2  0  0  0  0
  3  5  2  0  0  0  0
  3  8  1  0  0  0  0
  4  9  1  0  0  0  0
  6 28  1  6  0  0  0
  6  1  1  0  0  0  0
  6  3  1  0  0  0  0
  7  9  2  0  0  0  0
  7  8  1  0  0  0  0
  8 34  1  0  0  0  0
 10  2  1  0  0  0  0
 10  1  2  0  0  0  0
 11 12  1  0  0  0  0
 11  2  1  0  0  0  0
 13 12  1  0  0  0  0
 14 13  1  0  0  0  0
 15 17  1  1  0  0  0
 15 18  1  0  0  0  0
 16 22  1  6  0  0  0
 16 15  1  0  0  0  0
 17 20  1  0  0  0  0
 18 14  1  1  0  0  0
 18 21  1  0  0  0  0
 19 25  1  1  0  0  0
 19 16  1  0  0  0  0
 19 15  1  0  0  0  0
 20 21  1  0  0  0  0
 22 23  1  0  0  0  0
 24 22  2  0  0  0  0
 27 25  1  0  0  0  0
 27 26  1  0  0  0  0
 29 31  1  0  0  0  0
 30 31  1  0  0  0  0
 31 28  1  6  0  0  0
 32 29  1  0  0  0  0
 33 32  1  0  0  0  0
 33 30  1  0  0  0  0
 35 34  1  0  0  0  0
 36 35  1  0  0  0  0
 37 36  1  0  0  0  0
 38 37  2  0  0  0  0
 39 37  1  0  0  0  0
M  END
>  <MODEL>
5

>  <REMARK>
 VINA RESULT:      -7.2      1.215      2.679
  Name = 
  14 active torsions:
  status: ('A' for Active; 'I' for Inactive)
    1  A    between atoms: C_2  and  C_8
    2  A    between atoms: C_2  and  C_13
    3  A    between atoms: C_4  and  C_7
    4  A    between atoms: C_5  and  O_35
    5  A    between atoms: C_10  and  C_15
    6  A    between atoms: C_12  and  C_13
    7  A    between atoms: C_12  and  C_39
    8  A    between atoms: C_15  and  C_26
    9  A    between atoms: C_19  and  C_32
   10  A    between atoms: C_19  and  O_35
   11  A    between atoms: C_20  and  C_39
   12  A    between atoms: C_21  and  N_23
   13  A    between atoms: N_23  and  C_29
   14  A    between atoms: N_25  and  C_32
                            x       y       z     vdW  Elec       q    Type
                         _______ _______ _______ _____ _____    ______ ____

>  <TORSDO>
F 14

$$$$
=
 OpenBabel11072415033D

 39 43  0  0  1  0  0  0  0  0999 V2000
  161.1800  204.9750  149.6210 C   0  0  0  0  0  0  0  0  0  0  0  0
  161.2160  205.8110  151.8650 C   0  0  0  0  0  0  0  0  0  0  0  0
  161.1920  203.4770  147.8680 C   0  0  0  0  0  0  0  0  0  0  0  0
  161.2020  204.5220  152.3270 N   0  0  0  0  0  0  0  0  0  0  0  0
  161.2400  202.9500  146.7220 O   0  0  0  0  0  0  0  0  0  0  0  0
  161.1660  204.9630  148.1180 C   0  0  2  0  0  3  0  0  0  0  0  0
  161.1820  203.6880  150.1120 C   0  0  0  0  0  0  0  0  0  0  0  0
  161.1740  202.7180  149.0750 N   0  0  0  0  0  0  0  0  0  0  0  0
  161.1910  203.4500  151.4830 C   0  0  0  0  0  3  0  0  0  0  0  0
  161.1990  206.0700  150.4830 C   0  0  0  0  0  3  0  0  0  0  0  0
  161.2070  206.9520  152.8270 C   0  0  0  0  0  2  0  0  0  0  0  0
  161.4360  208.2850  152.1210 C   0  0  0  0  0  2  0  0  0  0  0  0
  160.5380  209.3930  152.6600 C   0  0  0  0  0  2  0  0  0  0  0  0
  161.2830  210.3000  153.6330 C   0  0  0  0  0  2  0  0  0  0  0  0
  159.1060  211.1290  154.5020 C   0  0  1  0  0  0  0  0  0  0  0  0
  158.7040  211.8490  155.7890 C   0  0  2  0  0  3  0  0  0  0  0  0
  158.1140  211.1050  153.5140 O   0  0  0  0  0  0  0  0  0  0  0  0
  160.4620  211.5370  153.9870 C   0  0  2  0  0  3  0  0  0  0  0  0
  158.8540  210.3290  155.7780 C   0  0  2  0  0  3  0  0  0  0  0  0
  158.6210  211.8990  152.4670 C   0  0  0  0  0  2  0  0  0  0  0  0
  160.0790  212.2630  152.7310 C   0  0  0  0  0  2  0  0  0  0  0  0
  157.2650  212.2740  155.8070 C   0  0  0  0  0  0  0  0  0  0  0  0
  156.9750  213.4740  155.5710 O   0  0  0  0  0  0  0  0  0  0  0  0
  156.2460  211.3660  156.0800 O   0  0  0  0  0  1  0  0  0  0  0  0
  160.1360  209.9700  156.5080 C   0  0  0  0  0  2  0  0  0  0  0  0
  161.5770  208.0830  156.3320 O   0  0  0  0  0  1  0  0  0  0  0  0
  160.2700  208.4660  156.6390 C   0  0  0  0  0  2  0  0  0  0  0  0
  162.3240  205.6550  147.5340 N   0  0  0  0  0  2  0  0  0  0  0  0
  160.4570  206.4770  146.2170 C   0  0  0  0  0  2  0  0  0  0  0  0
  162.4550  205.8270  145.1280 C   0  0  0  0  0  2  0  0  0  0  0  0
  161.9610  206.4830  146.3850 C   0  0  2  0  0  3  0  0  0  0  0  0
  160.1250  205.4860  145.2820 O   0  0  0  0  0  0  0  0  0  0  0  0
  161.1950  205.4750  144.3750 C   0  0  0  0  0  2  0  0  0  0  0  0
  161.5550  201.3190  149.2190 C   0  0  0  0  0  2  0  0  0  0  0  0
  160.7660  200.4580  148.2470 C   0  0  0  0  0  2  0  0  0  0  0  0
  161.6460  199.8650  147.3060 O   0  0  0  0  0  0  0  0  0  0  0  0
  161.2060  199.4770  146.0430 C   0  0  0  0  0  0  0  0  0  0  0  0
  160.4560  200.3430  145.2560 O   0  0  0  0  0  0  0  0  0  0  0  0
  161.4860  198.3280  145.6130 O   0  0  0  0  0  1  0  0  0  0  0  0
  1  7  2  0  0  0  0
  1 10  1  0  0  0  0
  2  4  1  0  0  0  0
  2 11  1  0  0  0  0
  3  6  1  0  0  0  0
  3  8  1  0  0  0  0
  5  3  2  0  0  0  0
  6 28  1  6  0  0  0
  6  1  1  0  0  0  0
  7  9  1  0  0  0  0
  8 34  1  0  0  0  0
  8  7  1  0  0  0  0
  9  4  2  0  0  0  0
 10  2  2  0  0  0  0
 12 13  1  0  0  0  0
 12 11  1  0  0  0  0
 13 14  1  0  0  0  0
 15 17  1  6  0  0  0
 15 19  1  0  0  0  0
 15 16  1  0  0  0  0
 16 22  1  6  0  0  0
 18 14  1  6  0  0  0
 18 15  1  0  0  0  0
 19 16  1  0  0  0  0
 19 25  1  1  0  0  0
 20 21  1  0  0  0  0
 20 17  1  0  0  0  0
 21 18  1  0  0  0  0
 22 24  1  0  0  0  0
 23 22  2  0  0  0  0
 25 27  1  0  0  0  0
 26 27  1  0  0  0  0
 29 31  1  0  0  0  0
 30 31  1  0  0  0  0
 31 28  1  1  0  0  0
 32 29  1  0  0  0  0
 33 30  1  0  0  0  0
 33 32  1  0  0  0  0
 35 34  1  0  0  0  0
 36 35  1  0  0  0  0
 37 36  1  0  0  0  0
 38 37  2  0  0  0  0
 39 37  1  0  0  0  0
M  END
>  <MODEL>
6

>  <REMARK>
 VINA RESULT:      -6.9      2.509     10.158
  Name = 
  14 active torsions:
  status: ('A' for Active; 'I' for Inactive)
    1  A    between atoms: C_2  and  C_8
    2  A    between atoms: C_2  and  C_13
    3  A    between atoms: C_4  and  C_7
    4  A    between atoms: C_5  and  O_35
    5  A    between atoms: C_10  and  C_15
    6  A    between atoms: C_12  and  C_13
    7  A    between atoms: C_12  and  C_39
    8  A    between atoms: C_15  and  C_26
    9  A    between atoms: C_19  and  C_32
   10  A    between atoms: C_19  and  O_35
   11  A    between atoms: C_20  and  C_39
   12  A    between atoms: C_21  and  N_23
   13  A    between atoms: N_23  and  C_29
   14  A    between atoms: N_25  and  C_32
                            x       y       z     vdW  Elec       q    Type
                         _______ _______ _______ _____ _____    ______ ____

>  <TORSDO>
F 14

$$$$
=
 OpenBabel11072415033D

 39 43  0  0  1  0  0  0  0  0999 V2000
  160.6470  209.9990  153.4480 C   0  0  0  0  0  0  0  0  0  0  0  0
  161.0830  207.6590  153.1790 C   0  0  0  0  0  0  0  0  0  0  0  0
  160.0220  211.9860  154.4390 C   0  0  0  0  0  0  0  0  0  0  0  0
  160.7700  207.4670  154.4980 N   0  0  0  0  0  0  0  0  0  0  0  0
  159.7070  213.1890  154.6520 O   0  0  0  0  0  0  0  0  0  0  0  0
  160.5040  211.4570  153.1120 C   0  0  2  0  0  3  0  0  0  0  0  0
  160.3210  209.7760  154.7670 C   0  0  0  0  0  0  0  0  0  0  0  0
  159.9420  210.9700  155.4360 N   0  0  0  0  0  0  0  0  0  0  0  0
  160.3830  208.4950  155.3090 C   0  0  0  0  0  3  0  0  0  0  0  0
  161.0340  208.9480  152.6190 C   0  0  0  0  0  3  0  0  0  0  0  0
  161.5210  206.5080  152.3380 C   0  0  0  0  0  2  0  0  0  0  0  0
  160.8170  205.2160  152.7420 C   0  0  0  0  0  2  0  0  0  0  0  0
  161.2160  204.0350  151.8640 C   0  0  0  0  0  2  0  0  0  0  0  0
  160.5850  204.1210  150.4800 C   0  0  0  0  0  2  0  0  0  0  0  0
  161.1540  204.5020  148.0890 C   0  0  1  0  0  0  0  0  0  0  0  0
  162.2460  205.3150  147.3960 C   0  0  2  0  0  3  0  0  0  0  0  0
  160.4560  203.6260  147.2480 O   0  0  0  0  0  0  0  0  0  0  0  0
  161.6100  203.8670  149.3780 C   0  0  2  0  0  3  0  0  0  0  0  0
  160.9650  206.0010  147.8660 C   0  0  2  0  0  3  0  0  0  0  0  0
  160.8040  202.3360  147.6930 C   0  0  0  0  0  2  0  0  0  0  0  0
  161.5890  202.4150  148.9980 C   0  0  0  0  0  2  0  0  0  0  0  0
  162.2700  205.1280  145.9060 C   0  0  0  0  0  0  0  0  0  0  0  0
  163.0880  204.3160  145.4030 O   0  0  0  0  0  1  0  0  0  0  0  0
  161.4070  205.8330  145.0750 O   0  0  0  0  0  0  0  0  0  0  0  0
  161.2890  206.8220  149.1020 C   0  0  0  0  0  2  0  0  0  0  0  0
  161.7060  209.1230  148.6520 O   0  0  0  0  0  1  0  0  0  0  0  0
  162.3260  207.8780  148.7800 C   0  0  0  0  0  2  0  0  0  0  0  0
  159.5430  211.6980  152.0260 N   0  0  0  0  0  2  0  0  0  0  0  0
  158.0510  213.5200  151.4370 C   0  0  0  0  0  2  0  0  0  0  0  0
  160.0780  213.2440  150.2480 C   0  0  0  0  0  2  0  0  0  0  0  0
  159.4930  213.1030  151.6230 C   0  0  2  0  0  3  0  0  0  0  0  0
  157.7270  213.3860  150.0790 O   0  0  0  0  0  0  0  0  0  0  0  0
  158.9150  213.6930  149.3960 C   0  0  0  0  0  2  0  0  0  0  0  0
  159.1890  211.0420  156.6820 C   0  0  0  0  0  2  0  0  0  0  0  0
  157.7200  210.7530  156.4230 C   0  0  0  0  0  2  0  0  0  0  0  0
  157.0710  211.9260  155.9610 O   0  0  0  0  0  0  0  0  0  0  0  0
  156.1320  211.8820  154.9340 C   0  0  0  0  0  0  0  0  0  0  0  0
  155.8000  213.0310  154.2260 O   0  0  0  0  0  0  0  0  0  0  0  0
  155.5740  210.7910  154.6490 O   0  0  0  0  0  1  0  0  0  0  0  0
  1  7  1  0  0  0  0
  2  4  2  0  0  0  0
  3  5  2  0  0  0  0
  3  8  1  0  0  0  0
  4  9  1  0  0  0  0
  6 28  1  6  0  0  0
  6  1  1  0  0  0  0
  6  3  1  0  0  0  0
  7  9  2  0  0  0  0
  7  8  1  0  0  0  0
  8 34  1  0  0  0  0
 10  2  1  0  0  0  0
 10  1  2  0  0  0  0
 11 12  1  0  0  0  0
 11  2  1  0  0  0  0
 13 12  1  0  0  0  0
 14 13  1  0  0  0  0
 15 17  1  6  0  0  0
 15 18  1  0  0  0  0
 16 22  1  6  0  0  0
 16 19  1  0  0  0  0
 16 15  1  0  0  0  0
 17 20  1  0  0  0  0
 18 14  1  1  0  0  0
 19 15  1  0  0  0  0
 19 25  1  1  0  0  0
 20 21  1  0  0  0  0
 21 18  1  0  0  0  0
 23 22  1  0  0  0  0
 24 22  2  0  0  0  0
 26 27  1  0  0  0  0
 27 25  1  0  0  0  0
 29 31  1  0  0  0  0
 30 31  1  0  0  0  0
 31 28  1  6  0  0  0
 32 29  1  0  0  0  0
 33 32  1  0  0  0  0
 33 30  1  0  0  0  0
 35 34  1  0  0  0  0
 36 35  1  0  0  0  0
 37 36  1  0  0  0  0
 38 37  2  0  0  0  0
 39 37  1  0  0  0  0
M  END
>  <MODEL>
7

>  <REMARK>
 VINA RESULT:      -6.9      1.021      2.454
  Name = 
  14 active torsions:
  status: ('A' for Active; 'I' for Inactive)
    1  A    between atoms: C_2  and  C_8
    2  A    between atoms: C_2  and  C_13
    3  A    between atoms: C_4  and  C_7
    4  A    between atoms: C_5  and  O_35
    5  A    between atoms: C_10  and  C_15
    6  A    between atoms: C_12  and  C_13
    7  A    between atoms: C_12  and  C_39
    8  A    between atoms: C_15  and  C_26
    9  A    between atoms: C_19  and  C_32
   10  A    between atoms: C_19  and  O_35
   11  A    between atoms: C_20  and  C_39
   12  A    between atoms: C_21  and  N_23
   13  A    between atoms: N_23  and  C_29
   14  A    between atoms: N_25  and  C_32
                            x       y       z     vdW  Elec       q    Type
                         _______ _______ _______ _____ _____    ______ ____

>  <TORSDO>
F 14

$$$$
=
 OpenBabel11072415033D

 39 43  0  0  1  0  0  0  0  0999 V2000
  160.2700  210.7260  153.3190 C   0  0  0  0  0  0  0  0  0  0  0  0
  160.8990  208.4670  152.8290 C   0  0  0  0  0  0  0  0  0  0  0  0
  159.7180  212.6040  154.5390 C   0  0  0  0  0  0  0  0  0  0  0  0
  161.0110  208.2260  154.1720 N   0  0  0  0  0  0  0  0  0  0  0  0
  159.3300  213.7530  154.8890 O   0  0  0  0  0  0  0  0  0  0  0  0
  159.8530  212.1540  153.1070 C   0  0  2  0  0  3  0  0  0  0  0  0
  160.3750  210.4520  154.6650 C   0  0  0  0  0  0  0  0  0  0  0  0
  160.0610  211.5790  155.4690 N   0  0  0  0  0  0  0  0  0  0  0  0
  160.7530  209.1860  155.1060 C   0  0  0  0  0  3  0  0  0  0  0  0
  160.5260  209.7420  152.3660 C   0  0  0  0  0  3  0  0  0  0  0  0
  161.2120  207.3910  151.8450 C   0  0  0  0  0  2  0  0  0  0  0  0
  161.8940  206.2000  152.5110 C   0  0  0  0  0  2  0  0  0  0  0  0
  161.2060  204.8780  152.1900 C   0  0  0  0  0  2  0  0  0  0  0  0
  160.9480  204.7240  150.6950 C   0  0  0  0  0  2  0  0  0  0  0  0
  160.7740  202.9790  148.9320 C   0  0  1  0  0  0  0  0  0  0  0  0
  161.6780  202.5840  147.7660 C   0  0  2  0  0  3  0  0  0  0  0  0
  159.7490  202.0670  149.2110 O   0  0  0  0  0  0  0  0  0  0  0  0
  161.5350  203.4240  150.1550 C   0  0  2  0  0  3  0  0  0  0  0  0
  160.7010  203.7480  147.6150 C   0  0  2  0  0  3  0  0  0  0  0  0
  160.0650  201.5340  150.4750 C   0  0  0  0  0  2  0  0  0  0  0  0
  161.2260  202.3010  151.1010 C   0  0  0  0  0  2  0  0  0  0  0  0
  161.2090  201.3560  147.0410 C   0  0  0  0  0  0  0  0  0  0  0  0
  161.5150  200.2230  147.4910 O   0  0  0  0  0  1  0  0  0  0  0  0
  160.4440  201.4480  145.8830 O   0  0  0  0  0  0  0  0  0  0  0  0
  161.4920  205.0440  147.6470 C   0  0  0  0  0  2  0  0  0  0  0  0
  162.5640  205.6500  145.6100 O   0  0  0  0  0  1  0  0  0  0  0  0
  162.7370  204.9280  146.7920 C   0  0  0  0  0  2  0  0  0  0  0  0
  158.5940  212.2720  152.3570 N   0  0  0  0  0  2  0  0  0  0  0  0
  157.2830  214.2960  152.0740 C   0  0  0  0  0  2  0  0  0  0  0  0
  158.2000  213.2270  150.1730 C   0  0  0  0  0  2  0  0  0  0  0  0
  158.5010  213.5280  151.6120 C   0  0  2  0  0  3  0  0  0  0  0  0
  156.2230  214.0010  151.2050 O   0  0  0  0  0  0  0  0  0  0  0  0
  156.8270  213.8170  149.9520 C   0  0  0  0  0  2  0  0  0  0  0  0
  159.7020  211.5410  156.8810 C   0  0  0  0  0  2  0  0  0  0  0  0
  158.2650  211.0760  157.0430 C   0  0  0  0  0  2  0  0  0  0  0  0
  157.3890  212.1900  156.9940 O   0  0  0  0  0  0  0  0  0  0  0  0
  156.3840  212.2830  156.0350 C   0  0  0  0  0  0  0  0  0  0  0  0
  155.5080  213.3620  156.0280 O   0  0  0  0  0  1  0  0  0  0  0  0
  156.2650  211.3780  155.1700 O   0  0  0  0  0  0  0  0  0  0  0  0
  1  7  1  0  0  0  0
  2  4  2  0  0  0  0
  3  5  2  0  0  0  0
  3  8  1  0  0  0  0
  4  9  1  0  0  0  0
  6 28  1  6  0  0  0
  6  1  1  0  0  0  0
  6  3  1  0  0  0  0
  7  9  2  0  0  0  0
  7  8  1  0  0  0  0
  8 34  1  0  0  0  0
 10  2  1  0  0  0  0
 10  1  2  0  0  0  0
 11 12  1  0  0  0  0
 11  2  1  0  0  0  0
 13 12  1  0  0  0  0
 14 13  1  0  0  0  0
 15 17  1  1  0  0  0
 15 18  1  0  0  0  0
 16 22  1  6  0  0  0
 16 15  1  0  0  0  0
 17 20  1  0  0  0  0
 18 14  1  1  0  0  0
 18 21  1  0  0  0  0
 19 25  1  1  0  0  0
 19 16  1  0  0  0  0
 19 15  1  0  0  0  0
 20 21  1  0  0  0  0
 22 23  1  0  0  0  0
 24 22  2  0  0  0  0
 26 27  1  0  0  0  0
 27 25  1  0  0  0  0
 30 31  1  0  0  0  0
 31 29  1  0  0  0  0
 31 28  1  1  0  0  0
 32 29  1  0  0  0  0
 33 30  1  0  0  0  0
 33 32  1  0  0  0  0
 34 35  1  0  0  0  0
 36 35  1  0  0  0  0
 37 36  1  0  0  0  0
 38 37  1  0  0  0  0
 39 37  2  0  0  0  0
M  END
>  <MODEL>
8

>  <REMARK>
 VINA RESULT:      -6.8      1.390      2.786
  Name = 
  14 active torsions:
  status: ('A' for Active; 'I' for Inactive)
    1  A    between atoms: C_2  and  C_8
    2  A    between atoms: C_2  and  C_13
    3  A    between atoms: C_4  and  C_7
    4  A    between atoms: C_5  and  O_35
    5  A    between atoms: C_10  and  C_15
    6  A    between atoms: C_12  and  C_13
    7  A    between atoms: C_12  and  C_39
    8  A    between atoms: C_15  and  C_26
    9  A    between atoms: C_19  and  C_32
   10  A    between atoms: C_19  and  O_35
   11  A    between atoms: C_20  and  C_39
   12  A    between atoms: C_21  and  N_23
   13  A    between atoms: N_23  and  C_29
   14  A    between atoms: N_25  and  C_32
                            x       y       z     vdW  Elec       q    Type
                         _______ _______ _______ _____ _____    ______ ____

>  <TORSDO>
F 14

$$$$
=
 OpenBabel11072415033D

 39 43  0  0  1  0  0  0  0  0999 V2000
  159.4200  211.2390  153.2370 C   0  0  0  0  0  0  0  0  0  0  0  0
  161.0590  209.4990  153.3870 C   0  0  0  0  0  0  0  0  0  0  0  0
  158.3320  213.1310  152.4910 C   0  0  0  0  0  0  0  0  0  0  0  0
  161.6760  210.0090  152.2770 N   0  0  0  0  0  0  0  0  0  0  0  0
  157.5530  214.1170  152.3770 O   0  0  0  0  0  0  0  0  0  0  0  0
  158.2190  212.0810  153.5660 C   0  0  2  0  0  3  0  0  0  0  0  0
  160.0690  211.7410  152.1310 C   0  0  0  0  0  0  0  0  0  0  0  0
  159.4340  212.9010  151.6160 N   0  0  0  0  0  0  0  0  0  0  0  0
  161.2130  211.1210  151.6360 C   0  0  0  0  0  3  0  0  0  0  0  0
  159.8970  210.1070  153.8960 C   0  0  0  0  0  3  0  0  0  0  0  0
  161.5900  208.2680  154.0420 C   0  0  0  0  0  2  0  0  0  0  0  0
  160.6560  207.0780  153.8430 C   0  0  0  0  0  2  0  0  0  0  0  0
  161.4020  205.8140  153.4290 C   0  0  0  0  0  2  0  0  0  0  0  0
  160.6250  205.0150  152.3890 C   0  0  0  0  0  2  0  0  0  0  0  0
  160.8660  204.5440  149.9590 C   0  0  1  0  0  0  0  0  0  0  0  0
  161.7530  205.1370  148.8670 C   0  0  2  0  0  3  0  0  0  0  0  0
  160.2020  203.3660  149.5950 O   0  0  0  0  0  0  0  0  0  0  0  0
  161.5450  204.4640  151.3030 C   0  0  2  0  0  3  0  0  0  0  0  0
  160.4520  205.8360  149.2580 C   0  0  2  0  0  3  0  0  0  0  0  0
  160.7670  202.3620  150.4040 C   0  0  0  0  0  2  0  0  0  0  0  0
  161.6770  202.9780  151.4620 C   0  0  0  0  0  2  0  0  0  0  0  0
  161.6350  204.4220  147.5520 C   0  0  0  0  0  0  0  0  0  0  0  0
  161.9540  203.2080  147.4820 O   0  0  0  0  0  1  0  0  0  0  0  0
  161.1790  205.0760  146.4110 O   0  0  0  0  0  0  0  0  0  0  0  0
  160.8000  207.0760  150.0630 C   0  0  0  0  0  2  0  0  0  0  0  0
  161.8080  208.2950  148.2840 O   0  0  0  0  0  1  0  0  0  0  0  0
  162.0640  207.7190  149.5290 C   0  0  0  0  0  2  0  0  0  0  0  0
  158.2770  212.6500  154.9200 N   0  0  0  0  0  2  0  0  0  0  0  0
  155.8790  212.2830  155.0120 C   0  0  0  0  0  2  0  0  0  0  0  0
  157.0000  213.1450  156.9090 C   0  0  0  0  0  2  0  0  0  0  0  0
  157.1830  212.1840  155.7720 C   0  0  2  0  0  3  0  0  0  0  0  0
  155.2720  213.5040  155.3410 O   0  0  0  0  0  0  0  0  0  0  0  0
  155.6270  213.7320  156.6790 C   0  0  0  0  0  2  0  0  0  0  0  0
  160.0470  213.8800  150.7260 C   0  0  0  0  0  2  0  0  0  0  0  0
  159.9080  213.4330  149.2810 C   0  0  0  0  0  2  0  0  0  0  0  0
  161.1670  213.5040  148.6310 O   0  0  0  0  0  0  0  0  0  0  0  0
  161.6230  212.4720  147.8160 C   0  0  0  0  0  0  0  0  0  0  0  0
  162.9420  212.0390  147.8900 O   0  0  0  0  0  1  0  0  0  0  0  0
  160.8340  211.9300  146.9990 O   0  0  0  0  0  0  0  0  0  0  0  0
  1  6  1  0  0  0  0
  1 10  1  0  0  0  0
  2 10  2  0  0  0  0
  2 11  1  0  0  0  0
  3  6  1  0  0  0  0
  4  2  1  0  0  0  0
  5  3  2  0  0  0  0
  6 28  1  1  0  0  0
  7  1  2  0  0  0  0
  8  7  1  0  0  0  0
  8  3  1  0  0  0  0
  9  7  1  0  0  0  0
  9  4  2  0  0  0  0
 12 11  1  0  0  0  0
 13 12  1  0  0  0  0
 14 13  1  0  0  0  0
 15 17  1  6  0  0  0
 15 18  1  0  0  0  0
 16 22  1  6  0  0  0
 16 19  1  0  0  0  0
 16 15  1  0  0  0  0
 17 20  1  0  0  0  0
 18 21  1  0  0  0  0
 18 14  1  1  0  0  0
 19 15  1  0  0  0  0
 19 25  1  1  0  0  0
 20 21  1  0  0  0  0
 23 22  1  0  0  0  0
 24 22  2  0  0  0  0
 26 27  1  0  0  0  0
 27 25  1  0  0  0  0
 29 32  1  0  0  0  0
 29 31  1  0  0  0  0
 31 28  1  6  0  0  0
 31 30  1  0  0  0  0
 32 33  1  0  0  0  0
 33 30  1  0  0  0  0
 34  8  1  0  0  0  0
 35 34  1  0  0  0  0
 36 35  1  0  0  0  0
 37 38  1  0  0  0  0
 37 36  1  0  0  0  0
 39 37  2  0  0  0  0
M  END
>  <MODEL>
9

>  <REMARK>
 VINA RESULT:      -6.8      2.127      5.146
  Name = 
  14 active torsions:
  status: ('A' for Active; 'I' for Inactive)
    1  A    between atoms: C_2  and  C_8
    2  A    between atoms: C_2  and  C_13
    3  A    between atoms: C_4  and  C_7
    4  A    between atoms: C_5  and  O_35
    5  A    between atoms: C_10  and  C_15
    6  A    between atoms: C_12  and  C_13
    7  A    between atoms: C_12  and  C_39
    8  A    between atoms: C_15  and  C_26
    9  A    between atoms: C_19  and  C_32
   10  A    between atoms: C_19  and  O_35
   11  A    between atoms: C_20  and  C_39
   12  A    between atoms: C_21  and  N_23
   13  A    between atoms: N_23  and  C_29
   14  A    between atoms: N_25  and  C_32
                            x       y       z     vdW  Elec       q    Type
                         _______ _______ _______ _____ _____    ______ ____

>  <TORSDO>
F 14

$$$$
