=
 OpenBabel11072414433D

 60 66  0  0  1  0  0  0  0  0999 V2000
  157.8690  213.7730  150.8080 C   0  0  1  0  0  3  0  0  0  0  0  0
  160.2850  211.1990  152.4920 C   0  0  2  0  0  3  0  0  0  0  0  0
  158.1850  211.5360  153.7220 C   0  0  2  0  0  0  0  0  0  0  0  0
  158.1750  212.1310  155.1220 C   0  0  2  0  0  3  0  0  0  0  0  0
  157.2190  211.0040  154.7510 C   0  0  0  0  0  2  0  0  0  0  0  0
  158.4610  212.7230  151.7540 C   0  0  2  0  0  0  0  0  0  0  0  0
  159.2620  210.5130  153.3740 C   0  0  0  0  0  2  0  0  0  0  0  0
  158.8280  214.1830  151.9290 C   0  0  0  0  0  2  0  0  0  0  0  0
  159.5970  211.8050  151.2790 C   0  0  0  0  0  2  0  0  0  0  0  0
  157.5160  212.2250  152.6810 O   0  0  0  0  0  0  0  0  0  0  0  0
  161.7270  211.2080  148.5820 C   0  0  0  0  0  2  0  0  0  0  0  0
  162.8380  211.6990  149.5020 C   0  0  0  0  0  2  0  0  0  0  0  0
  162.4030  213.7530  145.7880 C   0  0  1  0  0  3  0  0  0  0  0  0
  161.4050  212.2640  147.4980 C   0  0  2  0  0  3  0  0  0  0  0  0
  159.4550  213.7560  146.7750 C   0  0  0  0  0  0  0  0  0  0  0  0
  158.6980  213.3670  144.1290 S   0  0  0  0  0  0  0  0  0  0  0  0
  159.9930  213.2080  142.8540 C   0  0  1  0  0  3  0  0  0  0  0  0
  158.4770  213.7810  149.4250 C   0  0  0  0  0  0  0  0  0  0  0  0
  163.7990  212.3670  147.2470 C   0  0  0  0  0  2  0  0  0  0  0  0
  157.7910  214.4520  148.4140 C   0  0  0  0  0  3  0  0  0  0  0  0
  162.5500  213.1360  147.1400 N   0  0  1  0  0  0  0  0  0  0  0  0
  161.3720  213.3980  143.4770 C   0  0  0  0  0  2  0  0  0  0  0  0
  159.6740  213.1190  149.1100 C   0  0  0  0  0  3  0  0  0  0  0  0
  164.1050  212.0480  148.7120 C   0  0  0  0  0  2  0  0  0  0  0  0
  159.9380  213.8940  145.3460 C   0  0  2  0  0  3  0  0  0  0  0  0
  163.6030  213.7460  145.0520 O   0  0  0  0  0  1  0  0  0  0  0  0
  160.1620  213.0720  147.7980 C   0  0  0  0  0  0  0  0  0  0  0  0
  161.2290  213.1930  144.9690 C   0  0  2  0  0  3  0  0  0  0  0  0
  158.2850  214.4530  147.1100 C   0  0  0  0  0  3  0  0  0  0  0  0
  159.8930  211.9280  142.1700 N   0  0  0  0  0  0  0  0  0  0  0  0
  160.2380  210.6940  142.8610 C   0  0  0  0  0  1  0  0  0  0  0  0
  159.3960  211.8750  140.8370 C   0  0  0  0  0  0  0  0  0  0  0  0
  159.3670  210.6300  140.1340 N   0  0  0  0  0  2  0  0  0  0  0  0
  158.9860  212.9290  140.2770 O   0  0  0  0  0  0  0  0  0  0  0  0
  158.9080  210.5190  138.7640 C   0  0  0  0  0  2  0  0  0  0  0  0
  159.5290  209.4500  138.1410 O   0  0  0  0  0  0  0  0  0  0  0  0
  160.6820  209.2280  138.8950 C   0  0  0  0  0  2  0  0  0  0  0  0
  161.8730  209.8300  138.1750 C   0  0  0  0  0  1  0  0  0  0  0  0
  161.3840  210.3020  152.1240 N   0  0  0  0  0  0  0  0  0  0  0  0
  160.0010  208.5610  151.3900 O   0  0  0  0  0  0  0  0  0  0  0  0
  161.1590  209.0470  151.4620 C   0  0  0  0  0  0  0  0  0  0  0  0
  162.5100  208.1910  150.6750 S   0  0  0  0  0  0  0  0  0  0  0  0
  161.3930  207.2990  149.5510 C   0  0  0  0  0  2  0  0  0  0  0  0
  161.6690  205.0260  148.9510 F   0  0  0  0  0  0  0  0  0  0  0  0
  161.9750  205.6160  151.1030 F   0  0  0  0  0  0  0  0  0  0  0  0
  159.8980  205.5710  150.2370 F   0  0  0  0  0  0  0  0  0  0  0  0
  161.2230  205.8500  149.9630 C   0  0  0  0  0  0  0  0  0  0  0  0
  162.7190  210.5940  152.6500 C   0  0  0  0  0  2  0  0  0  0  0  0
  163.0110  209.7810  153.7610 O   0  0  0  0  0  0  0  0  0  0  0  0
  162.3430  210.3130  154.8770 C   0  0  0  0  0  0  0  0  0  0  0  0
  163.1900  210.2320  155.9600 F   0  0  0  0  0  0  0  0  0  0  0  0
  162.0020  211.6460  154.6790 F   0  0  0  0  0  0  0  0  0  0  0  0
  161.2120  209.5800  155.1580 F   0  0  0  0  0  0  0  0  0  0  0  0
  157.9210  214.2380  156.2300 O   0  0  0  0  0  1  0  0  0  0  0  0
  157.3880  213.4320  155.2170 C   0  0  2  0  0  3  0  0  0  0  0  0
  155.8980  213.1470  155.4700 C   0  0  0  0  0  3  0  0  0  0  0  0
  155.0150  213.9360  154.5100 C   0  0  0  0  0  2  0  0  0  0  0  0
  154.5180  213.1140  153.4970 O   0  0  0  0  0  1  0  0  0  0  0  0
  154.3300  212.5860  157.2080 O   0  0  0  0  0  1  0  0  0  0  0  0
  155.4620  213.3630  156.9160 C   0  0  0  0  0  2  0  0  0  0  0  0
  1 18  1  6  0  0  0
  1  6  1  0  0  0  0
  1  8  1  0  0  0  0
  2 39  1  6  0  0  0
  2  7  1  0  0  0  0
  3  7  1  6  0  0  0
  3  5  1  0  0  0  0
  3  4  1  0  0  0  0
  4 55  1  6  0  0  0
  5  4  1  0  0  0  0
  6  9  1  6  0  0  0
  6  8  1  0  0  0  0
  6 10  1  0  0  0  0
  9  2  1  0  0  0  0
 10  3  1  0  0  0  0
 11 12  1  0  0  0  0
 13 26  1  6  0  0  0
 13 21  1  0  0  0  0
 14 27  1  0  0  0  0
 14 11  1  1  0  0  0
 15 29  2  0  0  0  0
 15 27  1  0  0  0  0
 17 30  1  1  0  0  0
 17 22  1  0  0  0  0
 17 16  1  0  0  0  0
 19 24  1  0  0  0  0
 20 18  2  0  0  0  0
 21 19  1  6  0  0  0
 21 14  1  0  0  0  0
 23 18  1  0  0  0  0
 24 12  1  0  0  0  0
 25 16  1  6  0  0  0
 25 15  1  0  0  0  0
 27 23  2  0  0  0  0
 28 22  1  6  0  0  0
 28 25  1  0  0  0  0
 28 13  1  0  0  0  0
 29 20  1  0  0  0  0
 30 31  1  0  0  0  0
 32 30  1  0  0  0  0
 33 32  1  0  0  0  0
 34 32  2  0  0  0  0
 35 33  1  0  0  0  0
 36 35  1  0  0  0  0
 36 37  1  0  0  0  0
 38 37  1  0  0  0  0
 39 48  1  0  0  0  0
 40 41  2  0  0  0  0
 41 39  1  0  0  0  0
 42 41  1  0  0  0  0
 43 47  1  0  0  0  0
 43 42  1  0  0  0  0
 44 47  1  0  0  0  0
 47 46  1  0  0  0  0
 47 45  1  0  0  0  0
 48 49  1  0  0  0  0
 49 50  1  0  0  0  0
 50 53  1  0  0  0  0
 50 51  1  0  0  0  0
 52 50  1  0  0  0  0
 55 56  1  0  0  0  0
 55 54  1  1  0  0  0
 56 60  1  0  0  0  0
 57 56  1  0  0  0  0
 58 57  1  0  0  0  0
 60 59  1  0  0  0  0
M  END
>  <MODEL>
1

>  <REMARK>
 VINA RESULT:      -0.9      0.000      0.000
  Name = 
  16 active torsions:
  status: ('A' for Active; 'I' for Inactive)
    1  A    between atoms: C_4  and  N_14
    2  A    between atoms: C_4  and  O_16
    3  A    between atoms: O_8  and  C_12
    4  A    between atoms: O_8  and  C_52
    5  A    between atoms: C_9  and  C_21
    6  A    between atoms: C_10  and  C_15
    7  A    between atoms: C_13  and  N_23
    8  A    between atoms: N_14  and  C_20
    9  A    between atoms: O_16  and  C_18
   10  A    between atoms: C_21  and  C_33
   11  A    between atoms: C_21  and  C_47
   12  A    between atoms: C_25  and  C_33
   13  A    between atoms: C_39  and  S_45
   14  A    between atoms: C_39  and  C_53
   15  A    between atoms: S_45  and  C_58
   16  A    between atoms: C_52  and  N_55
                            x       y       z     vdW  Elec       q    Type
                         _______ _______ _______ _____ _____    ______ ____

>  <TORSDO>
F 16

$$$$
=
 OpenBabel11072414433D

 60 66  0  0  1  0  0  0  0  0999 V2000
  159.3730  212.0770  153.1580 C   0  0  1  0  0  3  0  0  0  0  0  0
  161.2260  208.6580  152.7400 C   0  0  2  0  0  3  0  0  0  0  0  0
  159.7960  208.7720  154.7350 C   0  0  2  0  0  0  0  0  0  0  0  0
  160.3840  208.6850  156.1360 C   0  0  2  0  0  3  0  0  0  0  0  0
  159.0560  208.0150  155.8090 C   0  0  0  0  0  2  0  0  0  0  0  0
  159.8500  210.6360  153.3640 C   0  0  2  0  0  0  0  0  0  0  0  0
  160.3420  207.8390  153.6590 C   0  0  0  0  0  2  0  0  0  0  0  0
  160.6950  211.7850  153.8730 C   0  0  0  0  0  2  0  0  0  0  0  0
  160.4440  209.8410  152.1920 C   0  0  0  0  0  2  0  0  0  0  0  0
  159.1080  209.9490  154.3550 O   0  0  0  0  0  0  0  0  0  0  0  0
  162.2710  210.6970  149.1430 C   0  0  0  0  0  2  0  0  0  0  0  0
  163.6270  210.9430  149.7930 C   0  0  0  0  0  2  0  0  0  0  0  0
  162.1210  214.0650  147.3050 C   0  0  1  0  0  3  0  0  0  0  0  0
  161.6600  212.0230  148.6290 C   0  0  2  0  0  3  0  0  0  0  0  0
  159.6270  213.5130  149.0760 C   0  0  0  0  0  0  0  0  0  0  0  0
  158.0750  213.9590  146.8140 S   0  0  0  0  0  0  0  0  0  0  0  0
  158.9040  214.3300  145.2330 C   0  0  1  0  0  3  0  0  0  0  0  0
  159.5220  212.5880  151.7440 C   0  0  0  0  0  0  0  0  0  0  0  0
  163.8600  212.3890  147.7170 C   0  0  0  0  0  2  0  0  0  0  0  0
  158.5760  213.4980  151.2750 C   0  0  0  0  0  3  0  0  0  0  0  0
  162.6620  213.0500  148.2590 N   0  0  1  0  0  0  0  0  0  0  0  0
  160.4130  214.4110  145.4360 C   0  0  0  0  0  2  0  0  0  0  0  0
  160.5410  212.1620  150.8780 C   0  0  0  0  0  3  0  0  0  0  0  0
  164.5960  211.6310  148.8240 C   0  0  0  0  0  2  0  0  0  0  0  0
  159.6470  214.1510  147.7030 C   0  0  2  0  0  3  0  0  0  0  0  0
  163.0330  214.3940  146.2840 O   0  0  0  0  0  1  0  0  0  0  0  0
  160.5960  212.5870  149.5440 C   0  0  0  0  0  0  0  0  0  0  0  0
  160.7350  213.7160  146.7400 C   0  0  2  0  0  3  0  0  0  0  0  0
  158.6400  213.9670  149.9640 C   0  0  0  0  0  3  0  0  0  0  0  0
  158.5590  213.3420  144.2220 N   0  0  0  0  0  0  0  0  0  0  0  0
  157.6180  212.2740  144.5260 C   0  0  0  0  0  1  0  0  0  0  0  0
  159.0970  213.4560  142.9080 C   0  0  0  0  0  0  0  0  0  0  0  0
  158.8220  212.4480  141.9340 N   0  0  0  0  0  2  0  0  0  0  0  0
  159.8190  214.4470  142.6100 O   0  0  0  0  0  0  0  0  0  0  0  0
  159.3710  212.4880  140.5930 C   0  0  0  0  0  2  0  0  0  0  0  0
  158.4850  213.1170  139.7350 O   0  0  0  0  0  0  0  0  0  0  0  0
  157.3800  212.2660  139.6910 C   0  0  0  0  0  2  0  0  0  0  0  0
  156.3400  212.8480  138.7530 C   0  0  0  0  0  1  0  0  0  0  0  0
  161.8250  207.8420  151.6810 N   0  0  0  0  0  0  0  0  0  0  0  0
  160.4600  208.6760  149.9720 O   0  0  0  0  0  0  0  0  0  0  0  0
  161.4700  208.0000  150.2990 C   0  0  0  0  0  0  0  0  0  0  0  0
  162.4950  207.2960  149.0210 S   0  0  0  0  0  0  0  0  0  0  0  0
  161.1010  207.1800  147.8590 C   0  0  0  0  0  2  0  0  0  0  0  0
  162.2940  206.3520  145.9900 F   0  0  0  0  0  0  0  0  0  0  0  0
  161.6300  204.8950  147.5740 F   0  0  0  0  0  0  0  0  0  0  0  0
  160.1140  205.8030  146.1790 F   0  0  0  0  0  0  0  0  0  0  0  0
  161.2840  206.0410  146.8750 C   0  0  0  0  0  0  0  0  0  0  0  0
  162.6350  206.6860  152.0750 C   0  0  0  0  0  2  0  0  0  0  0  0
  161.8730  205.7680  152.8220 O   0  0  0  0  0  0  0  0  0  0  0  0
  161.5100  204.7090  151.9710 C   0  0  0  0  0  0  0  0  0  0  0  0
  162.5090  204.5500  151.0380 F   0  0  0  0  0  0  0  0  0  0  0  0
  161.3640  203.5190  152.6730 F   0  0  0  0  0  0  0  0  0  0  0  0
  160.3410  205.0030  151.3050 F   0  0  0  0  0  0  0  0  0  0  0  0
  159.0910  210.6830  156.3980 O   0  0  0  0  0  1  0  0  0  0  0  0
  160.1150  209.9250  156.9790 C   0  0  2  0  0  3  0  0  0  0  0  0
  161.3960  210.7630  157.1330 C   0  0  0  0  0  3  0  0  0  0  0  0
  161.1970  212.1750  156.5950 C   0  0  0  0  0  2  0  0  0  0  0  0
  160.1400  212.8150  157.2470 O   0  0  0  0  0  1  0  0  0  0  0  0
  163.6650  211.0630  156.3880 O   0  0  0  0  0  1  0  0  0  0  0  0
  162.6370  210.1160  156.5270 C   0  0  0  0  0  2  0  0  0  0  0  0
  1 18  1  6  0  0  0
  1  6  1  0  0  0  0
  1  8  1  0  0  0  0
  2 39  1  6  0  0  0
  2  7  1  0  0  0  0
  3  7  1  6  0  0  0
  3  5  1  0  0  0  0
  3  4  1  0  0  0  0
  4 55  1  1  0  0  0
  5  4  1  0  0  0  0
  6  9  1  6  0  0  0
  6  8  1  0  0  0  0
  6 10  1  0  0  0  0
  9  2  1  0  0  0  0
 10  3  1  0  0  0  0
 11 12  1  0  0  0  0
 13 26  1  6  0  0  0
 13 21  1  0  0  0  0
 14 11  1  1  0  0  0
 14 27  1  0  0  0  0
 15 27  2  0  0  0  0
 15 29  1  0  0  0  0
 17 30  1  6  0  0  0
 17 22  1  0  0  0  0
 17 16  1  0  0  0  0
 19 24  1  0  0  0  0
 20 18  1  0  0  0  0
 21 19  1  6  0  0  0
 21 14  1  0  0  0  0
 23 18  2  0  0  0  0
 24 12  1  0  0  0  0
 25 16  1  6  0  0  0
 25 15  1  0  0  0  0
 27 23  1  0  0  0  0
 28 22  1  6  0  0  0
 28 13  1  0  0  0  0
 28 25  1  0  0  0  0
 29 20  2  0  0  0  0
 30 31  1  0  0  0  0
 32 30  1  0  0  0  0
 33 32  1  0  0  0  0
 34 32  2  0  0  0  0
 35 33  1  0  0  0  0
 36 35  1  0  0  0  0
 37 36  1  0  0  0  0
 38 37  1  0  0  0  0
 39 48  1  0  0  0  0
 40 41  2  0  0  0  0
 41 39  1  0  0  0  0
 42 41  1  0  0  0  0
 43 42  1  0  0  0  0
 44 47  1  0  0  0  0
 46 47  1  0  0  0  0
 47 45  1  0  0  0  0
 47 43  1  0  0  0  0
 48 49  1  0  0  0  0
 50 52  1  0  0  0  0
 50 49  1  0  0  0  0
 51 50  1  0  0  0  0
 53 50  1  0  0  0  0
 55 54  1  6  0  0  0
 55 56  1  0  0  0  0
 57 56  1  0  0  0  0
 57 58  1  0  0  0  0
 59 60  1  0  0  0  0
 60 56  1  0  0  0  0
M  END
>  <MODEL>
2

>  <REMARK>
 VINA RESULT:       1.3      2.849      3.961
  Name = 
  16 active torsions:
  status: ('A' for Active; 'I' for Inactive)
    1  A    between atoms: C_4  and  N_14
    2  A    between atoms: C_4  and  O_16
    3  A    between atoms: O_8  and  C_12
    4  A    between atoms: O_8  and  C_52
    5  A    between atoms: C_9  and  C_21
    6  A    between atoms: C_10  and  C_15
    7  A    between atoms: C_13  and  N_23
    8  A    between atoms: N_14  and  C_20
    9  A    between atoms: O_16  and  C_18
   10  A    between atoms: C_21  and  C_33
   11  A    between atoms: C_21  and  C_47
   12  A    between atoms: C_25  and  C_33
   13  A    between atoms: C_39  and  S_45
   14  A    between atoms: C_39  and  C_53
   15  A    between atoms: S_45  and  C_58
   16  A    between atoms: C_52  and  N_55
                            x       y       z     vdW  Elec       q    Type
                         _______ _______ _______ _____ _____    ______ ____

>  <TORSDO>
F 16

$$$$
