=
 OpenBabel11072415023D

 39 41  0  0  1  0  0  0  0  0999 V2000
  161.5360  209.4790  153.4660 C   0  0  1  0  0  3  0  0  0  0  0  0
  160.4680  208.4020  153.2670 C   0  0  2  0  0  3  0  0  0  0  0  0
  162.3620  209.7960  151.8700 S   0  0  0  0  0  0  0  0  0  0  0  0
  160.1440  207.6370  154.5400 C   0  0  0  0  0  1  0  0  0  0  0  0
  161.3700  208.5200  151.0350 C   0  0  2  0  0  3  0  0  0  0  0  0
  160.8590  207.5300  152.0790 C   0  0  1  0  0  3  0  0  0  0  0  0
  158.9600  211.3930  152.7840 C   0  0  0  0  0  2  0  0  0  0  0  0
  162.1430  210.6550  156.2190 O   0  0  0  0  0  0  0  0  0  0  0  0
  159.5480  210.9980  153.9050 C   0  0  0  0  0  0  0  0  0  0  0  0
  161.0200  210.7990  154.0670 C   0  0  1  0  0  3  0  0  0  0  0  0
  159.8110  210.9910  156.1630 N   0  0  0  0  0  0  0  0  0  0  0  0
  161.0820  210.7940  155.5550 C   0  0  0  0  0  0  0  0  0  0  0  0
  158.9330  211.1210  155.2240 C   0  0  0  0  0  3  0  0  0  0  0  0
  162.0540  206.2170  152.4530 S   0  0  0  0  0  0  0  0  0  0  0  0
  163.4480  206.6850  152.1380 O   0  0  0  0  0  0  0  0  0  0  0  0
  161.9840  205.9290  153.9270 O   0  0  0  0  0  0  0  0  0  0  0  0
  160.5680  202.5150  150.0210 C   0  0  0  0  0  0  0  0  0  0  0  0
  160.1970  201.1980  148.9250 Cl  0  0  0  0  0  0  0  0  0  0  0  0
  161.1120  202.1690  151.3840 C   0  0  0  0  0  2  0  0  0  0  0  0
  160.8720  203.4930  152.6130 S   0  0  0  0  0  0  0  0  0  0  0  0
  160.5060  203.7700  149.5510 C   0  0  0  0  0  3  0  0  0  0  0  0
  161.7020  204.7120  151.5480 C   0  0  1  0  0  3  0  0  0  0  0  0
  160.7890  205.0020  150.3680 C   0  0  0  0  0  2  0  0  0  0  0  0
  162.1090  207.9060  150.0230 O   0  0  0  0  0  0  0  0  0  0  0  0
  161.9160  208.7120  148.9000 C   0  0  0  0  0  2  0  0  0  0  0  0
  161.9100  207.8580  147.6460 C   0  0  0  0  0  2  0  0  0  0  0  0
  160.6900  206.9510  147.6350 C   0  0  0  0  0  2  0  0  0  0  0  0
  160.3590  206.4350  145.2440 C   0  0  0  0  0  1  0  0  0  0  0  0
  160.8270  205.8730  146.5690 C   0  0  1  0  0  3  0  0  0  0  0  0
  162.2790  205.4460  146.4330 C   0  0  0  0  0  2  0  0  0  0  0  0
  163.7460  203.9410  145.3160 O   0  0  0  0  0  1  0  0  0  0  0  0
  162.3990  204.2290  145.5300 C   0  0  1  0  0  3  0  0  0  0  0  0
  161.7190  203.0320  146.1740 C   0  0  0  0  0  2  0  0  0  0  0  0
  160.6630  202.4870  145.2680 C   0  0  0  0  0  0  0  0  0  0  0  0
  160.0350  203.2780  144.5140 O   0  0  0  0  0  0  0  0  0  0  0  0
  160.3300  201.0520  145.2730 C   0  0  0  0  0  0  0  0  0  0  0  0
  159.3740  200.6240  144.5690 O   0  0  0  0  0  0  0  0  0  0  0  0
  161.3600  198.9180  145.6860 N   0  0  0  0  0  2  0  0  0  0  0  0
  161.1090  200.1170  146.0960 C   0  0  0  0  0  3  0  0  0  0  0  0
  1  3  1  6  0  0  0
  1 10  1  0  0  0  0
  2  1  1  0  0  0  0
  2  4  1  1  0  0  0
  5 24  1  6  0  0  0
  5  3  1  0  0  0  0
  5  6  1  0  0  0  0
  6 14  1  1  0  0  0
  6  2  1  0  0  0  0
  7  9  2  0  0  0  0
  9 13  1  0  0  0  0
 10  9  1  1  0  0  0
 10 12  1  0  0  0  0
 12 11  1  0  0  0  0
 12  8  2  0  0  0  0
 13 11  2  0  0  0  0
 14 16  2  0  0  0  0
 15 14  2  0  0  0  0
 17 19  1  0  0  0  0
 18 17  1  0  0  0  0
 19 20  1  0  0  0  0
 21 17  2  0  0  0  0
 21 23  1  0  0  0  0
 22 14  1  1  0  0  0
 22 20  1  0  0  0  0
 23 22  1  0  0  0  0
 25 24  1  0  0  0  0
 26 25  1  0  0  0  0
 27 26  1  0  0  0  0
 29 28  1  6  0  0  0
 29 27  1  0  0  0  0
 30 29  1  0  0  0  0
 32 31  1  1  0  0  0
 32 33  1  0  0  0  0
 32 30  1  0  0  0  0
 34 36  1  0  0  0  0
 34 33  1  0  0  0  0
 35 34  2  0  0  0  0
 36 39  1  0  0  0  0
 37 36  2  0  0  0  0
 38 39  2  0  0  0  0
M  END
>  <MODEL>
1

>  <REMARK>
 VINA RESULT:      -6.0      0.000      0.000
  Name = 
  14 active torsions:
  status: ('A' for Active; 'I' for Inactive)
    1  A    between atoms: C_1  and  C_10
    2  A    between atoms: C_1  and  C_34
    3  A    between atoms: S_4  and  C_33
    4  A    between atoms: S_4  and  C_38
    5  A    between atoms: C_8  and  C_13
    6  A    between atoms: C_10  and  C_36
    7  A    between atoms: C_17  and  C_26
    8  A    between atoms: C_17  and  C_34
    9  A    between atoms: O_20  and  C_27
   10  A    between atoms: O_20  and  C_32
   11  A    between atoms: C_21  and  C_25
   12  A    between atoms: C_21  and  C_27
   13  A    between atoms: C_23  and  C_25
   14  A    between atoms: C_23  and  C_26
                            x       y       z     vdW  Elec       q    Type
                         _______ _______ _______ _____ _____    ______ ____

>  <TORSDO>
F 14

$$$$
=
 OpenBabel11072415023D

 39 41  0  0  1  0  0  0  0  0999 V2000
  161.5760  209.2730  153.5440 C   0  0  1  0  0  3  0  0  0  0  0  0
  160.5740  208.1750  153.1820 C   0  0  2  0  0  3  0  0  0  0  0  0
  162.3420  209.9060  152.0140 S   0  0  0  0  0  0  0  0  0  0  0  0
  160.3300  207.1880  154.3120 C   0  0  0  0  0  1  0  0  0  0  0  0
  161.4130  208.7230  150.9900 C   0  0  2  0  0  3  0  0  0  0  0  0
  160.9910  207.5410  151.8590 C   0  0  1  0  0  3  0  0  0  0  0  0
  159.0200  211.2750  153.0820 C   0  0  0  0  0  2  0  0  0  0  0  0
  161.9570  209.8530  156.5200 O   0  0  0  0  0  0  0  0  0  0  0  0
  159.5320  210.6590  154.1370 C   0  0  0  0  0  0  0  0  0  0  0  0
  160.9920  210.4360  154.3650 C   0  0  1  0  0  3  0  0  0  0  0  0
  159.6300  210.1830  156.3580 N   0  0  0  0  0  0  0  0  0  0  0  0
  160.9450  210.1220  155.8200 C   0  0  0  0  0  0  0  0  0  0  0  0
  158.8200  210.5020  155.4030 C   0  0  0  0  0  3  0  0  0  0  0  0
  162.2760  206.2670  151.9920 S   0  0  0  0  0  0  0  0  0  0  0  0
  163.5850  206.8000  151.4800 O   0  0  0  0  0  0  0  0  0  0  0  0
  162.4500  205.9300  153.4470 O   0  0  0  0  0  0  0  0  0  0  0  0
  160.6090  202.6680  149.5220 C   0  0  0  0  0  0  0  0  0  0  0  0
  160.1960  201.3600  148.4310 Cl  0  0  0  0  0  0  0  0  0  0  0  0
  160.9600  202.3180  150.9460 C   0  0  0  0  0  2  0  0  0  0  0  0
  160.7580  203.7130  152.1020 S   0  0  0  0  0  0  0  0  0  0  0  0
  160.7520  203.9010  149.0110 C   0  0  0  0  0  3  0  0  0  0  0  0
  161.8380  204.7770  151.0990 C   0  0  1  0  0  3  0  0  0  0  0  0
  161.0970  205.1240  149.8180 C   0  0  0  0  0  2  0  0  0  0  0  0
  162.1660  208.3370  149.8790 O   0  0  0  0  0  0  0  0  0  0  0  0
  161.6230  209.0560  148.8120 C   0  0  0  0  0  2  0  0  0  0  0  0
  162.3610  210.3710  148.6490 C   0  0  0  0  0  2  0  0  0  0  0  0
  161.3950  211.5360  148.7850 C   0  0  0  0  0  2  0  0  0  0  0  0
  163.3690  212.5240  147.6830 C   0  0  0  0  0  1  0  0  0  0  0  0
  162.0580  212.8410  148.3700 C   0  0  1  0  0  3  0  0  0  0  0  0
  161.1680  213.6010  147.4000 C   0  0  0  0  0  2  0  0  0  0  0  0
  159.7920  212.3300  145.9320 O   0  0  0  0  0  1  0  0  0  0  0  0
  161.0720  212.8660  146.0730 C   0  0  1  0  0  3  0  0  0  0  0  0
  161.3510  213.8220  144.9260 C   0  0  0  0  0  2  0  0  0  0  0  0
  162.2170  213.1620  143.9010 C   0  0  0  0  0  0  0  0  0  0  0  0
  163.4650  213.1380  144.0780 O   0  0  0  0  0  0  0  0  0  0  0  0
  161.6330  212.5760  142.6820 C   0  0  0  0  0  0  0  0  0  0  0  0
  162.3420  211.8520  141.9290 O   0  0  0  0  0  0  0  0  0  0  0  0
  159.9080  213.6760  141.4190 N   0  0  0  0  0  2  0  0  0  0  0  0
  160.2270  212.8310  142.3420 C   0  0  0  0  0  3  0  0  0  0  0  0
  1  3  1  6  0  0  0
  1 10  1  0  0  0  0
  2  1  1  0  0  0  0
  2  4  1  1  0  0  0
  5 24  1  6  0  0  0
  5  6  1  0  0  0  0
  5  3  1  0  0  0  0
  6 14  1  1  0  0  0
  6  2  1  0  0  0  0
  7  9  2  0  0  0  0
  9 13  1  0  0  0  0
 10  9  1  6  0  0  0
 10 12  1  0  0  0  0
 12 11  1  0  0  0  0
 12  8  2  0  0  0  0
 13 11  2  0  0  0  0
 14 16  2  0  0  0  0
 15 14  2  0  0  0  0
 17 19  1  0  0  0  0
 18 17  1  0  0  0  0
 19 20  1  0  0  0  0
 21 17  2  0  0  0  0
 21 23  1  0  0  0  0
 22 14  1  1  0  0  0
 22 20  1  0  0  0  0
 23 22  1  0  0  0  0
 25 24  1  0  0  0  0
 26 27  1  0  0  0  0
 26 25  1  0  0  0  0
 29 28  1  6  0  0  0
 29 27  1  0  0  0  0
 30 29  1  0  0  0  0
 32 31  1  6  0  0  0
 32 30  1  0  0  0  0
 33 32  1  0  0  0  0
 34 35  2  0  0  0  0
 34 33  1  0  0  0  0
 36 34  1  0  0  0  0
 37 36  2  0  0  0  0
 38 39  2  0  0  0  0
 39 36  1  0  0  0  0
M  END
>  <MODEL>
2

>  <REMARK>
 VINA RESULT:      -5.8      4.216      6.030
  Name = 
  14 active torsions:
  status: ('A' for Active; 'I' for Inactive)
    1  A    between atoms: C_1  and  C_10
    2  A    between atoms: C_1  and  C_34
    3  A    between atoms: S_4  and  C_33
    4  A    between atoms: S_4  and  C_38
    5  A    between atoms: C_8  and  C_13
    6  A    between atoms: C_10  and  C_36
    7  A    between atoms: C_17  and  C_26
    8  A    between atoms: C_17  and  C_34
    9  A    between atoms: O_20  and  C_27
   10  A    between atoms: O_20  and  C_32
   11  A    between atoms: C_21  and  C_25
   12  A    between atoms: C_21  and  C_27
   13  A    between atoms: C_23  and  C_25
   14  A    between atoms: C_23  and  C_26
                            x       y       z     vdW  Elec       q    Type
                         _______ _______ _______ _____ _____    ______ ____

>  <TORSDO>
F 14

$$$$
=
 OpenBabel11072415023D

 39 41  0  0  1  0  0  0  0  0999 V2000
  159.8400  210.3520  155.2300 C   0  0  1  0  0  3  0  0  0  0  0  0
  160.1260  211.8430  155.0380 C   0  0  2  0  0  3  0  0  0  0  0  0
  160.5870  209.4220  153.8490 S   0  0  0  0  0  0  0  0  0  0  0  0
  159.1100  212.7420  155.7230 C   0  0  0  0  0  1  0  0  0  0  0  0
  161.1760  210.9520  153.0600 C   0  0  2  0  0  3  0  0  0  0  0  0
  160.3270  212.1210  153.5520 C   0  0  1  0  0  3  0  0  0  0  0  0
  159.6750  207.3550  156.5510 C   0  0  0  0  0  2  0  0  0  0  0  0
  161.9650  211.4650  157.1210 O   0  0  0  0  0  0  0  0  0  0  0  0
  160.5980  208.3050  156.5290 C   0  0  0  0  0  0  0  0  0  0  0  0
  160.3090  209.7710  156.5760 C   0  0  1  0  0  3  0  0  0  0  0  0
  162.6040  209.1980  157.1160 N   0  0  0  0  0  0  0  0  0  0  0  0
  161.6670  210.2540  156.9470 C   0  0  0  0  0  0  0  0  0  0  0  0
  161.9950  208.0810  156.8900 C   0  0  0  0  0  3  0  0  0  0  0  0
  158.7980  212.3350  152.6000 S   0  0  0  0  0  0  0  0  0  0  0  0
  157.9700  211.0820  152.6670 O   0  0  0  0  0  0  0  0  0  0  0  0
  158.0070  213.4470  153.2310 O   0  0  0  0  0  0  0  0  0  0  0  0
  159.7470  213.9990  148.3380 C   0  0  0  0  0  0  0  0  0  0  0  0
  160.3150  214.4530  146.7430 Cl  0  0  0  0  0  0  0  0  0  0  0  0
  158.3960  213.3370  148.4460 C   0  0  0  0  0  2  0  0  0  0  0  0
  157.6550  213.4790  150.1050 S   0  0  0  0  0  0  0  0  0  0  0  0
  160.5960  214.1090  149.3710 C   0  0  0  0  0  3  0  0  0  0  0  0
  159.1260  212.7530  150.8890 C   0  0  1  0  0  3  0  0  0  0  0  0
  160.2550  213.7660  150.7960 C   0  0  0  0  0  2  0  0  0  0  0  0
  161.1670  210.8230  151.6700 O   0  0  0  0  0  0  0  0  0  0  0  0
  162.2170  209.9480  151.3850 C   0  0  0  0  0  2  0  0  0  0  0  0
  161.7520  208.8880  150.4040 C   0  0  0  0  0  2  0  0  0  0  0  0
  161.8250  207.5110  151.0440 C   0  0  0  0  0  2  0  0  0  0  0  0
  160.8070  205.2980  150.6470 C   0  0  0  0  0  1  0  0  0  0  0  0
  161.5990  206.4200  150.0080 C   0  0  1  0  0  3  0  0  0  0  0  0
  160.8110  206.9650  148.8290 C   0  0  0  0  0  2  0  0  0  0  0  0
  160.5020  206.6890  146.4850 O   0  0  0  0  0  1  0  0  0  0  0  0
  160.8930  206.0180  147.6440 C   0  0  1  0  0  3  0  0  0  0  0  0
  162.3150  205.5080  147.4800 C   0  0  0  0  0  2  0  0  0  0  0  0
  162.3490  204.3700  146.5120 C   0  0  0  0  0  0  0  0  0  0  0  0
  163.1920  204.3880  145.5760 O   0  0  0  0  0  0  0  0  0  0  0  0
  161.3930  203.2550  146.6240 C   0  0  0  0  0  0  0  0  0  0  0  0
  160.9120  202.7310  145.5810 O   0  0  0  0  0  0  0  0  0  0  0  0
  161.3960  201.5930  148.3630 N   0  0  0  0  0  2  0  0  0  0  0  0
  160.9990  202.7500  147.9450 C   0  0  0  0  0  3  0  0  0  0  0  0
  1  3  1  6  0  0  0
  1 10  1  0  0  0  0
  2  1  1  0  0  0  0
  2  4  1  6  0  0  0
  5 24  1  6  0  0  0
  5  6  1  0  0  0  0
  5  3  1  0  0  0  0
  6 14  1  6  0  0  0
  6  2  1  0  0  0  0
  9  7  2  0  0  0  0
  9 13  1  0  0  0  0
 10  9  1  6  0  0  0
 10 12  1  0  0  0  0
 12 11  1  0  0  0  0
 12  8  2  0  0  0  0
 13 11  2  0  0  0  0
 14 15  2  0  0  0  0
 14 16  2  0  0  0  0
 17 19  1  0  0  0  0
 17 21  2  0  0  0  0
 18 17  1  0  0  0  0
 19 20  1  0  0  0  0
 20 22  1  0  0  0  0
 21 23  1  0  0  0  0
 22 14  1  1  0  0  0
 23 22  1  0  0  0  0
 25 24  1  0  0  0  0
 26 27  1  0  0  0  0
 26 25  1  0  0  0  0
 29 28  1  1  0  0  0
 29 27  1  0  0  0  0
 30 29  1  0  0  0  0
 32 31  1  6  0  0  0
 32 30  1  0  0  0  0
 33 32  1  0  0  0  0
 34 36  1  0  0  0  0
 34 33  1  0  0  0  0
 35 34  2  0  0  0  0
 36 39  1  0  0  0  0
 37 36  2  0  0  0  0
 39 38  2  0  0  0  0
M  END
>  <MODEL>
3

>  <REMARK>
 VINA RESULT:      -5.6      3.602      5.939
  Name = 
  14 active torsions:
  status: ('A' for Active; 'I' for Inactive)
    1  A    between atoms: C_1  and  C_10
    2  A    between atoms: C_1  and  C_34
    3  A    between atoms: S_4  and  C_33
    4  A    between atoms: S_4  and  C_38
    5  A    between atoms: C_8  and  C_13
    6  A    between atoms: C_10  and  C_36
    7  A    between atoms: C_17  and  C_26
    8  A    between atoms: C_17  and  C_34
    9  A    between atoms: O_20  and  C_27
   10  A    between atoms: O_20  and  C_32
   11  A    between atoms: C_21  and  C_25
   12  A    between atoms: C_21  and  C_27
   13  A    between atoms: C_23  and  C_25
   14  A    between atoms: C_23  and  C_26
                            x       y       z     vdW  Elec       q    Type
                         _______ _______ _______ _____ _____    ______ ____

>  <TORSDO>
F 14

$$$$
=
 OpenBabel11072415023D

 39 41  0  0  1  0  0  0  0  0999 V2000
  161.1770  204.4040  148.8490 C   0  0  1  0  0  3  0  0  0  0  0  0
  160.3240  205.6570  148.6430 C   0  0  2  0  0  3  0  0  0  0  0  0
  161.5550  204.2280  150.6250 S   0  0  0  0  0  0  0  0  0  0  0  0
  160.4440  206.2420  147.2460 C   0  0  0  0  0  1  0  0  0  0  0  0
  160.6740  205.7690  151.0250 C   0  0  2  0  0  3  0  0  0  0  0  0
  160.6090  206.6410  149.7740 C   0  0  1  0  0  3  0  0  0  0  0  0
  161.2450  202.9470  145.9110 C   0  0  0  0  0  2  0  0  0  0  0  0
  160.2150  201.9770  150.4350 O   0  0  0  0  0  0  0  0  0  0  0  0
  161.3100  202.5110  147.1600 C   0  0  0  0  0  0  0  0  0  0  0  0
  160.5570  203.1030  148.3080 C   0  0  1  0  0  3  0  0  0  0  0  0
  161.4160  200.8740  148.7340 N   0  0  0  0  0  0  0  0  0  0  0  0
  160.6970  201.9770  149.2710 C   0  0  0  0  0  0  0  0  0  0  0  0
  161.7580  201.1690  147.5230 C   0  0  0  0  0  3  0  0  0  0  0  0
  162.0900  207.6620  149.5450 S   0  0  0  0  0  0  0  0  0  0  0  0
  163.0700  207.4050  150.6570 O   0  0  0  0  0  0  0  0  0  0  0  0
  162.7410  207.2570  148.2520 O   0  0  0  0  0  0  0  0  0  0  0  0
  161.6660  212.3070  149.2670 C   0  0  0  0  0  0  0  0  0  0  0  0
  161.3490  214.0010  148.9460 Cl  0  0  0  0  0  0  0  0  0  0  0  0
  161.1630  211.7260  150.5650 C   0  0  0  0  0  2  0  0  0  0  0  0
  162.0480  210.2150  151.0690 S   0  0  0  0  0  0  0  0  0  0  0  0
  162.1950  211.5610  148.2850 C   0  0  0  0  0  3  0  0  0  0  0  0
  161.6970  209.4080  149.4770 C   0  0  1  0  0  3  0  0  0  0  0  0
  162.5290  210.0990  148.4080 C   0  0  0  0  0  2  0  0  0  0  0  0
  161.2800  206.4160  152.1050 O   0  0  0  0  0  0  0  0  0  0  0  0
  161.1850  205.5100  153.1630 C   0  0  0  0  0  2  0  0  0  0  0  0
  161.1710  206.2590  154.4820 C   0  0  0  0  0  2  0  0  0  0  0  0
  160.8300  207.7220  154.2510 C   0  0  0  0  0  2  0  0  0  0  0  0
  159.9150  207.2560  156.4960 C   0  0  0  0  0  1  0  0  0  0  0  0
  160.2780  208.3560  155.5200 C   0  0  1  0  0  3  0  0  0  0  0  0
  161.3230  209.2530  156.1610 C   0  0  0  0  0  2  0  0  0  0  0  0
  161.6940  211.0310  154.6230 O   0  0  0  0  0  1  0  0  0  0  0  0
  161.0600  210.7110  155.8230 C   0  0  1  0  0  3  0  0  0  0  0  0
  159.5660  210.9540  155.6890 C   0  0  0  0  0  2  0  0  0  0  0  0
  159.3120  212.1850  154.8800 C   0  0  0  0  0  0  0  0  0  0  0  0
  159.5870  213.3110  155.3750 O   0  0  0  0  0  0  0  0  0  0  0  0
  158.7170  212.0960  153.5350 C   0  0  0  0  0  0  0  0  0  0  0  0
  158.7900  211.0170  152.8840 O   0  0  0  0  0  0  0  0  0  0  0  0
  156.8420  213.5860  153.3170 N   0  0  0  0  0  2  0  0  0  0  0  0
  158.0370  213.2590  152.9510 C   0  0  0  0  0  3  0  0  0  0  0  0
  1  3  1  1  0  0  0
  2  4  1  6  0  0  0
  2  1  1  0  0  0  0
  2  6  1  0  0  0  0
  3  5  1  0  0  0  0
  5 24  1  1  0  0  0
  6 14  1  6  0  0  0
  6  5  1  0  0  0  0
  7  9  2  0  0  0  0
  9 13  1  0  0  0  0
 10  9  1  6  0  0  0
 10  1  1  0  0  0  0
 10 12  1  0  0  0  0
 11 12  1  0  0  0  0
 12  8  2  0  0  0  0
 13 11  2  0  0  0  0
 14 15  2  0  0  0  0
 16 14  2  0  0  0  0
 17 19  1  0  0  0  0
 18 17  1  0  0  0  0
 19 20  1  0  0  0  0
 21 23  1  0  0  0  0
 21 17  2  0  0  0  0
 22 14  1  1  0  0  0
 22 20  1  0  0  0  0
 23 22  1  0  0  0  0
 24 25  1  0  0  0  0
 25 26  1  0  0  0  0
 27 26  1  0  0  0  0
 27 29  1  0  0  0  0
 29 30  1  0  0  0  0
 29 28  1  1  0  0  0
 32 31  1  6  0  0  0
 32 30  1  0  0  0  0
 33 32  1  0  0  0  0
 34 35  2  0  0  0  0
 34 33  1  0  0  0  0
 36 34  1  0  0  0  0
 37 36  2  0  0  0  0
 39 38  2  0  0  0  0
 39 36  1  0  0  0  0
M  END
>  <MODEL>
4

>  <REMARK>
 VINA RESULT:      -5.6      3.126      9.938
  Name = 
  14 active torsions:
  status: ('A' for Active; 'I' for Inactive)
    1  A    between atoms: C_1  and  C_10
    2  A    between atoms: C_1  and  C_34
    3  A    between atoms: S_4  and  C_33
    4  A    between atoms: S_4  and  C_38
    5  A    between atoms: C_8  and  C_13
    6  A    between atoms: C_10  and  C_36
    7  A    between atoms: C_17  and  C_26
    8  A    between atoms: C_17  and  C_34
    9  A    between atoms: O_20  and  C_27
   10  A    between atoms: O_20  and  C_32
   11  A    between atoms: C_21  and  C_25
   12  A    between atoms: C_21  and  C_27
   13  A    between atoms: C_23  and  C_25
   14  A    between atoms: C_23  and  C_26
                            x       y       z     vdW  Elec       q    Type
                         _______ _______ _______ _____ _____    ______ ____

>  <TORSDO>
F 14

$$$$
=
 OpenBabel11072415023D

 39 41  0  0  1  0  0  0  0  0999 V2000
  159.8220  210.4500  155.3720 C   0  0  1  0  0  3  0  0  0  0  0  0
  160.3850  211.8440  155.0910 C   0  0  2  0  0  3  0  0  0  0  0  0
  160.1950  209.3630  153.9550 S   0  0  0  0  0  0  0  0  0  0  0  0
  159.6640  212.9470  155.8480 C   0  0  0  0  0  1  0  0  0  0  0  0
  160.9920  210.7220  153.0460 C   0  0  2  0  0  3  0  0  0  0  0  0
  160.4660  212.0510  153.5820 C   0  0  1  0  0  3  0  0  0  0  0  0
  159.6160  207.4070  156.5800 C   0  0  0  0  0  2  0  0  0  0  0  0
  162.0290  211.4340  157.2420 O   0  0  0  0  0  0  0  0  0  0  0  0
  160.5630  208.3350  156.5670 C   0  0  0  0  0  0  0  0  0  0  0  0
  160.3130  209.8040  156.6800 C   0  0  1  0  0  3  0  0  0  0  0  0
  162.6080  209.1530  157.1290 N   0  0  0  0  0  0  0  0  0  0  0  0
  161.6940  210.2380  157.0300 C   0  0  0  0  0  0  0  0  0  0  0  0
  161.9630  208.0610  156.8790 C   0  0  0  0  0  3  0  0  0  0  0  0
  158.9140  212.5660  152.7970 S   0  0  0  0  0  0  0  0  0  0  0  0
  157.8680  211.5000  152.9740 O   0  0  0  0  0  0  0  0  0  0  0  0
  158.4310  213.8090  153.4900 O   0  0  0  0  0  0  0  0  0  0  0  0
  159.5870  214.0630  148.4220 C   0  0  0  0  0  0  0  0  0  0  0  0
  160.0500  214.4530  146.7770 Cl  0  0  0  0  0  0  0  0  0  0  0  0
  158.2410  213.4230  148.6460 C   0  0  0  0  0  2  0  0  0  0  0  0
  157.6150  213.6340  150.3450 S   0  0  0  0  0  0  0  0  0  0  0  0
  160.5060  214.2000  149.3910 C   0  0  0  0  0  3  0  0  0  0  0  0
  159.1290  212.9180  151.0540 C   0  0  1  0  0  3  0  0  0  0  0  0
  160.2600  213.9130  150.8480 C   0  0  0  0  0  2  0  0  0  0  0  0
  160.7950  210.5760  151.6720 O   0  0  0  0  0  0  0  0  0  0  0  0
  162.0660  210.3260  151.1530 C   0  0  0  0  0  2  0  0  0  0  0  0
  161.9590  209.4160  149.9440 C   0  0  0  0  0  2  0  0  0  0  0  0
  162.2960  207.9850  150.3320 C   0  0  0  0  0  2  0  0  0  0  0  0
  161.8980  206.2550  148.6180 C   0  0  0  0  0  1  0  0  0  0  0  0
  161.2690  207.0140  149.7670 C   0  0  1  0  0  3  0  0  0  0  0  0
  160.8380  206.0210  150.8330 C   0  0  0  0  0  2  0  0  0  0  0  0
  162.1260  204.1770  151.6120 O   0  0  0  0  0  1  0  0  0  0  0  0
  161.3810  204.6350  150.5250 C   0  0  1  0  0  3  0  0  0  0  0  0
  160.2360  203.6740  150.2540 C   0  0  0  0  0  2  0  0  0  0  0  0
  160.7600  202.3810  149.7170 C   0  0  0  0  0  0  0  0  0  0  0  0
  160.9360  201.4170  150.5090 O   0  0  0  0  0  0  0  0  0  0  0  0
  161.1010  202.2380  148.2920 C   0  0  0  0  0  0  0  0  0  0  0  0
  161.3010  201.0910  147.8030 O   0  0  0  0  0  0  0  0  0  0  0  0
  161.3810  203.3170  146.1600 N   0  0  0  0  0  2  0  0  0  0  0  0
  161.2090  203.4270  147.4360 C   0  0  0  0  0  3  0  0  0  0  0  0
  1  3  1  6  0  0  0
  1 10  1  0  0  0  0
  2  1  1  0  0  0  0
  2  4  1  1  0  0  0
  5 24  1  6  0  0  0
  5  6  1  0  0  0  0
  5  3  1  0  0  0  0
  6 14  1  6  0  0  0
  6  2  1  0  0  0  0
  9  7  2  0  0  0  0
  9 13  1  0  0  0  0
 10  9  1  6  0  0  0
 10 12  1  0  0  0  0
 12 11  1  0  0  0  0
 12  8  2  0  0  0  0
 13 11  2  0  0  0  0
 14 15  2  0  0  0  0
 14 16  2  0  0  0  0
 17 19  1  0  0  0  0
 17 21  2  0  0  0  0
 18 17  1  0  0  0  0
 19 20  1  0  0  0  0
 20 22  1  0  0  0  0
 21 23  1  0  0  0  0
 22 14  1  1  0  0  0
 23 22  1  0  0  0  0
 25 24  1  0  0  0  0
 26 27  1  0  0  0  0
 26 25  1  0  0  0  0
 29 28  1  6  0  0  0
 29 27  1  0  0  0  0
 29 30  1  0  0  0  0
 32 30  1  0  0  0  0
 32 31  1  1  0  0  0
 33 32  1  0  0  0  0
 34 33  1  0  0  0  0
 34 35  2  0  0  0  0
 36 34  1  0  0  0  0
 37 36  2  0  0  0  0
 38 39  2  0  0  0  0
 39 36  1  0  0  0  0
M  END
>  <MODEL>
5

>  <REMARK>
 VINA RESULT:      -5.0      3.770      6.198
  Name = 
  14 active torsions:
  status: ('A' for Active; 'I' for Inactive)
    1  A    between atoms: C_1  and  C_10
    2  A    between atoms: C_1  and  C_34
    3  A    between atoms: S_4  and  C_33
    4  A    between atoms: S_4  and  C_38
    5  A    between atoms: C_8  and  C_13
    6  A    between atoms: C_10  and  C_36
    7  A    between atoms: C_17  and  C_26
    8  A    between atoms: C_17  and  C_34
    9  A    between atoms: O_20  and  C_27
   10  A    between atoms: O_20  and  C_32
   11  A    between atoms: C_21  and  C_25
   12  A    between atoms: C_21  and  C_27
   13  A    between atoms: C_23  and  C_25
   14  A    between atoms: C_23  and  C_26
                            x       y       z     vdW  Elec       q    Type
                         _______ _______ _______ _____ _____    ______ ____

>  <TORSDO>
F 14

$$$$
=
 OpenBabel11072415023D

 39 41  0  0  1  0  0  0  0  0999 V2000
  159.8500  210.2690  155.3750 C   0  0  1  0  0  3  0  0  0  0  0  0
  160.5190  211.6230  155.1300 C   0  0  2  0  0  3  0  0  0  0  0  0
  160.0980  209.2110  153.9100 S   0  0  0  0  0  0  0  0  0  0  0  0
  159.9100  212.7500  155.9470 C   0  0  0  0  0  1  0  0  0  0  0  0
  160.9810  210.5360  153.0290 C   0  0  2  0  0  3  0  0  0  0  0  0
  160.5790  211.8810  153.6290 C   0  0  1  0  0  3  0  0  0  0  0  0
  159.4930  207.1870  156.4390 C   0  0  0  0  0  2  0  0  0  0  0  0
  162.1270  211.0410  157.2610 O   0  0  0  0  0  0  0  0  0  0  0  0
  160.4880  208.0610  156.4580 C   0  0  0  0  0  0  0  0  0  0  0  0
  160.3200  209.5350  156.6440 C   0  0  1  0  0  3  0  0  0  0  0  0
  162.5800  208.7400  157.0320 N   0  0  0  0  0  0  0  0  0  0  0  0
  161.7260  209.8770  156.9960 C   0  0  0  0  0  0  0  0  0  0  0  0
  161.8750  207.6980  156.7370 C   0  0  0  0  0  3  0  0  0  0  0  0
  159.0550  212.5510  152.9060 S   0  0  0  0  0  0  0  0  0  0  0  0
  159.3650  213.7830  152.1020 O   0  0  0  0  0  0  0  0  0  0  0  0
  158.4900  211.5180  151.9710 O   0  0  0  0  0  0  0  0  0  0  0  0
  155.4920  213.1730  155.8640 C   0  0  0  0  0  0  0  0  0  0  0  0
  154.3200  213.2970  157.1610 Cl  0  0  0  0  0  0  0  0  0  0  0  0
  155.9920  214.4490  155.2360 C   0  0  0  0  0  2  0  0  0  0  0  0
  156.6770  214.2090  153.5640 S   0  0  0  0  0  0  0  0  0  0  0  0
  156.0160  211.9660  155.5940 C   0  0  0  0  0  3  0  0  0  0  0  0
  157.8320  212.9360  154.1570 C   0  0  1  0  0  3  0  0  0  0  0  0
  157.0250  211.6970  154.5100 C   0  0  0  0  0  2  0  0  0  0  0  0
  160.7380  210.4600  151.6560 O   0  0  0  0  0  0  0  0  0  0  0  0
  161.9300  209.9830  151.1080 C   0  0  0  0  0  2  0  0  0  0  0  0
  162.1170  208.5230  151.4750 C   0  0  0  0  0  2  0  0  0  0  0  0
  161.1440  207.6560  150.6910 C   0  0  0  0  0  2  0  0  0  0  0  0
  161.2590  205.7490  152.2530 C   0  0  0  0  0  1  0  0  0  0  0  0
  161.5040  206.1830  150.8240 C   0  0  1  0  0  3  0  0  0  0  0  0
  160.6360  205.3420  149.9020 C   0  0  0  0  0  2  0  0  0  0  0  0
  161.0820  203.0130  150.1040 O   0  0  0  0  0  1  0  0  0  0  0  0
  161.4160  204.1510  149.3700 C   0  0  1  0  0  3  0  0  0  0  0  0
  161.0870  203.9240  147.9040 C   0  0  0  0  0  2  0  0  0  0  0  0
  161.8490  204.8840  147.0480 C   0  0  0  0  0  0  0  0  0  0  0  0
  163.1030  204.7780  146.9770 O   0  0  0  0  0  0  0  0  0  0  0  0
  161.1570  205.9610  146.3200 C   0  0  0  0  0  0  0  0  0  0  0  0
  160.9360  207.0650  146.8910 O   0  0  0  0  0  0  0  0  0  0  0  0
  160.4630  204.5720  144.4840 N   0  0  0  0  0  2  0  0  0  0  0  0
  160.7240  205.7550  144.9320 C   0  0  0  0  0  3  0  0  0  0  0  0
  1  3  1  6  0  0  0
  1 10  1  0  0  0  0
  2  1  1  0  0  0  0
  2  4  1  1  0  0  0
  5 24  1  6  0  0  0
  5  6  1  0  0  0  0
  5  3  1  0  0  0  0
  6 14  1  6  0  0  0
  6  2  1  0  0  0  0
  7  9  2  0  0  0  0
  9 13  1  0  0  0  0
 10  9  1  6  0  0  0
 10 12  1  0  0  0  0
 12 11  1  0  0  0  0
 12  8  2  0  0  0  0
 13 11  2  0  0  0  0
 15 14  2  0  0  0  0
 16 14  2  0  0  0  0
 17 18  1  0  0  0  0
 19 17  1  0  0  0  0
 20 22  1  0  0  0  0
 20 19  1  0  0  0  0
 21 17  2  0  0  0  0
 22 14  1  6  0  0  0
 22 23  1  0  0  0  0
 23 21  1  0  0  0  0
 25 26  1  0  0  0  0
 25 24  1  0  0  0  0
 27 29  1  0  0  0  0
 27 26  1  0  0  0  0
 29 28  1  1  0  0  0
 30 29  1  0  0  0  0
 32 30  1  0  0  0  0
 32 31  1  1  0  0  0
 33 32  1  0  0  0  0
 34 33  1  0  0  0  0
 35 34  2  0  0  0  0
 36 37  2  0  0  0  0
 36 34  1  0  0  0  0
 38 39  2  0  0  0  0
 39 36  1  0  0  0  0
M  END
>  <MODEL>
6

>  <REMARK>
 VINA RESULT:      -4.8      3.916      6.668
  Name = 
  14 active torsions:
  status: ('A' for Active; 'I' for Inactive)
    1  A    between atoms: C_1  and  C_10
    2  A    between atoms: C_1  and  C_34
    3  A    between atoms: S_4  and  C_33
    4  A    between atoms: S_4  and  C_38
    5  A    between atoms: C_8  and  C_13
    6  A    between atoms: C_10  and  C_36
    7  A    between atoms: C_17  and  C_26
    8  A    between atoms: C_17  and  C_34
    9  A    between atoms: O_20  and  C_27
   10  A    between atoms: O_20  and  C_32
   11  A    between atoms: C_21  and  C_25
   12  A    between atoms: C_21  and  C_27
   13  A    between atoms: C_23  and  C_25
   14  A    between atoms: C_23  and  C_26
                            x       y       z     vdW  Elec       q    Type
                         _______ _______ _______ _____ _____    ______ ____

>  <TORSDO>
F 14

$$$$
=
 OpenBabel11072415023D

 39 41  0  0  1  0  0  0  0  0999 V2000
  161.5620  208.9400  150.3390 C   0  0  1  0  0  3  0  0  0  0  0  0
  162.6420  207.9560  149.8870 C   0  0  2  0  0  3  0  0  0  0  0  0
  160.8330  208.3430  151.9020 S   0  0  0  0  0  0  0  0  0  0  0  0
  162.8910  207.9840  148.3880 C   0  0  0  0  0  1  0  0  0  0  0  0
  161.8770  206.8540  151.8890 C   0  0  2  0  0  3  0  0  0  0  0  0
  162.3260  206.5770  150.4560 C   0  0  1  0  0  3  0  0  0  0  0  0
  162.0930  211.3650  148.1950 C   0  0  0  0  0  2  0  0  0  0  0  0
  161.4780  210.6840  152.8460 O   0  0  0  0  0  0  0  0  0  0  0  0
  161.5630  211.3030  149.4080 C   0  0  0  0  0  0  0  0  0  0  0  0
  162.0370  210.3950  150.4970 C   0  0  1  0  0  3  0  0  0  0  0  0
  160.6520  212.2310  151.2720 N   0  0  0  0  0  0  0  0  0  0  0  0
  161.3830  211.0710  151.6510 C   0  0  0  0  0  0  0  0  0  0  0  0
  160.7620  212.3750  149.9930 C   0  0  0  0  0  3  0  0  0  0  0  0
  161.1150  205.6160  149.5080 S   0  0  0  0  0  0  0  0  0  0  0  0
  161.0950  204.1920  149.9910 O   0  0  0  0  0  0  0  0  0  0  0  0
  159.7550  206.2070  149.7560 O   0  0  0  0  0  0  0  0  0  0  0  0
  161.4290  205.5080  144.8480 C   0  0  0  0  0  0  0  0  0  0  0  0
  161.5810  205.7370  143.1170 Cl  0  0  0  0  0  0  0  0  0  0  0  0
  162.4800  204.6850  145.5480 C   0  0  0  0  0  2  0  0  0  0  0  0
  161.9180  204.0040  147.1430 S   0  0  0  0  0  0  0  0  0  0  0  0
  160.4840  206.2030  145.5000 C   0  0  0  0  0  3  0  0  0  0  0  0
  161.4550  205.6550  147.7500 C   0  0  1  0  0  3  0  0  0  0  0  0
  160.2260  206.1100  146.9800 C   0  0  0  0  0  2  0  0  0  0  0  0
  161.2020  205.7750  152.4630 O   0  0  0  0  0  0  0  0  0  0  0  0
  161.5220  205.8340  153.8200 C   0  0  0  0  0  2  0  0  0  0  0  0
  161.1360  207.1890  154.3820 C   0  0  0  0  0  2  0  0  0  0  0  0
  160.0880  207.0270  155.4710 C   0  0  0  0  0  2  0  0  0  0  0  0
  161.2930  208.2420  157.2500 C   0  0  0  0  0  1  0  0  0  0  0  0
  160.0560  208.2500  156.3780 C   0  0  1  0  0  3  0  0  0  0  0  0
  160.0500  209.5230  155.5470 C   0  0  0  0  0  2  0  0  0  0  0  0
  158.9890  211.2030  156.8570 O   0  0  0  0  0  1  0  0  0  0  0  0
  158.7810  210.3210  155.7970 C   0  0  1  0  0  3  0  0  0  0  0  0
  158.4030  211.1030  154.5510 C   0  0  0  0  0  2  0  0  0  0  0  0
  157.0570  211.7310  154.7220 C   0  0  0  0  0  0  0  0  0  0  0  0
  156.0670  210.9950  154.9790 O   0  0  0  0  0  0  0  0  0  0  0  0
  156.8750  213.1840  154.5600 C   0  0  0  0  0  0  0  0  0  0  0  0
  156.6400  213.9060  155.5680 O   0  0  0  0  0  0  0  0  0  0  0  0
  158.1040  214.1720  152.7440 N   0  0  0  0  0  2  0  0  0  0  0  0
  156.9670  213.7950  153.2280 C   0  0  0  0  0  3  0  0  0  0  0  0
  1 10  1  0  0  0  0
  1  3  1  1  0  0  0
  2  4  1  6  0  0  0
  2  1  1  0  0  0  0
  2  6  1  0  0  0  0
  5  3  1  0  0  0  0
  5 24  1  6  0  0  0
  6 14  1  6  0  0  0
  6  5  1  0  0  0  0
  7  9  2  0  0  0  0
  9 13  1  0  0  0  0
 10  9  1  6  0  0  0
 10 12  1  0  0  0  0
 11 12  1  0  0  0  0
 12  8  2  0  0  0  0
 13 11  2  0  0  0  0
 14 16  2  0  0  0  0
 14 15  2  0  0  0  0
 17 21  2  0  0  0  0
 17 19  1  0  0  0  0
 18 17  1  0  0  0  0
 19 20  1  0  0  0  0
 20 22  1  0  0  0  0
 21 23  1  0  0  0  0
 22 14  1  1  0  0  0
 23 22  1  0  0  0  0
 24 25  1  0  0  0  0
 25 26  1  0  0  0  0
 26 27  1  0  0  0  0
 27 29  1  0  0  0  0
 29 28  1  1  0  0  0
 30 32  1  0  0  0  0
 30 29  1  0  0  0  0
 32 31  1  1  0  0  0
 33 34  1  0  0  0  0
 33 32  1  0  0  0  0
 34 35  2  0  0  0  0
 36 34  1  0  0  0  0
 36 37  2  0  0  0  0
 38 39  2  0  0  0  0
 39 36  1  0  0  0  0
M  END
>  <MODEL>
7

>  <REMARK>
 VINA RESULT:      -4.4      3.880      8.764
  Name = 
  14 active torsions:
  status: ('A' for Active; 'I' for Inactive)
    1  A    between atoms: C_1  and  C_10
    2  A    between atoms: C_1  and  C_34
    3  A    between atoms: S_4  and  C_33
    4  A    between atoms: S_4  and  C_38
    5  A    between atoms: C_8  and  C_13
    6  A    between atoms: C_10  and  C_36
    7  A    between atoms: C_17  and  C_26
    8  A    between atoms: C_17  and  C_34
    9  A    between atoms: O_20  and  C_27
   10  A    between atoms: O_20  and  C_32
   11  A    between atoms: C_21  and  C_25
   12  A    between atoms: C_21  and  C_27
   13  A    between atoms: C_23  and  C_25
   14  A    between atoms: C_23  and  C_26
                            x       y       z     vdW  Elec       q    Type
                         _______ _______ _______ _____ _____    ______ ____

>  <TORSDO>
F 14

$$$$
=
 OpenBabel11072415023D

 39 41  0  0  1  0  0  0  0  0999 V2000
  160.0140  213.4130  150.4160 C   0  0  1  0  0  3  0  0  0  0  0  0
  158.6560  212.9130  150.9130 C   0  0  2  0  0  3  0  0  0  0  0  0
  161.2730  212.1350  150.7470 S   0  0  0  0  0  0  0  0  0  0  0  0
  157.6900  214.0370  151.2510 C   0  0  0  0  0  1  0  0  0  0  0  0
  160.0500  211.0530  151.5480 C   0  0  2  0  0  3  0  0  0  0  0  0
  158.8800  211.9040  152.0340 C   0  0  1  0  0  3  0  0  0  0  0  0
  162.4480  214.2620  148.3880 C   0  0  0  0  0  2  0  0  0  0  0  0
  157.9250  212.8510  148.2590 O   0  0  0  0  0  0  0  0  0  0  0  0
  161.3520  213.5280  148.2600 C   0  0  0  0  0  0  0  0  0  0  0  0
  160.0500  213.8220  148.9320 C   0  0  1  0  0  3  0  0  0  0  0  0
  159.8740  212.2830  147.0640 N   0  0  0  0  0  0  0  0  0  0  0  0
  159.1690  212.9600  148.0970 C   0  0  0  0  0  0  0  0  0  0  0  0
  161.1200  212.6130  147.1450 C   0  0  0  0  0  3  0  0  0  0  0  0
  159.1650  212.6290  153.6720 S   0  0  0  0  0  0  0  0  0  0  0  0
  160.5050  212.1960  154.2010 O   0  0  0  0  0  0  0  0  0  0  0  0
  159.1880  214.1250  153.5220 O   0  0  0  0  0  0  0  0  0  0  0  0
  155.4600  211.3580  156.2190 C   0  0  0  0  0  0  0  0  0  0  0  0
  154.2260  210.6760  157.2610 Cl  0  0  0  0  0  0  0  0  0  0  0  0
  155.9780  212.7360  156.5440 C   0  0  0  0  0  2  0  0  0  0  0  0
  156.7440  213.5730  155.1170 S   0  0  0  0  0  0  0  0  0  0  0  0
  156.0060  210.5700  155.2790 C   0  0  0  0  0  3  0  0  0  0  0  0
  157.8810  212.1810  154.8370 C   0  0  1  0  0  3  0  0  0  0  0  0
  157.0680  211.0110  154.3080 C   0  0  0  0  0  2  0  0  0  0  0  0
  160.6450  210.3130  152.5720 O   0  0  0  0  0  0  0  0  0  0  0  0
  161.8890  209.9350  152.0650 C   0  0  0  0  0  2  0  0  0  0  0  0
  161.7150  208.8220  151.0490 C   0  0  0  0  0  2  0  0  0  0  0  0
  160.9790  207.6490  151.6770 C   0  0  0  0  0  2  0  0  0  0  0  0
  162.2240  205.9030  152.8980 C   0  0  0  0  0  1  0  0  0  0  0  0
  161.7810  206.3640  151.5260 C   0  0  1  0  0  3  0  0  0  0  0  0
  160.9250  205.2770  150.8970 C   0  0  0  0  0  2  0  0  0  0  0  0
  160.8720  203.7850  149.0440 O   0  0  0  0  0  1  0  0  0  0  0  0
  161.3420  205.0320  149.4570 C   0  0  1  0  0  3  0  0  0  0  0  0
  160.7710  206.1140  148.5560 C   0  0  0  0  0  2  0  0  0  0  0  0
  161.5930  206.2400  147.3140 C   0  0  0  0  0  0  0  0  0  0  0  0
  162.7290  206.7820  147.3840 O   0  0  0  0  0  0  0  0  0  0  0  0
  161.0770  205.7720  146.0160 C   0  0  0  0  0  0  0  0  0  0  0  0
  160.0010  206.2460  145.5580 O   0  0  0  0  0  0  0  0  0  0  0  0
  161.8660  203.5290  145.6530 N   0  0  0  0  0  2  0  0  0  0  0  0
  161.8130  204.7560  145.2520 C   0  0  0  0  0  3  0  0  0  0  0  0
  1  3  1  6  0  0  0
  1  2  1  0  0  0  0
  2  4  1  1  0  0  0
  2  6  1  0  0  0  0
  3  5  1  0  0  0  0
  5  6  1  0  0  0  0
  5 24  1  1  0  0  0
  6 14  1  1  0  0  0
  9  7  2  0  0  0  0
  9 10  1  0  0  0  0
 10 12  1  6  0  0  0
 10  1  1  0  0  0  0
 11 13  2  0  0  0  0
 11 12  1  0  0  0  0
 12  8  2  0  0  0  0
 13  9  1  0  0  0  0
 14 15  2  0  0  0  0
 16 14  2  0  0  0  0
 17 19  1  0  0  0  0
 17 18  1  0  0  0  0
 20 19  1  0  0  0  0
 21 17  2  0  0  0  0
 22 14  1  6  0  0  0
 22 20  1  0  0  0  0
 23 22  1  0  0  0  0
 23 21  1  0  0  0  0
 25 24  1  0  0  0  0
 26 27  1  0  0  0  0
 26 25  1  0  0  0  0
 29 27  1  0  0  0  0
 29 28  1  1  0  0  0
 30 29  1  0  0  0  0
 32 31  1  6  0  0  0
 32 30  1  0  0  0  0
 33 32  1  0  0  0  0
 34 35  2  0  0  0  0
 34 33  1  0  0  0  0
 36 34  1  0  0  0  0
 37 36  2  0  0  0  0
 39 38  2  0  0  0  0
 39 36  1  0  0  0  0
M  END
>  <MODEL>
8

>  <REMARK>
 VINA RESULT:      -4.4      4.324      7.141
  Name = 
  14 active torsions:
  status: ('A' for Active; 'I' for Inactive)
    1  A    between atoms: C_1  and  C_10
    2  A    between atoms: C_1  and  C_34
    3  A    between atoms: S_4  and  C_33
    4  A    between atoms: S_4  and  C_38
    5  A    between atoms: C_8  and  C_13
    6  A    between atoms: C_10  and  C_36
    7  A    between atoms: C_17  and  C_26
    8  A    between atoms: C_17  and  C_34
    9  A    between atoms: O_20  and  C_27
   10  A    between atoms: O_20  and  C_32
   11  A    between atoms: C_21  and  C_25
   12  A    between atoms: C_21  and  C_27
   13  A    between atoms: C_23  and  C_25
   14  A    between atoms: C_23  and  C_26
                            x       y       z     vdW  Elec       q    Type
                         _______ _______ _______ _____ _____    ______ ____

>  <TORSDO>
F 14

$$$$
=
 OpenBabel11072415023D

 39 41  0  0  1  0  0  0  0  0999 V2000
  161.5050  208.7020  153.2520 C   0  0  1  0  0  3  0  0  0  0  0  0
  160.6120  207.6590  152.5780 C   0  0  2  0  0  3  0  0  0  0  0  0
  162.0340  209.9260  152.0060 S   0  0  0  0  0  0  0  0  0  0  0  0
  160.6020  206.3210  153.2980 C   0  0  0  0  0  1  0  0  0  0  0  0
  161.1570  209.0410  150.6800 C   0  0  2  0  0  3  0  0  0  0  0  0
  160.9690  207.5850  151.0970 C   0  0  1  0  0  3  0  0  0  0  0  0
  161.5650  208.1200  156.4800 C   0  0  0  0  0  2  0  0  0  0  0  0
  160.5050  211.5830  153.4220 O   0  0  0  0  0  0  0  0  0  0  0  0
  161.6200  209.2160  155.7370 C   0  0  0  0  0  0  0  0  0  0  0  0
  160.8700  209.4150  154.4600 C   0  0  1  0  0  3  0  0  0  0  0  0
  161.6970  211.4700  155.4510 N   0  0  0  0  0  0  0  0  0  0  0  0
  160.9910  210.8950  154.3580 C   0  0  0  0  0  0  0  0  0  0  0  0
  162.0470  210.5160  156.2490 C   0  0  0  0  0  3  0  0  0  0  0  0
  162.4040  206.5460  150.7070 S   0  0  0  0  0  0  0  0  0  0  0  0
  163.2990  207.2520  149.7240 O   0  0  0  0  0  0  0  0  0  0  0  0
  163.1850  206.3350  151.9740 O   0  0  0  0  0  0  0  0  0  0  0  0
  160.7100  202.6960  148.6740 C   0  0  0  0  0  0  0  0  0  0  0  0
  160.3200  201.2290  147.7970 Cl  0  0  0  0  0  0  0  0  0  0  0  0
  160.6990  202.6440  150.1810 C   0  0  0  0  0  2  0  0  0  0  0  0
  160.4960  204.2810  150.9570 S   0  0  0  0  0  0  0  0  0  0  0  0
  161.1570  203.7530  147.9780 C   0  0  0  0  0  3  0  0  0  0  0  0
  161.9200  204.9530  150.0480 C   0  0  1  0  0  3  0  0  0  0  0  0
  161.5260  205.0800  148.5850 C   0  0  0  0  0  2  0  0  0  0  0  0
  161.8370  209.1740  149.4680 O   0  0  0  0  0  0  0  0  0  0  0  0
  162.2510  210.5070  149.4340 C   0  0  0  0  0  2  0  0  0  0  0  0
  161.5840  211.2250  148.2760 C   0  0  0  0  0  2  0  0  0  0  0  0
  161.3900  212.6950  148.6110 C   0  0  0  0  0  2  0  0  0  0  0  0
  159.6570  214.4530  148.6370 C   0  0  0  0  0  1  0  0  0  0  0  0
  160.1940  213.2670  147.8630 C   0  0  1  0  0  3  0  0  0  0  0  0
  160.6120  213.7350  146.4790 C   0  0  0  0  0  2  0  0  0  0  0  0
  158.8060  212.4390  145.6280 O   0  0  0  0  0  1  0  0  0  0  0  0
  160.1490  212.7510  145.4180 C   0  0  1  0  0  3  0  0  0  0  0  0
  160.3200  213.3550  144.0350 C   0  0  0  0  0  2  0  0  0  0  0  0
  161.4480  212.6900  143.3140 C   0  0  0  0  0  0  0  0  0  0  0  0
  162.6060  212.7450  143.8080 O   0  0  0  0  0  0  0  0  0  0  0  0
  161.2250  212.0090  142.0270 C   0  0  0  0  0  0  0  0  0  0  0  0
  160.0620  211.6420  141.7020 O   0  0  0  0  0  0  0  0  0  0  0  0
  162.7830  212.6730  140.3190 N   0  0  0  0  0  2  0  0  0  0  0  0
  162.3530  211.7560  141.1210 C   0  0  0  0  0  3  0  0  0  0  0  0
  1  3  1  6  0  0  0
  1 10  1  0  0  0  0
  2  1  1  0  0  0  0
  2  4  1  1  0  0  0
  5 24  1  6  0  0  0
  5  6  1  0  0  0  0
  5  3  1  0  0  0  0
  6 14  1  1  0  0  0
  6  2  1  0  0  0  0
  8 12  2  0  0  0  0
  9 13  1  0  0  0  0
  9  7  2  0  0  0  0
 10 12  1  6  0  0  0
 10  9  1  0  0  0  0
 11 13  2  0  0  0  0
 12 11  1  0  0  0  0
 14 16  2  0  0  0  0
 15 14  2  0  0  0  0
 17 19  1  0  0  0  0
 18 17  1  0  0  0  0
 19 20  1  0  0  0  0
 21 23  1  0  0  0  0
 21 17  2  0  0  0  0
 22 14  1  1  0  0  0
 22 20  1  0  0  0  0
 23 22  1  0  0  0  0
 25 24  1  0  0  0  0
 26 27  1  0  0  0  0
 26 25  1  0  0  0  0
 29 27  1  0  0  0  0
 29 28  1  1  0  0  0
 30 29  1  0  0  0  0
 32 31  1  1  0  0  0
 32 30  1  0  0  0  0
 33 32  1  0  0  0  0
 34 35  2  0  0  0  0
 34 33  1  0  0  0  0
 36 34  1  0  0  0  0
 37 36  2  0  0  0  0
 38 39  2  0  0  0  0
 39 36  1  0  0  0  0
M  END
>  <MODEL>
9

>  <REMARK>
 VINA RESULT:      -4.2      4.497      6.210
  Name = 
  14 active torsions:
  status: ('A' for Active; 'I' for Inactive)
    1  A    between atoms: C_1  and  C_10
    2  A    between atoms: C_1  and  C_34
    3  A    between atoms: S_4  and  C_33
    4  A    between atoms: S_4  and  C_38
    5  A    between atoms: C_8  and  C_13
    6  A    between atoms: C_10  and  C_36
    7  A    between atoms: C_17  and  C_26
    8  A    between atoms: C_17  and  C_34
    9  A    between atoms: O_20  and  C_27
   10  A    between atoms: O_20  and  C_32
   11  A    between atoms: C_21  and  C_25
   12  A    between atoms: C_21  and  C_27
   13  A    between atoms: C_23  and  C_25
   14  A    between atoms: C_23  and  C_26
                            x       y       z     vdW  Elec       q    Type
                         _______ _______ _______ _____ _____    ______ ____

>  <TORSDO>
F 14

$$$$
