=
 OpenBabel11072412113D

 31 33  0  0  1  0  0  0  0  0999 V2000
  161.8030  207.9760  150.6340 C   0  0  1  0  0  3  0  0  0  0  0  0
  161.4950  207.1740  153.5560 C   0  0  1  0  0  3  0  0  0  0  0  0
  161.5600  206.6150  149.9580 C   0  0  1  0  0  0  0  0  0  0  0  0
  160.2540  204.4340  150.5670 C   0  0  0  0  0  2  0  0  0  0  0  0
  160.6160  206.6300  154.6660 C   0  0  0  0  0  1  0  0  0  0  0  0
  161.5880  206.1910  152.4050 C   0  0  2  0  0  3  0  0  0  0  0  0
  161.6490  204.7580  152.6730 N   0  0  0  0  0  2  0  0  0  0  0  0
  161.4900  204.0200  151.4080 C   0  0  0  0  0  2  0  0  0  0  0  0
  160.6310  208.5360  151.4730 C   0  0  0  0  0  2  0  0  0  0  0  0
  162.4080  206.6880  151.2190 C   0  0  2  0  0  3  0  0  0  0  0  0
  160.1870  205.9080  150.0880 C   0  0  0  0  0  2  0  0  0  0  0  0
  160.8630  208.4710  153.0080 C   0  0  2  0  0  3  0  0  0  0  0  0
  161.6470  211.3690  155.1380 O   0  0  0  0  0  0  0  0  0  0  0  0
  161.4880  209.6800  153.5430 N   0  0  0  0  0  0  0  0  0  0  0  0
  162.5850  210.2050  152.8470 N   0  0  0  0  0  1  0  0  0  0  0  0
  161.0080  210.3720  154.7080 C   0  0  0  0  0  0  0  0  0  0  0  0
  159.8630  209.8830  155.4230 N   0  0  0  0  0  0  0  0  0  0  0  0
  158.6600  210.3850  155.4590 C   0  0  0  0  0  3  0  0  0  0  0  0
  158.1370  211.4400  153.3840 O   0  0  0  0  0  0  0  0  0  0  0  0
  158.1640  211.5050  154.6420 C   0  0  0  0  0  0  0  0  0  0  0  0
  157.6260  212.6180  155.2760 O   0  0  0  0  0  1  0  0  0  0  0  0
  162.3640  206.4060  148.6840 C   0  0  0  0  0  2  0  0  0  0  0  0
  162.1860  204.2670  147.7200 C   0  0  0  0  0  1  0  0  0  0  0  0
  161.6060  205.6070  147.7330 N   0  0  0  0  0  0  0  0  0  0  0  0
  162.8580  205.7990  145.7210 O   0  0  0  0  0  1  0  0  0  0  0  0
  161.7210  206.2400  146.4140 C   0  0  1  0  0  3  0  0  0  0  0  0
  160.4640  205.9970  145.5940 C   0  0  0  0  0  2  0  0  0  0  0  0
  160.7800  205.1220  144.3930 C   0  0  0  0  0  2  0  0  0  0  0  0
  160.0590  203.7920  144.5080 C   0  0  0  0  0  2  0  0  0  0  0  0
  160.1250  201.6860  145.1570 C   0  0  0  0  0  1  0  0  0  0  0  0
  160.8700  202.8630  145.1620 O   0  0  0  0  0  0  0  0  0  0  0  0
  1 10  1  0  0  0  0
  1  9  1  1  0  0  0
  2  5  1  1  0  0  0
  3 22  1  6  0  0  0
  3 11  1  0  0  0  0
  3  1  1  0  0  0  0
  3 10  1  0  0  0  0
  4  8  1  0  0  0  0
  6  7  1  1  0  0  0
  6  2  1  0  0  0  0
  8  7  1  0  0  0  0
  9 12  1  0  0  0  0
 10  6  1  0  0  0  0
 11  4  1  0  0  0  0
 12 14  1  0  0  0  0
 12  2  1  0  0  0  0
 14 16  1  0  0  0  0
 15 14  1  0  0  0  0
 16 13  2  0  0  0  0
 16 17  1  0  0  0  0
 17 18  2  0  0  0  0
 19 20  2  0  0  0  0
 20 21  1  0  0  0  0
 20 18  1  0  0  0  0
 23 24  1  0  0  0  0
 24 22  1  0  0  0  0
 25 26  1  0  0  0  0
 26 24  1  0  0  0  0
 27 26  1  0  0  0  0
 28 29  1  0  0  0  0
 28 27  1  0  0  0  0
 29 31  1  0  0  0  0
 30 31  1  0  0  0  0
M  END
>  <MODEL>
1

>  <REMARK>
 VINA RESULT:      -6.4      0.000      0.000
  Name = 
  10 active torsions:
  status: ('A' for Active; 'I' for Inactive)
    1  A    between atoms: C_5  and  C_9
    2  A    between atoms: C_5  and  C_21
    3  A    between atoms: C_7  and  C_20
    4  A    between atoms: C_9  and  N_30
    5  A    between atoms: C_11  and  C_21
    6  A    between atoms: C_11  and  O_31
    7  A    between atoms: N_14  and  C_29
    8  A    between atoms: N_15  and  C_25
    9  A    between atoms: C_20  and  N_30
   10  A    between atoms: C_22  and  C_27
                            x       y       z     vdW  Elec       q    Type
                         _______ _______ _______ _____ _____    ______ ____

>  <TORSDO>
F 10

$$$$
=
 OpenBabel11072412113D

 31 33  0  0  1  0  0  0  0  0999 V2000
  161.1210  205.6900  148.9180 C   0  0  1  0  0  3  0  0  0  0  0  0
  160.7630  202.8450  149.9450 C   0  0  1  0  0  3  0  0  0  0  0  0
  161.4640  206.4060  150.2370 C   0  0  1  0  0  0  0  0  0  0  0  0
  162.5380  205.7110  152.5170 C   0  0  0  0  0  2  0  0  0  0  0  0
  161.3630  201.6200  150.6090 C   0  0  0  0  0  1  0  0  0  0  0  0
  160.8920  204.0640  150.8360 C   0  0  2  0  0  3  0  0  0  0  0  0
  160.7300  203.9330  152.2800 N   0  0  0  0  0  2  0  0  0  0  0  0
  161.1370  205.1910  152.9310 C   0  0  0  0  0  2  0  0  0  0  0  0
  162.1000  204.5760  148.4770 C   0  0  0  0  0  2  0  0  0  0  0  0
  160.3650  205.3550  150.2160 C   0  0  2  0  0  3  0  0  0  0  0  0
  162.7530  206.0430  151.0160 C   0  0  0  0  0  2  0  0  0  0  0  0
  161.5380  203.1370  148.6440 C   0  0  2  0  0  3  0  0  0  0  0  0
  160.6300  202.4890  145.1350 O   0  0  0  0  0  0  0  0  0  0  0  0
  160.8500  202.6520  147.4470 N   0  0  0  0  0  0  0  0  0  0  0  0
  159.7270  201.8340  147.6330 N   0  0  0  0  0  1  0  0  0  0  0  0
  161.2390  203.0060  146.1100 C   0  0  0  0  0  0  0  0  0  0  0  0
  162.3610  203.8730  145.8850 N   0  0  0  0  0  0  0  0  0  0  0  0
  162.4160  204.9450  145.1460 C   0  0  0  0  0  3  0  0  0  0  0  0
  160.3360  206.1130  145.1400 O   0  0  0  0  0  1  0  0  0  0  0  0
  161.2760  205.5980  144.4790 C   0  0  0  0  0  0  0  0  0  0  0  0
  161.2880  205.7320  143.0970 O   0  0  0  0  0  0  0  0  0  0  0  0
  160.9490  207.8350  150.3140 C   0  0  0  0  0  2  0  0  0  0  0  0
  161.6340  209.5840  151.7300 C   0  0  0  0  0  1  0  0  0  0  0  0
  162.0420  208.7520  150.6020 N   0  0  0  0  0  0  0  0  0  0  0  0
  161.5640  209.0900  148.2990 O   0  0  0  0  0  1  0  0  0  0  0  0
  162.2780  209.5690  149.4070 C   0  0  1  0  0  3  0  0  0  0  0  0
  161.9340  211.0250  149.6790 C   0  0  0  0  0  2  0  0  0  0  0  0
  161.7230  211.7690  148.3730 C   0  0  0  0  0  2  0  0  0  0  0  0
  163.0220  212.4070  147.9170 C   0  0  0  0  0  2  0  0  0  0  0  0
  161.4740  212.9150  146.4300 C   0  0  0  0  0  1  0  0  0  0  0  0
  162.8030  213.1670  146.7660 O   0  0  0  0  0  0  0  0  0  0  0  0
  1  9  1  1  0  0  0
  1 10  1  0  0  0  0
  1  3  1  0  0  0  0
  2  5  1  1  0  0  0
  2  6  1  0  0  0  0
  3 22  1  1  0  0  0
  3 11  1  0  0  0  0
  4  8  1  0  0  0  0
  6  7  1  1  0  0  0
  7  8  1  0  0  0  0
  9 12  1  0  0  0  0
 10  3  1  0  0  0  0
 10  6  1  0  0  0  0
 11  4  1  0  0  0  0
 12  2  1  0  0  0  0
 13 16  2  0  0  0  0
 14 15  1  0  0  0  0
 14 12  1  0  0  0  0
 16 14  1  0  0  0  0
 17 16  1  0  0  0  0
 18 17  2  0  0  0  0
 20 19  1  0  0  0  0
 20 18  1  0  0  0  0
 21 20  2  0  0  0  0
 22 24  1  0  0  0  0
 24 23  1  0  0  0  0
 25 26  1  0  0  0  0
 26 27  1  0  0  0  0
 26 24  1  0  0  0  0
 28 27  1  0  0  0  0
 29 28  1  0  0  0  0
 30 31  1  0  0  0  0
 31 29  1  0  0  0  0
M  END
>  <MODEL>
2

>  <REMARK>
 VINA RESULT:      -6.2      3.255      8.010
  Name = 
  10 active torsions:
  status: ('A' for Active; 'I' for Inactive)
    1  A    between atoms: C_5  and  C_9
    2  A    between atoms: C_5  and  C_21
    3  A    between atoms: C_7  and  C_20
    4  A    between atoms: C_9  and  N_30
    5  A    between atoms: C_11  and  C_21
    6  A    between atoms: C_11  and  O_31
    7  A    between atoms: N_14  and  C_29
    8  A    between atoms: N_15  and  C_25
    9  A    between atoms: C_20  and  N_30
   10  A    between atoms: C_22  and  C_27
                            x       y       z     vdW  Elec       q    Type
                         _______ _______ _______ _____ _____    ______ ____

>  <TORSDO>
F 10

$$$$
=
 OpenBabel11072412113D

 31 33  0  0  1  0  0  0  0  0999 V2000
  162.0720  208.2400  151.0600 C   0  0  1  0  0  3  0  0  0  0  0  0
  161.3120  207.3130  153.8600 C   0  0  1  0  0  3  0  0  0  0  0  0
  161.8870  206.9220  150.2860 C   0  0  1  0  0  0  0  0  0  0  0  0
  160.4360  204.7680  150.5830 C   0  0  0  0  0  2  0  0  0  0  0  0
  160.2610  206.7520  154.8000 C   0  0  0  0  0  1  0  0  0  0  0  0
  161.5400  206.3830  152.6850 C   0  0  2  0  0  3  0  0  0  0  0  0
  161.5150  204.9380  152.8830 N   0  0  0  0  0  2  0  0  0  0  0  0
  161.5210  204.2660  151.5720 C   0  0  0  0  0  2  0  0  0  0  0  0
  160.8070  208.8050  151.7480 C   0  0  0  0  0  2  0  0  0  0  0  0
  162.5420  206.9020  151.6580 C   0  0  2  0  0  3  0  0  0  0  0  0
  160.4880  206.2640  150.1770 C   0  0  0  0  0  2  0  0  0  0  0  0
  160.8090  208.6580  153.2950 C   0  0  2  0  0  3  0  0  0  0  0  0
  161.3180  211.4750  155.6100 O   0  0  0  0  0  0  0  0  0  0  0  0
  161.3870  209.8160  153.9780 N   0  0  0  0  0  0  0  0  0  0  0  0
  162.6390  210.2670  153.5410 N   0  0  0  0  0  1  0  0  0  0  0  0
  160.7190  210.5290  155.0320 C   0  0  0  0  0  0  0  0  0  0  0  0
  159.4180  210.1160  155.4780 N   0  0  0  0  0  0  0  0  0  0  0  0
  158.2690  210.6880  155.2500 C   0  0  0  0  0  3  0  0  0  0  0  0
  157.6980  212.9580  154.7860 O   0  0  0  0  0  1  0  0  0  0  0  0
  158.0310  211.8260  154.3450 C   0  0  0  0  0  0  0  0  0  0  0  0
  158.2700  211.6700  152.9860 O   0  0  0  0  0  0  0  0  0  0  0  0
  162.8630  206.7420  149.1340 C   0  0  0  0  0  2  0  0  0  0  0  0
  161.4680  208.4030  148.2210 C   0  0  0  0  0  1  0  0  0  0  0  0
  162.2790  207.2340  147.8940 N   0  0  0  0  0  0  0  0  0  0  0  0
  160.6760  206.6200  146.2500 O   0  0  0  0  0  1  0  0  0  0  0  0
  161.4520  206.1640  147.3260 C   0  0  1  0  0  3  0  0  0  0  0  0
  162.3180  204.9880  146.9020 C   0  0  0  0  0  2  0  0  0  0  0  0
  161.5960  203.6790  147.1720 C   0  0  0  0  0  2  0  0  0  0  0  0
  161.2610  202.9860  145.8650 C   0  0  0  0  0  2  0  0  0  0  0  0
  160.8740  201.5380  147.4820 C   0  0  0  0  0  1  0  0  0  0  0  0
  160.6740  201.7450  146.1180 O   0  0  0  0  0  0  0  0  0  0  0  0
  1 10  1  0  0  0  0
  1  9  1  1  0  0  0
  2  5  1  1  0  0  0
  3 22  1  6  0  0  0
  3  1  1  0  0  0  0
  3 10  1  0  0  0  0
  4  8  1  0  0  0  0
  6  7  1  1  0  0  0
  6  2  1  0  0  0  0
  8  7  1  0  0  0  0
  9 12  1  0  0  0  0
 10  6  1  0  0  0  0
 11  3  1  0  0  0  0
 11  4  1  0  0  0  0
 12  2  1  0  0  0  0
 12 14  1  0  0  0  0
 14 16  1  0  0  0  0
 15 14  1  0  0  0  0
 16 17  1  0  0  0  0
 16 13  2  0  0  0  0
 18 17  2  0  0  0  0
 20 19  1  0  0  0  0
 20 18  1  0  0  0  0
 21 20  2  0  0  0  0
 24 23  1  0  0  0  0
 24 22  1  0  0  0  0
 25 26  1  0  0  0  0
 26 24  1  0  0  0  0
 27 28  1  0  0  0  0
 27 26  1  0  0  0  0
 29 31  1  0  0  0  0
 29 28  1  0  0  0  0
 31 30  1  0  0  0  0
M  END
>  <MODEL>
3

>  <REMARK>
 VINA RESULT:      -6.1      1.087      1.526
  Name = 
  10 active torsions:
  status: ('A' for Active; 'I' for Inactive)
    1  A    between atoms: C_5  and  C_9
    2  A    between atoms: C_5  and  C_21
    3  A    between atoms: C_7  and  C_20
    4  A    between atoms: C_9  and  N_30
    5  A    between atoms: C_11  and  C_21
    6  A    between atoms: C_11  and  O_31
    7  A    between atoms: N_14  and  C_29
    8  A    between atoms: N_15  and  C_25
    9  A    between atoms: C_20  and  N_30
   10  A    between atoms: C_22  and  C_27
                            x       y       z     vdW  Elec       q    Type
                         _______ _______ _______ _____ _____    ______ ____

>  <TORSDO>
F 10

$$$$
=
 OpenBabel11072412113D

 31 33  0  0  1  0  0  0  0  0999 V2000
  161.8060  207.7500  149.3100 C   0  0  1  0  0  3  0  0  0  0  0  0
  160.6620  204.9470  148.9810 C   0  0  1  0  0  3  0  0  0  0  0  0
  162.1320  207.7280  150.8140 C   0  0  1  0  0  0  0  0  0  0  0  0
  162.7070  205.8830  152.5750 C   0  0  0  0  0  2  0  0  0  0  0  0
  160.8670  203.4450  149.0500 C   0  0  0  0  0  1  0  0  0  0  0  0
  160.9550  205.5980  150.3180 C   0  0  2  0  0  3  0  0  0  0  0  0
  160.5810  204.9230  151.5560 N   0  0  0  0  0  2  0  0  0  0  0  0
  161.1820  205.6320  152.6980 C   0  0  0  0  0  2  0  0  0  0  0  0
  162.5460  206.7070  148.4410 C   0  0  0  0  0  2  0  0  0  0  0  0
  160.8300  207.1180  150.3180 C   0  0  2  0  0  3  0  0  0  0  0  0
  163.1880  206.7420  151.3760 C   0  0  0  0  0  2  0  0  0  0  0  0
  161.6470  205.5390  147.9510 C   0  0  2  0  0  3  0  0  0  0  0  0
  160.6570  205.2760  144.4140 O   0  0  0  0  0  0  0  0  0  0  0  0
  161.0260  205.8020  146.6530 N   0  0  0  0  0  0  0  0  0  0  0  0
  160.1680  206.9060  146.5570 N   0  0  0  0  0  1  0  0  0  0  0  0
  161.2860  205.0190  145.4760 C   0  0  0  0  0  0  0  0  0  0  0  0
  162.1900  203.9040  145.5300 N   0  0  0  0  0  0  0  0  0  0  0  0
  161.9040  202.6410  145.6720 C   0  0  0  0  0  3  0  0  0  0  0  0
  159.8010  202.1480  144.6580 O   0  0  0  0  0  0  0  0  0  0  0  0
  160.5540  202.0510  145.6630 C   0  0  0  0  0  0  0  0  0  0  0  0
  160.1410  201.2910  146.7500 O   0  0  0  0  0  1  0  0  0  0  0  0
  161.9590  209.0740  151.5020 C   0  0  0  0  0  2  0  0  0  0  0  0
  160.0210  210.0960  152.3590 C   0  0  0  0  0  1  0  0  0  0  0  0
  160.9480  208.9830  152.5450 N   0  0  0  0  0  0  0  0  0  0  0  0
  161.9320  210.4020  154.1780 O   0  0  0  0  0  1  0  0  0  0  0  0
  161.6240  209.0760  153.8440 C   0  0  1  0  0  3  0  0  0  0  0  0
  160.7790  208.4310  154.9320 C   0  0  0  0  0  2  0  0  0  0  0  0
  161.2220  208.9180  156.3000 C   0  0  0  0  0  2  0  0  0  0  0  0
  160.0630  209.5790  157.0220 C   0  0  0  0  0  2  0  0  0  0  0  0
  159.0780  211.4630  156.4370 C   0  0  0  0  0  1  0  0  0  0  0  0
  159.1660  210.1150  156.0960 O   0  0  0  0  0  0  0  0  0  0  0  0
  1  9  1  6  0  0  0
  1 10  1  0  0  0  0
  1  3  1  0  0  0  0
  2  5  1  1  0  0  0
  2  6  1  0  0  0  0
  3 11  1  0  0  0  0
  3 22  1  1  0  0  0
  4  8  1  0  0  0  0
  6  7  1  1  0  0  0
  7  8  1  0  0  0  0
 10  6  1  0  0  0  0
 10  3  1  0  0  0  0
 11  4  1  0  0  0  0
 12  9  1  0  0  0  0
 12  2  1  0  0  0  0
 13 16  2  0  0  0  0
 14 12  1  0  0  0  0
 15 14  1  0  0  0  0
 16 17  1  0  0  0  0
 16 14  1  0  0  0  0
 17 18  2  0  0  0  0
 19 20  2  0  0  0  0
 20 18  1  0  0  0  0
 20 21  1  0  0  0  0
 22 24  1  0  0  0  0
 23 24  1  0  0  0  0
 24 26  1  0  0  0  0
 26 25  1  0  0  0  0
 26 27  1  0  0  0  0
 27 28  1  0  0  0  0
 28 29  1  0  0  0  0
 31 30  1  0  0  0  0
 31 29  1  0  0  0  0
M  END
>  <MODEL>
4

>  <REMARK>
 VINA RESULT:      -5.4      1.714      8.994
  Name = 
  10 active torsions:
  status: ('A' for Active; 'I' for Inactive)
    1  A    between atoms: C_5  and  C_9
    2  A    between atoms: C_5  and  C_21
    3  A    between atoms: C_7  and  C_20
    4  A    between atoms: C_9  and  N_30
    5  A    between atoms: C_11  and  C_21
    6  A    between atoms: C_11  and  O_31
    7  A    between atoms: N_14  and  C_29
    8  A    between atoms: N_15  and  C_25
    9  A    between atoms: C_20  and  N_30
   10  A    between atoms: C_22  and  C_27
                            x       y       z     vdW  Elec       q    Type
                         _______ _______ _______ _____ _____    ______ ____

>  <TORSDO>
F 10

$$$$
=
 OpenBabel11072412113D

 31 33  0  0  1  0  0  0  0  0999 V2000
  161.0660  207.3270  149.5580 C   0  0  1  0  0  3  0  0  0  0  0  0
  160.8760  204.3570  148.9060 C   0  0  1  0  0  3  0  0  0  0  0  0
  161.3870  207.2470  151.0610 C   0  0  1  0  0  0  0  0  0  0  0  0
  162.5300  205.5030  152.6390 C   0  0  0  0  0  2  0  0  0  0  0  0
  161.5520  203.0010  148.8260 C   0  0  0  0  0  1  0  0  0  0  0  0
  160.9520  204.9200  150.3120 C   0  0  2  0  0  3  0  0  0  0  0  0
  160.8180  204.0310  151.4610 N   0  0  0  0  0  2  0  0  0  0  0  0
  161.1650  204.7680  152.6890 C   0  0  0  0  0  2  0  0  0  0  0  0
  162.0980  206.6730  148.6090 C   0  0  0  0  0  2  0  0  0  0  0  0
  160.3470  206.3120  150.4650 C   0  0  2  0  0  3  0  0  0  0  0  0
  162.7060  206.5940  151.5500 C   0  0  0  0  0  2  0  0  0  0  0  0
  161.6170  205.3390  147.9740 C   0  0  2  0  0  3  0  0  0  0  0  0
  160.4670  204.8740  144.5070 O   0  0  0  0  0  0  0  0  0  0  0  0
  160.9390  205.5290  146.6910 N   0  0  0  0  0  0  0  0  0  0  0  0
  160.0820  206.6310  146.5680 N   0  0  0  0  0  1  0  0  0  0  0  0
  161.1430  204.6760  145.5520 C   0  0  0  0  0  0  0  0  0  0  0  0
  162.0440  203.5610  145.6320 N   0  0  0  0  0  0  0  0  0  0  0  0
  161.7530  202.2980  145.7680 C   0  0  0  0  0  3  0  0  0  0  0  0
  159.8180  201.3280  146.7720 O   0  0  0  0  0  1  0  0  0  0  0  0
  160.4030  201.7090  145.7240 C   0  0  0  0  0  0  0  0  0  0  0  0
  159.7270  201.6610  144.5120 O   0  0  0  0  0  0  0  0  0  0  0  0
  160.7970  208.3860  151.8790 C   0  0  0  0  0  2  0  0  0  0  0  0
  161.2050  208.5560  154.1900 C   0  0  0  0  0  1  0  0  0  0  0  0
  161.7570  208.8480  152.8700 N   0  0  0  0  0  0  0  0  0  0  0  0
  161.6150  210.6980  151.3850 O   0  0  0  0  0  1  0  0  0  0  0  0
  161.9400  210.2920  152.6870 C   0  0  1  0  0  3  0  0  0  0  0  0
  161.1250  211.0670  153.7110 C   0  0  0  0  0  2  0  0  0  0  0  0
  160.0790  211.9200  153.0140 C   0  0  0  0  0  2  0  0  0  0  0  0
  158.6890  211.5260  153.4760 C   0  0  0  0  0  2  0  0  0  0  0  0
  157.3760  211.0810  155.1910 C   0  0  0  0  0  1  0  0  0  0  0  0
  158.7180  211.1610  154.8230 O   0  0  0  0  0  0  0  0  0  0  0  0
  1  9  1  6  0  0  0
  1 10  1  0  0  0  0
  1  3  1  0  0  0  0
  2  5  1  1  0  0  0
  2  6  1  0  0  0  0
  3 11  1  0  0  0  0
  3 22  1  1  0  0  0
  4  8  1  0  0  0  0
  6 10  1  0  0  0  0
  6  7  1  1  0  0  0
  7  8  1  0  0  0  0
 10  3  1  0  0  0  0
 11  4  1  0  0  0  0
 12  9  1  0  0  0  0
 12  2  1  0  0  0  0
 13 16  2  0  0  0  0
 14 12  1  0  0  0  0
 15 14  1  0  0  0  0
 16 17  1  0  0  0  0
 16 14  1  0  0  0  0
 17 18  2  0  0  0  0
 20 18  1  0  0  0  0
 20 19  1  0  0  0  0
 21 20  2  0  0  0  0
 22 24  1  0  0  0  0
 24 23  1  0  0  0  0
 25 26  1  0  0  0  0
 26 24  1  0  0  0  0
 26 27  1  0  0  0  0
 28 29  1  0  0  0  0
 28 27  1  0  0  0  0
 29 31  1  0  0  0  0
 31 30  1  0  0  0  0
M  END
>  <MODEL>
5

>  <REMARK>
 VINA RESULT:      -5.3      1.674      8.778
  Name = 
  10 active torsions:
  status: ('A' for Active; 'I' for Inactive)
    1  A    between atoms: C_5  and  C_9
    2  A    between atoms: C_5  and  C_21
    3  A    between atoms: C_7  and  C_20
    4  A    between atoms: C_9  and  N_30
    5  A    between atoms: C_11  and  C_21
    6  A    between atoms: C_11  and  O_31
    7  A    between atoms: N_14  and  C_29
    8  A    between atoms: N_15  and  C_25
    9  A    between atoms: C_20  and  N_30
   10  A    between atoms: C_22  and  C_27
                            x       y       z     vdW  Elec       q    Type
                         _______ _______ _______ _____ _____    ______ ____

>  <TORSDO>
F 10

$$$$
=
 OpenBabel11072412113D

 31 33  0  0  1  0  0  0  0  0999 V2000
  161.8070  213.1620  143.9590 C   0  0  1  0  0  3  0  0  0  0  0  0
  159.9840  213.7950  141.6020 C   0  0  1  0  0  3  0  0  0  0  0  0
  160.7740  213.1610  145.1000 C   0  0  1  0  0  0  0  0  0  0  0  0
  158.2070  212.7080  145.2960 C   0  0  0  0  0  2  0  0  0  0  0  0
  158.8150  213.3930  140.7230 C   0  0  0  0  0  1  0  0  0  0  0  0
  159.5640  213.8860  143.0560 C   0  0  2  0  0  3  0  0  0  0  0  0
  158.2480  214.4110  143.4030 N   0  0  0  0  0  2  0  0  0  0  0  0
  157.9910  214.1730  144.8340 C   0  0  0  0  0  2  0  0  0  0  0  0
  161.5870  212.1130  142.8440 C   0  0  0  0  0  2  0  0  0  0  0  0
  160.6980  214.2270  144.0180 C   0  0  2  0  0  3  0  0  0  0  0  0
  159.6300  212.1160  145.1230 C   0  0  0  0  0  2  0  0  0  0  0  0
  161.0780  212.7110  141.5030 C   0  0  2  0  0  3  0  0  0  0  0  0
  163.8450  212.5160  139.0820 O   0  0  0  0  0  0  0  0  0  0  0  0
  162.1630  213.0760  140.5920 N   0  0  0  0  0  0  0  0  0  0  0  0
  162.4410  214.4400  140.4290 N   0  0  0  0  0  1  0  0  0  0  0  0
  162.9740  212.1130  139.9000 C   0  0  0  0  0  0  0  0  0  0  0  0
  162.7410  210.7070  140.0740 N   0  0  0  0  0  0  0  0  0  0  0  0
  161.9620  209.9270  139.3780 C   0  0  0  0  0  3  0  0  0  0  0  0
  161.6450  209.9100  137.0130 O   0  0  0  0  0  0  0  0  0  0  0  0
  161.2450  210.2940  138.1440 C   0  0  0  0  0  0  0  0  0  0  0  0
  160.0520  210.9980  138.2400 O   0  0  0  0  0  1  0  0  0  0  0  0
  161.3200  213.6670  146.4260 C   0  0  0  0  0  2  0  0  0  0  0  0
  160.4800  213.4570  148.6140 C   0  0  0  0  0  1  0  0  0  0  0  0
  161.0350  212.7120  147.4870 N   0  0  0  0  0  0  0  0  0  0  0  0
  163.3290  212.9860  148.0450 O   0  0  0  0  0  1  0  0  0  0  0  0
  162.2940  212.0590  147.8620 C   0  0  1  0  0  3  0  0  0  0  0  0
  162.1050  211.2120  149.1110 C   0  0  0  0  0  2  0  0  0  0  0  0
  162.0990  209.7360  148.7510 C   0  0  0  0  0  2  0  0  0  0  0  0
  161.9950  208.8910  150.0060 C   0  0  0  0  0  2  0  0  0  0  0  0
  162.3890  207.4670  148.3680 C   0  0  0  0  0  1  0  0  0  0  0  0
  161.8850  207.5410  149.6660 O   0  0  0  0  0  0  0  0  0  0  0  0
  1  9  1  6  0  0  0
  1 10  1  0  0  0  0
  1  3  1  0  0  0  0
  2  5  1  6  0  0  0
  2  6  1  0  0  0  0
  3 11  1  0  0  0  0
  3 22  1  1  0  0  0
  6  7  1  6  0  0  0
  6 10  1  0  0  0  0
  7  8  1  0  0  0  0
  8  4  1  0  0  0  0
 10  3  1  0  0  0  0
 11  4  1  0  0  0  0
 12  2  1  0  0  0  0
 12  9  1  0  0  0  0
 13 16  2  0  0  0  0
 14 12  1  0  0  0  0
 15 14  1  0  0  0  0
 16 17  1  0  0  0  0
 16 14  1  0  0  0  0
 18 17  2  0  0  0  0
 19 20  2  0  0  0  0
 20 21  1  0  0  0  0
 20 18  1  0  0  0  0
 22 24  1  0  0  0  0
 24 26  1  0  0  0  0
 24 23  1  0  0  0  0
 26 25  1  0  0  0  0
 26 27  1  0  0  0  0
 28 27  1  0  0  0  0
 28 29  1  0  0  0  0
 30 31  1  0  0  0  0
 31 29  1  0  0  0  0
M  END
>  <MODEL>
6

>  <REMARK>
 VINA RESULT:      -5.2      7.646     11.823
  Name = 
  10 active torsions:
  status: ('A' for Active; 'I' for Inactive)
    1  A    between atoms: C_5  and  C_9
    2  A    between atoms: C_5  and  C_21
    3  A    between atoms: C_7  and  C_20
    4  A    between atoms: C_9  and  N_30
    5  A    between atoms: C_11  and  C_21
    6  A    between atoms: C_11  and  O_31
    7  A    between atoms: N_14  and  C_29
    8  A    between atoms: N_15  and  C_25
    9  A    between atoms: C_20  and  N_30
   10  A    between atoms: C_22  and  C_27
                            x       y       z     vdW  Elec       q    Type
                         _______ _______ _______ _____ _____    ______ ____

>  <TORSDO>
F 10

$$$$
=
 OpenBabel11072412113D

 31 33  0  0  1  0  0  0  0  0999 V2000
  161.0640  205.7110  149.0960 C   0  0  1  0  0  3  0  0  0  0  0  0
  160.8220  202.8260  150.0430 C   0  0  1  0  0  3  0  0  0  0  0  0
  161.4180  206.3970  150.4280 C   0  0  1  0  0  0  0  0  0  0  0  0
  162.5730  205.6690  152.6570 C   0  0  0  0  0  2  0  0  0  0  0  0
  161.4780  201.6020  150.6540 C   0  0  0  0  0  1  0  0  0  0  0  0
  160.9360  204.0220  150.9680 C   0  0  2  0  0  3  0  0  0  0  0  0
  160.8160  203.8420  152.4100 N   0  0  0  0  0  2  0  0  0  0  0  0
  161.2000  205.0910  153.0900 C   0  0  0  0  0  2  0  0  0  0  0  0
  162.0660  204.6430  148.5970 C   0  0  0  0  0  2  0  0  0  0  0  0
  160.3530  205.3120  150.4010 C   0  0  2  0  0  3  0  0  0  0  0  0
  162.7380  206.0530  151.1630 C   0  0  0  0  0  2  0  0  0  0  0  0
  161.5540  203.1830  148.7320 C   0  0  2  0  0  3  0  0  0  0  0  0
  160.5990  202.5800  145.2280 O   0  0  0  0  0  0  0  0  0  0  0  0
  160.8500  202.7120  147.5390 N   0  0  0  0  0  0  0  0  0  0  0  0
  159.7330  201.8880  147.7290 N   0  0  0  0  0  1  0  0  0  0  0  0
  161.2200  203.0850  146.2010 C   0  0  0  0  0  0  0  0  0  0  0  0
  162.3360  203.9590  145.9730 N   0  0  0  0  0  0  0  0  0  0  0  0
  162.3800  205.0380  145.2420 C   0  0  0  0  0  3  0  0  0  0  0  0
  160.3140  206.2320  145.2660 O   0  0  0  0  0  1  0  0  0  0  0  0
  161.2300  205.6920  144.5920 C   0  0  0  0  0  0  0  0  0  0  0  0
  161.2070  205.7960  143.2070 O   0  0  0  0  0  0  0  0  0  0  0  0
  160.8610  207.8060  150.5620 C   0  0  0  0  0  2  0  0  0  0  0  0
  160.5990  208.5770  152.7700 C   0  0  0  0  0  1  0  0  0  0  0  0
  161.5280  208.5130  151.6450 N   0  0  0  0  0  0  0  0  0  0  0  0
  161.9990  209.9010  149.7740 O   0  0  0  0  0  1  0  0  0  0  0  0
  161.8670  209.8590  151.1690 C   0  0  1  0  0  3  0  0  0  0  0  0
  160.8320  210.8680  151.6410 C   0  0  0  0  0  2  0  0  0  0  0  0
  160.7930  212.0610  150.7010 C   0  0  0  0  0  2  0  0  0  0  0  0
  159.7030  213.0270  151.1250 C   0  0  0  0  0  2  0  0  0  0  0  0
  158.7940  213.5630  153.0620 C   0  0  0  0  0  1  0  0  0  0  0  0
  158.9760  212.4910  152.1890 O   0  0  0  0  0  0  0  0  0  0  0  0
  1  9  1  1  0  0  0
  1 10  1  0  0  0  0
  1  3  1  0  0  0  0
  2  5  1  1  0  0  0
  2  6  1  0  0  0  0
  3 22  1  1  0  0  0
  3 11  1  0  0  0  0
  4  8  1  0  0  0  0
  6  7  1  1  0  0  0
  7  8  1  0  0  0  0
  9 12  1  0  0  0  0
 10  3  1  0  0  0  0
 10  6  1  0  0  0  0
 11  4  1  0  0  0  0
 12  2  1  0  0  0  0
 13 16  2  0  0  0  0
 14 15  1  0  0  0  0
 14 12  1  0  0  0  0
 16 14  1  0  0  0  0
 17 16  1  0  0  0  0
 18 17  2  0  0  0  0
 20 18  1  0  0  0  0
 20 19  1  0  0  0  0
 21 20  2  0  0  0  0
 22 24  1  0  0  0  0
 24 23  1  0  0  0  0
 25 26  1  0  0  0  0
 26 27  1  0  0  0  0
 26 24  1  0  0  0  0
 28 29  1  0  0  0  0
 28 27  1  0  0  0  0
 29 31  1  0  0  0  0
 31 30  1  0  0  0  0
M  END
>  <MODEL>
7

>  <REMARK>
 VINA RESULT:      -5.2      2.300      8.394
  Name = 
  10 active torsions:
  status: ('A' for Active; 'I' for Inactive)
    1  A    between atoms: C_5  and  C_9
    2  A    between atoms: C_5  and  C_21
    3  A    between atoms: C_7  and  C_20
    4  A    between atoms: C_9  and  N_30
    5  A    between atoms: C_11  and  C_21
    6  A    between atoms: C_11  and  O_31
    7  A    between atoms: N_14  and  C_29
    8  A    between atoms: N_15  and  C_25
    9  A    between atoms: C_20  and  N_30
   10  A    between atoms: C_22  and  C_27
                            x       y       z     vdW  Elec       q    Type
                         _______ _______ _______ _____ _____    ______ ____

>  <TORSDO>
F 10

$$$$
=
 OpenBabel11072412113D

 31 33  0  0  1  0  0  0  0  0999 V2000
  160.8180  206.1930  152.2030 C   0  0  1  0  0  3  0  0  0  0  0  0
  161.2300  209.1250  152.9180 C   0  0  1  0  0  3  0  0  0  0  0  0
  161.3240  206.2020  150.7490 C   0  0  1  0  0  0  0  0  0  0  0  0
  163.0080  207.6440  149.3650 C   0  0  0  0  0  2  0  0  0  0  0  0
  162.1810  210.2910  153.1140 C   0  0  0  0  0  1  0  0  0  0  0  0
  161.3410  208.5650  151.5140 C   0  0  2  0  0  3  0  0  0  0  0  0
  161.5470  209.4640  150.3840 N   0  0  0  0  0  2  0  0  0  0  0  0
  161.8600  208.6720  149.1820 C   0  0  0  0  0  2  0  0  0  0  0  0
  161.8520  206.5910  153.2830 C   0  0  0  0  0  2  0  0  0  0  0  0
  160.4590  207.3480  151.2510 C   0  0  2  0  0  3  0  0  0  0  0  0
  162.8030  206.5380  150.4330 C   0  0  0  0  0  2  0  0  0  0  0  0
  161.6150  207.9980  153.8990 C   0  0  2  0  0  3  0  0  0  0  0  0
  160.1920  208.7130  157.2180 O   0  0  0  0  0  0  0  0  0  0  0  0
  160.7660  207.9630  155.0900 N   0  0  0  0  0  0  0  0  0  0  0  0
  159.6840  207.0720  155.0890 N   0  0  0  0  0  1  0  0  0  0  0  0
  161.0120  208.7570  156.2620 C   0  0  0  0  0  0  0  0  0  0  0  0
  162.1340  209.6510  156.3120 N   0  0  0  0  0  0  0  0  0  0  0  0
  162.1270  210.9550  156.2970 C   0  0  0  0  0  3  0  0  0  0  0  0
  160.8210  212.7050  157.2600 O   0  0  0  0  0  1  0  0  0  0  0  0
  160.9340  211.8170  156.3740 C   0  0  0  0  0  0  0  0  0  0  0  0
  159.9590  211.7100  155.3910 O   0  0  0  0  0  0  0  0  0  0  0  0
  160.5910  205.2310  149.8360 C   0  0  0  0  0  2  0  0  0  0  0  0
  161.4680  204.2800  147.8710 C   0  0  0  0  0  1  0  0  0  0  0  0
  161.5100  204.2220  149.3290 N   0  0  0  0  0  0  0  0  0  0  0  0
  160.1520  203.0330  150.8760 O   0  0  0  0  0  1  0  0  0  0  0  0
  161.0610  202.9130  149.8140 C   0  0  1  0  0  3  0  0  0  0  0  0
  160.4550  202.1020  148.6790 C   0  0  0  0  0  2  0  0  0  0  0  0
  161.2970  200.8680  148.4050 C   0  0  0  0  0  2  0  0  0  0  0  0
  161.1980  200.4800  146.9420 C   0  0  0  0  0  2  0  0  0  0  0  0
  160.0710  201.3350  145.2500 C   0  0  0  0  0  1  0  0  0  0  0  0
  161.0960  201.6240  146.1500 O   0  0  0  0  0  0  0  0  0  0  0  0
  1  9  1  1  0  0  0
  2  5  1  6  0  0  0
  2 12  1  0  0  0  0
  3 22  1  6  0  0  0
  3 10  1  0  0  0  0
  3  1  1  0  0  0  0
  4 11  1  0  0  0  0
  6  7  1  6  0  0  0
  6  2  1  0  0  0  0
  8  4  1  0  0  0  0
  8  7  1  0  0  0  0
  9 12  1  0  0  0  0
 10  6  1  0  0  0  0
 10  1  1  0  0  0  0
 11  3  1  0  0  0  0
 12 14  1  0  0  0  0
 14 16  1  0  0  0  0
 15 14  1  0  0  0  0
 16 17  1  0  0  0  0
 16 13  2  0  0  0  0
 18 17  2  0  0  0  0
 18 20  1  0  0  0  0
 20 19  1  0  0  0  0
 21 20  2  0  0  0  0
 23 24  1  0  0  0  0
 24 26  1  0  0  0  0
 24 22  1  0  0  0  0
 26 25  1  0  0  0  0
 27 26  1  0  0  0  0
 28 27  1  0  0  0  0
 29 28  1  0  0  0  0
 30 31  1  0  0  0  0
 31 29  1  0  0  0  0
M  END
>  <MODEL>
8

>  <REMARK>
 VINA RESULT:      -5.1      2.208      3.569
  Name = 
  10 active torsions:
  status: ('A' for Active; 'I' for Inactive)
    1  A    between atoms: C_5  and  C_9
    2  A    between atoms: C_5  and  C_21
    3  A    between atoms: C_7  and  C_20
    4  A    between atoms: C_9  and  N_30
    5  A    between atoms: C_11  and  C_21
    6  A    between atoms: C_11  and  O_31
    7  A    between atoms: N_14  and  C_29
    8  A    between atoms: N_15  and  C_25
    9  A    between atoms: C_20  and  N_30
   10  A    between atoms: C_22  and  C_27
                            x       y       z     vdW  Elec       q    Type
                         _______ _______ _______ _____ _____    ______ ____

>  <TORSDO>
F 10

$$$$
=
 OpenBabel11072412113D

 31 33  0  0  1  0  0  0  0  0999 V2000
  161.1670  207.4490  149.2360 C   0  0  1  0  0  3  0  0  0  0  0  0
  160.8450  204.4560  148.7760 C   0  0  1  0  0  3  0  0  0  0  0  0
  161.4550  207.4550  150.7480 C   0  0  1  0  0  0  0  0  0  0  0  0
  162.4800  205.7670  152.4620 C   0  0  0  0  0  2  0  0  0  0  0  0
  161.4540  203.0670  148.8000 C   0  0  0  0  0  1  0  0  0  0  0  0
  160.9210  205.1060  150.1430 C   0  0  2  0  0  3  0  0  0  0  0  0
  160.7210  204.3040  151.3450 N   0  0  0  0  0  2  0  0  0  0  0  0
  161.0800  205.1030  152.5290 C   0  0  0  0  0  2  0  0  0  0  0  0
  162.1830  206.6850  148.3550 C   0  0  0  0  0  2  0  0  0  0  0  0
  160.3810  206.5330  150.1910 C   0  0  2  0  0  3  0  0  0  0  0  0
  162.7300  206.7740  151.3080 C   0  0  0  0  0  2  0  0  0  0  0  0
  161.6500  205.3370  147.7980 C   0  0  2  0  0  3  0  0  0  0  0  0
  160.5140  204.6790  144.3580 O   0  0  0  0  0  0  0  0  0  0  0  0
  161.0070  205.4730  146.4910 N   0  0  0  0  0  0  0  0  0  0  0  0
  160.2420  206.6250  146.2620 N   0  0  0  0  0  1  0  0  0  0  0  0
  161.1570  204.5160  145.4300 C   0  0  0  0  0  0  0  0  0  0  0  0
  161.9650  203.3440  145.6170 N   0  0  0  0  0  0  0  0  0  0  0  0
  161.5740  202.1060  145.7330 C   0  0  0  0  0  3  0  0  0  0  0  0
  159.8490  201.0290  144.4850 O   0  0  0  0  0  0  0  0  0  0  0  0
  160.1990  201.6090  145.5470 C   0  0  0  0  0  0  0  0  0  0  0  0
  159.3000  201.6990  146.6010 O   0  0  0  0  0  1  0  0  0  0  0  0
  160.9050  208.6720  151.4760 C   0  0  0  0  0  2  0  0  0  0  0  0
  162.0750  210.2470  152.7760 C   0  0  0  0  0  1  0  0  0  0  0  0
  161.8560  209.7720  151.4120 N   0  0  0  0  0  0  0  0  0  0  0  0
  160.8590  211.9280  151.3410 O   0  0  0  0  0  1  0  0  0  0  0  0
  161.2750  210.8290  150.5770 C   0  0  1  0  0  3  0  0  0  0  0  0
  162.2610  211.2630  149.5030 C   0  0  0  0  0  2  0  0  0  0  0  0
  161.6920  212.4230  148.7040 C   0  0  0  0  0  2  0  0  0  0  0  0
  161.0210  211.9110  147.4430 C   0  0  0  0  0  2  0  0  0  0  0  0
  159.6260  212.4640  145.8280 C   0  0  0  0  0  1  0  0  0  0  0  0
  159.8590  212.6420  147.1900 O   0  0  0  0  0  0  0  0  0  0  0  0
  1  9  1  6  0  0  0
  1 10  1  0  0  0  0
  1  3  1  0  0  0  0
  2  5  1  1  0  0  0
  2  6  1  0  0  0  0
  3 11  1  0  0  0  0
  3 22  1  1  0  0  0
  4  8  1  0  0  0  0
  6 10  1  0  0  0  0
  6  7  1  1  0  0  0
  7  8  1  0  0  0  0
 10  3  1  0  0  0  0
 11  4  1  0  0  0  0
 12  9  1  0  0  0  0
 12  2  1  0  0  0  0
 13 16  2  0  0  0  0
 14 12  1  0  0  0  0
 15 14  1  0  0  0  0
 16 17  1  0  0  0  0
 16 14  1  0  0  0  0
 17 18  2  0  0  0  0
 19 20  2  0  0  0  0
 20 18  1  0  0  0  0
 20 21  1  0  0  0  0
 24 22  1  0  0  0  0
 24 23  1  0  0  0  0
 26 25  1  0  0  0  0
 26 24  1  0  0  0  0
 27 26  1  0  0  0  0
 28 27  1  0  0  0  0
 29 28  1  0  0  0  0
 30 31  1  0  0  0  0
 31 29  1  0  0  0  0
M  END
>  <MODEL>
9

>  <REMARK>
 VINA RESULT:      -5.0      2.698      8.236
  Name = 
  10 active torsions:
  status: ('A' for Active; 'I' for Inactive)
    1  A    between atoms: C_5  and  C_9
    2  A    between atoms: C_5  and  C_21
    3  A    between atoms: C_7  and  C_20
    4  A    between atoms: C_9  and  N_30
    5  A    between atoms: C_11  and  C_21
    6  A    between atoms: C_11  and  O_31
    7  A    between atoms: N_14  and  C_29
    8  A    between atoms: N_15  and  C_25
    9  A    between atoms: C_20  and  N_30
   10  A    between atoms: C_22  and  C_27
                            x       y       z     vdW  Elec       q    Type
                         _______ _______ _______ _____ _____    ______ ____

>  <TORSDO>
F 10

$$$$
