=
 OpenBabel11072411093D

 46 49  0  0  1  0  0  0  0  0999 V2000
  160.7600  207.6270  155.6170 C   0  0  2  0  0  3  0  0  0  0  0  0
  160.0450  207.2400  156.8500 N   0  0  0  0  0  2  0  0  0  0  0  0
  159.6650  208.4960  156.0630 C   0  0  1  0  0  3  0  0  0  0  0  0
  160.3820  209.7420  156.5070 C   0  0  1  0  0  3  0  0  0  0  0  0
  162.5680  210.5820  155.4030 C   0  0  0  0  0  2  0  0  0  0  0  0
  161.8330  209.5760  155.9830 C   0  0  0  0  0  3  0  0  0  0  0  0
  159.6480  211.3270  155.9320 S   0  0  0  0  0  0  0  0  0  0  0  0
  158.3750  213.6120  152.0000 C   0  0  0  0  0  2  0  0  0  0  0  0
  160.0210  211.7450  152.6690 C   0  0  2  0  0  3  0  0  0  0  0  0
  161.0560  210.9390  152.4750 N   0  0  0  0  0  2  0  0  0  0  0  0
  158.0180  213.6880  153.3940 N   0  0  0  0  0  2  0  0  0  0  0  0
  157.8750  212.3520  153.9030 C   0  0  1  0  0  3  0  0  0  0  0  0
  159.8230  213.0500  151.8320 C   0  0  1  0  0  3  0  0  0  0  0  0
  159.9490  212.9690  150.4000 N   0  0  0  0  0  1  0  0  0  0  0  0
  159.2190  211.6370  154.0190 C   0  0  2  0  0  3  0  0  0  0  0  0
  156.9530  213.1300  156.1230 C   0  0  0  0  0  3  0  0  0  0  0  0
  156.1610  212.9740  157.1670 C   0  0  0  0  0  3  0  0  0  0  0  0
  155.1960  211.8580  157.2600 C   0  0  0  0  0  2  0  0  0  0  0  0
  155.2400  210.9330  156.0930 C   0  0  0  0  0  0  0  0  0  0  0  0
  156.1370  211.1680  155.0500 N   0  0  0  0  0  0  0  0  0  0  0  0
  154.4590  209.8820  156.0550 O   0  0  0  0  0  0  0  0  0  0  0  0
  156.9310  212.2430  155.0040 C   0  0  0  0  0  0  0  0  0  0  0  0
  161.7030  210.9270  151.2660 C   0  0  0  0  0  3  0  0  0  0  0  0
  162.5800  210.0510  150.9560 O   0  0  0  0  0  0  0  0  0  0  0  0
  160.2850  206.9610  154.3220 C   0  0  0  0  0  2  0  0  0  0  0  0
  161.3210  207.1930  153.2000 C   0  0  2  0  0  0  0  0  0  0  0  0
  162.3870  207.9390  153.5910 F   0  0  0  0  0  0  0  0  0  0  0  0
  160.4680  207.8600  152.0710 C   0  0  0  0  0  1  0  0  0  0  0  0
  163.0230  206.2260  151.6480 C   0  0  0  0  0  1  0  0  0  0  0  0
  162.0030  205.9090  152.7340 C   0  0  2  0  0  3  0  0  0  0  0  0
  161.2070  204.6100  152.4290 C   0  0  0  0  0  2  0  0  0  0  0  0
  161.6620  204.0840  151.0780 C   0  0  0  0  0  2  0  0  0  0  0  0
  160.5170  204.2840  150.0390 C   0  0  0  0  0  2  0  0  0  0  0  0
  160.7870  203.5770  148.7000 C   0  0  1  0  0  3  0  0  0  0  0  0
  162.6860  205.1980  147.0920 C   0  0  0  0  0  2  0  0  0  0  0  0
  161.9620  204.3120  148.0920 C   0  0  1  0  0  3  0  0  0  0  0  0
  160.4860  205.4170  146.3690 O   0  0  0  0  0  1  0  0  0  0  0  0
  161.2910  205.5800  147.4980 C   0  0  2  0  0  0  0  0  0  0  0  0
  161.5570  208.0050  148.3480 N   0  0  0  0  0  0  0  0  0  0  0  0
  161.4540  206.9530  147.9610 C   0  0  0  0  0  0  0  0  0  0  0  0
  160.3760  201.4310  149.9490 C   0  0  0  0  0  1  0  0  0  0  0  0
  160.9670  202.0960  148.7670 N   0  0  0  0  0  0  0  0  0  0  0  0
  160.1620  201.5400  147.6730 C   0  0  0  0  0  2  0  0  0  0  0  0
  161.2390  199.8120  146.1280 C   0  0  0  0  0  1  0  0  0  0  0  0
  160.4950  201.9400  145.3880 O   0  0  0  0  0  1  0  0  0  0  0  0
  161.0250  201.2680  146.4670 C   0  0  1  0  0  3  0  0  0  0  0  0
  1 25  1  6  0  0  0
  1  3  1  0  0  0  0
  1  2  1  0  0  0  0
  3  4  1  1  0  0  0
  3  2  1  0  0  0  0
  4  6  1  6  0  0  0
  5  6  2  0  0  0  0
  7  4  1  0  0  0  0
  8 11  1  0  0  0  0
  9 10  1  1  0  0  0
  9 15  1  0  0  0  0
 11 12  1  0  0  0  0
 12 15  1  0  0  0  0
 12 22  1  1  0  0  0
 13 14  1  6  0  0  0
 13  8  1  0  0  0  0
 13  9  1  0  0  0  0
 15  7  1  1  0  0  0
 16 17  2  0  0  0  0
 17 18  1  0  0  0  0
 19 18  1  0  0  0  0
 20 19  1  0  0  0  0
 21 19  2  0  0  0  0
 22 20  2  0  0  0  0
 22 16  1  0  0  0  0
 23 10  1  0  0  0  0
 24 23  2  0  0  0  0
 26 28  1  6  0  0  0
 26 27  1  0  0  0  0
 26 25  1  0  0  0  0
 30 29  1  6  0  0  0
 30 26  1  0  0  0  0
 31 30  1  0  0  0  0
 32 31  1  0  0  0  0
 33 32  1  0  0  0  0
 34 42  1  0  0  0  0
 34 33  1  1  0  0  0
 35 38  1  0  0  0  0
 35 36  1  0  0  0  0
 36 34  1  6  0  0  0
 38 37  1  6  0  0  0
 38 40  1  0  0  0  0
 38 36  1  0  0  0  0
 40 39  3  0  0  0  0
 42 41  1  0  0  0  0
 43 42  1  0  0  0  0
 45 46  1  0  0  0  0
 46 44  1  6  0  0  0
 46 43  1  0  0  0  0
M  END
>  <MODEL>
1

>  <REMARK>
 VINA RESULT:      -6.3      0.000      0.000
  Name = 
  18 active torsions:
  status: ('A' for Active; 'I' for Inactive)
    1  A    between atoms: C_3  and  C_7
    2  A    between atoms: C_3  and  C_16
    3  A    between atoms: C_5  and  C_42
    4  A    between atoms: C_7  and  C_12
    5  A    between atoms: C_8  and  N_26
    6  A    between atoms: C_8  and  C_37
    7  A    between atoms: C_10  and  N_23
    8  A    between atoms: C_11  and  C_18
    9  A    between atoms: C_11  and  C_45
   10  A    between atoms: C_12  and  C_17
   11  A    between atoms: C_12  and  N_26
   12  A    between atoms: C_16  and  C_45
   13  A    between atoms: C_18  and  C_34
   14  A    between atoms: C_28  and  C_44
   15  A    between atoms: C_29  and  S_39
   16  A    between atoms: C_29  and  C_40
   17  A    between atoms: C_29  and  C_46
   18  A    between atoms: S_39  and  C_43
                            x       y       z     vdW  Elec       q    Type
                         _______ _______ _______ _____ _____    ______ ____

>  <TORSDO>
F 18

$$$$
=
 OpenBabel11072411093D

 46 49  0  0  1  0  0  0  0  0999 V2000
  161.4800  208.9230  150.8690 C   0  0  2  0  0  3  0  0  0  0  0  0
  162.2800  209.6940  149.8950 N   0  0  0  0  0  2  0  0  0  0  0  0
  161.9050  210.2720  151.2620 C   0  0  1  0  0  3  0  0  0  0  0  0
  160.6130  211.0430  151.2710 C   0  0  1  0  0  3  0  0  0  0  0  0
  159.5670  212.1810  153.3480 C   0  0  0  0  0  2  0  0  0  0  0  0
  160.1980  211.1090  152.7650 C   0  0  0  0  0  3  0  0  0  0  0  0
  160.6890  212.7250  150.5320 S   0  0  0  0  0  0  0  0  0  0  0  0
  156.7220  213.7200  148.1720 C   0  0  0  0  0  2  0  0  0  0  0  0
  157.6080  213.9350  150.5820 C   0  0  2  0  0  3  0  0  0  0  0  0
  157.4830  214.1240  151.8890 N   0  0  0  0  0  2  0  0  0  0  0  0
  157.9880  213.1140  147.8450 N   0  0  0  0  0  2  0  0  0  0  0  0
  159.0340  213.8740  148.4710 C   0  0  1  0  0  3  0  0  0  0  0  0
  156.3940  213.5270  149.6870 C   0  0  1  0  0  3  0  0  0  0  0  0
  155.1650  214.2650  149.8250 N   0  0  0  0  0  1  0  0  0  0  0  0
  159.0450  213.6930  149.9860 C   0  0  2  0  0  3  0  0  0  0  0  0
  161.5010  214.3860  148.2880 C   0  0  0  0  0  3  0  0  0  0  0  0
  162.6280  214.4310  147.6020 C   0  0  0  0  0  3  0  0  0  0  0  0
  162.7250  213.9160  146.2190 C   0  0  0  0  0  2  0  0  0  0  0  0
  161.4370  213.3870  145.6880 C   0  0  0  0  0  0  0  0  0  0  0  0
  160.2910  213.4110  146.4850 N   0  0  0  0  0  0  0  0  0  0  0  0
  161.3690  212.9240  144.4650 O   0  0  0  0  0  0  0  0  0  0  0  0
  160.2990  213.8290  147.7550 C   0  0  0  0  0  0  0  0  0  0  0  0
  156.2630  214.4520  152.4230 C   0  0  0  0  0  3  0  0  0  0  0  0
  155.8790  214.0500  153.5740 O   0  0  0  0  0  0  0  0  0  0  0  0
  162.2560  207.9480  151.7600 C   0  0  0  0  0  2  0  0  0  0  0  0
  161.2720  207.0210  152.5060 C   0  0  2  0  0  0  0  0  0  0  0  0
  160.1110  207.6310  152.8580 F   0  0  0  0  0  0  0  0  0  0  0  0
  162.1170  206.5260  153.7270 C   0  0  0  0  0  1  0  0  0  0  0  0
  161.2570  204.5400  152.2060 C   0  0  0  0  0  1  0  0  0  0  0  0
  160.7600  205.8670  151.6460 C   0  0  2  0  0  3  0  0  0  0  0  0
  160.8100  205.9040  150.0940 C   0  0  0  0  0  2  0  0  0  0  0  0
  161.1840  204.5160  149.6010 C   0  0  0  0  0  2  0  0  0  0  0  0
  161.6860  204.6150  148.1290 C   0  0  0  0  0  2  0  0  0  0  0  0
  161.7080  203.2570  147.4050 C   0  0  1  0  0  3  0  0  0  0  0  0
  159.5560  201.3590  148.1720 C   0  0  0  0  0  2  0  0  0  0  0  0
  160.4480  202.5470  147.8540 C   0  0  1  0  0  3  0  0  0  0  0  0
  161.5720  200.2920  147.7160 O   0  0  0  0  0  1  0  0  0  0  0  0
  161.0110  201.2710  148.5380 C   0  0  2  0  0  0  0  0  0  0  0  0
  160.8970  200.7140  151.0580 N   0  0  0  0  0  0  0  0  0  0  0  0
  160.9680  200.9510  149.9590 C   0  0  0  0  0  0  0  0  0  0  0  0
  160.6840  202.9540  145.1270 C   0  0  0  0  0  1  0  0  0  0  0  0
  161.8800  203.3090  145.9230 N   0  0  0  0  0  0  0  0  0  0  0  0
  162.0600  204.7260  145.5850 C   0  0  0  0  0  2  0  0  0  0  0  0
  160.1030  206.3110  145.1470 C   0  0  0  0  0  1  0  0  0  0  0  0
  161.5570  205.5300  143.4430 O   0  0  0  0  0  1  0  0  0  0  0  0
  160.9760  205.1870  144.6440 C   0  0  1  0  0  3  0  0  0  0  0  0
  1  3  1  0  0  0  0
  1 25  1  1  0  0  0
  2  1  1  0  0  0  0
  2  3  1  0  0  0  0
  3  4  1  6  0  0  0
  4  6  1  1  0  0  0
  6  5  2  0  0  0  0
  7  4  1  0  0  0  0
  8 13  1  0  0  0  0
  9 10  1  1  0  0  0
 10 23  1  0  0  0  0
 11  8  1  0  0  0  0
 11 12  1  0  0  0  0
 12 22  1  6  0  0  0
 12 15  1  0  0  0  0
 13 14  1  1  0  0  0
 13  9  1  0  0  0  0
 15  7  1  6  0  0  0
 15  9  1  0  0  0  0
 17 16  2  0  0  0  0
 18 17  1  0  0  0  0
 19 18  1  0  0  0  0
 19 20  1  0  0  0  0
 20 22  2  0  0  0  0
 21 19  2  0  0  0  0
 22 16  1  0  0  0  0
 23 24  2  0  0  0  0
 25 26  1  0  0  0  0
 26 27  1  0  0  0  0
 26 28  1  1  0  0  0
 30 29  1  1  0  0  0
 30 26  1  0  0  0  0
 31 30  1  0  0  0  0
 32 31  1  0  0  0  0
 33 32  1  0  0  0  0
 34 33  1  6  0  0  0
 35 38  1  0  0  0  0
 36 34  1  6  0  0  0
 36 35  1  0  0  0  0
 36 38  1  0  0  0  0
 38 37  1  6  0  0  0
 38 40  1  0  0  0  0
 40 39  3  0  0  0  0
 41 42  1  0  0  0  0
 42 34  1  0  0  0  0
 43 42  1  0  0  0  0
 45 46  1  0  0  0  0
 46 44  1  1  0  0  0
 46 43  1  0  0  0  0
M  END
>  <MODEL>
2

>  <REMARK>
 VINA RESULT:      -6.0      3.201      6.215
  Name = 
  18 active torsions:
  status: ('A' for Active; 'I' for Inactive)
    1  A    between atoms: C_3  and  C_7
    2  A    between atoms: C_3  and  C_16
    3  A    between atoms: C_5  and  C_42
    4  A    between atoms: C_7  and  C_12
    5  A    between atoms: C_8  and  N_26
    6  A    between atoms: C_8  and  C_37
    7  A    between atoms: C_10  and  N_23
    8  A    between atoms: C_11  and  C_18
    9  A    between atoms: C_11  and  C_45
   10  A    between atoms: C_12  and  C_17
   11  A    between atoms: C_12  and  N_26
   12  A    between atoms: C_16  and  C_45
   13  A    between atoms: C_18  and  C_34
   14  A    between atoms: C_28  and  C_44
   15  A    between atoms: C_29  and  S_39
   16  A    between atoms: C_29  and  C_40
   17  A    between atoms: C_29  and  C_46
   18  A    between atoms: S_39  and  C_43
                            x       y       z     vdW  Elec       q    Type
                         _______ _______ _______ _____ _____    ______ ____

>  <TORSDO>
F 18

$$$$
=
 OpenBabel11072411093D

 46 49  0  0  1  0  0  0  0  0999 V2000
  161.3190  208.8700  150.8890 C   0  0  2  0  0  3  0  0  0  0  0  0
  162.0640  209.6420  149.8740 N   0  0  0  0  0  2  0  0  0  0  0  0
  161.8440  210.1810  151.2890 C   0  0  1  0  0  3  0  0  0  0  0  0
  160.6000  211.0100  151.4460 C   0  0  1  0  0  3  0  0  0  0  0  0
  159.1490  210.9400  153.5890 C   0  0  0  0  0  2  0  0  0  0  0  0
  160.3690  211.0990  152.9780 C   0  0  0  0  0  3  0  0  0  0  0  0
  160.6620  212.6850  150.6890 S   0  0  0  0  0  0  0  0  0  0  0  0
  156.6630  213.6190  148.3570 C   0  0  0  0  0  2  0  0  0  0  0  0
  157.5810  213.8930  150.7500 C   0  0  2  0  0  3  0  0  0  0  0  0
  157.4720  214.1130  152.0530 N   0  0  0  0  0  2  0  0  0  0  0  0
  157.9260  213.0070  148.0280 N   0  0  0  0  0  2  0  0  0  0  0  0
  158.9790  213.7820  148.6220 C   0  0  1  0  0  3  0  0  0  0  0  0
  156.3550  213.4620  149.8800 C   0  0  1  0  0  3  0  0  0  0  0  0
  155.1270  214.2020  150.0170 N   0  0  0  0  0  1  0  0  0  0  0  0
  159.0100  213.6380  150.1410 C   0  0  2  0  0  3  0  0  0  0  0  0
  161.4610  214.2140  148.4330 C   0  0  0  0  0  3  0  0  0  0  0  0
  162.5820  214.2470  147.7370 C   0  0  0  0  0  3  0  0  0  0  0  0
  162.6480  213.7840  146.3340 C   0  0  0  0  0  2  0  0  0  0  0  0
  161.3370  213.3220  145.7970 C   0  0  0  0  0  0  0  0  0  0  0  0
  160.2000  213.3550  146.6070 N   0  0  0  0  0  0  0  0  0  0  0  0
  161.2410  212.9110  144.5570 O   0  0  0  0  0  0  0  0  0  0  0  0
  160.2350  213.7210  147.8920 C   0  0  0  0  0  0  0  0  0  0  0  0
  156.2590  214.4530  152.5950 C   0  0  0  0  0  3  0  0  0  0  0  0
  156.0140  214.3820  153.8470 O   0  0  0  0  0  0  0  0  0  0  0  0
  162.1230  207.8250  151.6690 C   0  0  0  0  0  2  0  0  0  0  0  0
  161.1640  206.8300  152.3570 C   0  0  2  0  0  0  0  0  0  0  0  0
  160.0490  206.5590  151.6290 F   0  0  0  0  0  0  0  0  0  0  0  0
  160.8660  207.5240  153.7270 C   0  0  0  0  0  1  0  0  0  0  0  0
  163.2610  205.4750  152.2630 C   0  0  0  0  0  1  0  0  0  0  0  0
  161.7610  205.4350  152.5280 C   0  0  2  0  0  3  0  0  0  0  0  0
  161.0930  204.1670  151.9280 C   0  0  0  0  0  2  0  0  0  0  0  0
  161.5670  204.0200  150.4920 C   0  0  0  0  0  2  0  0  0  0  0  0
  160.3940  203.4800  149.6190 C   0  0  0  0  0  2  0  0  0  0  0  0
  160.8430  203.0110  148.2250 C   0  0  1  0  0  3  0  0  0  0  0  0
  162.8540  204.7020  146.8410 C   0  0  0  0  0  2  0  0  0  0  0  0
  161.9150  203.9930  147.8010 C   0  0  1  0  0  3  0  0  0  0  0  0
  161.6060  203.4060  145.3660 O   0  0  0  0  0  1  0  0  0  0  0  0
  161.4680  204.3740  146.3640 C   0  0  2  0  0  0  0  0  0  0  0  0
  160.6100  206.6750  145.5610 N   0  0  0  0  0  0  0  0  0  0  0  0
  160.9640  205.6680  145.9190 C   0  0  0  0  0  0  0  0  0  0  0  0
  161.1760  200.7950  149.3710 C   0  0  0  0  0  1  0  0  0  0  0  0
  161.2570  201.5800  148.1190 N   0  0  0  0  0  0  0  0  0  0  0  0
  160.2420  200.9260  147.2850 C   0  0  0  0  0  2  0  0  0  0  0  0
  161.1880  199.1220  145.7400 C   0  0  0  0  0  1  0  0  0  0  0  0
  159.9240  200.9740  144.9640 O   0  0  0  0  0  1  0  0  0  0  0  0
  160.8140  200.5720  145.9360 C   0  0  1  0  0  3  0  0  0  0  0  0
  1  3  1  0  0  0  0
  1 25  1  1  0  0  0
  2  1  1  0  0  0  0
  2  3  1  0  0  0  0
  3  4  1  6  0  0  0
  4  6  1  1  0  0  0
  6  5  2  0  0  0  0
  7  4  1  0  0  0  0
  8 13  1  0  0  0  0
  9 10  1  1  0  0  0
 10 23  1  0  0  0  0
 11  8  1  0  0  0  0
 11 12  1  0  0  0  0
 12 22  1  6  0  0  0
 12 15  1  0  0  0  0
 13 14  1  1  0  0  0
 13  9  1  0  0  0  0
 15  7  1  6  0  0  0
 15  9  1  0  0  0  0
 17 16  2  0  0  0  0
 18 17  1  0  0  0  0
 19 18  1  0  0  0  0
 19 20  1  0  0  0  0
 20 22  2  0  0  0  0
 21 19  2  0  0  0  0
 22 16  1  0  0  0  0
 23 24  2  0  0  0  0
 25 26  1  0  0  0  0
 26 30  1  0  0  0  0
 26 28  1  1  0  0  0
 27 26  1  0  0  0  0
 30 29  1  6  0  0  0
 31 30  1  0  0  0  0
 32 31  1  0  0  0  0
 33 32  1  0  0  0  0
 34 33  1  1  0  0  0
 35 36  1  0  0  0  0
 36 34  1  6  0  0  0
 38 37  1  6  0  0  0
 38 35  1  0  0  0  0
 38 36  1  0  0  0  0
 39 40  3  0  0  0  0
 40 38  1  0  0  0  0
 42 34  1  0  0  0  0
 42 41  1  0  0  0  0
 43 42  1  0  0  0  0
 45 46  1  0  0  0  0
 46 44  1  1  0  0  0
 46 43  1  0  0  0  0
M  END
>  <MODEL>
3

>  <REMARK>
 VINA RESULT:      -6.0      2.971      5.580
  Name = 
  18 active torsions:
  status: ('A' for Active; 'I' for Inactive)
    1  A    between atoms: C_3  and  C_7
    2  A    between atoms: C_3  and  C_16
    3  A    between atoms: C_5  and  C_42
    4  A    between atoms: C_7  and  C_12
    5  A    between atoms: C_8  and  N_26
    6  A    between atoms: C_8  and  C_37
    7  A    between atoms: C_10  and  N_23
    8  A    between atoms: C_11  and  C_18
    9  A    between atoms: C_11  and  C_45
   10  A    between atoms: C_12  and  C_17
   11  A    between atoms: C_12  and  N_26
   12  A    between atoms: C_16  and  C_45
   13  A    between atoms: C_18  and  C_34
   14  A    between atoms: C_28  and  C_44
   15  A    between atoms: C_29  and  S_39
   16  A    between atoms: C_29  and  C_40
   17  A    between atoms: C_29  and  C_46
   18  A    between atoms: S_39  and  C_43
                            x       y       z     vdW  Elec       q    Type
                         _______ _______ _______ _____ _____    ______ ____

>  <TORSDO>
F 18

$$$$
=
 OpenBabel11072411093D

 46 49  0  0  1  0  0  0  0  0999 V2000
  161.4510  209.2100  153.1980 C   0  0  2  0  0  3  0  0  0  0  0  0
  162.3150  210.4080  153.2130 N   0  0  0  0  0  2  0  0  0  0  0  0
  161.6440  209.8860  154.4860 C   0  0  1  0  0  3  0  0  0  0  0  0
  160.2920  210.4860  154.7600 C   0  0  1  0  0  3  0  0  0  0  0  0
  160.3790  211.4720  157.1520 C   0  0  0  0  0  2  0  0  0  0  0  0
  160.1320  210.4210  156.3020 C   0  0  0  0  0  3  0  0  0  0  0  0
  160.0450  212.1990  154.1410 S   0  0  0  0  0  0  0  0  0  0  0  0
  157.4520  214.4520  150.9000 C   0  0  0  0  0  2  0  0  0  0  0  0
  159.5420  212.9450  150.9550 C   0  0  2  0  0  3  0  0  0  0  0  0
  160.6390  212.4050  150.4410 N   0  0  0  0  0  2  0  0  0  0  0  0
  157.4290  214.3370  152.3360 N   0  0  0  0  0  2  0  0  0  0  0  0
  157.6750  212.9670  152.6890 C   0  0  1  0  0  3  0  0  0  0  0  0
  158.8990  214.2370  150.3530 C   0  0  1  0  0  3  0  0  0  0  0  0
  158.6950  214.2990  148.9290 N   0  0  0  0  0  1  0  0  0  0  0  0
  159.1210  212.5570  152.4210 C   0  0  2  0  0  3  0  0  0  0  0  0
  156.7090  211.2110  154.2270 C   0  0  0  0  0  3  0  0  0  0  0  0
  156.0640  210.8590  155.3240 C   0  0  0  0  0  3  0  0  0  0  0  0
  155.6470  211.8480  156.3410 C   0  0  0  0  0  2  0  0  0  0  0  0
  155.9940  213.2530  155.9830 C   0  0  0  0  0  0  0  0  0  0  0  0
  156.6510  213.5250  154.7820 N   0  0  0  0  0  0  0  0  0  0  0  0
  155.6580  214.2380  156.7780 O   0  0  0  0  0  0  0  0  0  0  0  0
  157.0600  212.5660  153.9450 C   0  0  0  0  0  0  0  0  0  0  0  0
  160.9690  212.6310  149.1300 C   0  0  0  0  0  3  0  0  0  0  0  0
  161.5980  211.7770  148.4150 O   0  0  0  0  0  0  0  0  0  0  0  0
  162.1640  207.8590  153.3060 C   0  0  0  0  0  2  0  0  0  0  0  0
  161.7210  206.9360  152.1500 C   0  0  2  0  0  0  0  0  0  0  0  0
  162.7470  206.2550  151.5750 F   0  0  0  0  0  0  0  0  0  0  0  0
  160.9970  207.9220  151.1750 C   0  0  0  0  0  1  0  0  0  0  0  0
  160.9970  205.5440  154.0950 C   0  0  0  0  0  1  0  0  0  0  0  0
  160.8150  205.7930  152.6030 C   0  0  2  0  0  3  0  0  0  0  0  0
  160.6830  204.4710  151.7990 C   0  0  0  0  0  2  0  0  0  0  0  0
  160.4830  204.8280  150.3350 C   0  0  0  0  0  2  0  0  0  0  0  0
  161.7110  204.3280  149.5150 C   0  0  0  0  0  2  0  0  0  0  0  0
  161.3340  203.8210  148.1120 C   0  0  1  0  0  3  0  0  0  0  0  0
  162.5830  205.6210  146.1070 C   0  0  0  0  0  2  0  0  0  0  0  0
  162.2300  204.5840  147.1600 C   0  0  1  0  0  3  0  0  0  0  0  0
  160.3680  206.1750  146.5530 O   0  0  0  0  0  1  0  0  0  0  0  0
  161.6040  206.0050  147.1800 C   0  0  2  0  0  0  0  0  0  0  0  0
  162.6880  208.1360  148.1590 N   0  0  0  0  0  0  0  0  0  0  0  0
  162.1970  207.2130  147.7400 C   0  0  0  0  0  0  0  0  0  0  0  0
  161.0780  201.5320  149.1260 C   0  0  0  0  0  1  0  0  0  0  0  0
  161.3680  202.3400  147.9210 N   0  0  0  0  0  0  0  0  0  0  0  0
  160.2270  202.0170  147.0570 C   0  0  0  0  0  2  0  0  0  0  0  0
  160.1300  200.6070  144.9270 C   0  0  0  0  0  1  0  0  0  0  0  0
  160.3880  202.9650  144.9200 O   0  0  0  0  0  1  0  0  0  0  0  0
  160.6800  201.8230  145.6320 C   0  0  1  0  0  3  0  0  0  0  0  0
  1  2  1  0  0  0  0
  1 25  1  1  0  0  0
  1  3  1  0  0  0  0
  2  3  1  0  0  0  0
  3  4  1  6  0  0  0
  4  6  1  1  0  0  0
  6  5  2  0  0  0  0
  7  4  1  0  0  0  0
  8 11  1  0  0  0  0
  9 10  1  1  0  0  0
  9 15  1  0  0  0  0
 11 12  1  0  0  0  0
 12 22  1  1  0  0  0
 13 14  1  6  0  0  0
 13  8  1  0  0  0  0
 13  9  1  0  0  0  0
 15 12  1  0  0  0  0
 15  7  1  1  0  0  0
 16 17  2  0  0  0  0
 17 18  1  0  0  0  0
 19 18  1  0  0  0  0
 19 21  2  0  0  0  0
 20 19  1  0  0  0  0
 22 16  1  0  0  0  0
 22 20  2  0  0  0  0
 23 10  1  0  0  0  0
 24 23  2  0  0  0  0
 26 28  1  6  0  0  0
 26 30  1  0  0  0  0
 26 25  1  0  0  0  0
 27 26  1  0  0  0  0
 30 29  1  1  0  0  0
 31 30  1  0  0  0  0
 32 31  1  0  0  0  0
 33 32  1  0  0  0  0
 34 33  1  1  0  0  0
 35 36  1  0  0  0  0
 35 38  1  0  0  0  0
 36 38  1  0  0  0  0
 36 34  1  6  0  0  0
 38 37  1  6  0  0  0
 38 40  1  0  0  0  0
 40 39  3  0  0  0  0
 42 34  1  0  0  0  0
 42 41  1  0  0  0  0
 43 42  1  0  0  0  0
 45 46  1  0  0  0  0
 46 44  1  6  0  0  0
 46 43  1  0  0  0  0
M  END
>  <MODEL>
4

>  <REMARK>
 VINA RESULT:      -5.9      1.760      2.143
  Name = 
  18 active torsions:
  status: ('A' for Active; 'I' for Inactive)
    1  A    between atoms: C_3  and  C_7
    2  A    between atoms: C_3  and  C_16
    3  A    between atoms: C_5  and  C_42
    4  A    between atoms: C_7  and  C_12
    5  A    between atoms: C_8  and  N_26
    6  A    between atoms: C_8  and  C_37
    7  A    between atoms: C_10  and  N_23
    8  A    between atoms: C_11  and  C_18
    9  A    between atoms: C_11  and  C_45
   10  A    between atoms: C_12  and  C_17
   11  A    between atoms: C_12  and  N_26
   12  A    between atoms: C_16  and  C_45
   13  A    between atoms: C_18  and  C_34
   14  A    between atoms: C_28  and  C_44
   15  A    between atoms: C_29  and  S_39
   16  A    between atoms: C_29  and  C_40
   17  A    between atoms: C_29  and  C_46
   18  A    between atoms: S_39  and  C_43
                            x       y       z     vdW  Elec       q    Type
                         _______ _______ _______ _____ _____    ______ ____

>  <TORSDO>
F 18

$$$$
=
 OpenBabel11072411093D

 46 49  0  0  1  0  0  0  0  0999 V2000
  160.5520  209.0760  154.8540 C   0  0  2  0  0  3  0  0  0  0  0  0
  159.3560  208.8560  155.6920 N   0  0  0  0  0  2  0  0  0  0  0  0
  159.4710  210.0640  154.7590 C   0  0  1  0  0  3  0  0  0  0  0  0
  160.0710  211.2840  155.4010 C   0  0  1  0  0  3  0  0  0  0  0  0
  162.4270  211.1630  156.4670 C   0  0  0  0  0  2  0  0  0  0  0  0
  161.6030  211.0370  155.3750 C   0  0  0  0  0  3  0  0  0  0  0  0
  159.6460  212.8880  154.6080 S   0  0  0  0  0  0  0  0  0  0  0  0
  156.7380  214.4530  151.2330 C   0  0  0  0  0  2  0  0  0  0  0  0
  159.0370  213.2990  151.3800 C   0  0  2  0  0  3  0  0  0  0  0  0
  160.2060  212.8980  150.8980 N   0  0  0  0  0  2  0  0  0  0  0  0
  156.7310  214.4470  152.6740 N   0  0  0  0  0  2  0  0  0  0  0  0
  157.1880  213.1630  153.1280 C   0  0  1  0  0  3  0  0  0  0  0  0
  158.2020  214.4250  150.6890 C   0  0  1  0  0  3  0  0  0  0  0  0
  157.9930  214.3440  149.2670 N   0  0  0  0  0  1  0  0  0  0  0  0
  158.6800  212.9640  152.8760 C   0  0  2  0  0  3  0  0  0  0  0  0
  156.4410  211.4020  154.7780 C   0  0  0  0  0  3  0  0  0  0  0  0
  155.8570  211.0450  155.9070 C   0  0  0  0  0  3  0  0  0  0  0  0
  155.3550  212.0390  156.8800 C   0  0  0  0  0  2  0  0  0  0  0  0
  155.5440  213.4510  156.4410 C   0  0  0  0  0  0  0  0  0  0  0  0
  156.1480  213.7240  155.2120 N   0  0  0  0  0  0  0  0  0  0  0  0
  155.1210  214.4370  157.1910 O   0  0  0  0  0  0  0  0  0  0  0  0
  156.6410  212.7690  154.4170 C   0  0  0  0  0  0  0  0  0  0  0  0
  160.4980  213.0710  149.5690 C   0  0  0  0  0  3  0  0  0  0  0  0
  161.2080  214.0410  149.1350 O   0  0  0  0  0  0  0  0  0  0  0  0
  160.5830  208.3370  153.5120 C   0  0  0  0  0  2  0  0  0  0  0  0
  161.0400  206.8780  153.7260 C   0  0  2  0  0  0  0  0  0  0  0  0
  160.0230  205.9780  153.6820 F   0  0  0  0  0  0  0  0  0  0  0  0
  161.7650  206.9390  155.1110 C   0  0  0  0  0  1  0  0  0  0  0  0
  162.2470  207.4780  151.6220 C   0  0  0  0  0  1  0  0  0  0  0  0
  161.9510  206.3610  152.6140 C   0  0  2  0  0  3  0  0  0  0  0  0
  161.7070  204.9990  151.9080 C   0  0  0  0  0  2  0  0  0  0  0  0
  161.2350  205.2800  150.4910 C   0  0  0  0  0  2  0  0  0  0  0  0
  161.6220  204.0800  149.5760 C   0  0  0  0  0  2  0  0  0  0  0  0
  161.0080  204.1710  148.1680 C   0  0  1  0  0  3  0  0  0  0  0  0
  162.4170  206.0660  146.3680 C   0  0  0  0  0  2  0  0  0  0  0  0
  161.9830  205.0030  147.3620 C   0  0  1  0  0  3  0  0  0  0  0  0
  160.1240  206.4480  146.4530 O   0  0  0  0  0  1  0  0  0  0  0  0
  161.2550  206.3710  147.2700 C   0  0  2  0  0  0  0  0  0  0  0  0
  161.9340  208.5850  148.4140 N   0  0  0  0  0  0  0  0  0  0  0  0
  161.6570  207.6200  147.9050 C   0  0  0  0  0  0  0  0  0  0  0  0
  161.0460  202.7210  146.1110 C   0  0  0  0  0  1  0  0  0  0  0  0
  160.6460  202.8710  147.5280 N   0  0  0  0  0  0  0  0  0  0  0  0
  161.4710  201.8510  148.1860 C   0  0  0  0  0  2  0  0  0  0  0  0
  161.0290  200.9130  150.5220 C   0  0  0  0  0  1  0  0  0  0  0  0
  159.3100  201.3740  148.9530 O   0  0  0  0  0  1  0  0  0  0  0  0
  160.6220  200.9730  149.0690 C   0  0  1  0  0  3  0  0  0  0  0  0
  1 25  1  6  0  0  0
  1  2  1  0  0  0  0
  3  1  1  0  0  0  0
  3  4  1  1  0  0  0
  3  2  1  0  0  0  0
  4  6  1  6  0  0  0
  6  5  2  0  0  0  0
  7  4  1  0  0  0  0
  8 11  1  0  0  0  0
  9 10  1  1  0  0  0
  9 15  1  0  0  0  0
 11 12  1  0  0  0  0
 12 22  1  1  0  0  0
 13 14  1  6  0  0  0
 13  8  1  0  0  0  0
 13  9  1  0  0  0  0
 15 12  1  0  0  0  0
 15  7  1  1  0  0  0
 16 17  2  0  0  0  0
 17 18  1  0  0  0  0
 19 18  1  0  0  0  0
 19 21  2  0  0  0  0
 20 19  1  0  0  0  0
 22 16  1  0  0  0  0
 22 20  2  0  0  0  0
 23 10  1  0  0  0  0
 24 23  2  0  0  0  0
 25 26  1  0  0  0  0
 26 28  1  1  0  0  0
 27 26  1  0  0  0  0
 30 29  1  6  0  0  0
 30 26  1  0  0  0  0
 31 30  1  0  0  0  0
 32 31  1  0  0  0  0
 33 32  1  0  0  0  0
 34 33  1  1  0  0  0
 35 38  1  0  0  0  0
 35 36  1  0  0  0  0
 36 34  1  6  0  0  0
 38 37  1  6  0  0  0
 38 36  1  0  0  0  0
 38 40  1  0  0  0  0
 40 39  3  0  0  0  0
 41 42  1  0  0  0  0
 42 34  1  0  0  0  0
 42 43  1  0  0  0  0
 43 46  1  0  0  0  0
 45 46  1  0  0  0  0
 46 44  1  1  0  0  0
M  END
>  <MODEL>
5

>  <REMARK>
 VINA RESULT:      -5.9      1.853      2.269
  Name = 
  18 active torsions:
  status: ('A' for Active; 'I' for Inactive)
    1  A    between atoms: C_3  and  C_7
    2  A    between atoms: C_3  and  C_16
    3  A    between atoms: C_5  and  C_42
    4  A    between atoms: C_7  and  C_12
    5  A    between atoms: C_8  and  N_26
    6  A    between atoms: C_8  and  C_37
    7  A    between atoms: C_10  and  N_23
    8  A    between atoms: C_11  and  C_18
    9  A    between atoms: C_11  and  C_45
   10  A    between atoms: C_12  and  C_17
   11  A    between atoms: C_12  and  N_26
   12  A    between atoms: C_16  and  C_45
   13  A    between atoms: C_18  and  C_34
   14  A    between atoms: C_28  and  C_44
   15  A    between atoms: C_29  and  S_39
   16  A    between atoms: C_29  and  C_40
   17  A    between atoms: C_29  and  C_46
   18  A    between atoms: S_39  and  C_43
                            x       y       z     vdW  Elec       q    Type
                         _______ _______ _______ _____ _____    ______ ____

>  <TORSDO>
F 18

$$$$
=
 OpenBabel11072411093D

 46 49  0  0  1  0  0  0  0  0999 V2000
  161.4450  209.4780  148.9870 C   0  0  2  0  0  3  0  0  0  0  0  0
  161.7830  208.6260  150.1460 N   0  0  0  0  0  2  0  0  0  0  0  0
  162.1090  208.1990  148.7130 C   0  0  1  0  0  3  0  0  0  0  0  0
  161.0270  207.3910  148.0500 C   0  0  1  0  0  3  0  0  0  0  0  0
  162.7340  205.9310  146.7620 C   0  0  0  0  0  2  0  0  0  0  0  0
  161.6860  206.8190  146.7660 C   0  0  0  0  0  3  0  0  0  0  0  0
  160.3000  206.0480  149.0740 S   0  0  0  0  0  0  0  0  0  0  0  0
  160.9740  201.5420  150.3190 C   0  0  0  0  0  2  0  0  0  0  0  0
  161.0660  202.9570  148.1670 C   0  0  2  0  0  3  0  0  0  0  0  0
  161.1040  203.1320  146.8530 N   0  0  0  0  0  2  0  0  0  0  0  0
  160.5820  202.7500  151.0010 N   0  0  0  0  0  2  0  0  0  0  0  0
  161.4120  203.8270  150.5370 C   0  0  1  0  0  3  0  0  0  0  0  0
  160.5870  201.6140  148.8070 C   0  0  1  0  0  3  0  0  0  0  0  0
  161.1320  200.3820  148.2980 N   0  0  0  0  0  1  0  0  0  0  0  0
  161.0840  204.2240  149.1000 C   0  0  2  0  0  3  0  0  0  0  0  0
  162.7470  205.7450  151.4970 C   0  0  0  0  0  3  0  0  0  0  0  0
  162.9800  206.6360  152.4430 C   0  0  0  0  0  3  0  0  0  0  0  0
  162.0840  206.7950  153.6080 C   0  0  0  0  0  2  0  0  0  0  0  0
  160.9400  205.8410  153.6160 C   0  0  0  0  0  0  0  0  0  0  0  0
  160.7980  204.9140  152.5810 N   0  0  0  0  0  0  0  0  0  0  0  0
  160.0810  205.8480  154.6050 O   0  0  0  0  0  0  0  0  0  0  0  0
  161.6120  204.8780  151.5220 C   0  0  0  0  0  0  0  0  0  0  0  0
  161.2080  202.0500  146.0170 C   0  0  0  0  0  3  0  0  0  0  0  0
  160.2670  201.6870  145.2320 O   0  0  0  0  0  0  0  0  0  0  0  0
  162.4550  210.5740  148.6360 C   0  0  0  0  0  2  0  0  0  0  0  0
  161.7160  211.8130  148.0860 C   0  0  2  0  0  0  0  0  0  0  0  0
  160.7660  211.5140  147.1610 F   0  0  0  0  0  0  0  0  0  0  0  0
  162.8810  212.6940  147.5260 C   0  0  0  0  0  1  0  0  0  0  0  0
  161.0300  214.0500  148.9650 C   0  0  0  0  0  1  0  0  0  0  0  0
  160.8900  212.5440  149.1430 C   0  0  2  0  0  3  0  0  0  0  0  0
  160.9040  212.1260  150.6390 C   0  0  0  0  0  2  0  0  0  0  0  0
  159.9710  213.0570  151.3970 C   0  0  0  0  0  2  0  0  0  0  0  0
  158.9810  212.2060  152.2480 C   0  0  0  0  0  2  0  0  0  0  0  0
  158.7970  212.7440  153.6780 C   0  0  1  0  0  3  0  0  0  0  0  0
  156.1850  212.0880  154.9300 C   0  0  0  0  0  2  0  0  0  0  0  0
  157.4960  212.1410  154.1650 C   0  0  1  0  0  3  0  0  0  0  0  0
  156.8360  214.2880  155.3140 O   0  0  0  0  0  1  0  0  0  0  0  0
  156.5750  213.3860  154.2810 C   0  0  2  0  0  0  0  0  0  0  0  0
  154.5430  213.9430  152.7860 N   0  0  0  0  0  0  0  0  0  0  0  0
  155.4150  213.6950  153.4540 C   0  0  0  0  0  0  0  0  0  0  0  0
  159.7170  212.9410  156.0120 C   0  0  0  0  0  1  0  0  0  0  0  0
  159.9470  212.5360  154.6070 N   0  0  0  0  0  0  0  0  0  0  0  0
  160.1090  211.0830  154.7330 C   0  0  0  0  0  2  0  0  0  0  0  0
  161.9550  209.6840  155.8140 C   0  0  0  0  0  1  0  0  0  0  0  0
  161.9600  210.3070  153.5240 O   0  0  0  0  0  1  0  0  0  0  0  0
  161.5700  210.7160  154.7800 C   0  0  1  0  0  3  0  0  0  0  0  0
  1 25  1  1  0  0  0
  1  2  1  0  0  0  0
  3  4  1  6  0  0  0
  3  1  1  0  0  0  0
  3  2  1  0  0  0  0
  4  6  1  6  0  0  0
  4  7  1  0  0  0  0
  5  6  2  0  0  0  0
  8 11  1  0  0  0  0
  9 10  1  6  0  0  0
  9 13  1  0  0  0  0
  9 15  1  0  0  0  0
 12 11  1  0  0  0  0
 12 22  1  1  0  0  0
 13 14  1  6  0  0  0
 13  8  1  0  0  0  0
 15  7  1  1  0  0  0
 15 12  1  0  0  0  0
 16 22  1  0  0  0  0
 16 17  2  0  0  0  0
 17 18  1  0  0  0  0
 18 19  1  0  0  0  0
 19 21  2  0  0  0  0
 20 19  1  0  0  0  0
 22 20  2  0  0  0  0
 23 10  1  0  0  0  0
 24 23  2  0  0  0  0
 26 28  1  6  0  0  0
 26 25  1  0  0  0  0
 26 30  1  0  0  0  0
 27 26  1  0  0  0  0
 30 29  1  1  0  0  0
 30 31  1  0  0  0  0
 31 32  1  0  0  0  0
 32 33  1  0  0  0  0
 34 33  1  6  0  0  0
 34 42  1  0  0  0  0
 36 34  1  1  0  0  0
 36 38  1  0  0  0  0
 36 35  1  0  0  0  0
 38 35  1  0  0  0  0
 38 37  1  1  0  0  0
 39 40  3  0  0  0  0
 40 38  1  0  0  0  0
 42 43  1  0  0  0  0
 42 41  1  0  0  0  0
 43 46  1  0  0  0  0
 45 46  1  0  0  0  0
 46 44  1  1  0  0  0
M  END
>  <MODEL>
6

>  <REMARK>
 VINA RESULT:      -5.5      2.805     10.046
  Name = 
  18 active torsions:
  status: ('A' for Active; 'I' for Inactive)
    1  A    between atoms: C_3  and  C_7
    2  A    between atoms: C_3  and  C_16
    3  A    between atoms: C_5  and  C_42
    4  A    between atoms: C_7  and  C_12
    5  A    between atoms: C_8  and  N_26
    6  A    between atoms: C_8  and  C_37
    7  A    between atoms: C_10  and  N_23
    8  A    between atoms: C_11  and  C_18
    9  A    between atoms: C_11  and  C_45
   10  A    between atoms: C_12  and  C_17
   11  A    between atoms: C_12  and  N_26
   12  A    between atoms: C_16  and  C_45
   13  A    between atoms: C_18  and  C_34
   14  A    between atoms: C_28  and  C_44
   15  A    between atoms: C_29  and  S_39
   16  A    between atoms: C_29  and  C_40
   17  A    between atoms: C_29  and  C_46
   18  A    between atoms: S_39  and  C_43
                            x       y       z     vdW  Elec       q    Type
                         _______ _______ _______ _____ _____    ______ ____

>  <TORSDO>
F 18

$$$$
=
 OpenBabel11072411093D

 46 49  0  0  1  0  0  0  0  0999 V2000
  161.3420  208.3310  150.7670 C   0  0  2  0  0  3  0  0  0  0  0  0
  162.0010  209.3550  149.9320 N   0  0  0  0  0  2  0  0  0  0  0  0
  161.9140  209.4940  151.4540 C   0  0  1  0  0  3  0  0  0  0  0  0
  160.6980  210.2360  151.9360 C   0  0  1  0  0  3  0  0  0  0  0  0
  162.0450  210.3580  154.1430 C   0  0  0  0  0  2  0  0  0  0  0  0
  160.8440  210.2810  153.4800 C   0  0  0  0  0  3  0  0  0  0  0  0
  160.4710  211.9240  151.2440 S   0  0  0  0  0  0  0  0  0  0  0  0
  156.3540  214.1350  151.9200 C   0  0  0  0  0  2  0  0  0  0  0  0
  158.3390  213.3290  153.3510 C   0  0  2  0  0  3  0  0  0  0  0  0
  158.9430  213.0200  154.4910 N   0  0  0  0  0  2  0  0  0  0  0  0
  157.0450  213.5740  150.7870 N   0  0  0  0  0  2  0  0  0  0  0  0
  158.4340  213.9300  150.8760 C   0  0  1  0  0  3  0  0  0  0  0  0
  156.7830  213.4160  153.2380 C   0  0  1  0  0  3  0  0  0  0  0  0
  156.0670  214.1660  154.2370 N   0  0  0  0  0  1  0  0  0  0  0  0
  159.1440  213.1880  152.0050 C   0  0  2  0  0  3  0  0  0  0  0  0
  160.5120  214.1760  149.4610 C   0  0  0  0  0  3  0  0  0  0  0  0
  161.1060  214.3640  148.2970 C   0  0  0  0  0  3  0  0  0  0  0  0
  160.3450  214.4510  147.0330 C   0  0  0  0  0  2  0  0  0  0  0  0
  158.8700  214.3410  147.2160 C   0  0  0  0  0  0  0  0  0  0  0  0
  158.3370  214.1730  148.4950 N   0  0  0  0  0  0  0  0  0  0  0  0
  158.0690  214.4310  146.1840 O   0  0  0  0  0  0  0  0  0  0  0  0
  159.0970  214.0310  149.5860 C   0  0  0  0  0  0  0  0  0  0  0  0
  158.3110  213.2430  155.6870 C   0  0  0  0  0  3  0  0  0  0  0  0
  158.7740  212.8300  156.8040 O   0  0  0  0  0  0  0  0  0  0  0  0
  162.2000  207.1270  151.1650 C   0  0  0  0  0  2  0  0  0  0  0  0
  161.4990  206.3270  152.2840 C   0  0  2  0  0  0  0  0  0  0  0  0
  160.5490  207.0380  152.9460 F   0  0  0  0  0  0  0  0  0  0  0  0
  162.6920  205.8760  153.1900 C   0  0  0  0  0  1  0  0  0  0  0  0
  161.1040  203.8680  152.4780 C   0  0  0  0  0  1  0  0  0  0  0  0
  160.6840  205.1450  151.7620 C   0  0  2  0  0  3  0  0  0  0  0  0
  160.4360  204.9140  150.2470 C   0  0  0  0  0  2  0  0  0  0  0  0
  161.7820  204.9270  149.5410 C   0  0  0  0  0  2  0  0  0  0  0  0
  161.5540  204.8080  148.0040 C   0  0  0  0  0  2  0  0  0  0  0  0
  161.6520  203.3620  147.4890 C   0  0  1  0  0  3  0  0  0  0  0  0
  159.6010  201.4620  148.4910 C   0  0  0  0  0  2  0  0  0  0  0  0
  160.4480  202.6500  148.0680 C   0  0  1  0  0  3  0  0  0  0  0  0
  161.5740  200.4020  147.8640 O   0  0  0  0  0  1  0  0  0  0  0  0
  161.0850  201.3920  148.7180 C   0  0  2  0  0  0  0  0  0  0  0  0
  161.2710  200.9040  151.2480 N   0  0  0  0  0  0  0  0  0  0  0  0
  161.1800  201.0980  150.1430 C   0  0  0  0  0  0  0  0  0  0  0  0
  160.5530  202.8940  145.2740 C   0  0  0  0  0  1  0  0  0  0  0  0
  161.7980  203.2020  146.0110 N   0  0  0  0  0  0  0  0  0  0  0  0
  162.1370  204.5330  145.4920 C   0  0  0  0  0  2  0  0  0  0  0  0
  160.1750  206.1650  145.3480 C   0  0  0  0  0  1  0  0  0  0  0  0
  161.4950  205.5420  143.4770 O   0  0  0  0  0  1  0  0  0  0  0  0
  160.9960  205.0890  144.6780 C   0  0  1  0  0  3  0  0  0  0  0  0
  1 25  1  1  0  0  0
  1  3  1  0  0  0  0
  2  1  1  0  0  0  0
  2  3  1  0  0  0  0
  3  4  1  6  0  0  0
  4  6  1  1  0  0  0
  6  5  2  0  0  0  0
  7  4  1  0  0  0  0
  8 13  1  0  0  0  0
  9 10  1  1  0  0  0
 10 23  1  0  0  0  0
 11 12  1  0  0  0  0
 11  8  1  0  0  0  0
 12 22  1  6  0  0  0
 12 15  1  0  0  0  0
 13  9  1  0  0  0  0
 13 14  1  1  0  0  0
 15  7  1  6  0  0  0
 15  9  1  0  0  0  0
 16 22  1  0  0  0  0
 17 16  2  0  0  0  0
 18 19  1  0  0  0  0
 18 17  1  0  0  0  0
 19 20  1  0  0  0  0
 20 22  2  0  0  0  0
 21 19  2  0  0  0  0
 23 24  2  0  0  0  0
 25 26  1  0  0  0  0
 26 27  1  0  0  0  0
 26 28  1  1  0  0  0
 30 26  1  0  0  0  0
 30 29  1  6  0  0  0
 31 30  1  0  0  0  0
 32 31  1  0  0  0  0
 33 32  1  0  0  0  0
 34 33  1  6  0  0  0
 35 38  1  0  0  0  0
 36 34  1  6  0  0  0
 36 35  1  0  0  0  0
 36 38  1  0  0  0  0
 38 37  1  6  0  0  0
 38 40  1  0  0  0  0
 40 39  3  0  0  0  0
 41 42  1  0  0  0  0
 42 34  1  0  0  0  0
 43 42  1  0  0  0  0
 45 46  1  0  0  0  0
 46 44  1  1  0  0  0
 46 43  1  0  0  0  0
M  END
>  <MODEL>
7

>  <REMARK>
 VINA RESULT:      -5.3      2.737      5.398
  Name = 
  18 active torsions:
  status: ('A' for Active; 'I' for Inactive)
    1  A    between atoms: C_3  and  C_7
    2  A    between atoms: C_3  and  C_16
    3  A    between atoms: C_5  and  C_42
    4  A    between atoms: C_7  and  C_12
    5  A    between atoms: C_8  and  N_26
    6  A    between atoms: C_8  and  C_37
    7  A    between atoms: C_10  and  N_23
    8  A    between atoms: C_11  and  C_18
    9  A    between atoms: C_11  and  C_45
   10  A    between atoms: C_12  and  C_17
   11  A    between atoms: C_12  and  N_26
   12  A    between atoms: C_16  and  C_45
   13  A    between atoms: C_18  and  C_34
   14  A    between atoms: C_28  and  C_44
   15  A    between atoms: C_29  and  S_39
   16  A    between atoms: C_29  and  C_40
   17  A    between atoms: C_29  and  C_46
   18  A    between atoms: S_39  and  C_43
                            x       y       z     vdW  Elec       q    Type
                         _______ _______ _______ _____ _____    ______ ____

>  <TORSDO>
F 18

$$$$
=
 OpenBabel11072411093D

 46 49  0  0  1  0  0  0  0  0999 V2000
  160.5880  207.7280  155.6330 C   0  0  2  0  0  3  0  0  0  0  0  0
  159.6190  207.5580  156.7350 N   0  0  0  0  0  2  0  0  0  0  0  0
  159.4960  208.7040  155.7280 C   0  0  1  0  0  3  0  0  0  0  0  0
  160.2040  209.9650  156.1400 C   0  0  1  0  0  3  0  0  0  0  0  0
  162.6510  210.7220  155.7690 C   0  0  0  0  0  2  0  0  0  0  0  0
  161.6200  209.8490  155.5180 C   0  0  0  0  0  3  0  0  0  0  0  0
  159.3870  211.5340  155.6370 S   0  0  0  0  0  0  0  0  0  0  0  0
  157.8530  213.8500  151.8180 C   0  0  0  0  0  2  0  0  0  0  0  0
  159.5540  211.9920  152.3630 C   0  0  2  0  0  3  0  0  0  0  0  0
  160.5830  211.1990  152.0960 N   0  0  0  0  0  2  0  0  0  0  0  0
  157.5820  213.9070  153.2330 N   0  0  0  0  0  2  0  0  0  0  0  0
  157.4830  212.5640  153.7340 C   0  0  1  0  0  3  0  0  0  0  0  0
  159.2930  213.3040  151.5550 C   0  0  1  0  0  3  0  0  0  0  0  0
  159.3320  213.2400  150.1170 N   0  0  0  0  0  1  0  0  0  0  0  0
  158.8380  211.8610  153.7580 C   0  0  2  0  0  3  0  0  0  0  0  0
  156.5870  213.3950  155.9450 C   0  0  0  0  0  3  0  0  0  0  0  0
  155.8670  213.2300  157.0390 C   0  0  0  0  0  3  0  0  0  0  0  0
  155.0350  212.0270  157.2570 C   0  0  0  0  0  2  0  0  0  0  0  0
  155.1250  211.0320  156.1520 C   0  0  0  0  0  0  0  0  0  0  0  0
  155.9410  211.2870  155.0480 N   0  0  0  0  0  0  0  0  0  0  0  0
  154.4640  209.9040  156.2250 O   0  0  0  0  0  0  0  0  0  0  0  0
  156.6100  212.4330  154.8890 C   0  0  0  0  0  0  0  0  0  0  0  0
  161.1540  211.2060  150.8500 C   0  0  0  0  0  3  0  0  0  0  0  0
  162.1340  210.4510  150.5310 O   0  0  0  0  0  0  0  0  0  0  0  0
  160.3250  206.9060  154.3680 C   0  0  0  0  0  2  0  0  0  0  0  0
  161.3150  207.3190  153.2570 C   0  0  2  0  0  0  0  0  0  0  0  0
  162.4240  207.9490  153.7240 F   0  0  0  0  0  0  0  0  0  0  0  0
  160.4340  208.2100  152.3190 C   0  0  0  0  0  1  0  0  0  0  0  0
  162.6080  206.6020  151.2420 C   0  0  0  0  0  1  0  0  0  0  0  0
  161.9290  206.1290  152.5210 C   0  0  2  0  0  3  0  0  0  0  0  0
  161.1610  204.7940  152.3190 C   0  0  0  0  0  2  0  0  0  0  0  0
  160.4740  204.8460  150.9640 C   0  0  0  0  0  2  0  0  0  0  0  0
  160.6840  203.4850  150.2330 C   0  0  0  0  0  2  0  0  0  0  0  0
  161.5410  203.6080  148.9620 C   0  0  1  0  0  3  0  0  0  0  0  0
  161.3670  200.7660  148.1160 C   0  0  0  0  0  2  0  0  0  0  0  0
  161.7580  202.1860  148.4890 C   0  0  1  0  0  3  0  0  0  0  0  0
  159.2780  201.7210  148.4880 O   0  0  0  0  0  1  0  0  0  0  0  0
  160.4390  201.8830  147.7280 C   0  0  2  0  0  0  0  0  0  0  0  0
  160.1260  201.5530  145.1860 N   0  0  0  0  0  0  0  0  0  0  0  0
  160.2830  201.6900  146.2920 C   0  0  0  0  0  0  0  0  0  0  0  0
  160.4670  205.8100  148.3880 C   0  0  0  0  0  1  0  0  0  0  0  0
  161.0160  204.5240  147.9050 N   0  0  0  0  0  0  0  0  0  0  0  0
  162.1850  204.9630  147.1330 C   0  0  0  0  0  2  0  0  0  0  0  0
  161.8970  205.6440  144.6860 C   0  0  0  0  0  1  0  0  0  0  0  0
  163.1490  203.7500  145.3760 O   0  0  0  0  0  1  0  0  0  0  0  0
  162.0600  204.5320  145.6940 C   0  0  1  0  0  3  0  0  0  0  0  0
  1 25  1  6  0  0  0
  1  3  1  0  0  0  0
  1  2  1  0  0  0  0
  3  4  1  1  0  0  0
  3  2  1  0  0  0  0
  4  6  1  6  0  0  0
  6  5  2  0  0  0  0
  7  4  1  0  0  0  0
  8 11  1  0  0  0  0
  9 10  1  1  0  0  0
  9 15  1  0  0  0  0
 11 12  1  0  0  0  0
 12 15  1  0  0  0  0
 12 22  1  1  0  0  0
 13 14  1  6  0  0  0
 13  8  1  0  0  0  0
 13  9  1  0  0  0  0
 15  7  1  1  0  0  0
 16 17  2  0  0  0  0
 17 18  1  0  0  0  0
 19 21  2  0  0  0  0
 19 18  1  0  0  0  0
 20 19  1  0  0  0  0
 22 20  2  0  0  0  0
 22 16  1  0  0  0  0
 23 10  1  0  0  0  0
 24 23  2  0  0  0  0
 26 28  1  6  0  0  0
 26 27  1  0  0  0  0
 26 25  1  0  0  0  0
 30 29  1  6  0  0  0
 30 26  1  0  0  0  0
 31 30  1  0  0  0  0
 32 31  1  0  0  0  0
 33 32  1  0  0  0  0
 34 33  1  1  0  0  0
 35 36  1  0  0  0  0
 36 34  1  1  0  0  0
 38 35  1  0  0  0  0
 38 37  1  1  0  0  0
 38 36  1  0  0  0  0
 39 40  3  0  0  0  0
 40 38  1  0  0  0  0
 42 41  1  0  0  0  0
 42 34  1  0  0  0  0
 43 42  1  0  0  0  0
 45 46  1  0  0  0  0
 46 44  1  6  0  0  0
 46 43  1  0  0  0  0
M  END
>  <MODEL>
8

>  <REMARK>
 VINA RESULT:      -4.7      1.223      2.380
  Name = 
  18 active torsions:
  status: ('A' for Active; 'I' for Inactive)
    1  A    between atoms: C_3  and  C_7
    2  A    between atoms: C_3  and  C_16
    3  A    between atoms: C_5  and  C_42
    4  A    between atoms: C_7  and  C_12
    5  A    between atoms: C_8  and  N_26
    6  A    between atoms: C_8  and  C_37
    7  A    between atoms: C_10  and  N_23
    8  A    between atoms: C_11  and  C_18
    9  A    between atoms: C_11  and  C_45
   10  A    between atoms: C_12  and  C_17
   11  A    between atoms: C_12  and  N_26
   12  A    between atoms: C_16  and  C_45
   13  A    between atoms: C_18  and  C_34
   14  A    between atoms: C_28  and  C_44
   15  A    between atoms: C_29  and  S_39
   16  A    between atoms: C_29  and  C_40
   17  A    between atoms: C_29  and  C_46
   18  A    between atoms: S_39  and  C_43
                            x       y       z     vdW  Elec       q    Type
                         _______ _______ _______ _____ _____    ______ ____

>  <TORSDO>
F 18

$$$$
=
 OpenBabel11072411093D

 46 49  0  0  1  0  0  0  0  0999 V2000
  162.0080  207.0050  148.4220 C   0  0  2  0  0  3  0  0  0  0  0  0
  163.3610  206.4880  148.1350 N   0  0  0  0  0  2  0  0  0  0  0  0
  162.3900  206.8640  147.0130 C   0  0  1  0  0  3  0  0  0  0  0  0
  161.5260  205.7270  146.5400 C   0  0  1  0  0  3  0  0  0  0  0  0
  160.9780  204.8960  144.1500 C   0  0  0  0  0  2  0  0  0  0  0  0
  161.6070  205.7810  144.9910 C   0  0  0  0  0  3  0  0  0  0  0  0
  161.9910  204.0630  147.1680 S   0  0  0  0  0  0  0  0  0  0  0  0
  161.1360  201.0540  150.7060 C   0  0  0  0  0  2  0  0  0  0  0  0
  161.0910  203.6010  150.3200 C   0  0  2  0  0  3  0  0  0  0  0  0
  161.0530  204.8680  150.7110 N   0  0  0  0  0  2  0  0  0  0  0  0
  161.5810  200.9350  149.3400 N   0  0  0  0  0  2  0  0  0  0  0  0
  160.7950  201.8180  148.5250 C   0  0  1  0  0  3  0  0  0  0  0  0
  161.5170  202.4520  151.2900 C   0  0  1  0  0  3  0  0  0  0  0  0
  160.9180  202.4050  152.5980 N   0  0  0  0  0  1  0  0  0  0  0  0
  161.1320  203.2850  148.7790 C   0  0  2  0  0  3  0  0  0  0  0  0
  159.8600  202.0780  146.1920 C   0  0  0  0  0  3  0  0  0  0  0  0
  159.6440  201.6220  144.9720 C   0  0  0  0  0  3  0  0  0  0  0  0
  160.1920  200.3280  144.5100 C   0  0  0  0  0  2  0  0  0  0  0  0
  160.9640  199.6000  145.5560 C   0  0  0  0  0  0  0  0  0  0  0  0
  161.1110  200.1560  146.8290 N   0  0  0  0  0  0  0  0  0  0  0  0
  161.4830  198.4270  145.2950 O   0  0  0  0  0  0  0  0  0  0  0  0
  160.6450  201.3670  147.1500 C   0  0  0  0  0  0  0  0  0  0  0  0
  160.9000  205.1750  152.0390 C   0  0  0  0  0  3  0  0  0  0  0  0
  161.7550  205.8630  152.6950 O   0  0  0  0  0  0  0  0  0  0  0  0
  161.9020  208.5090  148.6930 C   0  0  0  0  0  2  0  0  0  0  0  0
  161.7720  208.7620  150.2110 C   0  0  2  0  0  0  0  0  0  0  0  0
  162.9080  208.4910  150.9060 F   0  0  0  0  0  0  0  0  0  0  0  0
  160.5600  207.8580  150.6130 C   0  0  0  0  0  1  0  0  0  0  0  0
  162.3300  211.1210  149.6080 C   0  0  0  0  0  1  0  0  0  0  0  0
  161.5450  210.2310  150.5620 C   0  0  2  0  0  3  0  0  0  0  0  0
  161.5930  210.7510  152.0240 C   0  0  0  0  0  2  0  0  0  0  0  0
  160.4480  211.7320  152.2140 C   0  0  0  0  0  2  0  0  0  0  0  0
  159.3170  211.0450  153.0380 C   0  0  0  0  0  2  0  0  0  0  0  0
  159.2590  211.5230  154.4990 C   0  0  1  0  0  3  0  0  0  0  0  0
  156.5390  211.4860  155.6920 C   0  0  0  0  0  2  0  0  0  0  0  0
  157.8440  211.2360  154.9550 C   0  0  1  0  0  3  0  0  0  0  0  0
  157.6720  213.4760  156.1040 O   0  0  0  0  0  1  0  0  0  0  0  0
  157.2330  212.6600  155.0590 C   0  0  2  0  0  0  0  0  0  0  0  0
  155.4030  213.6460  153.5250 N   0  0  0  0  0  0  0  0  0  0  0  0
  156.1940  213.2290  154.2100 C   0  0  0  0  0  0  0  0  0  0  0  0
  160.6820  211.8410  156.5500 C   0  0  0  0  0  1  0  0  0  0  0  0
  160.3110  210.9770  155.4080 N   0  0  0  0  0  0  0  0  0  0  0  0
  159.7040  209.8240  156.0830 C   0  0  0  0  0  2  0  0  0  0  0  0
  159.9640  207.2880  156.2780 C   0  0  0  0  0  1  0  0  0  0  0  0
  161.2120  208.6160  154.7570 O   0  0  0  0  0  1  0  0  0  0  0  0
  160.6120  208.6230  155.9970 C   0  0  1  0  0  3  0  0  0  0  0  0
  1 25  1  1  0  0  0
  2  1  1  0  0  0  0
  3  4  1  6  0  0  0
  3  2  1  0  0  0  0
  3  1  1  0  0  0  0
  4  6  1  6  0  0  0
  4  7  1  0  0  0  0
  5  6  2  0  0  0  0
  8 13  1  0  0  0  0
  9 10  1  6  0  0  0
  9 13  1  0  0  0  0
 10 23  1  0  0  0  0
 11  8  1  0  0  0  0
 12 22  1  6  0  0  0
 12 15  1  0  0  0  0
 12 11  1  0  0  0  0
 13 14  1  1  0  0  0
 15  7  1  1  0  0  0
 15  9  1  0  0  0  0
 16 22  1  0  0  0  0
 17 16  2  0  0  0  0
 18 17  1  0  0  0  0
 18 19  1  0  0  0  0
 19 20  1  0  0  0  0
 20 22  2  0  0  0  0
 21 19  2  0  0  0  0
 23 24  2  0  0  0  0
 25 26  1  0  0  0  0
 26 30  1  0  0  0  0
 26 28  1  1  0  0  0
 26 27  1  0  0  0  0
 30 29  1  6  0  0  0
 30 31  1  0  0  0  0
 31 32  1  0  0  0  0
 32 33  1  0  0  0  0
 34 33  1  6  0  0  0
 34 42  1  0  0  0  0
 36 34  1  1  0  0  0
 36 38  1  0  0  0  0
 36 35  1  0  0  0  0
 38 35  1  0  0  0  0
 38 37  1  1  0  0  0
 39 40  3  0  0  0  0
 40 38  1  0  0  0  0
 42 43  1  0  0  0  0
 42 41  1  0  0  0  0
 45 46  1  0  0  0  0
 46 43  1  0  0  0  0
 46 44  1  6  0  0  0
M  END
>  <MODEL>
9

>  <REMARK>
 VINA RESULT:      -4.6      2.898     11.016
  Name = 
  18 active torsions:
  status: ('A' for Active; 'I' for Inactive)
    1  A    between atoms: C_3  and  C_7
    2  A    between atoms: C_3  and  C_16
    3  A    between atoms: C_5  and  C_42
    4  A    between atoms: C_7  and  C_12
    5  A    between atoms: C_8  and  N_26
    6  A    between atoms: C_8  and  C_37
    7  A    between atoms: C_10  and  N_23
    8  A    between atoms: C_11  and  C_18
    9  A    between atoms: C_11  and  C_45
   10  A    between atoms: C_12  and  C_17
   11  A    between atoms: C_12  and  N_26
   12  A    between atoms: C_16  and  C_45
   13  A    between atoms: C_18  and  C_34
   14  A    between atoms: C_28  and  C_44
   15  A    between atoms: C_29  and  S_39
   16  A    between atoms: C_29  and  C_40
   17  A    between atoms: C_29  and  C_46
   18  A    between atoms: S_39  and  C_43
                            x       y       z     vdW  Elec       q    Type
                         _______ _______ _______ _____ _____    ______ ____

>  <TORSDO>
F 18

$$$$
