=
 OpenBabel11072412553D

 41 47  0  0  1  0  0  0  0  0999 V2000
  160.5000  210.9730  154.7600 C   0  0  0  0  0  3  0  0  0  0  0  0
  160.3140  211.5900  151.8050 C   0  0  0  0  0  2  0  0  0  0  0  0
  160.5090  209.9750  153.6830 C   0  0  0  0  0  0  0  0  0  0  0  0
  161.2240  205.9400  153.3430 C   0  0  0  0  0  0  0  0  0  0  0  0
  160.5660  209.1550  151.6410 N   0  0  0  0  0  0  0  0  0  0  0  0
  160.7510  208.6290  153.8050 C   0  0  0  0  0  0  0  0  0  0  0  0
  160.7900  204.7760  150.7950 C   0  0  1  0  0  3  0  0  0  0  0  0
  161.4500  204.5780  153.1250 O   0  0  0  0  0  0  0  0  0  0  0  0
  160.7640  208.1510  152.5180 C   0  0  0  0  0  0  0  0  0  0  0  0
  160.4070  210.2550  152.3670 N   0  0  0  0  0  0  0  0  0  0  0  0
  159.1130  212.2910  152.3480 C   0  0  0  0  0  3  0  0  0  0  0  0
  159.8190  212.1330  154.7440 C   0  0  0  0  0  0  0  0  0  0  0  0
  160.9680  207.8100  154.9090 C   0  0  0  0  0  3  0  0  0  0  0  0
  161.6720  204.0530  151.8150 C   0  0  0  0  0  2  0  0  0  0  0  0
  158.8780  212.5400  153.6470 C   0  0  0  0  0  0  0  0  0  0  0  0
  161.2030  206.4440  154.6640 C   0  0  0  0  0  3  0  0  0  0  0  0
  161.0510  206.2840  150.8370 C   0  0  0  0  0  2  0  0  0  0  0  0
  160.9910  206.8030  152.2440 C   0  0  0  0  0  0  0  0  0  0  0  0
  161.0510  201.8140  149.8530 C   0  0  0  0  0  3  0  0  0  0  0  0
  161.2700  206.4780  148.2400 C   0  0  0  0  0  2  0  0  0  0  0  0
  161.4150  204.1680  147.2350 C   0  0  0  0  0  0  0  0  0  0  0  0
  161.3080  206.1320  145.7440 C   0  0  0  0  0  3  0  0  0  0  0  0
  161.0880  206.9360  146.8070 C   0  0  0  0  0  3  0  0  0  0  0  0
  161.0140  204.2490  149.4510 N   0  0  0  0  0  0  0  0  0  0  0  0
  161.2310  200.5690  149.2230 C   0  0  0  0  0  3  0  0  0  0  0  0
  161.3820  202.8770  147.7090 C   0  0  0  0  0  0  0  0  0  0  0  0
  161.7570  204.6910  145.8770 C   0  0  0  0  0  2  0  0  0  0  0  0
  161.4900  200.4860  147.8320 C   0  0  0  0  0  0  0  0  0  0  0  0
  161.1890  204.9830  148.3280 C   0  0  0  0  0  0  0  0  0  0  0  0
  161.1290  202.9580  149.0610 C   0  0  0  0  0  0  0  0  0  0  0  0
  161.5730  201.6600  147.0610 C   0  0  0  0  0  3  0  0  0  0  0  0
  161.6740  199.2220  147.1880 N   0  0  0  0  0  2  0  0  0  0  0  0
  160.8490  198.7350  144.8130 N   0  0  0  0  0  0  0  0  0  0  0  0
  161.2220  198.9560  145.8860 C   0  0  0  0  0  0  0  0  0  0  0  0
  156.5240  212.6370  154.7370 C   0  0  0  0  0  1  0  0  0  0  0  0
  157.4600  214.4530  153.5510 O   0  0  0  0  0  0  0  0  0  0  0  0
  157.6280  213.2740  153.9660 C   0  0  0  0  0  0  0  0  0  0  0  0
  160.0440  213.0840  155.8870 C   0  0  0  0  0  2  0  0  0  0  0  0
  158.8910  213.1240  156.8410 C   0  0  0  0  0  0  0  0  0  0  0  0
  158.4380  214.2260  157.2440 O   0  0  0  0  0  0  0  0  0  0  0  0
  158.3000  211.9400  157.2600 O   0  0  0  0  0  1  0  0  0  0  0  0
  2 11  1  0  0  0  0
  2 10  1  0  0  0  0
  3  6  2  0  0  0  0
  3  1  1  0  0  0  0
  4 16  1  0  0  0  0
  5 10  1  0  0  0  0
  5  9  2  0  0  0  0
  6 13  1  0  0  0  0
  7 24  1  6  0  0  0
  7 17  1  0  0  0  0
  7 14  1  0  0  0  0
  8  4  1  0  0  0  0
  9  6  1  0  0  0  0
 10  3  1  0  0  0  0
 11 15  2  0  0  0  0
 12  1  2  0  0  0  0
 12 38  1  0  0  0  0
 14  8  1  0  0  0  0
 15 37  1  0  0  0  0
 15 12  1  0  0  0  0
 16 13  2  0  0  0  0
 17 18  1  0  0  0  0
 18  9  1  0  0  0  0
 18  4  2  0  0  0  0
 20 29  1  0  0  0  0
 21 26  1  0  0  0  0
 21 29  2  0  0  0  0
 22 27  1  0  0  0  0
 22 23  2  0  0  0  0
 23 20  1  0  0  0  0
 25 19  1  0  0  0  0
 26 30  1  0  0  0  0
 27 21  1  0  0  0  0
 28 25  2  0  0  0  0
 29 24  1  0  0  0  0
 30 24  1  0  0  0  0
 30 19  2  0  0  0  0
 31 26  2  0  0  0  0
 31 28  1  0  0  0  0
 32 28  1  0  0  0  0
 33 34  3  0  0  0  0
 34 32  1  0  0  0  0
 36 37  2  0  0  0  0
 37 35  1  0  0  0  0
 38 39  1  0  0  0  0
 39 40  2  0  0  0  0
 39 41  1  0  0  0  0
M  END
>  <MODEL>
1

>  <REMARK>
 VINA RESULT:      -8.9      0.000      0.000
  Name = 
  6 active torsions:
  status: ('A' for Active; 'I' for Inactive)
    1  A    between atoms: N_11  and  C_19
    2  A    between atoms: N_15  and  C_23
    3  A    between atoms: N_15  and  C_41
    4  A    between atoms: C_20  and  C_25
    5  A    between atoms: C_20  and  C_30
    6  A    between atoms: C_22  and  C_34
                            x       y       z     vdW  Elec       q    Type
                         _______ _______ _______ _____ _____    ______ ____

>  <TORSDO>
F 6

$$$$
=
 OpenBabel11072412553D

 41 47  0  0  1  0  0  0  0  0999 V2000
  161.2880  203.8780  149.0390 C   0  0  0  0  0  3  0  0  0  0  0  0
  160.0210  206.1550  147.5030 C   0  0  0  0  0  2  0  0  0  0  0  0
  161.0870  205.2390  149.5530 C   0  0  0  0  0  0  0  0  0  0  0  0
  161.4010  207.1500  153.1800 C   0  0  0  0  0  0  0  0  0  0  0  0
  160.3830  207.3240  149.6300 N   0  0  0  0  0  0  0  0  0  0  0  0
  161.2890  205.6770  150.8380 C   0  0  0  0  0  0  0  0  0  0  0  0
  160.9980  209.9560  153.1850 C   0  0  1  0  0  3  0  0  0  0  0  0
  161.4760  207.8880  154.3650 O   0  0  0  0  0  0  0  0  0  0  0  0
  160.8560  206.9790  150.8450 C   0  0  0  0  0  0  0  0  0  0  0  0
  160.5380  206.2560  148.8560 N   0  0  0  0  0  0  0  0  0  0  0  0
  161.1030  205.7140  146.5750 C   0  0  0  0  0  3  0  0  0  0  0  0
  161.5590  203.5580  147.7620 C   0  0  0  0  0  0  0  0  0  0  0  0
  161.7920  205.0510  151.9750 C   0  0  0  0  0  3  0  0  0  0  0  0
  160.8650  209.1720  154.4910 C   0  0  0  0  0  2  0  0  0  0  0  0
  161.7940  204.5670  146.6740 C   0  0  0  0  0  0  0  0  0  0  0  0
  161.8490  205.8100  153.1590 C   0  0  0  0  0  3  0  0  0  0  0  0
  160.3880  209.1660  152.0240 C   0  0  0  0  0  2  0  0  0  0  0  0
  160.9020  207.7560  152.0010 C   0  0  0  0  0  0  0  0  0  0  0  0
  159.5870  211.2580  155.6440 C   0  0  0  0  0  3  0  0  0  0  0  0
  160.6670  212.0180  150.8830 C   0  0  0  0  0  2  0  0  0  0  0  0
  159.5730  213.3050  152.7560 C   0  0  0  0  0  0  0  0  0  0  0  0
  160.0640  214.4510  150.6260 C   0  0  0  0  0  3  0  0  0  0  0  0
  160.7310  213.3610  150.1870 C   0  0  0  0  0  3  0  0  0  0  0  0
  160.3710  211.2700  153.3020 N   0  0  0  0  0  0  0  0  0  0  0  0
  158.8870  212.0110  156.6030 C   0  0  0  0  0  3  0  0  0  0  0  0
  159.2530  213.0620  154.0730 C   0  0  0  0  0  0  0  0  0  0  0  0
  159.1880  214.4400  151.8620 C   0  0  0  0  0  2  0  0  0  0  0  0
  158.3680  213.2920  156.2880 C   0  0  0  0  0  0  0  0  0  0  0  0
  160.2530  212.1870  152.3150 C   0  0  0  0  0  0  0  0  0  0  0  0
  159.7580  211.8180  154.3790 C   0  0  0  0  0  0  0  0  0  0  0  0
  158.5490  213.8260  154.9990 C   0  0  0  0  0  3  0  0  0  0  0  0
  157.6560  214.0620  157.2610 N   0  0  0  0  0  2  0  0  0  0  0  0
  155.1240  214.4310  157.1640 N   0  0  0  0  0  0  0  0  0  0  0  0
  156.2690  214.2640  157.2080 C   0  0  0  0  0  0  0  0  0  0  0  0
  164.2720  204.3520  145.9300 C   0  0  0  0  0  1  0  0  0  0  0  0
  162.4620  204.0990  144.4340 O   0  0  0  0  0  0  0  0  0  0  0  0
  162.8150  204.3140  145.6260 C   0  0  0  0  0  0  0  0  0  0  0  0
  161.6000  202.0970  147.4070 C   0  0  0  0  0  2  0  0  0  0  0  0
  160.7940  201.2520  148.3420 C   0  0  0  0  0  0  0  0  0  0  0  0
  161.3290  200.2930  148.9540 O   0  0  0  0  0  1  0  0  0  0  0  0
  159.4540  201.5470  148.5580 O   0  0  0  0  0  0  0  0  0  0  0  0
  1  3  1  0  0  0  0
  2 10  1  0  0  0  0
  3  6  2  0  0  0  0
  4  8  1  0  0  0  0
  5  9  2  0  0  0  0
  6  9  1  0  0  0  0
  6 13  1  0  0  0  0
  7 17  1  6  0  0  0
  7 24  1  0  0  0  0
  7 14  1  0  0  0  0
  8 14  1  0  0  0  0
  9 18  1  0  0  0  0
 10  3  1  0  0  0  0
 10  5  1  0  0  0  0
 11 15  2  0  0  0  0
 11  2  1  0  0  0  0
 12  1  2  0  0  0  0
 13 16  2  0  0  0  0
 15 12  1  0  0  0  0
 16  4  1  0  0  0  0
 18 17  1  0  0  0  0
 18  4  2  0  0  0  0
 19 25  1  0  0  0  0
 20 29  1  0  0  0  0
 21 26  1  0  0  0  0
 22 27  1  0  0  0  0
 23 22  2  0  0  0  0
 23 20  1  0  0  0  0
 24 30  1  0  0  0  0
 26 30  1  0  0  0  0
 26 31  2  0  0  0  0
 27 21  1  0  0  0  0
 28 25  2  0  0  0  0
 28 32  1  0  0  0  0
 29 21  2  0  0  0  0
 29 24  1  0  0  0  0
 30 19  2  0  0  0  0
 31 28  1  0  0  0  0
 33 34  3  0  0  0  0
 34 32  1  0  0  0  0
 36 37  2  0  0  0  0
 37 35  1  0  0  0  0
 37 15  1  0  0  0  0
 38 12  1  0  0  0  0
 38 39  1  0  0  0  0
 39 41  2  0  0  0  0
 39 40  1  0  0  0  0
M  END
>  <MODEL>
2

>  <REMARK>
 VINA RESULT:      -7.1      2.953     10.935
  Name = 
  6 active torsions:
  status: ('A' for Active; 'I' for Inactive)
    1  A    between atoms: N_11  and  C_19
    2  A    between atoms: N_15  and  C_23
    3  A    between atoms: N_15  and  C_41
    4  A    between atoms: C_20  and  C_25
    5  A    between atoms: C_20  and  C_30
    6  A    between atoms: C_22  and  C_34
                            x       y       z     vdW  Elec       q    Type
                         _______ _______ _______ _____ _____    ______ ____

>  <TORSDO>
F 6

$$$$
=
 OpenBabel11072412553D

 41 47  0  0  1  0  0  0  0  0999 V2000
  161.2670  209.3540  154.8010 C   0  0  0  0  0  3  0  0  0  0  0  0
  161.3200  210.5000  152.0030 C   0  0  0  0  0  2  0  0  0  0  0  0
  161.1440  208.5740  153.5630 C   0  0  0  0  0  0  0  0  0  0  0  0
  161.1430  204.5980  152.5130 C   0  0  0  0  0  0  0  0  0  0  0  0
  161.1410  208.1270  151.4070 N   0  0  0  0  0  0  0  0  0  0  0  0
  161.1370  207.2060  153.4440 C   0  0  0  0  0  0  0  0  0  0  0  0
  160.6170  203.9950  149.7930 C   0  0  1  0  0  3  0  0  0  0  0  0
  161.1320  203.2770  152.0560 O   0  0  0  0  0  0  0  0  0  0  0  0
  161.1190  206.9660  152.0920 C   0  0  0  0  0  0  0  0  0  0  0  0
  161.1490  209.0940  152.3170 N   0  0  0  0  0  0  0  0  0  0  0  0
  160.2410  211.3030  152.6500 C   0  0  0  0  0  3  0  0  0  0  0  0
  160.8050  210.6030  154.9860 C   0  0  0  0  0  0  0  0  0  0  0  0
  161.1580  206.1820  154.3850 C   0  0  0  0  0  3  0  0  0  0  0  0
  161.3120  202.9580  150.6760 C   0  0  0  0  0  2  0  0  0  0  0  0
  159.9990  211.3610  153.9700 C   0  0  0  0  0  0  0  0  0  0  0  0
  161.1560  204.8600  153.9020 C   0  0  0  0  0  3  0  0  0  0  0  0
  161.1400  205.4000  150.1080 C   0  0  0  0  0  2  0  0  0  0  0  0
  161.1140  205.6680  151.5840 C   0  0  0  0  0  0  0  0  0  0  0  0
  160.7870  205.9230  147.3470 C   0  0  0  0  0  3  0  0  0  0  0  0
  160.7650  201.1390  148.5790 C   0  0  0  0  0  2  0  0  0  0  0  0
  161.0280  202.5010  146.4720 C   0  0  0  0  0  0  0  0  0  0  0  0
  161.4320  200.0670  146.3980 C   0  0  0  0  0  3  0  0  0  0  0  0
  161.3070  199.9990  147.7410 C   0  0  0  0  0  3  0  0  0  0  0  0
  160.8000  203.6800  148.3790 N   0  0  0  0  0  0  0  0  0  0  0  0
  160.8550  206.5970  146.1150 C   0  0  0  0  0  3  0  0  0  0  0  0
  160.9990  203.8370  146.1450 C   0  0  0  0  0  0  0  0  0  0  0  0
  161.0430  201.2910  145.5940 C   0  0  0  0  0  2  0  0  0  0  0  0
  160.9920  205.8840  144.8980 C   0  0  0  0  0  0  0  0  0  0  0  0
  160.9000  202.4400  147.8460 C   0  0  0  0  0  0  0  0  0  0  0  0
  160.8670  204.5310  147.3280 C   0  0  0  0  0  0  0  0  0  0  0  0
  161.0610  204.4790  144.9110 C   0  0  0  0  0  3  0  0  0  0  0  0
  161.0620  206.5660  143.6430 N   0  0  0  0  0  2  0  0  0  0  0  0
  162.1770  205.5610  141.5680 N   0  0  0  0  0  0  0  0  0  0  0  0
  161.6730  206.0150  142.5060 C   0  0  0  0  0  0  0  0  0  0  0  0
  157.7480  211.7250  155.2110 C   0  0  0  0  0  1  0  0  0  0  0  0
  158.8670  213.4560  154.0580 O   0  0  0  0  0  0  0  0  0  0  0  0
  158.8880  212.2440  154.4040 C   0  0  0  0  0  0  0  0  0  0  0  0
  161.1470  211.2830  156.2840 C   0  0  0  0  0  2  0  0  0  0  0  0
  162.4230  210.7800  156.8820 C   0  0  0  0  0  0  0  0  0  0  0  0
  163.3900  211.5630  157.0670 O   0  0  0  0  0  0  0  0  0  0  0  0
  162.5310  209.4490  157.2610 O   0  0  0  0  0  1  0  0  0  0  0  0
  1 12  2  0  0  0  0
  2 10  1  0  0  0  0
  2 11  1  0  0  0  0
  3  1  1  0  0  0  0
  4 16  1  0  0  0  0
  5  9  2  0  0  0  0
  5 10  1  0  0  0  0
  6  3  2  0  0  0  0
  6 13  1  0  0  0  0
  7 24  1  6  0  0  0
  7 17  1  0  0  0  0
  7 14  1  0  0  0  0
  8  4  1  0  0  0  0
  9  6  1  0  0  0  0
 10  3  1  0  0  0  0
 11 15  2  0  0  0  0
 12 38  1  0  0  0  0
 14  8  1  0  0  0  0
 15 37  1  0  0  0  0
 15 12  1  0  0  0  0
 16 13  2  0  0  0  0
 17 18  1  0  0  0  0
 18  9  1  0  0  0  0
 18  4  2  0  0  0  0
 21 29  2  0  0  0  0
 22 23  2  0  0  0  0
 23 20  1  0  0  0  0
 25 19  2  0  0  0  0
 26 21  1  0  0  0  0
 26 30  2  0  0  0  0
 27 22  1  0  0  0  0
 27 21  1  0  0  0  0
 28 31  2  0  0  0  0
 28 25  1  0  0  0  0
 29 24  1  0  0  0  0
 29 20  1  0  0  0  0
 30 19  1  0  0  0  0
 30 24  1  0  0  0  0
 31 26  1  0  0  0  0
 32 28  1  0  0  0  0
 33 34  3  0  0  0  0
 34 32  1  0  0  0  0
 36 37  2  0  0  0  0
 37 35  1  0  0  0  0
 38 39  1  0  0  0  0
 39 40  2  0  0  0  0
 39 41  1  0  0  0  0
M  END
>  <MODEL>
3

>  <REMARK>
 VINA RESULT:      -6.6      2.277      3.777
  Name = 
  6 active torsions:
  status: ('A' for Active; 'I' for Inactive)
    1  A    between atoms: N_11  and  C_19
    2  A    between atoms: N_15  and  C_23
    3  A    between atoms: N_15  and  C_41
    4  A    between atoms: C_20  and  C_25
    5  A    between atoms: C_20  and  C_30
    6  A    between atoms: C_22  and  C_34
                            x       y       z     vdW  Elec       q    Type
                         _______ _______ _______ _____ _____    ______ ____

>  <TORSDO>
F 6

$$$$
=
 OpenBabel11072412553D

 41 47  0  0  1  0  0  0  0  0999 V2000
  161.1410  203.9370  148.7490 C   0  0  0  0  0  3  0  0  0  0  0  0
  159.9230  206.4000  147.4850 C   0  0  0  0  0  2  0  0  0  0  0  0
  160.9880  205.2400  149.4080 C   0  0  0  0  0  0  0  0  0  0  0  0
  161.4100  206.7430  153.2120 C   0  0  0  0  0  0  0  0  0  0  0  0
  160.3500  207.3240  149.7180 N   0  0  0  0  0  0  0  0  0  0  0  0
  161.2210  205.5320  150.7290 C   0  0  0  0  0  0  0  0  0  0  0  0
  161.0930  209.5430  153.5220 C   0  0  1  0  0  3  0  0  0  0  0  0
  161.5240  207.3480  154.4670 O   0  0  0  0  0  0  0  0  0  0  0  0
  160.8280  206.8380  150.8810 C   0  0  0  0  0  0  0  0  0  0  0  0
  160.4610  206.3410  148.8320 N   0  0  0  0  0  0  0  0  0  0  0  0
  160.9780  206.0290  146.4970 C   0  0  0  0  0  3  0  0  0  0  0  0
  161.3850  203.7470  147.4410 C   0  0  0  0  0  0  0  0  0  0  0  0
  161.7200  204.7740  151.7840 C   0  0  0  0  0  3  0  0  0  0  0  0
  160.9540  208.6290  154.7390 C   0  0  0  0  0  2  0  0  0  0  0  0
  161.6350  204.8580  146.4620 C   0  0  0  0  0  0  0  0  0  0  0  0
  161.8160  205.4000  153.0410 C   0  0  0  0  0  3  0  0  0  0  0  0
  160.4440  208.9000  152.2940 C   0  0  0  0  0  2  0  0  0  0  0  0
  160.9140  207.4860  152.1120 C   0  0  0  0  0  0  0  0  0  0  0  0
  159.2540  211.2910  151.7070 C   0  0  0  0  0  3  0  0  0  0  0  0
  161.5910  211.2670  156.0590 C   0  0  0  0  0  2  0  0  0  0  0  0
  160.0250  212.8020  154.8140 C   0  0  0  0  0  0  0  0  0  0  0  0
  160.5920  213.2990  157.1640 C   0  0  0  0  0  3  0  0  0  0  0  0
  161.2480  212.1230  157.2610 C   0  0  0  0  0  3  0  0  0  0  0  0
  160.5080  210.8550  153.7890 N   0  0  0  0  0  0  0  0  0  0  0  0
  158.4560  212.2440  151.0490 C   0  0  0  0  0  3  0  0  0  0  0  0
  159.4070  212.8050  153.5840 C   0  0  0  0  0  0  0  0  0  0  0  0
  160.1320  213.8820  155.8420 C   0  0  0  0  0  2  0  0  0  0  0  0
  158.1400  213.4810  151.6650 C   0  0  0  0  0  0  0  0  0  0  0  0
  160.6920  211.5970  154.9050 C   0  0  0  0  0  0  0  0  0  0  0  0
  159.7140  211.6030  152.9850 C   0  0  0  0  0  0  0  0  0  0  0  0
  158.6270  213.7700  152.9530 C   0  0  0  0  0  3  0  0  0  0  0  0
  157.3290  214.4530  151.0000 N   0  0  0  0  0  2  0  0  0  0  0  0
  154.9410  213.9720  150.2090 N   0  0  0  0  0  0  0  0  0  0  0  0
  156.0200  214.1890  150.5670 C   0  0  0  0  0  0  0  0  0  0  0  0
  162.3020  205.0000  143.9570 C   0  0  0  0  0  1  0  0  0  0  0  0
  163.7810  204.2350  145.6330 O   0  0  0  0  0  0  0  0  0  0  0  0
  162.6330  204.6890  145.3760 C   0  0  0  0  0  0  0  0  0  0  0  0
  161.3760  202.3310  146.9320 C   0  0  0  0  0  2  0  0  0  0  0  0
  161.0350  201.3370  147.9960 C   0  0  0  0  0  0  0  0  0  0  0  0
  159.8500  201.2180  148.4000 O   0  0  0  0  0  0  0  0  0  0  0  0
  162.0280  200.5190  148.5210 O   0  0  0  0  0  1  0  0  0  0  0  0
  1  3  1  0  0  0  0
  2 10  1  0  0  0  0
  3  6  2  0  0  0  0
  4  8  1  0  0  0  0
  5  9  2  0  0  0  0
  6  9  1  0  0  0  0
  6 13  1  0  0  0  0
  7 17  1  6  0  0  0
  7 24  1  0  0  0  0
  7 14  1  0  0  0  0
  8 14  1  0  0  0  0
  9 18  1  0  0  0  0
 10  3  1  0  0  0  0
 10  5  1  0  0  0  0
 11  2  1  0  0  0  0
 12  1  2  0  0  0  0
 13 16  2  0  0  0  0
 15 11  2  0  0  0  0
 15 12  1  0  0  0  0
 16  4  1  0  0  0  0
 18 17  1  0  0  0  0
 18  4  2  0  0  0  0
 19 30  1  0  0  0  0
 20 23  1  0  0  0  0
 21 29  2  0  0  0  0
 21 27  1  0  0  0  0
 22 23  2  0  0  0  0
 24 29  1  0  0  0  0
 25 28  1  0  0  0  0
 25 19  2  0  0  0  0
 26 21  1  0  0  0  0
 27 22  1  0  0  0  0
 28 31  2  0  0  0  0
 29 20  1  0  0  0  0
 30 26  2  0  0  0  0
 30 24  1  0  0  0  0
 31 26  1  0  0  0  0
 32 28  1  0  0  0  0
 33 34  3  0  0  0  0
 34 32  1  0  0  0  0
 35 37  1  0  0  0  0
 37 36  2  0  0  0  0
 37 15  1  0  0  0  0
 38 12  1  0  0  0  0
 38 39  1  0  0  0  0
 39 40  2  0  0  0  0
 39 41  1  0  0  0  0
M  END
>  <MODEL>
4

>  <REMARK>
 VINA RESULT:      -6.3      3.030     10.715
  Name = 
  6 active torsions:
  status: ('A' for Active; 'I' for Inactive)
    1  A    between atoms: N_11  and  C_19
    2  A    between atoms: N_15  and  C_23
    3  A    between atoms: N_15  and  C_41
    4  A    between atoms: C_20  and  C_25
    5  A    between atoms: C_20  and  C_30
    6  A    between atoms: C_22  and  C_34
                            x       y       z     vdW  Elec       q    Type
                         _______ _______ _______ _____ _____    ______ ____

>  <TORSDO>
F 6

$$$$
