=
 OpenBabel11072414213D

 62 68  0  0  1  0  0  0  0  0999 V2000
  161.5160  211.5360  151.7840 C   0  0  0  0  0  2  0  0  0  0  0  0
  161.2860  207.5460  152.7420 C   0  0  0  0  0  0  0  0  0  0  0  0
  161.6480  209.8110  153.5910 C   0  0  0  0  0  0  0  0  0  0  0  0
  161.2740  208.5470  153.8110 C   0  0  0  0  0  3  0  0  0  0  0  0
  161.0460  205.0720  152.1720 C   0  0  0  0  0  0  0  0  0  0  0  0
  160.9100  206.1980  153.0510 N   0  0  0  0  0  2  0  0  0  0  0  0
  161.6400  207.8820  151.5410 N   0  0  0  0  0  0  0  0  0  0  0  0
  160.6070  203.7870  152.6160 N   0  0  0  0  0  2  0  0  0  0  0  0
  162.0290  209.1930  151.2110 N   0  0  0  0  0  0  0  0  0  0  0  0
  161.5730  205.2020  151.0310 O   0  0  0  0  0  0  0  0  0  0  0  0
  162.1740  210.2370  152.2380 C   0  0  1  0  0  3  0  0  0  0  0  0
  160.3930  211.0400  155.3970 C   0  0  1  0  0  3  0  0  0  0  0  0
  162.1180  210.8690  157.0500 O   0  0  0  0  0  0  0  0  0  0  0  0
  162.5670  210.2800  155.8570 C   0  0  0  0  0  2  0  0  0  0  0  0
  161.7120  210.7970  154.7290 C   0  0  1  0  0  3  0  0  0  0  0  0
  160.7580  211.1850  156.8610 C   0  0  0  0  0  2  0  0  0  0  0  0
  159.7880  212.2650  154.8940 N   0  0  0  0  0  2  0  0  0  0  0  0
  158.8050  212.6400  155.8210 N   0  0  0  0  0  1  0  0  0  0  0  0
  162.5910  209.4200  149.8870 C   0  0  0  0  0  2  0  0  0  0  0  0
  162.0750  207.8510  148.0740 C   0  0  2  0  0  3  0  0  0  0  0  0
  162.9470  208.0920  149.2420 C   0  0  2  0  0  3  0  0  0  0  0  0
  161.8380  207.2290  149.3140 O   0  0  0  0  0  0  0  0  0  0  0  0
  162.7070  206.8970  147.1810 N   0  0  0  0  0  2  0  0  0  0  0  0
  161.7980  205.7700  147.0690 C   0  0  0  0  0  2  0  0  0  0  0  0
  160.4820  206.2410  146.5490 C   0  0  0  0  0  3  0  0  0  0  0  0
  160.2470  206.2440  145.2420 C   0  0  0  0  0  2  0  0  0  0  0  0
  160.7430  202.5930  151.7930 C   0  0  0  0  0  2  0  0  0  0  0  0
  159.2530  202.4340  149.8070 C   0  0  0  0  0  2  0  0  0  0  0  0
  159.4210  201.0610  149.3650 N   0  0  0  0  0  2  0  0  0  0  0  0
  161.8840  202.0950  149.3780 S   0  0  0  0  0  0  0  0  0  0  0  0
  160.6380  201.0470  148.5720 C   0  0  0  0  0  2  0  0  0  0  0  0
  160.5880  202.9390  150.3220 C   0  0  2  0  0  3  0  0  0  0  0  0
  159.0270  211.2790  151.8280 C   0  0  0  0  0  1  0  0  0  0  0  0
  160.2780  211.2030  150.9690 C   0  0  1  0  0  3  0  0  0  0  0  0
  160.1710  212.0720  149.7200 C   0  0  0  0  0  2  0  0  0  0  0  0
  161.1640  212.4900  147.3910 C   0  0  2  0  0  3  0  0  0  0  0  0
  160.8870  211.1300  147.6400 O   0  0  0  0  0  0  0  0  0  0  0  0
  161.3360  211.8730  148.7480 C   0  0  2  0  0  3  0  0  0  0  0  0
  159.8590  213.2720  147.2040 C   0  0  2  0  0  3  0  0  0  0  0  0
  160.8080  213.7610  144.8810 N   0  0  0  0  0  0  0  0  0  0  0  0
  162.2430  213.4160  144.8750 C   0  0  1  0  0  3  0  0  0  0  0  0
  161.0000  213.9820  143.4350 C   0  0  1  0  0  3  0  0  0  0  0  0
  159.7240  213.8200  145.8140 C   0  0  0  0  0  0  0  0  0  0  0  0
  162.4480  213.6270  143.4110 C   0  0  0  0  0  2  0  0  0  0  0  0
  158.6190  214.3120  145.4610 O   0  0  0  0  0  0  0  0  0  0  0  0
  158.3230  212.6790  140.9170 C   0  0  0  0  0  2  0  0  0  0  0  0
  160.1690  213.0140  142.5790 C   0  0  1  0  0  3  0  0  0  0  0  0
  160.7720  212.4190  140.1640 C   0  0  0  0  0  2  0  0  0  0  0  0
  159.2900  212.1630  139.8390 C   0  0  1  0  0  3  0  0  0  0  0  0
  158.9820  213.6780  141.8580 C   0  0  0  0  0  2  0  0  0  0  0  0
  161.0770  212.1920  141.6490 C   0  0  0  0  0  2  0  0  0  0  0  0
  159.0610  210.7420  139.6240 N   0  0  0  0  0  2  0  0  0  0  0  0
  160.1850  210.2450  138.8460 C   0  0  0  0  0  2  0  0  0  0  0  0
  160.2530  208.7280  138.9240 C   0  0  0  0  0  2  0  0  0  0  0  0
  162.2280  209.2140  140.2410 O   0  0  0  0  0  1  0  0  0  0  0  0
  161.9550  206.9710  139.3980 C   0  0  0  0  0  3  0  0  0  0  0  0
  161.4670  208.2980  139.5990 N   0  0  0  0  0  0  0  0  0  0  0  0
  163.0810  206.6240  139.8460 O   0  0  0  0  0  0  0  0  0  0  0  0
  163.1620  214.0070  147.1210 C   0  0  0  0  0  1  0  0  0  0  0  0
  163.0390  214.4450  145.6710 C   0  0  0  0  0  2  0  0  0  0  0  0
  158.3880  214.4500  148.6710 O   0  0  0  0  0  1  0  0  0  0  0  0
  159.7190  214.3560  148.2610 C   0  0  0  0  0  2  0  0  0  0  0  0
  2  6  1  0  0  0  0
  2  4  1  0  0  0  0
  3  4  2  0  0  0  0
  5  8  1  0  0  0  0
  5  6  1  0  0  0  0
  7  2  2  0  0  0  0
  9  7  1  0  0  0  0
  9 11  1  0  0  0  0
 10  5  2  0  0  0  0
 11  1  1  6  0  0  0
 11  3  1  0  0  0  0
 12 17  1  6  0  0  0
 12 16  1  0  0  0  0
 14 13  1  0  0  0  0
 15  3  1  6  0  0  0
 15 12  1  0  0  0  0
 15 14  1  0  0  0  0
 16 13  1  0  0  0  0
 17 18  1  0  0  0  0
 19  9  1  0  0  0  0
 20 23  1  6  0  0  0
 20 21  1  0  0  0  0
 20 22  1  0  0  0  0
 21 22  1  0  0  0  0
 21 19  1  1  0  0  0
 24 23  1  0  0  0  0
 25 24  1  0  0  0  0
 26 25  2  0  0  0  0
 27  8  1  0  0  0  0
 28 32  1  0  0  0  0
 29 28  1  0  0  0  0
 30 32  1  0  0  0  0
 31 29  1  0  0  0  0
 31 30  1  0  0  0  0
 32 27  1  1  0  0  0
 34  1  1  0  0  0  0
 34 33  1  1  0  0  0
 35 34  1  0  0  0  0
 36 39  1  1  0  0  0
 36 37  1  0  0  0  0
 36 38  1  0  0  0  0
 37 38  1  0  0  0  0
 38 35  1  1  0  0  0
 39 62  1  1  0  0  0
 40 43  1  0  0  0  0
 41 40  1  0  0  0  0
 41 60  1  1  0  0  0
 42 44  1  1  0  0  0
 42 40  1  0  0  0  0
 43 39  1  0  0  0  0
 44 41  1  0  0  0  0
 45 43  2  0  0  0  0
 46 50  1  0  0  0  0
 47 51  1  6  0  0  0
 47 42  1  0  0  0  0
 48 51  1  0  0  0  0
 49 52  1  1  0  0  0
 49 48  1  0  0  0  0
 49 46  1  0  0  0  0
 50 47  1  0  0  0  0
 53 54  1  0  0  0  0
 53 52  1  0  0  0  0
 54 57  1  0  0  0  0
 56 57  1  0  0  0  0
 56 58  2  0  0  0  0
 57 55  1  0  0  0  0
 60 59  1  0  0  0  0
 62 61  1  0  0  0  0
M  END
>  <MODEL>
1

>  <REMARK>
 VINA RESULT:      -2.7      0.000      0.000
  Name = 
  22 active torsions:
  status: ('A' for Active; 'I' for Inactive)
    1  A    between atoms: C_2  and  N_50
    2  A    between atoms: C_4  and  N_5
    3  A    between atoms: C_7  and  C_16
    4  A    between atoms: C_8  and  C_10
    5  A    between atoms: C_9  and  C_55
    6  A    between atoms: C_10  and  N_50
    7  A    between atoms: C_13  and  C_25
    8  A    between atoms: C_13  and  N_40
    9  A    between atoms: C_15  and  C_44
   10  A    between atoms: C_15  and  C_56
   11  A    between atoms: C_17  and  N_31
   12  A    between atoms: C_17  and  C_52
   13  A    between atoms: C_18  and  C_39
   14  A    between atoms: C_20  and  C_42
   15  A    between atoms: C_23  and  C_56
   16  A    between atoms: C_23  and  C_59
   17  A    between atoms: C_30  and  C_55
   18  A    between atoms: N_37  and  C_58
   19  A    between atoms: C_46  and  N_48
   20  A    between atoms: C_47  and  C_58
   21  A    between atoms: N_48  and  C_52
   22  A    between atoms: C_51  and  C_55
                            x       y       z     vdW  Elec       q    Type
                         _______ _______ _______ _____ _____    ______ ____

>  <TORSDO>
F 22

$$$$
=
 OpenBabel11072414213D

 62 68  0  0  1  0  0  0  0  0999 V2000
  161.6170  211.5660  151.6030 C   0  0  0  0  0  2  0  0  0  0  0  0
  161.4340  207.5920  152.6350 C   0  0  0  0  0  0  0  0  0  0  0  0
  161.6610  209.8850  153.4560 C   0  0  0  0  0  0  0  0  0  0  0  0
  161.3090  208.6140  153.6760 C   0  0  0  0  0  3  0  0  0  0  0  0
  161.3140  205.1000  152.1090 C   0  0  0  0  0  0  0  0  0  0  0  0
  161.0770  206.2400  152.9470 N   0  0  0  0  0  2  0  0  0  0  0  0
  161.8700  207.9130  151.4580 N   0  0  0  0  0  0  0  0  0  0  0  0
  160.8810  203.8110  152.5480 N   0  0  0  0  0  2  0  0  0  0  0  0
  162.2430  209.2290  151.1270 N   0  0  0  0  0  0  0  0  0  0  0  0
  161.9230  205.2220  151.0080 O   0  0  0  0  0  0  0  0  0  0  0  0
  162.2760  210.2990  152.1360 C   0  0  1  0  0  3  0  0  0  0  0  0
  160.2880  210.9500  155.2790 C   0  0  1  0  0  3  0  0  0  0  0  0
  162.0700  211.0880  156.8750 O   0  0  0  0  0  0  0  0  0  0  0  0
  162.5660  210.5460  155.6780 C   0  0  0  0  0  2  0  0  0  0  0  0
  161.6060  210.8970  154.5710 C   0  0  1  0  0  3  0  0  0  0  0  0
  160.6710  211.1860  156.7270 C   0  0  0  0  0  2  0  0  0  0  0  0
  159.4850  212.0540  154.7740 N   0  0  0  0  0  2  0  0  0  0  0  0
  158.8340  212.6200  155.8800 N   0  0  0  0  0  1  0  0  0  0  0  0
  162.8980  209.4450  149.8450 C   0  0  0  0  0  2  0  0  0  0  0  0
  162.6870  207.2360  148.8000 C   0  0  2  0  0  3  0  0  0  0  0  0
  162.2040  208.6320  148.7660 C   0  0  2  0  0  3  0  0  0  0  0  0
  163.1630  208.1600  147.8510 O   0  0  0  0  0  0  0  0  0  0  0  0
  161.7140  206.3670  148.1650 N   0  0  0  0  0  2  0  0  0  0  0  0
  162.0830  206.2860  146.7630 C   0  0  0  0  0  2  0  0  0  0  0  0
  161.0250  205.5530  146.0110 C   0  0  0  0  0  3  0  0  0  0  0  0
  160.3340  206.1730  145.0610 C   0  0  0  0  0  2  0  0  0  0  0  0
  161.1160  202.6040  151.7670 C   0  0  0  0  0  2  0  0  0  0  0  0
  160.0960  201.1070  150.0620 C   0  0  0  0  0  2  0  0  0  0  0  0
  161.1410  200.9680  149.0630 N   0  0  0  0  0  2  0  0  0  0  0  0
  160.7190  203.5970  149.2680 S   0  0  0  0  0  0  0  0  0  0  0  0
  161.0440  202.1480  148.2220 C   0  0  0  0  0  2  0  0  0  0  0  0
  160.1380  202.5220  150.6060 C   0  0  2  0  0  3  0  0  0  0  0  0
  159.1440  211.1800  151.6210 C   0  0  0  0  0  1  0  0  0  0  0  0
  160.4050  211.1780  150.7730 C   0  0  1  0  0  3  0  0  0  0  0  0
  160.2630  212.0550  149.5330 C   0  0  0  0  0  2  0  0  0  0  0  0
  161.1670  212.4400  147.1620 C   0  0  2  0  0  3  0  0  0  0  0  0
  160.9240  211.0810  147.4490 O   0  0  0  0  0  0  0  0  0  0  0  0
  161.3970  211.8560  148.5240 C   0  0  2  0  0  3  0  0  0  0  0  0
  159.8420  213.1940  147.0040 C   0  0  2  0  0  3  0  0  0  0  0  0
  160.7590  213.7590  144.6860 N   0  0  0  0  0  0  0  0  0  0  0  0
  162.1970  213.4240  144.6530 C   0  0  1  0  0  3  0  0  0  0  0  0
  160.9330  214.0240  143.2450 C   0  0  1  0  0  3  0  0  0  0  0  0
  159.6860  213.7820  145.6330 C   0  0  0  0  0  0  0  0  0  0  0  0
  162.3820  213.6800  143.1940 C   0  0  0  0  0  2  0  0  0  0  0  0
  158.5740  214.2770  145.3080 O   0  0  0  0  0  0  0  0  0  0  0  0
  158.3090  212.7890  140.6390 C   0  0  0  0  0  2  0  0  0  0  0  0
  160.0980  213.0770  142.3710 C   0  0  1  0  0  3  0  0  0  0  0  0
  160.7740  212.4180  139.9920 C   0  0  0  0  0  2  0  0  0  0  0  0
  159.2970  212.2170  139.6100 C   0  0  1  0  0  3  0  0  0  0  0  0
  158.9700  213.7770  141.5910 C   0  0  0  0  0  2  0  0  0  0  0  0
  161.0080  212.2030  141.4920 C   0  0  0  0  0  2  0  0  0  0  0  0
  159.0190  210.8030  139.4070 N   0  0  0  0  0  2  0  0  0  0  0  0
  157.5770  210.6370  139.5050 C   0  0  0  0  0  2  0  0  0  0  0  0
  157.0200  210.0670  138.2100 C   0  0  0  0  0  2  0  0  0  0  0  0
  154.8920  209.6580  137.1270 O   0  0  0  0  0  1  0  0  0  0  0  0
  154.9070  211.0360  139.1070 C   0  0  0  0  0  3  0  0  0  0  0  0
  155.5730  210.1870  138.1710 N   0  0  0  0  0  0  0  0  0  0  0  0
  153.6750  211.2750  138.9960 O   0  0  0  0  0  0  0  0  0  0  0  0
  162.7440  214.2260  146.9550 C   0  0  0  0  0  1  0  0  0  0  0  0
  162.9960  214.4340  145.4710 C   0  0  0  0  0  2  0  0  0  0  0  0
  158.3370  214.3270  148.4740 O   0  0  0  0  0  1  0  0  0  0  0  0
  159.6780  214.2390  148.0960 C   0  0  0  0  0  2  0  0  0  0  0  0
  2  6  1  0  0  0  0
  2  4  1  0  0  0  0
  3  4  2  0  0  0  0
  5  8  1  0  0  0  0
  5  6  1  0  0  0  0
  7  2  2  0  0  0  0
  9  7  1  0  0  0  0
  9 11  1  0  0  0  0
 10  5  2  0  0  0  0
 11  1  1  6  0  0  0
 11  3  1  0  0  0  0
 12 17  1  6  0  0  0
 12 16  1  0  0  0  0
 14 13  1  0  0  0  0
 15  3  1  6  0  0  0
 15 12  1  0  0  0  0
 15 14  1  0  0  0  0
 16 13  1  0  0  0  0
 17 18  1  0  0  0  0
 19  9  1  0  0  0  0
 20 23  1  6  0  0  0
 21 20  1  0  0  0  0
 21 19  1  1  0  0  0
 22 21  1  0  0  0  0
 22 20  1  0  0  0  0
 24 23  1  0  0  0  0
 25 24  1  0  0  0  0
 26 25  2  0  0  0  0
 27  8  1  0  0  0  0
 28 32  1  0  0  0  0
 29 28  1  0  0  0  0
 30 32  1  0  0  0  0
 31 29  1  0  0  0  0
 31 30  1  0  0  0  0
 32 27  1  1  0  0  0
 34  1  1  0  0  0  0
 34 33  1  1  0  0  0
 35 34  1  0  0  0  0
 36 39  1  1  0  0  0
 36 37  1  0  0  0  0
 36 38  1  0  0  0  0
 37 38  1  0  0  0  0
 38 35  1  1  0  0  0
 39 62  1  1  0  0  0
 40 43  1  0  0  0  0
 41 40  1  0  0  0  0
 41 60  1  1  0  0  0
 42 44  1  6  0  0  0
 42 40  1  0  0  0  0
 43 39  1  0  0  0  0
 44 41  1  0  0  0  0
 45 43  2  0  0  0  0
 46 50  1  0  0  0  0
 47 51  1  6  0  0  0
 47 42  1  0  0  0  0
 48 51  1  0  0  0  0
 49 52  1  1  0  0  0
 49 48  1  0  0  0  0
 49 46  1  0  0  0  0
 50 47  1  0  0  0  0
 52 53  1  0  0  0  0
 54 53  1  0  0  0  0
 55 57  1  0  0  0  0
 57 54  1  0  0  0  0
 57 56  1  0  0  0  0
 58 56  2  0  0  0  0
 60 59  1  0  0  0  0
 62 61  1  0  0  0  0
M  END
>  <MODEL>
2

>  <REMARK>
 VINA RESULT:      -2.2      1.848      2.293
  Name = 
  22 active torsions:
  status: ('A' for Active; 'I' for Inactive)
    1  A    between atoms: C_2  and  N_50
    2  A    between atoms: C_4  and  N_5
    3  A    between atoms: C_7  and  C_16
    4  A    between atoms: C_8  and  C_10
    5  A    between atoms: C_9  and  C_55
    6  A    between atoms: C_10  and  N_50
    7  A    between atoms: C_13  and  C_25
    8  A    between atoms: C_13  and  N_40
    9  A    between atoms: C_15  and  C_44
   10  A    between atoms: C_15  and  C_56
   11  A    between atoms: C_17  and  N_31
   12  A    between atoms: C_17  and  C_52
   13  A    between atoms: C_18  and  C_39
   14  A    between atoms: C_20  and  C_42
   15  A    between atoms: C_23  and  C_56
   16  A    between atoms: C_23  and  C_59
   17  A    between atoms: C_30  and  C_55
   18  A    between atoms: N_37  and  C_58
   19  A    between atoms: C_46  and  N_48
   20  A    between atoms: C_47  and  C_58
   21  A    between atoms: N_48  and  C_52
   22  A    between atoms: C_51  and  C_55
                            x       y       z     vdW  Elec       q    Type
                         _______ _______ _______ _____ _____    ______ ____

>  <TORSDO>
F 22

$$$$
=
 OpenBabel11072414213D

 62 68  0  0  1  0  0  0  0  0999 V2000
  162.7080  209.4220  150.3190 C   0  0  0  0  0  2  0  0  0  0  0  0
  159.9710  212.2100  151.5940 C   0  0  0  0  0  0  0  0  0  0  0  0
  161.4650  211.5260  149.7820 C   0  0  0  0  0  0  0  0  0  0  0  0
  160.3770  212.1880  150.1870 C   0  0  0  0  0  3  0  0  0  0  0  0
  158.3990  213.2440  153.3150 C   0  0  0  0  0  0  0  0  0  0  0  0
  158.8160  212.9700  151.9700 N   0  0  0  0  0  2  0  0  0  0  0  0
  160.6570  211.5560  152.4790 N   0  0  0  0  0  0  0  0  0  0  0  0
  157.2090  214.0040  153.5330 N   0  0  0  0  0  2  0  0  0  0  0  0
  161.8040  210.8130  152.1430 N   0  0  0  0  0  0  0  0  0  0  0  0
  159.0850  212.8470  154.2980 O   0  0  0  0  0  0  0  0  0  0  0  0
  162.3650  210.8330  150.7830 C   0  0  1  0  0  3  0  0  0  0  0  0
  161.0680  212.4920  147.4910 C   0  0  1  0  0  3  0  0  0  0  0  0
  163.3820  212.7990  146.9520 O   0  0  0  0  0  0  0  0  0  0  0  0
  163.2810  212.2050  148.2210 C   0  0  0  0  0  2  0  0  0  0  0  0
  161.9090  211.5940  148.3440 C   0  0  1  0  0  3  0  0  0  0  0  0
  162.0720  213.1390  146.5570 C   0  0  0  0  0  2  0  0  0  0  0  0
  160.0950  211.7130  146.7380 N   0  0  0  0  0  2  0  0  0  0  0  0
  160.0160  212.2880  145.4620 N   0  0  0  0  0  1  0  0  0  0  0  0
  162.6070  210.2780  153.2320 C   0  0  0  0  0  2  0  0  0  0  0  0
  161.5750  210.6930  155.4190 C   0  0  2  0  0  3  0  0  0  0  0  0
  161.7010  209.7180  154.3160 C   0  0  2  0  0  3  0  0  0  0  0  0
  162.4340  209.5820  155.5090 O   0  0  0  0  0  0  0  0  0  0  0  0
  160.3690  210.4200  156.1770 N   0  0  0  0  0  2  0  0  0  0  0  0
  159.7230  209.2890  155.5360 C   0  0  0  0  0  2  0  0  0  0  0  0
  160.0550  208.0390  156.2770 C   0  0  0  0  0  3  0  0  0  0  0  0
  159.1910  207.0300  156.3010 C   0  0  0  0  0  2  0  0  0  0  0  0
  156.7410  214.3490  154.8680 C   0  0  0  0  0  2  0  0  0  0  0  0
  155.9450  212.7850  156.6310 C   0  0  0  0  0  2  0  0  0  0  0  0
  156.7140  211.5780  156.3870 N   0  0  0  0  0  2  0  0  0  0  0  0
  155.4620  212.0840  154.0820 S   0  0  0  0  0  0  0  0  0  0  0  0
  156.0230  210.8760  155.3190 C   0  0  0  0  0  2  0  0  0  0  0  0
  155.6150  213.4220  155.2950 C   0  0  2  0  0  3  0  0  0  0  0  0
  161.7230  208.7290  148.1250 C   0  0  0  0  0  1  0  0  0  0  0  0
  161.4960  208.8230  149.6250 C   0  0  1  0  0  3  0  0  0  0  0  0
  161.1000  207.4810  150.2310 C   0  0  0  0  0  2  0  0  0  0  0  0
  160.0040  205.3920  149.2220 C   0  0  2  0  0  3  0  0  0  0  0  0
  160.2550  206.4010  148.2690 O   0  0  0  0  0  0  0  0  0  0  0  0
  159.8830  206.8500  149.5500 C   0  0  2  0  0  3  0  0  0  0  0  0
  161.3190  204.7420  149.6660 C   0  0  2  0  0  3  0  0  0  0  0  0
  161.2930  202.9830  147.8120 N   0  0  0  0  0  0  0  0  0  0  0  0
  160.0170  202.2420  147.8820 C   0  0  1  0  0  3  0  0  0  0  0  0
  161.5100  202.2100  146.5740 C   0  0  1  0  0  3  0  0  0  0  0  0
  161.9860  203.9950  148.5500 C   0  0  0  0  0  0  0  0  0  0  0  0
  160.2210  201.4620  146.6260 C   0  0  0  0  0  2  0  0  0  0  0  0
  163.1720  204.2920  148.2430 O   0  0  0  0  0  0  0  0  0  0  0  0
  160.4880  204.7940  143.8380 C   0  0  0  0  0  2  0  0  0  0  0  0
  161.5900  203.1080  145.3300 C   0  0  1  0  0  3  0  0  0  0  0  0
  162.3810  205.5410  145.4180 C   0  0  0  0  0  2  0  0  0  0  0  0
  161.5110  205.8850  144.1960 C   0  0  1  0  0  3  0  0  0  0  0  0
  160.2660  203.8100  144.9800 C   0  0  0  0  0  2  0  0  0  0  0  0
  162.7910  204.0630  145.4260 C   0  0  0  0  0  2  0  0  0  0  0  0
  162.3520  206.1560  143.0400 N   0  0  0  0  0  2  0  0  0  0  0  0
  161.4610  206.4180  141.9200 C   0  0  0  0  0  2  0  0  0  0  0  0
  162.2170  206.3100  140.6060 C   0  0  0  0  0  2  0  0  0  0  0  0
  161.6520  207.1400  138.4020 O   0  0  0  0  0  1  0  0  0  0  0  0
  161.9500  208.7490  140.1730 C   0  0  0  0  0  3  0  0  0  0  0  0
  161.8620  207.4000  139.7130 N   0  0  0  0  0  0  0  0  0  0  0  0
  161.7970  209.7130  139.3750 O   0  0  0  0  0  0  0  0  0  0  0  0
  161.3430  200.5850  149.2000 C   0  0  0  0  0  1  0  0  0  0  0  0
  160.0110  201.3080  149.0880 C   0  0  0  0  0  2  0  0  0  0  0  0
  160.8830  204.6670  152.0140 O   0  0  0  0  0  1  0  0  0  0  0  0
  161.1060  203.8680  150.8910 C   0  0  0  0  0  2  0  0  0  0  0  0
  2  6  1  0  0  0  0
  2  7  2  0  0  0  0
  3  4  2  0  0  0  0
  3 11  1  0  0  0  0
  4  2  1  0  0  0  0
  5  8  1  0  0  0  0
  5 10  2  0  0  0  0
  6  5  1  0  0  0  0
  8 27  1  0  0  0  0
  9  7  1  0  0  0  0
  9 19  1  0  0  0  0
 11  1  1  6  0  0  0
 11  9  1  0  0  0  0
 12 17  1  6  0  0  0
 12 15  1  0  0  0  0
 13 14  1  0  0  0  0
 14 15  1  0  0  0  0
 15  3  1  1  0  0  0
 16 13  1  0  0  0  0
 16 12  1  0  0  0  0
 18 17  1  0  0  0  0
 20 22  1  0  0  0  0
 20 23  1  1  0  0  0
 21 19  1  6  0  0  0
 21 20  1  0  0  0  0
 21 22  1  0  0  0  0
 24 23  1  0  0  0  0
 24 25  1  0  0  0  0
 25 26  2  0  0  0  0
 29 28  1  0  0  0  0
 30 32  1  0  0  0  0
 30 31  1  0  0  0  0
 31 29  1  0  0  0  0
 32 27  1  6  0  0  0
 32 28  1  0  0  0  0
 34 33  1  6  0  0  0
 34 35  1  0  0  0  0
 34  1  1  0  0  0  0
 36 38  1  0  0  0  0
 36 39  1  1  0  0  0
 37 36  1  0  0  0  0
 37 38  1  0  0  0  0
 38 35  1  1  0  0  0
 39 62  1  1  0  0  0
 40 41  1  0  0  0  0
 40 43  1  0  0  0  0
 41 60  1  1  0  0  0
 42 44  1  6  0  0  0
 42 40  1  0  0  0  0
 43 39  1  0  0  0  0
 44 41  1  0  0  0  0
 45 43  2  0  0  0  0
 46 49  1  0  0  0  0
 46 50  1  0  0  0  0
 47 50  1  1  0  0  0
 47 51  1  0  0  0  0
 47 42  1  0  0  0  0
 48 51  1  0  0  0  0
 49 52  1  6  0  0  0
 49 48  1  0  0  0  0
 53 52  1  0  0  0  0
 54 53  1  0  0  0  0
 55 57  1  0  0  0  0
 57 56  1  0  0  0  0
 57 54  1  0  0  0  0
 58 56  2  0  0  0  0
 60 59  1  0  0  0  0
 62 61  1  0  0  0  0
M  END
>  <MODEL>
3

>  <REMARK>
 VINA RESULT:      -1.8      3.119      8.813
  Name = 
  22 active torsions:
  status: ('A' for Active; 'I' for Inactive)
    1  A    between atoms: C_2  and  N_50
    2  A    between atoms: C_4  and  N_5
    3  A    between atoms: C_7  and  C_16
    4  A    between atoms: C_8  and  C_10
    5  A    between atoms: C_9  and  C_55
    6  A    between atoms: C_10  and  N_50
    7  A    between atoms: C_13  and  C_25
    8  A    between atoms: C_13  and  N_40
    9  A    between atoms: C_15  and  C_44
   10  A    between atoms: C_15  and  C_56
   11  A    between atoms: C_17  and  N_31
   12  A    between atoms: C_17  and  C_52
   13  A    between atoms: C_18  and  C_39
   14  A    between atoms: C_20  and  C_42
   15  A    between atoms: C_23  and  C_56
   16  A    between atoms: C_23  and  C_59
   17  A    between atoms: C_30  and  C_55
   18  A    between atoms: N_37  and  C_58
   19  A    between atoms: C_46  and  N_48
   20  A    between atoms: C_47  and  C_58
   21  A    between atoms: N_48  and  C_52
   22  A    between atoms: C_51  and  C_55
                            x       y       z     vdW  Elec       q    Type
                         _______ _______ _______ _____ _____    ______ ____

>  <TORSDO>
F 22

$$$$
=
 OpenBabel11072414213D

 62 68  0  0  1  0  0  0  0  0999 V2000
  162.1550  209.4470  152.3780 C   0  0  0  0  0  2  0  0  0  0  0  0
  160.9270  205.5480  151.9490 C   0  0  0  0  0  0  0  0  0  0  0  0
  161.5530  207.3090  153.5280 C   0  0  0  0  0  0  0  0  0  0  0  0
  160.8920  206.1750  153.2720 C   0  0  0  0  0  3  0  0  0  0  0  0
  160.3170  203.4850  150.5810 C   0  0  0  0  0  0  0  0  0  0  0  0
  160.2300  204.3120  151.7500 N   0  0  0  0  0  2  0  0  0  0  0  0
  161.5860  206.1060  150.9830 N   0  0  0  0  0  0  0  0  0  0  0  0
  159.5440  202.2840  150.5190 N   0  0  0  0  0  2  0  0  0  0  0  0
  162.2930  207.3120  151.1520 N   0  0  0  0  0  0  0  0  0  0  0  0
  161.0870  203.7910  149.6270 O   0  0  0  0  0  0  0  0  0  0  0  0
  162.4260  207.9490  152.4710 C   0  0  1  0  0  3  0  0  0  0  0  0
  160.5320  208.9310  155.1620 C   0  0  1  0  0  3  0  0  0  0  0  0
  160.6750  207.4820  157.0640 O   0  0  0  0  0  0  0  0  0  0  0  0
  161.2370  206.8350  155.9510 C   0  0  0  0  0  2  0  0  0  0  0  0
  161.5730  207.8820  154.9210 C   0  0  1  0  0  3  0  0  0  0  0  0
  160.0910  208.6740  156.5900 C   0  0  0  0  0  2  0  0  0  0  0  0
  161.1120  210.2610  155.0350 N   0  0  0  0  0  2  0  0  0  0  0  0
  161.3440  210.7270  156.3370 N   0  0  0  0  0  1  0  0  0  0  0  0
  163.1540  207.7510  150.0630 C   0  0  0  0  0  2  0  0  0  0  0  0
  162.1030  207.9270  147.8540 C   0  0  2  0  0  3  0  0  0  0  0  0
  162.7920  207.0110  148.7870 C   0  0  2  0  0  3  0  0  0  0  0  0
  161.3930  207.0000  148.6390 O   0  0  0  0  0  0  0  0  0  0  0  0
  162.2090  207.4160  146.5000 N   0  0  0  0  0  2  0  0  0  0  0  0
  161.4750  206.1630  146.4720 C   0  0  0  0  0  2  0  0  0  0  0  0
  162.1310  205.2240  145.5170 C   0  0  0  0  0  3  0  0  0  0  0  0
  162.1740  205.5160  144.2220 C   0  0  0  0  0  2  0  0  0  0  0  0
  159.6050  201.3780  149.3810 C   0  0  0  0  0  2  0  0  0  0  0  0
  160.6350  202.1600  147.2560 C   0  0  0  0  0  2  0  0  0  0  0  0
  160.3630  201.0780  146.3270 N   0  0  0  0  0  2  0  0  0  0  0  0
  161.6730  199.9410  148.3590 S   0  0  0  0  0  0  0  0  0  0  0  0
  161.3920  200.0800  146.5690 C   0  0  0  0  0  2  0  0  0  0  0  0
  160.9100  201.5630  148.6230 C   0  0  2  0  0  3  0  0  0  0  0  0
  159.7720  210.0160  151.8690 C   0  0  0  0  0  1  0  0  0  0  0  0
  161.1350  209.6950  151.2790 C   0  0  1  0  0  3  0  0  0  0  0  0
  161.6040  210.7670  150.3010 C   0  0  0  0  0  2  0  0  0  0  0  0
  161.3970  211.5970  147.8820 C   0  0  2  0  0  3  0  0  0  0  0  0
  160.1530  211.2990  148.4740 O   0  0  0  0  0  0  0  0  0  0  0  0
  161.2220  210.4650  148.8500 C   0  0  2  0  0  3  0  0  0  0  0  0
  161.9810  212.8770  148.4910 C   0  0  2  0  0  3  0  0  0  0  0  0
  159.6120  213.8350  148.4740 N   0  0  0  0  0  0  0  0  0  0  0  0
  158.9150  213.3510  147.2660 C   0  0  1  0  0  3  0  0  0  0  0  0
  158.2950  214.3940  148.8370 C   0  0  1  0  0  3  0  0  0  0  0  0
  160.9180  213.7710  149.0560 C   0  0  0  0  0  0  0  0  0  0  0  0
  157.5760  213.9030  147.6270 C   0  0  0  0  0  2  0  0  0  0  0  0
  161.1810  214.4520  150.0830 O   0  0  0  0  0  0  0  0  0  0  0  0
  157.4890  213.8590  152.6140 C   0  0  0  0  0  2  0  0  0  0  0  0
  157.7280  213.7700  150.1210 C   0  0  1  0  0  3  0  0  0  0  0  0
  155.4740  214.4520  151.1230 C   0  0  0  0  0  2  0  0  0  0  0  0
  155.9700  214.0830  152.5320 C   0  0  1  0  0  3  0  0  0  0  0  0
  158.2260  214.4390  151.4140 C   0  0  0  0  0  2  0  0  0  0  0  0
  156.1970  213.6480  150.0360 C   0  0  0  0  0  2  0  0  0  0  0  0
  155.2800  212.8950  153.0130 N   0  0  0  0  0  2  0  0  0  0  0  0
  156.2380  212.1410  153.8070 C   0  0  0  0  0  2  0  0  0  0  0  0
  156.1590  212.5550  155.2670 C   0  0  0  0  0  2  0  0  0  0  0  0
  157.9630  211.6570  156.6110 O   0  0  0  0  0  1  0  0  0  0  0  0
  158.1810  213.9140  155.7880 C   0  0  0  0  0  3  0  0  0  0  0  0
  157.4860  212.6680  155.8470 N   0  0  0  0  0  0  0  0  0  0  0  0
  159.2620  214.0790  156.4150 O   0  0  0  0  0  0  0  0  0  0  0  0
  158.6770  213.6220  144.7940 C   0  0  0  0  0  1  0  0  0  0  0  0
  159.4570  214.0520  146.0250 C   0  0  0  0  0  2  0  0  0  0  0  0
  163.7550  212.7040  146.9000 O   0  0  0  0  0  1  0  0  0  0  0  0
  162.8630  213.6020  147.4870 C   0  0  0  0  0  2  0  0  0  0  0  0
  2  4  1  0  0  0  0
  4  3  2  0  0  0  0
  5  6  1  0  0  0  0
  6  2  1  0  0  0  0
  7  9  1  0  0  0  0
  7  2  2  0  0  0  0
  8  5  1  0  0  0  0
  9 11  1  0  0  0  0
 10  5  2  0  0  0  0
 11  1  1  6  0  0  0
 11  3  1  0  0  0  0
 12 17  1  1  0  0  0
 12 16  1  0  0  0  0
 14 13  1  0  0  0  0
 15  3  1  6  0  0  0
 15 12  1  0  0  0  0
 15 14  1  0  0  0  0
 16 13  1  0  0  0  0
 17 18  1  0  0  0  0
 19  9  1  0  0  0  0
 20 23  1  6  0  0  0
 20 22  1  0  0  0  0
 20 21  1  0  0  0  0
 21 19  1  1  0  0  0
 22 21  1  0  0  0  0
 24 23  1  0  0  0  0
 25 24  1  0  0  0  0
 26 25  2  0  0  0  0
 27  8  1  0  0  0  0
 28 32  1  0  0  0  0
 29 31  1  0  0  0  0
 29 28  1  0  0  0  0
 30 32  1  0  0  0  0
 31 30  1  0  0  0  0
 32 27  1  6  0  0  0
 34 33  1  1  0  0  0
 34  1  1  0  0  0  0
 35 34  1  0  0  0  0
 36 37  1  0  0  0  0
 36 39  1  1  0  0  0
 36 38  1  0  0  0  0
 37 38  1  0  0  0  0
 38 35  1  1  0  0  0
 39 62  1  6  0  0  0
 39 43  1  0  0  0  0
 40 42  1  0  0  0  0
 40 43  1  0  0  0  0
 41 60  1  6  0  0  0
 41 44  1  0  0  0  0
 41 40  1  0  0  0  0
 42 44  1  6  0  0  0
 42 47  1  0  0  0  0
 43 45  2  0  0  0  0
 47 51  1  6  0  0  0
 47 50  1  0  0  0  0
 48 49  1  0  0  0  0
 49 46  1  0  0  0  0
 49 52  1  6  0  0  0
 50 46  1  0  0  0  0
 51 48  1  0  0  0  0
 52 53  1  0  0  0  0
 53 54  1  0  0  0  0
 54 57  1  0  0  0  0
 56 57  1  0  0  0  0
 56 58  2  0  0  0  0
 57 55  1  0  0  0  0
 59 60  1  0  0  0  0
 61 62  1  0  0  0  0
M  END
>  <MODEL>
4

>  <REMARK>
 VINA RESULT:      -0.9      3.267      7.141
  Name = 
  22 active torsions:
  status: ('A' for Active; 'I' for Inactive)
    1  A    between atoms: C_2  and  N_50
    2  A    between atoms: C_4  and  N_5
    3  A    between atoms: C_7  and  C_16
    4  A    between atoms: C_8  and  C_10
    5  A    between atoms: C_9  and  C_55
    6  A    between atoms: C_10  and  N_50
    7  A    between atoms: C_13  and  C_25
    8  A    between atoms: C_13  and  N_40
    9  A    between atoms: C_15  and  C_44
   10  A    between atoms: C_15  and  C_56
   11  A    between atoms: C_17  and  N_31
   12  A    between atoms: C_17  and  C_52
   13  A    between atoms: C_18  and  C_39
   14  A    between atoms: C_20  and  C_42
   15  A    between atoms: C_23  and  C_56
   16  A    between atoms: C_23  and  C_59
   17  A    between atoms: C_30  and  C_55
   18  A    between atoms: N_37  and  C_58
   19  A    between atoms: C_46  and  N_48
   20  A    between atoms: C_47  and  C_58
   21  A    between atoms: N_48  and  C_52
   22  A    between atoms: C_51  and  C_55
                            x       y       z     vdW  Elec       q    Type
                         _______ _______ _______ _____ _____    ______ ____

>  <TORSDO>
F 22

$$$$
=
 OpenBabel11072414213D

 62 68  0  0  1  0  0  0  0  0999 V2000
  161.9530  203.7960  146.0460 C   0  0  0  0  0  2  0  0  0  0  0  0
  161.3540  204.3990  150.0670 C   0  0  0  0  0  0  0  0  0  0  0  0
  160.9320  202.9280  148.1580 C   0  0  0  0  0  0  0  0  0  0  0  0
  161.0500  203.0920  149.4800 C   0  0  0  0  0  3  0  0  0  0  0  0
  161.5290  205.7470  152.2240 C   0  0  0  0  0  0  0  0  0  0  0  0
  161.4280  204.5160  151.4920 N   0  0  0  0  0  2  0  0  0  0  0  0
  161.5410  205.4280  149.3010 N   0  0  0  0  0  0  0  0  0  0  0  0
  161.6160  205.7040  153.6500 N   0  0  0  0  0  2  0  0  0  0  0  0
  161.4590  205.3460  147.8980 N   0  0  0  0  0  0  0  0  0  0  0  0
  161.5140  206.8580  151.6250 O   0  0  0  0  0  0  0  0  0  0  0  0
  161.0340  204.1110  147.2200 C   0  0  1  0  0  3  0  0  0  0  0  0
  160.6260  201.5150  146.0950 C   0  0  1  0  0  3  0  0  0  0  0  0
  161.4570  199.4880  147.0650 O   0  0  0  0  0  0  0  0  0  0  0  0
  161.4650  200.4990  148.0390 C   0  0  0  0  0  2  0  0  0  0  0  0
  160.5310  201.5920  147.5880 C   0  0  1  0  0  3  0  0  0  0  0  0
  161.1180  200.1030  145.8420 C   0  0  0  0  0  2  0  0  0  0  0  0
  159.3170  201.7180  145.4920 N   0  0  0  0  0  2  0  0  0  0  0  0
  159.5400  202.2020  144.1950 N   0  0  0  0  0  1  0  0  0  0  0  0
  161.4940  206.5910  147.1440 C   0  0  0  0  0  2  0  0  0  0  0  0
  162.0070  208.9270  147.6920 C   0  0  2  0  0  3  0  0  0  0  0  0
  161.1790  207.7600  148.0620 C   0  0  2  0  0  3  0  0  0  0  0  0
  162.3340  208.1050  148.7870 O   0  0  0  0  0  0  0  0  0  0  0  0
  161.3870  210.1420  148.1840 N   0  0  0  0  0  2  0  0  0  0  0  0
  162.3830  210.8180  148.9950 C   0  0  0  0  0  2  0  0  0  0  0  0
  163.1190  211.8080  148.1580 C   0  0  0  0  0  3  0  0  0  0  0  0
  162.4640  212.8160  147.5920 C   0  0  0  0  0  2  0  0  0  0  0  0
  161.6880  206.9110  154.4610 C   0  0  0  0  0  2  0  0  0  0  0  0
  160.0370  208.7380  154.8160 C   0  0  0  0  0  2  0  0  0  0  0  0
  160.5760  209.4680  155.9490 N   0  0  0  0  0  2  0  0  0  0  0  0
  160.3110  206.9510  156.8030 S   0  0  0  0  0  0  0  0  0  0  0  0
  160.1570  208.7310  157.1300 C   0  0  0  0  0  2  0  0  0  0  0  0
  160.3180  207.2610  155.0180 C   0  0  2  0  0  3  0  0  0  0  0  0
  163.9770  205.2680  146.0550 C   0  0  0  0  0  1  0  0  0  0  0  0
  162.5610  205.0910  145.5340 C   0  0  1  0  0  3  0  0  0  0  0  0
  162.4920  205.1870  144.0130 C   0  0  0  0  0  2  0  0  0  0  0  0
  161.1340  206.2810  142.1310 C   0  0  2  0  0  3  0  0  0  0  0  0
  161.1930  207.0670  143.3000 O   0  0  0  0  0  0  0  0  0  0  0  0
  161.1340  205.6750  143.5030 C   0  0  2  0  0  3  0  0  0  0  0  0
  162.4960  206.2730  141.4270 C   0  0  2  0  0  3  0  0  0  0  0  0
  162.0760  208.4950  140.2350 N   0  0  0  0  0  0  0  0  0  0  0  0
  160.8040  208.4000  139.4910 C   0  0  1  0  0  3  0  0  0  0  0  0
  162.0430  209.9130  139.8280 C   0  0  1  0  0  3  0  0  0  0  0  0
  162.9270  207.6490  141.0150 C   0  0  0  0  0  0  0  0  0  0  0  0
  160.7550  209.8340  139.0830 C   0  0  0  0  0  2  0  0  0  0  0  0
  164.0520  208.0720  141.3960 O   0  0  0  0  0  0  0  0  0  0  0  0
  162.5430  213.0640  142.0710 C   0  0  0  0  0  2  0  0  0  0  0  0
  161.9410  210.8640  141.0300 C   0  0  1  0  0  3  0  0  0  0  0  0
  160.1420  212.6740  141.2250 C   0  0  0  0  0  2  0  0  0  0  0  0
  161.0810  213.5390  142.0830 C   0  0  1  0  0  3  0  0  0  0  0  0
  162.8350  212.1130  140.9170 C   0  0  0  0  0  2  0  0  0  0  0  0
  160.4710  211.1820  141.3490 C   0  0  0  0  0  2  0  0  0  0  0  0
  160.6020  213.5920  143.4560 N   0  0  0  0  0  2  0  0  0  0  0  0
  159.1990  213.2090  143.4300 C   0  0  0  0  0  2  0  0  0  0  0  0
  158.3800  214.1370  144.3110 C   0  0  0  0  0  2  0  0  0  0  0  0
  159.4290  213.4300  146.3770 O   0  0  0  0  0  1  0  0  0  0  0  0
  157.0470  213.1270  146.1570 C   0  0  0  0  0  3  0  0  0  0  0  0
  158.2930  213.6230  145.6680 N   0  0  0  0  0  0  0  0  0  0  0  0
  156.9810  212.5360  147.2690 O   0  0  0  0  0  0  0  0  0  0  0  0
  161.8250  208.2050  137.2190 C   0  0  0  0  0  1  0  0  0  0  0  0
  160.9720  207.5080  138.2660 C   0  0  0  0  0  2  0  0  0  0  0  0
  163.4030  205.7280  139.2850 O   0  0  0  0  0  1  0  0  0  0  0  0
  162.4960  205.3010  140.2570 C   0  0  0  0  0  2  0  0  0  0  0  0
  2  6  1  0  0  0  0
  3  4  2  0  0  0  0
  4  2  1  0  0  0  0
  5  8  1  0  0  0  0
  6  5  1  0  0  0  0
  7  2  2  0  0  0  0
  8 27  1  0  0  0  0
  9  7  1  0  0  0  0
 10  5  2  0  0  0  0
 11  1  1  6  0  0  0
 11  9  1  0  0  0  0
 11  3  1  0  0  0  0
 12 17  1  6  0  0  0
 12 15  1  0  0  0  0
 13 14  1  0  0  0  0
 15 14  1  0  0  0  0
 15  3  1  1  0  0  0
 16 12  1  0  0  0  0
 16 13  1  0  0  0  0
 18 17  1  0  0  0  0
 19  9  1  0  0  0  0
 20 21  1  0  0  0  0
 20 23  1  1  0  0  0
 20 22  1  0  0  0  0
 21 19  1  6  0  0  0
 21 22  1  0  0  0  0
 23 24  1  0  0  0  0
 25 24  1  0  0  0  0
 26 25  2  0  0  0  0
 28 32  1  0  0  0  0
 28 29  1  0  0  0  0
 29 31  1  0  0  0  0
 30 31  1  0  0  0  0
 32 27  1  1  0  0  0
 32 30  1  0  0  0  0
 34  1  1  0  0  0  0
 34 33  1  6  0  0  0
 35 34  1  0  0  0  0
 36 39  1  6  0  0  0
 36 37  1  0  0  0  0
 36 38  1  0  0  0  0
 37 38  1  0  0  0  0
 38 35  1  6  0  0  0
 39 62  1  6  0  0  0
 40 43  1  0  0  0  0
 41 60  1  6  0  0  0
 41 40  1  0  0  0  0
 42 44  1  6  0  0  0
 42 40  1  0  0  0  0
 42 47  1  0  0  0  0
 43 45  2  0  0  0  0
 43 39  1  0  0  0  0
 44 41  1  0  0  0  0
 46 49  1  0  0  0  0
 47 50  1  6  0  0  0
 47 51  1  0  0  0  0
 48 51  1  0  0  0  0
 48 49  1  0  0  0  0
 49 52  1  1  0  0  0
 50 46  1  0  0  0  0
 53 52  1  0  0  0  0
 53 54  1  0  0  0  0
 54 57  1  0  0  0  0
 56 58  2  0  0  0  0
 57 56  1  0  0  0  0
 57 55  1  0  0  0  0
 59 60  1  0  0  0  0
 61 62  1  0  0  0  0
M  END
>  <MODEL>
5

>  <REMARK>
 VINA RESULT:      -0.5      2.612      8.367
  Name = 
  22 active torsions:
  status: ('A' for Active; 'I' for Inactive)
    1  A    between atoms: C_2  and  N_50
    2  A    between atoms: C_4  and  N_5
    3  A    between atoms: C_7  and  C_16
    4  A    between atoms: C_8  and  C_10
    5  A    between atoms: C_9  and  C_55
    6  A    between atoms: C_10  and  N_50
    7  A    between atoms: C_13  and  C_25
    8  A    between atoms: C_13  and  N_40
    9  A    between atoms: C_15  and  C_44
   10  A    between atoms: C_15  and  C_56
   11  A    between atoms: C_17  and  N_31
   12  A    between atoms: C_17  and  C_52
   13  A    between atoms: C_18  and  C_39
   14  A    between atoms: C_20  and  C_42
   15  A    between atoms: C_23  and  C_56
   16  A    between atoms: C_23  and  C_59
   17  A    between atoms: C_30  and  C_55
   18  A    between atoms: N_37  and  C_58
   19  A    between atoms: C_46  and  N_48
   20  A    between atoms: C_47  and  C_58
   21  A    between atoms: N_48  and  C_52
   22  A    between atoms: C_51  and  C_55
                            x       y       z     vdW  Elec       q    Type
                         _______ _______ _______ _____ _____    ______ ____

>  <TORSDO>
F 22

$$$$
