=
 OpenBabel11072412323D

 56 62  0  0  1  0  0  0  0  0999 V2000
  160.6760  208.2090  150.1060 C   0  0  0  0  0  2  0  0  0  0  0  0
  160.6330  207.4710  145.4700 O   0  0  0  0  0  0  0  0  0  0  0  0
  160.7620  210.2940  155.1630 C   0  0  0  0  0  0  0  0  0  0  0  0
  161.6050  211.1580  151.7330 C   0  0  0  0  0  1  0  0  0  0  0  0
  161.9930  202.7120  145.3410 N   0  0  0  0  0  0  0  0  0  0  0  0
  160.3450  210.6550  156.5630 C   0  0  1  0  0  3  0  0  0  0  0  0
  158.9850  206.0130  152.5910 F   0  0  0  0  0  0  0  0  0  0  0  0
  161.7300  204.9120  150.4330 C   0  0  0  0  0  3  0  0  0  0  0  0
  159.2400  212.7180  155.1680 O   0  0  0  0  0  0  0  0  0  0  0  0
  161.6530  209.1450  154.7690 C   0  0  2  0  0  0  0  0  0  0  0  0
  161.5760  206.9020  153.5210 C   0  0  0  0  0  0  0  0  0  0  0  0
  160.5050  210.9880  154.0440 C   0  0  0  0  0  0  0  0  0  0  0  0
  159.0820  209.0430  152.3600 C   0  0  0  0  0  1  0  0  0  0  0  0
  159.0590  204.4080  150.8860 N   0  0  0  0  0  0  0  0  0  0  0  0
  161.8990  205.9260  154.3680 C   0  0  0  0  0  2  0  0  0  0  0  0
  161.7760  206.7900  152.0480 C   0  0  2  0  0  3  0  0  0  0  0  0
  162.4780  209.8390  153.7140 C   0  0  0  0  0  2  0  0  0  0  0  0
  160.7240  212.0850  156.9790 C   0  0  2  0  0  3  0  0  0  0  0  0
  161.2620  210.2860  152.9350 C   0  0  2  0  0  0  0  0  0  0  0  0
  160.2660  213.1830  156.0040 C   0  0  2  0  0  3  0  0  0  0  0  0
  161.0220  202.8300  147.4330 C   0  0  2  0  0  3  0  0  0  0  0  0
  158.9780  210.4470  156.7230 O   0  0  0  0  0  1  0  0  0  0  0  0
  161.0650  203.9620  149.6640 C   0  0  0  0  0  0  0  0  0  0  0  0
  160.5880  208.9210  152.6220 C   0  0  2  0  0  0  0  0  0  0  0  0
  161.3460  200.3170  147.9120 N   0  0  0  0  0  2  0  0  0  0  0  0
  161.7510  203.3310  148.5830 N   0  0  0  0  0  2  0  0  0  0  0  0
  161.6540  198.9750  147.5250 C   0  0  0  0  0  0  0  0  0  0  0  0
  161.3390  208.1590  151.4970 C   0  0  2  0  0  3  0  0  0  0  0  0
  159.6890  205.3490  151.6390 C   0  0  0  0  0  0  0  0  0  0  0  0
  161.1290  208.2340  147.6700 C   0  0  1  0  0  3  0  0  0  0  0  0
  161.0530  205.6230  151.4230 C   0  0  0  0  0  0  0  0  0  0  0  0
  160.9940  207.1520  146.6360 C   0  0  0  0  0  0  0  0  0  0  0  0
  159.7070  203.7260  149.9050 C   0  0  0  0  0  3  0  0  0  0  0  0
  162.0060  201.4260  145.8870 N   0  0  0  0  0  0  0  0  0  0  0  0
  159.8580  212.3590  153.9610 C   0  0  1  0  0  3  0  0  0  0  0  0
  161.2340  205.8090  146.9400 O   0  0  0  0  0  0  0  0  0  0  0  0
  161.4880  201.4640  147.0690 C   0  0  0  0  0  0  0  0  0  0  0  0
  161.4730  203.5280  146.1920 C   0  0  0  0  0  0  0  0  0  0  0  0
  161.3470  204.8910  145.9330 O   0  0  0  0  0  0  0  0  0  0  0  0
  161.5780  198.0350  148.4100 N   0  0  0  0  0  2  0  0  0  0  0  0
  162.1050  212.1700  157.1730 O   0  0  0  0  0  1  0  0  0  0  0  0
  160.8240  208.1330  153.9350 C   0  0  2  0  0  3  0  0  0  0  0  0
  161.6000  207.7060  149.0160 C   0  0  0  0  0  2  0  0  0  0  0  0
  159.7890  214.3440  156.7500 N   0  0  0  0  0  2  0  0  0  0  0  0
  157.6240  213.5190  157.1040 O   0  0  0  0  0  0  0  0  0  0  0  0
  158.4570  214.4530  157.2600 C   0  0  0  0  0  3  0  0  0  0  0  0
  158.8210  212.3810  152.8520 C   0  0  0  0  0  2  0  0  0  0  0  0
  159.0660  213.4560  151.9990 O   0  0  0  0  0  1  0  0  0  0  0  0
  162.0240  209.2070  147.2220 O   0  0  0  0  0  0  0  0  0  0  0  0
  162.2140  210.0670  148.3150 C   0  0  0  0  0  1  0  0  0  0  0  0
  161.0750  198.4140  145.1960 C   0  0  0  0  0  1  0  0  0  0  0  0
  162.0290  198.6820  146.2110 O   0  0  0  0  0  0  0  0  0  0  0  0
  162.4430  208.6000  155.8270 O   0  0  0  0  0  0  0  0  0  0  0  0
  161.9540  207.7100  156.7880 C   0  0  0  0  0  0  0  0  0  0  0  0
  162.6840  206.7910  157.2600 O   0  0  0  0  0  0  0  0  0  0  0  0
  160.6590  207.8660  157.2610 O   0  0  0  0  0  1  0  0  0  0  0  0
  2 32  2  0  0  0  0
  3  6  1  0  0  0  0
  5 34  1  0  0  0  0
  5 38  2  0  0  0  0
  6 22  1  6  0  0  0
  6 18  1  0  0  0  0
  8 31  1  0  0  0  0
  9 20  1  0  0  0  0
 10  3  1  0  0  0  0
 10 53  1  1  0  0  0
 11 15  2  0  0  0  0
 12  3  2  0  0  0  0
 14 29  1  0  0  0  0
 16 31  1  6  0  0  0
 16 11  1  0  0  0  0
 17 10  1  0  0  0  0
 18 41  1  6  0  0  0
 19  4  1  6  0  0  0
 19 17  1  0  0  0  0
 19 12  1  0  0  0  0
 20 44  1  1  0  0  0
 20 18  1  0  0  0  0
 21 38  1  6  0  0  0
 21 26  1  0  0  0  0
 23 33  1  0  0  0  0
 23  8  2  0  0  0  0
 24 13  1  6  0  0  0
 24 19  1  0  0  0  0
 24 42  1  0  0  0  0
 26 23  1  0  0  0  0
 27 25  1  0  0  0  0
 27 40  2  0  0  0  0
 28  1  1  6  0  0  0
 28 16  1  0  0  0  0
 28 24  1  0  0  0  0
 29  7  1  0  0  0  0
 30 49  1  6  0  0  0
 30 43  1  0  0  0  0
 31 29  2  0  0  0  0
 32 36  1  0  0  0  0
 32 30  1  0  0  0  0
 33 14  2  0  0  0  0
 34 37  2  0  0  0  0
 35 47  1  6  0  0  0
 35 12  1  0  0  0  0
 35  9  1  0  0  0  0
 37 21  1  0  0  0  0
 37 25  1  0  0  0  0
 39 38  1  0  0  0  0
 39 36  1  0  0  0  0
 42 11  1  6  0  0  0
 42 10  1  0  0  0  0
 43  1  1  0  0  0  0
 44 46  1  0  0  0  0
 45 46  2  0  0  0  0
 48 47  1  0  0  0  0
 49 50  1  0  0  0  0
 51 52  1  0  0  0  0
 52 27  1  0  0  0  0
 53 54  1  0  0  0  0
 54 55  2  0  0  0  0
 54 56  1  0  0  0  0
M  END
>  <MODEL>
1

>  <REMARK>
 VINA RESULT:      22.3      0.000      0.000
  Name = 
  6 active torsions:
  status: ('A' for Active; 'I' for Inactive)
    1  A    between atoms: C_10  and  O_37
    2  A    between atoms: C_15  and  C_45
    3  A    between atoms: C_16  and  O_37
    4  A    between atoms: N_19  and  C_25
    5  A    between atoms: C_33  and  O_50
    6  A    between atoms: O_38  and  C_39
                            x       y       z     vdW  Elec       q    Type
                         _______ _______ _______ _____ _____    ______ ____

>  <TORSDO>
F 6

$$$$
