=
 OpenBabel11072414343D

 36 40  0  0  1  0  0  0  0  0999 V2000
  161.6710  209.9530  150.7970 C   0  0  0  0  0  0  0  0  0  0  0  0
  161.4580  208.1170  152.3670 C   0  0  0  0  0  0  0  0  0  0  0  0
  160.2830  209.5070  155.5390 C   0  0  0  0  0  3  0  0  0  0  0  0
  160.1890  210.8280  155.2320 N   0  0  0  0  0  0  0  0  0  0  0  0
  160.6990  208.6140  154.6010 N   0  0  0  0  0  0  0  0  0  0  0  0
  161.0260  209.0240  153.3460 C   0  0  0  0  0  0  0  0  0  0  0  0
  162.3790  209.5570  148.5240 O   0  0  0  0  0  1  0  0  0  0  0  0
  160.9330  210.3880  153.0160 C   0  0  0  0  0  0  0  0  0  0  0  0
  161.7750  208.5860  151.0900 C   0  0  0  0  0  3  0  0  0  0  0  0
  161.9990  210.4370  149.4810 N   0  0  0  0  0  0  0  0  0  0  0  0
  160.5050  211.2840  153.9920 C   0  0  0  0  0  3  0  0  0  0  0  0
  161.2540  210.8160  151.7680 N   0  0  0  0  0  0  0  0  0  0  0  0
  160.5420  213.8560  145.1070 C   0  0  0  0  0  0  0  0  0  0  0  0
  159.7670  214.4530  144.3170 O   0  0  0  0  0  0  0  0  0  0  0  0
  160.8840  213.3040  147.5000 C   0  0  2  0  0  3  0  0  0  0  0  0
  161.9480  211.8530  149.1200 C   0  0  2  0  0  3  0  0  0  0  0  0
  160.0020  213.0860  146.2640 C   0  0  0  0  0  2  0  0  0  0  0  0
  161.9520  213.8910  144.9010 N   0  0  0  0  0  2  0  0  0  0  0  0
  162.8030  213.0920  145.7720 C   0  0  0  0  0  2  0  0  0  0  0  0
  162.4070  213.3010  147.2370 C   0  0  2  0  0  3  0  0  0  0  0  0
  160.6050  212.2260  148.5260 C   0  0  0  0  0  2  0  0  0  0  0  0
  163.0050  212.2030  148.0910 C   0  0  0  0  0  2  0  0  0  0  0  0
  161.5580  206.6560  152.6530 C   0  0  0  0  0  2  0  0  0  0  0  0
  161.9600  205.8990  151.3910 C   0  0  0  0  0  2  0  0  0  0  0  0
  160.7580  205.4570  150.5570 C   0  0  2  0  0  3  0  0  0  0  0  0
  161.4620  205.7150  148.2170 N   0  0  0  0  0  2  0  0  0  0  0  0
  160.7770  203.9740  150.2930 C   0  0  0  0  0  3  0  0  0  0  0  0
  160.9380  203.4690  149.0630 C   0  0  0  0  0  0  0  0  0  0  0  0
  160.9430  204.3920  147.8680 C   0  0  0  0  0  2  0  0  0  0  0  0
  160.6140  206.2740  149.2670 C   0  0  0  0  0  2  0  0  0  0  0  0
  160.1270  201.3770  145.1290 C   0  0  0  0  0  1  0  0  0  0  0  0
  160.9210  202.0050  148.8640 C   0  0  0  0  0  0  0  0  0  0  0  0
  161.5630  202.9510  146.1750 O   0  0  0  0  0  0  0  0  0  0  0  0
  161.2080  201.2450  149.8280 O   0  0  0  0  0  0  0  0  0  0  0  0
  160.7760  201.9790  146.3220 C   0  0  0  0  0  0  0  0  0  0  0  0
  160.5380  201.4120  147.6160 N   0  0  0  0  0  2  0  0  0  0  0  0
  1  9  2  0  0  0  0
  1 12  1  0  0  0  0
  2 23  1  0  0  0  0
  2  6  2  0  0  0  0
  4  3  1  0  0  0  0
  5  3  2  0  0  0  0
  6  5  1  0  0  0  0
  7 10  1  0  0  0  0
  8  6  1  0  0  0  0
  8 11  1  0  0  0  0
  9  2  1  0  0  0  0
 10  1  1  0  0  0  0
 11  4  2  0  0  0  0
 12  8  2  0  0  0  0
 13 17  1  0  0  0  0
 14 13  2  0  0  0  0
 15 17  1  6  0  0  0
 15 21  1  0  0  0  0
 16 10  1  6  0  0  0
 18 13  1  0  0  0  0
 18 19  1  0  0  0  0
 20 19  1  6  0  0  0
 20 15  1  0  0  0  0
 20 22  1  0  0  0  0
 21 16  1  0  0  0  0
 22 16  1  0  0  0  0
 24 23  1  0  0  0  0
 25 24  1  6  0  0  0
 26 30  1  0  0  0  0
 27 25  1  0  0  0  0
 28 27  2  0  0  0  0
 29 26  1  0  0  0  0
 29 28  1  0  0  0  0
 30 25  1  0  0  0  0
 31 35  1  0  0  0  0
 32 28  1  0  0  0  0
 32 34  2  0  0  0  0
 33 35  2  0  0  0  0
 35 36  1  0  0  0  0
 36 32  1  0  0  0  0
M  END
>  <MODEL>
1

>  <REMARK>
 VINA RESULT:      -9.9      0.000      0.000
  Name = 
  5 active torsions:
  status: ('A' for Active; 'I' for Inactive)
    1  A    between atoms: C_4  and  C_13
    2  A    between atoms: C_5  and  C_22
    3  A    between atoms: C_10  and  N_33
    4  A    between atoms: C_13  and  C_22
    5  A    between atoms: C_15  and  C_20
                            x       y       z     vdW  Elec       q    Type
                         _______ _______ _______ _____ _____    ______ ____

>  <TORSDO>
F 5

$$$$
=
 OpenBabel11072414343D

 36 40  0  0  1  0  0  0  0  0999 V2000
  161.4410  208.2740  152.1380 C   0  0  0  0  0  0  0  0  0  0  0  0
  161.7440  207.0520  150.0650 C   0  0  0  0  0  0  0  0  0  0  0  0
  161.2560  203.5020  150.7950 C   0  0  0  0  0  3  0  0  0  0  0  0
  160.9930  203.5380  152.1280 N   0  0  0  0  0  0  0  0  0  0  0  0
  161.5020  204.6540  150.1140 N   0  0  0  0  0  0  0  0  0  0  0  0
  161.4910  205.8550  150.7520 C   0  0  0  0  0  0  0  0  0  0  0  0
  161.6170  210.6810  152.1880 O   0  0  0  0  0  1  0  0  0  0  0  0
  161.2210  205.9060  152.1310 C   0  0  0  0  0  0  0  0  0  0  0  0
  161.7130  208.2620  150.7620 C   0  0  0  0  0  3  0  0  0  0  0  0
  161.4110  209.5220  152.8570 N   0  0  0  0  0  0  0  0  0  0  0  0
  160.9720  204.7150  152.8070 C   0  0  0  0  0  3  0  0  0  0  0  0
  161.2040  207.0960  152.7830 N   0  0  0  0  0  0  0  0  0  0  0  0
  157.8700  211.9930  156.6380 C   0  0  0  0  0  0  0  0  0  0  0  0
  156.7930  212.1780  157.2610 O   0  0  0  0  0  0  0  0  0  0  0  0
  159.4100  210.2210  155.8390 C   0  0  2  0  0  3  0  0  0  0  0  0
  161.1710  209.6010  154.2970 C   0  0  2  0  0  3  0  0  0  0  0  0
  158.0160  210.8430  155.6980 C   0  0  0  0  0  2  0  0  0  0  0  0
  158.9660  212.8870  156.8070 N   0  0  0  0  0  2  0  0  0  0  0  0
  160.1510  212.7000  155.9820 C   0  0  0  0  0  2  0  0  0  0  0  0
  160.5740  211.2280  155.9870 C   0  0  2  0  0  3  0  0  0  0  0  0
  159.7120  209.3600  154.6300 C   0  0  0  0  0  2  0  0  0  0  0  0
  161.5360  210.9670  154.8470 C   0  0  0  0  0  2  0  0  0  0  0  0
  162.0170  207.0630  148.5980 C   0  0  0  0  0  2  0  0  0  0  0  0
  160.7950  206.5690  147.8310 C   0  0  0  0  0  2  0  0  0  0  0  0
  161.0900  206.3010  146.3550 C   0  0  2  0  0  3  0  0  0  0  0  0
  163.0880  204.8690  146.3430 N   0  0  0  0  0  2  0  0  0  0  0  0
  160.3470  205.0940  145.8470 C   0  0  0  0  0  3  0  0  0  0  0  0
  160.9760  203.9770  145.4610 C   0  0  0  0  0  0  0  0  0  0  0  0
  162.4830  203.9580  145.3720 C   0  0  0  0  0  2  0  0  0  0  0  0
  162.5950  206.2180  146.0710 C   0  0  0  0  0  2  0  0  0  0  0  0
  161.4040  199.6830  146.8360 C   0  0  0  0  0  1  0  0  0  0  0  0
  160.1930  202.8350  144.9460 C   0  0  0  0  0  0  0  0  0  0  0  0
  160.9350  201.8790  147.6050 O   0  0  0  0  0  0  0  0  0  0  0  0
  159.2820  203.0400  144.0980 O   0  0  0  0  0  0  0  0  0  0  0  0
  160.9440  201.0800  146.6310 C   0  0  0  0  0  0  0  0  0  0  0  0
  160.4660  201.4840  145.3430 N   0  0  0  0  0  2  0  0  0  0  0  0
  1 12  1  0  0  0  0
  1 10  1  0  0  0  0
  2  6  2  0  0  0  0
  2  9  1  0  0  0  0
  3  4  1  0  0  0  0
  4 11  2  0  0  0  0
  5  6  1  0  0  0  0
  5  3  2  0  0  0  0
  6  8  1  0  0  0  0
  7 10  1  0  0  0  0
  8 12  2  0  0  0  0
  8 11  1  0  0  0  0
  9  1  2  0  0  0  0
 13 18  1  0  0  0  0
 13 14  2  0  0  0  0
 15 21  1  6  0  0  0
 15 20  1  0  0  0  0
 16 10  1  6  0  0  0
 16 21  1  0  0  0  0
 16 22  1  0  0  0  0
 17 15  1  0  0  0  0
 17 13  1  0  0  0  0
 19 20  1  0  0  0  0
 19 18  1  0  0  0  0
 20 22  1  6  0  0  0
 23  2  1  0  0  0  0
 24 23  1  0  0  0  0
 25 24  1  1  0  0  0
 27 25  1  0  0  0  0
 28 27  2  0  0  0  0
 29 28  1  0  0  0  0
 29 26  1  0  0  0  0
 30 26  1  0  0  0  0
 30 25  1  0  0  0  0
 32 36  1  0  0  0  0
 32 28  1  0  0  0  0
 34 32  2  0  0  0  0
 35 31  1  0  0  0  0
 35 33  2  0  0  0  0
 36 35  1  0  0  0  0
M  END
>  <MODEL>
2

>  <REMARK>
 VINA RESULT:      -9.9      3.883      6.376
  Name = 
  5 active torsions:
  status: ('A' for Active; 'I' for Inactive)
    1  A    between atoms: C_4  and  C_13
    2  A    between atoms: C_5  and  C_22
    3  A    between atoms: C_10  and  N_33
    4  A    between atoms: C_13  and  C_22
    5  A    between atoms: C_15  and  C_20
                            x       y       z     vdW  Elec       q    Type
                         _______ _______ _______ _____ _____    ______ ____

>  <TORSDO>
F 5

$$$$
=
 OpenBabel11072414343D

 36 40  0  0  1  0  0  0  0  0999 V2000
  161.2360  207.7850  152.7170 C   0  0  0  0  0  0  0  0  0  0  0  0
  161.3360  207.1130  150.3890 C   0  0  0  0  0  0  0  0  0  0  0  0
  162.0640  210.1000  148.4090 C   0  0  0  0  0  3  0  0  0  0  0  0
  162.1400  211.0500  149.3770 N   0  0  0  0  0  0  0  0  0  0  0  0
  161.8010  208.8060  148.7360 N   0  0  0  0  0  0  0  0  0  0  0  0
  161.6090  208.4420  150.0330 C   0  0  0  0  0  0  0  0  0  0  0  0
  160.8220  206.1600  154.4530 O   0  0  0  0  0  1  0  0  0  0  0  0
  161.6840  209.4160  151.0450 C   0  0  0  0  0  0  0  0  0  0  0  0
  161.1540  206.7870  151.7350 C   0  0  0  0  0  3  0  0  0  0  0  0
  161.0480  207.4490  154.1050 N   0  0  0  0  0  0  0  0  0  0  0  0
  161.9550  210.7330  150.6860 C   0  0  0  0  0  3  0  0  0  0  0  0
  161.4980  209.0710  152.3450 N   0  0  0  0  0  0  0  0  0  0  0  0
  158.3240  212.1920  155.8430 C   0  0  0  0  0  0  0  0  0  0  0  0
  157.3860  212.8700  156.3370 O   0  0  0  0  0  0  0  0  0  0  0  0
  159.6540  210.1250  156.1740 C   0  0  2  0  0  3  0  0  0  0  0  0
  161.0830  208.4460  155.1740 C   0  0  2  0  0  3  0  0  0  0  0  0
  158.2700  210.7020  155.8510 C   0  0  0  0  0  2  0  0  0  0  0  0
  159.4490  212.8370  155.2540 N   0  0  0  0  0  2  0  0  0  0  0  0
  160.4560  212.0160  154.5940 C   0  0  0  0  0  2  0  0  0  0  0  0
  160.8440  210.8330  155.4870 C   0  0  2  0  0  3  0  0  0  0  0  0
  159.7080  208.6660  155.7720 C   0  0  0  0  0  2  0  0  0  0  0  0
  161.5700  209.7890  154.6660 C   0  0  0  0  0  2  0  0  0  0  0  0
  161.2620  206.0340  149.3610 C   0  0  0  0  0  2  0  0  0  0  0  0
  160.5980  204.7930  149.9480 C   0  0  0  0  0  2  0  0  0  0  0  0
  161.3760  203.5100  149.6540 C   0  0  2  0  0  3  0  0  0  0  0  0
  159.7370  201.6920  149.8770 N   0  0  0  0  0  2  0  0  0  0  0  0
  161.3830  203.1850  148.1830 C   0  0  0  0  0  3  0  0  0  0  0  0
  160.7690  202.1040  147.6860 C   0  0  0  0  0  0  0  0  0  0  0  0
  160.1800  201.0790  148.6250 C   0  0  0  0  0  2  0  0  0  0  0  0
  160.8920  202.3300  150.5060 C   0  0  0  0  0  2  0  0  0  0  0  0
  161.2060  205.2320  144.4410 C   0  0  0  0  0  1  0  0  0  0  0  0
  160.8340  201.8250  146.2370 C   0  0  0  0  0  0  0  0  0  0  0  0
  162.2390  204.3810  146.4010 O   0  0  0  0  0  0  0  0  0  0  0  0
  160.8310  200.6300  145.8350 O   0  0  0  0  0  0  0  0  0  0  0  0
  161.4580  204.1600  145.4380 C   0  0  0  0  0  0  0  0  0  0  0  0
  160.8520  202.8750  145.2610 N   0  0  0  0  0  2  0  0  0  0  0  0
  1 10  1  0  0  0  0
  2  9  1  0  0  0  0
  3  5  2  0  0  0  0
  3  4  1  0  0  0  0
  4 11  2  0  0  0  0
  5  6  1  0  0  0  0
  6  2  2  0  0  0  0
  6  8  1  0  0  0  0
  8 12  2  0  0  0  0
  9  1  2  0  0  0  0
 10  7  1  0  0  0  0
 11  8  1  0  0  0  0
 12  1  1  0  0  0  0
 13 17  1  0  0  0  0
 13 14  2  0  0  0  0
 15 21  1  6  0  0  0
 16 10  1  6  0  0  0
 16 21  1  0  0  0  0
 17 15  1  0  0  0  0
 18 13  1  0  0  0  0
 19 18  1  0  0  0  0
 20 19  1  6  0  0  0
 20 15  1  0  0  0  0
 22 16  1  0  0  0  0
 22 20  1  0  0  0  0
 23 24  1  0  0  0  0
 23  2  1  0  0  0  0
 25 24  1  6  0  0  0
 25 30  1  0  0  0  0
 26 30  1  0  0  0  0
 27 25  1  0  0  0  0
 28 27  2  0  0  0  0
 28 29  1  0  0  0  0
 29 26  1  0  0  0  0
 31 35  1  0  0  0  0
 32 28  1  0  0  0  0
 34 32  2  0  0  0  0
 35 33  2  0  0  0  0
 36 35  1  0  0  0  0
 36 32  1  0  0  0  0
M  END
>  <MODEL>
3

>  <REMARK>
 VINA RESULT:      -9.7      3.059      6.016
  Name = 
  5 active torsions:
  status: ('A' for Active; 'I' for Inactive)
    1  A    between atoms: C_4  and  C_13
    2  A    between atoms: C_5  and  C_22
    3  A    between atoms: C_10  and  N_33
    4  A    between atoms: C_13  and  C_22
    5  A    between atoms: C_15  and  C_20
                            x       y       z     vdW  Elec       q    Type
                         _______ _______ _______ _____ _____    ______ ____

>  <TORSDO>
F 5

$$$$
=
 OpenBabel11072414343D

 36 40  0  0  1  0  0  0  0  0999 V2000
  161.2430  211.6010  150.1190 C   0  0  0  0  0  0  0  0  0  0  0  0
  161.0700  210.3740  152.2040 C   0  0  0  0  0  0  0  0  0  0  0  0
  158.9480  212.3200  154.4580 C   0  0  0  0  0  3  0  0  0  0  0  0
  158.6510  213.3960  153.6820 N   0  0  0  0  0  0  0  0  0  0  0  0
  159.7410  211.3250  153.9760 N   0  0  0  0  0  0  0  0  0  0  0  0
  160.2490  211.3900  152.7160 C   0  0  0  0  0  0  0  0  0  0  0  0
  162.5110  210.7140  148.2670 O   0  0  0  0  0  1  0  0  0  0  0  0
  159.9510  212.4980  151.9030 C   0  0  0  0  0  0  0  0  0  0  0  0
  161.5610  210.4810  150.9010 C   0  0  0  0  0  3  0  0  0  0  0  0
  161.7510  211.7130  148.7760 N   0  0  0  0  0  0  0  0  0  0  0  0
  159.1370  213.5030  152.4170 C   0  0  0  0  0  3  0  0  0  0  0  0
  160.4470  212.5780  150.6420 N   0  0  0  0  0  0  0  0  0  0  0  0
  161.0460  213.0820  143.2470 C   0  0  0  0  0  0  0  0  0  0  0  0
  160.4550  213.1410  142.1390 O   0  0  0  0  0  0  0  0  0  0  0  0
  160.7040  213.3690  145.6860 C   0  0  2  0  0  3  0  0  0  0  0  0
  161.4880  212.8700  147.9220 C   0  0  2  0  0  3  0  0  0  0  0  0
  160.3540  212.5330  144.4490 C   0  0  0  0  0  2  0  0  0  0  0  0
  162.3940  213.5250  143.3720 N   0  0  0  0  0  2  0  0  0  0  0  0
  163.0760  213.3340  144.6450 C   0  0  0  0  0  2  0  0  0  0  0  0
  162.1840  213.8000  145.7990 C   0  0  2  0  0  3  0  0  0  0  0  0
  160.3660  212.5920  146.9420 C   0  0  0  0  0  2  0  0  0  0  0  0
  162.7090  213.2490  147.1080 C   0  0  0  0  0  2  0  0  0  0  0  0
  161.4050  209.1650  153.0120 C   0  0  0  0  0  2  0  0  0  0  0  0
  160.8330  207.9150  152.3530 C   0  0  0  0  0  2  0  0  0  0  0  0
  161.9170  206.9700  151.8350 C   0  0  2  0  0  3  0  0  0  0  0  0
  161.2070  204.7230  152.5340 N   0  0  0  0  0  2  0  0  0  0  0  0
  161.6320  206.5100  150.4290 C   0  0  0  0  0  3  0  0  0  0  0  0
  161.3530  205.2340  150.1360 C   0  0  0  0  0  0  0  0  0  0  0  0
  161.4760  204.1750  151.2050 C   0  0  0  0  0  2  0  0  0  0  0  0
  162.1670  205.7950  152.7890 C   0  0  0  0  0  2  0  0  0  0  0  0
  161.2020  200.9740  148.6050 C   0  0  0  0  0  1  0  0  0  0  0  0
  161.1080  204.8400  148.7330 C   0  0  0  0  0  0  0  0  0  0  0  0
  160.2110  202.4600  150.1690 O   0  0  0  0  0  0  0  0  0  0  0  0
  160.8590  205.7300  147.8740 O   0  0  0  0  0  0  0  0  0  0  0  0
  160.8490  202.3330  149.0910 C   0  0  0  0  0  0  0  0  0  0  0  0
  161.1940  203.4760  148.3000 N   0  0  0  0  0  2  0  0  0  0  0  0
  1 12  2  0  0  0  0
  1  9  1  0  0  0  0
  2  6  1  0  0  0  0
  2 23  1  0  0  0  0
  4  3  2  0  0  0  0
  5  3  1  0  0  0  0
  6  5  2  0  0  0  0
  7 10  1  0  0  0  0
  8 11  2  0  0  0  0
  8  6  1  0  0  0  0
  9  2  2  0  0  0  0
 10  1  1  0  0  0  0
 11  4  1  0  0  0  0
 12  8  1  0  0  0  0
 13 18  1  0  0  0  0
 13 17  1  0  0  0  0
 14 13  2  0  0  0  0
 15 17  1  6  0  0  0
 15 20  1  0  0  0  0
 15 21  1  0  0  0  0
 16 10  1  6  0  0  0
 18 19  1  0  0  0  0
 20 19  1  6  0  0  0
 20 22  1  0  0  0  0
 21 16  1  0  0  0  0
 22 16  1  0  0  0  0
 24 23  1  0  0  0  0
 25 24  1  1  0  0  0
 25 30  1  0  0  0  0
 26 30  1  0  0  0  0
 27 25  1  0  0  0  0
 28 27  2  0  0  0  0
 28 29  1  0  0  0  0
 29 26  1  0  0  0  0
 31 35  1  0  0  0  0
 32 28  1  0  0  0  0
 34 32  2  0  0  0  0
 35 33  2  0  0  0  0
 36 32  1  0  0  0  0
 36 35  1  0  0  0  0
M  END
>  <MODEL>
4

>  <REMARK>
 VINA RESULT:      -9.3      1.770      2.682
  Name = 
  5 active torsions:
  status: ('A' for Active; 'I' for Inactive)
    1  A    between atoms: C_4  and  C_13
    2  A    between atoms: C_5  and  C_22
    3  A    between atoms: C_10  and  N_33
    4  A    between atoms: C_13  and  C_22
    5  A    between atoms: C_15  and  C_20
                            x       y       z     vdW  Elec       q    Type
                         _______ _______ _______ _____ _____    ______ ____

>  <TORSDO>
F 5

$$$$
=
 OpenBabel11072414343D

 36 40  0  0  1  0  0  0  0  0999 V2000
  161.6420  208.7820  150.5940 C   0  0  0  0  0  0  0  0  0  0  0  0
  161.2900  206.7400  151.8530 C   0  0  0  0  0  0  0  0  0  0  0  0
  160.4690  207.6880  155.2870 C   0  0  0  0  0  3  0  0  0  0  0  0
  160.5220  209.0440  155.2100 N   0  0  0  0  0  0  0  0  0  0  0  0
  160.7200  206.9270  154.1880 N   0  0  0  0  0  0  0  0  0  0  0  0
  161.0270  207.5080  152.9960 C   0  0  0  0  0  0  0  0  0  0  0  0
  162.1720  208.7060  148.2400 O   0  0  0  0  0  1  0  0  0  0  0  0
  161.0850  208.9100  152.9020 C   0  0  0  0  0  0  0  0  0  0  0  0
  161.5930  207.3820  150.6500 C   0  0  0  0  0  3  0  0  0  0  0  0
  161.9560  209.4450  149.3540 N   0  0  0  0  0  0  0  0  0  0  0  0
  160.8240  209.6680  154.0410 C   0  0  0  0  0  3  0  0  0  0  0  0
  161.3880  209.5070  151.7210 N   0  0  0  0  0  0  0  0  0  0  0  0
  161.1360  213.6600  145.5450 C   0  0  0  0  0  0  0  0  0  0  0  0
  160.4770  214.4530  144.8250 O   0  0  0  0  0  0  0  0  0  0  0  0
  161.2530  212.6940  147.8260 C   0  0  2  0  0  3  0  0  0  0  0  0
  162.0600  210.8990  149.2350 C   0  0  2  0  0  3  0  0  0  0  0  0
  160.4460  212.7710  146.5240 C   0  0  0  0  0  2  0  0  0  0  0  0
  162.5540  213.5840  145.4270 N   0  0  0  0  0  2  0  0  0  0  0  0
  163.2640  212.5730  146.1970 C   0  0  0  0  0  2  0  0  0  0  0  0
  162.7840  212.5790  147.6520 C   0  0  2  0  0  3  0  0  0  0  0  0
  160.8020  211.4980  148.6380 C   0  0  0  0  0  2  0  0  0  0  0  0
  163.2160  211.3020  148.3410 C   0  0  0  0  0  2  0  0  0  0  0  0
  161.2250  205.2490  151.8860 C   0  0  0  0  0  2  0  0  0  0  0  0
  160.6960  204.7150  150.5600 C   0  0  0  0  0  2  0  0  0  0  0  0
  161.5510  203.5800  149.9950 C   0  0  2  0  0  3  0  0  0  0  0  0
  160.0920  201.6020  150.0080 N   0  0  0  0  0  2  0  0  0  0  0  0
  161.4630  203.5090  148.4940 C   0  0  0  0  0  3  0  0  0  0  0  0
  160.9020  202.4720  147.8580 C   0  0  0  0  0  0  0  0  0  0  0  0
  160.4800  201.2530  148.6410 C   0  0  0  0  0  2  0  0  0  0  0  0
  161.2380  202.2330  150.6590 C   0  0  0  0  0  2  0  0  0  0  0  0
  162.3150  205.8220  145.1580 C   0  0  0  0  0  1  0  0  0  0  0  0
  160.8710  202.4470  146.3810 C   0  0  0  0  0  0  0  0  0  0  0  0
  163.0240  204.3560  146.8850 O   0  0  0  0  0  0  0  0  0  0  0  0
  160.4810  201.4060  145.7870 O   0  0  0  0  0  0  0  0  0  0  0  0
  162.2110  204.5670  145.9460 C   0  0  0  0  0  0  0  0  0  0  0  0
  161.2240  203.5930  145.5940 N   0  0  0  0  0  2  0  0  0  0  0  0
  1  9  2  0  0  0  0
  1 12  1  0  0  0  0
  2 23  1  0  0  0  0
  2  6  2  0  0  0  0
  4  3  1  0  0  0  0
  5  3  2  0  0  0  0
  6  5  1  0  0  0  0
  7 10  1  0  0  0  0
  8  6  1  0  0  0  0
  8 11  1  0  0  0  0
  9  2  1  0  0  0  0
 10  1  1  0  0  0  0
 11  4  2  0  0  0  0
 12  8  2  0  0  0  0
 13 17  1  0  0  0  0
 14 13  2  0  0  0  0
 15 17  1  6  0  0  0
 15 21  1  0  0  0  0
 16 10  1  6  0  0  0
 18 13  1  0  0  0  0
 18 19  1  0  0  0  0
 20 19  1  6  0  0  0
 20 15  1  0  0  0  0
 20 22  1  0  0  0  0
 21 16  1  0  0  0  0
 22 16  1  0  0  0  0
 24 23  1  0  0  0  0
 25 24  1  1  0  0  0
 25 30  1  0  0  0  0
 26 30  1  0  0  0  0
 27 25  1  0  0  0  0
 28 27  2  0  0  0  0
 28 29  1  0  0  0  0
 29 26  1  0  0  0  0
 31 35  1  0  0  0  0
 32 28  1  0  0  0  0
 34 32  2  0  0  0  0
 35 33  2  0  0  0  0
 36 35  1  0  0  0  0
 36 32  1  0  0  0  0
M  END
>  <MODEL>
5

>  <REMARK>
 VINA RESULT:      -9.3      1.445      2.186
  Name = 
  5 active torsions:
  status: ('A' for Active; 'I' for Inactive)
    1  A    between atoms: C_4  and  C_13
    2  A    between atoms: C_5  and  C_22
    3  A    between atoms: C_10  and  N_33
    4  A    between atoms: C_13  and  C_22
    5  A    between atoms: C_15  and  C_20
                            x       y       z     vdW  Elec       q    Type
                         _______ _______ _______ _____ _____    ______ ____

>  <TORSDO>
F 5

$$$$
=
 OpenBabel11072414343D

 36 40  0  0  1  0  0  0  0  0999 V2000
  161.3070  207.0890  152.1430 C   0  0  0  0  0  0  0  0  0  0  0  0
  161.7500  207.1070  149.7590 C   0  0  0  0  0  0  0  0  0  0  0  0
  162.1660  210.5950  148.7410 C   0  0  0  0  0  3  0  0  0  0  0  0
  161.9840  211.2410  149.9220 N   0  0  0  0  0  0  0  0  0  0  0  0
  162.0910  209.2380  148.6820 N   0  0  0  0  0  0  0  0  0  0  0  0
  161.8330  208.5070  149.8010 C   0  0  0  0  0  0  0  0  0  0  0  0
  160.9960  205.0070  153.3240 O   0  0  0  0  0  1  0  0  0  0  0  0
  161.6420  209.1630  151.0300 C   0  0  0  0  0  0  0  0  0  0  0  0
  161.4920  206.4000  150.9360 C   0  0  0  0  0  3  0  0  0  0  0  0
  161.0380  206.3600  153.3560 N   0  0  0  0  0  0  0  0  0  0  0  0
  161.7240  210.5530  151.0650 C   0  0  0  0  0  3  0  0  0  0  0  0
  161.3870  208.4500  152.1560 N   0  0  0  0  0  0  0  0  0  0  0  0
  160.2480  211.5890  155.5870 C   0  0  0  0  0  0  0  0  0  0  0  0
  159.6320  212.6560  155.8370 O   0  0  0  0  0  0  0  0  0  0  0  0
  159.9780  209.1250  155.5050 C   0  0  2  0  0  3  0  0  0  0  0  0
  160.7980  207.0170  154.6400 C   0  0  2  0  0  3  0  0  0  0  0  0
  159.5660  210.4650  154.8820 C   0  0  0  0  0  2  0  0  0  0  0  0
  161.6150  211.4390  155.9590 N   0  0  0  0  0  2  0  0  0  0  0  0
  162.3200  210.2320  155.5500 C   0  0  0  0  0  2  0  0  0  0  0  0
  161.4760  208.9930  155.8620 C   0  0  2  0  0  3  0  0  0  0  0  0
  159.6420  207.9940  154.5550 C   0  0  0  0  0  2  0  0  0  0  0  0
  162.0130  207.8010  155.0980 C   0  0  0  0  0  2  0  0  0  0  0  0
  161.9630  206.3550  148.4880 C   0  0  0  0  0  2  0  0  0  0  0  0
  160.8440  206.6650  147.4990 C   0  0  0  0  0  2  0  0  0  0  0  0
  161.0040  205.9230  146.1720 C   0  0  2  0  0  3  0  0  0  0  0  0
  163.2780  204.9930  146.2190 N   0  0  0  0  0  2  0  0  0  0  0  0
  160.5290  204.4970  146.2700 C   0  0  0  0  0  3  0  0  0  0  0  0
  161.3640  203.4560  146.1570 C   0  0  0  0  0  0  0  0  0  0  0  0
  162.8020  203.6870  145.7620 C   0  0  0  0  0  2  0  0  0  0  0  0
  162.4310  206.0220  145.6200 C   0  0  0  0  0  2  0  0  0  0  0  0
  161.1480  200.9470  149.9210 C   0  0  0  0  0  1  0  0  0  0  0  0
  160.8330  202.0790  146.2350 C   0  0  0  0  0  0  0  0  0  0  0  0
  160.4440  203.0070  148.9770 O   0  0  0  0  0  0  0  0  0  0  0  0
  160.3370  201.5470  145.2050 O   0  0  0  0  0  0  0  0  0  0  0  0
  160.8270  201.8260  148.7680 C   0  0  0  0  0  0  0  0  0  0  0  0
  160.9070  201.3020  147.4380 N   0  0  0  0  0  2  0  0  0  0  0  0
  1 12  1  0  0  0  0
  1 10  1  0  0  0  0
  2  6  2  0  0  0  0
  2  9  1  0  0  0  0
  3  4  1  0  0  0  0
  4 11  2  0  0  0  0
  5  3  2  0  0  0  0
  5  6  1  0  0  0  0
  6  8  1  0  0  0  0
  7 10  1  0  0  0  0
  8 11  1  0  0  0  0
  8 12  2  0  0  0  0
  9  1  2  0  0  0  0
 13 14  2  0  0  0  0
 13 18  1  0  0  0  0
 15 21  1  6  0  0  0
 15 20  1  0  0  0  0
 16 10  1  6  0  0  0
 16 22  1  0  0  0  0
 17 15  1  0  0  0  0
 17 13  1  0  0  0  0
 19 20  1  0  0  0  0
 19 18  1  0  0  0  0
 20 22  1  6  0  0  0
 21 16  1  0  0  0  0
 23  2  1  0  0  0  0
 24 23  1  0  0  0  0
 25 27  1  0  0  0  0
 25 24  1  1  0  0  0
 28 32  1  0  0  0  0
 28 27  2  0  0  0  0
 29 28  1  0  0  0  0
 29 26  1  0  0  0  0
 30 25  1  0  0  0  0
 30 26  1  0  0  0  0
 32 36  1  0  0  0  0
 34 32  2  0  0  0  0
 35 33  2  0  0  0  0
 35 31  1  0  0  0  0
 36 35  1  0  0  0  0
M  END
>  <MODEL>
6

>  <REMARK>
 VINA RESULT:      -9.1      3.196      6.143
  Name = 
  5 active torsions:
  status: ('A' for Active; 'I' for Inactive)
    1  A    between atoms: C_4  and  C_13
    2  A    between atoms: C_5  and  C_22
    3  A    between atoms: C_10  and  N_33
    4  A    between atoms: C_13  and  C_22
    5  A    between atoms: C_15  and  C_20
                            x       y       z     vdW  Elec       q    Type
                         _______ _______ _______ _____ _____    ______ ____

>  <TORSDO>
F 5

$$$$
=
 OpenBabel11072414343D

 36 40  0  0  1  0  0  0  0  0999 V2000
  161.4720  210.0070  150.9000 C   0  0  0  0  0  0  0  0  0  0  0  0
  161.0810  208.2430  152.5160 C   0  0  0  0  0  0  0  0  0  0  0  0
  160.0700  209.8240  155.6540 C   0  0  0  0  0  3  0  0  0  0  0  0
  160.1090  211.1400  155.3150 N   0  0  0  0  0  0  0  0  0  0  0  0
  160.3880  208.8700  154.7390 N   0  0  0  0  0  0  0  0  0  0  0  0
  160.7490  209.2130  153.4730 C   0  0  0  0  0  0  0  0  0  0  0  0
  162.1240  209.4840  148.6350 O   0  0  0  0  0  1  0  0  0  0  0  0
  160.7930  210.5710  153.1080 C   0  0  0  0  0  0  0  0  0  0  0  0
  161.4380  208.6450  151.2270 C   0  0  0  0  0  3  0  0  0  0  0  0
  161.8410  210.4220  149.5700 N   0  0  0  0  0  0  0  0  0  0  0  0
  160.4640  211.5300  154.0620 C   0  0  0  0  0  3  0  0  0  0  0  0
  161.1490  210.9320  151.8490 N   0  0  0  0  0  0  0  0  0  0  0  0
  160.9990  213.8150  145.0180 C   0  0  0  0  0  0  0  0  0  0  0  0
  160.3360  214.4480  144.1570 O   0  0  0  0  0  0  0  0  0  0  0  0
  161.1140  213.3090  147.4430 C   0  0  2  0  0  3  0  0  0  0  0  0
  161.9320  211.8270  149.1740 C   0  0  2  0  0  3  0  0  0  0  0  0
  160.3130  213.1240  146.1480 C   0  0  0  0  0  2  0  0  0  0  0  0
  162.4180  213.7320  144.9210 N   0  0  0  0  0  2  0  0  0  0  0  0
  163.1340  212.8950  145.8740 C   0  0  0  0  0  2  0  0  0  0  0  0
  162.6480  213.1770  147.2980 C   0  0  2  0  0  3  0  0  0  0  0  0
  160.6720  212.2870  148.4690 C   0  0  0  0  0  2  0  0  0  0  0  0
  163.0880  212.0610  148.2220 C   0  0  0  0  0  2  0  0  0  0  0  0
  161.0340  206.7860  152.8390 C   0  0  0  0  0  2  0  0  0  0  0  0
  162.4330  206.1840  152.7620 C   0  0  0  0  0  2  0  0  0  0  0  0
  162.5740  205.1570  151.6390 C   0  0  2  0  0  3  0  0  0  0  0  0
  160.4520  203.9170  151.6230 N   0  0  0  0  0  2  0  0  0  0  0  0
  162.1380  205.7180  150.3110 C   0  0  0  0  0  3  0  0  0  0  0  0
  161.0640  205.2570  149.6580 C   0  0  0  0  0  0  0  0  0  0  0  0
  160.3440  204.0330  150.1690 C   0  0  0  0  0  2  0  0  0  0  0  0
  161.8700  203.8350  151.9690 C   0  0  0  0  0  2  0  0  0  0  0  0
  163.1430  204.3350  145.7410 C   0  0  0  0  0  1  0  0  0  0  0  0
  160.7030  205.8310  148.3450 C   0  0  0  0  0  0  0  0  0  0  0  0
  161.9850  203.3290  147.5520 O   0  0  0  0  0  0  0  0  0  0  0  0
  159.7050  206.5970  148.2570 O   0  0  0  0  0  0  0  0  0  0  0  0
  162.1910  204.3740  146.8810 C   0  0  0  0  0  0  0  0  0  0  0  0
  161.4820  205.5850  147.1670 N   0  0  0  0  0  2  0  0  0  0  0  0
  1  9  2  0  0  0  0
  1 12  1  0  0  0  0
  2 23  1  0  0  0  0
  2  6  2  0  0  0  0
  4  3  1  0  0  0  0
  5  3  2  0  0  0  0
  6  5  1  0  0  0  0
  7 10  1  0  0  0  0
  8  6  1  0  0  0  0
  8 11  1  0  0  0  0
  9  2  1  0  0  0  0
 10  1  1  0  0  0  0
 11  4  2  0  0  0  0
 12  8  2  0  0  0  0
 13 17  1  0  0  0  0
 14 13  2  0  0  0  0
 15 17  1  6  0  0  0
 15 21  1  0  0  0  0
 16 10  1  6  0  0  0
 18 13  1  0  0  0  0
 18 19  1  0  0  0  0
 20 19  1  6  0  0  0
 20 15  1  0  0  0  0
 20 22  1  0  0  0  0
 21 16  1  0  0  0  0
 22 16  1  0  0  0  0
 24 23  1  0  0  0  0
 25 30  1  0  0  0  0
 25 24  1  1  0  0  0
 26 30  1  0  0  0  0
 27 25  1  0  0  0  0
 28 29  1  0  0  0  0
 28 27  2  0  0  0  0
 29 26  1  0  0  0  0
 31 35  1  0  0  0  0
 32 28  1  0  0  0  0
 34 32  2  0  0  0  0
 35 36  1  0  0  0  0
 35 33  2  0  0  0  0
 36 32  1  0  0  0  0
M  END
>  <MODEL>
7

>  <REMARK>
 VINA RESULT:      -9.1      1.422      2.040
  Name = 
  5 active torsions:
  status: ('A' for Active; 'I' for Inactive)
    1  A    between atoms: C_4  and  C_13
    2  A    between atoms: C_5  and  C_22
    3  A    between atoms: C_10  and  N_33
    4  A    between atoms: C_13  and  C_22
    5  A    between atoms: C_15  and  C_20
                            x       y       z     vdW  Elec       q    Type
                         _______ _______ _______ _____ _____    ______ ____

>  <TORSDO>
F 5

$$$$
=
 OpenBabel11072414343D

 36 40  0  0  1  0  0  0  0  0999 V2000
  161.5170  206.5320  149.8630 C   0  0  0  0  0  0  0  0  0  0  0  0
  161.2360  205.6830  152.1170 C   0  0  0  0  0  0  0  0  0  0  0  0
  160.6820  202.0770  151.8790 C   0  0  0  0  0  3  0  0  0  0  0  0
  160.7350  201.8870  150.5340 N   0  0  0  0  0  0  0  0  0  0  0  0
  160.8460  203.3210  152.4030 N   0  0  0  0  0  0  0  0  0  0  0  0
  161.0660  204.3930  151.5940 C   0  0  0  0  0  0  0  0  0  0  0  0
  161.9560  208.8730  149.4710 O   0  0  0  0  0  1  0  0  0  0  0  0
  161.1220  204.2110  150.2010 C   0  0  0  0  0  0  0  0  0  0  0  0
  161.4670  206.7510  151.2470 C   0  0  0  0  0  3  0  0  0  0  0  0
  161.7530  207.6330  148.9650 N   0  0  0  0  0  0  0  0  0  0  0  0
  160.9510  202.9280  149.6870 C   0  0  0  0  0  3  0  0  0  0  0  0
  161.3430  205.2680  149.3790 N   0  0  0  0  0  0  0  0  0  0  0  0
  160.4760  203.8080  144.8810 C   0  0  0  0  0  0  0  0  0  0  0  0
  159.7320  203.1200  144.1350 O   0  0  0  0  0  0  0  0  0  0  0  0
  160.7930  206.0940  145.7870 C   0  0  2  0  0  3  0  0  0  0  0  0
  161.7790  207.4790  147.5110 C   0  0  2  0  0  3  0  0  0  0  0  0
  159.8970  204.8490  145.7780 C   0  0  0  0  0  2  0  0  0  0  0  0
  161.8840  203.5940  144.8930 N   0  0  0  0  0  2  0  0  0  0  0  0
  162.6920  204.3330  145.8530 C   0  0  0  0  0  2  0  0  0  0  0  0
  162.3130  205.8170  145.8350 C   0  0  2  0  0  3  0  0  0  0  0  0
  160.4570  206.9590  146.9850 C   0  0  0  0  0  2  0  0  0  0  0  0
  162.8510  206.4990  147.0750 C   0  0  0  0  0  2  0  0  0  0  0  0
  161.2050  205.9350  153.5880 C   0  0  0  0  0  2  0  0  0  0  0  0
  161.7320  207.3330  153.8940 C   0  0  0  0  0  2  0  0  0  0  0  0
  160.8240  208.1140  154.8440 C   0  0  2  0  0  3  0  0  0  0  0  0
  162.2320  209.9080  155.7590 N   0  0  0  0  0  2  0  0  0  0  0  0
  160.0750  209.2070  154.1280 C   0  0  0  0  0  3  0  0  0  0  0  0
  160.2900  210.5040  154.3780 C   0  0  0  0  0  0  0  0  0  0  0  0
  161.1910  210.9080  155.5200 C   0  0  0  0  0  2  0  0  0  0  0  0
  161.5810  208.6380  156.0700 C   0  0  0  0  0  2  0  0  0  0  0  0
  155.8820  211.3300  155.0120 C   0  0  0  0  0  1  0  0  0  0  0  0
  159.5030  211.5300  153.6620 C   0  0  0  0  0  0  0  0  0  0  0  0
  157.9720  211.2440  156.1340 O   0  0  0  0  0  0  0  0  0  0  0  0
  160.0820  212.2950  152.8440 O   0  0  0  0  0  0  0  0  0  0  0  0
  157.3660  211.3860  155.0380 C   0  0  0  0  0  0  0  0  0  0  0  0
  158.0850  211.6530  153.8290 N   0  0  0  0  0  2  0  0  0  0  0  0
  1  9  1  0  0  0  0
  2 23  1  0  0  0  0
  3  5  1  0  0  0  0
  4  3  2  0  0  0  0
  6  2  1  0  0  0  0
  6  5  2  0  0  0  0
  8  6  1  0  0  0  0
  9  2  2  0  0  0  0
 10  7  1  0  0  0  0
 10  1  1  0  0  0  0
 11  8  2  0  0  0  0
 11  4  1  0  0  0  0
 12  1  2  0  0  0  0
 12  8  1  0  0  0  0
 13 18  1  0  0  0  0
 13 17  1  0  0  0  0
 14 13  2  0  0  0  0
 15 17  1  1  0  0  0
 15 20  1  0  0  0  0
 15 21  1  0  0  0  0
 16 10  1  1  0  0  0
 18 19  1  0  0  0  0
 20 19  1  1  0  0  0
 20 22  1  0  0  0  0
 21 16  1  0  0  0  0
 22 16  1  0  0  0  0
 23 24  1  0  0  0  0
 25 24  1  6  0  0  0
 25 30  1  0  0  0  0
 26 30  1  0  0  0  0
 27 28  2  0  0  0  0
 27 25  1  0  0  0  0
 28 29  1  0  0  0  0
 29 26  1  0  0  0  0
 31 35  1  0  0  0  0
 32 36  1  0  0  0  0
 32 28  1  0  0  0  0
 34 32  2  0  0  0  0
 35 33  2  0  0  0  0
 36 35  1  0  0  0  0
M  END
>  <MODEL>
8

>  <REMARK>
 VINA RESULT:      -8.6      3.793      8.274
  Name = 
  5 active torsions:
  status: ('A' for Active; 'I' for Inactive)
    1  A    between atoms: C_4  and  C_13
    2  A    between atoms: C_5  and  C_22
    3  A    between atoms: C_10  and  N_33
    4  A    between atoms: C_13  and  C_22
    5  A    between atoms: C_15  and  C_20
                            x       y       z     vdW  Elec       q    Type
                         _______ _______ _______ _____ _____    ______ ____

>  <TORSDO>
F 5

$$$$
=
 OpenBabel11072414343D

 36 40  0  0  1  0  0  0  0  0999 V2000
  160.5590  210.4470  152.5140 C   0  0  0  0  0  0  0  0  0  0  0  0
  161.1790  208.1060  152.6390 C   0  0  0  0  0  0  0  0  0  0  0  0
  160.4330  206.9470  156.0260 C   0  0  0  0  0  3  0  0  0  0  0  0
  159.9390  208.0790  156.5930 N   0  0  0  0  0  0  0  0  0  0  0  0
  160.8410  206.9510  154.7280 N   0  0  0  0  0  0  0  0  0  0  0  0
  160.7620  208.0830  153.9790 C   0  0  0  0  0  0  0  0  0  0  0  0
  160.8150  211.6830  150.4560 O   0  0  0  0  0  1  0  0  0  0  0  0
  160.2530  209.2620  154.5530 C   0  0  0  0  0  0  0  0  0  0  0  0
  161.0710  209.2910  151.9080 C   0  0  0  0  0  3  0  0  0  0  0  0
  160.4490  211.6700  151.7600 N   0  0  0  0  0  0  0  0  0  0  0  0
  159.8420  209.2340  155.8830 C   0  0  0  0  0  3  0  0  0  0  0  0
  160.1650  210.4010  153.8190 N   0  0  0  0  0  0  0  0  0  0  0  0
  155.7610  213.8840  154.2220 C   0  0  0  0  0  0  0  0  0  0  0  0
  154.9110  214.0650  155.1310 O   0  0  0  0  0  0  0  0  0  0  0  0
  158.2000  213.7030  153.8080 C   0  0  2  0  0  3  0  0  0  0  0  0
  159.9600  212.9190  152.3410 C   0  0  2  0  0  3  0  0  0  0  0  0
  156.9780  213.0580  154.4750 C   0  0  0  0  0  2  0  0  0  0  0  0
  155.5720  214.4530  152.9300 N   0  0  0  0  0  2  0  0  0  0  0  0
  156.5230  214.1250  151.8780 C   0  0  0  0  0  2  0  0  0  0  0  0
  157.9580  214.2770  152.3930 C   0  0  2  0  0  3  0  0  0  0  0  0
  159.3170  212.6860  153.6940 C   0  0  0  0  0  2  0  0  0  0  0  0
  158.9170  213.5730  151.4560 C   0  0  0  0  0  2  0  0  0  0  0  0
  161.7090  206.8820  151.9700 C   0  0  0  0  0  2  0  0  0  0  0  0
  162.0430  207.1820  150.5130 C   0  0  0  0  0  2  0  0  0  0  0  0
  160.9890  206.6470  149.5420 C   0  0  2  0  0  3  0  0  0  0  0  0
  162.1900  206.2550  147.4330 N   0  0  0  0  0  2  0  0  0  0  0  0
  160.8600  205.1490  149.6280 C   0  0  0  0  0  3  0  0  0  0  0  0
  161.2010  204.3420  148.6150 C   0  0  0  0  0  0  0  0  0  0  0  0
  161.5790  204.9350  147.2790 C   0  0  0  0  0  2  0  0  0  0  0  0
  161.2280  207.1270  148.1050 C   0  0  0  0  0  2  0  0  0  0  0  0
  160.1260  201.5160  145.2430 C   0  0  0  0  0  1  0  0  0  0  0  0
  161.0260  202.8810  148.7500 C   0  0  0  0  0  0  0  0  0  0  0  0
  161.7340  203.1230  145.9260 O   0  0  0  0  0  0  0  0  0  0  0  0
  161.2420  202.3320  149.8640 O   0  0  0  0  0  0  0  0  0  0  0  0
  160.8490  202.2990  146.2780 C   0  0  0  0  0  0  0  0  0  0  0  0
  160.5680  202.0670  147.6630 N   0  0  0  0  0  2  0  0  0  0  0  0
  1 12  1  0  0  0  0
  2  6  2  0  0  0  0
  3  4  1  0  0  0  0
  5  3  2  0  0  0  0
  6  8  1  0  0  0  0
  6  5  1  0  0  0  0
  7 10  1  0  0  0  0
  8 11  1  0  0  0  0
  9  1  2  0  0  0  0
  9  2  1  0  0  0  0
 10  1  1  0  0  0  0
 11  4  2  0  0  0  0
 12  8  2  0  0  0  0
 13 17  1  0  0  0  0
 13 14  2  0  0  0  0
 15 21  1  6  0  0  0
 15 17  1  0  0  0  0
 16 10  1  6  0  0  0
 16 21  1  0  0  0  0
 18 13  1  0  0  0  0
 19 20  1  0  0  0  0
 19 18  1  0  0  0  0
 20 22  1  6  0  0  0
 20 15  1  0  0  0  0
 22 16  1  0  0  0  0
 23  2  1  0  0  0  0
 24 23  1  0  0  0  0
 25 27  1  0  0  0  0
 25 24  1  1  0  0  0
 26 30  1  0  0  0  0
 28 32  1  0  0  0  0
 28 27  2  0  0  0  0
 29 26  1  0  0  0  0
 29 28  1  0  0  0  0
 30 25  1  0  0  0  0
 31 35  1  0  0  0  0
 32 34  2  0  0  0  0
 33 35  2  0  0  0  0
 35 36  1  0  0  0  0
 36 32  1  0  0  0  0
M  END
>  <MODEL>
9

>  <REMARK>
 VINA RESULT:      -8.5      3.187      4.580
  Name = 
  5 active torsions:
  status: ('A' for Active; 'I' for Inactive)
    1  A    between atoms: C_4  and  C_13
    2  A    between atoms: C_5  and  C_22
    3  A    between atoms: C_10  and  N_33
    4  A    between atoms: C_13  and  C_22
    5  A    between atoms: C_15  and  C_20
                            x       y       z     vdW  Elec       q    Type
                         _______ _______ _______ _____ _____    ______ ____

>  <TORSDO>
F 5

$$$$
