=
 OpenBabel11072409513D

 66 70  0  0  1  0  0  0  0  0999 V2000
  162.3770  212.0170  147.0550 N   0  0  0  0  0  0  0  0  0  0  0  0
  161.0160  213.0960  148.4300 N   0  0  0  0  0  0  0  0  0  0  0  0
  161.6930  211.9600  148.2090 C   0  0  0  0  0  0  0  0  0  0  0  0
  162.0690  213.2490  146.5820 C   0  0  0  0  0  3  0  0  0  0  0  0
  161.2350  213.9090  147.4180 N   0  0  0  0  0  0  0  0  0  0  0  0
  160.8170  213.4780  150.8890 C   0  0  0  0  0  2  0  0  0  0  0  0
  160.1550  213.4040  149.5360 C   0  0  0  0  0  0  0  0  0  0  0  0
  159.8080  214.1160  152.2720 S   0  0  0  0  0  0  0  0  0  0  0  0
  158.3700  213.1310  151.8020 C   0  0  2  0  0  3  0  0  0  0  0  0
  156.4350  213.1990  150.1780 C   0  0  0  0  0  1  0  0  0  0  0  0
  158.8160  213.4020  149.3550 C   0  0  0  0  0  0  0  0  0  0  0  0
  157.8470  213.6960  150.4830 C   0  0  2  0  0  3  0  0  0  0  0  0
  158.2690  213.0340  148.0120 C   0  0  0  0  0  1  0  0  0  0  0  0
  157.3620  213.2180  152.8540 N   0  0  0  0  0  2  0  0  0  0  0  0
  158.0550  213.3000  154.1360 C   0  0  1  0  0  3  0  0  0  0  0  0
  157.5680  214.4520  154.8930 N   0  0  0  0  0  0  0  0  0  0  0  0
  155.6960  213.2890  155.8040 N   0  0  0  0  0  1  0  0  0  0  0  0
  156.5100  214.4470  155.6590 C   0  0  0  0  0  3  0  0  0  0  0  0
  157.8340  212.0240  154.9580 C   0  0  0  0  0  2  0  0  0  0  0  0
  158.8010  211.9260  156.1370 C   0  0  0  0  0  2  0  0  0  0  0  0
  160.4820  208.5840  157.2600 C   0  0  0  0  0  2  0  0  0  0  0  0
  158.9390  210.4810  156.5980 C   0  0  1  0  0  3  0  0  0  0  0  0
  158.3550  209.5010  155.5830 C   0  0  0  0  0  2  0  0  0  0  0  0
  160.3720  210.0960  157.0160 C   0  0  2  0  0  3  0  0  0  0  0  0
  159.2270  207.9560  157.2520 O   0  0  0  0  0  0  0  0  0  0  0  0
  158.7460  208.0540  155.9330 C   0  0  0  0  0  2  0  0  0  0  0  0
  162.0450  209.6390  155.1870 C   0  0  0  0  0  0  0  0  0  0  0  0
  161.3900  210.4860  155.9910 C   0  0  0  0  0  3  0  0  0  0  0  0
  163.8680  211.0840  154.7420 O   0  0  0  0  0  1  0  0  0  0  0  0
  162.9210  210.2440  154.1330 C   0  0  2  0  0  3  0  0  0  0  0  0
  162.1040  210.9380  153.0260 C   0  0  0  0  0  3  0  0  0  0  0  0
  160.6090  210.7410  153.2080 C   0  0  0  0  0  2  0  0  0  0  0  0
  161.3520  209.9330  152.1640 C   0  0  0  0  0  2  0  0  0  0  0  0
  161.9160  208.2390  155.2430 O   0  0  0  0  0  0  0  0  0  0  0  0
  161.7050  207.4110  154.1010 C   0  0  0  0  0  2  0  0  0  0  0  0
  161.0130  206.1330  154.5190 C   0  0  0  0  0  2  0  0  0  0  0  0
  161.1670  205.1830  153.5310 F   0  0  0  0  0  0  0  0  0  0  0  0
  161.6540  210.7630  149.0940 C   0  0  0  0  0  2  0  0  0  0  0  0
  161.7790  209.5930  148.3230 O   0  0  0  0  0  0  0  0  0  0  0  0
  162.5250  206.6800  147.2170 C   0  0  0  0  0  0  0  0  0  0  0  0
  160.6800  207.6160  149.1140 C   0  0  2  0  0  3  0  0  0  0  0  0
  163.4810  205.8660  147.3060 O   0  0  0  0  0  0  0  0  0  0  0  0
  162.6170  208.4620  150.2970 O   0  0  0  0  0  1  0  0  0  0  0  0
  161.9380  207.2300  148.3890 N   0  0  0  0  0  0  0  0  0  0  0  0
  161.7560  208.4720  149.1850 C   0  0  2  0  0  0  0  0  0  0  0  0
  162.0210  207.1080  145.8770 C   0  0  0  0  0  2  0  0  0  0  0  0
  161.9450  205.9590  144.8610 C   0  0  1  0  0  3  0  0  0  0  0  0
  161.4880  204.6760  145.4830 C   0  0  0  0  0  0  0  0  0  0  0  0
  160.4730  204.6970  146.2250 O   0  0  0  0  0  0  0  0  0  0  0  0
  161.9170  202.2050  145.6930 C   0  0  0  0  0  3  0  0  0  0  0  0
  162.2190  203.4150  145.2100 C   0  0  0  0  0  3  0  0  0  0  0  0
  160.7370  200.4360  146.9420 C   0  0  0  0  0  1  0  0  0  0  0  0
  160.7830  201.9170  146.6200 C   0  0  1  0  0  3  0  0  0  0  0  0
  160.9490  202.6440  147.7970 O   0  0  0  0  0  1  0  0  0  0  0  0
  160.9970  206.3480  143.7470 C   0  0  0  0  0  2  0  0  0  0  0  0
  161.3540  205.5940  142.4790 C   0  0  0  0  0  2  0  0  0  0  0  0
  161.9360  206.4730  141.5680 O   0  0  0  0  0  1  0  0  0  0  0  0
  160.4420  206.7240  150.7100 S   0  0  0  0  0  0  0  0  0  0  0  0
  162.3500  204.8590  150.5540 O   0  0  0  0  0  1  0  0  0  0  0  0
  161.0100  205.0530  150.2480 C   0  0  1  0  0  3  0  0  0  0  0  0
  160.1390  203.9460  150.8220 C   0  0  0  0  0  2  0  0  0  0  0  0
  160.8040  202.5860  150.6330 C   0  0  1  0  0  3  0  0  0  0  0  0
  161.6510  202.2550  151.8520 C   0  0  0  0  0  2  0  0  0  0  0  0
  160.8790  202.3190  153.0100 O   0  0  0  0  0  1  0  0  0  0  0  0
  159.7610  201.5430  150.4390 C   0  0  0  0  0  3  0  0  0  0  0  0
  158.9550  201.6300  149.5300 O   0  0  0  0  0  0  0  0  0  0  0  0
  1  3  2  0  0  0  0
  2  7  1  0  0  0  0
  3  2  1  0  0  0  0
  3 38  1  0  0  0  0
  4  1  1  0  0  0  0
  4  5  2  0  0  0  0
  5  2  1  0  0  0  0
  6  8  1  0  0  0  0
  7  6  1  0  0  0  0
  9  8  1  0  0  0  0
  9 14  1  1  0  0  0
 11  7  2  0  0  0  0
 11 12  1  0  0  0  0
 12 10  1  6  0  0  0
 12  9  1  0  0  0  0
 13 11  1  0  0  0  0
 14 15  1  0  0  0  0
 15 16  1  0  0  0  0
 15 19  1  1  0  0  0
 16 18  2  0  0  0  0
 18 17  1  0  0  0  0
 19 20  1  0  0  0  0
 22 20  1  6  0  0  0
 22 24  1  0  0  0  0
 23 26  1  0  0  0  0
 23 22  1  0  0  0  0
 24 28  1  6  0  0  0
 24 21  1  0  0  0  0
 25 21  1  0  0  0  0
 26 25  1  0  0  0  0
 27 34  1  0  0  0  0
 27 28  2  0  0  0  0
 30 29  1  1  0  0  0
 30 27  1  0  0  0  0
 31 32  1  0  0  0  0
 31 30  1  0  0  0  0
 33 31  1  0  0  0  0
 33 32  1  0  0  0  0
 35 36  1  0  0  0  0
 35 34  1  0  0  0  0
 37 36  1  0  0  0  0
 39 38  1  0  0  0  0
 39 45  1  0  0  0  0
 40 42  2  0  0  0  0
 40 44  1  0  0  0  0
 41 45  1  0  0  0  0
 41 58  1  1  0  0  0
 44 41  1  0  0  0  0
 44 45  1  0  0  0  0
 45 43  1  1  0  0  0
 46 40  1  0  0  0  0
 47 55  1  6  0  0  0
 47 48  1  0  0  0  0
 47 46  1  0  0  0  0
 48 49  2  0  0  0  0
 50 53  1  0  0  0  0
 51 48  1  0  0  0  0
 51 50  2  0  0  0  0
 53 52  1  1  0  0  0
 53 54  1  0  0  0  0
 56 55  1  0  0  0  0
 57 56  1  0  0  0  0
 60 59  1  1  0  0  0
 60 58  1  0  0  0  0
 60 61  1  0  0  0  0
 62 65  1  1  0  0  0
 62 61  1  0  0  0  0
 62 63  1  0  0  0  0
 63 64  1  0  0  0  0
 66 65  2  0  0  0  0
M  END
>  <MODEL>
1

>  <REMARK>
 VINA RESULT:       2.4      0.000      0.000
  Name = 
  29 active torsions:
  status: ('A' for Active; 'I' for Inactive)
    1  A    between atoms: C_1  and  C_26
    2  A    between atoms: N_2  and  C_30
    3  A    between atoms: N_2  and  C_40
    4  A    between atoms: C_3  and  O_20
    5  A    between atoms: C_3  and  C_66
    6  A    between atoms: C_5  and  C_66
    7  A    between atoms: C_6  and  C_10
    8  A    between atoms: C_7  and  C_13
    9  A    between atoms: C_7  and  C_32
   10  A    between atoms: C_7  and  C_54
   11  A    between atoms: C_9  and  C_25
   12  A    between atoms: C_10  and  C_38
   13  A    between atoms: C_10  and  C_61
   14  A    between atoms: C_12  and  O_15
   15  A    between atoms: C_12  and  C_57
   16  A    between atoms: C_13  and  C_42
   17  A    between atoms: C_14  and  C_39
   18  A    between atoms: O_15  and  C_59
   19  A    between atoms: C_16  and  N_17
   20  A    between atoms: O_20  and  C_26
   21  A    between atoms: C_21  and  C_23
   22  A    between atoms: C_25  and  C_65
   23  A    between atoms: N_27  and  C_40
   24  A    between atoms: C_29  and  C_54
   25  A    between atoms: C_31  and  C_32
   26  A    between atoms: C_35  and  S_37
   27  A    between atoms: S_37  and  C_56
   28  A    between atoms: C_40  and  C_65
   29  A    between atoms: C_56  and  C_61
                            x       y       z     vdW  Elec       q    Type
                         _______ _______ _______ _____ _____    ______ ____

>  <TORSDO>
F 29

$$$$
=
 OpenBabel11072409513D

 66 71  0  0  1  0  0  0  0  0999 V2000
  159.2200  210.0430  156.3450 N   0  0  0  0  0  0  0  0  0  0  0  0
  160.7810  209.4520  154.8870 N   0  0  0  0  0  0  0  0  0  0  0  0
  159.5040  209.8280  155.0500 C   0  0  0  0  0  0  0  0  0  0  0  0
  160.3950  209.7680  156.9610 C   0  0  0  0  0  3  0  0  0  0  0  0
  161.3490  209.4030  156.0740 N   0  0  0  0  0  0  0  0  0  0  0  0
  161.4470  210.1710  152.5910 C   0  0  0  0  0  2  0  0  0  0  0  0
  161.4470  209.1100  153.6630 C   0  0  0  0  0  0  0  0  0  0  0  0
  162.4980  209.8700  151.1270 S   0  0  0  0  0  0  0  0  0  0  0  0
  161.9620  208.1530  150.9780 C   0  0  2  0  0  3  0  0  0  0  0  0
  162.4600  205.8840  151.9730 C   0  0  0  0  0  1  0  0  0  0  0  0
  161.8380  207.8340  153.4560 C   0  0  0  0  0  0  0  0  0  0  0  0
  162.5270  207.3970  152.1780 C   0  0  2  0  0  3  0  0  0  0  0  0
  161.5260  206.8040  154.4950 C   0  0  0  0  0  1  0  0  0  0  0  0
  162.4580  207.6010  149.7210 N   0  0  0  0  0  2  0  0  0  0  0  0
  161.3100  207.1310  148.9510 C   0  0  1  0  0  3  0  0  0  0  0  0
  161.7620  206.5430  147.6910 N   0  0  0  0  0  0  0  0  0  0  0  0
  164.0710  206.9550  148.1190 N   0  0  0  0  0  1  0  0  0  0  0  0
  163.0100  206.4490  147.3180 C   0  0  0  0  0  3  0  0  0  0  0  0
  160.5150  206.0850  149.7410 C   0  0  0  0  0  2  0  0  0  0  0  0
  160.3920  204.7650  148.9810 C   0  0  0  0  0  2  0  0  0  0  0  0
  162.1800  201.3620  149.6750 C   0  0  0  0  0  2  0  0  0  0  0  0
  161.0710  203.6380  149.7490 C   0  0  1  0  0  3  0  0  0  0  0  0
  160.1450  203.0280  150.8000 C   0  0  0  0  0  2  0  0  0  0  0  0
  161.7080  202.5650  148.8450 C   0  0  2  0  0  3  0  0  0  0  0  0
  162.1130  201.6130  151.0540 O   0  0  0  0  0  0  0  0  0  0  0  0
  160.7460  201.7280  151.3680 C   0  0  0  0  0  2  0  0  0  0  0  0
  160.8540  202.3500  146.4840 C   0  0  0  0  0  0  0  0  0  0  0  0
  160.7660  202.0740  147.7910 C   0  0  0  0  0  3  0  0  0  0  0  0
  158.5980  202.1460  145.7920 O   0  0  0  0  0  1  0  0  0  0  0  0
  159.8930  201.6470  145.5750 C   0  0  2  0  0  3  0  0  0  0  0  0
  159.9900  200.1140  145.7010 C   0  0  0  0  0  3  0  0  0  0  0  0
  161.3770  199.6600  146.1230 C   0  0  0  0  0  2  0  0  0  0  0  0
  160.9490  199.5230  144.6770 C   0  0  0  0  0  2  0  0  0  0  0  0
  161.8160  203.2090  145.9210 O   0  0  0  0  0  0  0  0  0  0  0  0
  161.5550  204.1000  144.8390 C   0  0  0  0  0  2  0  0  0  0  0  0
  161.6190  205.5300  145.3290 C   0  0  0  0  0  2  0  0  0  0  0  0
  160.4680  206.1940  144.9570 F   0  0  0  0  0  0  0  0  0  0  0  0
  158.5060  209.9400  153.9500 C   0  0  0  0  0  2  0  0  0  0  0  0
  158.8810  210.9680  153.0660 O   0  0  0  0  0  0  0  0  0  0  0  0
  158.2880  213.3640  151.0230 C   0  0  0  0  0  0  0  0  0  0  0  0
  159.1960  213.2630  153.6770 C   0  0  2  0  0  3  0  0  0  0  0  0
  157.2850  213.9160  150.5000 O   0  0  0  0  0  0  0  0  0  0  0  0
  157.0840  212.1780  154.1560 O   0  0  0  0  0  0  0  0  0  0  0  0
  158.3580  213.1900  152.4330 N   0  0  0  0  0  0  0  0  0  0  0  0
  158.3450  212.1910  153.5330 C   0  0  2  0  0  0  0  0  0  0  0  0
  159.4000  212.8500  150.1670 C   0  0  0  0  0  2  0  0  0  0  0  0
  159.1780  213.1010  148.6680 C   0  0  1  0  0  3  0  0  0  0  0  0
  160.3450  212.6640  147.8380 C   0  0  0  0  0  0  0  0  0  0  0  0
  160.8470  211.5330  148.0550 O   0  0  0  0  0  0  0  0  0  0  0  0
  160.6320  213.4530  145.4650 C   0  0  0  0  0  3  0  0  0  0  0  0
  160.8760  213.5540  146.7760 C   0  0  0  0  0  3  0  0  0  0  0  0
  158.4180  212.3660  145.4920 C   0  0  0  0  0  1  0  0  0  0  0  0
  159.7830  212.3980  144.8340 C   0  0  1  0  0  3  0  0  0  0  0  0
  159.6400  212.6690  143.4760 O   0  0  0  0  0  1  0  0  0  0  0  0
  157.9350  212.3600  148.2240 C   0  0  0  0  0  2  0  0  0  0  0  0
  156.8350  213.3510  147.8910 C   0  0  0  0  0  2  0  0  0  0  0  0
  157.3870  214.4510  147.2370 O   0  0  0  0  0  1  0  0  0  0  0  0
  158.5530  214.4490  154.9340 S   0  0  0  0  0  0  0  0  0  0  0  0
  157.5650  213.2180  157.0900 O   0  0  0  0  0  1  0  0  0  0  0  0
  157.2840  213.4210  155.7470 C   0  0  1  0  0  3  0  0  0  0  0  0
  155.8700  213.9450  155.5440 C   0  0  0  0  0  2  0  0  0  0  0  0
  154.8690  212.7950  155.5190 C   0  0  1  0  0  3  0  0  0  0  0  0
  155.3630  211.7050  154.5800 C   0  0  2  0  0  3  0  0  0  0  0  0
  154.8840  210.4620  154.9880 O   0  0  0  0  0  1  0  0  0  0  0  0
  154.7030  212.2480  156.8920 C   0  0  0  0  0  3  0  0  0  0  0  0
  155.3210  211.2600  157.2470 O   0  0  0  0  0  0  0  0  0  0  0  0
  1  4  1  0  0  0  0
  2  3  1  0  0  0  0
  2  5  1  0  0  0  0
  3  1  2  0  0  0  0
  5  4  2  0  0  0  0
  6  7  1  0  0  0  0
  7  2  1  0  0  0  0
  8  6  1  0  0  0  0
  9 14  1  6  0  0  0
  9  8  1  0  0  0  0
  9 12  1  0  0  0  0
 11  7  2  0  0  0  0
 11 13  1  0  0  0  0
 12 10  1  6  0  0  0
 12 11  1  0  0  0  0
 15 14  1  0  0  0  0
 15 19  1  1  0  0  0
 16 15  1  0  0  0  0
 18 16  2  0  0  0  0
 18 17  1  0  0  0  0
 20 19  1  0  0  0  0
 21 25  1  0  0  0  0
 22 20  1  6  0  0  0
 22 23  1  0  0  0  0
 23 26  1  0  0  0  0
 24 28  1  6  0  0  0
 24 21  1  0  0  0  0
 24 22  1  0  0  0  0
 25 26  1  0  0  0  0
 27 28  2  0  0  0  0
 30 31  1  0  0  0  0
 30 29  1  1  0  0  0
 30 27  1  0  0  0  0
 31 32  1  0  0  0  0
 33 31  1  0  0  0  0
 33 32  1  0  0  0  0
 34 27  1  0  0  0  0
 35 36  1  0  0  0  0
 35 34  1  0  0  0  0
 37 36  1  0  0  0  0
 38  3  1  0  0  0  0
 39 38  1  0  0  0  0
 40 44  1  0  0  0  0
 41 58  1  1  0  0  0
 42 40  2  0  0  0  0
 43 63  1  0  0  0  0
 44 45  1  0  0  0  0
 44 41  1  0  0  0  0
 45 39  1  6  0  0  0
 45 41  1  0  0  0  0
 45 43  1  0  0  0  0
 46 40  1  0  0  0  0
 47 55  1  6  0  0  0
 47 46  1  0  0  0  0
 48 49  2  0  0  0  0
 48 47  1  0  0  0  0
 50 51  2  0  0  0  0
 51 48  1  0  0  0  0
 53 50  1  0  0  0  0
 53 52  1  1  0  0  0
 54 53  1  0  0  0  0
 56 55  1  0  0  0  0
 57 56  1  0  0  0  0
 58 60  1  0  0  0  0
 60 59  1  1  0  0  0
 61 60  1  0  0  0  0
 62 61  1  0  0  0  0
 62 65  1  1  0  0  0
 63 64  1  1  0  0  0
 63 62  1  0  0  0  0
 65 66  2  0  0  0  0
M  END
>  <MODEL>
2

>  <REMARK>
 VINA RESULT:       3.2      3.017      9.975
  Name = 
  29 active torsions:
  status: ('A' for Active; 'I' for Inactive)
    1  A    between atoms: C_1  and  C_26
    2  A    between atoms: N_2  and  C_30
    3  A    between atoms: N_2  and  C_40
    4  A    between atoms: C_3  and  O_20
    5  A    between atoms: C_3  and  C_66
    6  A    between atoms: C_5  and  C_66
    7  A    between atoms: C_6  and  C_10
    8  A    between atoms: C_7  and  C_13
    9  A    between atoms: C_7  and  C_32
   10  A    between atoms: C_7  and  C_54
   11  A    between atoms: C_9  and  C_25
   12  A    between atoms: C_10  and  C_38
   13  A    between atoms: C_10  and  C_61
   14  A    between atoms: C_12  and  O_15
   15  A    between atoms: C_12  and  C_57
   16  A    between atoms: C_13  and  C_42
   17  A    between atoms: C_14  and  C_39
   18  A    between atoms: O_15  and  C_59
   19  A    between atoms: C_16  and  N_17
   20  A    between atoms: O_20  and  C_26
   21  A    between atoms: C_21  and  C_23
   22  A    between atoms: C_25  and  C_65
   23  A    between atoms: N_27  and  C_40
   24  A    between atoms: C_29  and  C_54
   25  A    between atoms: C_31  and  C_32
   26  A    between atoms: C_35  and  S_37
   27  A    between atoms: S_37  and  C_56
   28  A    between atoms: C_40  and  C_65
   29  A    between atoms: C_56  and  C_61
                            x       y       z     vdW  Elec       q    Type
                         _______ _______ _______ _____ _____    ______ ____

>  <TORSDO>
F 29

$$$$
=
 OpenBabel11072409513D

 66 71  0  0  1  0  0  0  0  0999 V2000
  158.3490  213.7970  143.8500 N   0  0  0  0  0  0  0  0  0  0  0  0
  159.4240  212.8170  145.5210 N   0  0  0  0  0  0  0  0  0  0  0  0
  159.5260  213.3150  144.2810 C   0  0  1  0  0  3  0  0  0  0  0  0
  157.5230  213.5540  144.8960 C   0  0  0  0  0  3  0  0  0  0  0  0
  158.1750  212.9520  145.9170 N   0  0  0  0  0  0  0  0  0  0  0  0
  160.2260  210.7450  146.6590 C   0  0  0  0  0  2  0  0  0  0  0  0
  160.4520  212.1940  146.3050 C   0  0  0  0  0  0  0  0  0  0  0  0
  161.6220  209.8540  147.4320 S   0  0  0  0  0  0  0  0  0  0  0  0
  161.9940  211.2170  148.5540 C   0  0  2  0  0  3  0  0  0  0  0  0
  163.2210  213.4260  148.5640 C   0  0  0  0  0  1  0  0  0  0  0  0
  161.4260  212.9560  146.8490 C   0  0  0  0  0  0  0  0  0  0  0  0
  162.5290  212.3680  147.7060 C   0  0  2  0  0  3  0  0  0  0  0  0
  161.3790  214.4380  146.6500 C   0  0  0  0  0  1  0  0  0  0  0  0
  162.9810  210.7770  149.5350 N   0  0  0  0  0  2  0  0  0  0  0  0
  162.5700  209.4670  150.0320 C   0  0  1  0  0  3  0  0  0  0  0  0
  162.6550  209.4380  151.4910 N   0  0  0  0  0  0  0  0  0  0  0  0
  161.0960  211.2170  151.7970 N   0  0  0  0  0  1  0  0  0  0  0  0
  161.9800  210.2170  152.2920 C   0  0  0  0  0  3  0  0  0  0  0  0
  161.1330  209.1480  149.6030 C   0  0  0  0  0  2  0  0  0  0  0  0
  160.6630  207.7940  150.1330 C   0  0  0  0  0  2  0  0  0  0  0  0
  162.8810  205.6580  152.5370 C   0  0  0  0  0  2  0  0  0  0  0  0
  161.4550  207.3990  151.3720 C   0  0  1  0  0  3  0  0  0  0  0  0
  160.5730  207.3460  152.6180 C   0  0  0  0  0  2  0  0  0  0  0  0
  162.2860  206.1120  151.1960 C   0  0  2  0  0  3  0  0  0  0  0  0
  162.7060  206.6200  153.5440 O   0  0  0  0  0  0  0  0  0  0  0  0
  161.3220  206.6860  153.7900 C   0  0  0  0  0  2  0  0  0  0  0  0
  161.1650  204.8330  149.3360 C   0  0  0  0  0  0  0  0  0  0  0  0
  161.4800  204.9860  150.6280 C   0  0  0  0  0  3  0  0  0  0  0  0
  159.7950  203.0460  150.0710 O   0  0  0  0  0  1  0  0  0  0  0  0
  160.4680  203.5630  148.9530 C   0  0  2  0  0  3  0  0  0  0  0  0
  161.4270  202.5530  148.2920 C   0  0  0  0  0  3  0  0  0  0  0  0
  161.9090  203.0260  146.9310 C   0  0  0  0  0  2  0  0  0  0  0  0
  160.8350  201.9630  147.0190 C   0  0  0  0  0  2  0  0  0  0  0  0
  161.4920  205.7590  148.3290 O   0  0  0  0  0  0  0  0  0  0  0  0
  162.7820  205.8650  147.7300 C   0  0  0  0  0  2  0  0  0  0  0  0
  162.6360  206.1440  146.2510 C   0  0  0  0  0  2  0  0  0  0  0  0
  161.3190  206.4430  145.9670 F   0  0  0  0  0  0  0  0  0  0  0  0
  160.7670  213.2920  143.4560 C   0  0  0  0  0  2  0  0  0  0  0  0
  160.4740  212.8170  142.1650 O   0  0  0  0  0  0  0  0  0  0  0  0
  159.1250  211.4610  139.5940 C   0  0  0  0  0  0  0  0  0  0  0  0
  158.6620  213.8530  140.9890 C   0  0  2  0  0  3  0  0  0  0  0  0
  158.3790  210.4790  139.3430 O   0  0  0  0  0  0  0  0  0  0  0  0
  158.1930  212.4290  142.8910 O   0  0  0  0  0  0  0  0  0  0  0  0
  158.7530  212.4090  140.5880 N   0  0  0  0  0  0  0  0  0  0  0  0
  159.0840  212.9460  141.9340 C   0  0  2  0  0  0  0  0  0  0  0  0
  160.4270  211.6240  138.8800 C   0  0  0  0  0  2  0  0  0  0  0  0
  161.6460  211.5200  139.8090 C   0  0  1  0  0  3  0  0  0  0  0  0
  162.1430  210.1140  139.9430 C   0  0  0  0  0  0  0  0  0  0  0  0
  163.0500  209.8740  140.7790 O   0  0  0  0  0  0  0  0  0  0  0  0
  161.7870  207.7240  139.2350 C   0  0  0  0  0  3  0  0  0  0  0  0
  161.5560  209.0360  139.1090 C   0  0  0  0  0  3  0  0  0  0  0  0
  161.9620  206.8670  141.5410 C   0  0  0  0  0  1  0  0  0  0  0  0
  162.7040  207.1130  140.2430 C   0  0  1  0  0  3  0  0  0  0  0  0
  163.1950  205.9060  139.7510 O   0  0  0  0  0  1  0  0  0  0  0  0
  162.7530  212.3990  139.2700 C   0  0  0  0  0  2  0  0  0  0  0  0
  162.7450  213.7370  139.9860 C   0  0  0  0  0  2  0  0  0  0  0  0
  163.8760  213.8350  140.7940 O   0  0  0  0  0  1  0  0  0  0  0  0
  156.9420  214.4160  141.3400 S   0  0  0  0  0  0  0  0  0  0  0  0
  157.1780  214.4480  138.6780 O   0  0  0  0  0  1  0  0  0  0  0  0
  156.2140  214.3340  139.6690 C   0  0  1  0  0  3  0  0  0  0  0  0
  155.3360  213.1090  139.4590 C   0  0  0  0  0  2  0  0  0  0  0  0
  153.8810  213.5190  139.2600 C   0  0  1  0  0  3  0  0  0  0  0  0
  153.6030  213.7220  137.7780 C   0  0  0  0  0  2  0  0  0  0  0  0
  154.7760  213.5790  137.0420 O   0  0  0  0  0  1  0  0  0  0  0  0
  152.9860  212.4620  139.8060 C   0  0  0  0  0  3  0  0  0  0  0  0
  153.1860  211.2880  139.5550 O   0  0  0  0  0  0  0  0  0  0  0  0
  1  3  1  0  0  0  0
  1  4  1  0  0  0  0
  2  5  1  0  0  0  0
  2  7  1  0  0  0  0
  3 38  1  6  0  0  0
  3  2  1  0  0  0  0
  4  5  2  0  0  0  0
  6  8  1  0  0  0  0
  7  6  1  0  0  0  0
  7 11  2  0  0  0  0
  8  9  1  0  0  0  0
  9 14  1  1  0  0  0
 11 12  1  0  0  0  0
 12  9  1  0  0  0  0
 12 10  1  1  0  0  0
 13 11  1  0  0  0  0
 14 15  1  0  0  0  0
 15 19  1  1  0  0  0
 15 16  1  0  0  0  0
 16 18  2  0  0  0  0
 17 18  1  0  0  0  0
 19 20  1  0  0  0  0
 21 25  1  0  0  0  0
 22 20  1  6  0  0  0
 22 23  1  0  0  0  0
 23 26  1  0  0  0  0
 24 28  1  1  0  0  0
 24 22  1  0  0  0  0
 24 21  1  0  0  0  0
 25 26  1  0  0  0  0
 27 28  2  0  0  0  0
 30 27  1  0  0  0  0
 30 29  1  1  0  0  0
 31 30  1  0  0  0  0
 32 33  1  0  0  0  0
 32 31  1  0  0  0  0
 33 31  1  0  0  0  0
 34 27  1  0  0  0  0
 35 34  1  0  0  0  0
 36 35  1  0  0  0  0
 37 36  1  0  0  0  0
 39 38  1  0  0  0  0
 40 44  1  0  0  0  0
 41 58  1  1  0  0  0
 41 45  1  0  0  0  0
 42 40  2  0  0  0  0
 43  1  1  0  0  0  0
 44 41  1  0  0  0  0
 44 45  1  0  0  0  0
 45 39  1  1  0  0  0
 45 43  1  0  0  0  0
 46 40  1  0  0  0  0
 47 46  1  6  0  0  0
 47 48  1  0  0  0  0
 48 49  2  0  0  0  0
 50 53  1  0  0  0  0
 51 50  2  0  0  0  0
 51 48  1  0  0  0  0
 53 52  1  1  0  0  0
 54 53  1  0  0  0  0
 55 47  1  0  0  0  0
 55 56  1  0  0  0  0
 56 57  1  0  0  0  0
 60 59  1  6  0  0  0
 60 58  1  0  0  0  0
 61 60  1  0  0  0  0
 62 63  1  6  0  0  0
 62 61  1  0  0  0  0
 62 65  1  0  0  0  0
 64 63  1  0  0  0  0
 66 65  2  0  0  0  0
M  END
>  <MODEL>
3

>  <REMARK>
 VINA RESULT:       4.1      5.279      9.263
  Name = 
  29 active torsions:
  status: ('A' for Active; 'I' for Inactive)
    1  A    between atoms: C_1  and  C_26
    2  A    between atoms: N_2  and  C_30
    3  A    between atoms: N_2  and  C_40
    4  A    between atoms: C_3  and  O_20
    5  A    between atoms: C_3  and  C_66
    6  A    between atoms: C_5  and  C_66
    7  A    between atoms: C_6  and  C_10
    8  A    between atoms: C_7  and  C_13
    9  A    between atoms: C_7  and  C_32
   10  A    between atoms: C_7  and  C_54
   11  A    between atoms: C_9  and  C_25
   12  A    between atoms: C_10  and  C_38
   13  A    between atoms: C_10  and  C_61
   14  A    between atoms: C_12  and  O_15
   15  A    between atoms: C_12  and  C_57
   16  A    between atoms: C_13  and  C_42
   17  A    between atoms: C_14  and  C_39
   18  A    between atoms: O_15  and  C_59
   19  A    between atoms: C_16  and  N_17
   20  A    between atoms: O_20  and  C_26
   21  A    between atoms: C_21  and  C_23
   22  A    between atoms: C_25  and  C_65
   23  A    between atoms: N_27  and  C_40
   24  A    between atoms: C_29  and  C_54
   25  A    between atoms: C_31  and  C_32
   26  A    between atoms: C_35  and  S_37
   27  A    between atoms: S_37  and  C_56
   28  A    between atoms: C_40  and  C_65
   29  A    between atoms: C_56  and  C_61
                            x       y       z     vdW  Elec       q    Type
                         _______ _______ _______ _____ _____    ______ ____

>  <TORSDO>
F 29

$$$$
=
 OpenBabel11072409513D

 66 70  0  0  1  0  0  0  0  0999 V2000
  162.3280  211.5590  146.8800 N   0  0  0  0  0  0  0  0  0  0  0  0
  161.0970  212.6210  148.3860 N   0  0  0  0  0  0  0  0  0  0  0  0
  161.5690  211.4340  147.9810 C   0  0  0  0  0  0  0  0  0  0  0  0
  162.2820  212.8910  146.6330 C   0  0  0  0  0  3  0  0  0  0  0  0
  161.5280  213.5410  147.5480 N   0  0  0  0  0  0  0  0  0  0  0  0
  160.7940  212.5670  150.8620 C   0  0  0  0  0  2  0  0  0  0  0  0
  160.2340  212.8900  149.5000 C   0  0  0  0  0  0  0  0  0  0  0  0
  159.8310  213.1310  152.3100 S   0  0  0  0  0  0  0  0  0  0  0  0
  158.2660  212.5780  151.6020 C   0  0  2  0  0  3  0  0  0  0  0  0
  156.5100  213.3550  149.9590 C   0  0  0  0  0  1  0  0  0  0  0  0
  158.9390  213.2030  149.2760 C   0  0  0  0  0  0  0  0  0  0  0  0
  157.9660  213.4770  150.4060 C   0  0  2  0  0  3  0  0  0  0  0  0
  158.4320  213.2190  147.8680 C   0  0  0  0  0  1  0  0  0  0  0  0
  157.2190  212.6750  152.6150 N   0  0  0  0  0  2  0  0  0  0  0  0
  157.8230  213.1920  153.8390 C   0  0  1  0  0  3  0  0  0  0  0  0
  157.1310  214.4090  154.2610 N   0  0  0  0  0  0  0  0  0  0  0  0
  155.4150  213.2420  155.4360 N   0  0  0  0  0  1  0  0  0  0  0  0
  156.0510  214.4360  154.9940 C   0  0  0  0  0  3  0  0  0  0  0  0
  157.7500  212.1530  154.9640 C   0  0  0  0  0  2  0  0  0  0  0  0
  159.0930  211.9780  155.6720 C   0  0  0  0  0  2  0  0  0  0  0  0
  160.6750  208.6850  157.0530 C   0  0  0  0  0  2  0  0  0  0  0  0
  159.1900  210.5960  156.3040 C   0  0  1  0  0  3  0  0  0  0  0  0
  158.4400  209.5440  155.4890 C   0  0  0  0  0  2  0  0  0  0  0  0
  160.6330  210.1590  156.6240 C   0  0  2  0  0  3  0  0  0  0  0  0
  159.3900  208.1570  157.2520 O   0  0  0  0  0  0  0  0  0  0  0  0
  158.7760  208.1260  155.9870 C   0  0  0  0  0  2  0  0  0  0  0  0
  161.8450  209.4060  154.5460 C   0  0  0  0  0  0  0  0  0  0  0  0
  161.5570  210.3410  155.4600 C   0  0  0  0  0  3  0  0  0  0  0  0
  163.4580  210.9460  153.7470 O   0  0  0  0  0  1  0  0  0  0  0  0
  162.6850  209.8320  153.3800 C   0  0  2  0  0  3  0  0  0  0  0  0
  161.8420  210.0600  152.1110 C   0  0  0  0  0  3  0  0  0  0  0  0
  160.3640  209.8030  152.3490 C   0  0  0  0  0  2  0  0  0  0  0  0
  161.1970  208.7690  151.6220 C   0  0  0  0  0  2  0  0  0  0  0  0
  161.3680  208.0830  154.5920 O   0  0  0  0  0  0  0  0  0  0  0  0
  162.1390  206.9430  154.2190 C   0  0  0  0  0  2  0  0  0  0  0  0
  161.2390  205.7340  154.1040 C   0  0  0  0  0  2  0  0  0  0  0  0
  160.2260  205.9990  153.2040 F   0  0  0  0  0  0  0  0  0  0  0  0
  161.2540  210.1300  148.6280 C   0  0  0  0  0  2  0  0  0  0  0  0
  161.7390  209.0720  147.8370 O   0  0  0  0  0  0  0  0  0  0  0  0
  162.4230  206.2450  146.4930 C   0  0  0  0  0  0  0  0  0  0  0  0
  160.7250  207.0340  148.5840 C   0  0  2  0  0  3  0  0  0  0  0  0
  163.3910  205.4410  146.4550 O   0  0  0  0  0  0  0  0  0  0  0  0
  162.7420  207.8320  149.6630 O   0  0  0  0  0  1  0  0  0  0  0  0
  161.9250  206.7120  147.7400 N   0  0  0  0  0  0  0  0  0  0  0  0
  161.7950  207.8990  148.6260 C   0  0  2  0  0  0  0  0  0  0  0  0
  161.8100  206.7490  145.2270 C   0  0  0  0  0  2  0  0  0  0  0  0
  161.2450  205.6310  144.3380 C   0  0  1  0  0  3  0  0  0  0  0  0
  161.5880  205.8220  142.8940 C   0  0  0  0  0  0  0  0  0  0  0  0
  162.0580  204.8480  142.2540 O   0  0  0  0  0  0  0  0  0  0  0  0
  161.8080  207.5110  141.0400 C   0  0  0  0  0  3  0  0  0  0  0  0
  161.3580  207.1350  142.2420 C   0  0  0  0  0  3  0  0  0  0  0  0
  162.0100  206.5670  138.7710 C   0  0  0  0  0  1  0  0  0  0  0  0
  162.6480  206.6640  140.1420 C   0  0  1  0  0  3  0  0  0  0  0  0
  163.9160  207.2290  140.0260 O   0  0  0  0  0  1  0  0  0  0  0  0
  161.7860  204.3010  144.8160 C   0  0  0  0  0  2  0  0  0  0  0  0
  160.6850  203.5100  145.4980 C   0  0  0  0  0  2  0  0  0  0  0  0
  159.7170  204.3890  145.9810 O   0  0  0  0  0  1  0  0  0  0  0  0
  160.6230  206.0410  150.1340 S   0  0  0  0  0  0  0  0  0  0  0  0
  162.0990  204.1790  148.9090 O   0  0  0  0  0  1  0  0  0  0  0  0
  160.8410  204.3560  149.4680 C   0  0  1  0  0  3  0  0  0  0  0  0
  160.5200  203.2670  150.4810 C   0  0  0  0  0  2  0  0  0  0  0  0
  160.8860  201.8940  149.9270 C   0  0  1  0  0  3  0  0  0  0  0  0
  161.2030  200.9460  151.0740 C   0  0  0  0  0  2  0  0  0  0  0  0
  160.5300  199.7380  150.9040 O   0  0  0  0  0  1  0  0  0  0  0  0
  159.7520  201.3610  149.1250 C   0  0  0  0  0  3  0  0  0  0  0  0
  158.6290  201.8140  149.2580 O   0  0  0  0  0  0  0  0  0  0  0  0
  1  3  2  0  0  0  0
  2  7  1  0  0  0  0
  3  2  1  0  0  0  0
  3 38  1  0  0  0  0
  4  1  1  0  0  0  0
  4  5  2  0  0  0  0
  5  2  1  0  0  0  0
  6  8  1  0  0  0  0
  7  6  1  0  0  0  0
  9  8  1  0  0  0  0
  9 14  1  1  0  0  0
 11  7  2  0  0  0  0
 11 12  1  0  0  0  0
 12 10  1  6  0  0  0
 12  9  1  0  0  0  0
 13 11  1  0  0  0  0
 14 15  1  0  0  0  0
 15 16  1  0  0  0  0
 15 19  1  1  0  0  0
 16 18  2  0  0  0  0
 18 17  1  0  0  0  0
 19 20  1  0  0  0  0
 21 25  1  0  0  0  0
 22 20  1  6  0  0  0
 22 24  1  0  0  0  0
 23 26  1  0  0  0  0
 23 22  1  0  0  0  0
 24 28  1  6  0  0  0
 24 21  1  0  0  0  0
 26 25  1  0  0  0  0
 27 34  1  0  0  0  0
 27 28  2  0  0  0  0
 30 29  1  1  0  0  0
 30 27  1  0  0  0  0
 31 32  1  0  0  0  0
 31 30  1  0  0  0  0
 33 31  1  0  0  0  0
 33 32  1  0  0  0  0
 35 34  1  0  0  0  0
 36 35  1  0  0  0  0
 37 36  1  0  0  0  0
 39 45  1  0  0  0  0
 39 38  1  0  0  0  0
 40 44  1  0  0  0  0
 41 45  1  0  0  0  0
 41 58  1  1  0  0  0
 42 40  2  0  0  0  0
 44 41  1  0  0  0  0
 44 45  1  0  0  0  0
 45 43  1  1  0  0  0
 46 40  1  0  0  0  0
 47 55  1  1  0  0  0
 47 46  1  0  0  0  0
 48 47  1  0  0  0  0
 49 48  2  0  0  0  0
 50 51  2  0  0  0  0
 51 48  1  0  0  0  0
 53 52  1  6  0  0  0
 53 50  1  0  0  0  0
 54 53  1  0  0  0  0
 55 56  1  0  0  0  0
 56 57  1  0  0  0  0
 60 59  1  1  0  0  0
 60 58  1  0  0  0  0
 60 61  1  0  0  0  0
 62 65  1  1  0  0  0
 62 61  1  0  0  0  0
 62 63  1  0  0  0  0
 64 63  1  0  0  0  0
 65 66  2  0  0  0  0
M  END
>  <MODEL>
4

>  <REMARK>
 VINA RESULT:       4.4      1.152      2.640
  Name = 
  29 active torsions:
  status: ('A' for Active; 'I' for Inactive)
    1  A    between atoms: C_1  and  C_26
    2  A    between atoms: N_2  and  C_30
    3  A    between atoms: N_2  and  C_40
    4  A    between atoms: C_3  and  O_20
    5  A    between atoms: C_3  and  C_66
    6  A    between atoms: C_5  and  C_66
    7  A    between atoms: C_6  and  C_10
    8  A    between atoms: C_7  and  C_13
    9  A    between atoms: C_7  and  C_32
   10  A    between atoms: C_7  and  C_54
   11  A    between atoms: C_9  and  C_25
   12  A    between atoms: C_10  and  C_38
   13  A    between atoms: C_10  and  C_61
   14  A    between atoms: C_12  and  O_15
   15  A    between atoms: C_12  and  C_57
   16  A    between atoms: C_13  and  C_42
   17  A    between atoms: C_14  and  C_39
   18  A    between atoms: O_15  and  C_59
   19  A    between atoms: C_16  and  N_17
   20  A    between atoms: O_20  and  C_26
   21  A    between atoms: C_21  and  C_23
   22  A    between atoms: C_25  and  C_65
   23  A    between atoms: N_27  and  C_40
   24  A    between atoms: C_29  and  C_54
   25  A    between atoms: C_31  and  C_32
   26  A    between atoms: C_35  and  S_37
   27  A    between atoms: S_37  and  C_56
   28  A    between atoms: C_40  and  C_65
   29  A    between atoms: C_56  and  C_61
                            x       y       z     vdW  Elec       q    Type
                         _______ _______ _______ _____ _____    ______ ____

>  <TORSDO>
F 29

$$$$
=
 OpenBabel11072409513D

 66 70  0  0  1  0  0  0  0  0999 V2000
  162.8320  207.9380  147.1760 N   0  0  0  0  0  0  0  0  0  0  0  0
  162.2710  207.9870  149.3190 N   0  0  0  0  0  0  0  0  0  0  0  0
  162.1590  207.3220  148.1610 C   0  0  0  0  0  0  0  0  0  0  0  0
  163.3530  209.0220  147.8000 C   0  0  0  0  0  3  0  0  0  0  0  0
  163.0090  209.0580  149.1080 N   0  0  0  0  0  0  0  0  0  0  0  0
  160.5110  208.5180  151.0080 C   0  0  0  0  0  2  0  0  0  0  0  0
  161.6760  207.6590  150.5830 C   0  0  0  0  0  0  0  0  0  0  0  0
  159.5720  207.9740  152.4780 S   0  0  0  0  0  0  0  0  0  0  0  0
  161.0700  207.6070  153.4150 C   0  0  2  0  0  3  0  0  0  0  0  0
  162.7880  205.7700  153.6630 C   0  0  0  0  0  1  0  0  0  0  0  0
  162.2930  206.7760  151.3980 C   0  0  0  0  0  0  0  0  0  0  0  0
  161.7320  206.4000  152.7550 C   0  0  2  0  0  3  0  0  0  0  0  0
  163.6050  206.1950  150.9730 C   0  0  0  0  0  1  0  0  0  0  0  0
  160.7130  207.3240  154.8020 N   0  0  0  0  0  2  0  0  0  0  0  0
  159.9440  208.4570  155.3090 C   0  0  1  0  0  3  0  0  0  0  0  0
  160.1890  208.6250  156.7410 N   0  0  0  0  0  0  0  0  0  0  0  0
  162.3920  209.4890  156.4450 N   0  0  0  0  0  1  0  0  0  0  0  0
  161.2880  209.1040  157.2570 C   0  0  0  0  0  3  0  0  0  0  0  0
  160.3270  209.7470  154.5760 C   0  0  0  0  0  2  0  0  0  0  0  0
  159.1720  210.2960  153.7380 C   0  0  0  0  0  2  0  0  0  0  0  0
  158.5310  214.1020  153.1370 C   0  0  0  0  0  2  0  0  0  0  0  0
  158.9440  211.7710  154.0400 C   0  0  1  0  0  3  0  0  0  0  0  0
  160.1290  212.3900  154.7790 C   0  0  0  0  0  2  0  0  0  0  0  0
  158.5330  212.6020  152.8080 C   0  0  2  0  0  3  0  0  0  0  0  0
  158.6950  214.3410  154.5090 O   0  0  0  0  0  0  0  0  0  0  0  0
  160.0000  213.9240  154.8300 C   0  0  0  0  0  2  0  0  0  0  0  0
  159.2790  212.9080  150.4200 C   0  0  0  0  0  0  0  0  0  0  0  0
  159.4370  212.3730  151.6370 C   0  0  0  0  0  3  0  0  0  0  0  0
  161.6060  212.6170  150.0920 O   0  0  0  0  0  1  0  0  0  0  0  0
  160.3710  212.6650  149.4240 C   0  0  2  0  0  3  0  0  0  0  0  0
  160.3380  213.6820  148.2670 C   0  0  0  0  0  3  0  0  0  0  0  0
  161.3330  213.3380  147.1720 C   0  0  0  0  0  2  0  0  0  0  0  0
  161.6470  214.4500  148.1510 C   0  0  0  0  0  2  0  0  0  0  0  0
  158.1880  213.7150  150.0480 O   0  0  0  0  0  0  0  0  0  0  0  0
  156.9370  213.2050  149.5910 C   0  0  0  0  0  2  0  0  0  0  0  0
  155.8060  213.9380  150.2770 C   0  0  0  0  0  2  0  0  0  0  0  0
  156.2530  214.4530  151.4770 F   0  0  0  0  0  0  0  0  0  0  0  0
  161.3490  206.0870  147.9670 C   0  0  0  0  0  2  0  0  0  0  0  0
  161.8580  205.3440  146.8860 O   0  0  0  0  0  0  0  0  0  0  0  0
  160.5750  203.1110  144.9810 C   0  0  0  0  0  0  0  0  0  0  0  0
  161.8160  205.5830  144.5030 C   0  0  2  0  0  3  0  0  0  0  0  0
  159.4280  202.6780  144.6940 O   0  0  0  0  0  0  0  0  0  0  0  0
  160.0210  206.5230  145.8300 O   0  0  0  0  0  1  0  0  0  0  0  0
  160.8550  204.5030  144.9120 N   0  0  0  0  0  0  0  0  0  0  0  0
  161.1680  205.7180  145.7090 C   0  0  2  0  0  0  0  0  0  0  0  0
  161.6450  202.1720  145.4350 C   0  0  0  0  0  2  0  0  0  0  0  0
  161.2230  201.3030  146.6290 C   0  0  1  0  0  3  0  0  0  0  0  0
  160.5940  202.1060  147.7250 C   0  0  0  0  0  0  0  0  0  0  0  0
  159.3730  201.9360  147.9700 O   0  0  0  0  0  0  0  0  0  0  0  0
  161.4030  203.2150  149.8350 C   0  0  0  0  0  3  0  0  0  0  0  0
  161.4120  203.0670  148.5060 C   0  0  0  0  0  3  0  0  0  0  0  0
  161.0100  200.9980  150.8400 C   0  0  0  0  0  1  0  0  0  0  0  0
  160.5410  202.4370  150.7740 C   0  0  1  0  0  3  0  0  0  0  0  0
  160.6060  203.0070  152.0430 O   0  0  0  0  0  1  0  0  0  0  0  0
  160.2480  200.2480  146.1510 C   0  0  0  0  0  2  0  0  0  0  0  0
  161.0080  199.0360  145.6440 C   0  0  0  0  0  2  0  0  0  0  0  0
  162.0700  198.7640  146.5030 O   0  0  0  0  0  1  0  0  0  0  0  0
  161.1280  206.7510  143.2520 S   0  0  0  0  0  0  0  0  0  0  0  0
  161.6120  205.2530  141.0920 O   0  0  0  0  0  1  0  0  0  0  0  0
  162.1440  206.3220  141.7980 C   0  0  1  0  0  3  0  0  0  0  0  0
  162.4190  207.5120  140.8900 C   0  0  0  0  0  2  0  0  0  0  0  0
  161.3270  207.6450  139.8340 C   0  0  1  0  0  3  0  0  0  0  0  0
  160.7640  209.0590  139.8550 C   0  0  0  0  0  2  0  0  0  0  0  0
  159.7010  209.1690  138.9610 O   0  0  0  0  0  1  0  0  0  0  0  0
  161.8910  207.3420  138.4920 C   0  0  0  0  0  3  0  0  0  0  0  0
  162.7320  208.0670  137.9920 O   0  0  0  0  0  0  0  0  0  0  0  0
  1  4  1  0  0  0  0
  1  3  2  0  0  0  0
  2  7  1  0  0  0  0
  3  2  1  0  0  0  0
  4  5  2  0  0  0  0
  5  2  1  0  0  0  0
  6  8  1  0  0  0  0
  7  6  1  0  0  0  0
  7 11  2  0  0  0  0
  8  9  1  0  0  0  0
  9 14  1  1  0  0  0
 11 12  1  0  0  0  0
 12  9  1  0  0  0  0
 12 10  1  1  0  0  0
 13 11  1  0  0  0  0
 14 15  1  0  0  0  0
 15 19  1  6  0  0  0
 15 16  1  0  0  0  0
 16 18  2  0  0  0  0
 17 18  1  0  0  0  0
 20 19  1  0  0  0  0
 21 25  1  0  0  0  0
 22 20  1  6  0  0  0
 22 23  1  0  0  0  0
 23 26  1  0  0  0  0
 24 28  1  6  0  0  0
 24 21  1  0  0  0  0
 24 22  1  0  0  0  0
 25 26  1  0  0  0  0
 27 28  2  0  0  0  0
 30 29  1  1  0  0  0
 30 27  1  0  0  0  0
 31 30  1  0  0  0  0
 32 33  1  0  0  0  0
 32 31  1  0  0  0  0
 33 31  1  0  0  0  0
 34 27  1  0  0  0  0
 35 34  1  0  0  0  0
 35 36  1  0  0  0  0
 36 37  1  0  0  0  0
 38  3  1  0  0  0  0
 39 38  1  0  0  0  0
 40 46  1  0  0  0  0
 41 58  1  6  0  0  0
 41 44  1  0  0  0  0
 41 45  1  0  0  0  0
 42 40  2  0  0  0  0
 44 40  1  0  0  0  0
 44 45  1  0  0  0  0
 45 43  1  1  0  0  0
 45 39  1  0  0  0  0
 47 46  1  6  0  0  0
 47 48  1  0  0  0  0
 48 49  2  0  0  0  0
 48 51  1  0  0  0  0
 50 53  1  0  0  0  0
 51 50  2  0  0  0  0
 53 52  1  1  0  0  0
 53 54  1  0  0  0  0
 55 47  1  0  0  0  0
 56 55  1  0  0  0  0
 56 57  1  0  0  0  0
 60 59  1  6  0  0  0
 60 58  1  0  0  0  0
 61 60  1  0  0  0  0
 62 65  1  6  0  0  0
 62 63  1  0  0  0  0
 62 61  1  0  0  0  0
 64 63  1  0  0  0  0
 66 65  2  0  0  0  0
M  END
>  <MODEL>
5

>  <REMARK>
 VINA RESULT:       4.6      3.132      7.235
  Name = 
  29 active torsions:
  status: ('A' for Active; 'I' for Inactive)
    1  A    between atoms: C_1  and  C_26
    2  A    between atoms: N_2  and  C_30
    3  A    between atoms: N_2  and  C_40
    4  A    between atoms: C_3  and  O_20
    5  A    between atoms: C_3  and  C_66
    6  A    between atoms: C_5  and  C_66
    7  A    between atoms: C_6  and  C_10
    8  A    between atoms: C_7  and  C_13
    9  A    between atoms: C_7  and  C_32
   10  A    between atoms: C_7  and  C_54
   11  A    between atoms: C_9  and  C_25
   12  A    between atoms: C_10  and  C_38
   13  A    between atoms: C_10  and  C_61
   14  A    between atoms: C_12  and  O_15
   15  A    between atoms: C_12  and  C_57
   16  A    between atoms: C_13  and  C_42
   17  A    between atoms: C_14  and  C_39
   18  A    between atoms: O_15  and  C_59
   19  A    between atoms: C_16  and  N_17
   20  A    between atoms: O_20  and  C_26
   21  A    between atoms: C_21  and  C_23
   22  A    between atoms: C_25  and  C_65
   23  A    between atoms: N_27  and  C_40
   24  A    between atoms: C_29  and  C_54
   25  A    between atoms: C_31  and  C_32
   26  A    between atoms: C_35  and  S_37
   27  A    between atoms: S_37  and  C_56
   28  A    between atoms: C_40  and  C_65
   29  A    between atoms: C_56  and  C_61
                            x       y       z     vdW  Elec       q    Type
                         _______ _______ _______ _____ _____    ______ ____

>  <TORSDO>
F 29

$$$$
=
 OpenBabel11072409513D

 66 70  0  0  1  0  0  0  0  0999 V2000
  161.1520  207.9120  154.4350 N   0  0  0  0  0  0  0  0  0  0  0  0
  160.9810  205.9260  153.4670 N   0  0  0  0  0  0  0  0  0  0  0  0
  161.2000  207.2340  153.2770 C   0  0  0  0  0  0  0  0  0  0  0  0
  160.8810  206.9410  155.3410 C   0  0  0  0  0  3  0  0  0  0  0  0
  160.7720  205.7280  154.7520 N   0  0  0  0  0  0  0  0  0  0  0  0
  159.5550  204.5450  151.9540 C   0  0  0  0  0  2  0  0  0  0  0  0
  160.9270  204.8900  152.4760 C   0  0  0  0  0  0  0  0  0  0  0  0
  159.4740  203.4200  150.5160 S   0  0  0  0  0  0  0  0  0  0  0  0
  160.7030  202.2950  151.2090 C   0  0  2  0  0  3  0  0  0  0  0  0
  163.2120  202.0710  151.4150 C   0  0  0  0  0  1  0  0  0  0  0  0
  162.0320  204.1540  152.2240 C   0  0  0  0  0  0  0  0  0  0  0  0
  162.0410  203.0300  151.2070 C   0  0  2  0  0  3  0  0  0  0  0  0
  163.2710  204.4170  153.0210 C   0  0  0  0  0  1  0  0  0  0  0  0
  160.7620  201.0850  150.3940 N   0  0  0  0  0  2  0  0  0  0  0  0
  161.2960  201.4490  149.0850 C   0  0  1  0  0  3  0  0  0  0  0  0
  160.2360  201.3890  148.0800 N   0  0  0  0  0  0  0  0  0  0  0  0
  161.4330  199.9080  146.6440 N   0  0  0  0  0  1  0  0  0  0  0  0
  160.2880  200.6830  146.9830 C   0  0  0  0  0  3  0  0  0  0  0  0
  161.8870  202.8640  149.1120 C   0  0  0  0  0  2  0  0  0  0  0  0
  160.8870  203.9130  148.6260 C   0  0  0  0  0  2  0  0  0  0  0  0
  161.1940  207.8000  148.4000 C   0  0  0  0  0  2  0  0  0  0  0  0
  161.4350  205.3170  148.8410 C   0  0  1  0  0  3  0  0  0  0  0  0
  162.8470  205.4690  148.2760 C   0  0  0  0  0  2  0  0  0  0  0  0
  160.4930  206.4350  148.3520 C   0  0  2  0  0  3  0  0  0  0  0  0
  162.4280  207.7360  149.0640 O   0  0  0  0  0  0  0  0  0  0  0  0
  163.2700  206.9490  148.2570 C   0  0  0  0  0  2  0  0  0  0  0  0
  160.7820  205.9550  145.8950 C   0  0  0  0  0  0  0  0  0  0  0  0
  160.0050  206.2000  146.9560 C   0  0  0  0  0  3  0  0  0  0  0  0
  158.7040  205.7580  144.7770 O   0  0  0  0  0  1  0  0  0  0  0  0
  160.0900  205.6090  144.6110 C   0  0  2  0  0  3  0  0  0  0  0  0
  160.5010  204.2200  144.0860 C   0  0  0  0  0  3  0  0  0  0  0  0
  159.3460  203.2350  144.1040 C   0  0  0  0  0  2  0  0  0  0  0  0
  160.4150  203.1570  145.1730 C   0  0  0  0  0  2  0  0  0  0  0  0
  162.1890  205.9520  145.9300 O   0  0  0  0  0  0  0  0  0  0  0  0
  163.0120  205.4360  144.8860 C   0  0  0  0  0  2  0  0  0  0  0  0
  163.7140  204.1840  145.3620 C   0  0  0  0  0  2  0  0  0  0  0  0
  164.4510  204.4720  146.4930 F   0  0  0  0  0  0  0  0  0  0  0  0
  161.4150  207.8740  151.9490 C   0  0  0  0  0  2  0  0  0  0  0  0
  160.4990  208.9270  151.7700 O   0  0  0  0  0  0  0  0  0  0  0  0
  160.5780  211.2690  153.9550 C   0  0  0  0  0  0  0  0  0  0  0  0
  160.5080  211.2410  151.1490 C   0  0  2  0  0  3  0  0  0  0  0  0
  161.4050  211.7560  154.7690 O   0  0  0  0  0  0  0  0  0  0  0  0
  162.6040  210.0360  151.3010 O   0  0  0  0  0  1  0  0  0  0  0  0
  160.9260  211.1100  152.5860 N   0  0  0  0  0  0  0  0  0  0  0  0
  161.2170  210.1190  151.5160 C   0  0  2  0  0  0  0  0  0  0  0  0
  159.2330  210.8160  154.4240 C   0  0  0  0  0  2  0  0  0  0  0  0
  158.5840  211.7790  155.4290 C   0  0  1  0  0  3  0  0  0  0  0  0
  157.2220  212.2240  154.9950 C   0  0  0  0  0  0  0  0  0  0  0  0
  156.2830  211.3880  155.0130 O   0  0  0  0  0  0  0  0  0  0  0  0
  157.4680  214.1990  153.4550 C   0  0  0  0  0  3  0  0  0  0  0  0
  156.9990  213.6270  154.5690 C   0  0  0  0  0  3  0  0  0  0  0  0
  157.4600  212.8590  151.3850 C   0  0  0  0  0  1  0  0  0  0  0  0
  158.3260  213.5150  152.4410 C   0  0  1  0  0  3  0  0  0  0  0  0
  159.1670  214.4490  151.8400 O   0  0  0  0  0  1  0  0  0  0  0  0
  158.4880  211.0950  156.7760 C   0  0  0  0  0  2  0  0  0  0  0  0
  159.7810  210.3560  157.0730 C   0  0  0  0  0  2  0  0  0  0  0  0
  159.5150  208.9950  157.2070 O   0  0  0  0  0  1  0  0  0  0  0  0
  161.5640  212.3950  150.1730 S   0  0  0  0  0  0  0  0  0  0  0  0
  159.8720  214.1650  149.1020 O   0  0  0  0  0  1  0  0  0  0  0  0
  160.3920  212.9000  148.8690 C   0  0  1  0  0  3  0  0  0  0  0  0
  160.9710  212.7820  147.4670 C   0  0  0  0  0  2  0  0  0  0  0  0
  159.9550  213.2390  146.4250 C   0  0  1  0  0  3  0  0  0  0  0  0
  160.5390  213.0690  145.0300 C   0  0  0  0  0  2  0  0  0  0  0  0
  159.6630  213.5780  144.0740 O   0  0  0  0  0  1  0  0  0  0  0  0
  158.7100  212.4370  146.5580 C   0  0  0  0  0  3  0  0  0  0  0  0
  157.6330  212.9820  146.7180 O   0  0  0  0  0  0  0  0  0  0  0  0
  1  4  1  0  0  0  0
  2  5  1  0  0  0  0
  3  2  1  0  0  0  0
  3  1  2  0  0  0  0
  5  4  2  0  0  0  0
  6  7  1  0  0  0  0
  7  2  1  0  0  0  0
  8  9  1  0  0  0  0
  8  6  1  0  0  0  0
  9 14  1  6  0  0  0
 11  7  2  0  0  0  0
 11 13  1  0  0  0  0
 12  9  1  0  0  0  0
 12 10  1  1  0  0  0
 12 11  1  0  0  0  0
 15 19  1  1  0  0  0
 15 14  1  0  0  0  0
 16 15  1  0  0  0  0
 17 18  1  0  0  0  0
 18 16  2  0  0  0  0
 20 19  1  0  0  0  0
 21 25  1  0  0  0  0
 22 20  1  6  0  0  0
 23 22  1  0  0  0  0
 24 28  1  6  0  0  0
 24 21  1  0  0  0  0
 24 22  1  0  0  0  0
 26 23  1  0  0  0  0
 26 25  1  0  0  0  0
 27 34  1  0  0  0  0
 27 28  2  0  0  0  0
 30 29  1  1  0  0  0
 30 27  1  0  0  0  0
 31 32  1  0  0  0  0
 31 30  1  0  0  0  0
 31 33  1  0  0  0  0
 32 33  1  0  0  0  0
 35 36  1  0  0  0  0
 35 34  1  0  0  0  0
 36 37  1  0  0  0  0
 38  3  1  0  0  0  0
 39 38  1  0  0  0  0
 40 46  1  0  0  0  0
 40 42  2  0  0  0  0
 41 58  1  6  0  0  0
 41 45  1  0  0  0  0
 41 44  1  0  0  0  0
 44 40  1  0  0  0  0
 45 43  1  6  0  0  0
 45 39  1  0  0  0  0
 45 44  1  0  0  0  0
 47 46  1  6  0  0  0
 47 55  1  0  0  0  0
 48 49  2  0  0  0  0
 48 47  1  0  0  0  0
 50 51  2  0  0  0  0
 51 48  1  0  0  0  0
 53 52  1  6  0  0  0
 53 50  1  0  0  0  0
 54 53  1  0  0  0  0
 55 56  1  0  0  0  0
 56 57  1  0  0  0  0
 60 59  1  1  0  0  0
 60 58  1  0  0  0  0
 61 60  1  0  0  0  0
 62 63  1  6  0  0  0
 62 65  1  0  0  0  0
 62 61  1  0  0  0  0
 64 63  1  0  0  0  0
 65 66  2  0  0  0  0
M  END
>  <MODEL>
6

>  <REMARK>
 VINA RESULT:       4.6      3.137     11.005
  Name = 
  29 active torsions:
  status: ('A' for Active; 'I' for Inactive)
    1  A    between atoms: C_1  and  C_26
    2  A    between atoms: N_2  and  C_30
    3  A    between atoms: N_2  and  C_40
    4  A    between atoms: C_3  and  O_20
    5  A    between atoms: C_3  and  C_66
    6  A    between atoms: C_5  and  C_66
    7  A    between atoms: C_6  and  C_10
    8  A    between atoms: C_7  and  C_13
    9  A    between atoms: C_7  and  C_32
   10  A    between atoms: C_7  and  C_54
   11  A    between atoms: C_9  and  C_25
   12  A    between atoms: C_10  and  C_38
   13  A    between atoms: C_10  and  C_61
   14  A    between atoms: C_12  and  O_15
   15  A    between atoms: C_12  and  C_57
   16  A    between atoms: C_13  and  C_42
   17  A    between atoms: C_14  and  C_39
   18  A    between atoms: O_15  and  C_59
   19  A    between atoms: C_16  and  N_17
   20  A    between atoms: O_20  and  C_26
   21  A    between atoms: C_21  and  C_23
   22  A    between atoms: C_25  and  C_65
   23  A    between atoms: N_27  and  C_40
   24  A    between atoms: C_29  and  C_54
   25  A    between atoms: C_31  and  C_32
   26  A    between atoms: C_35  and  S_37
   27  A    between atoms: S_37  and  C_56
   28  A    between atoms: C_40  and  C_65
   29  A    between atoms: C_56  and  C_61
                            x       y       z     vdW  Elec       q    Type
                         _______ _______ _______ _____ _____    ______ ____

>  <TORSDO>
F 29

$$$$
