=
 OpenBabel11072414013D

 29 31  0  0  1  0  0  0  0  0999 V2000
  160.8600  207.4110  152.5470 C   0  0  2  0  0  3  0  0  0  0  0  0
  161.1530  206.9900  151.1170 C   0  0  0  0  0  2  0  0  0  0  0  0
  161.4530  208.7970  152.7970 C   0  0  1  0  0  3  0  0  0  0  0  0
  162.0470  209.5000  151.2340 S   0  0  0  0  0  0  0  0  0  0  0  0
  161.5840  206.2430  153.6820 Cl  0  0  0  0  0  0  0  0  0  0  0  0
  162.3080  207.8250  150.6120 C   0  0  2  0  0  3  0  0  0  0  0  0
  159.5370  210.7130  155.4280 N   0  0  0  0  0  0  0  0  0  0  0  0
  157.8120  212.4120  155.3370 N   0  0  0  0  0  0  0  0  0  0  0  0
  160.4710  209.7210  153.4570 C   0  0  0  0  0  0  0  0  0  0  0  0
  159.6460  210.5450  152.6810 C   0  0  0  0  0  3  0  0  0  0  0  0
  160.4000  209.8220  154.8640 C   0  0  0  0  0  0  0  0  0  0  0  0
  158.7180  211.5100  154.6880 C   0  0  0  0  0  0  0  0  0  0  0  0
  157.7620  212.4640  156.5810 O   0  0  0  0  0  0  0  0  0  0  0  0
  158.7680  211.4380  153.2920 C   0  0  0  0  0  3  0  0  0  0  0  0
  156.9530  213.1910  154.5940 O   0  0  0  0  0  0  0  0  0  0  0  0
  161.2240  209.5260  157.1810 C   0  0  0  0  0  2  0  0  0  0  0  0
  162.4170  209.8930  156.3260 C   0  0  0  0  0  2  0  0  0  0  0  0
  161.3120  209.0180  155.7490 C   0  0  0  0  0  3  0  0  0  0  0  0
  162.3270  207.8340  149.0930 C   0  0  0  0  0  2  0  0  0  0  0  0
  161.1500  207.0490  148.5280 C   0  0  0  0  0  2  0  0  0  0  0  0
  162.1380  206.4870  146.4340 O   0  0  0  0  0  0  0  0  0  0  0  0
  161.6230  206.0660  147.5050 C   0  0  0  0  0  0  0  0  0  0  0  0
  161.5320  204.6590  147.7610 N   0  0  0  0  0  0  0  0  0  0  0  0
  160.7790  204.2070  148.7960 O   0  0  0  0  0  1  0  0  0  0  0  0
  162.1630  203.7050  146.8540 C   0  0  0  0  0  2  0  0  0  0  0  0
  161.1960  203.2830  145.7450 C   0  0  0  0  0  2  0  0  0  0  0  0
  160.9120  201.2780  147.0220 O   0  0  0  0  0  1  0  0  0  0  0  0
  160.7140  201.8760  145.9330 C   0  0  0  0  0  0  0  0  0  0  0  0
  160.0430  201.2330  144.8960 O   0  0  0  0  0  0  0  0  0  0  0  0
  1  3  1  0  0  0  0
  1  5  1  1  0  0  0
  2  1  1  0  0  0  0
  3  9  1  6  0  0  0
  4  3  1  0  0  0  0
  6 19  1  6  0  0  0
  6  2  1  0  0  0  0
  6  4  1  0  0  0  0
  8 13  2  0  0  0  0
  9 11  2  0  0  0  0
 10 14  2  0  0  0  0
 10  9  1  0  0  0  0
 11  7  1  0  0  0  0
 11 18  1  0  0  0  0
 12  8  1  0  0  0  0
 12  7  2  0  0  0  0
 14 12  1  0  0  0  0
 15  8  2  0  0  0  0
 17 16  1  0  0  0  0
 18 17  1  0  0  0  0
 18 16  1  0  0  0  0
 20 19  1  0  0  0  0
 21 22  2  0  0  0  0
 22 23  1  0  0  0  0
 22 20  1  0  0  0  0
 23 24  1  0  0  0  0
 25 23  1  0  0  0  0
 26 28  1  0  0  0  0
 26 25  1  0  0  0  0
 28 27  1  0  0  0  0
 29 28  2  0  0  0  0
M  END
>  <MODEL>
1

>  <REMARK>
 VINA RESULT:      -7.5      0.000      0.000
  Name = 
  8 active torsions:
  status: ('A' for Active; 'I' for Inactive)
    1  A    between atoms: C_1  and  C_20
    2  A    between atoms: C_1  and  C_25
    3  A    between atoms: C_6  and  C_12
    4  A    between atoms: C_8  and  C_19
    5  A    between atoms: C_13  and  C_19
    6  A    between atoms: C_13  and  C_29
    7  A    between atoms: C_14  and  C_15
    8  A    between atoms: C_20  and  N_21
                            x       y       z     vdW  Elec       q    Type
                         _______ _______ _______ _____ _____    ______ ____

>  <TORSDO>
F 8

$$$$
=
 OpenBabel11072414013D

 29 31  0  0  1  0  0  0  0  0999 V2000
  160.8350  207.6060  152.7870 C   0  0  2  0  0  3  0  0  0  0  0  0
  161.0620  206.9890  151.4170 C   0  0  0  0  0  2  0  0  0  0  0  0
  161.5030  208.9780  152.8400 C   0  0  1  0  0  3  0  0  0  0  0  0
  162.0840  209.4420  151.1860 S   0  0  0  0  0  0  0  0  0  0  0  0
  161.5330  206.5560  154.0460 Cl  0  0  0  0  0  0  0  0  0  0  0  0
  162.2430  207.6890  150.7800 C   0  0  2  0  0  3  0  0  0  0  0  0
  159.8260  211.3770  155.2260 N   0  0  0  0  0  0  0  0  0  0  0  0
  158.1260  213.0830  154.9650 N   0  0  0  0  0  0  0  0  0  0  0  0
  160.5900  210.0310  153.3970 C   0  0  0  0  0  0  0  0  0  0  0  0
  159.7210  210.7310  152.5510 C   0  0  0  0  0  3  0  0  0  0  0  0
  160.6290  210.3760  154.7660 C   0  0  0  0  0  0  0  0  0  0  0  0
  158.9650  212.0560  154.4200 C   0  0  0  0  0  0  0  0  0  0  0  0
  158.1710  213.3510  156.1810 O   0  0  0  0  0  0  0  0  0  0  0  0
  158.9070  211.7420  153.0580 C   0  0  0  0  0  3  0  0  0  0  0  0
  157.2240  213.7460  154.1610 O   0  0  0  0  0  0  0  0  0  0  0  0
  161.6770  210.5050  157.0060 C   0  0  0  0  0  2  0  0  0  0  0  0
  162.7890  210.6150  155.9860 C   0  0  0  0  0  2  0  0  0  0  0  0
  161.5930  209.7120  155.7100 C   0  0  0  0  0  3  0  0  0  0  0  0
  162.2160  207.5020  149.2730 C   0  0  0  0  0  2  0  0  0  0  0  0
  160.8840  206.9190  148.8190 C   0  0  0  0  0  2  0  0  0  0  0  0
  161.2410  205.9480  146.6730 O   0  0  0  0  0  0  0  0  0  0  0  0
  161.1080  205.7520  147.9120 C   0  0  0  0  0  0  0  0  0  0  0  0
  161.2170  204.4290  148.4520 N   0  0  0  0  0  0  0  0  0  0  0  0
  160.8490  204.1910  149.7370 O   0  0  0  0  0  1  0  0  0  0  0  0
  161.6240  203.3180  147.5970 C   0  0  0  0  0  2  0  0  0  0  0  0
  160.6110  202.1720  147.6710 C   0  0  0  0  0  2  0  0  0  0  0  0
  161.6070  199.9950  147.6890 O   0  0  0  0  0  0  0  0  0  0  0  0
  161.1810  200.9690  148.3610 C   0  0  0  0  0  0  0  0  0  0  0  0
  161.2400  200.9370  149.7520 O   0  0  0  0  0  1  0  0  0  0  0  0
  1  3  1  0  0  0  0
  1  5  1  1  0  0  0
  2  1  1  0  0  0  0
  3  9  1  6  0  0  0
  4  3  1  0  0  0  0
  6 19  1  6  0  0  0
  6  4  1  0  0  0  0
  6  2  1  0  0  0  0
  8 13  2  0  0  0  0
  9 11  2  0  0  0  0
 10 14  2  0  0  0  0
 10  9  1  0  0  0  0
 11  7  1  0  0  0  0
 11 18  1  0  0  0  0
 12  8  1  0  0  0  0
 12  7  2  0  0  0  0
 14 12  1  0  0  0  0
 15  8  2  0  0  0  0
 17 16  1  0  0  0  0
 18 17  1  0  0  0  0
 18 16  1  0  0  0  0
 20 19  1  0  0  0  0
 21 22  2  0  0  0  0
 22 23  1  0  0  0  0
 22 20  1  0  0  0  0
 23 24  1  0  0  0  0
 25 26  1  0  0  0  0
 25 23  1  0  0  0  0
 26 28  1  0  0  0  0
 27 28  2  0  0  0  0
 28 29  1  0  0  0  0
M  END
>  <MODEL>
2

>  <REMARK>
 VINA RESULT:      -7.5      1.063      1.333
  Name = 
  8 active torsions:
  status: ('A' for Active; 'I' for Inactive)
    1  A    between atoms: C_1  and  C_20
    2  A    between atoms: C_1  and  C_25
    3  A    between atoms: C_6  and  C_12
    4  A    between atoms: C_8  and  C_19
    5  A    between atoms: C_13  and  C_19
    6  A    between atoms: C_13  and  C_29
    7  A    between atoms: C_14  and  C_15
    8  A    between atoms: C_20  and  N_21
                            x       y       z     vdW  Elec       q    Type
                         _______ _______ _______ _____ _____    ______ ____

>  <TORSDO>
F 8

$$$$
=
 OpenBabel11072414013D

 29 31  0  0  1  0  0  0  0  0999 V2000
  161.0520  208.0480  151.1120 C   0  0  2  0  0  3  0  0  0  0  0  0
  160.5300  208.8810  152.2700 C   0  0  0  0  0  2  0  0  0  0  0  0
  161.8510  206.8660  151.6590 C   0  0  1  0  0  3  0  0  0  0  0  0
  161.6540  206.7740  153.4600 S   0  0  0  0  0  0  0  0  0  0  0  0
  162.1040  209.0460  150.0750 Cl  0  0  0  0  0  0  0  0  0  0  0  0
  161.3630  208.5570  153.4910 C   0  0  2  0  0  3  0  0  0  0  0  0
  160.9170  204.2860  149.0640 N   0  0  0  0  0  0  0  0  0  0  0  0
  160.4740  201.9060  149.1540 N   0  0  0  0  0  0  0  0  0  0  0  0
  161.4550  205.5700  151.0140 C   0  0  0  0  0  0  0  0  0  0  0  0
  161.3730  204.3980  151.7780 C   0  0  0  0  0  3  0  0  0  0  0  0
  161.2180  205.4920  149.6240 C   0  0  0  0  0  0  0  0  0  0  0  0
  160.8180  203.1420  149.7940 C   0  0  0  0  0  0  0  0  0  0  0  0
  160.2530  201.8750  147.9270 O   0  0  0  0  0  0  0  0  0  0  0  0
  161.0530  203.1850  151.1720 C   0  0  0  0  0  3  0  0  0  0  0  0
  160.3320  200.7530  149.8950 O   0  0  0  0  0  0  0  0  0  0  0  0
  160.8400  206.3870  147.3460 C   0  0  0  0  0  2  0  0  0  0  0  0
  162.3320  206.4190  147.5970 C   0  0  0  0  0  2  0  0  0  0  0  0
  161.3650  206.6990  148.7400 C   0  0  0  0  0  3  0  0  0  0  0  0
  160.6130  208.9370  154.7560 C   0  0  0  0  0  2  0  0  0  0  0  0
  161.1020  210.2730  155.3000 C   0  0  0  0  0  2  0  0  0  0  0  0
  160.2820  212.0240  153.9080 O   0  0  0  0  0  0  0  0  0  0  0  0
  160.1280  211.3580  154.9670 C   0  0  0  0  0  0  0  0  0  0  0  0
  159.0060  211.6070  155.8230 N   0  0  0  0  0  0  0  0  0  0  0  0
  158.9660  211.0570  157.0630 O   0  0  0  0  0  1  0  0  0  0  0  0
  157.9550  212.5300  155.4070 C   0  0  0  0  0  2  0  0  0  0  0  0
  156.8820  211.8060  154.5900 C   0  0  0  0  0  2  0  0  0  0  0  0
  155.6020  211.6510  156.6070 O   0  0  0  0  0  1  0  0  0  0  0  0
  155.8470  211.1720  155.4700 C   0  0  0  0  0  0  0  0  0  0  0  0
  155.1550  210.0500  155.0220 O   0  0  0  0  0  0  0  0  0  0  0  0
  1  5  1  6  0  0  0
  1  3  1  0  0  0  0
  1  2  1  0  0  0  0
  2  6  1  0  0  0  0
  3  9  1  6  0  0  0
  3  4  1  0  0  0  0
  4  6  1  0  0  0  0
  6 19  1  1  0  0  0
  7 11  2  0  0  0  0
  7 12  1  0  0  0  0
  8 12  1  0  0  0  0
  8 15  2  0  0  0  0
  9 10  2  0  0  0  0
 11  9  1  0  0  0  0
 12 14  2  0  0  0  0
 13  8  2  0  0  0  0
 14 10  1  0  0  0  0
 16 17  1  0  0  0  0
 16 18  1  0  0  0  0
 17 18  1  0  0  0  0
 18 11  1  0  0  0  0
 19 20  1  0  0  0  0
 21 22  2  0  0  0  0
 22 20  1  0  0  0  0
 22 23  1  0  0  0  0
 23 24  1  0  0  0  0
 25 23  1  0  0  0  0
 26 25  1  0  0  0  0
 26 28  1  0  0  0  0
 28 27  1  0  0  0  0
 29 28  2  0  0  0  0
M  END
>  <MODEL>
3

>  <REMARK>
 VINA RESULT:      -6.6      2.373      9.637
  Name = 
  8 active torsions:
  status: ('A' for Active; 'I' for Inactive)
    1  A    between atoms: C_1  and  C_20
    2  A    between atoms: C_1  and  C_25
    3  A    between atoms: C_6  and  C_12
    4  A    between atoms: C_8  and  C_19
    5  A    between atoms: C_13  and  C_19
    6  A    between atoms: C_13  and  C_29
    7  A    between atoms: C_14  and  C_15
    8  A    between atoms: C_20  and  N_21
                            x       y       z     vdW  Elec       q    Type
                         _______ _______ _______ _____ _____    ______ ____

>  <TORSDO>
F 8

$$$$
=
 OpenBabel11072414013D

 29 31  0  0  1  0  0  0  0  0999 V2000
  161.0230  207.8680  151.3600 C   0  0  2  0  0  3  0  0  0  0  0  0
  160.4490  208.5590  152.5850 C   0  0  0  0  0  2  0  0  0  0  0  0
  161.8150  206.6380  151.8000 C   0  0  1  0  0  3  0  0  0  0  0  0
  161.5540  206.3390  153.5700 S   0  0  0  0  0  0  0  0  0  0  0  0
  162.1000  208.9860  150.4840 Cl  0  0  0  0  0  0  0  0  0  0  0  0
  161.2400  208.1050  153.7920 C   0  0  2  0  0  3  0  0  0  0  0  0
  160.9640  204.3730  148.9000 N   0  0  0  0  0  0  0  0  0  0  0  0
  160.5910  201.9890  148.6920 N   0  0  0  0  0  0  0  0  0  0  0  0
  161.4600  205.4200  150.9970 C   0  0  0  0  0  0  0  0  0  0  0  0
  161.4110  204.1610  151.6090 C   0  0  0  0  0  3  0  0  0  0  0  0
  161.2270  205.5080  149.6070 C   0  0  0  0  0  0  0  0  0  0  0  0
  160.8970  203.1450  149.4820 C   0  0  0  0  0  0  0  0  0  0  0  0
  160.3730  202.1030  147.4700 O   0  0  0  0  0  0  0  0  0  0  0  0
  161.1280  203.0230  150.8560 C   0  0  0  0  0  3  0  0  0  0  0  0
  160.4820  200.7490  149.2830 O   0  0  0  0  0  0  0  0  0  0  0  0
  160.9340  206.6410  147.4240 C   0  0  0  0  0  2  0  0  0  0  0  0
  162.3990  206.7450  147.7880 C   0  0  0  0  0  2  0  0  0  0  0  0
  161.3390  206.8200  148.8800 C   0  0  0  0  0  3  0  0  0  0  0  0
  160.4400  208.3320  155.0630 C   0  0  0  0  0  2  0  0  0  0  0  0
  161.3120  208.9320  156.1570 C   0  0  0  0  0  2  0  0  0  0  0  0
  162.4000  210.9480  155.5030 O   0  0  0  0  0  0  0  0  0  0  0  0
  161.3760  210.4190  156.0150 C   0  0  0  0  0  0  0  0  0  0  0  0
  160.2660  211.2310  156.4180 N   0  0  0  0  0  0  0  0  0  0  0  0
  159.2740  210.6930  157.1710 O   0  0  0  0  0  1  0  0  0  0  0  0
  160.2480  212.6570  156.1070 C   0  0  0  0  0  2  0  0  0  0  0  0
  159.1320  212.9860  155.1120 C   0  0  0  0  0  2  0  0  0  0  0  0
  158.2350  211.3330  153.6290 O   0  0  0  0  0  1  0  0  0  0  0  0
  159.1910  212.1060  153.8990 C   0  0  0  0  0  0  0  0  0  0  0  0
  160.3080  212.1490  153.0700 O   0  0  0  0  0  0  0  0  0  0  0  0
  1  5  1  1  0  0  0
  1  3  1  0  0  0  0
  1  2  1  0  0  0  0
  2  6  1  0  0  0  0
  3  9  1  6  0  0  0
  3  4  1  0  0  0  0
  4  6  1  0  0  0  0
  6 19  1  1  0  0  0
  7 12  2  0  0  0  0
  7 11  1  0  0  0  0
  8 15  2  0  0  0  0
  8 12  1  0  0  0  0
  9 10  1  0  0  0  0
 11  9  2  0  0  0  0
 12 14  1  0  0  0  0
 13  8  2  0  0  0  0
 14 10  2  0  0  0  0
 16 17  1  0  0  0  0
 16 18  1  0  0  0  0
 17 18  1  0  0  0  0
 18 11  1  0  0  0  0
 19 20  1  0  0  0  0
 21 22  2  0  0  0  0
 22 20  1  0  0  0  0
 22 23  1  0  0  0  0
 23 24  1  0  0  0  0
 25 23  1  0  0  0  0
 26 25  1  0  0  0  0
 27 28  1  0  0  0  0
 28 26  1  0  0  0  0
 29 28  2  0  0  0  0
M  END
>  <MODEL>
4

>  <REMARK>
 VINA RESULT:      -6.5      2.367      9.521
  Name = 
  8 active torsions:
  status: ('A' for Active; 'I' for Inactive)
    1  A    between atoms: C_1  and  C_20
    2  A    between atoms: C_1  and  C_25
    3  A    between atoms: C_6  and  C_12
    4  A    between atoms: C_8  and  C_19
    5  A    between atoms: C_13  and  C_19
    6  A    between atoms: C_13  and  C_29
    7  A    between atoms: C_14  and  C_15
    8  A    between atoms: C_20  and  N_21
                            x       y       z     vdW  Elec       q    Type
                         _______ _______ _______ _____ _____    ______ ____

>  <TORSDO>
F 8

$$$$
=
 OpenBabel11072414013D

 29 31  0  0  1  0  0  0  0  0999 V2000
  161.6650  204.8520  151.9540 C   0  0  2  0  0  3  0  0  0  0  0  0
  162.0390  205.8200  153.0630 C   0  0  0  0  0  2  0  0  0  0  0  0
  160.7390  205.5560  150.9630 C   0  0  1  0  0  3  0  0  0  0  0  0
  160.6520  207.3250  151.3530 S   0  0  0  0  0  0  0  0  0  0  0  0
  160.8310  203.4360  152.6420 Cl  0  0  0  0  0  0  0  0  0  0  0  0
  161.0150  206.9330  153.0790 C   0  0  2  0  0  3  0  0  0  0  0  0
  161.5520  203.9030  147.6650 N   0  0  0  0  0  0  0  0  0  0  0  0
  162.2480  204.7390  145.5010 N   0  0  0  0  0  0  0  0  0  0  0  0
  161.1700  205.3450  149.5400 C   0  0  0  0  0  0  0  0  0  0  0  0
  161.4820  206.4430  148.7280 C   0  0  0  0  0  3  0  0  0  0  0  0
  161.2120  204.0510  148.9770 C   0  0  0  0  0  0  0  0  0  0  0  0
  161.8730  204.9580  146.8670 C   0  0  0  0  0  0  0  0  0  0  0  0
  162.2920  203.5820  145.0390 O   0  0  0  0  0  0  0  0  0  0  0  0
  161.8350  206.2530  147.3940 C   0  0  0  0  0  3  0  0  0  0  0  0
  162.6130  205.8000  144.7000 O   0  0  0  0  0  0  0  0  0  0  0  0
  161.2040  201.5740  149.0260 C   0  0  0  0  0  2  0  0  0  0  0  0
  159.7600  202.0260  149.0390 C   0  0  0  0  0  2  0  0  0  0  0  0
  160.8160  202.8400  149.7760 C   0  0  0  0  0  3  0  0  0  0  0  0
  161.5780  208.1570  153.7800 C   0  0  0  0  0  2  0  0  0  0  0  0
  160.9390  209.4330  153.2470 C   0  0  0  0  0  2  0  0  0  0  0  0
  160.5230  209.9310  155.5390 O   0  0  0  0  0  0  0  0  0  0  0  0
  160.1990  210.1400  154.3380 C   0  0  0  0  0  0  0  0  0  0  0  0
  159.1650  211.0780  154.0180 N   0  0  0  0  0  0  0  0  0  0  0  0
  158.6650  211.1300  152.7580 O   0  0  0  0  0  1  0  0  0  0  0  0
  158.5750  211.9060  155.0660 C   0  0  0  0  0  2  0  0  0  0  0  0
  157.4170  211.1780  155.7520 C   0  0  0  0  0  2  0  0  0  0  0  0
  155.8760  212.4610  154.4430 O   0  0  0  0  0  0  0  0  0  0  0  0
  156.1250  211.3680  155.0150 C   0  0  0  0  0  0  0  0  0  0  0  0
  155.2020  210.3280  154.9630 O   0  0  0  0  0  1  0  0  0  0  0  0
  1  5  1  1  0  0  0
  1  2  1  0  0  0  0
  2  6  1  0  0  0  0
  3  9  1  6  0  0  0
  3  4  1  0  0  0  0
  3  1  1  0  0  0  0
  4  6  1  0  0  0  0
  6 19  1  6  0  0  0
  7 11  1  0  0  0  0
  8 12  1  0  0  0  0
 10  9  1  0  0  0  0
 11  9  2  0  0  0  0
 11 18  1  0  0  0  0
 12 14  1  0  0  0  0
 12  7  2  0  0  0  0
 13  8  2  0  0  0  0
 14 10  2  0  0  0  0
 15  8  2  0  0  0  0
 16 17  1  0  0  0  0
 16 18  1  0  0  0  0
 17 18  1  0  0  0  0
 20 19  1  0  0  0  0
 20 22  1  0  0  0  0
 22 21  2  0  0  0  0
 23 22  1  0  0  0  0
 23 25  1  0  0  0  0
 24 23  1  0  0  0  0
 25 26  1  0  0  0  0
 27 28  2  0  0  0  0
 28 26  1  0  0  0  0
 29 28  1  0  0  0  0
M  END
>  <MODEL>
5

>  <REMARK>
 VINA RESULT:      -6.5      2.241      9.657
  Name = 
  8 active torsions:
  status: ('A' for Active; 'I' for Inactive)
    1  A    between atoms: C_1  and  C_20
    2  A    between atoms: C_1  and  C_25
    3  A    between atoms: C_6  and  C_12
    4  A    between atoms: C_8  and  C_19
    5  A    between atoms: C_13  and  C_19
    6  A    between atoms: C_13  and  C_29
    7  A    between atoms: C_14  and  C_15
    8  A    between atoms: C_20  and  N_21
                            x       y       z     vdW  Elec       q    Type
                         _______ _______ _______ _____ _____    ______ ____

>  <TORSDO>
F 8

$$$$
=
 OpenBabel11072414013D

 29 31  0  0  1  0  0  0  0  0999 V2000
  161.0050  207.8700  151.1970 C   0  0  2  0  0  3  0  0  0  0  0  0
  160.4560  208.6550  152.3760 C   0  0  0  0  0  2  0  0  0  0  0  0
  161.8050  206.6760  151.7140 C   0  0  1  0  0  3  0  0  0  0  0  0
  161.5790  206.5150  153.5060 S   0  0  0  0  0  0  0  0  0  0  0  0
  162.0650  208.9150  150.2160 Cl  0  0  0  0  0  0  0  0  0  0  0  0
  161.2710  208.2930  153.5980 C   0  0  2  0  0  3  0  0  0  0  0  0
  160.9200  204.1910  149.0100 N   0  0  0  0  0  0  0  0  0  0  0  0
  160.5160  201.8030  149.0000 N   0  0  0  0  0  0  0  0  0  0  0  0
  161.4320  205.4010  151.0140 C   0  0  0  0  0  0  0  0  0  0  0  0
  161.3680  204.1970  151.7280 C   0  0  0  0  0  3  0  0  0  0  0  0
  161.1990  205.3770  149.6210 C   0  0  0  0  0  0  0  0  0  0  0  0
  160.8380  203.0160  149.6920 C   0  0  0  0  0  0  0  0  0  0  0  0
  160.2980  201.8190  147.7730 O   0  0  0  0  0  0  0  0  0  0  0  0
  161.0690  203.0050  151.0720 C   0  0  0  0  0  3  0  0  0  0  0  0
  160.3910  200.6170  149.6920 O   0  0  0  0  0  0  0  0  0  0  0  0
  160.8450  206.3500  147.3710 C   0  0  0  0  0  2  0  0  0  0  0  0
  162.3290  206.4180  147.6590 C   0  0  0  0  0  2  0  0  0  0  0  0
  161.3280  206.6230  148.7880 C   0  0  0  0  0  3  0  0  0  0  0  0
  160.4960  208.6190  154.8630 C   0  0  0  0  0  2  0  0  0  0  0  0
  160.9620  209.9400  155.4630 C   0  0  0  0  0  2  0  0  0  0  0  0
  158.9980  210.8350  156.4720 O   0  0  0  0  0  0  0  0  0  0  0  0
  159.8270  210.9120  155.5240 C   0  0  0  0  0  0  0  0  0  0  0  0
  159.7100  211.9470  154.5400 N   0  0  0  0  0  0  0  0  0  0  0  0
  160.4550  211.8910  153.4080 O   0  0  0  0  0  1  0  0  0  0  0  0
  158.7190  213.0070  154.7040 C   0  0  0  0  0  2  0  0  0  0  0  0
  157.4870  212.7420  153.8370 C   0  0  0  0  0  2  0  0  0  0  0  0
  156.0100  211.0560  154.6790 O   0  0  0  0  0  0  0  0  0  0  0  0
  156.3200  212.2750  154.6560 C   0  0  0  0  0  0  0  0  0  0  0  0
  155.5830  213.1970  155.3940 O   0  0  0  0  0  1  0  0  0  0  0  0
  1  5  1  1  0  0  0
  1  3  1  0  0  0  0
  1  2  1  0  0  0  0
  2  6  1  0  0  0  0
  3  9  1  6  0  0  0
  3  4  1  0  0  0  0
  4  6  1  0  0  0  0
  6 19  1  1  0  0  0
  7 11  2  0  0  0  0
  7 12  1  0  0  0  0
  8 12  1  0  0  0  0
  8 15  2  0  0  0  0
  9 10  2  0  0  0  0
 11  9  1  0  0  0  0
 12 14  2  0  0  0  0
 13  8  2  0  0  0  0
 14 10  1  0  0  0  0
 16 17  1  0  0  0  0
 16 18  1  0  0  0  0
 17 18  1  0  0  0  0
 18 11  1  0  0  0  0
 19 20  1  0  0  0  0
 20 22  1  0  0  0  0
 22 21  2  0  0  0  0
 23 25  1  0  0  0  0
 23 22  1  0  0  0  0
 24 23  1  0  0  0  0
 26 28  1  0  0  0  0
 26 25  1  0  0  0  0
 28 27  2  0  0  0  0
 28 29  1  0  0  0  0
M  END
>  <MODEL>
6

>  <REMARK>
 VINA RESULT:      -6.5      2.335      9.690
  Name = 
  8 active torsions:
  status: ('A' for Active; 'I' for Inactive)
    1  A    between atoms: C_1  and  C_20
    2  A    between atoms: C_1  and  C_25
    3  A    between atoms: C_6  and  C_12
    4  A    between atoms: C_8  and  C_19
    5  A    between atoms: C_13  and  C_19
    6  A    between atoms: C_13  and  C_29
    7  A    between atoms: C_14  and  C_15
    8  A    between atoms: C_20  and  N_21
                            x       y       z     vdW  Elec       q    Type
                         _______ _______ _______ _____ _____    ______ ____

>  <TORSDO>
F 8

$$$$
=
 OpenBabel11072414013D

 29 31  0  0  1  0  0  0  0  0999 V2000
  161.7080  204.7220  151.7450 C   0  0  2  0  0  3  0  0  0  0  0  0
  162.1730  205.6920  152.8180 C   0  0  0  0  0  2  0  0  0  0  0  0
  160.6900  205.4170  150.8430 C   0  0  1  0  0  3  0  0  0  0  0  0
  160.6230  207.1850  151.2410 S   0  0  0  0  0  0  0  0  0  0  0  0
  160.9520  203.2980  152.5050 Cl  0  0  0  0  0  0  0  0  0  0  0  0
  161.1450  206.7960  152.9270 C   0  0  2  0  0  3  0  0  0  0  0  0
  161.3240  203.7620  147.5080 N   0  0  0  0  0  0  0  0  0  0  0  0
  161.7090  204.6020  145.2680 N   0  0  0  0  0  0  0  0  0  0  0  0
  160.9930  205.2110  149.3870 C   0  0  0  0  0  0  0  0  0  0  0  0
  161.1090  206.3110  148.5280 C   0  0  0  0  0  3  0  0  0  0  0  0
  161.1060  203.9120  148.8450 C   0  0  0  0  0  0  0  0  0  0  0  0
  161.4550  204.8210  146.6620 C   0  0  0  0  0  0  0  0  0  0  0  0
  161.8210  203.4430  144.8250 O   0  0  0  0  0  0  0  0  0  0  0  0
  161.3420  206.1200  147.1670 C   0  0  0  0  0  3  0  0  0  0  0  0
  161.8820  205.6710  144.4160 O   0  0  0  0  0  0  0  0  0  0  0  0
  161.1800  201.4360  148.8810 C   0  0  0  0  0  2  0  0  0  0  0  0
  159.7570  201.8460  149.1920 C   0  0  0  0  0  2  0  0  0  0  0  0
  160.9170  202.6900  149.7020 C   0  0  0  0  0  3  0  0  0  0  0  0
  161.7580  208.0260  153.5750 C   0  0  0  0  0  2  0  0  0  0  0  0
  160.7670  208.6970  154.5170 C   0  0  0  0  0  2  0  0  0  0  0  0
  161.6660  210.7230  153.6430 O   0  0  0  0  0  0  0  0  0  0  0  0
  160.7100  210.1680  154.2510 C   0  0  0  0  0  0  0  0  0  0  0  0
  159.5620  210.9290  154.6440 N   0  0  0  0  0  0  0  0  0  0  0  0
  158.6500  210.3880  155.4910 O   0  0  0  0  0  1  0  0  0  0  0  0
  159.4200  212.3180  154.2190 C   0  0  0  0  0  2  0  0  0  0  0  0
  158.2700  212.4710  153.2210 C   0  0  0  0  0  2  0  0  0  0  0  0
  159.9970  212.6950  151.5770 O   0  0  0  0  0  1  0  0  0  0  0  0
  158.7690  212.7760  151.8400 C   0  0  0  0  0  0  0  0  0  0  0  0
  157.8660  213.1480  150.8480 O   0  0  0  0  0  0  0  0  0  0  0  0
  1  5  1  1  0  0  0
  1  2  1  0  0  0  0
  2  6  1  0  0  0  0
  3  9  1  6  0  0  0
  3  4  1  0  0  0  0
  3  1  1  0  0  0  0
  4  6  1  0  0  0  0
  6 19  1  6  0  0  0
  7 11  1  0  0  0  0
  8 12  1  0  0  0  0
 10  9  1  0  0  0  0
 11  9  2  0  0  0  0
 11 18  1  0  0  0  0
 12 14  1  0  0  0  0
 12  7  2  0  0  0  0
 13  8  2  0  0  0  0
 14 10  2  0  0  0  0
 15  8  2  0  0  0  0
 16 17  1  0  0  0  0
 16 18  1  0  0  0  0
 17 18  1  0  0  0  0
 19 20  1  0  0  0  0
 21 22  2  0  0  0  0
 22 20  1  0  0  0  0
 22 23  1  0  0  0  0
 23 24  1  0  0  0  0
 25 23  1  0  0  0  0
 26 25  1  0  0  0  0
 27 28  1  0  0  0  0
 28 26  1  0  0  0  0
 29 28  2  0  0  0  0
M  END
>  <MODEL>
7

>  <REMARK>
 VINA RESULT:      -6.4      2.437      9.439
  Name = 
  8 active torsions:
  status: ('A' for Active; 'I' for Inactive)
    1  A    between atoms: C_1  and  C_20
    2  A    between atoms: C_1  and  C_25
    3  A    between atoms: C_6  and  C_12
    4  A    between atoms: C_8  and  C_19
    5  A    between atoms: C_13  and  C_19
    6  A    between atoms: C_13  and  C_29
    7  A    between atoms: C_14  and  C_15
    8  A    between atoms: C_20  and  N_21
                            x       y       z     vdW  Elec       q    Type
                         _______ _______ _______ _____ _____    ______ ____

>  <TORSDO>
F 8

$$$$
=
 OpenBabel11072414013D

 29 31  0  0  1  0  0  0  0  0999 V2000
  161.8200  204.9270  151.7230 C   0  0  2  0  0  3  0  0  0  0  0  0
  162.2840  205.9890  152.7060 C   0  0  0  0  0  2  0  0  0  0  0  0
  160.7240  205.5080  150.8320 C   0  0  1  0  0  3  0  0  0  0  0  0
  160.5820  207.2930  151.1190 S   0  0  0  0  0  0  0  0  0  0  0  0
  161.1800  203.5200  152.6110 Cl  0  0  0  0  0  0  0  0  0  0  0  0
  161.2040  207.0440  152.7960 C   0  0  2  0  0  3  0  0  0  0  0  0
  161.1920  203.6710  147.5650 N   0  0  0  0  0  0  0  0  0  0  0  0
  161.5120  204.3870  145.2730 N   0  0  0  0  0  0  0  0  0  0  0  0
  160.9670  205.2210  149.3780 C   0  0  0  0  0  0  0  0  0  0  0  0
  161.0770  206.2730  148.4600 C   0  0  0  0  0  3  0  0  0  0  0  0
  161.0280  203.8940  148.9000 C   0  0  0  0  0  0  0  0  0  0  0  0
  161.3170  204.6820  146.6620 C   0  0  0  0  0  0  0  0  0  0  0  0
  161.5800  203.2040  144.8860 O   0  0  0  0  0  0  0  0  0  0  0  0
  161.2540  206.0080  147.1040 C   0  0  0  0  0  3  0  0  0  0  0  0
  161.6800  205.4060  144.3610 O   0  0  0  0  0  0  0  0  0  0  0  0
  161.1900  201.4300  149.1010 C   0  0  0  0  0  2  0  0  0  0  0  0
  159.7390  201.8020  149.3170 C   0  0  0  0  0  2  0  0  0  0  0  0
  160.8410  202.7220  149.8250 C   0  0  0  0  0  3  0  0  0  0  0  0
  161.7800  208.3440  153.3320 C   0  0  0  0  0  2  0  0  0  0  0  0
  161.0870  209.5470  152.7070 C   0  0  0  0  0  2  0  0  0  0  0  0
  160.0870  209.7810  154.8570 O   0  0  0  0  0  0  0  0  0  0  0  0
  160.3550  210.3270  153.7520 C   0  0  0  0  0  0  0  0  0  0  0  0
  160.0010  211.6960  153.5150 N   0  0  0  0  0  0  0  0  0  0  0  0
  160.0810  212.2070  152.2610 O   0  0  0  0  0  1  0  0  0  0  0  0
  159.4600  212.5120  154.5980 C   0  0  0  0  0  2  0  0  0  0  0  0
  158.1750  213.2180  154.1600 C   0  0  0  0  0  2  0  0  0  0  0  0
  157.0700  211.2820  155.0330 O   0  0  0  0  0  1  0  0  0  0  0  0
  156.9540  212.4210  154.5120 C   0  0  0  0  0  0  0  0  0  0  0  0
  155.6910  212.9480  154.2610 O   0  0  0  0  0  0  0  0  0  0  0  0
  1  5  1  1  0  0  0
  1  2  1  0  0  0  0
  2  6  1  0  0  0  0
  3  9  1  6  0  0  0
  3  4  1  0  0  0  0
  3  1  1  0  0  0  0
  4  6  1  0  0  0  0
  6 19  1  6  0  0  0
  7 11  1  0  0  0  0
  8 12  1  0  0  0  0
 10  9  1  0  0  0  0
 11  9  2  0  0  0  0
 11 18  1  0  0  0  0
 12 14  1  0  0  0  0
 12  7  2  0  0  0  0
 13  8  2  0  0  0  0
 14 10  2  0  0  0  0
 15  8  2  0  0  0  0
 16 17  1  0  0  0  0
 16 18  1  0  0  0  0
 17 18  1  0  0  0  0
 20 19  1  0  0  0  0
 20 22  1  0  0  0  0
 22 21  2  0  0  0  0
 23 22  1  0  0  0  0
 23 25  1  0  0  0  0
 24 23  1  0  0  0  0
 26 28  1  0  0  0  0
 26 25  1  0  0  0  0
 28 27  1  0  0  0  0
 29 28  2  0  0  0  0
M  END
>  <MODEL>
8

>  <REMARK>
 VINA RESULT:      -6.3      2.249      9.699
  Name = 
  8 active torsions:
  status: ('A' for Active; 'I' for Inactive)
    1  A    between atoms: C_1  and  C_20
    2  A    between atoms: C_1  and  C_25
    3  A    between atoms: C_6  and  C_12
    4  A    between atoms: C_8  and  C_19
    5  A    between atoms: C_13  and  C_19
    6  A    between atoms: C_13  and  C_29
    7  A    between atoms: C_14  and  C_15
    8  A    between atoms: C_20  and  N_21
                            x       y       z     vdW  Elec       q    Type
                         _______ _______ _______ _____ _____    ______ ____

>  <TORSDO>
F 8

$$$$
=
 OpenBabel11072414013D

 29 31  0  0  1  0  0  0  0  0999 V2000
  160.6760  207.5550  154.6390 C   0  0  2  0  0  3  0  0  0  0  0  0
  160.7440  206.2970  153.7900 C   0  0  0  0  0  2  0  0  0  0  0  0
  161.2860  208.7210  153.8620 C   0  0  1  0  0  3  0  0  0  0  0  0
  161.6190  208.2130  152.1530 S   0  0  0  0  0  0  0  0  0  0  0  0
  161.5820  207.3130  156.1540 Cl  0  0  0  0  0  0  0  0  0  0  0  0
  161.7970  206.5090  152.7250 C   0  0  2  0  0  3  0  0  0  0  0  0
  159.5600  211.8720  155.0280 N   0  0  0  0  0  0  0  0  0  0  0  0
  158.0610  213.4500  153.9650 N   0  0  0  0  0  0  0  0  0  0  0  0
  160.4100  209.9400  153.8930 C   0  0  0  0  0  0  0  0  0  0  0  0
  159.7130  210.3380  152.7460 C   0  0  0  0  0  3  0  0  0  0  0  0
  160.3190  210.7400  155.0540 C   0  0  0  0  0  0  0  0  0  0  0  0
  158.8640  212.2630  153.9260 C   0  0  0  0  0  0  0  0  0  0  0  0
  157.9870  214.1240  155.0110 O   0  0  0  0  0  0  0  0  0  0  0  0
  158.9380  211.4960  152.7590 C   0  0  0  0  0  3  0  0  0  0  0  0
  157.3220  213.8290  152.8650 O   0  0  0  0  0  0  0  0  0  0  0  0
  161.3660  211.6730  157.0960 C   0  0  0  0  0  2  0  0  0  0  0  0
  162.4740  211.0680  156.2610 C   0  0  0  0  0  2  0  0  0  0  0  0
  161.1030  210.4060  156.2940 C   0  0  0  0  0  3  0  0  0  0  0  0
  161.5760  205.5490  151.5680 C   0  0  0  0  0  2  0  0  0  0  0  0
  160.8180  206.2270  150.4340 C   0  0  0  0  0  2  0  0  0  0  0  0
  161.1200  204.4700  148.8530 O   0  0  0  0  0  0  0  0  0  0  0  0
  161.2720  205.6950  149.1120 C   0  0  0  0  0  0  0  0  0  0  0  0
  161.8350  206.5780  148.1340 N   0  0  0  0  0  0  0  0  0  0  0  0
  162.2080  207.8330  148.4910 O   0  0  0  0  0  1  0  0  0  0  0  0
  162.1020  206.1000  146.7810 C   0  0  0  0  0  2  0  0  0  0  0  0
  160.8080  206.0020  145.9690 C   0  0  0  0  0  2  0  0  0  0  0  0
  161.5310  205.4430  143.7560 O   0  0  0  0  0  0  0  0  0  0  0  0
  160.9500  205.0660  144.8070 C   0  0  0  0  0  0  0  0  0  0  0  0
  160.4380  203.7750  144.8950 O   0  0  0  0  0  1  0  0  0  0  0  0
  1  5  1  1  0  0  0
  2  1  1  0  0  0  0
  3  9  1  6  0  0  0
  3  1  1  0  0  0  0
  4  6  1  0  0  0  0
  4  3  1  0  0  0  0
  6 19  1  6  0  0  0
  6  2  1  0  0  0  0
  7 11  1  0  0  0  0
  8 13  2  0  0  0  0
  9 11  2  0  0  0  0
 10 14  2  0  0  0  0
 10  9  1  0  0  0  0
 11 18  1  0  0  0  0
 12  8  1  0  0  0  0
 12  7  2  0  0  0  0
 14 12  1  0  0  0  0
 15  8  2  0  0  0  0
 17 18  1  0  0  0  0
 17 16  1  0  0  0  0
 18 16  1  0  0  0  0
 20 19  1  0  0  0  0
 21 22  2  0  0  0  0
 22 20  1  0  0  0  0
 23 24  1  0  0  0  0
 23 22  1  0  0  0  0
 25 23  1  0  0  0  0
 26 25  1  0  0  0  0
 27 28  2  0  0  0  0
 28 29  1  0  0  0  0
 28 26  1  0  0  0  0
M  END
>  <MODEL>
9

>  <REMARK>
 VINA RESULT:      -6.3      1.823      2.373
  Name = 
  8 active torsions:
  status: ('A' for Active; 'I' for Inactive)
    1  A    between atoms: C_1  and  C_20
    2  A    between atoms: C_1  and  C_25
    3  A    between atoms: C_6  and  C_12
    4  A    between atoms: C_8  and  C_19
    5  A    between atoms: C_13  and  C_19
    6  A    between atoms: C_13  and  C_29
    7  A    between atoms: C_14  and  C_15
    8  A    between atoms: C_20  and  N_21
                            x       y       z     vdW  Elec       q    Type
                         _______ _______ _______ _____ _____    ______ ____

>  <TORSDO>
F 8

$$$$
