=
 OpenBabel11072412193D

 38 41  0  0  1  0  0  0  0  0999 V2000
  161.0270  210.8270  153.1990 C   0  0  0  0  0  2  0  0  0  0  0  0
  161.3760  209.3580  153.0380 C   0  0  1  0  0  3  0  0  0  0  0  0
  160.3790  208.5510  153.6140 O   0  0  0  0  0  0  0  0  0  0  0  0
  161.5470  209.0300  151.5500 C   0  0  0  0  0  2  0  0  0  0  0  0
  160.9340  207.2600  153.7140 C   0  0  0  0  0  2  0  0  0  0  0  0
  161.2160  206.6460  152.3300 C   0  0  0  0  0  2  0  0  0  0  0  0
  160.9650  207.6530  151.1960 C   0  0  2  0  0  3  0  0  0  0  0  0
  161.5010  207.1400  149.8510 C   0  0  2  0  0  3  0  0  0  0  0  0
  161.6600  208.2750  148.8490 C   0  0  0  0  0  2  0  0  0  0  0  0
  162.9140  208.2080  148.2420 O   0  0  0  0  0  1  0  0  0  0  0  0
  160.5550  206.1120  149.2480 C   0  0  0  0  0  2  0  0  0  0  0  0
  160.8450  205.3180  146.8890 C   0  0  0  0  0  1  0  0  0  0  0  0
  161.3140  205.1670  148.3270 C   0  0  2  0  0  3  0  0  0  0  0  0
  160.7490  202.0980  150.5090 C   0  0  0  0  0  3  0  0  0  0  0  0
  161.3040  202.7180  147.8390 C   0  0  0  0  0  3  0  0  0  0  0  0
  161.1750  203.7470  148.7790 C   0  0  0  0  0  0  0  0  0  0  0  0
  160.8930  203.4330  150.1180 C   0  0  0  0  0  3  0  0  0  0  0  0
  160.8830  201.0750  149.5660 C   0  0  0  0  0  3  0  0  0  0  0  0
  161.1600  201.3840  148.2320 C   0  0  0  0  0  3  0  0  0  0  0  0
  160.1270  211.5470  155.4020 C   0  0  0  0  0  1  0  0  0  0  0  0
  159.7640  210.9960  154.0310 C   0  0  1  0  0  3  0  0  0  0  0  0
  158.7250  211.8580  153.3000 C   0  0  1  0  0  3  0  0  0  0  0  0
  157.5660  212.2230  154.1850 C   0  0  0  0  0  0  0  0  0  0  0  0
  155.8230  212.8070  156.3870 C   0  0  1  0  0  3  0  0  0  0  0  0
  156.7400  211.1820  154.8750 C   0  0  0  0  0  2  0  0  0  0  0  0
  157.3400  213.5050  154.4820 C   0  0  0  0  0  3  0  0  0  0  0  0
  156.2360  213.8990  155.4340 C   0  0  2  0  0  3  0  0  0  0  0  0
  156.5940  211.5600  156.2790 N   0  0  0  0  0  2  0  0  0  0  0  0
  156.6970  213.8460  156.7640 O   0  0  0  0  0  0  0  0  0  0  0  0
  159.3260  213.0840  152.6140 C   0  0  0  0  0  2  0  0  0  0  0  0
  158.8470  213.1680  151.1730 C   0  0  0  0  0  2  0  0  0  0  0  0
  159.9680  213.2490  150.2750 N   0  0  0  0  0  0  0  0  0  0  0  0
  159.8150  213.6910  149.0790 C   0  0  0  0  0  3  0  0  0  0  0  0
  160.9760  213.7610  148.1330 C   0  0  1  0  0  3  0  0  0  0  0  0
  162.1620  213.7370  148.8440 F   0  0  0  0  0  0  0  0  0  0  0  0
  160.9500  212.6030  147.1420 C   0  0  0  0  0  2  0  0  0  0  0  0
  159.4690  212.2810  145.1580 C   0  0  0  0  0  1  0  0  0  0  0  0
  160.6210  213.0830  145.7360 C   0  0  0  0  0  2  0  0  0  0  0  0
  1 21  1  0  0  0  0
  2  1  1  6  0  0  0
  2  3  1  0  0  0  0
  3  5  1  0  0  0  0
  4  2  1  0  0  0  0
  6  5  1  0  0  0  0
  7  8  1  6  0  0  0
  7  4  1  0  0  0  0
  7  6  1  0  0  0  0
  8  9  1  6  0  0  0
 10  9  1  0  0  0  0
 11  8  1  0  0  0  0
 13 12  1  6  0  0  0
 13 16  1  0  0  0  0
 13 11  1  0  0  0  0
 15 19  2  0  0  0  0
 15 16  1  0  0  0  0
 16 17  2  0  0  0  0
 17 14  1  0  0  0  0
 18 14  2  0  0  0  0
 19 18  1  0  0  0  0
 21 20  1  1  0  0  0
 22 30  1  1  0  0  0
 22 21  1  0  0  0  0
 22 23  1  0  0  0  0
 23 26  2  0  0  0  0
 23 25  1  0  0  0  0
 24 28  1  6  0  0  0
 24 29  1  0  0  0  0
 25 28  1  0  0  0  0
 27 26  1  6  0  0  0
 27 24  1  0  0  0  0
 27 29  1  0  0  0  0
 31 30  1  0  0  0  0
 32 31  1  0  0  0  0
 33 32  2  0  0  0  0
 34 35  1  1  0  0  0
 34 33  1  0  0  0  0
 36 34  1  0  0  0  0
 37 38  1  0  0  0  0
 38 36  1  0  0  0  0
M  END
>  <MODEL>
1

>  <REMARK>
 VINA RESULT:      -7.6      0.000      0.000
  Name = 
  15 active torsions:
  status: ('A' for Active; 'I' for Inactive)
    1  A    between atoms: N_2  and  C_14
    2  A    between atoms: C_3  and  C_4
    3  A    between atoms: C_3  and  C_25
    4  A    between atoms: C_3  and  C_36
    5  A    between atoms: C_6  and  C_18
    6  A    between atoms: C_8  and  C_9
    7  A    between atoms: C_8  and  C_26
    8  A    between atoms: C_13  and  C_37
    9  A    between atoms: C_13  and  C_38
   10  A    between atoms: C_14  and  C_25
   11  A    between atoms: C_17  and  C_38
   12  A    between atoms: C_18  and  C_36
   13  A    between atoms: C_19  and  C_37
   14  A    between atoms: C_26  and  C_30
   15  A    between atoms: C_34  and  C_37
                            x       y       z     vdW  Elec       q    Type
                         _______ _______ _______ _____ _____    ______ ____

>  <TORSDO>
F 15

$$$$
=
 OpenBabel11072412193D

 38 41  0  0  1  0  0  0  0  0999 V2000
  162.0510  207.8270  150.9030 C   0  0  0  0  0  2  0  0  0  0  0  0
  161.1550  208.0490  152.1100 C   0  0  1  0  0  3  0  0  0  0  0  0
  161.7590  207.5330  153.2700 O   0  0  0  0  0  0  0  0  0  0  0  0
  160.8670  209.5470  152.2670 C   0  0  0  0  0  2  0  0  0  0  0  0
  160.7440  207.4820  154.2460 C   0  0  0  0  0  2  0  0  0  0  0  0
  160.2420  208.8860  154.6290 C   0  0  0  0  0  2  0  0  0  0  0  0
  160.8650  209.9780  153.7420 C   0  0  2  0  0  3  0  0  0  0  0  0
  160.1680  211.3330  153.9350 C   0  0  2  0  0  3  0  0  0  0  0  0
  159.6770  211.5030  155.3660 C   0  0  0  0  0  2  0  0  0  0  0  0
  160.5530  212.3190  156.0810 O   0  0  0  0  0  1  0  0  0  0  0  0
  158.9670  211.4610  153.0100 C   0  0  0  0  0  2  0  0  0  0  0  0
  157.3330  213.3520  153.1840 C   0  0  0  0  0  1  0  0  0  0  0  0
  158.7020  212.9240  152.6820 C   0  0  2  0  0  3  0  0  0  0  0  0
  160.1700  213.5130  149.2180 C   0  0  0  0  0  3  0  0  0  0  0  0
  157.6640  213.2760  150.4390 C   0  0  0  0  0  3  0  0  0  0  0  0
  158.8260  213.1780  151.2130 C   0  0  0  0  0  0  0  0  0  0  0  0
  160.0830  213.2950  150.5970 C   0  0  0  0  0  3  0  0  0  0  0  0
  159.0060  213.6150  148.4520 C   0  0  0  0  0  3  0  0  0  0  0  0
  157.7540  213.4950  149.0610 C   0  0  0  0  0  3  0  0  0  0  0  0
  161.9230  208.7180  148.5850 C   0  0  0  0  0  1  0  0  0  0  0  0
  161.2380  207.8330  149.6170 C   0  0  1  0  0  3  0  0  0  0  0  0
  160.9900  206.4060  149.1060 C   0  0  1  0  0  3  0  0  0  0  0  0
  161.2620  206.2760  147.6340 C   0  0  0  0  0  0  0  0  0  0  0  0
  161.7120  205.3400  144.9590 C   0  0  1  0  0  3  0  0  0  0  0  0
  162.6170  205.9090  147.1100 C   0  0  0  0  0  2  0  0  0  0  0  0
  160.2520  206.3500  146.7650 C   0  0  0  0  0  3  0  0  0  0  0  0
  160.4790  206.1410  145.2870 C   0  0  2  0  0  3  0  0  0  0  0  0
  162.4610  204.8430  146.1230 N   0  0  0  0  0  2  0  0  0  0  0  0
  160.4240  204.7690  144.9750 O   0  0  0  0  0  0  0  0  0  0  0  0
  161.7170  205.3350  149.9180 C   0  0  0  0  0  2  0  0  0  0  0  0
  160.7800  204.7350  150.9540 C   0  0  0  0  0  2  0  0  0  0  0  0
  160.6890  203.3090  150.7830 N   0  0  0  0  0  0  0  0  0  0  0  0
  160.4970  202.8040  149.6180 C   0  0  0  0  0  3  0  0  0  0  0  0
  160.3830  201.3200  149.4350 C   0  0  1  0  0  3  0  0  0  0  0  0
  159.0520  200.9610  149.3340 F   0  0  0  0  0  0  0  0  0  0  0  0
  161.1340  200.8580  148.1920 C   0  0  0  0  0  2  0  0  0  0  0  0
  160.4660  201.3410  145.8350 C   0  0  0  0  0  1  0  0  0  0  0  0
  161.0920  201.9110  147.0940 C   0  0  0  0  0  2  0  0  0  0  0  0
  2  1  1  6  0  0  0
  2  4  1  0  0  0  0
  2  3  1  0  0  0  0
  3  5  1  0  0  0  0
  4  7  1  0  0  0  0
  5  6  1  0  0  0  0
  7  8  1  6  0  0  0
  7  6  1  0  0  0  0
  8 11  1  6  0  0  0
  8  9  1  0  0  0  0
  9 10  1  0  0  0  0
 13 11  1  0  0  0  0
 13 12  1  6  0  0  0
 14 17  1  0  0  0  0
 15 16  1  0  0  0  0
 16 13  1  0  0  0  0
 17 16  2  0  0  0  0
 18 19  1  0  0  0  0
 18 14  2  0  0  0  0
 19 15  2  0  0  0  0
 21 20  1  6  0  0  0
 21  1  1  0  0  0  0
 22 21  1  0  0  0  0
 22 30  1  1  0  0  0
 23 22  1  0  0  0  0
 24 29  1  6  0  0  0
 24 27  1  0  0  0  0
 24 28  1  0  0  0  0
 25 23  1  0  0  0  0
 26 23  2  0  0  0  0
 27 26  1  1  0  0  0
 28 25  1  0  0  0  0
 29 27  1  0  0  0  0
 30 31  1  0  0  0  0
 32 31  1  0  0  0  0
 33 32  2  0  0  0  0
 34 35  1  6  0  0  0
 34 33  1  0  0  0  0
 36 34  1  0  0  0  0
 37 38  1  0  0  0  0
 38 36  1  0  0  0  0
M  END
>  <MODEL>
2

>  <REMARK>
 VINA RESULT:      -7.5      3.666      9.778
  Name = 
  15 active torsions:
  status: ('A' for Active; 'I' for Inactive)
    1  A    between atoms: N_2  and  C_14
    2  A    between atoms: C_3  and  C_4
    3  A    between atoms: C_3  and  C_25
    4  A    between atoms: C_3  and  C_36
    5  A    between atoms: C_6  and  C_18
    6  A    between atoms: C_8  and  C_9
    7  A    between atoms: C_8  and  C_26
    8  A    between atoms: C_13  and  C_37
    9  A    between atoms: C_13  and  C_38
   10  A    between atoms: C_14  and  C_25
   11  A    between atoms: C_17  and  C_38
   12  A    between atoms: C_18  and  C_36
   13  A    between atoms: C_19  and  C_37
   14  A    between atoms: C_26  and  C_30
   15  A    between atoms: C_34  and  C_37
                            x       y       z     vdW  Elec       q    Type
                         _______ _______ _______ _____ _____    ______ ____

>  <TORSDO>
F 15

$$$$
=
 OpenBabel11072412193D

 38 41  0  0  1  0  0  0  0  0999 V2000
  161.6710  211.4180  148.1440 C   0  0  0  0  0  2  0  0  0  0  0  0
  162.1960  210.4270  149.1690 C   0  0  1  0  0  3  0  0  0  0  0  0
  161.5540  210.6140  150.4060 O   0  0  0  0  0  0  0  0  0  0  0  0
  161.9840  208.9980  148.6570 C   0  0  0  0  0  2  0  0  0  0  0  0
  162.3180  209.9040  151.3520 C   0  0  0  0  0  2  0  0  0  0  0  0
  162.2880  208.3870  151.0940 C   0  0  0  0  0  2  0  0  0  0  0  0
  161.5590  208.0430  149.7840 C   0  0  2  0  0  3  0  0  0  0  0  0
  161.7640  206.5740  149.3880 C   0  0  2  0  0  3  0  0  0  0  0  0
  162.2290  206.4490  147.9440 C   0  0  0  0  0  2  0  0  0  0  0  0
  161.1290  206.3330  147.0940 O   0  0  0  0  0  1  0  0  0  0  0  0
  160.4680  205.7890  149.5320 C   0  0  0  0  0  2  0  0  0  0  0  0
  161.8070  204.9380  151.4720 C   0  0  0  0  0  1  0  0  0  0  0  0
  160.6390  204.6600  150.5400 C   0  0  2  0  0  3  0  0  0  0  0  0
  161.1090  202.0220  147.8350 C   0  0  0  0  0  3  0  0  0  0  0  0
  160.9080  202.1790  150.6200 C   0  0  0  0  0  3  0  0  0  0  0  0
  160.8180  203.3440  149.8500 C   0  0  0  0  0  0  0  0  0  0  0  0
  160.9220  203.2630  148.4520 C   0  0  0  0  0  3  0  0  0  0  0  0
  161.1930  200.8610  148.6090 C   0  0  0  0  0  3  0  0  0  0  0  0
  161.0940  200.9390  150.0000 C   0  0  0  0  0  3  0  0  0  0  0  0
  163.3120  213.2740  147.9320 C   0  0  0  0  0  1  0  0  0  0  0  0
  161.9920  212.8470  148.5580 C   0  0  1  0  0  3  0  0  0  0  0  0
  160.8370  213.8000  148.2190 C   0  0  1  0  0  3  0  0  0  0  0  0
  160.5200  213.8060  146.7500 C   0  0  0  0  0  0  0  0  0  0  0  0
  160.2860  213.2220  143.9510 C   0  0  1  0  0  3  0  0  0  0  0  0
  161.5110  214.2740  145.7280 C   0  0  0  0  0  2  0  0  0  0  0  0
  159.3830  213.2570  146.3160 C   0  0  0  0  0  3  0  0  0  0  0  0
  159.0720  213.1730  144.8410 C   0  0  2  0  0  3  0  0  0  0  0  0
  161.5750  213.2840  144.6560 N   0  0  0  0  0  2  0  0  0  0  0  0
  159.6470  212.0130  144.2870 O   0  0  0  0  0  0  0  0  0  0  0  0
  159.5890  213.5700  149.0700 C   0  0  0  0  0  2  0  0  0  0  0  0
  159.8450  213.9990  150.5060 C   0  0  0  0  0  2  0  0  0  0  0  0
  159.3850  212.9890  151.4220 N   0  0  0  0  0  0  0  0  0  0  0  0
  159.1350  213.2850  152.6460 C   0  0  0  0  0  3  0  0  0  0  0  0
  158.6730  212.2330  153.6090 C   0  0  1  0  0  3  0  0  0  0  0  0
  158.2550  211.1130  152.9150 F   0  0  0  0  0  0  0  0  0  0  0  0
  159.7820  211.8490  154.5810 C   0  0  0  0  0  2  0  0  0  0  0  0
  161.5100  210.0960  155.0010 C   0  0  0  0  0  1  0  0  0  0  0  0
  160.1020  210.3640  154.5000 C   0  0  0  0  0  2  0  0  0  0  0  0
  1 21  1  0  0  0  0
  2  1  1  6  0  0  0
  2  3  1  0  0  0  0
  3  5  1  0  0  0  0
  4  2  1  0  0  0  0
  4  7  1  0  0  0  0
  6  5  1  0  0  0  0
  7  8  1  6  0  0  0
  7  6  1  0  0  0  0
  8  9  1  6  0  0  0
  8 11  1  0  0  0  0
 10  9  1  0  0  0  0
 11 13  1  0  0  0  0
 13 12  1  6  0  0  0
 14 17  2  0  0  0  0
 14 18  1  0  0  0  0
 16 13  1  0  0  0  0
 16 15  2  0  0  0  0
 17 16  1  0  0  0  0
 18 19  2  0  0  0  0
 19 15  1  0  0  0  0
 21 20  1  6  0  0  0
 22 21  1  0  0  0  0
 22 30  1  1  0  0  0
 23 22  1  0  0  0  0
 24 29  1  1  0  0  0
 24 28  1  0  0  0  0
 24 27  1  0  0  0  0
 25 23  1  0  0  0  0
 26 23  2  0  0  0  0
 27 26  1  1  0  0  0
 28 25  1  0  0  0  0
 29 27  1  0  0  0  0
 30 31  1  0  0  0  0
 31 32  1  0  0  0  0
 32 33  2  0  0  0  0
 33 34  1  0  0  0  0
 34 35  1  6  0  0  0
 34 36  1  0  0  0  0
 38 36  1  0  0  0  0
 38 37  1  0  0  0  0
M  END
>  <MODEL>
3

>  <REMARK>
 VINA RESULT:      -7.3      2.593      6.346
  Name = 
  15 active torsions:
  status: ('A' for Active; 'I' for Inactive)
    1  A    between atoms: N_2  and  C_14
    2  A    between atoms: C_3  and  C_4
    3  A    between atoms: C_3  and  C_25
    4  A    between atoms: C_3  and  C_36
    5  A    between atoms: C_6  and  C_18
    6  A    between atoms: C_8  and  C_9
    7  A    between atoms: C_8  and  C_26
    8  A    between atoms: C_13  and  C_37
    9  A    between atoms: C_13  and  C_38
   10  A    between atoms: C_14  and  C_25
   11  A    between atoms: C_17  and  C_38
   12  A    between atoms: C_18  and  C_36
   13  A    between atoms: C_19  and  C_37
   14  A    between atoms: C_26  and  C_30
   15  A    between atoms: C_34  and  C_37
                            x       y       z     vdW  Elec       q    Type
                         _______ _______ _______ _____ _____    ______ ____

>  <TORSDO>
F 15

$$$$
=
 OpenBabel11072412193D

 38 41  0  0  1  0  0  0  0  0999 V2000
  161.6730  209.0400  151.6850 C   0  0  0  0  0  2  0  0  0  0  0  0
  160.9960  209.7250  152.8600 C   0  0  1  0  0  3  0  0  0  0  0  0
  161.9570  210.2810  153.7230 O   0  0  0  0  0  0  0  0  0  0  0  0
  160.0400  210.8060  152.3440 C   0  0  0  0  0  2  0  0  0  0  0  0
  161.2740  210.5890  154.9170 C   0  0  0  0  0  2  0  0  0  0  0  0
  160.2190  211.6900  154.7080 C   0  0  0  0  0  2  0  0  0  0  0  0
  160.0690  212.0650  153.2240 C   0  0  2  0  0  3  0  0  0  0  0  0
  158.8400  212.9530  152.9840 C   0  0  2  0  0  3  0  0  0  0  0  0
  157.7960  212.7610  154.0750 C   0  0  0  0  0  2  0  0  0  0  0  0
  156.9580  213.8730  154.1400 O   0  0  0  0  0  1  0  0  0  0  0  0
  158.1870  212.6250  151.6490 C   0  0  0  0  0  2  0  0  0  0  0  0
  156.7440  214.1620  150.2960 C   0  0  0  0  0  1  0  0  0  0  0  0
  158.1600  213.8550  150.7530 C   0  0  2  0  0  3  0  0  0  0  0  0
  161.2820  213.4180  148.6160 C   0  0  0  0  0  3  0  0  0  0  0  0
  158.5080  213.5800  148.2960 C   0  0  0  0  0  3  0  0  0  0  0  0
  159.0670  213.6830  149.5750 C   0  0  0  0  0  0  0  0  0  0  0  0
  160.4600  213.5980  149.7330 C   0  0  0  0  0  3  0  0  0  0  0  0
  160.7180  213.3200  147.3410 C   0  0  0  0  0  3  0  0  0  0  0  0
  159.3320  213.4000  147.1810 C   0  0  0  0  0  3  0  0  0  0  0  0
  160.8330  207.0670  152.9440 C   0  0  0  0  0  1  0  0  0  0  0  0
  161.8980  207.5630  151.9760 C   0  0  1  0  0  3  0  0  0  0  0  0
  161.9520  206.7410  150.6800 C   0  0  1  0  0  3  0  0  0  0  0  0
  161.3180  205.3880  150.8390 C   0  0  0  0  0  0  0  0  0  0  0  0
  160.6320  202.6050  150.7210 C   0  0  1  0  0  3  0  0  0  0  0  0
  160.4160  204.8090  149.7920 C   0  0  0  0  0  2  0  0  0  0  0  0
  161.6640  204.6130  151.8690 C   0  0  0  0  0  3  0  0  0  0  0  0
  161.1080  203.2170  152.0140 C   0  0  2  0  0  3  0  0  0  0  0  0
  160.8360  203.4360  149.5250 N   0  0  0  0  0  2  0  0  0  0  0  0
  161.8890  202.3030  151.2800 O   0  0  0  0  0  0  0  0  0  0  0  0
  161.4060  207.4870  149.4630 C   0  0  0  0  0  2  0  0  0  0  0  0
  162.4670  207.5690  148.3770 C   0  0  0  0  0  2  0  0  0  0  0  0
  162.1850  206.6250  147.3280 N   0  0  0  0  0  0  0  0  0  0  0  0
  161.0190  206.5720  146.7940 C   0  0  0  0  0  3  0  0  0  0  0  0
  160.7150  205.5790  145.7140 C   0  0  1  0  0  3  0  0  0  0  0  0
  160.8960  206.1630  144.4740 F   0  0  0  0  0  0  0  0  0  0  0  0
  161.6030  204.3460  145.8330 C   0  0  0  0  0  2  0  0  0  0  0  0
  160.8310  202.0200  146.3150 C   0  0  0  0  0  1  0  0  0  0  0  0
  160.9190  203.1110  145.2640 C   0  0  0  0  0  2  0  0  0  0  0  0
  1 21  1  0  0  0  0
  2  1  1  6  0  0  0
  2  3  1  0  0  0  0
  3  5  1  0  0  0  0
  4  2  1  0  0  0  0
  4  7  1  0  0  0  0
  6  5  1  0  0  0  0
  7  8  1  1  0  0  0
  7  6  1  0  0  0  0
  8 11  1  6  0  0  0
  8  9  1  0  0  0  0
  9 10  1  0  0  0  0
 13 12  1  6  0  0  0
 13 11  1  0  0  0  0
 14 17  1  0  0  0  0
 15 16  1  0  0  0  0
 16 17  2  0  0  0  0
 16 13  1  0  0  0  0
 18 14  2  0  0  0  0
 19 18  1  0  0  0  0
 19 15  2  0  0  0  0
 21 20  1  1  0  0  0
 22 30  1  6  0  0  0
 22 23  1  0  0  0  0
 22 21  1  0  0  0  0
 23 26  2  0  0  0  0
 24 28  1  6  0  0  0
 24 29  1  0  0  0  0
 24 27  1  0  0  0  0
 25 23  1  0  0  0  0
 27 26  1  6  0  0  0
 28 25  1  0  0  0  0
 29 27  1  0  0  0  0
 31 30  1  0  0  0  0
 32 31  1  0  0  0  0
 33 32  2  0  0  0  0
 34 35  1  6  0  0  0
 34 36  1  0  0  0  0
 34 33  1  0  0  0  0
 38 36  1  0  0  0  0
 38 37  1  0  0  0  0
M  END
>  <MODEL>
4

>  <REMARK>
 VINA RESULT:      -7.2      3.141      8.798
  Name = 
  15 active torsions:
  status: ('A' for Active; 'I' for Inactive)
    1  A    between atoms: N_2  and  C_14
    2  A    between atoms: C_3  and  C_4
    3  A    between atoms: C_3  and  C_25
    4  A    between atoms: C_3  and  C_36
    5  A    between atoms: C_6  and  C_18
    6  A    between atoms: C_8  and  C_9
    7  A    between atoms: C_8  and  C_26
    8  A    between atoms: C_13  and  C_37
    9  A    between atoms: C_13  and  C_38
   10  A    between atoms: C_14  and  C_25
   11  A    between atoms: C_17  and  C_38
   12  A    between atoms: C_18  and  C_36
   13  A    between atoms: C_19  and  C_37
   14  A    between atoms: C_26  and  C_30
   15  A    between atoms: C_34  and  C_37
                            x       y       z     vdW  Elec       q    Type
                         _______ _______ _______ _____ _____    ______ ____

>  <TORSDO>
F 15

$$$$
=
 OpenBabel11072412193D

 38 41  0  0  1  0  0  0  0  0999 V2000
  161.8050  210.8470  148.5380 C   0  0  0  0  0  2  0  0  0  0  0  0
  162.1790  210.0780  149.7940 C   0  0  1  0  0  3  0  0  0  0  0  0
  161.5720  210.6560  150.9220 O   0  0  0  0  0  0  0  0  0  0  0  0
  161.7610  208.6110  149.6420 C   0  0  0  0  0  2  0  0  0  0  0  0
  162.2250  210.1010  152.0410 C   0  0  0  0  0  2  0  0  0  0  0  0
  161.9730  208.5880  152.1630 C   0  0  0  0  0  2  0  0  0  0  0  0
  161.2010  208.0370  150.9530 C   0  0  2  0  0  3  0  0  0  0  0  0
  161.1880  206.5010  150.9380 C   0  0  2  0  0  3  0  0  0  0  0  0
  161.9830  205.9300  152.1050 C   0  0  0  0  0  2  0  0  0  0  0  0
  161.1410  205.2180  152.9580 O   0  0  0  0  0  1  0  0  0  0  0  0
  161.7970  205.9660  149.6510 C   0  0  0  0  0  2  0  0  0  0  0  0
  160.9660  203.6070  149.5090 C   0  0  0  0  0  1  0  0  0  0  0  0
  160.8290  205.0170  148.9590 C   0  0  2  0  0  3  0  0  0  0  0  0
  161.8650  204.0000  145.4380 C   0  0  0  0  0  3  0  0  0  0  0  0
  160.5210  206.0880  146.7240 C   0  0  0  0  0  3  0  0  0  0  0  0
  161.0340  205.0250  147.4760 C   0  0  0  0  0  0  0  0  0  0  0  0
  161.7050  203.9760  146.8270 C   0  0  0  0  0  3  0  0  0  0  0  0
  161.3560  205.0670  144.6940 C   0  0  0  0  0  3  0  0  0  0  0  0
  160.6830  206.1110  145.3360 C   0  0  0  0  0  3  0  0  0  0  0  0
  163.4650  212.4990  147.7030 C   0  0  0  0  0  1  0  0  0  0  0  0
  162.2740  212.2920  148.6280 C   0  0  1  0  0  3  0  0  0  0  0  0
  161.1250  213.2700  148.3460 C   0  0  1  0  0  3  0  0  0  0  0  0
  160.7940  213.3510  146.8830 C   0  0  0  0  0  0  0  0  0  0  0  0
  160.6180  212.9710  144.0440 C   0  0  1  0  0  3  0  0  0  0  0  0
  161.6950  214.0420  145.9050 C   0  0  0  0  0  2  0  0  0  0  0  0
  159.7450  212.6780  146.4040 C   0  0  0  0  0  3  0  0  0  0  0  0
  159.4330  212.6720  144.9260 C   0  0  2  0  0  3  0  0  0  0  0  0
  161.8910  213.1640  144.7540 N   0  0  0  0  0  2  0  0  0  0  0  0
  160.1660  211.6580  144.2790 O   0  0  0  0  0  0  0  0  0  0  0  0
  159.8820  213.0110  149.1980 C   0  0  0  0  0  2  0  0  0  0  0  0
  159.9650  213.7920  150.5000 C   0  0  0  0  0  2  0  0  0  0  0  0
  159.4940  212.9890  151.5970 N   0  0  0  0  0  0  0  0  0  0  0  0
  159.0290  213.5440  152.6580 C   0  0  0  0  0  3  0  0  0  0  0  0
  158.5540  212.7130  153.8120 C   0  0  1  0  0  3  0  0  0  0  0  0
  157.1740  212.6330  153.7950 F   0  0  0  0  0  0  0  0  0  0  0  0
  159.1480  211.3110  153.7630 C   0  0  0  0  0  2  0  0  0  0  0  0
  160.0370  209.5510  155.2960 C   0  0  0  0  0  1  0  0  0  0  0  0
  160.0230  211.0350  154.9780 C   0  0  0  0  0  2  0  0  0  0  0  0
  1 21  1  0  0  0  0
  2  1  1  6  0  0  0
  2  3  1  0  0  0  0
  3  5  1  0  0  0  0
  4  2  1  0  0  0  0
  4  7  1  0  0  0  0
  5  6  1  0  0  0  0
  7  8  1  6  0  0  0
  7  6  1  0  0  0  0
  8 11  1  6  0  0  0
  8  9  1  0  0  0  0
  9 10  1  0  0  0  0
 13 12  1  1  0  0  0
 13 11  1  0  0  0  0
 14 17  1  0  0  0  0
 15 16  1  0  0  0  0
 16 13  1  0  0  0  0
 17 16  2  0  0  0  0
 18 19  1  0  0  0  0
 18 14  2  0  0  0  0
 19 15  2  0  0  0  0
 21 20  1  6  0  0  0
 22 21  1  0  0  0  0
 22 30  1  1  0  0  0
 23 22  1  0  0  0  0
 24 29  1  6  0  0  0
 24 28  1  0  0  0  0
 24 27  1  0  0  0  0
 25 23  1  0  0  0  0
 26 23  2  0  0  0  0
 27 26  1  1  0  0  0
 28 25  1  0  0  0  0
 29 27  1  0  0  0  0
 30 31  1  0  0  0  0
 31 32  1  0  0  0  0
 32 33  2  0  0  0  0
 33 34  1  0  0  0  0
 34 35  1  6  0  0  0
 36 34  1  0  0  0  0
 36 38  1  0  0  0  0
 38 37  1  0  0  0  0
M  END
>  <MODEL>
5

>  <REMARK>
 VINA RESULT:      -7.0      2.610      6.600
  Name = 
  15 active torsions:
  status: ('A' for Active; 'I' for Inactive)
    1  A    between atoms: N_2  and  C_14
    2  A    between atoms: C_3  and  C_4
    3  A    between atoms: C_3  and  C_25
    4  A    between atoms: C_3  and  C_36
    5  A    between atoms: C_6  and  C_18
    6  A    between atoms: C_8  and  C_9
    7  A    between atoms: C_8  and  C_26
    8  A    between atoms: C_13  and  C_37
    9  A    between atoms: C_13  and  C_38
   10  A    between atoms: C_14  and  C_25
   11  A    between atoms: C_17  and  C_38
   12  A    between atoms: C_18  and  C_36
   13  A    between atoms: C_19  and  C_37
   14  A    between atoms: C_26  and  C_30
   15  A    between atoms: C_34  and  C_37
                            x       y       z     vdW  Elec       q    Type
                         _______ _______ _______ _____ _____    ______ ____

>  <TORSDO>
F 15

$$$$
=
 OpenBabel11072412193D

 38 41  0  0  1  0  0  0  0  0999 V2000
  161.2320  210.6680  152.8680 C   0  0  0  0  0  2  0  0  0  0  0  0
  161.1400  209.8300  151.6040 C   0  0  1  0  0  3  0  0  0  0  0  0
  162.3340  209.9210  150.8670 O   0  0  0  0  0  0  0  0  0  0  0  0
  160.8410  208.3730  151.9750 C   0  0  0  0  0  2  0  0  0  0  0  0
  162.0420  209.4020  149.5900 C   0  0  0  0  0  2  0  0  0  0  0  0
  161.7010  207.9020  149.6420 C   0  0  0  0  0  2  0  0  0  0  0  0
  161.6140  207.3850  151.0880 C   0  0  2  0  0  3  0  0  0  0  0  0
  161.0120  205.9740  151.1520 C   0  0  2  0  0  3  0  0  0  0  0  0
  161.0550  205.4170  152.5680 C   0  0  0  0  0  2  0  0  0  0  0  0
  161.2210  204.0330  152.5350 O   0  0  0  0  0  1  0  0  0  0  0  0
  161.7760  205.0170  150.2490 C   0  0  0  0  0  2  0  0  0  0  0  0
  160.8360  202.8530  149.4080 C   0  0  0  0  0  1  0  0  0  0  0  0
  160.8340  204.3640  149.2470 C   0  0  2  0  0  3  0  0  0  0  0  0
  160.9700  206.1980  145.9130 C   0  0  0  0  0  3  0  0  0  0  0  0
  162.1490  203.9890  147.1580 C   0  0  0  0  0  3  0  0  0  0  0  0
  161.1920  204.7440  147.8450 C   0  0  0  0  0  0  0  0  0  0  0  0
  160.6040  205.8540  147.2180 C   0  0  0  0  0  3  0  0  0  0  0  0
  161.9240  205.4370  145.2310 C   0  0  0  0  0  3  0  0  0  0  0  0
  162.5140  204.3340  145.8530 C   0  0  0  0  0  3  0  0  0  0  0  0
  160.2400  210.5740  155.1450 C   0  0  0  0  0  1  0  0  0  0  0  0
  159.9320  210.6050  153.6550 C   0  0  1  0  0  3  0  0  0  0  0  0
  158.9880  211.7530  153.2670 C   0  0  1  0  0  3  0  0  0  0  0  0
  158.1150  212.1820  154.4130 C   0  0  0  0  0  0  0  0  0  0  0  0
  156.2360  213.4890  156.1430 C   0  0  1  0  0  3  0  0  0  0  0  0
  158.4780  213.3370  155.2950 C   0  0  0  0  0  2  0  0  0  0  0  0
  156.9170  211.6160  154.5790 C   0  0  0  0  0  3  0  0  0  0  0  0
  155.9820  212.0810  155.6690 C   0  0  2  0  0  3  0  0  0  0  0  0
  157.3080  214.2020  155.4320 N   0  0  0  0  0  2  0  0  0  0  0  0
  155.2170  213.1760  155.2210 O   0  0  0  0  0  0  0  0  0  0  0  0
  159.7050  212.9380  152.6230 C   0  0  0  0  0  2  0  0  0  0  0  0
  159.0600  213.2820  151.2900 C   0  0  0  0  0  2  0  0  0  0  0  0
  160.0570  213.7070  150.3430 N   0  0  0  0  0  0  0  0  0  0  0  0
  160.5370  212.8790  149.4870 C   0  0  0  0  0  3  0  0  0  0  0  0
  161.5900  213.3120  148.5110 C   0  0  1  0  0  3  0  0  0  0  0  0
  162.7160  212.5240  148.6560 F   0  0  0  0  0  0  0  0  0  0  0  0
  161.0820  213.2200  147.0760 C   0  0  0  0  0  2  0  0  0  0  0  0
  159.0740  212.5780  145.7380 C   0  0  0  0  0  1  0  0  0  0  0  0
  159.5610  213.2200  147.0250 C   0  0  0  0  0  2  0  0  0  0  0  0
  1 21  1  0  0  0  0
  2  4  1  0  0  0  0
  2  1  1  1  0  0  0
  3  2  1  0  0  0  0
  5  6  1  0  0  0  0
  5  3  1  0  0  0  0
  6  7  1  0  0  0  0
  7  8  1  6  0  0  0
  7  4  1  0  0  0  0
  8 11  1  6  0  0  0
  8  9  1  0  0  0  0
 10  9  1  0  0  0  0
 13 12  1  6  0  0  0
 13 11  1  0  0  0  0
 14 17  1  0  0  0  0
 15 16  1  0  0  0  0
 16 13  1  0  0  0  0
 17 16  2  0  0  0  0
 18 19  1  0  0  0  0
 18 14  2  0  0  0  0
 19 15  2  0  0  0  0
 21 20  1  1  0  0  0
 22 30  1  1  0  0  0
 22 21  1  0  0  0  0
 22 23  1  0  0  0  0
 23 26  2  0  0  0  0
 23 25  1  0  0  0  0
 24 29  1  6  0  0  0
 25 28  1  0  0  0  0
 27 26  1  6  0  0  0
 27 24  1  0  0  0  0
 28 24  1  0  0  0  0
 29 27  1  0  0  0  0
 31 30  1  0  0  0  0
 32 31  1  0  0  0  0
 33 32  2  0  0  0  0
 34 35  1  6  0  0  0
 34 33  1  0  0  0  0
 36 34  1  0  0  0  0
 37 38  1  0  0  0  0
 38 36  1  0  0  0  0
M  END
>  <MODEL>
6

>  <REMARK>
 VINA RESULT:      -7.0      1.512      2.726
  Name = 
  15 active torsions:
  status: ('A' for Active; 'I' for Inactive)
    1  A    between atoms: N_2  and  C_14
    2  A    between atoms: C_3  and  C_4
    3  A    between atoms: C_3  and  C_25
    4  A    between atoms: C_3  and  C_36
    5  A    between atoms: C_6  and  C_18
    6  A    between atoms: C_8  and  C_9
    7  A    between atoms: C_8  and  C_26
    8  A    between atoms: C_13  and  C_37
    9  A    between atoms: C_13  and  C_38
   10  A    between atoms: C_14  and  C_25
   11  A    between atoms: C_17  and  C_38
   12  A    between atoms: C_18  and  C_36
   13  A    between atoms: C_19  and  C_37
   14  A    between atoms: C_26  and  C_30
   15  A    between atoms: C_34  and  C_37
                            x       y       z     vdW  Elec       q    Type
                         _______ _______ _______ _____ _____    ______ ____

>  <TORSDO>
F 15

$$$$
=
 OpenBabel11072412193D

 38 41  0  0  1  0  0  0  0  0999 V2000
  161.1210  208.6560  151.0450 C   0  0  0  0  0  2  0  0  0  0  0  0
  161.4600  207.3990  151.8280 C   0  0  1  0  0  3  0  0  0  0  0  0
  160.7660  207.3800  153.0500 O   0  0  0  0  0  0  0  0  0  0  0  0
  161.1160  206.1620  150.9890 C   0  0  0  0  0  2  0  0  0  0  0  0
  161.3800  206.3810  153.8310 C   0  0  0  0  0  2  0  0  0  0  0  0
  161.1890  204.9790  153.2240 C   0  0  0  0  0  2  0  0  0  0  0  0
  160.5100  205.0390  151.8460 C   0  0  2  0  0  3  0  0  0  0  0  0
  160.5660  203.6840  151.1250 C   0  0  2  0  0  3  0  0  0  0  0  0
  161.0220  202.5760  152.0640 C   0  0  0  0  0  2  0  0  0  0  0  0
  162.2570  202.0760  151.6540 O   0  0  0  0  0  1  0  0  0  0  0  0
  161.5370  203.7330  149.9540 C   0  0  0  0  0  2  0  0  0  0  0  0
  161.0290  201.7930  148.4530 C   0  0  0  0  0  1  0  0  0  0  0  0
  160.8480  203.2860  148.6730 C   0  0  2  0  0  3  0  0  0  0  0  0
  161.9560  204.1970  145.1450 C   0  0  0  0  0  3  0  0  0  0  0  0
  161.6550  205.4140  147.6450 C   0  0  0  0  0  3  0  0  0  0  0  0
  161.3520  204.0560  147.4930 C   0  0  0  0  0  0  0  0  0  0  0  0
  161.5010  203.4480  146.2350 C   0  0  0  0  0  3  0  0  0  0  0  0
  162.2610  205.5510  145.3050 C   0  0  0  0  0  3  0  0  0  0  0  0
  162.1100  206.1600  146.5540 C   0  0  0  0  0  3  0  0  0  0  0  0
  161.9790  210.9860  150.9230 C   0  0  0  0  0  1  0  0  0  0  0  0
  161.4530  209.9020  151.8520 C   0  0  1  0  0  3  0  0  0  0  0  0
  160.2470  210.3660  152.6840 C   0  0  1  0  0  3  0  0  0  0  0  0
  160.5570  210.4160  154.1530 C   0  0  0  0  0  0  0  0  0  0  0  0
  161.1940  209.8140  156.8850 C   0  0  1  0  0  3  0  0  0  0  0  0
  159.5190  210.1160  155.1910 C   0  0  0  0  0  2  0  0  0  0  0  0
  161.8160  210.5960  154.5580 C   0  0  0  0  0  3  0  0  0  0  0  0
  162.1740  210.5690  156.0240 C   0  0  2  0  0  3  0  0  0  0  0  0
  160.0850  209.1780  156.1570 N   0  0  0  0  0  2  0  0  0  0  0  0
  162.4060  209.2450  156.4450 O   0  0  0  0  0  0  0  0  0  0  0  0
  159.6330  211.6730  152.1860 C   0  0  0  0  0  2  0  0  0  0  0  0
  159.5830  212.6940  153.3130 C   0  0  0  0  0  2  0  0  0  0  0  0
  158.2390  213.1700  153.4990 N   0  0  0  0  0  0  0  0  0  0  0  0
  157.7590  213.3230  154.6810 C   0  0  0  0  0  3  0  0  0  0  0  0
  156.3530  213.8020  154.8810 C   0  0  1  0  0  3  0  0  0  0  0  0
  155.6840  213.8120  153.6710 F   0  0  0  0  0  0  0  0  0  0  0  0
  155.6050  212.9180  155.8720 C   0  0  0  0  0  2  0  0  0  0  0  0
  155.5000  210.5050  155.2350 C   0  0  0  0  0  1  0  0  0  0  0  0
  156.2700  211.5560  156.0140 C   0  0  0  0  0  2  0  0  0  0  0  0
  1 21  1  0  0  0  0
  2  1  1  6  0  0  0
  2  3  1  0  0  0  0
  3  5  1  0  0  0  0
  4  2  1  0  0  0  0
  4  7  1  0  0  0  0
  6  5  1  0  0  0  0
  7  8  1  6  0  0  0
  7  6  1  0  0  0  0
  8 11  1  6  0  0  0
  8  9  1  0  0  0  0
 10  9  1  0  0  0  0
 13 12  1  6  0  0  0
 13 11  1  0  0  0  0
 14 18  2  0  0  0  0
 14 17  1  0  0  0  0
 16 15  1  0  0  0  0
 16 13  1  0  0  0  0
 17 16  2  0  0  0  0
 18 19  1  0  0  0  0
 19 15  2  0  0  0  0
 21 20  1  6  0  0  0
 21 22  1  0  0  0  0
 22 30  1  6  0  0  0
 22 23  1  0  0  0  0
 23 26  2  0  0  0  0
 23 25  1  0  0  0  0
 24 28  1  6  0  0  0
 25 28  1  0  0  0  0
 27 26  1  6  0  0  0
 27 29  1  0  0  0  0
 27 24  1  0  0  0  0
 29 24  1  0  0  0  0
 30 31  1  0  0  0  0
 31 32  1  0  0  0  0
 32 33  2  0  0  0  0
 33 34  1  0  0  0  0
 34 35  1  6  0  0  0
 34 36  1  0  0  0  0
 36 38  1  0  0  0  0
 37 38  1  0  0  0  0
M  END
>  <MODEL>
7

>  <REMARK>
 VINA RESULT:      -6.9      2.980      5.334
  Name = 
  15 active torsions:
  status: ('A' for Active; 'I' for Inactive)
    1  A    between atoms: N_2  and  C_14
    2  A    between atoms: C_3  and  C_4
    3  A    between atoms: C_3  and  C_25
    4  A    between atoms: C_3  and  C_36
    5  A    between atoms: C_6  and  C_18
    6  A    between atoms: C_8  and  C_9
    7  A    between atoms: C_8  and  C_26
    8  A    between atoms: C_13  and  C_37
    9  A    between atoms: C_13  and  C_38
   10  A    between atoms: C_14  and  C_25
   11  A    between atoms: C_17  and  C_38
   12  A    between atoms: C_18  and  C_36
   13  A    between atoms: C_19  and  C_37
   14  A    between atoms: C_26  and  C_30
   15  A    between atoms: C_34  and  C_37
                            x       y       z     vdW  Elec       q    Type
                         _______ _______ _______ _____ _____    ______ ____

>  <TORSDO>
F 15

$$$$
=
 OpenBabel11072412193D

 38 41  0  0  1  0  0  0  0  0999 V2000
  162.5300  206.5260  151.1820 C   0  0  0  0  0  2  0  0  0  0  0  0
  161.5670  206.9640  152.2710 C   0  0  1  0  0  3  0  0  0  0  0  0
  161.9200  206.3840  153.5020 O   0  0  0  0  0  0  0  0  0  0  0  0
  161.5660  208.4940  152.3720 C   0  0  0  0  0  2  0  0  0  0  0  0
  160.8120  206.5690  154.3520 C   0  0  0  0  0  2  0  0  0  0  0  0
  160.5590  208.0570  154.6520 C   0  0  0  0  0  2  0  0  0  0  0  0
  161.4830  208.9720  153.8300 C   0  0  2  0  0  3  0  0  0  0  0  0
  161.0520  210.4430  153.9200 C   0  0  2  0  0  3  0  0  0  0  0  0
  161.3860  211.0350  155.2820 C   0  0  0  0  0  2  0  0  0  0  0  0
  162.6940  210.7080  155.6410 O   0  0  0  0  0  1  0  0  0  0  0  0
  159.5520  210.5830  153.7040 C   0  0  0  0  0  2  0  0  0  0  0  0
  157.8700  211.8830  155.0310 C   0  0  0  0  0  1  0  0  0  0  0  0
  159.0820  211.9700  154.1180 C   0  0  2  0  0  3  0  0  0  0  0  0
  159.3760  213.7160  150.7460 C   0  0  0  0  0  3  0  0  0  0  0  0
  157.5480  213.4770  152.8490 C   0  0  0  0  0  3  0  0  0  0  0  0
  158.7790  212.8160  152.9210 C   0  0  0  0  0  0  0  0  0  0  0  0
  159.6930  212.9350  151.8620 C   0  0  0  0  0  3  0  0  0  0  0  0
  158.1470  214.3780  150.6830 C   0  0  0  0  0  3  0  0  0  0  0  0
  157.2320  214.2580  151.7330 C   0  0  0  0  0  3  0  0  0  0  0  0
  160.3500  205.5510  150.4920 C   0  0  0  0  0  1  0  0  0  0  0  0
  161.7970  205.7780  150.0780 C   0  0  1  0  0  3  0  0  0  0  0  0
  161.9230  206.5060  148.7320 C   0  0  1  0  0  3  0  0  0  0  0  0
  161.4450  205.6630  147.5840 C   0  0  0  0  0  0  0  0  0  0  0  0
  161.0270  204.4050  145.0400 C   0  0  1  0  0  3  0  0  0  0  0  0
  160.5000  206.1950  146.5500 C   0  0  0  0  0  2  0  0  0  0  0  0
  161.9720  204.4520  147.3890 C   0  0  0  0  0  3  0  0  0  0  0  0
  161.5730  203.6120  146.1990 C   0  0  2  0  0  3  0  0  0  0  0  0
  161.0230  205.8630  145.2280 N   0  0  0  0  0  2  0  0  0  0  0  0
  162.3600  203.9500  145.0800 O   0  0  0  0  0  0  0  0  0  0  0  0
  161.2790  207.8920  148.7280 C   0  0  0  0  0  2  0  0  0  0  0  0
  162.3250  208.9590  149.0150 C   0  0  0  0  0  2  0  0  0  0  0  0
  162.0460  210.1510  148.2600 N   0  0  0  0  0  0  0  0  0  0  0  0
  161.9290  211.2850  148.8520 C   0  0  0  0  0  3  0  0  0  0  0  0
  161.6210  212.5280  148.0720 C   0  0  1  0  0  3  0  0  0  0  0  0
  162.7470  212.9410  147.3850 F   0  0  0  0  0  0  0  0  0  0  0  0
  160.4790  212.2940  147.0890 C   0  0  0  0  0  2  0  0  0  0  0  0
  158.0760  212.9600  147.2200 C   0  0  0  0  0  1  0  0  0  0  0  0
  159.5030  213.4610  147.0840 C   0  0  0  0  0  2  0  0  0  0  0  0
  2  1  1  6  0  0  0
  2  4  1  0  0  0  0
  2  3  1  0  0  0  0
  3  5  1  0  0  0  0
  4  7  1  0  0  0  0
  5  6  1  0  0  0  0
  7  8  1  6  0  0  0
  7  6  1  0  0  0  0
  8 11  1  1  0  0  0
  8  9  1  0  0  0  0
  9 10  1  0  0  0  0
 11 13  1  0  0  0  0
 13 12  1  1  0  0  0
 14 17  1  0  0  0  0
 15 16  1  0  0  0  0
 16 13  1  0  0  0  0
 17 16  2  0  0  0  0
 18 14  2  0  0  0  0
 18 19  1  0  0  0  0
 19 15  2  0  0  0  0
 21 20  1  1  0  0  0
 21  1  1  0  0  0  0
 22 30  1  1  0  0  0
 22 21  1  0  0  0  0
 23 22  1  0  0  0  0
 24 29  1  6  0  0  0
 24 28  1  0  0  0  0
 24 27  1  0  0  0  0
 25 23  1  0  0  0  0
 26 23  2  0  0  0  0
 27 26  1  1  0  0  0
 28 25  1  0  0  0  0
 29 27  1  0  0  0  0
 30 31  1  0  0  0  0
 32 33  2  0  0  0  0
 32 31  1  0  0  0  0
 34 35  1  6  0  0  0
 34 33  1  0  0  0  0
 36 34  1  0  0  0  0
 38 36  1  0  0  0  0
 38 37  1  0  0  0  0
M  END
>  <MODEL>
8

>  <REMARK>
 VINA RESULT:      -6.8      2.797      8.661
  Name = 
  15 active torsions:
  status: ('A' for Active; 'I' for Inactive)
    1  A    between atoms: N_2  and  C_14
    2  A    between atoms: C_3  and  C_4
    3  A    between atoms: C_3  and  C_25
    4  A    between atoms: C_3  and  C_36
    5  A    between atoms: C_6  and  C_18
    6  A    between atoms: C_8  and  C_9
    7  A    between atoms: C_8  and  C_26
    8  A    between atoms: C_13  and  C_37
    9  A    between atoms: C_13  and  C_38
   10  A    between atoms: C_14  and  C_25
   11  A    between atoms: C_17  and  C_38
   12  A    between atoms: C_18  and  C_36
   13  A    between atoms: C_19  and  C_37
   14  A    between atoms: C_26  and  C_30
   15  A    between atoms: C_34  and  C_37
                            x       y       z     vdW  Elec       q    Type
                         _______ _______ _______ _____ _____    ______ ____

>  <TORSDO>
F 15

$$$$
=
 OpenBabel11072412193D

 38 41  0  0  1  0  0  0  0  0999 V2000
  160.8830  205.9950  150.4970 C   0  0  0  0  0  2  0  0  0  0  0  0
  161.2700  204.5360  150.6610 C   0  0  1  0  0  3  0  0  0  0  0  0
  160.5980  203.9700  151.7590 O   0  0  0  0  0  0  0  0  0  0  0  0
  160.9470  203.7700  149.3730 C   0  0  0  0  0  2  0  0  0  0  0  0
  161.2540  202.7530  152.0310 C   0  0  0  0  0  2  0  0  0  0  0  0
  161.0920  201.7430  150.8810 C   0  0  0  0  0  2  0  0  0  0  0  0
  160.3890  202.3680  149.6640 C   0  0  2  0  0  3  0  0  0  0  0  0
  160.4710  201.4580  148.4300 C   0  0  2  0  0  3  0  0  0  0  0  0
  161.0850  200.1090  148.7780 C   0  0  0  0  0  2  0  0  0  0  0  0
  161.5950  199.5020  147.6300 O   0  0  0  0  0  1  0  0  0  0  0  0
  161.3250  202.0940  147.3440 C   0  0  0  0  0  2  0  0  0  0  0  0
  160.1730  201.4960  145.2010 C   0  0  0  0  0  1  0  0  0  0  0  0
  160.4480  202.6010  146.2070 C   0  0  2  0  0  3  0  0  0  0  0  0
  161.0830  205.4770  143.7930 C   0  0  0  0  0  3  0  0  0  0  0  0
  162.2410  204.3340  146.0680 C   0  0  0  0  0  3  0  0  0  0  0  0
  161.0710  203.7830  145.5320 C   0  0  0  0  0  0  0  0  0  0  0  0
  160.4900  204.3610  144.3920 C   0  0  0  0  0  3  0  0  0  0  0  0
  162.2530  206.0200  144.3300 C   0  0  0  0  0  3  0  0  0  0  0  0
  162.8320  205.4500  145.4670 C   0  0  0  0  0  3  0  0  0  0  0  0
  162.7470  206.4910  152.0650 C   0  0  0  0  0  1  0  0  0  0  0  0
  161.3000  206.8070  151.7150 C   0  0  1  0  0  3  0  0  0  0  0  0
  161.0540  208.3070  151.4970 C   0  0  1  0  0  3  0  0  0  0  0  0
  160.5770  208.9910  152.7470 C   0  0  0  0  0  0  0  0  0  0  0  0
  160.3540  210.3940  155.2390 C   0  0  1  0  0  3  0  0  0  0  0  0
  160.5920  208.3050  154.0790 C   0  0  0  0  0  2  0  0  0  0  0  0
  160.2580  210.2870  152.7110 C   0  0  0  0  0  3  0  0  0  0  0  0
  159.8540  211.0240  153.9650 C   0  0  2  0  0  3  0  0  0  0  0  0
  161.1990  209.2040  155.0570 N   0  0  0  0  0  2  0  0  0  0  0  0
  160.9960  211.4960  154.6410 O   0  0  0  0  0  0  0  0  0  0  0  0
  162.2430  209.0330  150.8680 C   0  0  0  0  0  2  0  0  0  0  0  0
  161.9530  209.3510  149.4090 C   0  0  0  0  0  2  0  0  0  0  0  0
  161.9750  210.7730  149.1920 N   0  0  0  0  0  0  0  0  0  0  0  0
  161.8410  211.2530  148.0080 C   0  0  0  0  0  3  0  0  0  0  0  0
  161.8820  212.7330  147.7740 C   0  0  1  0  0  3  0  0  0  0  0  0
  163.1520  213.2140  148.0300 F   0  0  0  0  0  0  0  0  0  0  0  0
  161.4840  213.0760  146.3420 C   0  0  0  0  0  2  0  0  0  0  0  0
  162.5680  213.3090  144.1050 C   0  0  0  0  0  1  0  0  0  0  0  0
  162.6460  213.6870  145.5740 C   0  0  0  0  0  2  0  0  0  0  0  0
  1 21  1  0  0  0  0
  2  1  1  6  0  0  0
  2  3  1  0  0  0  0
  3  5  1  0  0  0  0
  4  7  1  0  0  0  0
  4  2  1  0  0  0  0
  6  5  1  0  0  0  0
  7  8  1  6  0  0  0
  7  6  1  0  0  0  0
  8 11  1  6  0  0  0
  8  9  1  0  0  0  0
 10  9  1  0  0  0  0
 13 12  1  6  0  0  0
 13 11  1  0  0  0  0
 14 18  2  0  0  0  0
 14 17  1  0  0  0  0
 16 15  1  0  0  0  0
 16 13  1  0  0  0  0
 17 16  2  0  0  0  0
 18 19  1  0  0  0  0
 19 15  2  0  0  0  0
 21 20  1  6  0  0  0
 22 30  1  1  0  0  0
 22 21  1  0  0  0  0
 22 23  1  0  0  0  0
 23 25  1  0  0  0  0
 24 29  1  6  0  0  0
 25 28  1  0  0  0  0
 26 23  2  0  0  0  0
 27 26  1  6  0  0  0
 27 29  1  0  0  0  0
 27 24  1  0  0  0  0
 28 24  1  0  0  0  0
 31 30  1  0  0  0  0
 32 31  1  0  0  0  0
 33 32  2  0  0  0  0
 34 33  1  0  0  0  0
 34 35  1  6  0  0  0
 36 34  1  0  0  0  0
 37 38  1  0  0  0  0
 38 36  1  0  0  0  0
M  END
>  <MODEL>
9

>  <REMARK>
 VINA RESULT:      -6.7      2.596      5.079
  Name = 
  15 active torsions:
  status: ('A' for Active; 'I' for Inactive)
    1  A    between atoms: N_2  and  C_14
    2  A    between atoms: C_3  and  C_4
    3  A    between atoms: C_3  and  C_25
    4  A    between atoms: C_3  and  C_36
    5  A    between atoms: C_6  and  C_18
    6  A    between atoms: C_8  and  C_9
    7  A    between atoms: C_8  and  C_26
    8  A    between atoms: C_13  and  C_37
    9  A    between atoms: C_13  and  C_38
   10  A    between atoms: C_14  and  C_25
   11  A    between atoms: C_17  and  C_38
   12  A    between atoms: C_18  and  C_36
   13  A    between atoms: C_19  and  C_37
   14  A    between atoms: C_26  and  C_30
   15  A    between atoms: C_34  and  C_37
                            x       y       z     vdW  Elec       q    Type
                         _______ _______ _______ _____ _____    ______ ____

>  <TORSDO>
F 15

$$$$
