=
 OpenBabel11072409463D

 49 56  0  0  1  0  0  0  0  0999 V2000
  160.8440  209.3540  148.3540 N   0  0  2  0  0  0  0  0  0  0  0  0
  159.9270  212.4250  148.8760 O   0  0  0  0  0  0  0  0  0  0  0  0
  162.0810  207.1200  148.4740 C   0  0  1  0  0  0  0  0  0  0  0  0
  161.4900  212.0460  150.5470 C   0  0  2  0  0  3  0  0  0  0  0  0
  160.7110  205.3200  151.7110 N   0  0  0  0  0  0  0  0  0  0  0  0
  161.1790  205.9290  152.7620 C   0  0  0  0  0  3  0  0  0  0  0  0
  162.2380  209.9570  151.4790 C   0  0  0  0  0  2  0  0  0  0  0  0
  163.2440  212.2830  146.9160 C   0  0  0  0  0  2  0  0  0  0  0  0
  161.4570  210.5530  150.4080 N   0  0  2  0  0  0  0  0  0  0  0  0
  160.0210  207.0790  150.0420 C   0  0  0  0  0  2  0  0  0  0  0  0
  161.3440  208.1760  147.6290 C   0  0  0  0  0  2  0  0  0  0  0  0
  163.0990  207.3490  153.2160 C   0  0  0  0  0  1  0  0  0  0  0  0
  160.6990  205.7600  150.3060 C   0  0  1  0  0  0  0  0  0  0  0  0
  162.5450  214.3280  145.9350 C   0  0  0  0  0  2  0  0  0  0  0  0
  161.1680  212.8480  148.3690 C   0  0  2  0  0  3  0  0  0  0  0  0
  160.7960  208.3500  152.9660 C   0  0  0  0  0  2  0  0  0  0  0  0
  163.5410  207.5330  148.5600 C   0  0  0  0  0  1  0  0  0  0  0  0
  160.0860  212.5450  150.2640 C   0  0  2  0  0  3  0  0  0  0  0  0
  163.3450  213.7590  146.8690 C   0  0  1  0  0  3  0  0  0  0  0  0
  162.9750  214.0780  149.4770 C   0  0  0  0  0  2  0  0  0  0  0  0
  161.7360  212.0820  147.1690 C   0  0  2  0  0  0  0  0  0  0  0  0
  160.2010  210.2280  147.3440 C   0  0  0  0  0  2  0  0  0  0  0  0
  161.3360  209.7670  152.6960 C   0  0  1  0  0  3  0  0  0  0  0  0
  161.6830  213.3740  145.0700 C   0  0  0  0  0  2  0  0  0  0  0  0
  161.5590  206.9720  149.9280 C   0  0  1  0  0  3  0  0  0  0  0  0
  161.1690  210.9610  146.3790 C   0  0  1  0  0  3  0  0  0  0  0  0
  162.2340  212.7190  149.4070 C   0  0  1  0  0  3  0  0  0  0  0  0
  161.7360  207.2490  152.7280 N   0  0  0  0  0  0  0  0  0  0  0  0
  162.0530  205.9110  147.7750 O   0  0  0  0  0  1  0  0  0  0  0  0
  161.9350  209.9980  149.1200 C   0  0  0  0  0  2  0  0  0  0  0  0
  160.8260  212.4480  146.0060 C   0  0  1  0  0  3  0  0  0  0  0  0
  163.7800  214.4530  148.1630 C   0  0  0  0  0  2  0  0  0  0  0  0
  159.0980  211.7510  150.9850 N   0  0  0  0  0  2  0  0  0  0  0  0
  158.1420  213.3900  152.3410 O   0  0  0  0  0  0  0  0  0  0  0  0
  158.2530  211.2550  153.2470 N   0  0  0  0  0  1  0  0  0  0  0  0
  158.4610  212.1890  152.1810 C   0  0  0  0  0  0  0  0  0  0  0  0
  161.7560  210.5320  153.9520 C   0  0  0  0  0  2  0  0  0  0  0  0
  161.1130  209.9840  155.1360 N   0  0  0  0  0  1  0  0  0  0  0  0
  160.4580  204.7560  149.3480 O   0  0  0  0  0  0  0  0  0  0  0  0
  161.2370  203.6270  149.6820 C   0  0  0  0  0  2  0  0  0  0  0  0
  160.5110  202.3260  149.3340 C   0  0  0  0  0  2  0  0  0  0  0  0
  161.0930  203.7720  144.9200 O   0  0  0  0  0  0  0  0  0  0  0  0
  160.2020  201.6050  144.9800 C   0  0  0  0  0  3  0  0  0  0  0  0
  160.9250  200.5290  147.7420 C   0  0  0  0  0  3  0  0  0  0  0  0
  160.3750  200.3390  145.3480 C   0  0  0  0  0  3  0  0  0  0  0  0
  161.1650  202.8090  146.9960 O   0  0  0  0  0  0  0  0  0  0  0  0
  160.8720  201.8430  147.9700 C   0  0  0  0  0  0  0  0  0  0  0  0
  160.8530  202.7560  145.6260 C   0  0  0  0  0  0  0  0  0  0  0  0
  161.3340  199.9560  146.4270 C   0  0  0  0  0  2  0  0  0  0  0  0
  1 22  1  6  0  0  0
  1 30  1  0  0  0  0
  2 18  1  0  0  0  0
  3 17  1  1  0  0  0
  3 25  1  0  0  0  0
  5  6  2  0  0  0  0
  7 23  1  0  0  0  0
  8 21  1  0  0  0  0
  9  4  1  0  0  0  0
  9  7  1  0  0  0  0
 10 13  1  0  0  0  0
 11  1  1  0  0  0  0
 11  3  1  0  0  0  0
 13  5  1  0  0  0  0
 14 19  1  0  0  0  0
 15  2  1  0  0  0  0
 15 27  1  0  0  0  0
 18  4  1  0  0  0  0
 18 33  1  0  0  0  0
 19  8  1  0  0  0  0
 19 32  1  0  0  0  0
 21 15  1  0  0  0  0
 23 16  1  0  0  0  0
 23 37  1  0  0  0  0
 24 14  1  0  0  0  0
 24 31  1  0  0  0  0
 25 10  1  0  0  0  0
 25 13  1  0  0  0  0
 26 21  1  0  0  0  0
 26 22  1  0  0  0  0
 27 20  1  0  0  0  0
 27  4  1  0  0  0  0
 28  6  1  0  0  0  0
 28 16  1  0  0  0  0
 28 12  1  0  0  0  0
 29  3  1  0  0  0  0
 30  9  1  0  0  0  0
 31 26  1  0  0  0  0
 31 21  1  0  0  0  0
 32 20  1  0  0  0  0
 33 36  1  0  0  0  0
 36 34  2  0  0  0  0
 36 35  1  0  0  0  0
 37 38  1  0  0  0  0
 39 40  1  0  0  0  0
 39 13  1  0  0  0  0
 41 40  1  0  0  0  0
 42 48  2  0  0  0  0
 43 45  2  0  0  0  0
 43 48  1  0  0  0  0
 44 47  2  0  0  0  0
 45 49  1  0  0  0  0
 46 47  1  0  0  0  0
 47 41  1  0  0  0  0
 48 46  1  0  0  0  0
 49 44  1  0  0  0  0
M  END
>  <MODEL>
1

>  <REMARK>
 VINA RESULT:       8.5      0.000      0.000
  Name = 
  6 active torsions:
  status: ('A' for Active; 'I' for Inactive)
    1  A    between atoms: N_1  and  C_30
    2  A    between atoms: C_3  and  C_35
    3  A    between atoms: O_6  and  C_23
    4  A    between atoms: O_6  and  C_41
    5  A    between atoms: C_11  and  C_37
    6  A    between atoms: C_11  and  C_41
                            x       y       z     vdW  Elec       q    Type
                         _______ _______ _______ _____ _____    ______ ____

>  <TORSDO>
F 6

$$$$
=
 OpenBabel11072409463D

 49 56  0  0  1  0  0  0  0  0999 V2000
  158.9710  211.2190  152.7250 N   0  0  2  0  0  0  0  0  0  0  0  0
  160.7710  208.5300  152.9990 O   0  0  0  0  0  0  0  0  0  0  0  0
  158.2260  213.6260  152.2930 C   0  0  1  0  0  0  0  0  0  0  0  0
  162.2090  210.0290  151.9670 C   0  0  2  0  0  3  0  0  0  0  0  0
  157.8430  213.9300  148.3730 N   0  0  0  0  0  0  0  0  0  0  0  0
  159.0270  213.9270  147.8330 C   0  0  0  0  0  3  0  0  0  0  0  0
  161.6860  212.0100  150.7040 C   0  0  0  0  0  2  0  0  0  0  0  0
  161.5680  211.0250  155.8290 C   0  0  0  0  0  2  0  0  0  0  0  0
  161.1230  210.9810  151.5650 N   0  0  2  0  0  0  0  0  0  0  0  0
  157.8170  212.1770  150.1850 C   0  0  0  0  0  2  0  0  0  0  0  0
  158.1070  212.3380  153.1290 C   0  0  0  0  0  2  0  0  0  0  0  0
  161.2720  214.4530  148.6030 C   0  0  0  0  0  1  0  0  0  0  0  0
  157.4410  213.5680  149.7430 C   0  0  1  0  0  0  0  0  0  0  0  0
  162.0660  209.1080  157.1370 C   0  0  0  0  0  2  0  0  0  0  0  0
  161.4990  209.1600  154.0240 C   0  0  2  0  0  3  0  0  0  0  0  0
  160.5340  212.0530  148.3500 C   0  0  0  0  0  2  0  0  0  0  0  0
  159.3590  214.4530  152.8750 C   0  0  0  0  0  1  0  0  0  0  0  0
  161.6210  208.6330  151.8880 C   0  0  2  0  0  3  0  0  0  0  0  0
  162.5880  210.1260  156.4110 C   0  0  1  0  0  3  0  0  0  0  0  0
  163.8740  209.7560  154.1190 C   0  0  0  0  0  2  0  0  0  0  0  0
  160.7150  210.0370  155.0070 C   0  0  2  0  0  0  0  0  0  0  0  0
  158.7030  210.1150  153.6770 C   0  0  0  0  0  2  0  0  0  0  0  0
  161.6520  211.5130  149.2610 C   0  0  1  0  0  3  0  0  0  0  0  0
  160.5220  209.0510  157.2580 C   0  0  0  0  0  2  0  0  0  0  0  0
  158.5480  213.3970  150.7910 C   0  0  1  0  0  3  0  0  0  0  0  0
  159.2610  210.3140  155.1100 C   0  0  1  0  0  3  0  0  0  0  0  0
  162.5170  210.0920  153.4530 C   0  0  1  0  0  3  0  0  0  0  0  0
  160.2040  213.4740  148.5110 N   0  0  0  0  0  0  0  0  0  0  0  0
  157.0580  214.3700  152.4760 O   0  0  0  0  0  1  0  0  0  0  0  0
  160.3870  211.6480  152.6640 C   0  0  0  0  0  2  0  0  0  0  0  0
  159.8810  209.0600  155.8230 C   0  0  1  0  0  3  0  0  0  0  0  0
  163.9310  210.0540  155.6770 C   0  0  0  0  0  2  0  0  0  0  0  0
  160.8920  208.4480  150.6400 N   0  0  0  0  0  2  0  0  0  0  0  0
  161.0330  206.1320  150.4040 O   0  0  0  0  0  0  0  0  0  0  0  0
  161.0270  207.3580  148.4330 N   0  0  0  0  0  1  0  0  0  0  0  0
  160.9600  207.2580  149.8600 C   0  0  0  0  0  0  0  0  0  0  0  0
  163.0140  211.3800  148.5780 C   0  0  0  0  0  2  0  0  0  0  0  0
  163.1030  212.2550  147.4190 N   0  0  0  0  0  1  0  0  0  0  0  0
  156.1660  214.0050  150.1470 O   0  0  0  0  0  0  0  0  0  0  0  0
  155.7330  213.1890  151.2150 C   0  0  0  0  0  2  0  0  0  0  0  0
  155.0070  214.0080  152.2840 C   0  0  0  0  0  2  0  0  0  0  0  0
  153.6120  214.4530  156.7310 O   0  0  0  0  0  0  0  0  0  0  0  0
  155.4730  213.0350  156.5750 C   0  0  0  0  0  3  0  0  0  0  0  0
  155.4910  212.0710  153.6800 C   0  0  0  0  0  3  0  0  0  0  0  0
  155.9720  211.9020  156.0900 C   0  0  0  0  0  3  0  0  0  0  0  0
  154.1120  213.8290  154.5850 O   0  0  0  0  0  0  0  0  0  0  0  0
  154.8870  213.2550  153.5650 C   0  0  0  0  0  0  0  0  0  0  0  0
  154.3570  213.7790  155.9680 C   0  0  0  0  0  0  0  0  0  0  0  0
  155.3760  211.2230  154.9020 C   0  0  0  0  0  2  0  0  0  0  0  0
  1 30  1  1  0  0  0
  1 11  1  0  0  0  0
  1 22  1  0  0  0  0
  2 15  1  0  0  0  0
  3 29  1  0  0  0  0
  3 17  1  1  0  0  0
  3 11  1  0  0  0  0
  4 27  1  0  0  0  0
  5 13  1  0  0  0  0
  6  5  2  0  0  0  0
  6 28  1  0  0  0  0
  7  9  1  0  0  0  0
  8 19  1  0  0  0  0
  9  4  1  0  0  0  0
  9 30  1  0  0  0  0
 10 25  1  0  0  0  0
 13 39  1  0  0  0  0
 13 10  1  0  0  0  0
 13 25  1  0  0  0  0
 14 24  1  0  0  0  0
 15 21  1  0  0  0  0
 16 28  1  0  0  0  0
 16 23  1  0  0  0  0
 18  4  1  0  0  0  0
 18  2  1  0  0  0  0
 19 14  1  0  0  0  0
 20 32  1  0  0  0  0
 21 26  1  0  0  0  0
 21 31  1  0  0  0  0
 21  8  1  0  0  0  0
 22 26  1  0  0  0  0
 23  7  1  0  0  0  0
 25  3  1  0  0  0  0
 26 31  1  0  0  0  0
 27 15  1  0  0  0  0
 27 20  1  0  0  0  0
 28 12  1  0  0  0  0
 31 24  1  0  0  0  0
 32 19  1  0  0  0  0
 33 18  1  0  0  0  0
 35 36  1  0  0  0  0
 36 34  2  0  0  0  0
 36 33  1  0  0  0  0
 37 23  1  0  0  0  0
 38 37  1  0  0  0  0
 39 40  1  0  0  0  0
 40 41  1  0  0  0  0
 41 47  1  0  0  0  0
 44 49  1  0  0  0  0
 45 43  2  0  0  0  0
 46 48  1  0  0  0  0
 47 44  2  0  0  0  0
 47 46  1  0  0  0  0
 48 43  1  0  0  0  0
 48 42  2  0  0  0  0
 49 45  1  0  0  0  0
M  END
>  <MODEL>
2

>  <REMARK>
 VINA RESULT:       9.8      3.471      9.711
  Name = 
  6 active torsions:
  status: ('A' for Active; 'I' for Inactive)
    1  A    between atoms: N_1  and  C_30
    2  A    between atoms: C_3  and  C_35
    3  A    between atoms: O_6  and  C_23
    4  A    between atoms: O_6  and  C_41
    5  A    between atoms: C_11  and  C_37
    6  A    between atoms: C_11  and  C_41
                            x       y       z     vdW  Elec       q    Type
                         _______ _______ _______ _____ _____    ______ ____

>  <TORSDO>
F 6

$$$$
=
 OpenBabel11072409463D

 49 56  0  0  1  0  0  0  0  0999 V2000
  160.9680  209.1760  150.6350 N   0  0  2  0  0  0  0  0  0  0  0  0
  159.3650  211.8510  149.7320 O   0  0  0  0  0  0  0  0  0  0  0  0
  162.5640  207.5680  151.8200 C   0  0  1  0  0  0  0  0  0  0  0  0
  160.5450  212.5460  151.6030 C   0  0  2  0  0  3  0  0  0  0  0  0
  160.8710  206.7630  155.2970 N   0  0  0  0  0  0  0  0  0  0  0  0
  160.9550  207.8150  156.0590 C   0  0  0  0  0  3  0  0  0  0  0  0
  161.4590  211.2280  153.3970 C   0  0  0  0  0  2  0  0  0  0  0  0
  163.0040  211.9210  148.4600 C   0  0  0  0  0  2  0  0  0  0  0  0
  160.8420  211.1570  152.0820 N   0  0  2  0  0  0  0  0  0  0  0  0
  160.2480  207.5370  152.9800 C   0  0  0  0  0  2  0  0  0  0  0  0
  161.8460  208.0010  150.5280 C   0  0  0  0  0  2  0  0  0  0  0  0
  162.3980  209.7690  156.1440 C   0  0  0  0  0  1  0  0  0  0  0  0
  161.0960  206.6420  153.8460 C   0  0  1  0  0  0  0  0  0  0  0  0
  162.1570  213.1970  146.6460 C   0  0  0  0  0  2  0  0  0  0  0  0
  160.5800  212.3840  149.2650 C   0  0  2  0  0  3  0  0  0  0  0  0
  160.0620  209.9410  155.2040 C   0  0  0  0  0  2  0  0  0  0  0  0
  163.8520  208.3660  151.9230 C   0  0  0  0  0  1  0  0  0  0  0  0
  159.1740  212.5050  150.9570 C   0  0  2  0  0  3  0  0  0  0  0  0
  162.8170  213.2460  147.8280 C   0  0  1  0  0  3  0  0  0  0  0  0
  161.8020  214.3750  150.0050 C   0  0  0  0  0  2  0  0  0  0  0  0
  161.5490  211.4220  148.5700 C   0  0  2  0  0  0  0  0  0  0  0  0
  160.4150  209.4140  149.2810 C   0  0  0  0  0  2  0  0  0  0  0  0
  160.3570  211.2530  154.4540 C   0  0  1  0  0  3  0  0  0  0  0  0
  161.7240  211.7970  146.1400 C   0  0  0  0  0  2  0  0  0  0  0  0
  161.7610  207.8210  153.1250 C   0  0  1  0  0  3  0  0  0  0  0  0
  161.4130  209.9810  148.2390 C   0  0  1  0  0  3  0  0  0  0  0  0
  161.3820  212.9370  150.3980 C   0  0  1  0  0  3  0  0  0  0  0  0
  161.2310  209.1300  155.5640 N   0  0  0  0  0  0  0  0  0  0  0  0
  162.9380  206.2290  151.6790 O   0  0  0  0  0  1  0  0  0  0  0  0
  161.7040  210.3260  151.2100 C   0  0  0  0  0  2  0  0  0  0  0  0
  160.8760  211.0770  147.2490 C   0  0  1  0  0  3  0  0  0  0  0  0
  162.7970  214.4530  148.7710 C   0  0  0  0  0  2  0  0  0  0  0  0
  158.2240  211.7890  151.8020 N   0  0  0  0  0  2  0  0  0  0  0  0
  156.9380  213.5650  152.5970 O   0  0  0  0  0  0  0  0  0  0  0  0
  157.2220  211.7790  154.0530 N   0  0  0  0  0  1  0  0  0  0  0  0
  157.4190  212.4240  152.7890 C   0  0  0  0  0  0  0  0  0  0  0  0
  160.3170  212.5050  155.3320 C   0  0  0  0  0  2  0  0  0  0  0  0
  159.8580  212.1860  156.6750 N   0  0  0  0  0  1  0  0  0  0  0  0
  161.2860  205.3350  153.3590 O   0  0  0  0  0  0  0  0  0  0  0  0
  160.2710  205.0580  152.4190 C   0  0  0  0  0  2  0  0  0  0  0  0
  160.5820  203.7920  151.6180 C   0  0  0  0  0  2  0  0  0  0  0  0
  161.1140  201.6840  147.4720 O   0  0  0  0  0  0  0  0  0  0  0  0
  161.9650  203.8680  147.4170 C   0  0  0  0  0  3  0  0  0  0  0  0
  160.5780  205.3150  149.7170 C   0  0  0  0  0  3  0  0  0  0  0  0
  161.7070  205.1670  147.5320 C   0  0  0  0  0  3  0  0  0  0  0  0
  160.5290  202.9420  149.2940 O   0  0  0  0  0  0  0  0  0  0  0  0
  160.5720  204.0530  150.1500 C   0  0  0  0  0  0  0  0  0  0  0  0
  161.1730  202.8030  148.0510 C   0  0  0  0  0  0  0  0  0  0  0  0
  160.5110  205.6700  148.2700 C   0  0  0  0  0  2  0  0  0  0  0  0
  1 22  1  6  0  0  0
  1 30  1  0  0  0  0
  2 18  1  0  0  0  0
  3 17  1  1  0  0  0
  3 25  1  0  0  0  0
  4  9  1  0  0  0  0
  5  6  2  0  0  0  0
  7 23  1  0  0  0  0
  8 21  1  0  0  0  0
  9  7  1  0  0  0  0
 10 25  1  0  0  0  0
 10 13  1  0  0  0  0
 11  1  1  0  0  0  0
 11  3  1  0  0  0  0
 13  5  1  0  0  0  0
 14 19  1  0  0  0  0
 15  2  1  0  0  0  0
 15 27  1  0  0  0  0
 16 28  1  0  0  0  0
 18  4  1  0  0  0  0
 18 33  1  0  0  0  0
 19  8  1  0  0  0  0
 19 32  1  0  0  0  0
 20 27  1  0  0  0  0
 21 15  1  0  0  0  0
 23 16  1  0  0  0  0
 23 37  1  0  0  0  0
 24 14  1  0  0  0  0
 24 31  1  0  0  0  0
 25 13  1  0  0  0  0
 26 21  1  0  0  0  0
 26 22  1  0  0  0  0
 27  4  1  0  0  0  0
 28  6  1  0  0  0  0
 28 12  1  0  0  0  0
 29  3  1  0  0  0  0
 30  9  1  0  0  0  0
 31 26  1  0  0  0  0
 31 21  1  0  0  0  0
 32 20  1  0  0  0  0
 33 36  1  0  0  0  0
 34 36  2  0  0  0  0
 36 35  1  0  0  0  0
 37 38  1  0  0  0  0
 39 13  1  0  0  0  0
 40 39  1  0  0  0  0
 41 40  1  0  0  0  0
 42 48  2  0  0  0  0
 43 45  2  0  0  0  0
 43 48  1  0  0  0  0
 44 47  2  0  0  0  0
 45 49  1  0  0  0  0
 46 47  1  0  0  0  0
 47 41  1  0  0  0  0
 48 46  1  0  0  0  0
 49 44  1  0  0  0  0
M  END
>  <MODEL>
3

>  <REMARK>
 VINA RESULT:       9.8      1.862      2.876
  Name = 
  6 active torsions:
  status: ('A' for Active; 'I' for Inactive)
    1  A    between atoms: N_1  and  C_30
    2  A    between atoms: C_3  and  C_35
    3  A    between atoms: O_6  and  C_23
    4  A    between atoms: O_6  and  C_41
    5  A    between atoms: C_11  and  C_37
    6  A    between atoms: C_11  and  C_41
                            x       y       z     vdW  Elec       q    Type
                         _______ _______ _______ _____ _____    ______ ____

>  <TORSDO>
F 6

$$$$
=
 OpenBabel11072409463D

 49 56  0  0  1  0  0  0  0  0999 V2000
  162.3620  208.8710  150.8730 N   0  0  2  0  0  0  0  0  0  0  0  0
  162.4180  207.4030  153.7690 O   0  0  0  0  0  0  0  0  0  0  0  0
  161.5780  210.0870  148.7660 C   0  0  1  0  0  0  0  0  0  0  0  0
  160.2700  208.2660  153.6530 C   0  0  2  0  0  3  0  0  0  0  0  0
  161.2070  213.8790  149.8040 N   0  0  0  0  0  0  0  0  0  0  0  0
  160.1660  214.0050  150.5750 C   0  0  0  0  0  3  0  0  0  0  0  0
  159.4300  210.0710  152.3010 C   0  0  0  0  0  2  0  0  0  0  0  0
  160.7490  205.1630  151.1130 C   0  0  0  0  0  2  0  0  0  0  0  0
  160.5770  209.2070  152.5270 N   0  0  2  0  0  0  0  0  0  0  0  0
  162.4420  211.7970  150.5070 C   0  0  0  0  0  2  0  0  0  0  0  0
  162.5010  209.0420  149.4190 C   0  0  0  0  0  2  0  0  0  0  0  0
  158.1330  212.7250  150.9460 C   0  0  0  0  0  1  0  0  0  0  0  0
  161.9180  212.6580  149.3880 C   0  0  1  0  0  0  0  0  0  0  0  0
  161.5790  203.3400  152.3860 C   0  0  0  0  0  2  0  0  0  0  0  0
  161.6060  206.3870  153.2350 C   0  0  2  0  0  3  0  0  0  0  0  0
  160.0410  212.6040  152.5930 C   0  0  0  0  0  2  0  0  0  0  0  0
  160.2640  209.3990  148.4340 C   0  0  0  0  0  1  0  0  0  0  0  0
  161.5180  208.1830  154.5090 C   0  0  2  0  0  3  0  0  0  0  0  0
  160.4890  204.0900  152.0980 C   0  0  1  0  0  3  0  0  0  0  0  0
  159.3390  205.7040  153.8640 C   0  0  0  0  0  2  0  0  0  0  0  0
  161.8900  205.9430  151.7960 C   0  0  2  0  0  0  0  0  0  0  0  0
  163.3220  207.8120  151.2660 C   0  0  0  0  0  2  0  0  0  0  0  0
  159.5450  211.2870  153.2180 C   0  0  1  0  0  3  0  0  0  0  0  0
  162.8930  203.6970  151.6460 C   0  0  0  0  0  2  0  0  0  0  0  0
  161.2430  211.3090  149.6630 C   0  0  1  0  0  3  0  0  0  0  0  0
  162.9420  206.3700  150.8400 C   0  0  1  0  0  3  0  0  0  0  0  0
  160.1770  206.8210  153.1950 C   0  0  1  0  0  3  0  0  0  0  0  0
  159.5420  212.9040  151.2460 N   0  0  0  0  0  0  0  0  0  0  0  0
  162.1450  210.4630  147.5460 O   0  0  0  0  0  1  0  0  0  0  0  0
  160.9540  208.5890  151.2330 C   0  0  0  0  0  2  0  0  0  0  0  0
  163.2250  205.2160  151.8680 C   0  0  1  0  0  3  0  0  0  0  0  0
  159.3310  204.3280  153.0730 C   0  0  0  0  0  2  0  0  0  0  0  0
  162.0560  209.5120  154.7730 N   0  0  0  0  0  2  0  0  0  0  0  0
  162.7070  209.2730  157.0000 O   0  0  0  0  0  0  0  0  0  0  0  0
  161.9630  211.3820  156.3770 N   0  0  0  0  0  1  0  0  0  0  0  0
  162.2880  210.0180  156.0840 C   0  0  0  0  0  0  0  0  0  0  0  0
  158.4110  211.4560  154.2310 C   0  0  0  0  0  2  0  0  0  0  0  0
  158.7510  210.8370  155.5020 N   0  0  0  0  0  1  0  0  0  0  0  0
  162.7740  212.7920  148.2780 O   0  0  0  0  0  0  0  0  0  0  0  0
  162.3920  213.9440  147.5580 C   0  0  0  0  0  2  0  0  0  0  0  0
  162.7440  213.8180  146.0750 C   0  0  0  0  0  2  0  0  0  0  0  0
  161.7190  212.0850  141.8480 O   0  0  0  0  0  0  0  0  0  0  0  0
  159.8160  213.0100  142.8580 C   0  0  0  0  0  3  0  0  0  0  0  0
  160.4450  213.0470  145.8440 C   0  0  0  0  0  3  0  0  0  0  0  0
  158.9630  212.9650  143.8770 C   0  0  0  0  0  3  0  0  0  0  0  0
  162.0040  212.5720  144.0670 O   0  0  0  0  0  0  0  0  0  0  0  0
  161.6650  213.1280  145.3110 C   0  0  0  0  0  0  0  0  0  0  0  0
  161.2040  212.5220  142.9130 C   0  0  0  0  0  0  0  0  0  0  0  0
  159.3220  212.3260  145.1780 C   0  0  0  0  0  2  0  0  0  0  0  0
  1 11  1  6  0  0  0
  1 30  1  0  0  0  0
  1 22  1  0  0  0  0
  2 18  1  0  0  0  0
  3 17  1  6  0  0  0
  3 11  1  0  0  0  0
  3 25  1  0  0  0  0
  4 18  1  0  0  0  0
  5  6  2  0  0  0  0
  6 28  1  0  0  0  0
  7  9  1  0  0  0  0
  7 23  1  0  0  0  0
  8 21  1  0  0  0  0
  8 19  1  0  0  0  0
  9  4  1  0  0  0  0
 12 28  1  0  0  0  0
 13 25  1  0  0  0  0
 13  5  1  0  0  0  0
 13 10  1  0  0  0  0
 15  2  1  0  0  0  0
 16 23  1  0  0  0  0
 18 33  1  0  0  0  0
 19 14  1  0  0  0  0
 19 32  1  0  0  0  0
 21 31  1  0  0  0  0
 21 15  1  0  0  0  0
 23 37  1  0  0  0  0
 24 31  1  0  0  0  0
 24 14  1  0  0  0  0
 25 10  1  0  0  0  0
 26 22  1  0  0  0  0
 26 21  1  0  0  0  0
 26 31  1  0  0  0  0
 27 15  1  0  0  0  0
 27  4  1  0  0  0  0
 27 20  1  0  0  0  0
 28 16  1  0  0  0  0
 29  3  1  0  0  0  0
 30  9  1  0  0  0  0
 32 20  1  0  0  0  0
 33 36  1  0  0  0  0
 36 35  1  0  0  0  0
 36 34  2  0  0  0  0
 37 38  1  0  0  0  0
 39 13  1  0  0  0  0
 40 39  1  0  0  0  0
 41 40  1  0  0  0  0
 42 48  2  0  0  0  0
 43 48  1  0  0  0  0
 43 45  2  0  0  0  0
 45 49  1  0  0  0  0
 46 47  1  0  0  0  0
 47 44  2  0  0  0  0
 47 41  1  0  0  0  0
 48 46  1  0  0  0  0
 49 44  1  0  0  0  0
M  END
>  <MODEL>
4

>  <REMARK>
 VINA RESULT:      11.3      3.417      8.085
  Name = 
  6 active torsions:
  status: ('A' for Active; 'I' for Inactive)
    1  A    between atoms: N_1  and  C_30
    2  A    between atoms: C_3  and  C_35
    3  A    between atoms: O_6  and  C_23
    4  A    between atoms: O_6  and  C_41
    5  A    between atoms: C_11  and  C_37
    6  A    between atoms: C_11  and  C_41
                            x       y       z     vdW  Elec       q    Type
                         _______ _______ _______ _____ _____    ______ ____

>  <TORSDO>
F 6

$$$$
