=
 OpenBabel11072414393D

 26 28  0  0  1  0  0  0  0  0999 V2000
  161.1620  207.2290  149.4100 N   0  0  0  0  0  2  0  0  0  0  0  0
  162.8680  207.3220  147.8150 O   0  0  0  0  0  0  0  0  0  0  0  0
  161.6820  207.0090  148.0990 C   0  0  0  0  0  0  0  0  0  0  0  0
  161.3810  205.3670  153.3570 C   0  0  0  0  0  3  0  0  0  0  0  0
  160.8070  206.2870  154.2520 C   0  0  0  0  0  3  0  0  0  0  0  0
  160.6550  207.5930  153.8910 N   0  0  0  0  0  0  0  0  0  0  0  0
  161.7910  205.8000  152.0890 C   0  0  0  0  0  3  0  0  0  0  0  0
  160.9480  209.3900  152.1310 C   0  0  1  0  0  3  0  0  0  0  0  0
  161.5300  209.2720  150.7130 C   0  0  0  0  0  2  0  0  0  0  0  0
  161.9540  207.8090  150.4850 C   0  0  1  0  0  3  0  0  0  0  0  0
  161.0620  208.0120  152.6630 C   0  0  0  0  0  0  0  0  0  0  0  0
  161.6140  207.1450  151.7610 C   0  0  0  0  0  0  0  0  0  0  0  0
  161.2590  211.0340  153.8710 N   0  0  0  0  0  2  0  0  0  0  0  0
  161.7830  210.3400  152.9290 C   0  0  0  0  0  3  0  0  0  0  0  0
  160.8220  206.3540  147.0710 C   0  0  0  0  0  2  0  0  0  0  0  0
  161.6660  205.7700  145.9420 C   0  0  2  0  0  3  0  0  0  0  0  0
  160.9480  205.9320  144.6150 C   0  0  0  0  0  1  0  0  0  0  0  0
  162.0460  204.3080  146.1850 C   0  0  0  0  0  2  0  0  0  0  0  0
  160.9160  203.3440  145.8370 C   0  0  0  0  0  2  0  0  0  0  0  0
  161.1500  201.9890  146.4860 C   0  0  0  0  0  2  0  0  0  0  0  0
  160.8610  203.3190  148.5910 C   0  0  0  0  0  3  0  0  0  0  0  0
  161.1710  200.9210  148.7520 C   0  0  0  0  0  3  0  0  0  0  0  0
  161.0660  202.0800  147.9740 C   0  0  0  0  0  0  0  0  0  0  0  0
  160.8770  202.2430  150.7600 C   0  0  0  0  0  3  0  0  0  0  0  0
  161.0790  201.0030  150.1440 C   0  0  0  0  0  3  0  0  0  0  0  0
  160.7680  203.4000  149.9840 C   0  0  0  0  0  3  0  0  0  0  0  0
  2  3  2  0  0  0  0
  3  1  1  0  0  0  0
  4  5  1  0  0  0  0
  6  5  2  0  0  0  0
  7  4  2  0  0  0  0
  8 11  1  0  0  0  0
  8 14  1  1  0  0  0
  9  8  1  0  0  0  0
 10  1  1  6  0  0  0
 10  9  1  0  0  0  0
 10 12  1  0  0  0  0
 11  6  1  0  0  0  0
 12  7  1  0  0  0  0
 12 11  2  0  0  0  0
 14 13  2  0  0  0  0
 15  3  1  0  0  0  0
 16 17  1  6  0  0  0
 16 18  1  0  0  0  0
 16 15  1  0  0  0  0
 19 18  1  0  0  0  0
 19 20  1  0  0  0  0
 20 23  1  0  0  0  0
 21 26  1  0  0  0  0
 22 25  2  0  0  0  0
 23 21  2  0  0  0  0
 23 22  1  0  0  0  0
 25 24  1  0  0  0  0
 26 24  2  0  0  0  0
M  END
>  <MODEL>
1

>  <REMARK>
 VINA RESULT:      -8.7      0.000      0.000
  Name = 
  8 active torsions:
  status: ('A' for Active; 'I' for Inactive)
    1  A    between atoms: C_1  and  C_12
    2  A    between atoms: C_1  and  C_22
    3  A    between atoms: C_7  and  C_18
    4  A    between atoms: N_8  and  C_21
    5  A    between atoms: C_9  and  C_12
    6  A    between atoms: C_9  and  C_17
    7  A    between atoms: C_15  and  C_23
    8  A    between atoms: C_18  and  C_22
                            x       y       z     vdW  Elec       q    Type
                         _______ _______ _______ _____ _____    ______ ____

>  <TORSDO>
F 8

$$$$
=
 OpenBabel11072414393D

 26 28  0  0  1  0  0  0  0  0999 V2000
  160.9280  207.2830  153.2960 N   0  0  0  0  0  2  0  0  0  0  0  0
  162.7200  206.6100  151.9550 O   0  0  0  0  0  0  0  0  0  0  0  0
  161.6660  206.2990  152.5700 C   0  0  0  0  0  0  0  0  0  0  0  0
  160.7480  209.5040  157.0540 C   0  0  0  0  0  3  0  0  0  0  0  0
  159.8190  210.5390  156.8490 C   0  0  0  0  0  3  0  0  0  0  0  0
  159.4600  210.8990  155.5830 N   0  0  0  0  0  0  0  0  0  0  0  0
  161.3010  208.8430  155.9500 C   0  0  0  0  0  3  0  0  0  0  0  0
  159.7010  210.5340  153.0900 C   0  0  1  0  0  3  0  0  0  0  0  0
  160.5690  209.5100  152.3400 C   0  0  0  0  0  2  0  0  0  0  0  0
  161.3400  208.6760  153.3800 C   0  0  1  0  0  3  0  0  0  0  0  0
  160.0040  210.2600  154.5130 C   0  0  0  0  0  0  0  0  0  0  0  0
  160.9040  209.2430  154.6740 C   0  0  0  0  0  0  0  0  0  0  0  0
  159.2850  212.7460  152.2200 N   0  0  0  0  0  2  0  0  0  0  0  0
  160.1300  211.9150  152.7090 C   0  0  0  0  0  3  0  0  0  0  0  0
  161.2080  204.8800  152.5850 C   0  0  0  0  0  2  0  0  0  0  0  0
  161.3610  204.2410  151.2090 C   0  0  2  0  0  3  0  0  0  0  0  0
  160.4620  204.9390  150.2050 C   0  0  0  0  0  1  0  0  0  0  0  0
  161.0960  202.7340  151.2260 C   0  0  0  0  0  2  0  0  0  0  0  0
  160.3040  202.2640  150.0100 C   0  0  0  0  0  2  0  0  0  0  0  0
  161.2100  201.5380  149.0290 C   0  0  0  0  0  2  0  0  0  0  0  0
  160.5900  201.4790  146.6010 C   0  0  0  0  0  3  0  0  0  0  0  0
  161.6660  203.4610  147.4890 C   0  0  0  0  0  3  0  0  0  0  0  0
  161.1600  202.1690  147.6770 C   0  0  0  0  0  0  0  0  0  0  0  0
  161.0410  203.3660  145.1510 C   0  0  0  0  0  3  0  0  0  0  0  0
  161.6070  204.0580  146.2270 C   0  0  0  0  0  3  0  0  0  0  0  0
  160.5320  202.0770  145.3380 C   0  0  0  0  0  3  0  0  0  0  0  0
  2  3  2  0  0  0  0
  3 15  1  0  0  0  0
  3  1  1  0  0  0  0
  5  4  1  0  0  0  0
  6  5  2  0  0  0  0
  7  4  2  0  0  0  0
  8 14  1  6  0  0  0
  8 11  1  0  0  0  0
  9  8  1  0  0  0  0
  9 10  1  0  0  0  0
 10  1  1  1  0  0  0
 10 12  1  0  0  0  0
 11 12  2  0  0  0  0
 11  6  1  0  0  0  0
 12  7  1  0  0  0  0
 13 14  2  0  0  0  0
 16 17  1  6  0  0  0
 16 18  1  0  0  0  0
 16 15  1  0  0  0  0
 19 18  1  0  0  0  0
 20 19  1  0  0  0  0
 21 23  1  0  0  0  0
 22 23  2  0  0  0  0
 23 20  1  0  0  0  0
 24 26  1  0  0  0  0
 24 25  2  0  0  0  0
 25 22  1  0  0  0  0
 26 21  2  0  0  0  0
M  END
>  <MODEL>
2

>  <REMARK>
 VINA RESULT:      -8.1      2.106      4.167
  Name = 
  8 active torsions:
  status: ('A' for Active; 'I' for Inactive)
    1  A    between atoms: C_1  and  C_12
    2  A    between atoms: C_1  and  C_22
    3  A    between atoms: C_7  and  C_18
    4  A    between atoms: N_8  and  C_21
    5  A    between atoms: C_9  and  C_12
    6  A    between atoms: C_9  and  C_17
    7  A    between atoms: C_15  and  C_23
    8  A    between atoms: C_18  and  C_22
                            x       y       z     vdW  Elec       q    Type
                         _______ _______ _______ _____ _____    ______ ____

>  <TORSDO>
F 8

$$$$
=
 OpenBabel11072414393D

 26 28  0  0  1  0  0  0  0  0999 V2000
  160.9760  209.0230  151.8010 N   0  0  0  0  0  2  0  0  0  0  0  0
  162.7400  207.5110  151.5420 O   0  0  0  0  0  0  0  0  0  0  0  0
  161.6690  207.9960  151.0900 C   0  0  0  0  0  0  0  0  0  0  0  0
  160.4770  206.8200  155.5410 C   0  0  0  0  0  3  0  0  0  0  0  0
  159.6310  207.6050  156.3430 C   0  0  0  0  0  3  0  0  0  0  0  0
  159.4390  208.9240  156.0540 N   0  0  0  0  0  0  0  0  0  0  0  0
  161.1200  207.4010  154.4390 C   0  0  0  0  0  3  0  0  0  0  0  0
  159.9470  210.8950  154.5490 C   0  0  1  0  0  3  0  0  0  0  0  0
  160.8430  210.9570  153.3010 C   0  0  0  0  0  2  0  0  0  0  0  0
  161.4460  209.5580  153.0700 C   0  0  1  0  0  3  0  0  0  0  0  0
  160.0700  209.4870  154.9890 C   0  0  0  0  0  0  0  0  0  0  0  0
  160.8930  208.7530  154.1800 C   0  0  0  0  0  0  0  0  0  0  0  0
  160.0030  213.0080  155.7140 N   0  0  0  0  0  2  0  0  0  0  0  0
  160.4850  211.8270  155.5870 C   0  0  0  0  0  3  0  0  0  0  0  0
  161.0880  207.4610  149.8250 C   0  0  0  0  0  2  0  0  0  0  0  0
  161.9980  207.7550  148.6370 C   0  0  2  0  0  3  0  0  0  0  0  0
  162.0820  209.2520  148.4000 C   0  0  0  0  0  1  0  0  0  0  0  0
  161.5630  207.0220  147.3660 C   0  0  0  0  0  2  0  0  0  0  0  0
  160.7230  205.7840  147.6620 C   0  0  0  0  0  2  0  0  0  0  0  0
  161.4950  204.5200  147.3200 C   0  0  0  0  0  2  0  0  0  0  0  0
  161.0930  203.7710  149.6790 C   0  0  0  0  0  3  0  0  0  0  0  0
  161.1400  202.1120  147.9140 C   0  0  0  0  0  3  0  0  0  0  0  0
  161.2440  203.4450  148.3260 C   0  0  0  0  0  0  0  0  0  0  0  0
  160.7450  201.4330  150.2050 C   0  0  0  0  0  3  0  0  0  0  0  0
  160.8930  201.1070  148.8530 C   0  0  0  0  0  3  0  0  0  0  0  0
  160.8450  202.7650  150.6180 C   0  0  0  0  0  3  0  0  0  0  0  0
  3  2  2  0  0  0  0
  3  1  1  0  0  0  0
  4  5  1  0  0  0  0
  6  5  2  0  0  0  0
  7  4  2  0  0  0  0
  8 11  1  0  0  0  0
  8 14  1  1  0  0  0
  9  8  1  0  0  0  0
 10  1  1  6  0  0  0
 10  9  1  0  0  0  0
 10 12  1  0  0  0  0
 11  6  1  0  0  0  0
 12  7  1  0  0  0  0
 12 11  2  0  0  0  0
 14 13  2  0  0  0  0
 15  3  1  0  0  0  0
 16 17  1  6  0  0  0
 16 15  1  0  0  0  0
 18 19  1  0  0  0  0
 18 16  1  0  0  0  0
 20 19  1  0  0  0  0
 20 23  1  0  0  0  0
 21 26  1  0  0  0  0
 22 23  1  0  0  0  0
 22 25  2  0  0  0  0
 23 21  2  0  0  0  0
 24 26  2  0  0  0  0
 25 24  1  0  0  0  0
M  END
>  <MODEL>
3

>  <REMARK>
 VINA RESULT:      -8.0      1.866      2.858
  Name = 
  8 active torsions:
  status: ('A' for Active; 'I' for Inactive)
    1  A    between atoms: C_1  and  C_12
    2  A    between atoms: C_1  and  C_22
    3  A    between atoms: C_7  and  C_18
    4  A    between atoms: N_8  and  C_21
    5  A    between atoms: C_9  and  C_12
    6  A    between atoms: C_9  and  C_17
    7  A    between atoms: C_15  and  C_23
    8  A    between atoms: C_18  and  C_22
                            x       y       z     vdW  Elec       q    Type
                         _______ _______ _______ _____ _____    ______ ____

>  <TORSDO>
F 8

$$$$
=
 OpenBabel11072414393D

 26 28  0  0  1  0  0  0  0  0999 V2000
  160.9780  204.0550  150.3680 N   0  0  0  0  0  2  0  0  0  0  0  0
  160.4670  202.8620  152.3130 O   0  0  0  0  0  0  0  0  0  0  0  0
  160.9230  202.8540  151.1390 C   0  0  0  0  0  0  0  0  0  0  0  0
  161.2040  207.6880  147.9520 C   0  0  0  0  0  3  0  0  0  0  0  0
  162.0820  208.5510  148.6300 C   0  0  0  0  0  3  0  0  0  0  0  0
  162.3800  208.3350  149.9440 N   0  0  0  0  0  0  0  0  0  0  0  0
  160.6380  206.6020  148.6330 C   0  0  0  0  0  3  0  0  0  0  0  0
  162.0630  206.9210  152.0190 C   0  0  1  0  0  3  0  0  0  0  0  0
  161.2110  205.6550  152.2100 C   0  0  0  0  0  2  0  0  0  0  0  0
  160.5130  205.3380  150.8740 C   0  0  1  0  0  3  0  0  0  0  0  0
  161.8230  207.2840  150.6040 C   0  0  0  0  0  0  0  0  0  0  0  0
  160.9720  206.4180  149.9750 C   0  0  0  0  0  0  0  0  0  0  0  0
  160.8330  207.6940  153.9460 N   0  0  0  0  0  2  0  0  0  0  0  0
  161.5660  207.9910  152.9370 C   0  0  0  0  0  3  0  0  0  0  0  0
  161.3640  201.5680  150.5240 C   0  0  0  0  0  2  0  0  0  0  0  0
  160.7010  201.3540  149.1670 C   0  0  2  0  0  3  0  0  0  0  0  0
  159.2480  200.9550  149.3530 C   0  0  0  0  0  1  0  0  0  0  0  0
  161.4430  200.3320  148.3030 C   0  0  0  0  0  2  0  0  0  0  0  0
  161.5810  200.7820  146.8520 C   0  0  0  0  0  2  0  0  0  0  0  0
  160.5460  201.8460  146.5220 C   0  0  0  0  0  2  0  0  0  0  0  0
  162.2710  203.6420  146.8140 C   0  0  0  0  0  3  0  0  0  0  0  0
  160.7490  203.7720  144.9330 C   0  0  0  0  0  3  0  0  0  0  0  0
  161.1980  203.1160  146.0850 C   0  0  0  0  0  0  0  0  0  0  0  0
  162.4360  205.4810  145.2470 C   0  0  0  0  0  3  0  0  0  0  0  0
  161.3660  204.9540  144.5160 C   0  0  0  0  0  3  0  0  0  0  0  0
  162.8880  204.8250  146.3960 C   0  0  0  0  0  3  0  0  0  0  0  0
  1  3  1  0  0  0  0
  3  2  2  0  0  0  0
  4  5  2  0  0  0  0
  4  7  1  0  0  0  0
  5  6  1  0  0  0  0
  6 11  2  0  0  0  0
  7 12  2  0  0  0  0
  8  9  1  0  0  0  0
  8 14  1  1  0  0  0
 10  1  1  6  0  0  0
 10  9  1  0  0  0  0
 11  8  1  0  0  0  0
 12 11  1  0  0  0  0
 12 10  1  0  0  0  0
 14 13  2  0  0  0  0
 15  3  1  0  0  0  0
 16 17  1  1  0  0  0
 16 15  1  0  0  0  0
 18 16  1  0  0  0  0
 19 18  1  0  0  0  0
 20 19  1  0  0  0  0
 22 23  1  0  0  0  0
 23 20  1  0  0  0  0
 23 21  2  0  0  0  0
 24 26  2  0  0  0  0
 25 22  2  0  0  0  0
 25 24  1  0  0  0  0
 26 21  1  0  0  0  0
M  END
>  <MODEL>
4

>  <REMARK>
 VINA RESULT:      -7.9      1.931      4.538
  Name = 
  8 active torsions:
  status: ('A' for Active; 'I' for Inactive)
    1  A    between atoms: C_1  and  C_12
    2  A    between atoms: C_1  and  C_22
    3  A    between atoms: C_7  and  C_18
    4  A    between atoms: N_8  and  C_21
    5  A    between atoms: C_9  and  C_12
    6  A    between atoms: C_9  and  C_17
    7  A    between atoms: C_15  and  C_23
    8  A    between atoms: C_18  and  C_22
                            x       y       z     vdW  Elec       q    Type
                         _______ _______ _______ _____ _____    ______ ____

>  <TORSDO>
F 8

$$$$
=
 OpenBabel11072414393D

 26 28  0  0  1  0  0  0  0  0999 V2000
  160.4720  209.5360  152.3620 N   0  0  0  0  0  2  0  0  0  0  0  0
  162.6870  209.8740  151.6930 O   0  0  0  0  0  0  0  0  0  0  0  0
  161.7090  209.0880  151.8070 C   0  0  0  0  0  0  0  0  0  0  0  0
  161.6270  210.7690  156.3910 C   0  0  0  0  0  3  0  0  0  0  0  0
  160.4350  211.1280  157.0440 C   0  0  0  0  0  3  0  0  0  0  0  0
  159.3080  211.3900  156.3200 N   0  0  0  0  0  0  0  0  0  0  0  0
  161.6500  210.6780  154.9930 C   0  0  0  0  0  3  0  0  0  0  0  0
  158.1920  211.5500  154.0540 C   0  0  1  0  0  3  0  0  0  0  0  0
  158.7870  211.2900  152.6600 C   0  0  0  0  0  2  0  0  0  0  0  0
  160.2670  210.8980  152.8310 C   0  0  1  0  0  3  0  0  0  0  0  0
  159.3350  211.3080  154.9630 C   0  0  0  0  0  0  0  0  0  0  0  0
  160.4740  210.9520  154.2940 C   0  0  0  0  0  0  0  0  0  0  0  0
  158.4800  213.9200  153.7000 N   0  0  0  0  0  2  0  0  0  0  0  0
  157.7360  212.9710  154.1370 C   0  0  0  0  0  3  0  0  0  0  0  0
  161.8570  207.6590  151.4050 C   0  0  0  0  0  2  0  0  0  0  0  0
  161.1010  206.7410  152.3590 C   0  0  2  0  0  3  0  0  0  0  0  0
  161.4780  207.0550  153.7960 C   0  0  0  0  0  1  0  0  0  0  0  0
  161.3190  205.2590  152.0480 C   0  0  0  0  0  2  0  0  0  0  0  0
  160.4030  204.7530  150.9380 C   0  0  0  0  0  2  0  0  0  0  0  0
  161.1730  203.8690  149.9700 C   0  0  0  0  0  2  0  0  0  0  0  0
  160.7990  205.7920  148.4060 C   0  0  0  0  0  3  0  0  0  0  0  0
  161.6780  203.7140  147.5210 C   0  0  0  0  0  3  0  0  0  0  0  0
  161.2110  204.4690  148.6030 C   0  0  0  0  0  0  0  0  0  0  0  0
  161.3110  205.6000  146.0470 C   0  0  0  0  0  3  0  0  0  0  0  0
  161.7260  204.2790  146.2440 C   0  0  0  0  0  3  0  0  0  0  0  0
  160.8480  206.3560  147.1270 C   0  0  0  0  0  3  0  0  0  0  0  0
  2  3  2  0  0  0  0
  3  1  1  0  0  0  0
  4  5  1  0  0  0  0
  6  5  2  0  0  0  0
  7  4  2  0  0  0  0
  8 14  1  6  0  0  0
  8 11  1  0  0  0  0
  9 10  1  0  0  0  0
  9  8  1  0  0  0  0
 10  1  1  1  0  0  0
 10 12  1  0  0  0  0
 11  6  1  0  0  0  0
 12 11  2  0  0  0  0
 12  7  1  0  0  0  0
 13 14  2  0  0  0  0
 15  3  1  0  0  0  0
 15 16  1  0  0  0  0
 16 17  1  1  0  0  0
 18 16  1  0  0  0  0
 19 18  1  0  0  0  0
 20 19  1  0  0  0  0
 21 23  1  0  0  0  0
 22 23  2  0  0  0  0
 23 20  1  0  0  0  0
 24 25  2  0  0  0  0
 24 26  1  0  0  0  0
 25 22  1  0  0  0  0
 26 21  2  0  0  0  0
M  END
>  <MODEL>
5

>  <REMARK>
 VINA RESULT:      -7.8      2.543      4.954
  Name = 
  8 active torsions:
  status: ('A' for Active; 'I' for Inactive)
    1  A    between atoms: C_1  and  C_12
    2  A    between atoms: C_1  and  C_22
    3  A    between atoms: C_7  and  C_18
    4  A    between atoms: N_8  and  C_21
    5  A    between atoms: C_9  and  C_12
    6  A    between atoms: C_9  and  C_17
    7  A    between atoms: C_15  and  C_23
    8  A    between atoms: C_18  and  C_22
                            x       y       z     vdW  Elec       q    Type
                         _______ _______ _______ _____ _____    ______ ____

>  <TORSDO>
F 8

$$$$
=
 OpenBabel11072414393D

 26 28  0  0  1  0  0  0  0  0999 V2000
  161.4930  205.6190  149.8420 N   0  0  0  0  0  2  0  0  0  0  0  0
  161.1800  207.8360  149.1700 O   0  0  0  0  0  0  0  0  0  0  0  0
  161.6410  207.0280  150.0200 C   0  0  0  0  0  0  0  0  0  0  0  0
  160.4570  201.3770  149.7090 C   0  0  0  0  0  3  0  0  0  0  0  0
  161.1880  200.8320  148.6380 C   0  0  0  0  0  3  0  0  0  0  0  0
  161.7220  201.6490  147.6850 N   0  0  0  0  0  0  0  0  0  0  0  0
  160.2840  202.7640  149.7920 C   0  0  0  0  0  3  0  0  0  0  0  0
  162.0750  204.0000  146.8160 C   0  0  1  0  0  3  0  0  0  0  0  0
  161.5980  205.3360  147.4100 C   0  0  0  0  0  2  0  0  0  0  0  0
  160.8080  205.0360  148.6980 C   0  0  1  0  0  3  0  0  0  0  0  0
  161.5450  202.9950  147.7650 C   0  0  0  0  0  0  0  0  0  0  0  0
  160.8490  203.5620  148.7970 C   0  0  0  0  0  0  0  0  0  0  0  0
  160.8650  204.7940  144.8840 N   0  0  0  0  0  2  0  0  0  0  0  0
  161.4730  203.8220  145.4590 C   0  0  0  0  0  3  0  0  0  0  0  0
  162.3040  207.5450  151.2510 C   0  0  0  0  0  2  0  0  0  0  0  0
  161.2810  207.8260  152.3480 C   0  0  2  0  0  3  0  0  0  0  0  0
  161.0760  209.3220  152.5010 C   0  0  0  0  0  1  0  0  0  0  0  0
  161.6600  207.1850  153.6850 C   0  0  0  0  0  2  0  0  0  0  0  0
  160.4510  206.9510  154.5850 C   0  0  0  0  0  2  0  0  0  0  0  0
  160.7180  207.4750  155.9870 C   0  0  0  0  0  2  0  0  0  0  0  0
  161.8750  209.6810  156.2670 C   0  0  0  0  0  3  0  0  0  0  0  0
  159.5010  209.6550  155.7830 C   0  0  0  0  0  3  0  0  0  0  0  0
  160.6970  208.9670  156.0190 C   0  0  0  0  0  0  0  0  0  0  0  0
  160.6600  211.7650  156.0510 C   0  0  0  0  0  3  0  0  0  0  0  0
  159.4830  211.0520  155.8000 C   0  0  0  0  0  3  0  0  0  0  0  0
  161.8560  211.0790  156.2840 C   0  0  0  0  0  3  0  0  0  0  0  0
  1  3  1  0  0  0  0
  2  3  2  0  0  0  0
  3 15  1  0  0  0  0
  4  7  1  0  0  0  0
  5  4  2  0  0  0  0
  6 11  2  0  0  0  0
  6  5  1  0  0  0  0
  8 14  1  6  0  0  0
  8  9  1  0  0  0  0
  8 11  1  0  0  0  0
  9 10  1  0  0  0  0
 10 12  1  0  0  0  0
 10  1  1  1  0  0  0
 11 12  1  0  0  0  0
 12  7  2  0  0  0  0
 13 14  2  0  0  0  0
 15 16  1  0  0  0  0
 16 17  1  1  0  0  0
 16 18  1  0  0  0  0
 18 19  1  0  0  0  0
 19 20  1  0  0  0  0
 20 23  1  0  0  0  0
 21 26  1  0  0  0  0
 22 25  2  0  0  0  0
 22 23  1  0  0  0  0
 23 21  2  0  0  0  0
 24 26  2  0  0  0  0
 25 24  1  0  0  0  0
M  END
>  <MODEL>
6

>  <REMARK>
 VINA RESULT:      -7.7      2.488      8.067
  Name = 
  8 active torsions:
  status: ('A' for Active; 'I' for Inactive)
    1  A    between atoms: C_1  and  C_12
    2  A    between atoms: C_1  and  C_22
    3  A    between atoms: C_7  and  C_18
    4  A    between atoms: N_8  and  C_21
    5  A    between atoms: C_9  and  C_12
    6  A    between atoms: C_9  and  C_17
    7  A    between atoms: C_15  and  C_23
    8  A    between atoms: C_18  and  C_22
                            x       y       z     vdW  Elec       q    Type
                         _______ _______ _______ _____ _____    ______ ____

>  <TORSDO>
F 8

$$$$
=
 OpenBabel11072414393D

 26 28  0  0  1  0  0  0  0  0999 V2000
  161.9490  207.3860  152.0000 N   0  0  0  0  0  2  0  0  0  0  0  0
  160.5410  206.8160  150.2230 O   0  0  0  0  0  0  0  0  0  0  0  0
  161.7120  207.0160  150.6410 C   0  0  0  0  0  0  0  0  0  0  0  0
  160.3480  211.3380  152.9490 C   0  0  0  0  0  3  0  0  0  0  0  0
  160.6380  211.5590  154.3070 C   0  0  0  0  0  3  0  0  0  0  0  0
  160.9660  210.5120  155.1180 N   0  0  0  0  0  0  0  0  0  0  0  0
  160.4010  210.0370  152.4330 C   0  0  0  0  0  3  0  0  0  0  0  0
  161.3590  208.0240  155.3700 C   0  0  1  0  0  3  0  0  0  0  0  0
  161.2730  206.9160  154.3080 C   0  0  0  0  0  2  0  0  0  0  0  0
  160.8770  207.5620  152.9670 C   0  0  1  0  0  3  0  0  0  0  0  0
  161.0090  209.2490  154.6160 C   0  0  0  0  0  0  0  0  0  0  0  0
  160.7420  208.9970  153.2980 C   0  0  0  0  0  0  0  0  0  0  0  0
  159.3070  207.0610  156.1970 N   0  0  0  0  0  2  0  0  0  0  0  0
  160.3560  207.7540  156.4460 C   0  0  0  0  0  3  0  0  0  0  0  0
  162.8630  206.9140  149.6980 C   0  0  0  0  0  2  0  0  0  0  0  0
  162.5350  207.5720  148.3610 C   0  0  2  0  0  3  0  0  0  0  0  0
  161.8120  208.8870  148.5890 C   0  0  0  0  0  1  0  0  0  0  0  0
  161.7310  206.6580  147.4360 C   0  0  0  0  0  2  0  0  0  0  0  0
  162.4300  205.3280  147.1740 C   0  0  0  0  0  2  0  0  0  0  0  0
  161.4210  204.2620  146.7760 C   0  0  0  0  0  2  0  0  0  0  0  0
  161.1980  201.9080  147.6090 C   0  0  0  0  0  3  0  0  0  0  0  0
  161.0340  203.7330  149.1950 C   0  0  0  0  0  3  0  0  0  0  0  0
  161.2070  203.2810  147.8810 C   0  0  0  0  0  0  0  0  0  0  0  0
  160.8350  201.4440  149.9580 C   0  0  0  0  0  3  0  0  0  0  0  0
  160.8470  202.8150  150.2310 C   0  0  0  0  0  3  0  0  0  0  0  0
  161.0110  200.9900  148.6470 C   0  0  0  0  0  3  0  0  0  0  0  0
  2  3  2  0  0  0  0
  3  1  1  0  0  0  0
  4  5  1  0  0  0  0
  5  6  2  0  0  0  0
  7  4  2  0  0  0  0
  7 12  1  0  0  0  0
  8 14  1  1  0  0  0
  9  8  1  0  0  0  0
 10  1  1  6  0  0  0
 10 12  1  0  0  0  0
 10  9  1  0  0  0  0
 11  6  1  0  0  0  0
 11  8  1  0  0  0  0
 12 11  2  0  0  0  0
 13 14  2  0  0  0  0
 15  3  1  0  0  0  0
 16 17  1  1  0  0  0
 16 15  1  0  0  0  0
 18 16  1  0  0  0  0
 19 18  1  0  0  0  0
 20 19  1  0  0  0  0
 20 23  1  0  0  0  0
 21 23  2  0  0  0  0
 21 26  1  0  0  0  0
 22 25  2  0  0  0  0
 23 22  1  0  0  0  0
 24 25  1  0  0  0  0
 26 24  2  0  0  0  0
M  END
>  <MODEL>
7

>  <REMARK>
 VINA RESULT:      -7.7      1.604      3.445
  Name = 
  8 active torsions:
  status: ('A' for Active; 'I' for Inactive)
    1  A    between atoms: C_1  and  C_12
    2  A    between atoms: C_1  and  C_22
    3  A    between atoms: C_7  and  C_18
    4  A    between atoms: N_8  and  C_21
    5  A    between atoms: C_9  and  C_12
    6  A    between atoms: C_9  and  C_17
    7  A    between atoms: C_15  and  C_23
    8  A    between atoms: C_18  and  C_22
                            x       y       z     vdW  Elec       q    Type
                         _______ _______ _______ _____ _____    ______ ____

>  <TORSDO>
F 8

$$$$
=
 OpenBabel11072414393D

 26 28  0  0  1  0  0  0  0  0999 V2000
  161.8270  205.7740  149.4920 N   0  0  0  0  0  2  0  0  0  0  0  0
  160.9100  207.9150  149.2830 O   0  0  0  0  0  0  0  0  0  0  0  0
  161.7370  207.1530  149.8520 C   0  0  0  0  0  0  0  0  0  0  0  0
  160.5420  201.6070  149.7620 C   0  0  0  0  0  3  0  0  0  0  0  0
  161.1120  200.9530  148.6550 C   0  0  0  0  0  3  0  0  0  0  0  0
  161.5770  201.6750  147.5950 N   0  0  0  0  0  0  0  0  0  0  0  0
  160.4590  203.0060  149.7710 C   0  0  0  0  0  3  0  0  0  0  0  0
  161.9600  203.9410  146.5350 C   0  0  1  0  0  3  0  0  0  0  0  0
  161.6320  205.3380  147.0880 C   0  0  0  0  0  2  0  0  0  0  0  0
  160.9810  205.1690  148.4740 C   0  0  1  0  0  3  0  0  0  0  0  0
  161.4880  203.0320  147.6040 C   0  0  0  0  0  0  0  0  0  0  0  0
  160.9490  203.7030  148.6670 C   0  0  0  0  0  0  0  0  0  0  0  0
  160.8350  204.7160  144.5460 N   0  0  0  0  0  2  0  0  0  0  0  0
  161.1940  203.7210  145.2700 C   0  0  0  0  0  3  0  0  0  0  0  0
  162.5990  207.6810  150.9480 C   0  0  0  0  0  2  0  0  0  0  0  0
  161.8330  207.7420  152.2660 C   0  0  2  0  0  3  0  0  0  0  0  0
  161.2350  206.3840  152.5860 C   0  0  0  0  0  1  0  0  0  0  0  0
  160.7570  208.8300  152.2730 C   0  0  0  0  0  2  0  0  0  0  0  0
  161.2050  210.0930  153.0010 C   0  0  0  0  0  2  0  0  0  0  0  0
  160.3220  210.3550  154.2100 C   0  0  0  0  0  2  0  0  0  0  0  0
  159.5420  208.3280  155.4640 C   0  0  0  0  0  3  0  0  0  0  0  0
  161.6890  209.3020  156.0280 C   0  0  0  0  0  3  0  0  0  0  0  0
  160.5180  209.3110  155.2600 C   0  0  0  0  0  0  0  0  0  0  0  0
  160.9010  207.3380  157.2060 C   0  0  0  0  0  3  0  0  0  0  0  0
  161.8790  208.3180  157.0010 C   0  0  0  0  0  3  0  0  0  0  0  0
  159.7340  207.3440  156.4380 C   0  0  0  0  0  3  0  0  0  0  0  0
  1  3  1  0  0  0  0
  2  3  2  0  0  0  0
  3 15  1  0  0  0  0
  4  7  1  0  0  0  0
  5  4  2  0  0  0  0
  6 11  2  0  0  0  0
  6  5  1  0  0  0  0
  8 14  1  6  0  0  0
  8  9  1  0  0  0  0
  8 11  1  0  0  0  0
  9 10  1  0  0  0  0
 10 12  1  0  0  0  0
 10  1  1  1  0  0  0
 11 12  1  0  0  0  0
 12  7  2  0  0  0  0
 13 14  2  0  0  0  0
 15 16  1  0  0  0  0
 16 18  1  0  0  0  0
 16 17  1  6  0  0  0
 18 19  1  0  0  0  0
 19 20  1  0  0  0  0
 20 23  1  0  0  0  0
 21 26  1  0  0  0  0
 22 25  2  0  0  0  0
 23 21  2  0  0  0  0
 23 22  1  0  0  0  0
 25 24  1  0  0  0  0
 26 24  2  0  0  0  0
M  END
>  <MODEL>
8

>  <REMARK>
 VINA RESULT:      -7.6      2.360      7.694
  Name = 
  8 active torsions:
  status: ('A' for Active; 'I' for Inactive)
    1  A    between atoms: C_1  and  C_12
    2  A    between atoms: C_1  and  C_22
    3  A    between atoms: C_7  and  C_18
    4  A    between atoms: N_8  and  C_21
    5  A    between atoms: C_9  and  C_12
    6  A    between atoms: C_9  and  C_17
    7  A    between atoms: C_15  and  C_23
    8  A    between atoms: C_18  and  C_22
                            x       y       z     vdW  Elec       q    Type
                         _______ _______ _______ _____ _____    ______ ____

>  <TORSDO>
F 8

$$$$
=
 OpenBabel11072414393D

 26 28  0  0  1  0  0  0  0  0999 V2000
  160.6680  209.7490  152.1400 N   0  0  0  0  0  2  0  0  0  0  0  0
  162.8650  210.2690  151.5310 O   0  0  0  0  0  0  0  0  0  0  0  0
  161.9240  209.4310  151.5400 C   0  0  0  0  0  0  0  0  0  0  0  0
  161.4760  210.4130  156.3830 C   0  0  0  0  0  3  0  0  0  0  0  0
  160.2290  210.6690  156.9790 C   0  0  0  0  0  3  0  0  0  0  0  0
  159.1590  211.0210  156.2110 N   0  0  0  0  0  0  0  0  0  0  0  0
  161.6120  210.5190  154.9920 C   0  0  0  0  0  3  0  0  0  0  0  0
  158.2250  211.4900  153.9050 C   0  0  1  0  0  3  0  0  0  0  0  0
  158.9330  211.4330  152.5420 C   0  0  0  0  0  2  0  0  0  0  0  0
  160.4010  211.0300  152.7770 C   0  0  1  0  0  3  0  0  0  0  0  0
  159.2960  211.1310  154.8620 C   0  0  0  0  0  0  0  0  0  0  0  0
  160.4900  210.8800  154.2450 C   0  0  0  0  0  0  0  0  0  0  0  0
  157.6020  213.7040  153.1720 N   0  0  0  0  0  2  0  0  0  0  0  0
  157.7370  212.8830  154.1480 C   0  0  0  0  0  3  0  0  0  0  0  0
  162.1360  208.0720  150.9620 C   0  0  0  0  0  2  0  0  0  0  0  0
  160.9220  207.1800  151.1990 C   0  0  2  0  0  3  0  0  0  0  0  0
  161.2130  206.1850  152.3080 C   0  0  0  0  0  1  0  0  0  0  0  0
  160.4590  206.4650  149.9290 C   0  0  0  0  0  2  0  0  0  0  0  0
  161.6230  205.9430  149.0930 C   0  0  0  0  0  2  0  0  0  0  0  0
  161.1310  204.9530  148.0490 C   0  0  0  0  0  2  0  0  0  0  0  0
  161.2190  202.4650  147.7550 C   0  0  0  0  0  3  0  0  0  0  0  0
  160.8800  203.3720  149.9760 C   0  0  0  0  0  3  0  0  0  0  0  0
  161.0680  203.5680  148.6030 C   0  0  0  0  0  0  0  0  0  0  0  0
  160.9810  200.9750  149.6490 C   0  0  0  0  0  3  0  0  0  0  0  0
  160.8340  202.0770  150.4980 C   0  0  0  0  0  3  0  0  0  0  0  0
  161.1740  201.1690  148.2780 C   0  0  0  0  0  3  0  0  0  0  0  0
  2  3  2  0  0  0  0
  3  1  1  0  0  0  0
  4  5  1  0  0  0  0
  6  5  2  0  0  0  0
  7  4  2  0  0  0  0
  8 14  1  1  0  0  0
  8 11  1  0  0  0  0
  9 10  1  0  0  0  0
  9  8  1  0  0  0  0
 10  1  1  6  0  0  0
 10 12  1  0  0  0  0
 11  6  1  0  0  0  0
 12 11  2  0  0  0  0
 12  7  1  0  0  0  0
 13 14  2  0  0  0  0
 15 16  1  0  0  0  0
 15  3  1  0  0  0  0
 16 17  1  1  0  0  0
 18 16  1  0  0  0  0
 19 18  1  0  0  0  0
 20 23  1  0  0  0  0
 20 19  1  0  0  0  0
 21 26  2  0  0  0  0
 21 23  1  0  0  0  0
 22 25  1  0  0  0  0
 23 22  2  0  0  0  0
 24 25  2  0  0  0  0
 26 24  1  0  0  0  0
M  END
>  <MODEL>
9

>  <REMARK>
 VINA RESULT:      -7.4      2.564      4.304
  Name = 
  8 active torsions:
  status: ('A' for Active; 'I' for Inactive)
    1  A    between atoms: C_1  and  C_12
    2  A    between atoms: C_1  and  C_22
    3  A    between atoms: C_7  and  C_18
    4  A    between atoms: N_8  and  C_21
    5  A    between atoms: C_9  and  C_12
    6  A    between atoms: C_9  and  C_17
    7  A    between atoms: C_15  and  C_23
    8  A    between atoms: C_18  and  C_22
                            x       y       z     vdW  Elec       q    Type
                         _______ _______ _______ _____ _____    ______ ____

>  <TORSDO>
F 8

$$$$
