=
 OpenBabel11072410493D

 38 43  0  0  1  0  0  0  0  0999 V2000
  158.6650  213.2820  151.5510 C   0  0  1  0  0  0  0  0  0  0  0  0
  159.3040  214.3460  152.4310 C   0  0  0  0  0  2  0  0  0  0  0  0
  157.8000  214.3780  152.2000 C   0  0  2  0  0  3  0  0  0  0  0  0
  157.4640  213.9280  146.7530 O   0  0  0  0  0  1  0  0  0  0  0  0
  158.5020  213.3970  147.5160 C   0  0  2  0  0  3  0  0  0  0  0  0
  158.0730  213.2900  148.9670 C   0  0  0  0  0  0  0  0  0  0  0  0
  160.7840  213.8730  148.3710 C   0  0  0  0  0  0  0  0  0  0  0  0
  156.8640  213.0260  149.2110 O   0  0  0  0  0  0  0  0  0  0  0  0
  159.7510  214.2590  147.3330 C   0  0  0  0  0  2  0  0  0  0  0  0
  161.8000  212.8610  147.9170 C   0  0  0  0  0  2  0  0  0  0  0  0
  162.2060  214.3120  148.1470 C   0  0  0  0  0  2  0  0  0  0  0  0
  159.0640  213.4230  150.0830 C   0  0  0  0  0  0  0  0  0  0  0  0
  160.3390  213.7140  149.7840 C   0  0  0  0  0  3  0  0  0  0  0  0
  156.9130  213.9610  155.9210 C   0  0  0  0  0  2  0  0  0  0  0  0
  157.6920  214.4290  154.6940 C   0  0  0  0  0  2  0  0  0  0  0  0
  157.0330  213.8990  153.4240 C   0  0  1  0  0  3  0  0  0  0  0  0
  155.4470  214.4140  155.8530 C   0  0  2  0  0  3  0  0  0  0  0  0
  155.5980  214.4250  153.3470 C   0  0  0  0  0  2  0  0  0  0  0  0
  154.7480  213.8640  156.9270 O   0  0  0  0  0  1  0  0  0  0  0  0
  154.8000  213.9500  154.5530 C   0  0  0  0  0  2  0  0  0  0  0  0
  158.8030  211.9820  152.2120 N   0  0  0  0  0  2  0  0  0  0  0  0
  160.0680  211.3580  151.8400 C   0  0  0  0  0  2  0  0  0  0  0  0
  162.8340  210.2910  151.8100 O   0  0  0  0  0  1  0  0  0  0  0  0
  160.5360  209.6870  155.2970 C   0  0  0  0  0  3  0  0  0  0  0  0
  160.8270  210.8820  153.0800 C   0  0  2  0  0  3  0  0  0  0  0  0
  160.6210  207.8620  153.7580 C   0  0  0  0  0  2  0  0  0  0  0  0
  161.9540  209.8530  152.7990 C   0  0  1  0  0  3  0  0  0  0  0  0
  159.8800  210.5420  154.2460 C   0  0  2  0  0  3  0  0  0  0  0  0
  160.8760  208.4700  155.0470 N   0  0  0  0  0  0  0  0  0  0  0  0
  161.6010  208.3430  152.6750 C   0  0  2  0  0  3  0  0  0  0  0  0
  159.4130  211.7020  154.8280 F   0  0  0  0  0  0  0  0  0  0  0  0
  161.9750  208.3330  150.1270 C   0  0  0  0  0  2  0  0  0  0  0  0
  161.5210  207.3830  149.0540 C   0  0  0  0  0  2  0  0  0  0  0  0
  160.8530  206.4840  151.0960 N   0  0  0  0  0  0  0  0  0  0  0  0
  161.1000  207.9200  151.2760 C   0  0  1  0  0  3  0  0  0  0  0  0
  160.7960  206.2850  149.7000 N   0  0  0  0  0  2  0  0  0  0  0  0
  161.9910  205.6890  151.5710 C   0  0  0  0  0  2  0  0  0  0  0  0
  161.5200  204.5360  152.2100 O   0  0  0  0  0  1  0  0  0  0  0  0
  1  3  1  0  0  0  0
  1 21  1  1  0  0  0
  1  2  1  0  0  0  0
  3  2  1  1  0  0  0
  3 16  1  0  0  0  0
  5  4  1  6  0  0  0
  5  6  1  0  0  0  0
  6  8  2  0  0  0  0
  6 12  1  0  0  0  0
  7 13  1  0  0  0  0
  9  5  1  0  0  0  0
  9  7  1  0  0  0  0
 10 11  1  0  0  0  0
 10  7  1  0  0  0  0
 11  7  1  0  0  0  0
 12  1  1  0  0  0  0
 13 12  2  0  0  0  0
 15 14  1  0  0  0  0
 16 18  1  6  0  0  0
 16 15  1  0  0  0  0
 17 14  1  0  0  0  0
 17 19  1  1  0  0  0
 18 20  1  0  0  0  0
 20 17  1  0  0  0  0
 22 21  1  0  0  0  0
 25 22  1  6  0  0  0
 25 28  1  0  0  0  0
 26 29  1  0  0  0  0
 27 23  1  6  0  0  0
 27 25  1  0  0  0  0
 28 31  1  1  0  0  0
 28 24  1  0  0  0  0
 29 24  2  0  0  0  0
 30 27  1  0  0  0  0
 30 26  1  1  0  0  0
 33 36  1  0  0  0  0
 33 32  1  0  0  0  0
 34 35  1  0  0  0  0
 34 37  1  0  0  0  0
 35 32  1  6  0  0  0
 35 30  1  0  0  0  0
 36 34  1  0  0  0  0
 37 38  1  0  0  0  0
M  END
>  <MODEL>
1

>  <REMARK>
 VINA RESULT:      -6.2      0.000      0.000
  Name = 
  7 active torsions:
  status: ('A' for Active; 'I' for Inactive)
    1  A    between atoms: C_2  and  N_32
    2  A    between atoms: C_2  and  C_33
    3  A    between atoms: C_7  and  N_14
    4  A    between atoms: C_11  and  C_17
    5  A    between atoms: C_15  and  C_28
    6  A    between atoms: C_17  and  N_32
    7  A    between atoms: C_25  and  C_34
                            x       y       z     vdW  Elec       q    Type
                         _______ _______ _______ _____ _____    ______ ____

>  <TORSDO>
F 7

$$$$
=
 OpenBabel11072410493D

 38 43  0  0  1  0  0  0  0  0999 V2000
  161.2200  209.2840  152.8910 C   0  0  1  0  0  0  0  0  0  0  0  0
  162.5350  209.6310  152.2080 C   0  0  0  0  0  2  0  0  0  0  0  0
  161.9660  208.2280  152.0570 C   0  0  2  0  0  3  0  0  0  0  0  0
  160.6400  206.9480  157.2600 O   0  0  0  0  0  1  0  0  0  0  0  0
  160.7450  208.2480  156.7660 C   0  0  2  0  0  3  0  0  0  0  0  0
  160.6340  208.2350  155.2540 C   0  0  0  0  0  0  0  0  0  0  0  0
  162.3170  210.1490  156.4970 C   0  0  0  0  0  0  0  0  0  0  0  0
  159.8770  207.3790  154.7210 O   0  0  0  0  0  0  0  0  0  0  0  0
  162.0540  208.8670  157.2570 C   0  0  0  0  0  2  0  0  0  0  0  0
  161.8370  211.4050  157.1740 C   0  0  0  0  0  2  0  0  0  0  0  0
  163.3290  211.1100  157.0640 C   0  0  0  0  0  2  0  0  0  0  0  0
  161.3450  209.2510  154.4140 C   0  0  0  0  0  0  0  0  0  0  0  0
  162.1490  210.1400  155.0170 C   0  0  0  0  0  3  0  0  0  0  0  0
  161.6400  208.4510  148.2290 C   0  0  0  0  0  2  0  0  0  0  0  0
  162.2350  208.6810  149.6160 C   0  0  0  0  0  2  0  0  0  0  0  0
  161.3650  208.0110  150.6750 C   0  0  1  0  0  3  0  0  0  0  0  0
  161.4960  206.9520  147.9290 C   0  0  2  0  0  3  0  0  0  0  0  0
  161.2980  206.5090  150.3920 C   0  0  0  0  0  2  0  0  0  0  0  0
  160.8390  206.7900  146.7100 O   0  0  0  0  0  1  0  0  0  0  0  0
  160.6870  206.2590  149.0210 C   0  0  0  0  0  2  0  0  0  0  0  0
  160.1500  210.0720  152.2740 N   0  0  0  0  0  2  0  0  0  0  0  0
  159.4760  210.8840  153.2810 C   0  0  0  0  0  2  0  0  0  0  0  0
  159.7050  213.1950  155.1250 O   0  0  0  0  0  1  0  0  0  0  0  0
  158.2760  213.9320  151.2230 C   0  0  0  0  0  3  0  0  0  0  0  0
  159.4110  212.3500  152.8460 C   0  0  2  0  0  3  0  0  0  0  0  0
  156.6200  213.7000  152.9280 C   0  0  0  0  0  2  0  0  0  0  0  0
  158.9610  213.3380  153.9540 C   0  0  1  0  0  3  0  0  0  0  0  0
  158.7320  212.5190  151.4750 C   0  0  2  0  0  3  0  0  0  0  0  0
  157.3170  214.4530  151.9070 N   0  0  0  0  0  0  0  0  0  0  0  0
  157.4440  213.5540  154.2190 C   0  0  2  0  0  3  0  0  0  0  0  0
  159.5940  212.1330  150.4690 F   0  0  0  0  0  0  0  0  0  0  0  0
  157.5500  212.2150  156.4160 C   0  0  0  0  0  2  0  0  0  0  0  0
  156.4740  211.5900  157.2590 C   0  0  0  0  0  2  0  0  0  0  0  0
  155.4140  212.7530  155.5430 N   0  0  0  0  0  0  0  0  0  0  0  0
  156.8030  212.4940  155.1440 C   0  0  1  0  0  3  0  0  0  0  0  0
  155.1800  211.9140  156.6520 N   0  0  0  0  0  2  0  0  0  0  0  0
  155.2540  214.1270  156.0340 C   0  0  0  0  0  2  0  0  0  0  0  0
  154.4220  214.1260  157.1600 O   0  0  0  0  0  1  0  0  0  0  0  0
  1 21  1  6  0  0  0
  1 12  1  0  0  0  0
  2  1  1  0  0  0  0
  3  2  1  6  0  0  0
  3  1  1  0  0  0  0
  5  9  1  0  0  0  0
  5  4  1  6  0  0  0
  6  5  1  0  0  0  0
  7 11  1  0  0  0  0
  7 10  1  0  0  0  0
  7  9  1  0  0  0  0
  8  6  2  0  0  0  0
 11 10  1  0  0  0  0
 12 13  2  0  0  0  0
 12  6  1  0  0  0  0
 13  7  1  0  0  0  0
 14 15  1  0  0  0  0
 16 15  1  6  0  0  0
 16  3  1  0  0  0  0
 17 19  1  6  0  0  0
 17 14  1  0  0  0  0
 17 20  1  0  0  0  0
 18 16  1  0  0  0  0
 20 18  1  0  0  0  0
 21 22  1  0  0  0  0
 24 28  1  0  0  0  0
 24 29  2  0  0  0  0
 25 22  1  1  0  0  0
 25 27  1  0  0  0  0
 27 30  1  0  0  0  0
 27 23  1  1  0  0  0
 28 31  1  6  0  0  0
 28 25  1  0  0  0  0
 29 26  1  0  0  0  0
 30 26  1  6  0  0  0
 30 35  1  0  0  0  0
 32 33  1  0  0  0  0
 34 37  1  0  0  0  0
 34 36  1  0  0  0  0
 35 34  1  0  0  0  0
 35 32  1  1  0  0  0
 36 33  1  0  0  0  0
 37 38  1  0  0  0  0
M  END
>  <MODEL>
2

>  <REMARK>
 VINA RESULT:      -5.9      3.050      8.709
  Name = 
  7 active torsions:
  status: ('A' for Active; 'I' for Inactive)
    1  A    between atoms: C_2  and  N_32
    2  A    between atoms: C_2  and  C_33
    3  A    between atoms: C_7  and  N_14
    4  A    between atoms: C_11  and  C_17
    5  A    between atoms: C_15  and  C_28
    6  A    between atoms: C_17  and  N_32
    7  A    between atoms: C_25  and  C_34
                            x       y       z     vdW  Elec       q    Type
                         _______ _______ _______ _____ _____    ______ ____

>  <TORSDO>
F 7

$$$$
=
 OpenBabel11072410493D

 38 43  0  0  1  0  0  0  0  0999 V2000
  159.1940  213.0460  151.9080 C   0  0  1  0  0  0  0  0  0  0  0  0
  159.0520  214.4530  152.4690 C   0  0  0  0  0  2  0  0  0  0  0  0
  157.8470  213.5230  152.4820 C   0  0  2  0  0  3  0  0  0  0  0  0
  157.4480  213.6800  147.2780 O   0  0  0  0  0  1  0  0  0  0  0  0
  158.4740  213.0000  147.9340 C   0  0  2  0  0  3  0  0  0  0  0  0
  158.2460  213.0440  149.4320 C   0  0  0  0  0  0  0  0  0  0  0  0
  160.9020  213.0770  148.4390 C   0  0  0  0  0  0  0  0  0  0  0  0
  157.0580  213.0240  149.8540 O   0  0  0  0  0  0  0  0  0  0  0  0
  159.8180  213.6010  147.5230 C   0  0  0  0  0  2  0  0  0  0  0  0
  161.6440  211.8710  147.9290 C   0  0  0  0  0  2  0  0  0  0  0  0
  162.3340  213.2290  147.9970 C   0  0  0  0  0  2  0  0  0  0  0  0
  159.3950  213.0400  150.3930 C   0  0  0  0  0  0  0  0  0  0  0  0
  160.6450  213.0710  149.9070 C   0  0  0  0  0  3  0  0  0  0  0  0
  156.3880  213.4400  156.0420 C   0  0  0  0  0  2  0  0  0  0  0  0
  156.6870  213.9800  154.6450 C   0  0  0  0  0  2  0  0  0  0  0  0
  157.5620  212.9920  153.8790 C   0  0  1  0  0  3  0  0  0  0  0  0
  155.7030  212.0670  155.9700 C   0  0  2  0  0  3  0  0  0  0  0  0
  156.8230  211.6570  153.7610 C   0  0  0  0  0  2  0  0  0  0  0  0
  155.5600  211.5590  157.2610 O   0  0  0  0  0  1  0  0  0  0  0  0
  156.5360  211.0920  155.1450 C   0  0  0  0  0  2  0  0  0  0  0  0
  160.1180  212.2940  152.7600 N   0  0  0  0  0  2  0  0  0  0  0  0
  160.2000  210.9070  152.3140 C   0  0  0  0  0  2  0  0  0  0  0  0
  162.9800  210.0020  151.8220 O   0  0  0  0  0  1  0  0  0  0  0  0
  160.8580  208.1890  154.9870 C   0  0  0  0  0  3  0  0  0  0  0  0
  161.0240  210.0670  153.2920 C   0  0  2  0  0  3  0  0  0  0  0  0
  160.9040  206.9900  152.9220 C   0  0  0  0  0  2  0  0  0  0  0  0
  162.1550  209.2300  152.6390 C   0  0  1  0  0  3  0  0  0  0  0  0
  160.1380  209.3250  154.3100 C   0  0  2  0  0  3  0  0  0  0  0  0
  161.2080  207.1380  154.3300 N   0  0  0  0  0  0  0  0  0  0  0  0
  161.8240  207.8380  152.0280 C   0  0  2  0  0  3  0  0  0  0  0  0
  159.6770  210.2060  155.2660 F   0  0  0  0  0  0  0  0  0  0  0  0
  162.2720  208.2140  149.5200 C   0  0  0  0  0  2  0  0  0  0  0  0
  161.5730  207.7020  148.2920 C   0  0  0  0  0  2  0  0  0  0  0  0
  160.5680  206.6850  150.1300 N   0  0  0  0  0  0  0  0  0  0  0  0
  161.2660  207.8920  150.5870 C   0  0  1  0  0  3  0  0  0  0  0  0
  160.5030  206.7990  148.7250 N   0  0  0  0  0  2  0  0  0  0  0  0
  161.3610  205.4810  150.4010 C   0  0  0  0  0  2  0  0  0  0  0  0
  160.5540  204.3470  150.2520 O   0  0  0  0  0  1  0  0  0  0  0  0
  1  2  1  0  0  0  0
  1  3  1  0  0  0  0
  1 21  1  1  0  0  0
  3  2  1  1  0  0  0
  3 16  1  0  0  0  0
  5  4  1  6  0  0  0
  5  6  1  0  0  0  0
  6  8  2  0  0  0  0
  6 12  1  0  0  0  0
  7 13  1  0  0  0  0
  9  5  1  0  0  0  0
  9  7  1  0  0  0  0
 10 11  1  0  0  0  0
 10  7  1  0  0  0  0
 11  7  1  0  0  0  0
 12  1  1  0  0  0  0
 13 12  2  0  0  0  0
 15 14  1  0  0  0  0
 16 18  1  6  0  0  0
 16 15  1  0  0  0  0
 17 14  1  0  0  0  0
 17 19  1  1  0  0  0
 18 20  1  0  0  0  0
 20 17  1  0  0  0  0
 22 21  1  0  0  0  0
 25 22  1  6  0  0  0
 25 28  1  0  0  0  0
 26 29  1  0  0  0  0
 27 23  1  6  0  0  0
 27 25  1  0  0  0  0
 28 24  1  0  0  0  0
 28 31  1  1  0  0  0
 29 24  2  0  0  0  0
 30 27  1  0  0  0  0
 30 26  1  1  0  0  0
 33 36  1  0  0  0  0
 33 32  1  0  0  0  0
 34 37  1  0  0  0  0
 34 35  1  0  0  0  0
 35 32  1  6  0  0  0
 35 30  1  0  0  0  0
 36 34  1  0  0  0  0
 38 37  1  0  0  0  0
M  END
>  <MODEL>
3

>  <REMARK>
 VINA RESULT:      -5.7      1.241      1.341
  Name = 
  7 active torsions:
  status: ('A' for Active; 'I' for Inactive)
    1  A    between atoms: C_2  and  N_32
    2  A    between atoms: C_2  and  C_33
    3  A    between atoms: C_7  and  N_14
    4  A    between atoms: C_11  and  C_17
    5  A    between atoms: C_15  and  C_28
    6  A    between atoms: C_17  and  N_32
    7  A    between atoms: C_25  and  C_34
                            x       y       z     vdW  Elec       q    Type
                         _______ _______ _______ _____ _____    ______ ____

>  <TORSDO>
F 7

$$$$
=
 OpenBabel11072410493D

 38 43  0  0  1  0  0  0  0  0999 V2000
  160.3010  211.5790  152.7910 C   0  0  1  0  0  0  0  0  0  0  0  0
  158.8550  211.4940  152.3250 C   0  0  0  0  0  2  0  0  0  0  0  0
  159.6390  212.7760  152.0850 C   0  0  2  0  0  3  0  0  0  0  0  0
  163.0420  211.2410  156.9450 O   0  0  0  0  0  1  0  0  0  0  0  0
  161.7200  211.0690  156.5390 C   0  0  2  0  0  3  0  0  0  0  0  0
  161.6400  211.0810  155.0250 C   0  0  0  0  0  0  0  0  0  0  0  0
  159.4880  212.1550  156.5270 C   0  0  0  0  0  0  0  0  0  0  0  0
  162.6050  210.5950  154.3750 O   0  0  0  0  0  0  0  0  0  0  0  0
  160.8520  212.1500  157.1840 C   0  0  0  0  0  2  0  0  0  0  0  0
  158.4370  211.3380  157.2280 C   0  0  0  0  0  2  0  0  0  0  0  0
  158.3650  212.8600  157.2410 C   0  0  0  0  0  2  0  0  0  0  0  0
  160.4230  211.5900  154.3140 C   0  0  0  0  0  0  0  0  0  0  0  0
  159.4210  212.1090  155.0400 C   0  0  0  0  0  3  0  0  0  0  0  0
  159.2160  213.1710  148.2800 C   0  0  0  0  0  2  0  0  0  0  0  0
  158.8070  213.0110  149.7430 C   0  0  0  0  0  2  0  0  0  0  0  0
  160.0480  212.9200  150.6260 C   0  0  1  0  0  3  0  0  0  0  0  0
  160.1010  214.4100  148.0850 C   0  0  2  0  0  3  0  0  0  0  0  0
  160.8720  214.1990  150.4640 C   0  0  0  0  0  2  0  0  0  0  0  0
  160.5510  214.4490  146.7650 O   0  0  0  0  0  1  0  0  0  0  0  0
  161.3080  214.3630  149.0150 C   0  0  0  0  0  2  0  0  0  0  0  0
  161.1000  210.6290  152.0120 N   0  0  0  0  0  2  0  0  0  0  0  0
  160.4460  209.3250  151.9830 C   0  0  0  0  0  2  0  0  0  0  0  0
  163.0320  208.3380  150.9200 O   0  0  0  0  0  1  0  0  0  0  0  0
  161.2080  206.1210  154.0140 C   0  0  0  0  0  3  0  0  0  0  0  0
  161.3150  208.2640  152.6630 C   0  0  2  0  0  3  0  0  0  0  0  0
  160.8520  205.3240  151.7910 C   0  0  0  0  0  2  0  0  0  0  0  0
  162.2590  207.4870  151.7090 C   0  0  1  0  0  3  0  0  0  0  0  0
  160.5130  207.4100  153.6620 C   0  0  2  0  0  3  0  0  0  0  0  0
  161.3610  205.1880  153.1390 N   0  0  0  0  0  0  0  0  0  0  0  0
  161.7150  206.2580  150.9250 C   0  0  2  0  0  3  0  0  0  0  0  0
  160.2760  208.1290  154.8150 F   0  0  0  0  0  0  0  0  0  0  0  0
  161.7220  207.5060  148.6730 C   0  0  0  0  0  2  0  0  0  0  0  0
  160.9980  207.2430  147.3820 C   0  0  0  0  0  2  0  0  0  0  0  0
  160.5100  205.4750  148.8170 N   0  0  0  0  0  0  0  0  0  0  0  0
  160.9700  206.6150  149.6190 C   0  0  1  0  0  3  0  0  0  0  0  0
  160.2310  206.0040  147.5390 N   0  0  0  0  0  2  0  0  0  0  0  0
  161.5860  204.4970  148.6230 C   0  0  0  0  0  2  0  0  0  0  0  0
  161.0370  203.2710  148.2280 O   0  0  0  0  0  1  0  0  0  0  0  0
  1 21  1  6  0  0  0
  1 12  1  0  0  0  0
  2  1  1  0  0  0  0
  3  2  1  6  0  0  0
  3  1  1  0  0  0  0
  5  4  1  6  0  0  0
  5  9  1  0  0  0  0
  6  5  1  0  0  0  0
  7  9  1  0  0  0  0
  7 10  1  0  0  0  0
  7 11  1  0  0  0  0
  8  6  2  0  0  0  0
 10 11  1  0  0  0  0
 12  6  1  0  0  0  0
 12 13  2  0  0  0  0
 13  7  1  0  0  0  0
 14 15  1  0  0  0  0
 16 15  1  6  0  0  0
 16  3  1  0  0  0  0
 17 19  1  6  0  0  0
 17 14  1  0  0  0  0
 17 20  1  0  0  0  0
 18 16  1  0  0  0  0
 20 18  1  0  0  0  0
 22 21  1  0  0  0  0
 25 22  1  6  0  0  0
 25 28  1  0  0  0  0
 26 29  1  0  0  0  0
 27 23  1  6  0  0  0
 27 25  1  0  0  0  0
 28 24  1  0  0  0  0
 28 31  1  1  0  0  0
 29 24  2  0  0  0  0
 30 27  1  0  0  0  0
 30 26  1  1  0  0  0
 33 36  1  0  0  0  0
 33 32  1  0  0  0  0
 34 35  1  0  0  0  0
 35 32  1  6  0  0  0
 35 30  1  0  0  0  0
 36 34  1  0  0  0  0
 37 34  1  0  0  0  0
 38 37  1  0  0  0  0
M  END
>  <MODEL>
4

>  <REMARK>
 VINA RESULT:      -5.7      2.740      6.066
  Name = 
  7 active torsions:
  status: ('A' for Active; 'I' for Inactive)
    1  A    between atoms: C_2  and  N_32
    2  A    between atoms: C_2  and  C_33
    3  A    between atoms: C_7  and  N_14
    4  A    between atoms: C_11  and  C_17
    5  A    between atoms: C_15  and  C_28
    6  A    between atoms: C_17  and  N_32
    7  A    between atoms: C_25  and  C_34
                            x       y       z     vdW  Elec       q    Type
                         _______ _______ _______ _____ _____    ______ ____

>  <TORSDO>
F 7

$$$$
=
 OpenBabel11072410493D

 38 43  0  0  1  0  0  0  0  0999 V2000
  159.4070  213.0630  151.1170 C   0  0  1  0  0  0  0  0  0  0  0  0
  159.2870  214.4530  151.7250 C   0  0  0  0  0  2  0  0  0  0  0  0
  158.1250  213.4790  151.8620 C   0  0  2  0  0  3  0  0  0  0  0  0
  161.8300  212.6710  146.7750 O   0  0  0  0  0  1  0  0  0  0  0  0
  160.6760  213.2610  147.2880 C   0  0  2  0  0  3  0  0  0  0  0  0
  160.6920  213.1950  148.8020 C   0  0  0  0  0  0  0  0  0  0  0  0
  158.2120  213.0020  147.4410 C   0  0  0  0  0  0  0  0  0  0  0  0
  161.8050  213.2860  149.3890 O   0  0  0  0  0  0  0  0  0  0  0  0
  159.4510  212.5780  146.6800 C   0  0  0  0  0  2  0  0  0  0  0  0
  157.4640  214.1650  146.8480 C   0  0  0  0  0  2  0  0  0  0  0  0
  156.8730  212.7610  146.7960 C   0  0  0  0  0  2  0  0  0  0  0  0
  159.4220  213.0930  149.5900 C   0  0  0  0  0  0  0  0  0  0  0  0
  158.2590  212.9870  148.9300 C   0  0  0  0  0  3  0  0  0  0  0  0
  158.2820  213.4210  155.7060 C   0  0  0  0  0  2  0  0  0  0  0  0
  158.3910  213.9860  154.2920 C   0  0  0  0  0  2  0  0  0  0  0  0
  158.0310  212.9110  153.2710 C   0  0  1  0  0  3  0  0  0  0  0  0
  156.8710  212.8780  155.9790 C   0  0  2  0  0  3  0  0  0  0  0  0
  156.5970  212.4420  153.5220 C   0  0  0  0  0  2  0  0  0  0  0  0
  156.8510  212.2640  157.2310 O   0  0  0  0  0  1  0  0  0  0  0  0
  156.4740  211.8540  154.9210 C   0  0  0  0  0  2  0  0  0  0  0  0
  160.4540  212.3290  151.8330 N   0  0  0  0  0  2  0  0  0  0  0  0
  160.1110  210.9130  151.9150 C   0  0  0  0  0  2  0  0  0  0  0  0
  162.8750  209.9800  151.3850 O   0  0  0  0  0  1  0  0  0  0  0  0
  160.9400  208.5210  154.8400 C   0  0  0  0  0  3  0  0  0  0  0  0
  160.9950  210.1960  152.9380 C   0  0  2  0  0  3  0  0  0  0  0  0
  160.8980  207.0960  152.9240 C   0  0  0  0  0  2  0  0  0  0  0  0
  162.1020  209.2990  152.3250 C   0  0  1  0  0  3  0  0  0  0  0  0
  160.1720  209.5680  154.0770 C   0  0  2  0  0  3  0  0  0  0  0  0
  161.2710  207.4050  154.2880 N   0  0  0  0  0  0  0  0  0  0  0  0
  161.7600  207.8440  151.8930 C   0  0  2  0  0  3  0  0  0  0  0  0
  159.7480  210.5480  154.9510 F   0  0  0  0  0  0  0  0  0  0  0  0
  162.0360  208.0860  149.3450 C   0  0  0  0  0  2  0  0  0  0  0  0
  161.3430  207.4110  148.1950 C   0  0  0  0  0  2  0  0  0  0  0  0
  160.5560  206.4220  150.1510 N   0  0  0  0  0  0  0  0  0  0  0  0
  161.1290  207.7300  150.4870 C   0  0  1  0  0  3  0  0  0  0  0  0
  160.4090  206.4250  148.7480 N   0  0  0  0  0  2  0  0  0  0  0  0
  161.4970  205.3380  150.4550 C   0  0  0  0  0  2  0  0  0  0  0  0
  161.0990  204.1720  149.7910 O   0  0  0  0  0  1  0  0  0  0  0  0
  1  2  1  0  0  0  0
  1 21  1  1  0  0  0
  1  3  1  0  0  0  0
  3  2  1  1  0  0  0
  3 16  1  0  0  0  0
  5  4  1  6  0  0  0
  5  6  1  0  0  0  0
  6  8  2  0  0  0  0
  6 12  1  0  0  0  0
  7 13  1  0  0  0  0
  9  5  1  0  0  0  0
  9  7  1  0  0  0  0
 10  7  1  0  0  0  0
 11 10  1  0  0  0  0
 11  7  1  0  0  0  0
 12  1  1  0  0  0  0
 13 12  2  0  0  0  0
 14 17  1  0  0  0  0
 15 14  1  0  0  0  0
 16 18  1  1  0  0  0
 16 15  1  0  0  0  0
 17 19  1  1  0  0  0
 18 20  1  0  0  0  0
 20 17  1  0  0  0  0
 21 22  1  0  0  0  0
 25 22  1  6  0  0  0
 25 28  1  0  0  0  0
 26 29  1  0  0  0  0
 27 23  1  6  0  0  0
 27 25  1  0  0  0  0
 28 24  1  0  0  0  0
 28 31  1  1  0  0  0
 29 24  2  0  0  0  0
 30 27  1  0  0  0  0
 30 26  1  1  0  0  0
 33 36  1  0  0  0  0
 33 32  1  0  0  0  0
 34 37  1  0  0  0  0
 34 35  1  0  0  0  0
 35 32  1  6  0  0  0
 35 30  1  0  0  0  0
 36 34  1  0  0  0  0
 38 37  1  0  0  0  0
M  END
>  <MODEL>
5

>  <REMARK>
 VINA RESULT:      -5.3      1.690      2.205
  Name = 
  7 active torsions:
  status: ('A' for Active; 'I' for Inactive)
    1  A    between atoms: C_2  and  N_32
    2  A    between atoms: C_2  and  C_33
    3  A    between atoms: C_7  and  N_14
    4  A    between atoms: C_11  and  C_17
    5  A    between atoms: C_15  and  C_28
    6  A    between atoms: C_17  and  N_32
    7  A    between atoms: C_25  and  C_34
                            x       y       z     vdW  Elec       q    Type
                         _______ _______ _______ _____ _____    ______ ____

>  <TORSDO>
F 7

$$$$
=
 OpenBabel11072410493D

 38 43  0  0  1  0  0  0  0  0999 V2000
  159.3290  212.6030  152.2350 C   0  0  1  0  0  0  0  0  0  0  0  0
  158.1760  212.2110  151.3220 C   0  0  0  0  0  2  0  0  0  0  0  0
  158.9650  213.4770  151.0210 C   0  0  2  0  0  3  0  0  0  0  0  0
  155.6710  213.7330  155.4330 O   0  0  0  0  0  1  0  0  0  0  0  0
  157.0320  213.9800  155.2590 C   0  0  2  0  0  3  0  0  0  0  0  0
  157.4660  213.5290  153.8780 C   0  0  0  0  0  0  0  0  0  0  0  0
  159.2890  213.3010  156.0380 C   0  0  0  0  0  0  0  0  0  0  0  0
  156.6420  213.6430  152.9300 O   0  0  0  0  0  0  0  0  0  0  0  0
  157.8140  213.2900  156.3770 C   0  0  0  0  0  2  0  0  0  0  0  0
  160.0730  214.4430  156.6250 C   0  0  0  0  0  2  0  0  0  0  0  0
  160.2700  213.0240  157.1460 C   0  0  0  0  0  2  0  0  0  0  0  0
  158.8540  213.0280  153.6240 C   0  0  0  0  0  0  0  0  0  0  0  0
  159.6990  212.9110  154.6590 C   0  0  0  0  0  3  0  0  0  0  0  0
  160.0400  213.0940  147.3460 C   0  0  0  0  0  2  0  0  0  0  0  0
  159.1000  213.2700  148.5360 C   0  0  0  0  0  2  0  0  0  0  0  0
  159.9000  213.2870  149.8350 C   0  0  1  0  0  3  0  0  0  0  0  0
  161.0970  214.2080  147.3050 C   0  0  2  0  0  3  0  0  0  0  0  0
  160.8940  214.4500  149.7950 C   0  0  0  0  0  2  0  0  0  0  0  0
  162.0040  213.9420  146.2800 O   0  0  0  0  0  1  0  0  0  0  0  0
  161.8540  214.2810  148.6270 C   0  0  0  0  0  2  0  0  0  0  0  0
  160.3860  211.5960  152.1120 N   0  0  0  0  0  2  0  0  0  0  0  0
  159.8630  210.2730  152.4360 C   0  0  0  0  0  2  0  0  0  0  0  0
  162.6620  209.5990  151.7290 O   0  0  0  0  0  1  0  0  0  0  0  0
  160.9530  207.6440  155.0560 C   0  0  0  0  0  3  0  0  0  0  0  0
  160.8280  209.5140  153.3490 C   0  0  2  0  0  3  0  0  0  0  0  0
  160.9380  206.4340  152.9970 C   0  0  0  0  0  2  0  0  0  0  0  0
  161.9700  208.7680  152.6100 C   0  0  1  0  0  3  0  0  0  0  0  0
  160.0910  208.7110  154.4350 C   0  0  2  0  0  3  0  0  0  0  0  0
  161.3370  206.6200  154.3760 N   0  0  0  0  0  0  0  0  0  0  0  0
  161.7100  207.3480  152.0300 C   0  0  2  0  0  3  0  0  0  0  0  0
  159.6340  209.5590  155.4220 F   0  0  0  0  0  0  0  0  0  0  0  0
  161.9360  207.7050  149.4900 C   0  0  0  0  0  2  0  0  0  0  0  0
  161.1750  207.1300  148.3280 C   0  0  0  0  0  2  0  0  0  0  0  0
  160.3820  206.0870  150.2540 N   0  0  0  0  0  0  0  0  0  0  0  0
  161.0390  207.3420  150.6390 C   0  0  1  0  0  3  0  0  0  0  0  0
  160.2000  206.1710  148.8570 N   0  0  0  0  0  2  0  0  0  0  0  0
  161.2680  204.9380  150.4770 C   0  0  0  0  0  2  0  0  0  0  0  0
  160.9770  203.9370  149.5430 O   0  0  0  0  0  1  0  0  0  0  0  0
  1 21  1  6  0  0  0
  1 12  1  0  0  0  0
  2  1  1  0  0  0  0
  3  2  1  6  0  0  0
  3  1  1  0  0  0  0
  5  4  1  1  0  0  0
  5  9  1  0  0  0  0
  6  5  1  0  0  0  0
  7  9  1  0  0  0  0
  7 10  1  0  0  0  0
  7 11  1  0  0  0  0
  8  6  2  0  0  0  0
 10 11  1  0  0  0  0
 12  6  1  0  0  0  0
 12 13  2  0  0  0  0
 13  7  1  0  0  0  0
 14 15  1  0  0  0  0
 16 15  1  6  0  0  0
 16  3  1  0  0  0  0
 17 19  1  6  0  0  0
 17 14  1  0  0  0  0
 17 20  1  0  0  0  0
 18 16  1  0  0  0  0
 20 18  1  0  0  0  0
 21 22  1  0  0  0  0
 25 22  1  6  0  0  0
 25 28  1  0  0  0  0
 26 29  1  0  0  0  0
 27 23  1  6  0  0  0
 27 25  1  0  0  0  0
 28 24  1  0  0  0  0
 28 31  1  1  0  0  0
 29 24  2  0  0  0  0
 30 27  1  0  0  0  0
 30 26  1  1  0  0  0
 33 36  1  0  0  0  0
 33 32  1  0  0  0  0
 34 37  1  0  0  0  0
 34 35  1  0  0  0  0
 35 32  1  6  0  0  0
 35 30  1  0  0  0  0
 36 34  1  0  0  0  0
 38 37  1  0  0  0  0
M  END
>  <MODEL>
6

>  <REMARK>
 VINA RESULT:      -5.1      1.807      5.458
  Name = 
  7 active torsions:
  status: ('A' for Active; 'I' for Inactive)
    1  A    between atoms: C_2  and  N_32
    2  A    between atoms: C_2  and  C_33
    3  A    between atoms: C_7  and  N_14
    4  A    between atoms: C_11  and  C_17
    5  A    between atoms: C_15  and  C_28
    6  A    between atoms: C_17  and  N_32
    7  A    between atoms: C_25  and  C_34
                            x       y       z     vdW  Elec       q    Type
                         _______ _______ _______ _____ _____    ______ ____

>  <TORSDO>
F 7

$$$$
=
 OpenBabel11072410493D

 38 43  0  0  1  0  0  0  0  0999 V2000
  161.1030  209.1640  152.0520 C   0  0  1  0  0  0  0  0  0  0  0  0
  159.6440  209.4850  152.3420 C   0  0  0  0  0  2  0  0  0  0  0  0
  160.5780  209.1610  153.4990 C   0  0  2  0  0  3  0  0  0  0  0  0
  161.4160  204.1850  152.0830 O   0  0  0  0  0  1  0  0  0  0  0  0
  161.8060  205.2610  151.2860 C   0  0  2  0  0  3  0  0  0  0  0  0
  161.6060  206.5610  152.0390 C   0  0  0  0  0  0  0  0  0  0  0  0
  161.2240  206.5230  149.2300 C   0  0  0  0  0  0  0  0  0  0  0  0
  161.7840  206.5570  153.2880 O   0  0  0  0  0  0  0  0  0  0  0  0
  161.0310  205.2170  149.9690 C   0  0  0  0  0  2  0  0  0  0  0  0
  162.3330  206.5260  148.2120 C   0  0  0  0  0  2  0  0  0  0  0  0
  160.8760  206.5630  147.7650 C   0  0  0  0  0  2  0  0  0  0  0  0
  161.2730  207.8330  151.3210 C   0  0  0  0  0  0  0  0  0  0  0  0
  161.0820  207.7940  149.9940 C   0  0  0  0  0  3  0  0  0  0  0  0
  160.1140  212.5630  155.2370 C   0  0  0  0  0  2  0  0  0  0  0  0
  159.7390  211.3170  154.4370 C   0  0  0  0  0  2  0  0  0  0  0  0
  160.9550  210.4090  154.2830 C   0  0  1  0  0  3  0  0  0  0  0  0
  160.6750  212.1870  156.6160 C   0  0  2  0  0  3  0  0  0  0  0  0
  161.4480  209.9940  155.6710 C   0  0  0  0  0  2  0  0  0  0  0  0
  161.1170  213.3420  157.2610 O   0  0  0  0  0  1  0  0  0  0  0  0
  161.8480  211.2220  156.4760 C   0  0  0  0  0  2  0  0  0  0  0  0
  161.7500  210.3650  151.5190 N   0  0  0  0  0  2  0  0  0  0  0  0
  160.7650  211.2180  150.8610 C   0  0  0  0  0  2  0  0  0  0  0  0
  160.8220  214.1830  150.8230 O   0  0  0  0  0  1  0  0  0  0  0  0
  161.8320  212.1540  147.2620 C   0  0  0  0  0  3  0  0  0  0  0  0
  161.4190  212.0590  149.7620 C   0  0  2  0  0  3  0  0  0  0  0  0
  159.5870  212.9510  147.4240 C   0  0  0  0  0  2  0  0  0  0  0  0
  160.8460  213.4920  149.6110 C   0  0  1  0  0  3  0  0  0  0  0  0
  161.6020  211.2650  148.4550 C   0  0  2  0  0  3  0  0  0  0  0  0
  160.9010  212.9240  146.8170 N   0  0  0  0  0  0  0  0  0  0  0  0
  159.5680  213.7220  148.7550 C   0  0  2  0  0  3  0  0  0  0  0  0
  162.6580  210.3860  148.5800 F   0  0  0  0  0  0  0  0  0  0  0  0
  157.8990  214.4530  150.5740 C   0  0  0  0  0  2  0  0  0  0  0  0
  156.4200  214.2260  150.7250 C   0  0  0  0  0  2  0  0  0  0  0  0
  157.0460  213.3410  148.6640 N   0  0  0  0  0  0  0  0  0  0  0  0
  158.2430  213.4560  149.5060 C   0  0  1  0  0  3  0  0  0  0  0  0
  155.9530  213.4970  149.5420 N   0  0  0  0  0  2  0  0  0  0  0  0
  156.9620  214.4530  147.7110 C   0  0  0  0  0  2  0  0  0  0  0  0
  156.6290  213.9590  146.4440 O   0  0  0  0  0  1  0  0  0  0  0  0
  1 21  1  6  0  0  0
  1  2  1  0  0  0  0
  1  3  1  0  0  0  0
  3  2  1  6  0  0  0
  3 16  1  0  0  0  0
  5  6  1  0  0  0  0
  5  4  1  1  0  0  0
  6  8  2  0  0  0  0
  7  9  1  0  0  0  0
  7 13  1  0  0  0  0
  9  5  1  0  0  0  0
 10  7  1  0  0  0  0
 11 10  1  0  0  0  0
 11  7  1  0  0  0  0
 12  6  1  0  0  0  0
 12  1  1  0  0  0  0
 13 12  2  0  0  0  0
 14 17  1  0  0  0  0
 15 14  1  0  0  0  0
 16 15  1  1  0  0  0
 16 18  1  0  0  0  0
 17 19  1  6  0  0  0
 18 20  1  0  0  0  0
 20 17  1  0  0  0  0
 22 21  1  0  0  0  0
 24 28  1  0  0  0  0
 25 22  1  1  0  0  0
 27 25  1  0  0  0  0
 27 23  1  1  0  0  0
 28 31  1  1  0  0  0
 28 25  1  0  0  0  0
 29 24  2  0  0  0  0
 29 26  1  0  0  0  0
 30 26  1  6  0  0  0
 30 35  1  0  0  0  0
 30 27  1  0  0  0  0
 32 33  1  0  0  0  0
 34 35  1  0  0  0  0
 34 36  1  0  0  0  0
 35 32  1  1  0  0  0
 36 33  1  0  0  0  0
 37 34  1  0  0  0  0
 38 37  1  0  0  0  0
M  END
>  <MODEL>
7

>  <REMARK>
 VINA RESULT:      -4.9      2.811      7.337
  Name = 
  7 active torsions:
  status: ('A' for Active; 'I' for Inactive)
    1  A    between atoms: C_2  and  N_32
    2  A    between atoms: C_2  and  C_33
    3  A    between atoms: C_7  and  N_14
    4  A    between atoms: C_11  and  C_17
    5  A    between atoms: C_15  and  C_28
    6  A    between atoms: C_17  and  N_32
    7  A    between atoms: C_25  and  C_34
                            x       y       z     vdW  Elec       q    Type
                         _______ _______ _______ _____ _____    ______ ____

>  <TORSDO>
F 7

$$$$
=
 OpenBabel11072410493D

 38 43  0  0  1  0  0  0  0  0999 V2000
  161.4180  209.9490  151.7610 C   0  0  1  0  0  0  0  0  0  0  0  0
  162.8980  209.7970  152.0790 C   0  0  0  0  0  2  0  0  0  0  0  0
  161.9380  210.2050  153.1870 C   0  0  2  0  0  3  0  0  0  0  0  0
  159.4120  214.4460  150.9630 O   0  0  0  0  0  1  0  0  0  0  0  0
  159.8160  213.3280  150.2340 C   0  0  2  0  0  3  0  0  0  0  0  0
  160.1010  212.1750  151.1760 C   0  0  0  0  0  0  0  0  0  0  0  0
  161.6450  212.4390  148.8110 C   0  0  0  0  0  0  0  0  0  0  0  0
  159.4010  212.0730  152.2200 O   0  0  0  0  0  0  0  0  0  0  0  0
  161.0230  213.7000  149.3730 C   0  0  0  0  0  2  0  0  0  0  0  0
  161.1790  212.0540  147.4330 C   0  0  0  0  0  2  0  0  0  0  0  0
  162.5940  212.5780  147.6510 C   0  0  0  0  0  2  0  0  0  0  0  0
  161.1360  211.1420  150.8490 C   0  0  0  0  0  0  0  0  0  0  0  0
  161.8680  211.2910  149.7340 C   0  0  0  0  0  3  0  0  0  0  0  0
  161.7340  208.3200  156.5360 C   0  0  0  0  0  2  0  0  0  0  0  0
  162.0200  209.4690  155.5720 C   0  0  0  0  0  2  0  0  0  0  0  0
  161.6670  209.0550  154.1470 C   0  0  1  0  0  3  0  0  0  0  0  0
  160.2630  207.8850  156.4570 C   0  0  2  0  0  3  0  0  0  0  0  0
  160.1810  208.6960  154.0830 C   0  0  0  0  0  2  0  0  0  0  0  0
  160.0760  206.7590  157.2600 O   0  0  0  0  0  1  0  0  0  0  0  0
  159.8800  207.5370  155.0230 C   0  0  0  0  0  2  0  0  0  0  0  0
  160.8760  208.6330  151.4130 N   0  0  0  0  0  2  0  0  0  0  0  0
  161.8780  207.8490  150.6970 C   0  0  0  0  0  2  0  0  0  0  0  0
  159.4060  206.3860  149.9630 O   0  0  0  0  0  1  0  0  0  0  0  0
  162.2900  207.0050  146.9440 C   0  0  0  0  0  3  0  0  0  0  0  0
  161.4290  207.5720  149.2610 C   0  0  2  0  0  3  0  0  0  0  0  0
  162.3290  204.8740  148.0230 C   0  0  0  0  0  2  0  0  0  0  0  0
  160.4980  206.3420  149.0960 C   0  0  1  0  0  3  0  0  0  0  0  0
  162.5930  207.6750  148.2590 C   0  0  2  0  0  3  0  0  0  0  0  0
  162.1620  205.7260  146.8640 N   0  0  0  0  0  0  0  0  0  0  0  0
  161.1180  204.9210  148.9690 C   0  0  2  0  0  3  0  0  0  0  0  0
  162.9080  208.9990  148.0330 F   0  0  0  0  0  0  0  0  0  0  0  0
  160.5450  204.5860  151.4570 C   0  0  0  0  0  2  0  0  0  0  0  0
  160.8310  203.4540  152.4050 C   0  0  0  0  0  2  0  0  0  0  0  0
  161.5800  202.7940  150.3010 N   0  0  0  0  0  0  0  0  0  0  0  0
  161.4700  204.2580  150.3200 C   0  0  1  0  0  3  0  0  0  0  0  0
  161.5090  202.3950  151.6520 N   0  0  0  0  0  2  0  0  0  0  0  0
  160.4200  202.1860  149.6390 C   0  0  0  0  0  2  0  0  0  0  0  0
  160.8170  201.0150  148.9840 O   0  0  0  0  0  1  0  0  0  0  0  0
  1 21  1  6  0  0  0
  1  2  1  0  0  0  0
  1  3  1  0  0  0  0
  3  2  1  6  0  0  0
  3 16  1  0  0  0  0
  5  4  1  1  0  0  0
  5  6  1  0  0  0  0
  6  8  2  0  0  0  0
  7  9  1  0  0  0  0
  7 13  1  0  0  0  0
  9  5  1  0  0  0  0
 10 11  1  0  0  0  0
 10  7  1  0  0  0  0
 11  7  1  0  0  0  0
 12  6  1  0  0  0  0
 12  1  1  0  0  0  0
 13 12  2  0  0  0  0
 15 14  1  0  0  0  0
 16 18  1  1  0  0  0
 16 15  1  0  0  0  0
 17 14  1  0  0  0  0
 17 19  1  1  0  0  0
 18 20  1  0  0  0  0
 20 17  1  0  0  0  0
 22 21  1  0  0  0  0
 24 28  1  0  0  0  0
 25 22  1  1  0  0  0
 27 25  1  0  0  0  0
 27 23  1  1  0  0  0
 28 31  1  6  0  0  0
 28 25  1  0  0  0  0
 29 24  2  0  0  0  0
 29 26  1  0  0  0  0
 30 26  1  6  0  0  0
 30 27  1  0  0  0  0
 30 35  1  0  0  0  0
 32 33  1  0  0  0  0
 34 35  1  0  0  0  0
 34 36  1  0  0  0  0
 35 32  1  1  0  0  0
 36 33  1  0  0  0  0
 37 34  1  0  0  0  0
 38 37  1  0  0  0  0
M  END
>  <MODEL>
8

>  <REMARK>
 VINA RESULT:      -4.5      3.536      5.587
  Name = 
  7 active torsions:
  status: ('A' for Active; 'I' for Inactive)
    1  A    between atoms: C_2  and  N_32
    2  A    between atoms: C_2  and  C_33
    3  A    between atoms: C_7  and  N_14
    4  A    between atoms: C_11  and  C_17
    5  A    between atoms: C_15  and  C_28
    6  A    between atoms: C_17  and  N_32
    7  A    between atoms: C_25  and  C_34
                            x       y       z     vdW  Elec       q    Type
                         _______ _______ _______ _____ _____    ______ ____

>  <TORSDO>
F 7

$$$$
=
 OpenBabel11072410493D

 38 43  0  0  1  0  0  0  0  0999 V2000
  161.8470  208.2700  149.8150 C   0  0  1  0  0  0  0  0  0  0  0  0
  162.8650  207.1390  149.8450 C   0  0  0  0  0  2  0  0  0  0  0  0
  161.4930  206.8890  149.2350 C   0  0  2  0  0  3  0  0  0  0  0  0
  161.1800  207.1780  154.6370 O   0  0  0  0  0  1  0  0  0  0  0  0
  160.6340  208.0100  153.6590 C   0  0  2  0  0  3  0  0  0  0  0  0
  161.1690  207.6220  152.2950 C   0  0  0  0  0  0  0  0  0  0  0  0
  160.6070  210.3490  152.8310 C   0  0  0  0  0  0  0  0  0  0  0  0
  161.4090  206.4030  152.0750 O   0  0  0  0  0  0  0  0  0  0  0  0
  160.9300  209.4660  154.0170 C   0  0  0  0  0  2  0  0  0  0  0  0
  159.2300  210.9570  152.8410 C   0  0  0  0  0  2  0  0  0  0  0  0
  160.4590  211.8280  153.0720 C   0  0  0  0  0  2  0  0  0  0  0  0
  161.3450  208.6400  151.2100 C   0  0  0  0  0  0  0  0  0  0  0  0
  161.0890  209.9280  151.4850 C   0  0  0  0  0  3  0  0  0  0  0  0
  162.7020  205.8060  145.7460 C   0  0  0  0  0  2  0  0  0  0  0  0
  162.6500  205.8710  147.2710 C   0  0  0  0  0  2  0  0  0  0  0  0
  161.5550  206.8350  147.7160 C   0  0  1  0  0  3  0  0  0  0  0  0
  161.3470  205.3780  145.1630 C   0  0  2  0  0  3  0  0  0  0  0  0
  160.2080  206.3450  147.1810 C   0  0  0  0  0  2  0  0  0  0  0  0
  161.4040  205.4510  143.7720 O   0  0  0  0  0  1  0  0  0  0  0  0
  160.2340  206.2940  145.6590 C   0  0  0  0  0  2  0  0  0  0  0  0
  162.3430  209.3230  148.9260 N   0  0  0  0  0  2  0  0  0  0  0  0
  161.3760  210.4130  148.8450 C   0  0  0  0  0  2  0  0  0  0  0  0
  160.3900  212.9150  150.0940 O   0  0  0  0  0  1  0  0  0  0  0  0
  163.4400  213.2380  147.1950 C   0  0  0  0  0  3  0  0  0  0  0  0
  162.0840  211.7660  148.7510 C   0  0  2  0  0  3  0  0  0  0  0  0
  161.2110  213.6310  146.4320 C   0  0  0  0  0  2  0  0  0  0  0  0
  161.1600  212.9980  148.9340 C   0  0  1  0  0  3  0  0  0  0  0  0
  163.0640  211.8270  147.5650 C   0  0  2  0  0  3  0  0  0  0  0  0
  162.5740  214.0460  146.6900 N   0  0  0  0  0  0  0  0  0  0  0  0
  160.3670  213.5500  147.7150 C   0  0  2  0  0  3  0  0  0  0  0  0
  164.2070  211.1130  147.8580 F   0  0  0  0  0  0  0  0  0  0  0  0
  157.8350  213.3600  148.1430 C   0  0  0  0  0  2  0  0  0  0  0  0
  156.7180  212.8000  147.3060 C   0  0  0  0  0  2  0  0  0  0  0  0
  158.6580  212.7040  146.0200 N   0  0  0  0  0  0  0  0  0  0  0  0
  159.0390  212.8110  147.4330 C   0  0  1  0  0  3  0  0  0  0  0  0
  157.2870  212.3700  146.0250 N   0  0  0  0  0  2  0  0  0  0  0  0
  158.7540  214.0040  145.3470 C   0  0  0  0  0  2  0  0  0  0  0  0
  158.3900  213.8620  144.0020 O   0  0  0  0  0  1  0  0  0  0  0  0
  1 21  1  6  0  0  0
  1  2  1  0  0  0  0
  1 12  1  0  0  0  0
  3  1  1  0  0  0  0
  3  2  1  1  0  0  0
  5  9  1  0  0  0  0
  5  4  1  1  0  0  0
  6  5  1  0  0  0  0
  7 10  1  0  0  0  0
  7 11  1  0  0  0  0
  7  9  1  0  0  0  0
  8  6  2  0  0  0  0
 10 11  1  0  0  0  0
 12 13  2  0  0  0  0
 12  6  1  0  0  0  0
 13  7  1  0  0  0  0
 14 15  1  0  0  0  0
 15 16  1  0  0  0  0
 16 18  1  6  0  0  0
 16  3  1  0  0  0  0
 17 19  1  6  0  0  0
 17 20  1  0  0  0  0
 17 14  1  0  0  0  0
 20 18  1  0  0  0  0
 22 21  1  0  0  0  0
 24 28  1  0  0  0  0
 25 22  1  6  0  0  0
 25 27  1  0  0  0  0
 26 29  1  0  0  0  0
 27 23  1  1  0  0  0
 28 31  1  1  0  0  0
 28 25  1  0  0  0  0
 29 24  2  0  0  0  0
 30 26  1  6  0  0  0
 30 27  1  0  0  0  0
 33 32  1  0  0  0  0
 34 36  1  0  0  0  0
 34 35  1  0  0  0  0
 35 30  1  0  0  0  0
 35 32  1  1  0  0  0
 36 33  1  0  0  0  0
 37 34  1  0  0  0  0
 38 37  1  0  0  0  0
M  END
>  <MODEL>
9

>  <REMARK>
 VINA RESULT:      -4.3      3.618      9.056
  Name = 
  7 active torsions:
  status: ('A' for Active; 'I' for Inactive)
    1  A    between atoms: C_2  and  N_32
    2  A    between atoms: C_2  and  C_33
    3  A    between atoms: C_7  and  N_14
    4  A    between atoms: C_11  and  C_17
    5  A    between atoms: C_15  and  C_28
    6  A    between atoms: C_17  and  N_32
    7  A    between atoms: C_25  and  C_34
                            x       y       z     vdW  Elec       q    Type
                         _______ _______ _______ _____ _____    ______ ____

>  <TORSDO>
F 7

$$$$
