=
 OpenBabel11072411083D

 46 50  0  0  1  0  0  0  0  0999 V2000
  161.2520  207.7150  148.6950 C   0  0  2  0  0  3  0  0  0  0  0  0
  161.7430  207.7900  152.3220 C   0  0  0  0  0  0  0  0  0  0  0  0
  161.2800  206.5530  152.1700 C   0  0  0  0  0  0  0  0  0  0  0  0
  161.6210  209.1570  148.3830 C   0  0  0  0  0  3  0  0  0  0  0  0
  161.4350  210.1020  153.1790 C   0  0  0  0  0  2  0  0  0  0  0  0
  161.9590  210.0460  149.3440 C   0  0  0  0  0  0  0  0  0  0  0  0
  162.2190  210.5630  151.9190 C   0  0  0  0  0  2  0  0  0  0  0  0
  160.6340  205.7480  153.2440 C   0  0  0  0  0  1  0  0  0  0  0  0
  161.6950  207.3340  150.0400 N   0  0  0  0  0  0  0  0  0  0  0  0
  161.5650  208.6600  153.4380 N   0  0  0  0  0  2  0  0  0  0  0  0
  161.9830  208.3150  151.0130 C   0  0  0  0  0  0  0  0  0  0  0  0
  161.2420  206.2200  150.7690 N   0  0  0  0  0  0  0  0  0  0  0  0
  162.0470  209.6100  150.7550 C   0  0  0  0  0  0  0  0  0  0  0  0
  161.7960  206.7780  147.6570 C   0  0  0  0  0  0  0  0  0  0  0  0
  163.0260  206.2710  147.7570 C   0  0  0  0  0  2  0  0  0  0  0  0
  160.9770  206.4720  146.4500 C   0  0  0  0  0  1  0  0  0  0  0  0
  162.2640  211.4060  149.0140 N   0  0  0  0  0  2  0  0  0  0  0  0
  161.2830  212.3790  148.5280 C   0  0  2  0  0  3  0  0  0  0  0  0
  161.5490  212.8890  147.0910 C   0  0  2  0  0  3  0  0  0  0  0  0
  160.8600  214.2130  146.7930 C   0  0  0  0  0  2  0  0  0  0  0  0
  160.2920  212.9330  146.2340 C   0  0  1  0  0  3  0  0  0  0  0  0
  160.6880  212.7850  144.7790 C   0  0  0  0  0  2  0  0  0  0  0  0
  159.4750  212.4020  143.9480 C   0  0  0  0  0  2  0  0  0  0  0  0
  159.5360  213.0530  142.5770 C   0  0  0  0  0  2  0  0  0  0  0  0
  159.7120  211.9930  141.5100 C   0  0  0  0  0  2  0  0  0  0  0  0
  162.1180  212.3650  141.3200 C   0  0  0  0  0  2  0  0  0  0  0  0
  160.9400  212.2720  140.7160 C   0  0  0  0  0  3  0  0  0  0  0  0
  160.9840  213.4600  149.5720 C   0  0  0  0  0  2  0  0  0  0  0  0
  159.8140  213.1150  151.7230 C   0  0  1  0  0  3  0  0  0  0  0  0
  159.6250  213.2660  150.2270 C   0  0  1  0  0  3  0  0  0  0  0  0
  159.3480  214.4350  151.1450 C   0  0  0  0  0  2  0  0  0  0  0  0
  158.6220  212.3710  152.2860 C   0  0  0  0  0  2  0  0  0  0  0  0
  157.9190  213.2370  153.3080 C   0  0  0  0  0  1  0  0  0  0  0  0
  160.4540  205.1420  150.1880 C   0  0  0  0  0  2  0  0  0  0  0  0
  162.2050  203.9530  151.3110 O   0  0  0  0  0  1  0  0  0  0  0  0
  160.9840  203.7890  150.6540 C   0  0  2  0  0  3  0  0  0  0  0  0
  161.1400  202.7870  149.5020 C   0  0  1  0  0  3  0  0  0  0  0  0
  159.2230  201.4080  149.0530 O   0  0  0  0  0  1  0  0  0  0  0  0
  161.2210  200.3830  149.4180 F   0  0  0  0  0  0  0  0  0  0  0  0
  160.4240  201.4610  149.7650 C   0  0  1  0  0  3  0  0  0  0  0  0
  160.7270  203.3760  148.1540 C   0  0  0  0  0  2  0  0  0  0  0  0
  161.7420  203.0410  147.0730 C   0  0  0  0  0  2  0  0  0  0  0  0
  161.0800  202.9520  145.7090 C   0  0  0  0  0  2  0  0  0  0  0  0
  159.5180  201.4370  144.7420 O   0  0  0  0  0  0  0  0  0  0  0  0
  161.0500  200.4790  146.1990 N   0  0  0  0  0  1  0  0  0  0  0  0
  160.4940  201.5980  145.5210 C   0  0  0  0  0  0  0  0  0  0  0  0
  1 14  1  6  0  0  0
  1  9  1  0  0  0  0
  2 10  1  0  0  0  0
  3  2  2  0  0  0  0
  3  8  1  0  0  0  0
  4  1  1  0  0  0  0
  4  6  2  0  0  0  0
  5 10  1  0  0  0  0
  6 13  1  0  0  0  0
  7  5  1  0  0  0  0
  9 12  1  0  0  0  0
  9 11  1  0  0  0  0
 11  2  1  0  0  0  0
 12  3  1  0  0  0  0
 13 11  2  0  0  0  0
 13  7  1  0  0  0  0
 14 15  2  0  0  0  0
 16 14  1  0  0  0  0
 17  6  1  0  0  0  0
 18 17  1  0  0  0  0
 18 28  1  1  0  0  0
 19 18  1  1  0  0  0
 20 19  1  0  0  0  0
 21 22  1  6  0  0  0
 21 20  1  0  0  0  0
 21 19  1  0  0  0  0
 23 22  1  0  0  0  0
 24 23  1  0  0  0  0
 25 24  1  0  0  0  0
 27 26  2  0  0  0  0
 27 25  1  0  0  0  0
 29 32  1  1  0  0  0
 30 28  1  6  0  0  0
 30 31  1  0  0  0  0
 30 29  1  0  0  0  0
 31 29  1  0  0  0  0
 32 33  1  0  0  0  0
 34 36  1  0  0  0  0
 34 12  1  0  0  0  0
 36 35  1  6  0  0  0
 37 41  1  6  0  0  0
 37 40  1  0  0  0  0
 37 36  1  0  0  0  0
 39 40  1  0  0  0  0
 40 38  1  6  0  0  0
 42 41  1  0  0  0  0
 43 42  1  0  0  0  0
 44 46  2  0  0  0  0
 46 43  1  0  0  0  0
 46 45  1  0  0  0  0
M  END
>  <MODEL>
1

>  <REMARK>
 VINA RESULT:      -6.2      0.000      0.000
  Name = 
  20 active torsions:
  status: ('A' for Active; 'I' for Inactive)
    1  A    between atoms: C_1  and  C_22
    2  A    between atoms: C_1  and  N_42
    3  A    between atoms: C_2  and  C_25
    4  A    between atoms: C_4  and  C_31
    5  A    between atoms: C_6  and  C_8
    6  A    between atoms: C_6  and  C_26
    7  A    between atoms: C_8  and  C_19
    8  A    between atoms: C_8  and  C_22
    9  A    between atoms: C_9  and  C_40
   10  A    between atoms: C_9  and  C_45
   11  A    between atoms: C_10  and  C_20
   12  A    between atoms: N_12  and  C_24
   13  A    between atoms: N_12  and  C_31
   14  A    between atoms: C_23  and  C_28
   15  A    between atoms: C_23  and  C_46
   16  A    between atoms: C_26  and  C_35
   17  A    between atoms: C_29  and  C_38
   18  A    between atoms: C_31  and  C_38
   19  A    between atoms: C_35  and  C_41
   20  A    between atoms: C_40  and  C_46
                            x       y       z     vdW  Elec       q    Type
                         _______ _______ _______ _____ _____    ______ ____

>  <TORSDO>
F 20

$$$$
=
 OpenBabel11072411083D

 46 50  0  0  1  0  0  0  0  0999 V2000
  161.1080  206.5500  151.1030 C   0  0  2  0  0  3  0  0  0  0  0  0
  161.9050  210.1180  150.9300 C   0  0  0  0  0  0  0  0  0  0  0  0
  161.3730  210.0520  152.1470 C   0  0  0  0  0  0  0  0  0  0  0  0
  161.5170  206.1540  149.6940 C   0  0  0  0  0  3  0  0  0  0  0  0
  161.7800  210.9100  148.5780 C   0  0  0  0  0  2  0  0  0  0  0  0
  161.9770  207.0490  148.7900 C   0  0  0  0  0  0  0  0  0  0  0  0
  162.4770  209.5730  148.2000 C   0  0  0  0  0  2  0  0  0  0  0  0
  160.7820  211.2050  152.8820 C   0  0  0  0  0  1  0  0  0  0  0  0
  161.6440  207.8680  151.4610 N   0  0  0  0  0  0  0  0  0  0  0  0
  161.8630  211.2120  150.0160 N   0  0  0  0  0  2  0  0  0  0  0  0
  162.0580  208.7750  150.4640 C   0  0  0  0  0  0  0  0  0  0  0  0
  161.2010  208.6720  152.5250 N   0  0  0  0  0  0  0  0  0  0  0  0
  162.1620  208.4640  149.1820 C   0  0  0  0  0  0  0  0  0  0  0  0
  161.5170  205.5060  152.1010 C   0  0  0  0  0  0  0  0  0  0  0  0
  162.7190  205.5350  152.6800 C   0  0  0  0  0  2  0  0  0  0  0  0
  160.5950  204.3730  152.3900 C   0  0  0  0  0  1  0  0  0  0  0  0
  162.3170  206.6440  147.4590 N   0  0  0  0  0  2  0  0  0  0  0  0
  161.7380  205.4860  146.7740 C   0  0  2  0  0  3  0  0  0  0  0  0
  161.0010  205.8280  145.4570 C   0  0  2  0  0  3  0  0  0  0  0  0
  160.6340  204.5950  144.6430 C   0  0  0  0  0  2  0  0  0  0  0  0
  161.7980  205.4530  144.2160 C   0  0  1  0  0  3  0  0  0  0  0  0
  161.3810  206.3580  143.0750 C   0  0  0  0  0  2  0  0  0  0  0  0
  161.9790  205.8590  141.7710 C   0  0  0  0  0  2  0  0  0  0  0  0
  161.8790  206.9230  140.6920 C   0  0  0  0  0  2  0  0  0  0  0  0
  162.7330  206.5350  139.5030 C   0  0  0  0  0  2  0  0  0  0  0  0
  162.3350  206.6720  137.0980 C   0  0  0  0  0  2  0  0  0  0  0  0
  162.2670  207.2570  138.2870 C   0  0  0  0  0  3  0  0  0  0  0  0
  160.9790  204.5710  147.7410 C   0  0  0  0  0  2  0  0  0  0  0  0
  160.5940  202.2110  148.3740 C   0  0  1  0  0  3  0  0  0  0  0  0
  161.6210  203.1960  147.8530 C   0  0  1  0  0  3  0  0  0  0  0  0
  160.9320  202.2490  146.8980 C   0  0  0  0  0  2  0  0  0  0  0  0
  161.3220  201.0520  149.0200 C   0  0  0  0  0  2  0  0  0  0  0  0
  161.0190  201.0230  150.5020 C   0  0  0  0  0  1  0  0  0  0  0  0
  160.3170  208.2000  153.5810 C   0  0  0  0  0  2  0  0  0  0  0  0
  161.0240  206.6780  155.2910 O   0  0  0  0  0  1  0  0  0  0  0  0
  161.0960  208.0110  154.8790 C   0  0  2  0  0  3  0  0  0  0  0  0
  160.6060  208.9330  156.0030 C   0  0  1  0  0  3  0  0  0  0  0  0
  162.6550  209.1810  157.2350 O   0  0  0  0  0  1  0  0  0  0  0  0
  162.2960  210.5590  155.4610 F   0  0  0  0  0  0  0  0  0  0  0  0
  161.6920  209.8850  156.5090 C   0  0  1  0  0  3  0  0  0  0  0  0
  159.3390  209.6980  155.6210 C   0  0  0  0  0  2  0  0  0  0  0  0
  159.1460  210.9190  156.5070 C   0  0  0  0  0  2  0  0  0  0  0  0
  158.7160  212.1250  155.6900 C   0  0  0  0  0  2  0  0  0  0  0  0
  156.9610  212.1340  154.0820 O   0  0  0  0  0  0  0  0  0  0  0  0
  156.3070  211.6390  156.2540 N   0  0  0  0  0  1  0  0  0  0  0  0
  157.2920  211.9790  155.2870 C   0  0  0  0  0  0  0  0  0  0  0  0
  1  9  1  0  0  0  0
  1 14  1  1  0  0  0
  2  3  2  0  0  0  0
  3 12  1  0  0  0  0
  3  8  1  0  0  0  0
  4  1  1  0  0  0  0
  5 10  1  0  0  0  0
  6 13  1  0  0  0  0
  6  4  2  0  0  0  0
  7  5  1  0  0  0  0
  7 13  1  0  0  0  0
  9 12  1  0  0  0  0
 10  2  1  0  0  0  0
 11  2  1  0  0  0  0
 11  9  1  0  0  0  0
 12 34  1  0  0  0  0
 13 11  2  0  0  0  0
 14 16  1  0  0  0  0
 14 15  2  0  0  0  0
 17  6  1  0  0  0  0
 18 17  1  0  0  0  0
 18 28  1  1  0  0  0
 19 18  1  1  0  0  0
 20 19  1  0  0  0  0
 21 22  1  6  0  0  0
 21 20  1  0  0  0  0
 21 19  1  0  0  0  0
 23 22  1  0  0  0  0
 24 23  1  0  0  0  0
 25 24  1  0  0  0  0
 26 27  2  0  0  0  0
 27 25  1  0  0  0  0
 29 32  1  1  0  0  0
 30 28  1  6  0  0  0
 30 29  1  0  0  0  0
 31 30  1  0  0  0  0
 31 29  1  0  0  0  0
 32 33  1  0  0  0  0
 34 36  1  0  0  0  0
 36 35  1  1  0  0  0
 36 37  1  0  0  0  0
 37 41  1  6  0  0  0
 37 40  1  0  0  0  0
 40 39  1  6  0  0  0
 40 38  1  0  0  0  0
 41 42  1  0  0  0  0
 43 42  1  0  0  0  0
 44 46  2  0  0  0  0
 46 43  1  0  0  0  0
 46 45  1  0  0  0  0
M  END
>  <MODEL>
2

>  <REMARK>
 VINA RESULT:      -5.2      3.993      8.436
  Name = 
  20 active torsions:
  status: ('A' for Active; 'I' for Inactive)
    1  A    between atoms: C_1  and  C_22
    2  A    between atoms: C_1  and  N_42
    3  A    between atoms: C_2  and  C_25
    4  A    between atoms: C_4  and  C_31
    5  A    between atoms: C_6  and  C_8
    6  A    between atoms: C_6  and  C_26
    7  A    between atoms: C_8  and  C_19
    8  A    between atoms: C_8  and  C_22
    9  A    between atoms: C_9  and  C_40
   10  A    between atoms: C_9  and  C_45
   11  A    between atoms: C_10  and  C_20
   12  A    between atoms: N_12  and  C_24
   13  A    between atoms: N_12  and  C_31
   14  A    between atoms: C_23  and  C_28
   15  A    between atoms: C_23  and  C_46
   16  A    between atoms: C_26  and  C_35
   17  A    between atoms: C_29  and  C_38
   18  A    between atoms: C_31  and  C_38
   19  A    between atoms: C_35  and  C_41
   20  A    between atoms: C_40  and  C_46
                            x       y       z     vdW  Elec       q    Type
                         _______ _______ _______ _____ _____    ______ ____

>  <TORSDO>
F 20

$$$$
=
 OpenBabel11072411083D

 46 50  0  0  1  0  0  0  0  0999 V2000
  161.0890  207.6640  149.5640 C   0  0  2  0  0  3  0  0  0  0  0  0
  161.5120  205.9830  152.7880 C   0  0  0  0  0  0  0  0  0  0  0  0
  161.2330  204.9400  152.0110 C   0  0  0  0  0  0  0  0  0  0  0  0
  161.2520  209.1010  150.0300 C   0  0  0  0  0  3  0  0  0  0  0  0
  160.8640  207.5080  154.6400 C   0  0  0  0  0  2  0  0  0  0  0  0
  161.4460  209.4280  151.3280 C   0  0  0  0  0  0  0  0  0  0  0  0
  161.5920  208.6230  153.8380 C   0  0  0  0  0  2  0  0  0  0  0  0
  160.6930  203.6390  152.4940 C   0  0  0  0  0  1  0  0  0  0  0  0
  161.5620  206.7190  150.5810 N   0  0  0  0  0  0  0  0  0  0  0  0
  161.1950  206.1550  154.1680 N   0  0  0  0  0  2  0  0  0  0  0  0
  161.6930  207.1120  151.9300 C   0  0  0  0  0  0  0  0  0  0  0  0
  161.2630  205.3460  150.6290 N   0  0  0  0  0  0  0  0  0  0  0  0
  161.5740  208.3620  152.3470 C   0  0  0  0  0  0  0  0  0  0  0  0
  161.7760  207.4380  148.2490 C   0  0  0  0  0  0  0  0  0  0  0  0
  163.0910  207.6250  148.1130 C   0  0  0  0  0  2  0  0  0  0  0  0
  160.9630  207.0760  147.0540 C   0  0  0  0  0  1  0  0  0  0  0  0
  161.5570  210.7970  151.7340 N   0  0  0  0  0  2  0  0  0  0  0  0
  160.4180  211.6960  151.9320 C   0  0  2  0  0  3  0  0  0  0  0  0
  159.3780  211.1900  152.9600 C   0  0  2  0  0  3  0  0  0  0  0  0
  158.4860  212.3000  153.4990 C   0  0  0  0  0  2  0  0  0  0  0  0
  159.6000  211.7550  154.3560 C   0  0  1  0  0  3  0  0  0  0  0  0
  159.0400  210.7800  155.3720 C   0  0  0  0  0  2  0  0  0  0  0  0
  159.2630  211.3100  156.7780 C   0  0  0  0  0  2  0  0  0  0  0  0
  158.0470  212.0820  157.2600 C   0  0  0  0  0  2  0  0  0  0  0  0
  156.8170  211.6380  156.4960 C   0  0  0  0  0  2  0  0  0  0  0  0
  155.5670  213.3360  155.2640 C   0  0  0  0  0  2  0  0  0  0  0  0
  155.8330  212.7540  156.4270 C   0  0  0  0  0  3  0  0  0  0  0  0
  159.8460  212.1960  150.6000 C   0  0  0  0  0  2  0  0  0  0  0  0
  161.1230  212.7330  148.5510 C   0  0  1  0  0  3  0  0  0  0  0  0
  160.7510  213.2230  149.9370 C   0  0  1  0  0  3  0  0  0  0  0  0
  160.0500  213.7880  148.7230 C   0  0  0  0  0  2  0  0  0  0  0  0
  162.4150  213.4030  148.1340 C   0  0  0  0  0  2  0  0  0  0  0  0
  163.4740  212.3530  147.8820 C   0  0  0  0  0  1  0  0  0  0  0  0
  160.6460  204.6150  149.5310 C   0  0  0  0  0  2  0  0  0  0  0  0
  162.2140  204.1900  147.7700 O   0  0  0  0  0  1  0  0  0  0  0  0
  161.6440  203.6370  148.9190 C   0  0  2  0  0  3  0  0  0  0  0  0
  161.0120  202.2780  148.5870 C   0  0  1  0  0  3  0  0  0  0  0  0
  159.1160  201.0300  149.3760 O   0  0  0  0  0  1  0  0  0  0  0  0
  161.1140  200.7180  150.4170 F   0  0  0  0  0  0  0  0  0  0  0  0
  160.3020  201.6440  149.7850 C   0  0  1  0  0  3  0  0  0  0  0  0
  160.0880  202.3430  147.3720 C   0  0  0  0  0  2  0  0  0  0  0  0
  160.7550  201.7480  146.1420 C   0  0  0  0  0  2  0  0  0  0  0  0
  161.3660  202.8330  145.2720 C   0  0  0  0  0  2  0  0  0  0  0  0
  160.4410  204.9500  144.6990 O   0  0  0  0  0  0  0  0  0  0  0  0
  159.1100  203.1190  144.1840 N   0  0  0  0  0  1  0  0  0  0  0  0
  160.2930  203.6990  144.7180 C   0  0  0  0  0  0  0  0  0  0  0  0
  1 14  1  6  0  0  0
  1  4  1  0  0  0  0
  1  9  1  0  0  0  0
  2 10  1  0  0  0  0
  3  8  1  0  0  0  0
  3  2  2  0  0  0  0
  4  6  2  0  0  0  0
  6 17  1  0  0  0  0
  6 13  1  0  0  0  0
  7  5  1  0  0  0  0
  9 12  1  0  0  0  0
  9 11  1  0  0  0  0
 10  5  1  0  0  0  0
 11 13  2  0  0  0  0
 11  2  1  0  0  0  0
 12  3  1  0  0  0  0
 13  7  1  0  0  0  0
 15 14  2  0  0  0  0
 16 14  1  0  0  0  0
 17 18  1  0  0  0  0
 18 28  1  6  0  0  0
 19 18  1  6  0  0  0
 19 20  1  0  0  0  0
 19 21  1  0  0  0  0
 20 21  1  0  0  0  0
 21 22  1  1  0  0  0
 22 23  1  0  0  0  0
 23 24  1  0  0  0  0
 25 24  1  0  0  0  0
 26 27  2  0  0  0  0
 27 25  1  0  0  0  0
 29 32  1  6  0  0  0
 29 31  1  0  0  0  0
 29 30  1  0  0  0  0
 30 28  1  1  0  0  0
 31 30  1  0  0  0  0
 33 32  1  0  0  0  0
 34 12  1  0  0  0  0
 36 35  1  6  0  0  0
 36 34  1  0  0  0  0
 37 41  1  6  0  0  0
 37 36  1  0  0  0  0
 37 40  1  0  0  0  0
 40 38  1  6  0  0  0
 40 39  1  0  0  0  0
 42 41  1  0  0  0  0
 43 42  1  0  0  0  0
 44 46  2  0  0  0  0
 45 46  1  0  0  0  0
 46 43  1  0  0  0  0
M  END
>  <MODEL>
3

>  <REMARK>
 VINA RESULT:      -5.0      2.724      6.015
  Name = 
  20 active torsions:
  status: ('A' for Active; 'I' for Inactive)
    1  A    between atoms: C_1  and  C_22
    2  A    between atoms: C_1  and  N_42
    3  A    between atoms: C_2  and  C_25
    4  A    between atoms: C_4  and  C_31
    5  A    between atoms: C_6  and  C_8
    6  A    between atoms: C_6  and  C_26
    7  A    between atoms: C_8  and  C_19
    8  A    between atoms: C_8  and  C_22
    9  A    between atoms: C_9  and  C_40
   10  A    between atoms: C_9  and  C_45
   11  A    between atoms: C_10  and  C_20
   12  A    between atoms: N_12  and  C_24
   13  A    between atoms: N_12  and  C_31
   14  A    between atoms: C_23  and  C_28
   15  A    between atoms: C_23  and  C_46
   16  A    between atoms: C_26  and  C_35
   17  A    between atoms: C_29  and  C_38
   18  A    between atoms: C_31  and  C_38
   19  A    between atoms: C_35  and  C_41
   20  A    between atoms: C_40  and  C_46
                            x       y       z     vdW  Elec       q    Type
                         _______ _______ _______ _____ _____    ______ ____

>  <TORSDO>
F 20

$$$$
=
 OpenBabel11072411083D

 46 50  0  0  1  0  0  0  0  0999 V2000
  161.0070  209.4340  151.1680 C   0  0  2  0  0  3  0  0  0  0  0  0
  161.1660  207.3130  154.1460 C   0  0  0  0  0  0  0  0  0  0  0  0
  161.6250  206.4680  153.2280 C   0  0  0  0  0  0  0  0  0  0  0  0
  160.3650  210.6620  151.7930 C   0  0  0  0  0  3  0  0  0  0  0  0
  159.3920  207.9670  155.7590 C   0  0  0  0  0  2  0  0  0  0  0  0
  160.0010  210.7090  153.0950 C   0  0  0  0  0  0  0  0  0  0  0  0
  159.7450  209.4360  155.3930 C   0  0  0  0  0  2  0  0  0  0  0  0
  161.6090  204.9830  153.3520 C   0  0  0  0  0  1  0  0  0  0  0  0
  161.5300  208.5270  152.1950 N   0  0  0  0  0  0  0  0  0  0  0  0
  160.4160  207.0060  155.3200 N   0  0  0  0  0  2  0  0  0  0  0  0
  161.0670  208.5970  153.5260 C   0  0  0  0  0  0  0  0  0  0  0  0
  161.8760  207.1790  152.0000 N   0  0  0  0  0  0  0  0  0  0  0  0
  160.2860  209.5610  153.9840 C   0  0  0  0  0  0  0  0  0  0  0  0
  162.0750  209.8200  150.1860 C   0  0  0  0  0  0  0  0  0  0  0  0
  163.2320  210.3450  150.5930 C   0  0  0  0  0  2  0  0  0  0  0  0
  161.8070  209.6880  148.7270 C   0  0  0  0  0  1  0  0  0  0  0  0
  159.3630  211.8710  153.6390 N   0  0  0  0  0  2  0  0  0  0  0  0
  158.2410  212.5700  153.0090 C   0  0  2  0  0  3  0  0  0  0  0  0
  158.6580  213.7070  152.0450 C   0  0  2  0  0  3  0  0  0  0  0  0
  157.4690  214.4340  151.4330 C   0  0  0  0  0  2  0  0  0  0  0  0
  158.2450  213.4440  150.6040 C   0  0  1  0  0  3  0  0  0  0  0  0
  159.1970  214.1770  149.6820 C   0  0  0  0  0  2  0  0  0  0  0  0
  159.1510  213.5640  148.2930 C   0  0  0  0  0  2  0  0  0  0  0  0
  160.5110  213.6470  147.6230 C   0  0  0  0  0  2  0  0  0  0  0  0
  160.3440  213.7180  146.1200 C   0  0  0  0  0  2  0  0  0  0  0  0
  159.5710  212.2260  144.3480 C   0  0  0  0  0  2  0  0  0  0  0  0
  160.0520  212.3630  145.5770 C   0  0  0  0  0  3  0  0  0  0  0  0
  157.1490  212.9270  154.0230 C   0  0  0  0  0  2  0  0  0  0  0  0
  158.2780  213.3660  156.1800 C   0  0  1  0  0  3  0  0  0  0  0  0
  157.4430  212.3650  155.4060 C   0  0  1  0  0  3  0  0  0  0  0  0
  156.7920  213.2470  156.4470 C   0  0  0  0  0  2  0  0  0  0  0  0
  159.0370  212.6270  157.2610 C   0  0  0  0  0  2  0  0  0  0  0  0
  160.5180  212.9010  157.1210 C   0  0  0  0  0  1  0  0  0  0  0  0
  162.0050  206.5590  150.6880 C   0  0  0  0  0  2  0  0  0  0  0  0
  160.0700  205.1900  151.0400 O   0  0  0  0  0  1  0  0  0  0  0  0
  160.6370  206.1250  150.1700 C   0  0  2  0  0  3  0  0  0  0  0  0
  160.6980  205.5500  148.7500 C   0  0  1  0  0  3  0  0  0  0  0  0
  162.4550  206.4140  147.3550 O   0  0  0  0  0  1  0  0  0  0  0  0
  160.3210  206.5020  146.5720 F   0  0  0  0  0  0  0  0  0  0  0  0
  161.1140  206.5860  147.7040 C   0  0  1  0  0  3  0  0  0  0  0  0
  161.5730  204.3000  148.6620 C   0  0  0  0  0  2  0  0  0  0  0  0
  161.1250  203.2420  149.6570 C   0  0  0  0  0  2  0  0  0  0  0  0
  160.1900  202.2380  149.0060 C   0  0  0  0  0  2  0  0  0  0  0  0
  161.6200  200.4450  148.3680 O   0  0  0  0  0  0  0  0  0  0  0  0
  160.8550  201.7670  146.6200 N   0  0  0  0  0  1  0  0  0  0  0  0
  160.9350  201.4360  148.0000 C   0  0  0  0  0  0  0  0  0  0  0  0
  1 14  1  6  0  0  0
  1  4  1  0  0  0  0
  1  9  1  0  0  0  0
  2 10  1  0  0  0  0
  3  8  1  0  0  0  0
  3  2  2  0  0  0  0
  4  6  2  0  0  0  0
  6 17  1  0  0  0  0
  6 13  1  0  0  0  0
  7  5  1  0  0  0  0
  9 11  1  0  0  0  0
 10  5  1  0  0  0  0
 11 13  2  0  0  0  0
 11  2  1  0  0  0  0
 12  9  1  0  0  0  0
 12  3  1  0  0  0  0
 13  7  1  0  0  0  0
 14 15  2  0  0  0  0
 16 14  1  0  0  0  0
 18 17  1  0  0  0  0
 18 28  1  1  0  0  0
 19 18  1  1  0  0  0
 20 19  1  0  0  0  0
 21 22  1  6  0  0  0
 21 20  1  0  0  0  0
 21 19  1  0  0  0  0
 23 22  1  0  0  0  0
 24 23  1  0  0  0  0
 25 24  1  0  0  0  0
 26 27  2  0  0  0  0
 27 25  1  0  0  0  0
 29 31  1  0  0  0  0
 29 32  1  1  0  0  0
 30 28  1  6  0  0  0
 30 29  1  0  0  0  0
 30 31  1  0  0  0  0
 33 32  1  0  0  0  0
 34 12  1  0  0  0  0
 36 34  1  0  0  0  0
 36 35  1  1  0  0  0
 37 41  1  1  0  0  0
 37 36  1  0  0  0  0
 38 40  1  0  0  0  0
 40 39  1  6  0  0  0
 40 37  1  0  0  0  0
 41 42  1  0  0  0  0
 43 42  1  0  0  0  0
 45 46  1  0  0  0  0
 46 44  2  0  0  0  0
 46 43  1  0  0  0  0
M  END
>  <MODEL>
4

>  <REMARK>
 VINA RESULT:      -4.2      2.316      4.244
  Name = 
  20 active torsions:
  status: ('A' for Active; 'I' for Inactive)
    1  A    between atoms: C_1  and  C_22
    2  A    between atoms: C_1  and  N_42
    3  A    between atoms: C_2  and  C_25
    4  A    between atoms: C_4  and  C_31
    5  A    between atoms: C_6  and  C_8
    6  A    between atoms: C_6  and  C_26
    7  A    between atoms: C_8  and  C_19
    8  A    between atoms: C_8  and  C_22
    9  A    between atoms: C_9  and  C_40
   10  A    between atoms: C_9  and  C_45
   11  A    between atoms: C_10  and  C_20
   12  A    between atoms: N_12  and  C_24
   13  A    between atoms: N_12  and  C_31
   14  A    between atoms: C_23  and  C_28
   15  A    between atoms: C_23  and  C_46
   16  A    between atoms: C_26  and  C_35
   17  A    between atoms: C_29  and  C_38
   18  A    between atoms: C_31  and  C_38
   19  A    between atoms: C_35  and  C_41
   20  A    between atoms: C_40  and  C_46
                            x       y       z     vdW  Elec       q    Type
                         _______ _______ _______ _____ _____    ______ ____

>  <TORSDO>
F 20

$$$$
=
 OpenBabel11072411083D

 46 50  0  0  1  0  0  0  0  0999 V2000
  161.7530  207.3770  152.7210 C   0  0  2  0  0  3  0  0  0  0  0  0
  161.4350  208.7320  149.3360 C   0  0  0  0  0  0  0  0  0  0  0  0
  161.5900  207.4400  149.0610 C   0  0  0  0  0  0  0  0  0  0  0  0
  161.7190  208.6840  153.4970 C   0  0  0  0  0  3  0  0  0  0  0  0
  162.3090  211.0570  149.2590 C   0  0  0  0  0  2  0  0  0  0  0  0
  161.6370  209.8890  152.8890 C   0  0  0  0  0  0  0  0  0  0  0  0
  161.6060  211.2560  150.6310 C   0  0  0  0  0  2  0  0  0  0  0  0
  162.0710  206.8970  147.7600 C   0  0  0  0  0  1  0  0  0  0  0  0
  161.2860  207.5650  151.3430 N   0  0  0  0  0  0  0  0  0  0  0  0
  161.8550  209.8490  148.5530 N   0  0  0  0  0  2  0  0  0  0  0  0
  161.2740  208.8460  150.7520 C   0  0  0  0  0  0  0  0  0  0  0  0
  161.4940  206.6730  150.2770 N   0  0  0  0  0  0  0  0  0  0  0  0
  161.5050  209.9660  151.4170 C   0  0  0  0  0  0  0  0  0  0  0  0
  160.9640  206.3090  153.4220 C   0  0  0  0  0  0  0  0  0  0  0  0
  161.0360  205.0320  153.0410 C   0  0  0  0  0  2  0  0  0  0  0  0
  160.0240  206.6940  154.5120 C   0  0  0  0  0  1  0  0  0  0  0  0
  161.6460  211.1010  153.6520 N   0  0  0  0  0  2  0  0  0  0  0  0
  160.4440  211.8180  154.0810 C   0  0  2  0  0  3  0  0  0  0  0  0
  160.0120  212.9630  153.1330 C   0  0  2  0  0  3  0  0  0  0  0  0
  158.6810  213.5880  153.5220 C   0  0  0  0  0  2  0  0  0  0  0  0
  158.7460  212.6420  152.3510 C   0  0  1  0  0  3  0  0  0  0  0  0
  158.7610  213.4250  151.0550 C   0  0  0  0  0  2  0  0  0  0  0  0
  157.3440  213.8090  150.6640 C   0  0  0  0  0  2  0  0  0  0  0  0
  156.8910  213.0240  149.4460 C   0  0  0  0  0  2  0  0  0  0  0  0
  157.7730  213.3560  148.2610 C   0  0  0  0  0  2  0  0  0  0  0  0
  157.6430  212.9230  145.8610 C   0  0  0  0  0  2  0  0  0  0  0  0
  157.3990  212.5060  147.0970 C   0  0  0  0  0  3  0  0  0  0  0  0
  160.4900  212.1730  155.5710 C   0  0  0  0  0  2  0  0  0  0  0  0
  158.5000  210.7080  155.4550 C   0  0  1  0  0  3  0  0  0  0  0  0
  159.2380  211.7210  156.3080 C   0  0  1  0  0  3  0  0  0  0  0  0
  159.3530  210.2460  156.6190 C   0  0  0  0  0  2  0  0  0  0  0  0
  157.0450  210.6970  155.8720 C   0  0  0  0  0  2  0  0  0  0  0  0
  156.1810  211.1430  154.7130 C   0  0  0  0  0  1  0  0  0  0  0  0
  161.9840  205.3120  150.4460 C   0  0  0  0  0  2  0  0  0  0  0  0
  159.8330  204.2730  150.2610 O   0  0  0  0  0  1  0  0  0  0  0  0
  161.1010  204.3320  149.6800 C   0  0  2  0  0  3  0  0  0  0  0  0
  161.7080  202.9250  149.6040 C   0  0  1  0  0  3  0  0  0  0  0  0
  161.0880  200.6690  150.1530 O   0  0  0  0  0  1  0  0  0  0  0  0
  161.8810  201.9980  151.8190 F   0  0  0  0  0  0  0  0  0  0  0  0
  161.1340  201.9710  150.6540 C   0  0  1  0  0  3  0  0  0  0  0  0
  161.6150  202.3210  148.2040 C   0  0  0  0  0  2  0  0  0  0  0  0
  160.9280  203.2740  147.2380 C   0  0  0  0  0  2  0  0  0  0  0  0
  161.8940  203.7670  146.1750 C   0  0  0  0  0  2  0  0  0  0  0  0
  160.1460  203.5330  144.5750 O   0  0  0  0  0  0  0  0  0  0  0  0
  161.5140  205.3860  144.2810 N   0  0  0  0  0  1  0  0  0  0  0  0
  161.1380  204.2020  144.9710 C   0  0  0  0  0  0  0  0  0  0  0  0
  1 14  1  1  0  0  0
  1  4  1  0  0  0  0
  2 11  1  0  0  0  0
  3  2  2  0  0  0  0
  3 12  1  0  0  0  0
  5  7  1  0  0  0  0
  6  4  2  0  0  0  0
  6 17  1  0  0  0  0
  7 13  1  0  0  0  0
  8  3  1  0  0  0  0
  9  1  1  0  0  0  0
 10  5  1  0  0  0  0
 10  2  1  0  0  0  0
 11  9  1  0  0  0  0
 11 13  2  0  0  0  0
 12 34  1  0  0  0  0
 12  9  1  0  0  0  0
 13  6  1  0  0  0  0
 14 16  1  0  0  0  0
 15 14  2  0  0  0  0
 17 18  1  0  0  0  0
 18 28  1  1  0  0  0
 19 20  1  0  0  0  0
 19 18  1  1  0  0  0
 21 22  1  6  0  0  0
 21 19  1  0  0  0  0
 21 20  1  0  0  0  0
 23 22  1  0  0  0  0
 24 23  1  0  0  0  0
 25 24  1  0  0  0  0
 26 27  2  0  0  0  0
 27 25  1  0  0  0  0
 29 32  1  1  0  0  0
 29 30  1  0  0  0  0
 29 31  1  0  0  0  0
 30 28  1  6  0  0  0
 30 31  1  0  0  0  0
 33 32  1  0  0  0  0
 36 35  1  1  0  0  0
 36 34  1  0  0  0  0
 37 41  1  6  0  0  0
 37 36  1  0  0  0  0
 37 40  1  0  0  0  0
 40 38  1  6  0  0  0
 40 39  1  0  0  0  0
 42 41  1  0  0  0  0
 43 42  1  0  0  0  0
 44 46  2  0  0  0  0
 45 46  1  0  0  0  0
 46 43  1  0  0  0  0
M  END
>  <MODEL>
5

>  <REMARK>
 VINA RESULT:      -4.2      2.410      4.697
  Name = 
  20 active torsions:
  status: ('A' for Active; 'I' for Inactive)
    1  A    between atoms: C_1  and  C_22
    2  A    between atoms: C_1  and  N_42
    3  A    between atoms: C_2  and  C_25
    4  A    between atoms: C_4  and  C_31
    5  A    between atoms: C_6  and  C_8
    6  A    between atoms: C_6  and  C_26
    7  A    between atoms: C_8  and  C_19
    8  A    between atoms: C_8  and  C_22
    9  A    between atoms: C_9  and  C_40
   10  A    between atoms: C_9  and  C_45
   11  A    between atoms: C_10  and  C_20
   12  A    between atoms: N_12  and  C_24
   13  A    between atoms: N_12  and  C_31
   14  A    between atoms: C_23  and  C_28
   15  A    between atoms: C_23  and  C_46
   16  A    between atoms: C_26  and  C_35
   17  A    between atoms: C_29  and  C_38
   18  A    between atoms: C_31  and  C_38
   19  A    between atoms: C_35  and  C_41
   20  A    between atoms: C_40  and  C_46
                            x       y       z     vdW  Elec       q    Type
                         _______ _______ _______ _____ _____    ______ ____

>  <TORSDO>
F 20

$$$$
=
 OpenBabel11072411083D

 46 50  0  0  1  0  0  0  0  0999 V2000
  160.9430  207.4670  151.8850 C   0  0  2  0  0  3  0  0  0  0  0  0
  161.5300  211.0450  151.3800 C   0  0  0  0  0  0  0  0  0  0  0  0
  161.0640  211.0530  152.6260 C   0  0  0  0  0  0  0  0  0  0  0  0
  161.3020  206.9760  150.4920 C   0  0  0  0  0  3  0  0  0  0  0  0
  161.2420  211.6290  148.9820 C   0  0  0  0  0  2  0  0  0  0  0  0
  161.6640  207.8150  149.4950 C   0  0  0  0  0  0  0  0  0  0  0  0
  161.9920  210.3020  148.6750 C   0  0  0  0  0  2  0  0  0  0  0  0
  160.4470  212.2320  153.2960 C   0  0  0  0  0  1  0  0  0  0  0  0
  161.4220  208.8360  152.1050 N   0  0  0  0  0  0  0  0  0  0  0  0
  161.3800  212.0540  150.3830 N   0  0  0  0  0  2  0  0  0  0  0  0
  161.7340  209.6770  151.0160 C   0  0  0  0  0  0  0  0  0  0  0  0
  160.9890  209.7030  153.1230 N   0  0  0  0  0  0  0  0  0  0  0  0
  161.7900  209.2650  149.7600 C   0  0  0  0  0  0  0  0  0  0  0  0
  161.4600  206.5330  152.9400 C   0  0  0  0  0  0  0  0  0  0  0  0
  160.6970  206.1600  153.9700 C   0  0  0  0  0  2  0  0  0  0  0  0
  162.8770  206.0780  152.8800 C   0  0  0  0  0  1  0  0  0  0  0  0
  161.9580  207.3170  148.1850 N   0  0  0  0  0  2  0  0  0  0  0  0
  161.8770  205.9070  147.7980 C   0  0  2  0  0  3  0  0  0  0  0  0
  161.8080  205.6680  146.2700 C   0  0  2  0  0  3  0  0  0  0  0  0
  160.7290  206.4950  145.5870 C   0  0  0  0  0  2  0  0  0  0  0  0
  160.5020  205.0240  145.8290 C   0  0  1  0  0  3  0  0  0  0  0  0
  160.7470  204.2470  144.5520 C   0  0  0  0  0  2  0  0  0  0  0  0
  159.8490  203.0230  144.5080 C   0  0  0  0  0  2  0  0  0  0  0  0
  160.3700  201.9420  145.4390 C   0  0  0  0  0  2  0  0  0  0  0  0
  160.1110  200.5750  144.8400 C   0  0  0  0  0  2  0  0  0  0  0  0
  161.4310  199.8320  146.7550 C   0  0  0  0  0  2  0  0  0  0  0  0
  160.8860  199.5420  145.5800 C   0  0  0  0  0  3  0  0  0  0  0  0
  160.8470  205.1420  148.6370 C   0  0  0  0  0  2  0  0  0  0  0  0
  160.3870  202.9360  149.6550 C   0  0  1  0  0  3  0  0  0  0  0  0
  161.4660  203.9610  149.3690 C   0  0  1  0  0  3  0  0  0  0  0  0
  161.3500  202.7270  148.5050 C   0  0  0  0  0  2  0  0  0  0  0  0
  160.8260  202.0880  150.8300 C   0  0  0  0  0  2  0  0  0  0  0  0
  160.9240  202.9490  152.0690 C   0  0  0  0  0  1  0  0  0  0  0  0
  160.1880  209.2760  154.2610 C   0  0  0  0  0  2  0  0  0  0  0  0
  161.3070  208.3090  156.1450 O   0  0  0  0  0  1  0  0  0  0  0  0
  160.9420  209.5250  155.5640 C   0  0  2  0  0  3  0  0  0  0  0  0
  160.1330  210.3620  156.5640 C   0  0  1  0  0  3  0  0  0  0  0  0
  162.3240  211.2410  157.0180 O   0  0  0  0  0  1  0  0  0  0  0  0
  160.6150  212.7140  156.7280 F   0  0  0  0  0  0  0  0  0  0  0  0
  160.9610  211.4680  157.2220 C   0  0  1  0  0  3  0  0  0  0  0  0
  158.8510  210.9250  155.9540 C   0  0  0  0  0  2  0  0  0  0  0  0
  158.1160  211.8170  156.9430 C   0  0  0  0  0  2  0  0  0  0  0  0
  156.6220  211.5470  156.9170 C   0  0  0  0  0  2  0  0  0  0  0  0
  155.7040  211.2740  154.7380 O   0  0  0  0  0  0  0  0  0  0  0  0
  155.8280  213.4670  155.4890 N   0  0  0  0  0  1  0  0  0  0  0  0
  156.0370  212.0710  155.6550 C   0  0  0  0  0  0  0  0  0  0  0  0
  1  9  1  0  0  0  0
  1 14  1  1  0  0  0
  2  3  2  0  0  0  0
  3 12  1  0  0  0  0
  3  8  1  0  0  0  0
  4  1  1  0  0  0  0
  5 10  1  0  0  0  0
  6 13  1  0  0  0  0
  6  4  2  0  0  0  0
  7  5  1  0  0  0  0
  7 13  1  0  0  0  0
  9 12  1  0  0  0  0
 10  2  1  0  0  0  0
 11  2  1  0  0  0  0
 11  9  1  0  0  0  0
 12 34  1  0  0  0  0
 13 11  2  0  0  0  0
 14 15  2  0  0  0  0
 16 14  1  0  0  0  0
 17  6  1  0  0  0  0
 18 17  1  0  0  0  0
 18 28  1  1  0  0  0
 19 18  1  1  0  0  0
 20 21  1  0  0  0  0
 20 19  1  0  0  0  0
 21 22  1  6  0  0  0
 21 19  1  0  0  0  0
 23 22  1  0  0  0  0
 23 24  1  0  0  0  0
 25 24  1  0  0  0  0
 25 27  1  0  0  0  0
 27 26  2  0  0  0  0
 29 32  1  1  0  0  0
 30 28  1  6  0  0  0
 30 29  1  0  0  0  0
 31 30  1  0  0  0  0
 31 29  1  0  0  0  0
 32 33  1  0  0  0  0
 34 36  1  0  0  0  0
 36 35  1  1  0  0  0
 36 37  1  0  0  0  0
 37 41  1  6  0  0  0
 37 40  1  0  0  0  0
 38 40  1  0  0  0  0
 40 39  1  6  0  0  0
 41 42  1  0  0  0  0
 43 42  1  0  0  0  0
 44 46  2  0  0  0  0
 45 46  1  0  0  0  0
 46 43  1  0  0  0  0
M  END
>  <MODEL>
6

>  <REMARK>
 VINA RESULT:      -4.2      4.527      9.342
  Name = 
  20 active torsions:
  status: ('A' for Active; 'I' for Inactive)
    1  A    between atoms: C_1  and  C_22
    2  A    between atoms: C_1  and  N_42
    3  A    between atoms: C_2  and  C_25
    4  A    between atoms: C_4  and  C_31
    5  A    between atoms: C_6  and  C_8
    6  A    between atoms: C_6  and  C_26
    7  A    between atoms: C_8  and  C_19
    8  A    between atoms: C_8  and  C_22
    9  A    between atoms: C_9  and  C_40
   10  A    between atoms: C_9  and  C_45
   11  A    between atoms: C_10  and  C_20
   12  A    between atoms: N_12  and  C_24
   13  A    between atoms: N_12  and  C_31
   14  A    between atoms: C_23  and  C_28
   15  A    between atoms: C_23  and  C_46
   16  A    between atoms: C_26  and  C_35
   17  A    between atoms: C_29  and  C_38
   18  A    between atoms: C_31  and  C_38
   19  A    between atoms: C_35  and  C_41
   20  A    between atoms: C_40  and  C_46
                            x       y       z     vdW  Elec       q    Type
                         _______ _______ _______ _____ _____    ______ ____

>  <TORSDO>
F 20

$$$$
=
 OpenBabel11072411083D

 46 50  0  0  1  0  0  0  0  0999 V2000
  161.9420  207.0330  152.3510 C   0  0  2  0  0  3  0  0  0  0  0  0
  161.6020  208.7620  149.1430 C   0  0  0  0  0  0  0  0  0  0  0  0
  161.6870  207.5020  148.7260 C   0  0  0  0  0  0  0  0  0  0  0  0
  161.9910  208.2480  153.2640 C   0  0  0  0  0  3  0  0  0  0  0  0
  162.5840  211.0410  149.2910 C   0  0  0  0  0  2  0  0  0  0  0  0
  161.9510  209.5150  152.7920 C   0  0  0  0  0  0  0  0  0  0  0  0
  161.9270  211.1200  150.6970 C   0  0  0  0  0  2  0  0  0  0  0  0
  162.1080  207.0840  147.3600 C   0  0  0  0  0  1  0  0  0  0  0  0
  161.4490  207.3910  151.0170 N   0  0  0  0  0  0  0  0  0  0  0  0
  162.0550  209.9380  148.4730 N   0  0  0  0  0  2  0  0  0  0  0  0
  161.4830  208.7280  150.5680 C   0  0  0  0  0  0  0  0  0  0  0  0
  161.5860  206.6120  149.8550 N   0  0  0  0  0  0  0  0  0  0  0  0
  161.7850  209.7580  151.3420 C   0  0  0  0  0  0  0  0  0  0  0  0
  161.1220  205.9320  152.9570 C   0  0  0  0  0  0  0  0  0  0  0  0
  160.0580  206.1980  153.7170 C   0  0  0  0  0  2  0  0  0  0  0  0
  161.5510  204.5170  152.7720 C   0  0  0  0  0  1  0  0  0  0  0  0
  162.0380  210.6340  153.6810 N   0  0  0  0  0  2  0  0  0  0  0  0
  160.9940  211.0190  154.6330 C   0  0  2  0  0  3  0  0  0  0  0  0
  160.0230  212.1040  154.1100 C   0  0  2  0  0  3  0  0  0  0  0  0
  158.7000  212.1310  154.8620 C   0  0  0  0  0  2  0  0  0  0  0  0
  158.7630  211.5220  153.4850 C   0  0  1  0  0  3  0  0  0  0  0  0
  158.2270  212.5030  152.4620 C   0  0  0  0  0  2  0  0  0  0  0  0
  157.4440  213.6030  153.1570 C   0  0  0  0  0  2  0  0  0  0  0  0
  156.5240  214.3090  152.1770 C   0  0  0  0  0  2  0  0  0  0  0  0
  156.9140  213.9560  150.7570 C   0  0  0  0  0  2  0  0  0  0  0  0
  154.5710  214.2360  150.1250 C   0  0  0  0  0  2  0  0  0  0  0  0
  155.8510  214.4020  149.8140 C   0  0  0  0  0  3  0  0  0  0  0  0
  161.5600  211.2560  156.0380 C   0  0  0  0  0  2  0  0  0  0  0  0
  161.2820  208.8120  156.3040 C   0  0  1  0  0  3  0  0  0  0  0  0
  161.1700  210.1500  157.0080 C   0  0  1  0  0  3  0  0  0  0  0  0
  162.3690  209.2650  157.2560 C   0  0  0  0  0  2  0  0  0  0  0  0
  160.3860  207.8190  157.0120 C   0  0  0  0  0  2  0  0  0  0  0  0
  159.0680  207.7110  156.2780 C   0  0  0  0  0  1  0  0  0  0  0  0
  162.0140  205.2210  149.8610 C   0  0  0  0  0  2  0  0  0  0  0  0
  159.9730  204.1660  150.5390 O   0  0  0  0  0  1  0  0  0  0  0  0
  160.8570  204.3080  149.4670 C   0  0  2  0  0  3  0  0  0  0  0  0
  161.3290  202.9280  148.9910 C   0  0  1  0  0  3  0  0  0  0  0  0
  159.6050  201.2540  149.0400 O   0  0  0  0  0  1  0  0  0  0  0  0
  161.5950  200.7740  150.0320 F   0  0  0  0  0  0  0  0  0  0  0  0
  160.6800  201.7780  149.7620 C   0  0  1  0  0  3  0  0  0  0  0  0
  161.1630  202.7410  147.4830 C   0  0  0  0  0  2  0  0  0  0  0  0
  161.3190  204.0610  146.7440 C   0  0  0  0  0  2  0  0  0  0  0  0
  161.2640  203.8560  145.2400 C   0  0  0  0  0  2  0  0  0  0  0  0
  161.5320  205.4130  143.4600 O   0  0  0  0  0  0  0  0  0  0  0  0
  160.0900  206.0850  145.1510 N   0  0  0  0  0  1  0  0  0  0  0  0
  160.9870  205.1520  144.5650 C   0  0  0  0  0  0  0  0  0  0  0  0
  1 14  1  1  0  0  0
  1  4  1  0  0  0  0
  2 11  1  0  0  0  0
  3  2  2  0  0  0  0
  3 12  1  0  0  0  0
  5  7  1  0  0  0  0
  6  4  2  0  0  0  0
  6 17  1  0  0  0  0
  7 13  1  0  0  0  0
  8  3  1  0  0  0  0
  9  1  1  0  0  0  0
 10  2  1  0  0  0  0
 10  5  1  0  0  0  0
 11  9  1  0  0  0  0
 11 13  2  0  0  0  0
 12 34  1  0  0  0  0
 12  9  1  0  0  0  0
 13  6  1  0  0  0  0
 14 15  2  0  0  0  0
 16 14  1  0  0  0  0
 17 18  1  0  0  0  0
 18 28  1  1  0  0  0
 19 18  1  1  0  0  0
 19 20  1  0  0  0  0
 21 22  1  6  0  0  0
 21 19  1  0  0  0  0
 21 20  1  0  0  0  0
 22 23  1  0  0  0  0
 24 23  1  0  0  0  0
 25 24  1  0  0  0  0
 27 26  2  0  0  0  0
 27 25  1  0  0  0  0
 29 30  1  0  0  0  0
 29 32  1  1  0  0  0
 29 31  1  0  0  0  0
 30 28  1  6  0  0  0
 30 31  1  0  0  0  0
 33 32  1  0  0  0  0
 36 34  1  0  0  0  0
 36 35  1  1  0  0  0
 37 41  1  6  0  0  0
 37 36  1  0  0  0  0
 37 40  1  0  0  0  0
 40 38  1  6  0  0  0
 40 39  1  0  0  0  0
 42 41  1  0  0  0  0
 43 42  1  0  0  0  0
 44 46  2  0  0  0  0
 46 45  1  0  0  0  0
 46 43  1  0  0  0  0
M  END
>  <MODEL>
7

>  <REMARK>
 VINA RESULT:      -4.1      3.227      5.753
  Name = 
  20 active torsions:
  status: ('A' for Active; 'I' for Inactive)
    1  A    between atoms: C_1  and  C_22
    2  A    between atoms: C_1  and  N_42
    3  A    between atoms: C_2  and  C_25
    4  A    between atoms: C_4  and  C_31
    5  A    between atoms: C_6  and  C_8
    6  A    between atoms: C_6  and  C_26
    7  A    between atoms: C_8  and  C_19
    8  A    between atoms: C_8  and  C_22
    9  A    between atoms: C_9  and  C_40
   10  A    between atoms: C_9  and  C_45
   11  A    between atoms: C_10  and  C_20
   12  A    between atoms: N_12  and  C_24
   13  A    between atoms: N_12  and  C_31
   14  A    between atoms: C_23  and  C_28
   15  A    between atoms: C_23  and  C_46
   16  A    between atoms: C_26  and  C_35
   17  A    between atoms: C_29  and  C_38
   18  A    between atoms: C_31  and  C_38
   19  A    between atoms: C_35  and  C_41
   20  A    between atoms: C_40  and  C_46
                            x       y       z     vdW  Elec       q    Type
                         _______ _______ _______ _____ _____    ______ ____

>  <TORSDO>
F 20

$$$$
=
 OpenBabel11072411083D

 46 50  0  0  1  0  0  0  0  0999 V2000
  161.0070  210.3080  152.0140 C   0  0  2  0  0  3  0  0  0  0  0  0
  160.9970  209.9950  155.6610 C   0  0  0  0  0  0  0  0  0  0  0  0
  161.5910  208.8540  155.3260 C   0  0  0  0  0  0  0  0  0  0  0  0
  160.2380  211.6130  151.8920 C   0  0  0  0  0  3  0  0  0  0  0  0
  159.0380  211.1900  156.6170 C   0  0  0  0  0  2  0  0  0  0  0  0
  159.7460  212.2710  152.9670 C   0  0  0  0  0  0  0  0  0  0  0  0
  159.3400  212.3040  155.5750 C   0  0  0  0  0  2  0  0  0  0  0  0
  161.6480  207.6390  156.1870 C   0  0  0  0  0  1  0  0  0  0  0  0
  161.4790  210.0960  153.3870 N   0  0  0  0  0  0  0  0  0  0  0  0
  160.1540  210.2460  156.7850 N   0  0  0  0  0  2  0  0  0  0  0  0
  160.8850  210.7780  154.4700 C   0  0  0  0  0  0  0  0  0  0  0  0
  161.9200  208.8730  153.9240 N   0  0  0  0  0  0  0  0  0  0  0  0
  160.0080  211.7580  154.3300 C   0  0  0  0  0  0  0  0  0  0  0  0
  162.1430  210.2530  151.0340 C   0  0  0  0  0  0  0  0  0  0  0  0
  161.9770  209.7500  149.8090 C   0  0  0  0  0  2  0  0  0  0  0  0
  163.4990  210.6950  151.4640 C   0  0  0  0  0  1  0  0  0  0  0  0
  158.9920  213.4790  152.8090 N   0  0  0  0  0  2  0  0  0  0  0  0
  157.6630  213.5500  152.1990 C   0  0  2  0  0  3  0  0  0  0  0  0
  157.6540  214.0970  150.7510 C   0  0  2  0  0  3  0  0  0  0  0  0
  156.3010  213.9560  150.0700 C   0  0  0  0  0  2  0  0  0  0  0  0
  157.4200  213.0130  149.7090 C   0  0  1  0  0  3  0  0  0  0  0  0
  158.0570  213.4450  148.4040 C   0  0  0  0  0  2  0  0  0  0  0  0
  157.0230  213.4310  147.2910 C   0  0  0  0  0  2  0  0  0  0  0  0
  157.5040  212.5920  146.1210 C   0  0  0  0  0  2  0  0  0  0  0  0
  158.7110  213.2440  145.4790 C   0  0  0  0  0  2  0  0  0  0  0  0
  160.5480  212.5520  144.0270 C   0  0  0  0  0  2  0  0  0  0  0  0
  159.3330  212.3090  144.5020 C   0  0  0  0  0  3  0  0  0  0  0  0
  156.6310  214.1700  153.1480 C   0  0  0  0  0  2  0  0  0  0  0  0
  155.9850  212.9210  155.1840 C   0  0  1  0  0  3  0  0  0  0  0  0
  155.6750  213.1300  153.7140 C   0  0  1  0  0  3  0  0  0  0  0  0
  154.8080  213.7790  154.7690 C   0  0  0  0  0  2  0  0  0  0  0  0
  155.4820  211.5520  155.5910 C   0  0  0  0  0  2  0  0  0  0  0  0
  155.2200  211.5300  157.0810 C   0  0  0  0  0  1  0  0  0  0  0  0
  162.2120  207.6960  153.1180 C   0  0  0  0  0  2  0  0  0  0  0  0
  160.1000  206.6050  153.4150 O   0  0  0  0  0  1  0  0  0  0  0  0
  160.9390  207.1780  152.4560 C   0  0  2  0  0  3  0  0  0  0  0  0
  161.2240  206.1660  151.3390 C   0  0  1  0  0  3  0  0  0  0  0  0
  160.1130  204.0390  151.1990 O   0  0  0  0  0  1  0  0  0  0  0  0
  162.3570  204.0550  151.5700 F   0  0  0  0  0  0  0  0  0  0  0  0
  161.1660  204.7150  151.8200 C   0  0  1  0  0  3  0  0  0  0  0  0
  160.3300  206.3760  150.1170 C   0  0  0  0  0  2  0  0  0  0  0  0
  160.9730  205.8110  148.8610 C   0  0  0  0  0  2  0  0  0  0  0  0
  160.8340  206.7740  147.6940 C   0  0  0  0  0  2  0  0  0  0  0  0
  162.2680  205.3970  146.3850 O   0  0  0  0  0  0  0  0  0  0  0  0
  160.3920  206.2020  145.2790 N   0  0  0  0  0  1  0  0  0  0  0  0
  161.2190  206.0930  146.4300 C   0  0  0  0  0  0  0  0  0  0  0  0
  1 14  1  6  0  0  0
  1  9  1  0  0  0  0
  2 10  1  0  0  0  0
  3  2  2  0  0  0  0
  3  8  1  0  0  0  0
  4  1  1  0  0  0  0
  4  6  2  0  0  0  0
  5 10  1  0  0  0  0
  6 13  1  0  0  0  0
  7  5  1  0  0  0  0
  9 12  1  0  0  0  0
  9 11  1  0  0  0  0
 11  2  1  0  0  0  0
 12  3  1  0  0  0  0
 13 11  2  0  0  0  0
 13  7  1  0  0  0  0
 14 16  1  0  0  0  0
 15 14  2  0  0  0  0
 17  6  1  0  0  0  0
 18 17  1  0  0  0  0
 18 28  1  1  0  0  0
 19 18  1  1  0  0  0
 20 19  1  0  0  0  0
 21 22  1  6  0  0  0
 21 20  1  0  0  0  0
 21 19  1  0  0  0  0
 23 22  1  0  0  0  0
 24 23  1  0  0  0  0
 25 24  1  0  0  0  0
 26 27  2  0  0  0  0
 27 25  1  0  0  0  0
 29 32  1  1  0  0  0
 30 28  1  6  0  0  0
 30 31  1  0  0  0  0
 30 29  1  0  0  0  0
 31 29  1  0  0  0  0
 32 33  1  0  0  0  0
 34 12  1  0  0  0  0
 36 34  1  0  0  0  0
 36 35  1  1  0  0  0
 37 41  1  6  0  0  0
 37 40  1  0  0  0  0
 37 36  1  0  0  0  0
 39 40  1  0  0  0  0
 40 38  1  6  0  0  0
 42 41  1  0  0  0  0
 43 42  1  0  0  0  0
 44 46  2  0  0  0  0
 45 46  1  0  0  0  0
 46 43  1  0  0  0  0
M  END
>  <MODEL>
8

>  <REMARK>
 VINA RESULT:      -4.0      2.706      4.604
  Name = 
  20 active torsions:
  status: ('A' for Active; 'I' for Inactive)
    1  A    between atoms: C_1  and  C_22
    2  A    between atoms: C_1  and  N_42
    3  A    between atoms: C_2  and  C_25
    4  A    between atoms: C_4  and  C_31
    5  A    between atoms: C_6  and  C_8
    6  A    between atoms: C_6  and  C_26
    7  A    between atoms: C_8  and  C_19
    8  A    between atoms: C_8  and  C_22
    9  A    between atoms: C_9  and  C_40
   10  A    between atoms: C_9  and  C_45
   11  A    between atoms: C_10  and  C_20
   12  A    between atoms: N_12  and  C_24
   13  A    between atoms: N_12  and  C_31
   14  A    between atoms: C_23  and  C_28
   15  A    between atoms: C_23  and  C_46
   16  A    between atoms: C_26  and  C_35
   17  A    between atoms: C_29  and  C_38
   18  A    between atoms: C_31  and  C_38
   19  A    between atoms: C_35  and  C_41
   20  A    between atoms: C_40  and  C_46
                            x       y       z     vdW  Elec       q    Type
                         _______ _______ _______ _____ _____    ______ ____

>  <TORSDO>
F 20

$$$$
=
 OpenBabel11072411083D

 46 50  0  0  1  0  0  0  0  0999 V2000
  161.1930  209.6340  151.2050 C   0  0  2  0  0  3  0  0  0  0  0  0
  161.2040  207.5810  154.2350 C   0  0  0  0  0  0  0  0  0  0  0  0
  161.7320  206.7250  153.3650 C   0  0  0  0  0  0  0  0  0  0  0  0
  160.4940  210.8640  151.7620 C   0  0  0  0  0  3  0  0  0  0  0  0
  159.3230  208.2380  155.7210 C   0  0  0  0  0  2  0  0  0  0  0  0
  160.0490  210.9330  153.0370 C   0  0  0  0  0  0  0  0  0  0  0  0
  159.6740  209.7050  155.3430 C   0  0  0  0  0  2  0  0  0  0  0  0
  161.7330  205.2430  153.5220 C   0  0  0  0  0  1  0  0  0  0  0  0
  161.6670  208.7590  152.2820 N   0  0  0  0  0  0  0  0  0  0  0  0
  160.3870  207.2860  155.3670 N   0  0  0  0  0  2  0  0  0  0  0  0
  161.1220  208.8500  153.5800 C   0  0  0  0  0  0  0  0  0  0  0  0
  162.0470  207.4130  152.1390 N   0  0  0  0  0  0  0  0  0  0  0  0
  160.2980  209.8100  153.9680 C   0  0  0  0  0  0  0  0  0  0  0  0
  162.3130  210.0180  150.2820 C   0  0  0  0  0  0  0  0  0  0  0  0
  163.3480  210.7430  150.7130 C   0  0  0  0  0  2  0  0  0  0  0  0
  162.2300  209.6500  148.8410 C   0  0  0  0  0  1  0  0  0  0  0  0
  159.3610  212.0950  153.5150 N   0  0  0  0  0  2  0  0  0  0  0  0
  158.1250  212.6220  152.9310 C   0  0  2  0  0  3  0  0  0  0  0  0
  158.3310  213.8340  151.9910 C   0  0  2  0  0  3  0  0  0  0  0  0
  157.0800  214.1950  151.2030 C   0  0  0  0  0  2  0  0  0  0  0  0
  158.2110  213.4710  150.5180 C   0  0  1  0  0  3  0  0  0  0  0  0
  159.0330  214.4490  149.7050 C   0  0  0  0  0  2  0  0  0  0  0  0
  158.5670  214.4430  148.2590 C   0  0  0  0  0  2  0  0  0  0  0  0
  159.7250  214.1510  147.3230 C   0  0  0  0  0  2  0  0  0  0  0  0
  161.0340  214.2280  148.0810 C   0  0  0  0  0  2  0  0  0  0  0  0
  163.1690  213.0590  147.8750 C   0  0  0  0  0  2  0  0  0  0  0  0
  162.1250  213.6150  147.2730 C   0  0  0  0  0  3  0  0  0  0  0  0
  157.0180  212.7750  153.9800 C   0  0  0  0  0  2  0  0  0  0  0  0
  157.9470  213.4950  156.1570 C   0  0  1  0  0  3  0  0  0  0  0  0
  157.4610  212.3030  155.3560 C   0  0  1  0  0  3  0  0  0  0  0  0
  156.5660  212.9240  156.4040 C   0  0  0  0  0  2  0  0  0  0  0  0
  158.8890  213.0010  157.2340 C   0  0  0  0  0  2  0  0  0  0  0  0
  160.2180  213.7120  157.1130 C   0  0  0  0  0  1  0  0  0  0  0  0
  162.2660  206.7680  150.8520 C   0  0  0  0  0  2  0  0  0  0  0  0
  160.0560  205.8940  151.1560 O   0  0  0  0  0  1  0  0  0  0  0  0
  160.9320  206.4170  150.2010 C   0  0  2  0  0  3  0  0  0  0  0  0
  161.0850  205.4320  149.0350 C   0  0  1  0  0  3  0  0  0  0  0  0
  160.5720  203.1940  148.3250 O   0  0  0  0  0  1  0  0  0  0  0  0
  161.9340  203.4620  150.1270 F   0  0  0  0  0  0  0  0  0  0  0  0
  160.8430  203.9790  149.4480 C   0  0  1  0  0  3  0  0  0  0  0  0
  160.2230  205.8110  147.8320 C   0  0  0  0  0  2  0  0  0  0  0  0
  161.0470  206.5120  146.7630 C   0  0  0  0  0  2  0  0  0  0  0  0
  160.9350  205.7970  145.4280 C   0  0  0  0  0  2  0  0  0  0  0  0
  161.2520  203.4800  144.9830 O   0  0  0  0  0  0  0  0  0  0  0  0
  163.0460  204.5440  146.0050 N   0  0  0  0  0  1  0  0  0  0  0  0
  161.7320  204.5430  145.4610 C   0  0  0  0  0  0  0  0  0  0  0  0
  1 14  1  1  0  0  0
  1  4  1  0  0  0  0
  1  9  1  0  0  0  0
  2 10  1  0  0  0  0
  3  8  1  0  0  0  0
  3  2  2  0  0  0  0
  4  6  2  0  0  0  0
  6 17  1  0  0  0  0
  6 13  1  0  0  0  0
  7  5  1  0  0  0  0
  9 11  1  0  0  0  0
 10  5  1  0  0  0  0
 11 13  2  0  0  0  0
 11  2  1  0  0  0  0
 12  9  1  0  0  0  0
 12  3  1  0  0  0  0
 13  7  1  0  0  0  0
 14 15  2  0  0  0  0
 16 14  1  0  0  0  0
 18 17  1  0  0  0  0
 18 28  1  1  0  0  0
 19 18  1  1  0  0  0
 20 19  1  0  0  0  0
 21 22  1  6  0  0  0
 21 20  1  0  0  0  0
 21 19  1  0  0  0  0
 23 22  1  0  0  0  0
 24 25  1  0  0  0  0
 24 23  1  0  0  0  0
 27 26  2  0  0  0  0
 27 25  1  0  0  0  0
 29 31  1  0  0  0  0
 29 32  1  1  0  0  0
 30 28  1  6  0  0  0
 30 29  1  0  0  0  0
 30 31  1  0  0  0  0
 33 32  1  0  0  0  0
 34 12  1  0  0  0  0
 36 34  1  0  0  0  0
 36 35  1  1  0  0  0
 37 41  1  6  0  0  0
 37 40  1  0  0  0  0
 37 36  1  0  0  0  0
 40 38  1  6  0  0  0
 40 39  1  0  0  0  0
 42 41  1  0  0  0  0
 43 46  1  0  0  0  0
 43 42  1  0  0  0  0
 44 46  2  0  0  0  0
 46 45  1  0  0  0  0
M  END
>  <MODEL>
9

>  <REMARK>
 VINA RESULT:      -4.0      2.659      4.288
  Name = 
  20 active torsions:
  status: ('A' for Active; 'I' for Inactive)
    1  A    between atoms: C_1  and  C_22
    2  A    between atoms: C_1  and  N_42
    3  A    between atoms: C_2  and  C_25
    4  A    between atoms: C_4  and  C_31
    5  A    between atoms: C_6  and  C_8
    6  A    between atoms: C_6  and  C_26
    7  A    between atoms: C_8  and  C_19
    8  A    between atoms: C_8  and  C_22
    9  A    between atoms: C_9  and  C_40
   10  A    between atoms: C_9  and  C_45
   11  A    between atoms: C_10  and  C_20
   12  A    between atoms: N_12  and  C_24
   13  A    between atoms: N_12  and  C_31
   14  A    between atoms: C_23  and  C_28
   15  A    between atoms: C_23  and  C_46
   16  A    between atoms: C_26  and  C_35
   17  A    between atoms: C_29  and  C_38
   18  A    between atoms: C_31  and  C_38
   19  A    between atoms: C_35  and  C_41
   20  A    between atoms: C_40  and  C_46
                            x       y       z     vdW  Elec       q    Type
                         _______ _______ _______ _____ _____    ______ ____

>  <TORSDO>
F 20

$$$$
