=
 OpenBabel11072413503D

 29 32  0  0  1  0  0  0  0  0999 V2000
  161.2040  207.5730  151.1660 O   0  0  0  0  0  1  0  0  0  0  0  0
  161.1630  204.0010  152.4250 S   0  0  0  0  0  0  0  0  0  0  0  0
  161.1390  205.6480  152.6550 C   0  0  0  0  0  0  0  0  0  0  0  0
  161.1680  205.5500  148.9580 N   0  0  0  0  0  2  0  0  0  0  0  0
  161.1840  205.2300  150.3530 C   0  0  0  0  0  0  0  0  0  0  0  0
  161.2030  203.9340  150.7630 N   0  0  0  0  0  0  0  0  0  0  0  0
  161.1680  206.2010  151.3870 C   0  0  0  0  0  0  0  0  0  0  0  0
  161.0490  206.3450  153.9060 C   0  0  0  0  0  0  0  0  0  0  0  0
  160.9690  206.9520  154.9450 C   0  0  0  0  0  0  0  0  0  0  0  0
  161.7590  208.9390  156.1200 C   0  0  0  0  0  2  0  0  0  0  0  0
  158.8300  212.3030  156.6410 S   0  0  0  0  0  0  0  0  0  0  0  0
  160.8820  210.0600  155.8360 N   0  0  1  0  0  0  0  0  0  0  0  0
  160.5390  212.4530  155.9830 C   0  0  0  0  0  2  0  0  0  0  0  0
  159.4540  208.2470  156.3350 C   0  0  0  0  0  2  0  0  0  0  0  0
  159.6710  209.7230  156.5530 C   0  0  2  0  0  3  0  0  0  0  0  0
  160.8660  207.7060  156.1960 C   0  0  1  0  0  3  0  0  0  0  0  0
  161.4120  211.2800  156.4250 C   0  0  0  0  0  2  0  0  0  0  0  0
  158.5330  210.5930  156.0600 C   0  0  0  0  0  2  0  0  0  0  0  0
  160.6940  206.8210  148.4280 C   0  0  1  0  0  3  0  0  0  0  0  0
  161.6410  209.1220  148.2010 O   0  0  0  0  0  1  0  0  0  0  0  0
  161.8470  207.7480  148.2510 C   0  0  0  0  0  0  0  0  0  0  0  0
  163.0100  207.2850  148.1380 O   0  0  0  0  0  0  0  0  0  0  0  0
  160.0680  206.6090  147.1960 O   0  0  0  0  0  0  0  0  0  0  0  0
  161.0690  206.1150  146.3550 C   0  0  0  0  0  2  0  0  0  0  0  0
  160.7180  204.2490  144.6070 C   0  0  2  0  0  3  0  0  0  0  0  0
  161.5580  205.3710  144.0280 C   0  0  0  0  0  2  0  0  0  0  0  0
  160.4580  205.7030  145.0190 C   0  0  2  0  0  3  0  0  0  0  0  0
  161.5530  203.4350  145.5870 C   0  0  0  0  0  2  0  0  0  0  0  0
  160.8720  202.2670  145.9280 O   0  0  0  0  0  1  0  0  0  0  0  0
  1  7  1  0  0  0  0
  2  3  1  0  0  0  0
  3  8  1  0  0  0  0
  4  5  1  0  0  0  0
  5  6  2  0  0  0  0
  5  7  1  0  0  0  0
  6  2  1  0  0  0  0
  7  3  2  0  0  0  0
  8  9  3  0  0  0  0
 10 16  1  0  0  0  0
 12 10  1  1  0  0  0
 12 17  1  0  0  0  0
 12 15  1  0  0  0  0
 13 17  1  0  0  0  0
 13 11  1  0  0  0  0
 14 15  1  0  0  0  0
 15 18  1  6  0  0  0
 16  9  1  6  0  0  0
 16 14  1  0  0  0  0
 18 11  1  0  0  0  0
 19 23  1  6  0  0  0
 19  4  1  0  0  0  0
 20 21  1  0  0  0  0
 21 19  1  0  0  0  0
 22 21  2  0  0  0  0
 24 23  1  0  0  0  0
 25 27  1  0  0  0  0
 25 28  1  1  0  0  0
 26 25  1  0  0  0  0
 26 27  1  0  0  0  0
 27 24  1  1  0  0  0
 28 29  1  0  0  0  0
M  END
>  <MODEL>
1

>  <REMARK>
 VINA RESULT:      -6.9      0.000      0.000
  Name = 
  8 active torsions:
  status: ('A' for Active; 'I' for Inactive)
    1  A    between atoms: C_3  and  C_14
    2  A    between atoms: C_4  and  C_9
    3  A    between atoms: O_6  and  C_20
    4  A    between atoms: O_6  and  C_22
    5  A    between atoms: C_13  and  C_22
    6  A    between atoms: N_15  and  C_22
    7  A    between atoms: C_17  and  C_26
    8  A    between atoms: C_20  and  C_21
                            x       y       z     vdW  Elec       q    Type
                         _______ _______ _______ _____ _____    ______ ____

>  <TORSDO>
F 8

$$$$
=
 OpenBabel11072413503D

 29 32  0  0  1  0  0  0  0  0999 V2000
  161.0010  208.1760  149.7680 O   0  0  0  0  0  1  0  0  0  0  0  0
  161.4730  206.6770  153.2140 S   0  0  0  0  0  0  0  0  0  0  0  0
  161.0720  207.9230  152.1880 C   0  0  0  0  0  0  0  0  0  0  0  0
  161.7690  205.2820  149.6950 N   0  0  0  0  0  2  0  0  0  0  0  0
  161.6050  206.0490  150.8920 C   0  0  0  0  0  0  0  0  0  0  0  0
  161.8170  205.4820  152.1080 N   0  0  0  0  0  0  0  0  0  0  0  0
  161.2090  207.4110  150.9100 C   0  0  0  0  0  0  0  0  0  0  0  0
  160.6230  209.2360  152.5550 C   0  0  0  0  0  0  0  0  0  0  0  0
  160.2690  210.3450  152.8690 C   0  0  0  0  0  0  0  0  0  0  0  0
  158.3490  211.8360  153.0910 C   0  0  0  0  0  2  0  0  0  0  0  0
  157.0030  212.8240  157.2600 S   0  0  0  0  0  0  0  0  0  0  0  0
  157.7840  211.7150  154.4220 N   0  0  1  0  0  0  0  0  0  0  0  0
  155.9300  212.2330  155.8910 C   0  0  0  0  0  2  0  0  0  0  0  0
  160.1180  211.8910  154.7370 C   0  0  0  0  0  2  0  0  0  0  0  0
  158.7800  212.3450  155.2630 C   0  0  2  0  0  3  0  0  0  0  0  0
  159.8590  211.6960  153.2530 C   0  0  1  0  0  3  0  0  0  0  0  0
  156.5650  212.5010  154.5270 C   0  0  0  0  0  2  0  0  0  0  0  0
  158.5270  211.9730  156.7100 C   0  0  0  0  0  2  0  0  0  0  0  0
  161.1450  205.6270  148.4250 C   0  0  1  0  0  3  0  0  0  0  0  0
  162.2290  205.8450  146.1840 O   0  0  0  0  0  0  0  0  0  0  0  0
  162.1610  206.2310  147.5170 C   0  0  0  0  0  0  0  0  0  0  0  0
  162.9650  207.0890  147.9630 O   0  0  0  0  0  1  0  0  0  0  0  0
  160.6150  204.4740  147.8360 O   0  0  0  0  0  0  0  0  0  0  0  0
  161.3440  203.4140  148.3820 C   0  0  0  0  0  2  0  0  0  0  0  0
  160.4770  201.4600  149.8280 C   0  0  2  0  0  3  0  0  0  0  0  0
  161.3150  200.9400  148.6760 C   0  0  0  0  0  2  0  0  0  0  0  0
  160.4590  202.1760  148.4710 C   0  0  2  0  0  3  0  0  0  0  0  0
  161.3820  202.0870  150.8800 C   0  0  0  0  0  2  0  0  0  0  0  0
  160.6100  202.5760  151.9320 O   0  0  0  0  0  1  0  0  0  0  0  0
  1  7  1  0  0  0  0
  3  8  1  0  0  0  0
  3  2  1  0  0  0  0
  4  5  1  0  0  0  0
  5  7  1  0  0  0  0
  5  6  2  0  0  0  0
  6  2  1  0  0  0  0
  7  3  2  0  0  0  0
  8  9  3  0  0  0  0
 10 16  1  0  0  0  0
 12 10  1  6  0  0  0
 12 17  1  0  0  0  0
 12 15  1  0  0  0  0
 13 11  1  0  0  0  0
 15 14  1  6  0  0  0
 15 18  1  0  0  0  0
 16  9  1  1  0  0  0
 16 14  1  0  0  0  0
 17 13  1  0  0  0  0
 18 11  1  0  0  0  0
 19 21  1  6  0  0  0
 19  4  1  0  0  0  0
 20 21  2  0  0  0  0
 21 22  1  0  0  0  0
 23 24  1  0  0  0  0
 23 19  1  0  0  0  0
 25 28  1  1  0  0  0
 26 25  1  0  0  0  0
 27 24  1  1  0  0  0
 27 26  1  0  0  0  0
 27 25  1  0  0  0  0
 28 29  1  0  0  0  0
M  END
>  <MODEL>
2

>  <REMARK>
 VINA RESULT:      -6.9      2.696      3.737
  Name = 
  8 active torsions:
  status: ('A' for Active; 'I' for Inactive)
    1  A    between atoms: C_3  and  C_14
    2  A    between atoms: C_4  and  C_9
    3  A    between atoms: O_6  and  C_20
    4  A    between atoms: O_6  and  C_22
    5  A    between atoms: C_13  and  C_22
    6  A    between atoms: N_15  and  C_22
    7  A    between atoms: C_17  and  C_26
    8  A    between atoms: C_20  and  C_21
                            x       y       z     vdW  Elec       q    Type
                         _______ _______ _______ _____ _____    ______ ____

>  <TORSDO>
F 8

$$$$
=
 OpenBabel11072413503D

 29 32  0  0  1  0  0  0  0  0999 V2000
  161.1100  208.7170  151.2910 O   0  0  0  0  0  1  0  0  0  0  0  0
  161.2900  205.7660  153.6600 S   0  0  0  0  0  0  0  0  0  0  0  0
  161.1120  207.3870  153.3300 C   0  0  0  0  0  0  0  0  0  0  0  0
  161.3890  206.0920  149.8780 N   0  0  0  0  0  2  0  0  0  0  0  0
  161.3410  206.2480  151.2990 C   0  0  0  0  0  0  0  0  0  0  0  0
  161.4440  205.1660  152.1150 N   0  0  0  0  0  0  0  0  0  0  0  0
  161.1760  207.4960  151.9520 C   0  0  0  0  0  0  0  0  0  0  0  0
  160.8820  208.4410  154.2760 C   0  0  0  0  0  0  0  0  0  0  0  0
  160.7040  209.3410  155.0590 C   0  0  0  0  0  0  0  0  0  0  0  0
  160.5220  211.7680  155.2370 C   0  0  0  0  0  2  0  0  0  0  0  0
  156.4460  213.4530  156.0880 S   0  0  0  0  0  0  0  0  0  0  0  0
  159.1360  212.1710  155.0810 N   0  0  1  0  0  0  0  0  0  0  0  0
  157.5810  213.9970  154.7500 C   0  0  0  0  0  2  0  0  0  0  0  0
  159.1030  210.3490  156.5840 C   0  0  0  0  0  2  0  0  0  0  0  0
  158.5170  211.7100  156.3070 C   0  0  2  0  0  3  0  0  0  0  0  0
  160.5000  210.4460  155.9970 C   0  0  1  0  0  3  0  0  0  0  0  0
  159.0300  213.6210  155.0570 C   0  0  0  0  0  2  0  0  0  0  0  0
  157.0110  211.7130  156.1440 C   0  0  0  0  0  2  0  0  0  0  0  0
  160.8440  207.0660  148.9410 C   0  0  1  0  0  3  0  0  0  0  0  0
  161.6210  209.3120  148.1680 O   0  0  0  0  0  0  0  0  0  0  0  0
  161.9230  207.9980  148.5070 C   0  0  0  0  0  0  0  0  0  0  0  0
  163.1110  207.5920  148.4410 O   0  0  0  0  0  1  0  0  0  0  0  0
  160.3220  206.4010  147.8270 O   0  0  0  0  0  0  0  0  0  0  0  0
  161.2340  205.3800  147.5470 C   0  0  0  0  0  2  0  0  0  0  0  0
  161.7720  204.2230  145.3030 C   0  0  2  0  0  3  0  0  0  0  0  0
  163.0380  204.7560  145.9460 C   0  0  0  0  0  2  0  0  0  0  0  0
  161.7400  205.5240  146.1160 C   0  0  2  0  0  3  0  0  0  0  0  0
  161.3010  202.9810  146.0490 C   0  0  0  0  0  2  0  0  0  0  0  0
  160.5320  202.1870  145.1990 O   0  0  0  0  0  1  0  0  0  0  0  0
  1  7  1  0  0  0  0
  3  2  1  0  0  0  0
  3  8  1  0  0  0  0
  4  5  1  0  0  0  0
  5  7  1  0  0  0  0
  5  6  2  0  0  0  0
  6  2  1  0  0  0  0
  7  3  2  0  0  0  0
  8  9  3  0  0  0  0
 10 16  1  0  0  0  0
 11 18  1  0  0  0  0
 12 17  1  1  0  0  0
 12 10  1  0  0  0  0
 12 15  1  0  0  0  0
 13 17  1  0  0  0  0
 13 11  1  0  0  0  0
 15 18  1  6  0  0  0
 15 14  1  0  0  0  0
 16  9  1  6  0  0  0
 16 14  1  0  0  0  0
 19 23  1  6  0  0  0
 19  4  1  0  0  0  0
 20 21  2  0  0  0  0
 21 19  1  0  0  0  0
 22 21  1  0  0  0  0
 24 23  1  0  0  0  0
 25 26  1  0  0  0  0
 25 28  1  1  0  0  0
 25 27  1  0  0  0  0
 26 27  1  0  0  0  0
 27 24  1  1  0  0  0
 29 28  1  0  0  0  0
M  END
>  <MODEL>
3

>  <REMARK>
 VINA RESULT:      -6.8      1.551      2.000
  Name = 
  8 active torsions:
  status: ('A' for Active; 'I' for Inactive)
    1  A    between atoms: C_3  and  C_14
    2  A    between atoms: C_4  and  C_9
    3  A    between atoms: O_6  and  C_20
    4  A    between atoms: O_6  and  C_22
    5  A    between atoms: C_13  and  C_22
    6  A    between atoms: N_15  and  C_22
    7  A    between atoms: C_17  and  C_26
    8  A    between atoms: C_20  and  C_21
                            x       y       z     vdW  Elec       q    Type
                         _______ _______ _______ _____ _____    ______ ____

>  <TORSDO>
F 8

$$$$
=
 OpenBabel11072413503D

 29 32  0  0  1  0  0  0  0  0999 V2000
  160.8190  208.8150  151.0980 O   0  0  0  0  0  1  0  0  0  0  0  0
  161.2100  207.0000  154.4000 S   0  0  0  0  0  0  0  0  0  0  0  0
  160.8260  208.3350  153.4850 C   0  0  0  0  0  0  0  0  0  0  0  0
  161.6140  205.9460  150.7750 N   0  0  0  0  0  2  0  0  0  0  0  0
  161.4110  206.5950  152.0330 C   0  0  0  0  0  0  0  0  0  0  0  0
  161.5950  205.9170  153.1960 N   0  0  0  0  0  0  0  0  0  0  0  0
  161.0020  207.9460  152.1680 C   0  0  0  0  0  0  0  0  0  0  0  0
  160.3550  209.6040  153.9620 C   0  0  0  0  0  0  0  0  0  0  0  0
  159.9770  210.6810  154.3510 C   0  0  0  0  0  0  0  0  0  0  0  0
  159.3840  212.9310  153.6160 C   0  0  0  0  0  2  0  0  0  0  0  0
  155.0410  214.0600  153.7960 S   0  0  0  0  0  0  0  0  0  0  0  0
  157.9630  212.9960  153.3270 N   0  0  1  0  0  0  0  0  0  0  0  0
  156.1510  214.2680  152.3480 C   0  0  0  0  0  2  0  0  0  0  0  0
  158.1390  211.8760  155.3980 C   0  0  0  0  0  2  0  0  0  0  0  0
  157.3550  212.9140  154.6380 C   0  0  2  0  0  3  0  0  0  0  0  0
  159.5350  211.9970  154.8130 C   0  0  1  0  0  3  0  0  0  0  0  0
  157.6200  214.2940  152.7670 C   0  0  0  0  0  2  0  0  0  0  0  0
  155.8820  212.5900  154.4910 C   0  0  0  0  0  2  0  0  0  0  0  0
  161.0220  206.4050  149.5260 C   0  0  1  0  0  3  0  0  0  0  0  0
  162.0440  206.8230  147.2840 O   0  0  0  0  0  0  0  0  0  0  0  0
  162.0800  207.0010  148.6610 C   0  0  0  0  0  0  0  0  0  0  0  0
  163.0140  207.6620  149.1830 O   0  0  0  0  0  1  0  0  0  0  0  0
  160.4300  205.3240  148.8640 O   0  0  0  0  0  0  0  0  0  0  0  0
  161.2350  204.2230  149.1650 C   0  0  0  0  0  2  0  0  0  0  0  0
  160.5160  201.9860  150.2340 C   0  0  2  0  0  3  0  0  0  0  0  0
  161.3430  201.7400  148.9870 C   0  0  0  0  0  2  0  0  0  0  0  0
  160.4180  202.9410  149.0380 C   0  0  2  0  0  3  0  0  0  0  0  0
  161.4220  202.4550  151.3660 C   0  0  0  0  0  2  0  0  0  0  0  0
  160.6450  202.9160  152.4280 O   0  0  0  0  0  1  0  0  0  0  0  0
  1  7  1  0  0  0  0
  3  8  1  0  0  0  0
  3  2  1  0  0  0  0
  4  5  1  0  0  0  0
  5  7  1  0  0  0  0
  5  6  2  0  0  0  0
  6  2  1  0  0  0  0
  7  3  2  0  0  0  0
  8  9  3  0  0  0  0
 10 16  1  0  0  0  0
 11 18  1  0  0  0  0
 12 17  1  1  0  0  0
 12 10  1  0  0  0  0
 12 15  1  0  0  0  0
 13 17  1  0  0  0  0
 13 11  1  0  0  0  0
 15 18  1  6  0  0  0
 15 14  1  0  0  0  0
 16  9  1  6  0  0  0
 16 14  1  0  0  0  0
 19 21  1  6  0  0  0
 19  4  1  0  0  0  0
 20 21  2  0  0  0  0
 21 22  1  0  0  0  0
 23 24  1  0  0  0  0
 23 19  1  0  0  0  0
 25 28  1  1  0  0  0
 26 27  1  0  0  0  0
 26 25  1  0  0  0  0
 27 24  1  1  0  0  0
 27 25  1  0  0  0  0
 28 29  1  0  0  0  0
M  END
>  <MODEL>
4

>  <REMARK>
 VINA RESULT:      -6.8      3.020      4.121
  Name = 
  8 active torsions:
  status: ('A' for Active; 'I' for Inactive)
    1  A    between atoms: C_3  and  C_14
    2  A    between atoms: C_4  and  C_9
    3  A    between atoms: O_6  and  C_20
    4  A    between atoms: O_6  and  C_22
    5  A    between atoms: C_13  and  C_22
    6  A    between atoms: N_15  and  C_22
    7  A    between atoms: C_17  and  C_26
    8  A    between atoms: C_20  and  C_21
                            x       y       z     vdW  Elec       q    Type
                         _______ _______ _______ _____ _____    ______ ____

>  <TORSDO>
F 8

$$$$
=
 OpenBabel11072413503D

 29 32  0  0  1  0  0  0  0  0999 V2000
  162.4080  207.4250  150.3290 O   0  0  0  0  0  1  0  0  0  0  0  0
  160.8390  209.4710  153.1040 S   0  0  0  0  0  0  0  0  0  0  0  0
  161.5330  209.3070  151.6020 C   0  0  0  0  0  0  0  0  0  0  0  0
  161.4740  205.7570  152.6340 N   0  0  0  0  0  2  0  0  0  0  0  0
  161.3660  207.1820  152.5660 C   0  0  0  0  0  0  0  0  0  0  0  0
  160.8270  207.8820  153.5990 N   0  0  0  0  0  0  0  0  0  0  0  0
  161.7840  207.9540  151.4530 C   0  0  0  0  0  0  0  0  0  0  0  0
  161.7680  210.3460  150.6400 C   0  0  0  0  0  0  0  0  0  0  0  0
  161.9440  211.2270  149.8360 C   0  0  0  0  0  0  0  0  0  0  0  0
  161.8240  211.7870  147.4630 C   0  0  0  0  0  2  0  0  0  0  0  0
  158.4530  214.4530  146.1620 S   0  0  0  0  0  0  0  0  0  0  0  0
  160.4940  212.2690  147.1380 N   0  0  1  0  0  0  0  0  0  0  0  0
  158.9220  212.8530  145.3920 C   0  0  0  0  0  2  0  0  0  0  0  0
  161.1100  213.3950  149.1200 C   0  0  0  0  0  2  0  0  0  0  0  0
  160.4470  213.5670  147.7780 C   0  0  2  0  0  3  0  0  0  0  0  0
  162.1360  212.3040  148.8640 C   0  0  1  0  0  3  0  0  0  0  0  0
  160.3710  212.4840  145.7050 C   0  0  0  0  0  2  0  0  0  0  0  0
  159.0100  214.0390  147.8560 C   0  0  0  0  0  2  0  0  0  0  0  0
  161.5910  204.9010  151.4610 C   0  0  1  0  0  3  0  0  0  0  0  0
  162.3820  202.5370  151.6330 O   0  0  0  0  0  0  0  0  0  0  0  0
  161.3860  203.4790  151.8590 C   0  0  0  0  0  0  0  0  0  0  0  0
  160.3040  203.1300  152.3950 O   0  0  0  0  0  1  0  0  0  0  0  0
  160.6270  205.2680  150.5170 O   0  0  0  0  0  0  0  0  0  0  0  0
  160.9860  204.5970  149.3440 C   0  0  0  0  0  2  0  0  0  0  0  0
  161.1210  204.8980  146.7850 C   0  0  2  0  0  3  0  0  0  0  0  0
  162.1790  205.7350  147.4770 C   0  0  0  0  0  2  0  0  0  0  0  0
  160.8350  205.5340  148.1510 C   0  0  2  0  0  3  0  0  0  0  0  0
  161.5220  203.4290  146.8240 C   0  0  0  0  0  2  0  0  0  0  0  0
  161.2120  202.8250  145.6060 O   0  0  0  0  0  1  0  0  0  0  0  0
  1  7  1  0  0  0  0
  2  6  1  0  0  0  0
  3  2  1  0  0  0  0
  5  4  1  0  0  0  0
  5  6  2  0  0  0  0
  7  3  2  0  0  0  0
  7  5  1  0  0  0  0
  8  3  1  0  0  0  0
  9  8  3  0  0  0  0
 10 16  1  0  0  0  0
 11 18  1  0  0  0  0
 12 17  1  6  0  0  0
 12 10  1  0  0  0  0
 12 15  1  0  0  0  0
 13 17  1  0  0  0  0
 13 11  1  0  0  0  0
 15 18  1  1  0  0  0
 15 14  1  0  0  0  0
 16 14  1  0  0  0  0
 16  9  1  1  0  0  0
 19 23  1  6  0  0  0
 19 21  1  0  0  0  0
 19  4  1  0  0  0  0
 20 21  2  0  0  0  0
 21 22  1  0  0  0  0
 24 23  1  0  0  0  0
 25 28  1  1  0  0  0
 25 26  1  0  0  0  0
 25 27  1  0  0  0  0
 26 27  1  0  0  0  0
 27 24  1  1  0  0  0
 29 28  1  0  0  0  0
M  END
>  <MODEL>
5

>  <REMARK>
 VINA RESULT:      -6.4      4.356      6.452
  Name = 
  8 active torsions:
  status: ('A' for Active; 'I' for Inactive)
    1  A    between atoms: C_3  and  C_14
    2  A    between atoms: C_4  and  C_9
    3  A    between atoms: O_6  and  C_20
    4  A    between atoms: O_6  and  C_22
    5  A    between atoms: C_13  and  C_22
    6  A    between atoms: N_15  and  C_22
    7  A    between atoms: C_17  and  C_26
    8  A    between atoms: C_20  and  C_21
                            x       y       z     vdW  Elec       q    Type
                         _______ _______ _______ _____ _____    ______ ____

>  <TORSDO>
F 8

$$$$
=
 OpenBabel11072413503D

 29 32  0  0  1  0  0  0  0  0999 V2000
  162.2230  208.2830  148.7770 O   0  0  0  0  0  1  0  0  0  0  0  0
  161.6060  209.9430  152.1260 S   0  0  0  0  0  0  0  0  0  0  0  0
  161.8790  209.9830  150.4850 C   0  0  0  0  0  0  0  0  0  0  0  0
  161.7500  206.3220  150.9910 N   0  0  0  0  0  2  0  0  0  0  0  0
  161.7620  207.7440  151.1540 C   0  0  0  0  0  0  0  0  0  0  0  0
  161.5710  208.2990  152.3800 N   0  0  0  0  0  0  0  0  0  0  0  0
  161.9560  208.6590  150.0880 C   0  0  0  0  0  0  0  0  0  0  0  0
  161.9600  211.1470  149.6500 C   0  0  0  0  0  0  0  0  0  0  0  0
  162.0160  212.1380  148.9650 C   0  0  0  0  0  0  0  0  0  0  0  0
  162.7030  213.0270  146.7980 C   0  0  0  0  0  2  0  0  0  0  0  0
  159.4400  214.1140  143.9110 S   0  0  0  0  0  0  0  0  0  0  0  0
  161.6060  212.9210  145.8530 N   0  0  1  0  0  0  0  0  0  0  0  0
  160.9030  213.0680  143.5410 C   0  0  0  0  0  2  0  0  0  0  0  0
  160.6590  213.8030  147.8290 C   0  0  0  0  0  2  0  0  0  0  0  0
  160.6650  213.9150  146.3260 C   0  0  2  0  0  3  0  0  0  0  0  0
  162.0740  213.3520  148.1490 C   0  0  1  0  0  3  0  0  0  0  0  0
  162.0410  213.3280  144.5260 C   0  0  0  0  0  2  0  0  0  0  0  0
  159.3140  213.6760  145.6830 C   0  0  0  0  0  2  0  0  0  0  0  0
  161.4850  205.6590  149.7220 C   0  0  1  0  0  3  0  0  0  0  0  0
  161.5180  203.2080  149.2340 O   0  0  0  0  0  0  0  0  0  0  0  0
  161.0110  204.2690  149.9750 C   0  0  0  0  0  0  0  0  0  0  0  0
  160.1440  204.0560  150.8600 O   0  0  0  0  0  1  0  0  0  0  0  0
  160.5060  206.3680  149.0190 O   0  0  0  0  0  0  0  0  0  0  0  0
  160.4910  205.8050  147.7400 C   0  0  0  0  0  2  0  0  0  0  0  0
  161.8930  205.8310  145.5720 C   0  0  2  0  0  3  0  0  0  0  0  0
  162.2710  204.6450  146.4380 C   0  0  0  0  0  2  0  0  0  0  0  0
  161.8690  205.9490  147.1020 C   0  0  2  0  0  3  0  0  0  0  0  0
  160.5390  205.5800  144.9200 C   0  0  0  0  0  2  0  0  0  0  0  0
  160.4560  204.2510  144.5080 O   0  0  0  0  0  1  0  0  0  0  0  0
  1  7  1  0  0  0  0
  2  6  1  0  0  0  0
  3  2  1  0  0  0  0
  4  5  1  0  0  0  0
  5  6  2  0  0  0  0
  7  3  2  0  0  0  0
  7  5  1  0  0  0  0
  8  3  1  0  0  0  0
  9  8  3  0  0  0  0
 10 16  1  0  0  0  0
 11 18  1  0  0  0  0
 12 17  1  6  0  0  0
 12 15  1  0  0  0  0
 12 10  1  0  0  0  0
 13 11  1  0  0  0  0
 13 17  1  0  0  0  0
 14 16  1  0  0  0  0
 15 18  1  6  0  0  0
 15 14  1  0  0  0  0
 16  9  1  1  0  0  0
 19 23  1  1  0  0  0
 19 21  1  0  0  0  0
 19  4  1  0  0  0  0
 20 21  2  0  0  0  0
 21 22  1  0  0  0  0
 24 23  1  0  0  0  0
 25 28  1  1  0  0  0
 25 26  1  0  0  0  0
 25 27  1  0  0  0  0
 26 27  1  0  0  0  0
 27 24  1  1  0  0  0
 29 28  1  0  0  0  0
M  END
>  <MODEL>
6

>  <REMARK>
 VINA RESULT:      -6.1      4.800      7.087
  Name = 
  8 active torsions:
  status: ('A' for Active; 'I' for Inactive)
    1  A    between atoms: C_3  and  C_14
    2  A    between atoms: C_4  and  C_9
    3  A    between atoms: O_6  and  C_20
    4  A    between atoms: O_6  and  C_22
    5  A    between atoms: C_13  and  C_22
    6  A    between atoms: N_15  and  C_22
    7  A    between atoms: C_17  and  C_26
    8  A    between atoms: C_20  and  C_21
                            x       y       z     vdW  Elec       q    Type
                         _______ _______ _______ _____ _____    ______ ____

>  <TORSDO>
F 8

$$$$
=
 OpenBabel11072413503D

 29 32  0  0  1  0  0  0  0  0999 V2000
  161.4290  208.0380  147.8230 O   0  0  0  0  0  1  0  0  0  0  0  0
  162.3370  209.2450  151.2970 S   0  0  0  0  0  0  0  0  0  0  0  0
  161.9490  209.4990  149.7000 C   0  0  0  0  0  0  0  0  0  0  0  0
  161.6720  205.8140  149.8130 N   0  0  0  0  0  2  0  0  0  0  0  0
  161.8860  207.1970  150.1110 C   0  0  0  0  0  0  0  0  0  0  0  0
  162.2440  207.5850  151.3630 N   0  0  0  0  0  0  0  0  0  0  0  0
  161.7350  208.2410  149.1640 C   0  0  0  0  0  0  0  0  0  0  0  0
  161.8090  210.7630  149.0340 C   0  0  0  0  0  0  0  0  0  0  0  0
  161.7160  211.8280  148.4760 C   0  0  0  0  0  0  0  0  0  0  0  0
  162.7090  213.2150  146.7300 C   0  0  0  0  0  2  0  0  0  0  0  0
  160.3300  213.7680  142.9620 S   0  0  0  0  0  0  0  0  0  0  0  0
  162.0550  212.9520  145.4610 N   0  0  1  0  0  0  0  0  0  0  0  0
  162.0920  213.2610  143.0600 C   0  0  0  0  0  2  0  0  0  0  0  0
  160.3120  213.1920  147.0360 C   0  0  0  0  0  2  0  0  0  0  0  0
  160.7450  213.5430  145.6360 C   0  0  2  0  0  3  0  0  0  0  0  0
  161.6240  213.1220  147.7980 C   0  0  1  0  0  3  0  0  0  0  0  0
  162.7210  213.6750  144.3900 C   0  0  0  0  0  2  0  0  0  0  0  0
  159.8130  213.0320  144.5560 C   0  0  0  0  0  2  0  0  0  0  0  0
  160.8690  205.3450  148.6930 C   0  0  1  0  0  3  0  0  0  0  0  0
  161.1680  205.2200  146.2150 O   0  0  0  0  0  0  0  0  0  0  0  0
  161.7310  205.2050  147.4850 C   0  0  0  0  0  0  0  0  0  0  0  0
  162.9740  205.0660  147.6170 O   0  0  0  0  0  1  0  0  0  0  0  0
  160.3010  204.1070  149.0100 O   0  0  0  0  0  0  0  0  0  0  0  0
  161.2090  203.4980  149.8800 C   0  0  0  0  0  2  0  0  0  0  0  0
  160.9010  201.0150  149.2450 C   0  0  2  0  0  3  0  0  0  0  0  0
  159.5570  201.7060  149.3610 C   0  0  0  0  0  2  0  0  0  0  0  0
  160.6870  202.1230  150.2840 C   0  0  2  0  0  3  0  0  0  0  0  0
  161.5950  201.4540  147.9610 C   0  0  0  0  0  2  0  0  0  0  0  0
  160.7040  201.3660  146.8930 O   0  0  0  0  0  1  0  0  0  0  0  0
  1  7  1  0  0  0  0
  2  6  1  0  0  0  0
  3  2  1  0  0  0  0
  4  5  1  0  0  0  0
  5  6  2  0  0  0  0
  7  3  2  0  0  0  0
  7  5  1  0  0  0  0
  8  3  1  0  0  0  0
  9  8  3  0  0  0  0
 10 16  1  0  0  0  0
 11 13  1  0  0  0  0
 11 18  1  0  0  0  0
 12 17  1  6  0  0  0
 12 15  1  0  0  0  0
 12 10  1  0  0  0  0
 13 17  1  0  0  0  0
 14 16  1  0  0  0  0
 15 18  1  6  0  0  0
 15 14  1  0  0  0  0
 16  9  1  6  0  0  0
 19 21  1  6  0  0  0
 19 23  1  0  0  0  0
 19  4  1  0  0  0  0
 20 21  2  0  0  0  0
 21 22  1  0  0  0  0
 23 24  1  0  0  0  0
 25 28  1  6  0  0  0
 25 26  1  0  0  0  0
 25 27  1  0  0  0  0
 26 27  1  0  0  0  0
 27 24  1  6  0  0  0
 29 28  1  0  0  0  0
M  END
>  <MODEL>
7

>  <REMARK>
 VINA RESULT:      -5.9      4.939      7.482
  Name = 
  8 active torsions:
  status: ('A' for Active; 'I' for Inactive)
    1  A    between atoms: C_3  and  C_14
    2  A    between atoms: C_4  and  C_9
    3  A    between atoms: O_6  and  C_20
    4  A    between atoms: O_6  and  C_22
    5  A    between atoms: C_13  and  C_22
    6  A    between atoms: N_15  and  C_22
    7  A    between atoms: C_17  and  C_26
    8  A    between atoms: C_20  and  C_21
                            x       y       z     vdW  Elec       q    Type
                         _______ _______ _______ _____ _____    ______ ____

>  <TORSDO>
F 8

$$$$
=
 OpenBabel11072413503D

 29 32  0  0  1  0  0  0  0  0999 V2000
  161.0200  209.1480  151.4840 O   0  0  0  0  0  1  0  0  0  0  0  0
  160.0850  210.2060  154.9990 S   0  0  0  0  0  0  0  0  0  0  0  0
  160.2370  210.4800  153.3650 C   0  0  0  0  0  0  0  0  0  0  0  0
  161.3400  206.9520  153.4950 N   0  0  0  0  0  2  0  0  0  0  0  0
  160.8960  208.2780  153.8030 C   0  0  0  0  0  0  0  0  0  0  0  0
  160.6040  208.6260  155.0830 N   0  0  0  0  0  0  0  0  0  0  0  0
  160.7190  209.2970  152.8330 C   0  0  0  0  0  0  0  0  0  0  0  0
  159.8860  211.6750  152.6520 C   0  0  0  0  0  0  0  0  0  0  0  0
  159.5680  212.6720  152.0550 C   0  0  0  0  0  0  0  0  0  0  0  0
  160.0900  214.0940  150.1410 C   0  0  0  0  0  2  0  0  0  0  0  0
  157.2660  213.9390  146.6520 S   0  0  0  0  0  0  0  0  0  0  0  0
  159.3680  213.6290  148.9710 N   0  0  1  0  0  0  0  0  0  0  0  0
  159.0940  213.7730  146.5690 C   0  0  0  0  0  2  0  0  0  0  0  0
  157.7870  213.6520  150.7240 C   0  0  0  0  0  2  0  0  0  0  0  0
  157.9950  213.9790  149.2680 C   0  0  2  0  0  3  0  0  0  0  0  0
  159.1610  213.8780  151.3310 C   0  0  1  0  0  3  0  0  0  0  0  0
  159.7670  214.3870  147.7960 C   0  0  0  0  0  2  0  0  0  0  0  0
  157.0700  213.2320  148.3290 C   0  0  0  0  0  2  0  0  0  0  0  0
  161.2350  206.3540  152.1710 C   0  0  1  0  0  3  0  0  0  0  0  0
  162.6840  207.2090  150.3230 O   0  0  0  0  0  0  0  0  0  0  0  0
  162.5510  206.4460  151.4770 C   0  0  0  0  0  0  0  0  0  0  0  0
  163.5430  205.8250  151.9350 O   0  0  0  0  0  1  0  0  0  0  0  0
  160.8610  205.0120  152.2920 O   0  0  0  0  0  0  0  0  0  0  0  0
  160.3840  204.6480  151.0300 C   0  0  0  0  0  2  0  0  0  0  0  0
  161.4870  203.3940  149.0620 C   0  0  2  0  0  3  0  0  0  0  0  0
  160.2540  202.6530  149.5430 C   0  0  0  0  0  2  0  0  0  0  0  0
  161.1120  203.3970  150.5500 C   0  0  2  0  0  3  0  0  0  0  0  0
  161.0700  204.6360  148.2850 C   0  0  0  0  0  2  0  0  0  0  0  0
  161.5280  204.5440  146.9720 O   0  0  0  0  0  1  0  0  0  0  0  0
  1  7  1  0  0  0  0
  2  6  1  0  0  0  0
  3  2  1  0  0  0  0
  4  5  1  0  0  0  0
  5  6  2  0  0  0  0
  7  3  2  0  0  0  0
  7  5  1  0  0  0  0
  8  3  1  0  0  0  0
  9  8  3  0  0  0  0
 10 16  1  0  0  0  0
 11 18  1  0  0  0  0
 12 17  1  6  0  0  0
 12 15  1  0  0  0  0
 12 10  1  0  0  0  0
 13 11  1  0  0  0  0
 13 17  1  0  0  0  0
 14 16  1  0  0  0  0
 15 18  1  6  0  0  0
 15 14  1  0  0  0  0
 16  9  1  6  0  0  0
 19 21  1  1  0  0  0
 19 23  1  0  0  0  0
 19  4  1  0  0  0  0
 20 21  2  0  0  0  0
 21 22  1  0  0  0  0
 24 23  1  0  0  0  0
 25 28  1  6  0  0  0
 25 26  1  0  0  0  0
 25 27  1  0  0  0  0
 26 27  1  0  0  0  0
 27 24  1  6  0  0  0
 29 28  1  0  0  0  0
M  END
>  <MODEL>
8

>  <REMARK>
 VINA RESULT:      -5.8      4.554      6.288
  Name = 
  8 active torsions:
  status: ('A' for Active; 'I' for Inactive)
    1  A    between atoms: C_3  and  C_14
    2  A    between atoms: C_4  and  C_9
    3  A    between atoms: O_6  and  C_20
    4  A    between atoms: O_6  and  C_22
    5  A    between atoms: C_13  and  C_22
    6  A    between atoms: N_15  and  C_22
    7  A    between atoms: C_17  and  C_26
    8  A    between atoms: C_20  and  C_21
                            x       y       z     vdW  Elec       q    Type
                         _______ _______ _______ _____ _____    ______ ____

>  <TORSDO>
F 8

$$$$
=
 OpenBabel11072413503D

 29 32  0  0  1  0  0  0  0  0999 V2000
  160.5180  207.4090  153.9490 O   0  0  0  0  0  1  0  0  0  0  0  0
  162.2820  209.8730  151.6760 S   0  0  0  0  0  0  0  0  0  0  0  0
  161.4710  208.4490  151.9660 C   0  0  0  0  0  0  0  0  0  0  0  0
  161.3620  209.9120  155.3600 N   0  0  0  0  0  2  0  0  0  0  0  0
  161.6000  209.6400  153.9760 C   0  0  0  0  0  0  0  0  0  0  0  0
  162.2680  210.5370  153.2020 N   0  0  0  0  0  0  0  0  0  0  0  0
  161.1650  208.4640  153.3150 C   0  0  0  0  0  0  0  0  0  0  0  0
  161.1150  207.4460  151.0030 C   0  0  0  0  0  0  0  0  0  0  0  0
  160.7990  206.5960  150.2090 C   0  0  0  0  0  0  0  0  0  0  0  0
  160.0300  206.2030  147.9260 C   0  0  0  0  0  2  0  0  0  0  0  0
  162.9520  204.3190  145.0830 S   0  0  0  0  0  0  0  0  0  0  0  0
  161.1700  206.0070  147.0500 N   0  0  1  0  0  0  0  0  0  0  0  0
  161.9680  205.8380  144.7700 C   0  0  0  0  0  2  0  0  0  0  0  0
  161.5960  204.6750  148.9520 C   0  0  0  0  0  2  0  0  0  0  0  0
  161.6750  204.7100  147.4480 C   0  0  2  0  0  3  0  0  0  0  0  0
  160.3980  205.5580  149.2580 C   0  0  1  0  0  3  0  0  0  0  0  0
  160.7320  205.9000  145.6670 C   0  0  0  0  0  2  0  0  0  0  0  0
  163.0740  204.5230  146.8980 C   0  0  0  0  0  2  0  0  0  0  0  0
  160.3040  209.2790  156.1350 C   0  0  1  0  0  3  0  0  0  0  0  0
  160.0330  207.0570  157.2470 O   0  0  0  0  0  1  0  0  0  0  0  0
  160.8590  208.1110  156.8760 C   0  0  0  0  0  0  0  0  0  0  0  0
  162.0810  208.0820  157.1720 O   0  0  0  0  0  0  0  0  0  0  0  0
  159.7740  210.2010  157.0430 O   0  0  0  0  0  0  0  0  0  0  0  0
  159.3500  211.2820  156.2650 C   0  0  0  0  0  2  0  0  0  0  0  0
  157.6600  211.4460  154.3210 C   0  0  2  0  0  3  0  0  0  0  0  0
  157.2480  212.3530  155.4640 C   0  0  0  0  0  2  0  0  0  0  0  0
  157.9280  211.0320  155.7740 C   0  0  2  0  0  3  0  0  0  0  0  0
  158.8500  212.0520  153.5880 C   0  0  0  0  0  2  0  0  0  0  0  0
  158.9720  211.4690  152.3280 O   0  0  0  0  0  1  0  0  0  0  0  0
  2  3  1  0  0  0  0
  2  6  1  0  0  0  0
  3  7  2  0  0  0  0
  5  4  1  0  0  0  0
  6  5  2  0  0  0  0
  7  1  1  0  0  0  0
  7  5  1  0  0  0  0
  8  3  1  0  0  0  0
  9  8  3  0  0  0  0
 10 16  1  0  0  0  0
 11 18  1  0  0  0  0
 12 17  1  6  0  0  0
 12 15  1  0  0  0  0
 12 10  1  0  0  0  0
 13 11  1  0  0  0  0
 13 17  1  0  0  0  0
 14 16  1  0  0  0  0
 15 18  1  1  0  0  0
 15 14  1  0  0  0  0
 16  9  1  1  0  0  0
 19  4  1  1  0  0  0
 19 21  1  0  0  0  0
 19 23  1  0  0  0  0
 21 22  2  0  0  0  0
 21 20  1  0  0  0  0
 24 23  1  0  0  0  0
 25 28  1  6  0  0  0
 25 26  1  0  0  0  0
 25 27  1  0  0  0  0
 26 27  1  0  0  0  0
 27 24  1  6  0  0  0
 29 28  1  0  0  0  0
M  END
>  <MODEL>
9

>  <REMARK>
 VINA RESULT:      -5.8      3.557      9.555
  Name = 
  8 active torsions:
  status: ('A' for Active; 'I' for Inactive)
    1  A    between atoms: C_3  and  C_14
    2  A    between atoms: C_4  and  C_9
    3  A    between atoms: O_6  and  C_20
    4  A    between atoms: O_6  and  C_22
    5  A    between atoms: C_13  and  C_22
    6  A    between atoms: N_15  and  C_22
    7  A    between atoms: C_17  and  C_26
    8  A    between atoms: C_20  and  C_21
                            x       y       z     vdW  Elec       q    Type
                         _______ _______ _______ _____ _____    ______ ____

>  <TORSDO>
F 8

$$$$
