=
 OpenBabel11072414113D

 28 32  0  0  1  0  0  0  0  0999 V2000
  159.7010  213.0780  152.0120 C   0  0  2  0  0  3  0  0  0  0  0  0
  157.5570  214.4350  150.5230 C   0  0  0  0  0  2  0  0  0  0  0  0
  161.1540  207.9800  154.8600 C   0  0  0  0  0  0  0  0  0  0  0  0
  159.7060  211.1610  153.1120 C   0  0  2  0  0  3  0  0  0  0  0  0
  161.2160  209.4340  152.1480 C   0  0  0  0  0  3  0  0  0  0  0  0
  159.1340  214.4530  155.5460 O   0  0  0  0  0  0  0  0  0  0  0  0
  158.1490  212.8810  154.0330 C   0  0  1  0  0  3  0  0  0  0  0  0
  160.7700  212.0210  155.9890 O   0  0  0  0  0  1  0  0  0  0  0  0
  160.1090  209.6930  153.1260 C   0  0  1  0  0  3  0  0  0  0  0  0
  158.4230  211.3780  153.9270 C   0  0  2  0  0  3  0  0  0  0  0  0
  161.5640  208.1880  151.8470 C   0  0  0  0  0  0  0  0  0  0  0  0
  160.8720  207.0440  152.5260 C   0  0  1  0  0  3  0  0  0  0  0  0
  158.7060  213.7460  149.8010 C   0  0  0  0  0  2  0  0  0  0  0  0
  159.5500  211.6920  151.8260 O   0  0  0  0  0  0  0  0  0  0  0  0
  160.5130  209.3410  154.5770 C   0  0  1  0  0  3  0  0  0  0  0  0
  156.1460  214.4000  152.4930 N   0  0  0  0  0  1  0  0  0  0  0  0
  158.9330  213.2900  155.2360 C   0  0  0  0  0  0  0  0  0  0  0  0
  159.3260  209.5680  155.5260 C   0  0  0  0  0  2  0  0  0  0  0  0
  161.1910  205.8370  151.9030 O   0  0  0  0  0  1  0  0  0  0  0  0
  158.4750  213.6760  152.7470 C   0  0  2  0  0  3  0  0  0  0  0  0
  159.3800  212.1350  156.0670 C   0  0  1  0  0  3  0  0  0  0  0  0
  162.5930  207.9610  150.9400 O   0  0  0  0  0  1  0  0  0  0  0  0
  159.9550  213.7740  150.6750 C   0  0  0  0  0  2  0  0  0  0  0  0
  157.2420  213.7140  151.8290 C   0  0  2  0  0  3  0  0  0  0  0  0
  161.2820  206.9900  153.9630 C   0  0  0  0  0  3  0  0  0  0  0  0
  158.6820  210.9570  155.3750 C   0  0  1  0  0  3  0  0  0  0  0  0
  162.2550  208.7210  156.9590 C   0  0  0  0  0  1  0  0  0  0  0  0
  161.6820  207.7180  156.1300 O   0  0  0  0  0  0  0  0  0  0  0  0
  1 23  1  6  0  0  0
  1 20  1  0  0  0  0
  2 24  1  0  0  0  0
  3 28  1  0  0  0  0
  4 14  1  6  0  0  0
  4  9  1  0  0  0  0
  4 10  1  0  0  0  0
  7 17  1  1  0  0  0
  8 21  1  0  0  0  0
  9  5  1  6  0  0  0
  9 15  1  0  0  0  0
 10  7  1  0  0  0  0
 10 26  1  0  0  0  0
 11  5  2  0  0  0  0
 11 12  1  0  0  0  0
 12 25  1  0  0  0  0
 13  2  1  0  0  0  0
 13 23  1  0  0  0  0
 14  1  1  0  0  0  0
 15  3  1  0  0  0  0
 15 18  1  0  0  0  0
 17  6  2  0  0  0  0
 17 21  1  0  0  0  0
 19 12  1  0  0  0  0
 20  7  1  0  0  0  0
 22 11  1  0  0  0  0
 24 16  1  0  0  0  0
 24 20  1  0  0  0  0
 25  3  2  0  0  0  0
 26 18  1  0  0  0  0
 26 21  1  0  0  0  0
 28 27  1  0  0  0  0
M  END
>  <MODEL>
1

>  <REMARK>
 VINA RESULT:      -6.7      0.000      0.000
  Name = 
  1 active torsions:
  status: ('A' for Active; 'I' for Inactive)
    1  A    between atoms: C_3  and  O_18
                            x       y       z     vdW  Elec       q    Type
                         _______ _______ _______ _____ _____    ______ ____

>  <TORSDO>
F 1

$$$$
=
 OpenBabel11072414113D

 28 32  0  0  1  0  0  0  0  0999 V2000
  162.3360  208.3630  150.7550 C   0  0  2  0  0  3  0  0  0  0  0  0
  161.0530  210.8350  151.7010 C   0  0  0  0  0  2  0  0  0  0  0  0
  161.3250  203.1450  147.9330 C   0  0  0  0  0  0  0  0  0  0  0  0
  161.4670  206.5220  149.8930 C   0  0  2  0  0  3  0  0  0  0  0  0
  162.1240  206.0900  147.5320 C   0  0  0  0  0  3  0  0  0  0  0  0
  162.2670  206.2270  153.9380 O   0  0  0  0  0  0  0  0  0  0  0  0
  160.7650  207.0000  152.2410 C   0  0  1  0  0  3  0  0  0  0  0  0
  162.6740  204.2480  151.7690 O   0  0  0  0  0  1  0  0  0  0  0  0
  161.1960  205.6970  148.6430 C   0  0  1  0  0  3  0  0  0  0  0  0
  160.3690  206.2930  150.9420 C   0  0  2  0  0  3  0  0  0  0  0  0
  161.9130  205.6490  146.2970 C   0  0  0  0  0  0  0  0  0  0  0  0
  160.7670  204.7190  146.0320 C   0  0  1  0  0  3  0  0  0  0  0  0
  161.8220  210.7970  150.3880 C   0  0  0  0  0  2  0  0  0  0  0  0
  161.6100  207.8930  149.6450 O   0  0  0  0  0  0  0  0  0  0  0  0
  161.3460  204.2080  149.0340 C   0  0  1  0  0  3  0  0  0  0  0  0
  159.6820  209.5550  153.2350 N   0  0  0  0  0  1  0  0  0  0  0  0
  161.5970  205.9810  152.9470 C   0  0  0  0  0  0  0  0  0  0  0  0
  160.3340  203.8450  150.1310 C   0  0  0  0  0  2  0  0  0  0  0  0
  160.5600  204.5740  144.6590 O   0  0  0  0  0  1  0  0  0  0  0  0
  161.4580  208.3680  152.0310 C   0  0  2  0  0  3  0  0  0  0  0  0
  161.4660  204.6120  152.3710 C   0  0  1  0  0  3  0  0  0  0  0  0
  162.7810  206.0200  145.2770 O   0  0  0  0  0  1  0  0  0  0  0  0
  162.9230  209.7440  150.4660 C   0  0  0  0  0  2  0  0  0  0  0  0
  160.4020  209.4840  151.9750 C   0  0  2  0  0  3  0  0  0  0  0  0
  161.0520  203.3830  146.6410 C   0  0  0  0  0  3  0  0  0  0  0  0
  160.3590  204.8120  151.3280 C   0  0  1  0  0  3  0  0  0  0  0  0
  161.2270  200.7110  147.4570 C   0  0  0  0  0  1  0  0  0  0  0  0
  161.6330  201.8170  148.2510 O   0  0  0  0  0  0  0  0  0  0  0  0
  1 23  1  6  0  0  0
  1 20  1  0  0  0  0
  2 24  1  0  0  0  0
  3 28  1  0  0  0  0
  3 15  1  0  0  0  0
  4 14  1  6  0  0  0
  4 10  1  0  0  0  0
  7 17  1  6  0  0  0
  8 21  1  0  0  0  0
  9  5  1  6  0  0  0
  9 15  1  0  0  0  0
  9  4  1  0  0  0  0
 10 26  1  0  0  0  0
 10  7  1  0  0  0  0
 11  5  2  0  0  0  0
 12 11  1  0  0  0  0
 12 25  1  0  0  0  0
 13 23  1  0  0  0  0
 13  2  1  0  0  0  0
 14  1  1  0  0  0  0
 15 18  1  0  0  0  0
 17  6  2  0  0  0  0
 18 26  1  0  0  0  0
 19 12  1  0  0  0  0
 20  7  1  0  0  0  0
 21 17  1  0  0  0  0
 22 11  1  0  0  0  0
 24 20  1  0  0  0  0
 24 16  1  0  0  0  0
 25  3  2  0  0  0  0
 26 21  1  0  0  0  0
 27 28  1  0  0  0  0
M  END
>  <MODEL>
2

>  <REMARK>
 VINA RESULT:      -6.6      4.314      7.224
  Name = 
  1 active torsions:
  status: ('A' for Active; 'I' for Inactive)
    1  A    between atoms: C_3  and  O_18
                            x       y       z     vdW  Elec       q    Type
                         _______ _______ _______ _____ _____    ______ ____

>  <TORSDO>
F 1

$$$$
=
 OpenBabel11072414113D

 28 32  0  0  1  0  0  0  0  0999 V2000
  161.9010  203.7200  150.4580 C   0  0  2  0  0  3  0  0  0  0  0  0
  160.2350  201.3280  150.0550 C   0  0  0  0  0  2  0  0  0  0  0  0
  161.7660  209.7260  150.7920 C   0  0  0  0  0  0  0  0  0  0  0  0
  161.4100  205.8680  150.2880 C   0  0  2  0  0  3  0  0  0  0  0  0
  161.5740  207.1260  152.4280 C   0  0  0  0  0  3  0  0  0  0  0  0
  163.2110  204.3180  146.9050 O   0  0  0  0  0  0  0  0  0  0  0  0
  161.1890  204.5810  148.1590 C   0  0  1  0  0  3  0  0  0  0  0  0
  163.6280  206.9220  148.2590 O   0  0  0  0  0  1  0  0  0  0  0  0
  161.0920  207.1710  151.0090 C   0  0  1  0  0  3  0  0  0  0  0  0
  160.7090  205.8200  148.9230 C   0  0  2  0  0  3  0  0  0  0  0  0
  161.2060  208.0690  153.2890 C   0  0  0  0  0  0  0  0  0  0  0  0
  160.3420  209.2010  152.8180 C   0  0  1  0  0  3  0  0  0  0  0  0
  160.6430  201.7800  151.4500 C   0  0  0  0  0  2  0  0  0  0  0  0
  161.0930  204.7210  151.0270 O   0  0  0  0  0  0  0  0  0  0  0  0
  161.7490  208.3150  150.2010 C   0  0  1  0  0  3  0  0  0  0  0  0
  159.6960  202.0640  147.8090 N   0  0  0  0  0  1  0  0  0  0  0  0
  162.4200  205.0610  147.4650 C   0  0  0  0  0  0  0  0  0  0  0  0
  161.1770  208.3520  148.7760 C   0  0  0  0  0  2  0  0  0  0  0  0
  159.8620  209.9360  153.9030 O   0  0  0  0  0  1  0  0  0  0  0  0
  161.3920  203.3310  149.0470 C   0  0  2  0  0  3  0  0  0  0  0  0
  162.5490  206.5470  147.4540 C   0  0  1  0  0  3  0  0  0  0  0  0
  161.6600  208.0180  154.6010 O   0  0  0  0  0  1  0  0  0  0  0  0
  161.9820  202.5070  151.3850 C   0  0  0  0  0  2  0  0  0  0  0  0
  160.0810  202.5320  149.1310 C   0  0  2  0  0  3  0  0  0  0  0  0
  161.1340  210.0950  151.9170 C   0  0  0  0  0  3  0  0  0  0  0  0
  161.2140  206.9850  148.0680 C   0  0  1  0  0  3  0  0  0  0  0  0
  161.9560  211.6090  149.1860 C   0  0  0  0  0  1  0  0  0  0  0  0
  162.5070  210.7310  150.1580 O   0  0  0  0  0  0  0  0  0  0  0  0
  1 14  1  0  0  0  0
  1 23  1  1  0  0  0
  2 13  1  0  0  0  0
  3 25  2  0  0  0  0
  4  9  1  0  0  0  0
  4 14  1  1  0  0  0
  5 11  2  0  0  0  0
  6 17  2  0  0  0  0
  7 17  1  1  0  0  0
  7 10  1  0  0  0  0
  7 20  1  0  0  0  0
  9  5  1  1  0  0  0
 10  4  1  0  0  0  0
 11 22  1  0  0  0  0
 12 11  1  0  0  0  0
 12 19  1  0  0  0  0
 15  3  1  0  0  0  0
 15  9  1  0  0  0  0
 16 24  1  0  0  0  0
 18 15  1  0  0  0  0
 20 24  1  0  0  0  0
 20  1  1  0  0  0  0
 21 17  1  0  0  0  0
 21 26  1  0  0  0  0
 21  8  1  0  0  0  0
 23 13  1  0  0  0  0
 24  2  1  0  0  0  0
 25 12  1  0  0  0  0
 26 18  1  0  0  0  0
 26 10  1  0  0  0  0
 27 28  1  0  0  0  0
 28  3  1  0  0  0  0
M  END
>  <MODEL>
3

>  <REMARK>
 VINA RESULT:      -5.4      4.464      8.817
  Name = 
  1 active torsions:
  status: ('A' for Active; 'I' for Inactive)
    1  A    between atoms: C_3  and  O_18
                            x       y       z     vdW  Elec       q    Type
                         _______ _______ _______ _____ _____    ______ ____

>  <TORSDO>
F 1

$$$$
=
 OpenBabel11072414113D

 28 32  0  0  1  0  0  0  0  0999 V2000
  160.4160  206.0300  148.4880 C   0  0  2  0  0  3  0  0  0  0  0  0
  161.9490  205.6570  146.0040 C   0  0  0  0  0  2  0  0  0  0  0  0
  160.9120  207.2800  154.3540 C   0  0  0  0  0  0  0  0  0  0  0  0
  161.0910  206.2970  150.5760 C   0  0  2  0  0  3  0  0  0  0  0  0
  160.5200  208.5100  151.5600 C   0  0  0  0  0  3  0  0  0  0  0  0
  160.0300  202.4040  149.6730 O   0  0  0  0  0  0  0  0  0  0  0  0
  161.7130  204.1040  149.5560 C   0  0  1  0  0  3  0  0  0  0  0  0
  159.4990  204.0050  152.1110 O   0  0  0  0  0  1  0  0  0  0  0  0
  161.3250  207.2570  151.7340 C   0  0  1  0  0  3  0  0  0  0  0  0
  162.0890  205.1310  150.6290 C   0  0  2  0  0  3  0  0  0  0  0  0
  160.7430  209.5620  152.3400 C   0  0  0  0  0  0  0  0  0  0  0  0
  161.7750  209.4700  153.4250 C   0  0  1  0  0  3  0  0  0  0  0  0
  161.2570  206.9770  146.3150 C   0  0  0  0  0  2  0  0  0  0  0  0
  161.1380  206.9080  149.3170 O   0  0  0  0  0  0  0  0  0  0  0  0
  160.9640  206.5030  153.0350 C   0  0  1  0  0  3  0  0  0  0  0  0
  163.0550  203.7240  146.9600 N   0  0  0  0  0  1  0  0  0  0  0  0
  160.7190  203.2320  150.2500 C   0  0  0  0  0  0  0  0  0  0  0  0
  161.8580  205.2630  153.1940 C   0  0  0  0  0  2  0  0  0  0  0  0
  162.0390  210.7320  153.9590 O   0  0  0  0  0  1  0  0  0  0  0  0
  161.2140  204.7270  148.2310 C   0  0  2  0  0  3  0  0  0  0  0  0
  160.7070  203.4140  151.7300 C   0  0  1  0  0  3  0  0  0  0  0  0
  159.9890  210.7170  152.1690 O   0  0  0  0  0  1  0  0  0  0  0  0
  160.0290  206.7240  147.1820 C   0  0  0  0  0  2  0  0  0  0  0  0
  162.4050  204.9810  147.2930 C   0  0  2  0  0  3  0  0  0  0  0  0
  161.2870  208.5590  154.5060 C   0  0  0  0  0  3  0  0  0  0  0  0
  161.8880  204.3700  151.9410 C   0  0  1  0  0  3  0  0  0  0  0  0
  160.1370  207.3480  156.7110 C   0  0  0  0  0  1  0  0  0  0  0  0
  160.4190  206.6530  155.5040 O   0  0  0  0  0  0  0  0  0  0  0  0
  1 23  1  6  0  0  0
  1 14  1  0  0  0  0
  2 13  1  0  0  0  0
  2 24  1  0  0  0  0
  3 25  2  0  0  0  0
  3 28  1  0  0  0  0
  4 14  1  6  0  0  0
  4 10  1  0  0  0  0
  4  9  1  0  0  0  0
  5 11  2  0  0  0  0
  6 17  2  0  0  0  0
  7 17  1  1  0  0  0
  7 10  1  0  0  0  0
  9  5  1  6  0  0  0
  9 15  1  0  0  0  0
 10 26  1  0  0  0  0
 11 12  1  0  0  0  0
 12 19  1  0  0  0  0
 12 25  1  0  0  0  0
 13 23  1  0  0  0  0
 15 18  1  0  0  0  0
 15  3  1  0  0  0  0
 16 24  1  0  0  0  0
 17 21  1  0  0  0  0
 20  1  1  0  0  0  0
 20  7  1  0  0  0  0
 21 26  1  0  0  0  0
 21  8  1  0  0  0  0
 22 11  1  0  0  0  0
 24 20  1  0  0  0  0
 26 18  1  0  0  0  0
 28 27  1  0  0  0  0
M  END
>  <MODEL>
4

>  <REMARK>
 VINA RESULT:      -5.3      4.242      7.652
  Name = 
  1 active torsions:
  status: ('A' for Active; 'I' for Inactive)
    1  A    between atoms: C_3  and  O_18
                            x       y       z     vdW  Elec       q    Type
                         _______ _______ _______ _____ _____    ______ ____

>  <TORSDO>
F 1

$$$$
=
 OpenBabel11072414113D

 28 32  0  0  1  0  0  0  0  0999 V2000
  156.4870  210.2390  137.6910 C   0  0  2  0  0  3  0  0  0  0  0  0
  153.7820  209.5810  138.6420 C   0  0  0  0  0  2  0  0  0  0  0  0
  162.1840  211.0540  139.4500 C   0  0  0  0  0  0  0  0  0  0  0  0
  158.3510  210.6470  138.8060 C   0  0  2  0  0  3  0  0  0  0  0  0
  160.1570  208.9780  138.4250 C   0  0  0  0  0  3  0  0  0  0  0  0
  156.3450  214.0710  137.6460 O   0  0  0  0  0  0  0  0  0  0  0  0
  156.5110  212.2810  139.2280 C   0  0  1  0  0  3  0  0  0  0  0  0
  159.2480  213.4720  137.6370 O   0  0  0  0  0  1  0  0  0  0  0  0
  159.7050  210.1290  139.2730 C   0  0  1  0  0  3  0  0  0  0  0  0
  157.7820  211.6570  139.8130 C   0  0  2  0  0  3  0  0  0  0  0  0
  161.2010  208.2440  138.7950 C   0  0  0  0  0  0  0  0  0  0  0  0
  161.9500  208.6050  140.0430 C   0  0  1  0  0  3  0  0  0  0  0  0
  154.6770  208.5230  138.0110 C   0  0  0  0  0  2  0  0  0  0  0  0
  157.4130  209.6370  138.5620 O   0  0  0  0  0  0  0  0  0  0  0  0
  160.6930  211.3180  139.2230 C   0  0  1  0  0  3  0  0  0  0  0  0
  153.7390  211.6080  139.9690 N   0  0  0  0  0  1  0  0  0  0  0  0
  157.0290  213.4310  138.4290 C   0  0  0  0  0  0  0  0  0  0  0  0
  160.2150  212.4440  140.1530 C   0  0  0  0  0  2  0  0  0  0  0  0
  162.8370  207.5870  140.3950 O   0  0  0  0  0  1  0  0  0  0  0  0
  155.6260  211.2900  138.4360 C   0  0  2  0  0  3  0  0  0  0  0  0
  158.4470  213.7740  138.7410 C   0  0  1  0  0  3  0  0  0  0  0  0
  161.6100  207.1800  138.0010 O   0  0  0  0  0  1  0  0  0  0  0  0
  155.6230  209.1780  137.0110 C   0  0  0  0  0  2  0  0  0  0  0  0
  154.6230  210.6130  139.3850 C   0  0  2  0  0  3  0  0  0  0  0  0
  162.7070  209.8760  139.8240 C   0  0  0  0  0  3  0  0  0  0  0  0
  158.7460  212.8410  139.9220 C   0  0  1  0  0  3  0  0  0  0  0  0
  163.2090  212.7980  138.0100 C   0  0  0  0  0  1  0  0  0  0  0  0
  163.1070  212.0850  139.2350 O   0  0  0  0  0  0  0  0  0  0  0  0
  1 23  1  1  0  0  0
  1 20  1  0  0  0  0
  1 14  1  0  0  0  0
  2 24  1  0  0  0  0
  3 25  2  0  0  0  0
  4 14  1  1  0  0  0
  4  9  1  0  0  0  0
  4 10  1  0  0  0  0
  5 11  2  0  0  0  0
  6 17  2  0  0  0  0
  7 17  1  6  0  0  0
  7 10  1  0  0  0  0
  8 21  1  0  0  0  0
  9  5  1  6  0  0  0
 10 26  1  0  0  0  0
 11 12  1  0  0  0  0
 12 19  1  0  0  0  0
 13  2  1  0  0  0  0
 15  9  1  0  0  0  0
 15  3  1  0  0  0  0
 15 18  1  0  0  0  0
 17 21  1  0  0  0  0
 20  7  1  0  0  0  0
 20 24  1  0  0  0  0
 21 26  1  0  0  0  0
 22 11  1  0  0  0  0
 23 13  1  0  0  0  0
 24 16  1  0  0  0  0
 25 12  1  0  0  0  0
 26 18  1  0  0  0  0
 27 28  1  0  0  0  0
 28  3  1  0  0  0  0
M  END
>  <MODEL>
5

>  <REMARK>
 VINA RESULT:      -5.0     13.659     15.039
  Name = 
  1 active torsions:
  status: ('A' for Active; 'I' for Inactive)
    1  A    between atoms: C_3  and  O_18
                            x       y       z     vdW  Elec       q    Type
                         _______ _______ _______ _____ _____    ______ ____

>  <TORSDO>
F 1

$$$$
=
 OpenBabel11072414113D

 28 32  0  0  1  0  0  0  0  0999 V2000
  160.1420  209.9010  139.0800 C   0  0  2  0  0  3  0  0  0  0  0  0
  162.3410  209.4840  137.1700 C   0  0  0  0  0  2  0  0  0  0  0  0
  154.6490  212.2770  139.7110 C   0  0  0  0  0  0  0  0  0  0  0  0
  158.2810  211.0810  138.9050 C   0  0  2  0  0  3  0  0  0  0  0  0
  156.1990  209.7210  138.9760 C   0  0  0  0  0  3  0  0  0  0  0  0
  161.3160  213.0770  140.8790 O   0  0  0  0  0  0  0  0  0  0  0  0
  160.3800  212.4280  138.7740 C   0  0  1  0  0  3  0  0  0  0  0  0
  158.4140  212.9600  141.4740 O   0  0  0  0  0  1  0  0  0  0  0  0
  156.7760  211.0730  138.6800 C   0  0  1  0  0  3  0  0  0  0  0  0
  158.9010  212.3820  138.3750 C   0  0  2  0  0  3  0  0  0  0  0  0
  154.9450  209.4390  138.6360 C   0  0  0  0  0  0  0  0  0  0  0  0
  154.1000  210.5000  137.9950 C   0  0  1  0  0  3  0  0  0  0  0  0
  161.3300  208.3840  137.4630 C   0  0  0  0  0  2  0  0  0  0  0  0
  158.9410  209.9780  138.3510 O   0  0  0  0  0  0  0  0  0  0  0  0
  156.1710  212.1790  139.5770 C   0  0  1  0  0  3  0  0  0  0  0  0
  162.6770  211.8780  137.0110 N   0  0  0  0  0  1  0  0  0  0  0  0
  160.3500  213.0430  140.1330 C   0  0  0  0  0  0  0  0  0  0  0  0
  156.7510  213.5480  139.1920 C   0  0  0  0  0  2  0  0  0  0  0  0
  152.9220  209.9480  137.4890 O   0  0  0  0  0  1  0  0  0  0  0  0
  161.0980  211.0600  138.6980 C   0  0  2  0  0  3  0  0  0  0  0  0
  159.0450  213.6860  140.4600 C   0  0  1  0  0  3  0  0  0  0  0  0
  154.4220  208.1830  138.9160 O   0  0  0  0  0  1  0  0  0  0  0  0
  160.8010  208.5360  138.8850 C   0  0  0  0  0  2  0  0  0  0  0  0
  161.6840  210.8550  137.2920 C   0  0  2  0  0  3  0  0  0  0  0  0
  153.7680  211.5540  139.0020 C   0  0  0  0  0  3  0  0  0  0  0  0
  158.2890  213.5630  139.1310 C   0  0  1  0  0  3  0  0  0  0  0  0
  152.9570  212.8350  141.4390 C   0  0  0  0  0  1  0  0  0  0  0  0
  154.0950  213.1540  140.6510 O   0  0  0  0  0  0  0  0  0  0  0  0
  1 23  1  6  0  0  0
  2 24  1  0  0  0  0
  2 13  1  0  0  0  0
  3 28  1  0  0  0  0
  4 14  1  6  0  0  0
  7 17  1  1  0  0  0
  9  4  1  0  0  0  0
  9  5  1  1  0  0  0
  9 15  1  0  0  0  0
 10  7  1  0  0  0  0
 10  4  1  0  0  0  0
 10 26  1  0  0  0  0
 11 22  1  0  0  0  0
 11  5  2  0  0  0  0
 12 11  1  0  0  0  0
 12 25  1  0  0  0  0
 13 23  1  0  0  0  0
 14  1  1  0  0  0  0
 15  3  1  0  0  0  0
 16 24  1  0  0  0  0
 17 21  1  0  0  0  0
 17  6  2  0  0  0  0
 18 15  1  0  0  0  0
 19 12  1  0  0  0  0
 20  7  1  0  0  0  0
 20  1  1  0  0  0  0
 21  8  1  0  0  0  0
 24 20  1  0  0  0  0
 25  3  2  0  0  0  0
 26 18  1  0  0  0  0
 26 21  1  0  0  0  0
 28 27  1  0  0  0  0
M  END
>  <MODEL>
6

>  <REMARK>
 VINA RESULT:      -4.5     13.676     15.550
  Name = 
  1 active torsions:
  status: ('A' for Active; 'I' for Inactive)
    1  A    between atoms: C_3  and  O_18
                            x       y       z     vdW  Elec       q    Type
                         _______ _______ _______ _____ _____    ______ ____

>  <TORSDO>
F 1

$$$$
=
 OpenBabel11072414113D

 28 32  0  0  1  0  0  0  0  0999 V2000
  159.0150  212.0440  140.0640 C   0  0  2  0  0  3  0  0  0  0  0  0
  157.5920  213.0680  137.7010 C   0  0  0  0  0  2  0  0  0  0  0  0
  161.3990  213.6300  145.3570 C   0  0  0  0  0  0  0  0  0  0  0  0
  159.9210  213.1060  141.7780 C   0  0  2  0  0  3  0  0  0  0  0  0
  158.8460  212.6160  143.9680 C   0  0  0  0  0  3  0  0  0  0  0  0
  162.6440  212.1130  138.8300 O   0  0  0  0  0  0  0  0  0  0  0  0
  160.9510  213.6370  139.5660 C   0  0  1  0  0  3  0  0  0  0  0  0
  162.9040  211.9880  141.7800 O   0  0  0  0  0  1  0  0  0  0  0  0
  159.8050  213.5110  143.2410 C   0  0  1  0  0  3  0  0  0  0  0  0
  160.7070  214.1600  140.9850 C   0  0  2  0  0  3  0  0  0  0  0  0
  158.4360  212.9300  145.1920 C   0  0  0  0  0  0  0  0  0  0  0  0
  158.9760  214.1610  145.8580 C   0  0  1  0  0  3  0  0  0  0  0  0
  156.8460  212.3780  138.8350 C   0  0  0  0  0  2  0  0  0  0  0  0
  158.6880  212.8660  141.1590 O   0  0  0  0  0  0  0  0  0  0  0  0
  161.2280  213.4620  143.8450 C   0  0  1  0  0  3  0  0  0  0  0  0
  159.4970  214.4530  137.1350 N   0  0  0  0  0  1  0  0  0  0  0  0
  162.2140  212.8540  139.7000 C   0  0  0  0  0  0  0  0  0  0  0  0
  162.1520  214.4390  143.1030 C   0  0  0  0  0  2  0  0  0  0  0  0
  158.2480  214.4530  147.0120 O   0  0  0  0  0  1  0  0  0  0  0  0
  159.7610  212.8480  138.9700 C   0  0  2  0  0  3  0  0  0  0  0  0
  162.9440  213.1270  140.9720 C   0  0  1  0  0  3  0  0  0  0  0  0
  157.5490  212.0920  145.8560 O   0  0  0  0  0  1  0  0  0  0  0  0
  157.7620  211.3640  139.5120 C   0  0  0  0  0  2  0  0  0  0  0  0
  158.8090  213.8110  138.2420 C   0  0  2  0  0  3  0  0  0  0  0  0
  160.4140  213.9530  146.2100 C   0  0  0  0  0  3  0  0  0  0  0  0
  162.1160  214.2700  141.5740 C   0  0  1  0  0  3  0  0  0  0  0  0
  162.8340  213.0800  147.3070 C   0  0  0  0  0  1  0  0  0  0  0  0
  162.6540  213.4140  145.9370 O   0  0  0  0  0  0  0  0  0  0  0  0
  1 23  1  6  0  0  0
  1 14  1  0  0  0  0
  2 24  1  0  0  0  0
  2 13  1  0  0  0  0
  3 28  1  0  0  0  0
  3 25  2  0  0  0  0
  4 14  1  6  0  0  0
  4  9  1  0  0  0  0
  5 11  2  0  0  0  0
  6 17  2  0  0  0  0
  7 17  1  1  0  0  0
  7 10  1  0  0  0  0
  9 15  1  0  0  0  0
  9  5  1  1  0  0  0
 10 26  1  0  0  0  0
 10  4  1  0  0  0  0
 11 22  1  0  0  0  0
 11 12  1  0  0  0  0
 12 25  1  0  0  0  0
 12 19  1  0  0  0  0
 13 23  1  0  0  0  0
 15  3  1  0  0  0  0
 16 24  1  0  0  0  0
 17 21  1  0  0  0  0
 18 15  1  0  0  0  0
 20  7  1  0  0  0  0
 20  1  1  0  0  0  0
 21 26  1  0  0  0  0
 21  8  1  0  0  0  0
 24 20  1  0  0  0  0
 26 18  1  0  0  0  0
 28 27  1  0  0  0  0
M  END
>  <MODEL>
7

>  <REMARK>
 VINA RESULT:      -3.9      9.087     12.536
  Name = 
  1 active torsions:
  status: ('A' for Active; 'I' for Inactive)
    1  A    between atoms: C_3  and  O_18
                            x       y       z     vdW  Elec       q    Type
                         _______ _______ _______ _____ _____    ______ ____

>  <TORSDO>
F 1

$$$$
=
 OpenBabel11072414113D

 28 32  0  0  1  0  0  0  0  0999 V2000
  160.3710  212.0770  149.1800 C   0  0  2  0  0  3  0  0  0  0  0  0
  161.9510  213.7300  147.3290 C   0  0  0  0  0  2  0  0  0  0  0  0
  160.0190  210.1480  154.8690 C   0  0  0  0  0  0  0  0  0  0  0  0
  160.7660  211.4640  151.2660 C   0  0  2  0  0  3  0  0  0  0  0  0
  159.1400  212.3630  152.9210 C   0  0  0  0  0  3  0  0  0  0  0  0
  161.8150  208.5940  148.4810 O   0  0  0  0  0  0  0  0  0  0  0  0
  162.4270  210.6180  149.6040 C   0  0  1  0  0  3  0  0  0  0  0  0
  160.4910  208.2940  151.1150 O   0  0  0  0  0  1  0  0  0  0  0  0
  160.4590  211.6710  152.7430 C   0  0  1  0  0  3  0  0  0  0  0  0
  162.2110  210.9790  151.0770 C   0  0  2  0  0  3  0  0  0  0  0  0
  158.7870  212.8320  154.1130 C   0  0  0  0  0  0  0  0  0  0  0  0
  159.6980  212.6230  155.2870 C   0  0  1  0  0  3  0  0  0  0  0  0
  160.6840  214.2660  147.9820 C   0  0  0  0  0  2  0  0  0  0  0  0
  160.5360  212.5970  150.4760 O   0  0  0  0  0  0  0  0  0  0  0  0
  160.4880  210.2790  153.4170 C   0  0  1  0  0  3  0  0  0  0  0  0
  163.8480  212.2470  147.6000 N   0  0  0  0  0  1  0  0  0  0  0  0
  161.9830  209.1950  149.5310 C   0  0  0  0  0  0  0  0  0  0  0  0
  161.8760  209.6420  153.2560 C   0  0  0  0  0  2  0  0  0  0  0  0
  159.2820  213.3940  156.3730 O   0  0  0  0  0  1  0  0  0  0  0  0
  161.7190  211.5690  148.6090 C   0  0  2  0  0  3  0  0  0  0  0  0
  161.8410  208.5520  150.8690 C   0  0  1  0  0  3  0  0  0  0  0  0
  157.5630  213.4700  154.2660 O   0  0  0  0  0  1  0  0  0  0  0  0
  159.7240  213.1150  148.2640 C   0  0  0  0  0  2  0  0  0  0  0  0
  162.6490  212.7410  148.2560 C   0  0  2  0  0  3  0  0  0  0  0  0
  159.7010  211.1780  155.6690 C   0  0  0  0  0  3  0  0  0  0  0  0
  162.3820  209.6430  151.8030 C   0  0  1  0  0  3  0  0  0  0  0  0
  160.5070  208.4830  156.6450 C   0  0  0  0  0  1  0  0  0  0  0  0
  159.8750  208.8750  155.4340 O   0  0  0  0  0  0  0  0  0  0  0  0
  1 23  1  6  0  0  0
  1 14  1  0  0  0  0
  2 13  1  0  0  0  0
  2 24  1  0  0  0  0
  3 28  1  0  0  0  0
  3 25  2  0  0  0  0
  4 14  1  6  0  0  0
  4  9  1  0  0  0  0
  5 11  2  0  0  0  0
  6 17  2  0  0  0  0
  7 17  1  1  0  0  0
  7 10  1  0  0  0  0
  9  5  1  6  0  0  0
  9 15  1  0  0  0  0
 10  4  1  0  0  0  0
 10 26  1  0  0  0  0
 11 22  1  0  0  0  0
 11 12  1  0  0  0  0
 12 25  1  0  0  0  0
 12 19  1  0  0  0  0
 13 23  1  0  0  0  0
 15  3  1  0  0  0  0
 16 24  1  0  0  0  0
 17 21  1  0  0  0  0
 18 15  1  0  0  0  0
 20  1  1  0  0  0  0
 20  7  1  0  0  0  0
 21  8  1  0  0  0  0
 21 26  1  0  0  0  0
 24 20  1  0  0  0  0
 26 18  1  0  0  0  0
 28 27  1  0  0  0  0
M  END
>  <MODEL>
8

>  <REMARK>
 VINA RESULT:      -3.8      2.754      5.486
  Name = 
  1 active torsions:
  status: ('A' for Active; 'I' for Inactive)
    1  A    between atoms: C_3  and  O_18
                            x       y       z     vdW  Elec       q    Type
                         _______ _______ _______ _____ _____    ______ ____

>  <TORSDO>
F 1

$$$$
