=
 OpenBabel11072414393D

 26 26  0  0  1  0  0  0  0  0999 V2000
  161.9600  209.8780  149.2110 C   0  0  0  0  0  0  0  0  0  0  0  0
  162.0160  208.9400  148.3130 N   0  0  0  0  0  0  0  0  0  0  0  0
  163.3630  212.1680  148.2660 O   0  0  0  0  0  1  0  0  0  0  0  0
  161.2150  212.4340  149.7320 O   0  0  0  0  0  1  0  0  0  0  0  0
  161.8240  211.5760  148.6470 P   0  0  0  0  0  0  0  0  0  0  0  0
  160.8430  211.6320  147.2700 O   0  0  0  0  0  0  0  0  0  0  0  0
  162.9680  210.0190  151.3690 O   0  0  0  0  0  0  0  0  0  0  0  0
  162.0110  209.5940  150.6680 C   0  0  0  0  0  0  0  0  0  0  0  0
  160.9570  208.8310  151.2730 N   0  0  0  0  0  2  0  0  0  0  0  0
  160.8220  208.4910  152.6590 C   0  0  0  0  0  0  0  0  0  0  0  0
  160.8320  206.8800  154.4790 C   0  0  0  0  0  3  0  0  0  0  0  0
  160.5350  209.5080  153.5750 C   0  0  0  0  0  3  0  0  0  0  0  0
  160.5470  207.9030  155.3880 C   0  0  0  0  0  0  0  0  0  0  0  0
  160.3970  209.2170  154.9350 C   0  0  0  0  0  3  0  0  0  0  0  0
  160.9700  207.1740  153.1200 C   0  0  0  0  0  3  0  0  0  0  0  0
  160.4060  207.6210  156.7050 F   0  0  0  0  0  0  0  0  0  0  0  0
  162.1200  207.6030  148.6250 O   0  0  0  0  0  0  0  0  0  0  0  0
  161.1970  206.6650  148.0910 C   0  0  2  0  0  3  0  0  0  0  0  0
  162.0420  205.6730  150.4330 O   0  0  0  0  0  1  0  0  0  0  0  0
  160.6530  205.4650  149.4130 P   0  0  0  0  0  0  0  0  0  0  0  0
  161.2380  204.0240  148.6380 O   0  0  0  0  0  1  0  0  0  0  0  0
  163.0220  205.6120  146.9630 O   0  0  0  0  0  0  0  0  0  0  0  0
  161.8020  205.9310  146.9350 C   0  0  0  0  0  0  0  0  0  0  0  0
  161.1410  204.3140  145.1310 N   0  0  0  0  0  1  0  0  0  0  0  0
  160.9810  205.5780  145.7690 C   0  0  0  0  0  0  0  0  0  0  0  0
  160.1260  206.3910  145.3280 O   0  0  0  0  0  0  0  0  0  0  0  0
  1  8  1  0  0  0  0
  2 17  1  0  0  0  0
  2  1  2  0  0  0  0
  3  5  1  0  0  0  0
  5  1  1  0  0  0  0
  5  4  1  0  0  0  0
  6  5  2  0  0  0  0
  8  9  1  0  0  0  0
  8  7  2  0  0  0  0
  9 10  1  0  0  0  0
 10 15  2  0  0  0  0
 10 12  1  0  0  0  0
 11 13  2  0  0  0  0
 12 14  2  0  0  0  0
 13 16  1  0  0  0  0
 14 13  1  0  0  0  0
 15 11  1  0  0  0  0
 18 23  1  6  0  0  0
 18 17  1  0  0  0  0
 18 20  1  0  0  0  0
 20 19  1  0  0  0  0
 21 20  1  0  0  0  0
 23 22  2  0  0  0  0
 24 25  1  0  0  0  0
 25 23  1  0  0  0  0
 26 25  2  0  0  0  0
M  END
>  <MODEL>
1

>  <REMARK>
 VINA RESULT:      -6.4      0.000      0.000
  Name = 
  8 active torsions:
  status: ('A' for Active; 'I' for Inactive)
    1  A    between atoms: C_2  and  C_15
    2  A    between atoms: C_3  and  N_5
    3  A    between atoms: C_11  and  P_12
    4  A    between atoms: C_11  and  O_19
    5  A    between atoms: C_11  and  C_26
    6  A    between atoms: C_15  and  P_17
    7  A    between atoms: O_19  and  N_21
    8  A    between atoms: C_24  and  C_26
                            x       y       z     vdW  Elec       q    Type
                         _______ _______ _______ _____ _____    ______ ____

>  <TORSDO>
F 8

$$$$
=
 OpenBabel11072414393D

 26 26  0  0  1  0  0  0  0  0999 V2000
  161.3890  205.0770  147.3220 C   0  0  0  0  0  0  0  0  0  0  0  0
  161.7510  203.8890  147.7070 N   0  0  0  0  0  0  0  0  0  0  0  0
  161.0650  204.0110  144.7020 O   0  0  0  0  0  0  0  0  0  0  0  0
  162.7530  205.9570  145.1480 O   0  0  0  0  0  1  0  0  0  0  0  0
  161.3980  205.4290  145.5620 P   0  0  0  0  0  0  0  0  0  0  0  0
  160.2150  206.5870  145.2160 O   0  0  0  0  0  1  0  0  0  0  0  0
  159.7620  206.3860  148.4740 O   0  0  0  0  0  0  0  0  0  0  0  0
  160.9820  206.1380  148.2770 C   0  0  0  0  0  0  0  0  0  0  0  0
  161.9920  206.8780  148.9780 N   0  0  0  0  0  2  0  0  0  0  0  0
  161.7870  207.9060  149.9560 C   0  0  0  0  0  0  0  0  0  0  0  0
  161.0640  208.6620  152.1500 C   0  0  0  0  0  3  0  0  0  0  0  0
  162.1410  209.2200  149.6330 C   0  0  0  0  0  3  0  0  0  0  0  0
  161.4210  209.9710  151.8190 C   0  0  0  0  0  0  0  0  0  0  0  0
  161.9580  210.2510  150.5600 C   0  0  0  0  0  3  0  0  0  0  0  0
  161.2480  207.6330  151.2220 C   0  0  0  0  0  3  0  0  0  0  0  0
  161.2380  210.9720  152.7130 F   0  0  0  0  0  0  0  0  0  0  0  0
  161.7830  203.5020  149.0290 O   0  0  0  0  0  0  0  0  0  0  0  0
  160.5950  203.0910  149.6870 C   0  0  2  0  0  3  0  0  0  0  0  0
  162.0280  204.3550  151.5670 O   0  0  0  0  0  1  0  0  0  0  0  0
  160.8480  203.0820  151.5370 P   0  0  0  0  0  0  0  0  0  0  0  0
  162.0070  201.7890  151.5820 O   0  0  0  0  0  1  0  0  0  0  0  0
  159.1230  201.2080  149.6720 O   0  0  0  0  0  0  0  0  0  0  0  0
  160.1720  201.7360  149.2110 C   0  0  0  0  0  0  0  0  0  0  0  0
  160.7140  201.1980  146.8190 N   0  0  0  0  0  1  0  0  0  0  0  0
  160.9710  201.0190  148.2080 C   0  0  0  0  0  0  0  0  0  0  0  0
  161.8930  200.2420  148.5720 O   0  0  0  0  0  0  0  0  0  0  0  0
  1  2  2  0  0  0  0
  1  8  1  0  0  0  0
  2 17  1  0  0  0  0
  3  5  2  0  0  0  0
  4  5  1  0  0  0  0
  5  1  1  0  0  0  0
  6  5  1  0  0  0  0
  8  7  2  0  0  0  0
  8  9  1  0  0  0  0
  9 10  1  0  0  0  0
 10 15  1  0  0  0  0
 12 10  2  0  0  0  0
 12 14  1  0  0  0  0
 13 11  1  0  0  0  0
 13 16  1  0  0  0  0
 14 13  2  0  0  0  0
 15 11  2  0  0  0  0
 18 17  1  6  0  0  0
 18 20  1  0  0  0  0
 20 19  1  0  0  0  0
 20 21  1  0  0  0  0
 23 22  2  0  0  0  0
 23 18  1  0  0  0  0
 24 25  1  0  0  0  0
 25 26  2  0  0  0  0
 25 23  1  0  0  0  0
M  END
>  <MODEL>
2

>  <REMARK>
 VINA RESULT:      -6.4      3.458      5.066
  Name = 
  8 active torsions:
  status: ('A' for Active; 'I' for Inactive)
    1  A    between atoms: C_2  and  C_15
    2  A    between atoms: C_3  and  N_5
    3  A    between atoms: C_11  and  P_12
    4  A    between atoms: C_11  and  O_19
    5  A    between atoms: C_11  and  C_26
    6  A    between atoms: C_15  and  P_17
    7  A    between atoms: O_19  and  N_21
    8  A    between atoms: C_24  and  C_26
                            x       y       z     vdW  Elec       q    Type
                         _______ _______ _______ _____ _____    ______ ____

>  <TORSDO>
F 8

$$$$
=
 OpenBabel11072414393D

 26 26  0  0  1  0  0  0  0  0999 V2000
  161.8340  210.2860  149.8400 C   0  0  0  0  0  0  0  0  0  0  0  0
  161.7270  210.5610  151.1060 N   0  0  0  0  0  0  0  0  0  0  0  0
  161.1260  213.0090  149.4070 O   0  0  0  0  0  1  0  0  0  0  0  0
  161.0440  211.2840  147.4440 O   0  0  0  0  0  0  0  0  0  0  0  0
  161.8330  211.6550  148.6790 P   0  0  0  0  0  0  0  0  0  0  0  0
  163.4250  212.0190  148.2400 O   0  0  0  0  0  1  0  0  0  0  0  0
  162.7840  208.6130  148.4290 O   0  0  0  0  0  0  0  0  0  0  0  0
  161.9490  208.8960  149.3300 C   0  0  0  0  0  0  0  0  0  0  0  0
  161.1010  207.8750  149.8750 N   0  0  0  0  0  2  0  0  0  0  0  0
  161.0940  206.4830  149.5330 C   0  0  0  0  0  0  0  0  0  0  0  0
  161.2630  204.6740  147.9180 C   0  0  0  0  0  3  0  0  0  0  0  0
  160.9050  205.5420  150.5500 C   0  0  0  0  0  3  0  0  0  0  0  0
  161.0740  203.7410  148.9420 C   0  0  0  0  0  0  0  0  0  0  0  0
  160.8940  204.1750  150.2570 C   0  0  0  0  0  3  0  0  0  0  0  0
  161.2740  206.0400  148.2140 C   0  0  0  0  0  3  0  0  0  0  0  0
  161.0560  202.4160  148.6580 F   0  0  0  0  0  0  0  0  0  0  0  0
  161.7170  209.5960  152.0880 O   0  0  0  0  0  0  0  0  0  0  0  0
  160.6950  209.5820  153.0730 C   0  0  2  0  0  3  0  0  0  0  0  0
  159.1930  210.9140  154.8490 O   0  0  0  0  0  1  0  0  0  0  0  0
  160.1280  211.3220  153.4450 P   0  0  0  0  0  0  0  0  0  0  0  0
  158.7780  211.3380  152.3530 O   0  0  0  0  0  1  0  0  0  0  0  0
  161.9500  209.5250  155.1060 O   0  0  0  0  0  0  0  0  0  0  0  0
  161.1760  208.9110  154.3220 C   0  0  0  0  0  0  0  0  0  0  0  0
  159.9280  207.2880  155.7770 N   0  0  0  0  0  1  0  0  0  0  0  0
  160.7480  207.5420  154.6400 C   0  0  0  0  0  0  0  0  0  0  0  0
  161.1030  206.5820  153.9060 O   0  0  0  0  0  0  0  0  0  0  0  0
  1  2  2  0  0  0  0
  2 17  1  0  0  0  0
  4  5  2  0  0  0  0
  5  3  1  0  0  0  0
  5  1  1  0  0  0  0
  6  5  1  0  0  0  0
  7  8  2  0  0  0  0
  8  1  1  0  0  0  0
  8  9  1  0  0  0  0
 10  9  1  0  0  0  0
 10 12  1  0  0  0  0
 11 15  1  0  0  0  0
 11 13  2  0  0  0  0
 13 14  1  0  0  0  0
 14 12  2  0  0  0  0
 15 10  2  0  0  0  0
 16 13  1  0  0  0  0
 18 17  1  6  0  0  0
 18 20  1  0  0  0  0
 18 23  1  0  0  0  0
 20 19  1  0  0  0  0
 21 20  1  0  0  0  0
 23 25  1  0  0  0  0
 23 22  2  0  0  0  0
 25 24  1  0  0  0  0
 26 25  2  0  0  0  0
M  END
>  <MODEL>
3

>  <REMARK>
 VINA RESULT:      -6.2      3.193      6.252
  Name = 
  8 active torsions:
  status: ('A' for Active; 'I' for Inactive)
    1  A    between atoms: C_2  and  C_15
    2  A    between atoms: C_3  and  N_5
    3  A    between atoms: C_11  and  P_12
    4  A    between atoms: C_11  and  O_19
    5  A    between atoms: C_11  and  C_26
    6  A    between atoms: C_15  and  P_17
    7  A    between atoms: O_19  and  N_21
    8  A    between atoms: C_24  and  C_26
                            x       y       z     vdW  Elec       q    Type
                         _______ _______ _______ _____ _____    ______ ____

>  <TORSDO>
F 8

$$$$
=
 OpenBabel11072414393D

 26 26  0  0  1  0  0  0  0  0999 V2000
  160.9870  203.8840  149.9390 C   0  0  0  0  0  0  0  0  0  0  0  0
  160.9840  203.4400  148.7170 N   0  0  0  0  0  0  0  0  0  0  0  0
  160.2520  203.2040  152.6040 O   0  0  0  0  0  1  0  0  0  0  0  0
  162.6050  202.5570  151.6650 O   0  0  0  0  0  1  0  0  0  0  0  0
  161.1520  202.6890  151.2680 P   0  0  0  0  0  0  0  0  0  0  0  0
  160.5750  201.1880  150.7460 O   0  0  0  0  0  0  0  0  0  0  0  0
  160.0600  206.0590  149.6140 O   0  0  0  0  0  0  0  0  0  0  0  0
  160.8530  205.3260  150.2650 C   0  0  0  0  0  0  0  0  0  0  0  0
  161.6360  205.8810  151.3330 N   0  0  0  0  0  2  0  0  0  0  0  0
  161.6130  207.2330  151.8090 C   0  0  0  0  0  0  0  0  0  0  0  0
  162.1600  209.5910  151.5850 C   0  0  0  0  0  3  0  0  0  0  0  0
  160.9820  207.5060  153.0270 C   0  0  0  0  0  3  0  0  0  0  0  0
  161.5260  209.8540  152.8030 C   0  0  0  0  0  0  0  0  0  0  0  0
  160.9380  208.8120  153.5240 C   0  0  0  0  0  3  0  0  0  0  0  0
  162.2020  208.2850  151.0900 C   0  0  0  0  0  3  0  0  0  0  0  0
  161.4890  211.1190  153.2890 F   0  0  0  0  0  0  0  0  0  0  0  0
  160.8630  204.2600  147.6170 O   0  0  0  0  0  0  0  0  0  0  0  0
  161.6490  204.0280  146.4580 C   0  0  2  0  0  3  0  0  0  0  0  0
  162.5780  206.4180  147.2370 O   0  0  0  0  0  1  0  0  0  0  0  0
  162.2180  205.6470  145.7240 P   0  0  0  0  0  0  0  0  0  0  0  0
  160.6440  206.3610  145.5510 O   0  0  0  0  0  1  0  0  0  0  0  0
  160.4180  203.8120  144.4200 O   0  0  0  0  0  0  0  0  0  0  0  0
  160.8750  203.2390  145.4470 C   0  0  0  0  0  0  0  0  0  0  0  0
  159.8400  201.0670  144.7270 N   0  0  0  0  0  1  0  0  0  0  0  0
  160.6470  201.8020  145.6440 C   0  0  0  0  0  0  0  0  0  0  0  0
  161.1670  201.2080  146.6250 O   0  0  0  0  0  0  0  0  0  0  0  0
  1  8  1  0  0  0  0
  1  5  1  0  0  0  0
  2  1  2  0  0  0  0
  5  4  1  0  0  0  0
  5  3  1  0  0  0  0
  6  5  2  0  0  0  0
  7  8  2  0  0  0  0
  8  9  1  0  0  0  0
  9 10  1  0  0  0  0
 10 12  1  0  0  0  0
 11 13  2  0  0  0  0
 12 14  2  0  0  0  0
 13 16  1  0  0  0  0
 13 14  1  0  0  0  0
 15 11  1  0  0  0  0
 15 10  2  0  0  0  0
 17  2  1  0  0  0  0
 18 23  1  6  0  0  0
 18 17  1  0  0  0  0
 20 18  1  0  0  0  0
 20 19  1  0  0  0  0
 21 20  1  0  0  0  0
 22 23  2  0  0  0  0
 23 25  1  0  0  0  0
 24 25  1  0  0  0  0
 25 26  2  0  0  0  0
M  END
>  <MODEL>
4

>  <REMARK>
 VINA RESULT:      -6.2      3.379      5.423
  Name = 
  8 active torsions:
  status: ('A' for Active; 'I' for Inactive)
    1  A    between atoms: C_2  and  C_15
    2  A    between atoms: C_3  and  N_5
    3  A    between atoms: C_11  and  P_12
    4  A    between atoms: C_11  and  O_19
    5  A    between atoms: C_11  and  C_26
    6  A    between atoms: C_15  and  P_17
    7  A    between atoms: O_19  and  N_21
    8  A    between atoms: C_24  and  C_26
                            x       y       z     vdW  Elec       q    Type
                         _______ _______ _______ _____ _____    ______ ____

>  <TORSDO>
F 8

$$$$
=
 OpenBabel11072414393D

 26 26  0  0  1  0  0  0  0  0999 V2000
  161.5540  205.1120  147.9660 C   0  0  0  0  0  0  0  0  0  0  0  0
  161.8990  203.9220  147.5730 N   0  0  0  0  0  0  0  0  0  0  0  0
  162.4180  207.7990  147.5900 O   0  0  0  0  0  1  0  0  0  0  0  0
  160.3830  206.8540  146.2470 O   0  0  0  0  0  1  0  0  0  0  0  0
  161.7350  206.4670  146.8020 P   0  0  0  0  0  0  0  0  0  0  0  0
  162.7450  205.9850  145.5340 O   0  0  0  0  0  0  0  0  0  0  0  0
  159.9100  204.9290  149.6840 O   0  0  0  0  0  0  0  0  0  0  0  0
  161.0300  205.3840  149.3280 C   0  0  0  0  0  0  0  0  0  0  0  0
  161.8130  206.1690  150.2380 N   0  0  0  0  0  2  0  0  0  0  0  0
  161.4870  206.5030  151.5940 C   0  0  0  0  0  0  0  0  0  0  0  0
  160.8410  208.0980  153.3110 C   0  0  0  0  0  3  0  0  0  0  0  0
  161.4970  205.4890  152.5570 C   0  0  0  0  0  3  0  0  0  0  0  0
  160.8540  207.0780  154.2660 C   0  0  0  0  0  0  0  0  0  0  0  0
  161.1830  205.7730  153.8890 C   0  0  0  0  0  3  0  0  0  0  0  0
  161.1550  207.8110  151.9800 C   0  0  0  0  0  3  0  0  0  0  0  0
  160.5570  207.3540  155.5580 F   0  0  0  0  0  0  0  0  0  0  0  0
  161.8050  202.8060  148.3750 O   0  0  0  0  0  0  0  0  0  0  0  0
  160.7450  201.8800  148.1980 C   0  0  2  0  0  3  0  0  0  0  0  0
  158.7970  201.0750  149.8530 O   0  0  0  0  0  1  0  0  0  0  0  0
  160.5140  200.8530  149.7400 P   0  0  0  0  0  0  0  0  0  0  0  0
  160.9130  202.1000  150.8810 O   0  0  0  0  0  1  0  0  0  0  0  0
  161.6290  199.9100  147.1720 O   0  0  0  0  0  0  0  0  0  0  0  0
  161.0090  200.9980  147.0170 C   0  0  0  0  0  0  0  0  0  0  0  0
  160.7470  202.7210  145.2090 N   0  0  0  0  0  1  0  0  0  0  0  0
  160.5470  201.3910  145.6790 C   0  0  0  0  0  0  0  0  0  0  0  0
  159.9730  200.5510  144.9370 O   0  0  0  0  0  0  0  0  0  0  0  0
  1  8  1  0  0  0  0
  2  1  2  0  0  0  0
  2 17  1  0  0  0  0
  4  5  1  0  0  0  0
  5  3  1  0  0  0  0
  5  1  1  0  0  0  0
  6  5  2  0  0  0  0
  8  7  2  0  0  0  0
  8  9  1  0  0  0  0
  9 10  1  0  0  0  0
 10 15  2  0  0  0  0
 10 12  1  0  0  0  0
 11 13  2  0  0  0  0
 12 14  2  0  0  0  0
 13 16  1  0  0  0  0
 14 13  1  0  0  0  0
 15 11  1  0  0  0  0
 18 23  1  6  0  0  0
 18 17  1  0  0  0  0
 18 20  1  0  0  0  0
 20 19  1  0  0  0  0
 20 21  1  0  0  0  0
 23 22  2  0  0  0  0
 24 25  1  0  0  0  0
 25 23  1  0  0  0  0
 26 25  2  0  0  0  0
M  END
>  <MODEL>
5

>  <REMARK>
 VINA RESULT:      -6.0      2.815      4.464
  Name = 
  8 active torsions:
  status: ('A' for Active; 'I' for Inactive)
    1  A    between atoms: C_2  and  C_15
    2  A    between atoms: C_3  and  N_5
    3  A    between atoms: C_11  and  P_12
    4  A    between atoms: C_11  and  O_19
    5  A    between atoms: C_11  and  C_26
    6  A    between atoms: C_15  and  P_17
    7  A    between atoms: O_19  and  N_21
    8  A    between atoms: C_24  and  C_26
                            x       y       z     vdW  Elec       q    Type
                         _______ _______ _______ _____ _____    ______ ____

>  <TORSDO>
F 8

$$$$
=
 OpenBabel11072414393D

 26 26  0  0  1  0  0  0  0  0999 V2000
  161.1470  210.0960  154.6340 C   0  0  0  0  0  0  0  0  0  0  0  0
  160.7070  211.1600  154.0310 N   0  0  0  0  0  0  0  0  0  0  0  0
  161.3640  211.3980  157.1560 O   0  0  0  0  0  1  0  0  0  0  0  0
  163.4990  210.8690  155.7430 O   0  0  0  0  0  0  0  0  0  0  0  0
  162.1400  210.3180  156.1120 P   0  0  0  0  0  0  0  0  0  0  0  0
  162.3320  208.8270  156.8870 O   0  0  0  0  0  1  0  0  0  0  0  0
  160.0480  207.9820  154.7510 O   0  0  0  0  0  0  0  0  0  0  0  0
  160.8650  208.7240  154.1420 C   0  0  0  0  0  0  0  0  0  0  0  0
  161.5300  208.2490  152.9630 N   0  0  0  0  0  2  0  0  0  0  0  0
  161.3580  206.9760  152.3260 C   0  0  0  0  0  0  0  0  0  0  0  0
  161.2330  204.5490  152.3920 C   0  0  0  0  0  3  0  0  0  0  0  0
  161.1330  206.9390  150.9470 C   0  0  0  0  0  3  0  0  0  0  0  0
  161.0080  204.5220  151.0130 C   0  0  0  0  0  0  0  0  0  0  0  0
  160.9590  205.7170  150.2900 C   0  0  0  0  0  3  0  0  0  0  0  0
  161.4060  205.7720  153.0460 C   0  0  0  0  0  3  0  0  0  0  0  0
  160.8460  203.3380  150.3740 F   0  0  0  0  0  0  0  0  0  0  0  0
  159.9360  211.1160  152.8900 O   0  0  0  0  0  0  0  0  0  0  0  0
  158.8050  211.9630  152.7530 C   0  0  2  0  0  3  0  0  0  0  0  0
  157.8950  213.2900  150.6090 O   0  0  0  0  0  1  0  0  0  0  0  0
  159.2300  213.4500  151.7070 P   0  0  0  0  0  0  0  0  0  0  0  0
  160.3810  212.6560  150.6760 O   0  0  0  0  0  1  0  0  0  0  0  0
  158.6480  213.5140  154.5650 O   0  0  0  0  0  0  0  0  0  0  0  0
  158.3040  212.3940  154.0970 C   0  0  0  0  0  0  0  0  0  0  0  0
  156.0060  211.5420  154.6430 N   0  0  0  0  0  1  0  0  0  0  0  0
  157.4120  211.5210  154.8710 C   0  0  0  0  0  0  0  0  0  0  0  0
  157.8870  210.7450  155.7420 O   0  0  0  0  0  0  0  0  0  0  0  0
  1  5  1  0  0  0  0
  2  1  2  0  0  0  0
  4  5  2  0  0  0  0
  5  6  1  0  0  0  0
  5  3  1  0  0  0  0
  8  1  1  0  0  0  0
  8  7  2  0  0  0  0
  9  8  1  0  0  0  0
 10  9  1  0  0  0  0
 10 15  1  0  0  0  0
 11 15  2  0  0  0  0
 12 10  2  0  0  0  0
 13 11  1  0  0  0  0
 14 12  1  0  0  0  0
 14 13  2  0  0  0  0
 16 13  1  0  0  0  0
 17  2  1  0  0  0  0
 18 17  1  1  0  0  0
 18 23  1  0  0  0  0
 19 20  1  0  0  0  0
 20 18  1  0  0  0  0
 21 20  1  0  0  0  0
 23 22  2  0  0  0  0
 23 25  1  0  0  0  0
 24 25  1  0  0  0  0
 25 26  2  0  0  0  0
M  END
>  <MODEL>
6

>  <REMARK>
 VINA RESULT:      -5.8      4.871      7.707
  Name = 
  8 active torsions:
  status: ('A' for Active; 'I' for Inactive)
    1  A    between atoms: C_2  and  C_15
    2  A    between atoms: C_3  and  N_5
    3  A    between atoms: C_11  and  P_12
    4  A    between atoms: C_11  and  O_19
    5  A    between atoms: C_11  and  C_26
    6  A    between atoms: C_15  and  P_17
    7  A    between atoms: O_19  and  N_21
    8  A    between atoms: C_24  and  C_26
                            x       y       z     vdW  Elec       q    Type
                         _______ _______ _______ _____ _____    ______ ____

>  <TORSDO>
F 8

$$$$
=
 OpenBabel11072414393D

 26 26  0  0  1  0  0  0  0  0999 V2000
  161.4990  204.8170  147.4840 C   0  0  0  0  0  0  0  0  0  0  0  0
  161.3070  203.6640  148.0530 N   0  0  0  0  0  0  0  0  0  0  0  0
  163.9050  204.4540  146.0040 O   0  0  0  0  0  1  0  0  0  0  0  0
  162.1220  206.2060  145.2380 O   0  0  0  0  0  1  0  0  0  0  0  0
  162.2630  204.8350  145.8590 P   0  0  0  0  0  0  0  0  0  0  0  0
  161.5050  203.6910  144.8710 O   0  0  0  0  0  0  0  0  0  0  0  0
  159.9490  206.5540  148.0060 O   0  0  0  0  0  0  0  0  0  0  0  0
  161.1190  206.1000  148.1270 C   0  0  0  0  0  0  0  0  0  0  0  0
  162.0980  206.8200  148.8910 N   0  0  0  0  0  2  0  0  0  0  0  0
  161.9040  208.0480  149.6050 C   0  0  0  0  0  0  0  0  0  0  0  0
  161.9530  210.4740  149.7450 C   0  0  0  0  0  3  0  0  0  0  0  0
  161.4490  207.9920  150.9260 C   0  0  0  0  0  3  0  0  0  0  0  0
  161.4970  210.4080  151.0650 C   0  0  0  0  0  0  0  0  0  0  0  0
  161.2470  209.1670  151.6560 C   0  0  0  0  0  3  0  0  0  0  0  0
  162.1540  209.2980  149.0180 C   0  0  0  0  0  3  0  0  0  0  0  0
  161.3070  211.5460  151.7750 F   0  0  0  0  0  0  0  0  0  0  0  0
  160.7310  203.5250  149.2960 O   0  0  0  0  0  0  0  0  0  0  0  0
  161.3380  202.7050  150.2830 C   0  0  2  0  0  3  0  0  0  0  0  0
  161.5580  200.5800  148.6630 O   0  0  0  0  0  1  0  0  0  0  0  0
  160.7200  200.9490  150.1380 P   0  0  0  0  0  0  0  0  0  0  0  0
  159.2070  201.3240  149.3730 O   0  0  0  0  0  1  0  0  0  0  0  0
  160.3420  202.5890  152.4530 O   0  0  0  0  0  0  0  0  0  0  0  0
  161.0680  203.2430  151.6540 C   0  0  0  0  0  0  0  0  0  0  0  0
  161.0710  205.2570  153.1540 N   0  0  0  0  0  1  0  0  0  0  0  0
  161.6450  204.5260  152.0740 C   0  0  0  0  0  0  0  0  0  0  0  0
  162.6560  204.9880  151.4820 O   0  0  0  0  0  0  0  0  0  0  0  0
  1  2  2  0  0  0  0
  1  8  1  0  0  0  0
  2 17  1  0  0  0  0
  4  5  1  0  0  0  0
  5  3  1  0  0  0  0
  5  1  1  0  0  0  0
  6  5  2  0  0  0  0
  7  8  2  0  0  0  0
  8  9  1  0  0  0  0
  9 10  1  0  0  0  0
 10 12  1  0  0  0  0
 11 13  2  0  0  0  0
 12 14  2  0  0  0  0
 13 14  1  0  0  0  0
 13 16  1  0  0  0  0
 15 10  2  0  0  0  0
 15 11  1  0  0  0  0
 18 17  1  6  0  0  0
 18 23  1  0  0  0  0
 19 20  1  0  0  0  0
 20 18  1  0  0  0  0
 21 20  1  0  0  0  0
 23 25  1  0  0  0  0
 23 22  2  0  0  0  0
 25 24  1  0  0  0  0
 26 25  2  0  0  0  0
M  END
>  <MODEL>
7

>  <REMARK>
 VINA RESULT:      -5.7      3.637      5.740
  Name = 
  8 active torsions:
  status: ('A' for Active; 'I' for Inactive)
    1  A    between atoms: C_2  and  C_15
    2  A    between atoms: C_3  and  N_5
    3  A    between atoms: C_11  and  P_12
    4  A    between atoms: C_11  and  O_19
    5  A    between atoms: C_11  and  C_26
    6  A    between atoms: C_15  and  P_17
    7  A    between atoms: O_19  and  N_21
    8  A    between atoms: C_24  and  C_26
                            x       y       z     vdW  Elec       q    Type
                         _______ _______ _______ _____ _____    ______ ____

>  <TORSDO>
F 8

$$$$
=
 OpenBabel11072414393D

 26 26  0  0  1  0  0  0  0  0999 V2000
  161.9540  210.0060  149.8180 C   0  0  0  0  0  0  0  0  0  0  0  0
  161.9640  210.1780  151.1070 N   0  0  0  0  0  0  0  0  0  0  0  0
  163.3530  211.9260  148.2490 O   0  0  0  0  0  1  0  0  0  0  0  0
  161.1910  212.5970  149.5570 O   0  0  0  0  0  1  0  0  0  0  0  0
  161.8150  211.4610  148.7770 P   0  0  0  0  0  0  0  0  0  0  0  0
  160.8460  211.1020  147.4390 O   0  0  0  0  0  0  0  0  0  0  0  0
  162.8120  208.4700  148.2070 O   0  0  0  0  0  0  0  0  0  0  0  0
  162.0470  208.6640  149.1900 C   0  0  0  0  0  0  0  0  0  0  0  0
  161.2570  207.5870  149.7150 N   0  0  0  0  0  2  0  0  0  0  0  0
  161.2420  206.2260  149.2630 C   0  0  0  0  0  0  0  0  0  0  0  0
  161.5790  204.5360  147.5490 C   0  0  0  0  0  3  0  0  0  0  0  0
  160.8550  205.2250  150.1580 C   0  0  0  0  0  3  0  0  0  0  0  0
  161.1920  203.5420  148.4510 C   0  0  0  0  0  0  0  0  0  0  0  0
  160.8290  203.8860  149.7560 C   0  0  0  0  0  3  0  0  0  0  0  0
  161.6050  205.8730  147.9530 C   0  0  0  0  0  3  0  0  0  0  0  0
  161.1590  202.2450  148.0600 F   0  0  0  0  0  0  0  0  0  0  0  0
  162.0660  209.1400  152.0050 O   0  0  0  0  0  0  0  0  0  0  0  0
  161.5670  209.2800  153.3270 C   0  0  2  0  0  3  0  0  0  0  0  0
  161.5060  207.7080  155.4970 O   0  0  0  0  0  1  0  0  0  0  0  0
  160.8080  207.6760  153.9080 P   0  0  0  0  0  0  0  0  0  0  0  0
  162.0080  206.6210  153.2270 O   0  0  0  0  0  1  0  0  0  0  0  0
  159.6700  210.4820  152.5090 O   0  0  0  0  0  0  0  0  0  0  0  0
  160.5630  210.3880  153.3950 C   0  0  0  0  0  0  0  0  0  0  0  0
  159.7190  212.4770  154.5060 N   0  0  0  0  0  1  0  0  0  0  0  0
  160.6110  211.3660  154.4900 C   0  0  0  0  0  0  0  0  0  0  0  0
  161.4420  211.2260  155.4270 O   0  0  0  0  0  0  0  0  0  0  0  0
  1  2  2  0  0  0  0
  2 17  1  0  0  0  0
  3  5  1  0  0  0  0
  5  4  1  0  0  0  0
  5  1  1  0  0  0  0
  6  5  2  0  0  0  0
  7  8  2  0  0  0  0
  8  9  1  0  0  0  0
  8  1  1  0  0  0  0
 10  9  1  0  0  0  0
 10 12  1  0  0  0  0
 11 15  1  0  0  0  0
 11 13  2  0  0  0  0
 13 14  1  0  0  0  0
 14 12  2  0  0  0  0
 15 10  2  0  0  0  0
 16 13  1  0  0  0  0
 18 17  1  6  0  0  0
 18 23  1  0  0  0  0
 18 20  1  0  0  0  0
 20 19  1  0  0  0  0
 21 20  1  0  0  0  0
 22 23  2  0  0  0  0
 23 25  1  0  0  0  0
 25 24  1  0  0  0  0
 25 26  2  0  0  0  0
M  END
>  <MODEL>
8

>  <REMARK>
 VINA RESULT:      -5.7      3.220      6.327
  Name = 
  8 active torsions:
  status: ('A' for Active; 'I' for Inactive)
    1  A    between atoms: C_2  and  C_15
    2  A    between atoms: C_3  and  N_5
    3  A    between atoms: C_11  and  P_12
    4  A    between atoms: C_11  and  O_19
    5  A    between atoms: C_11  and  C_26
    6  A    between atoms: C_15  and  P_17
    7  A    between atoms: O_19  and  N_21
    8  A    between atoms: C_24  and  C_26
                            x       y       z     vdW  Elec       q    Type
                         _______ _______ _______ _____ _____    ______ ____

>  <TORSDO>
F 8

$$$$
=
 OpenBabel11072414393D

 26 26  0  0  1  0  0  0  0  0999 V2000
  161.9610  210.0380  149.7060 C   0  0  0  0  0  0  0  0  0  0  0  0
  161.9260  210.2310  150.9920 N   0  0  0  0  0  0  0  0  0  0  0  0
  160.8720  211.0830  147.2920 O   0  0  0  0  0  0  0  0  0  0  0  0
  163.1930  211.9060  148.1710 O   0  0  0  0  0  1  0  0  0  0  0  0
  161.8210  211.4730  148.6370 P   0  0  0  0  0  0  0  0  0  0  0  0
  161.0940  212.7390  149.4900 O   0  0  0  0  0  1  0  0  0  0  0  0
  163.0090  208.4600  148.2570 O   0  0  0  0  0  0  0  0  0  0  0  0
  162.1040  208.6890  149.1040 C   0  0  0  0  0  0  0  0  0  0  0  0
  161.2020  207.6450  149.4970 N   0  0  0  0  0  2  0  0  0  0  0  0
  161.2100  206.2820  149.0510 C   0  0  0  0  0  0  0  0  0  0  0  0
  161.5740  204.5900  147.3450 C   0  0  0  0  0  3  0  0  0  0  0  0
  160.8430  205.2780  149.9520 C   0  0  0  0  0  3  0  0  0  0  0  0
  161.2060  203.5930  148.2520 C   0  0  0  0  0  0  0  0  0  0  0  0
  160.8400  203.9370  149.5560 C   0  0  0  0  0  3  0  0  0  0  0  0
  161.5770  205.9290  147.7430 C   0  0  0  0  0  3  0  0  0  0  0  0
  161.1960  202.2940  147.8670 F   0  0  0  0  0  0  0  0  0  0  0  0
  162.0250  209.2100  151.9100 O   0  0  0  0  0  0  0  0  0  0  0  0
  160.9180  208.8720  152.7310 C   0  0  2  0  0  3  0  0  0  0  0  0
  160.3090  211.4820  152.6900 O   0  0  0  0  0  1  0  0  0  0  0  0
  160.5330  210.2670  153.9100 P   0  0  0  0  0  0  0  0  0  0  0  0
  162.1780  210.6980  154.2650 O   0  0  0  0  0  1  0  0  0  0  0  0
  161.8070  206.6620  152.9270 O   0  0  0  0  0  0  0  0  0  0  0  0
  161.1900  207.6080  153.4870 C   0  0  0  0  0  0  0  0  0  0  0  0
  161.6110  207.8260  155.9540 N   0  0  0  0  0  1  0  0  0  0  0  0
  160.7450  207.4670  154.8800 C   0  0  0  0  0  0  0  0  0  0  0  0
  159.5920  207.0280  155.1340 O   0  0  0  0  0  0  0  0  0  0  0  0
  1  2  2  0  0  0  0
  2 17  1  0  0  0  0
  3  5  2  0  0  0  0
  4  5  1  0  0  0  0
  5  6  1  0  0  0  0
  5  1  1  0  0  0  0
  7  8  2  0  0  0  0
  8  9  1  0  0  0  0
  8  1  1  0  0  0  0
 10  9  1  0  0  0  0
 10 12  1  0  0  0  0
 11 15  1  0  0  0  0
 11 13  2  0  0  0  0
 13 14  1  0  0  0  0
 14 12  2  0  0  0  0
 15 10  2  0  0  0  0
 16 13  1  0  0  0  0
 18 17  1  1  0  0  0
 18 23  1  0  0  0  0
 18 20  1  0  0  0  0
 19 20  1  0  0  0  0
 20 21  1  0  0  0  0
 22 23  2  0  0  0  0
 23 25  1  0  0  0  0
 25 26  2  0  0  0  0
 25 24  1  0  0  0  0
M  END
>  <MODEL>
9

>  <REMARK>
 VINA RESULT:      -5.7      3.162      6.265
  Name = 
  8 active torsions:
  status: ('A' for Active; 'I' for Inactive)
    1  A    between atoms: C_2  and  C_15
    2  A    between atoms: C_3  and  N_5
    3  A    between atoms: C_11  and  P_12
    4  A    between atoms: C_11  and  O_19
    5  A    between atoms: C_11  and  C_26
    6  A    between atoms: C_15  and  P_17
    7  A    between atoms: O_19  and  N_21
    8  A    between atoms: C_24  and  C_26
                            x       y       z     vdW  Elec       q    Type
                         _______ _______ _______ _____ _____    ______ ____

>  <TORSDO>
F 8

$$$$
