=
 OpenBabel11072412363D

 31 33  0  0  1  0  0  0  0  0999 V2000
  162.7380  206.8970  151.5880 C   0  0  0  0  0  2  0  0  0  0  0  0
  162.5080  205.3760  151.5550 C   0  0  0  0  0  2  0  0  0  0  0  0
  161.0400  207.7030  149.7780 C   0  0  2  0  0  3  0  0  0  0  0  0
  160.8090  208.3550  152.0830 N   0  0  0  0  0  0  0  0  0  0  0  0
  161.0750  206.5430  147.6710 O   0  0  0  0  0  1  0  0  0  0  0  0
  161.5260  207.7150  151.2020 C   0  0  0  0  0  0  0  0  0  0  0  0
  161.4590  206.4380  149.0080 C   0  0  2  0  0  3  0  0  0  0  0  0
  160.8790  205.1420  149.5950 C   0  0  0  0  0  2  0  0  0  0  0  0
  161.5100  208.8420  149.1210 O   0  0  0  0  0  1  0  0  0  0  0  0
  161.1000  204.9810  151.1030 C   0  0  1  0  0  3  0  0  0  0  0  0
  161.5070  209.1280  155.4970 C   0  0  0  0  0  0  0  0  0  0  0  0
  160.8860  207.1880  154.3650 C   0  0  0  0  0  2  0  0  0  0  0  0
  161.2220  207.6980  155.7650 C   0  0  2  0  0  3  0  0  0  0  0  0
  161.3580  209.4760  154.1350 N   0  0  0  0  0  0  0  0  0  0  0  0
  160.0010  207.5680  156.6560 C   0  0  0  0  0  1  0  0  0  0  0  0
  161.0010  208.4090  153.5050 C   0  0  0  0  0  0  0  0  0  0  0  0
  161.8730  209.9540  156.3730 O   0  0  0  0  0  0  0  0  0  0  0  0
  160.1410  203.4030  152.7490 F   0  0  0  0  0  0  0  0  0  0  0  0
  160.7610  203.6060  151.5590 C   0  0  0  0  0  0  0  0  0  0  0  0
  161.0190  201.6660  149.8400 C   0  0  0  0  0  3  0  0  0  0  0  0
  160.8930  202.6190  150.7190 C   0  0  0  0  0  0  0  0  0  0  0  0
  161.1580  200.9060  146.1150 C   0  0  1  0  0  3  0  0  0  0  0  0
  160.6340  202.2580  145.6270 C   0  0  0  0  0  2  0  0  0  0  0  0
  161.6250  203.0330  147.8680 C   0  0  0  0  0  2  0  0  0  0  0  0
  160.7020  201.9490  148.4150 C   0  0  1  0  0  3  0  0  0  0  0  0
  161.2170  203.4250  146.4410 C   0  0  1  0  0  3  0  0  0  0  0  0
  160.7970  200.6610  147.5870 C   0  0  0  0  0  2  0  0  0  0  0  0
  162.3160  203.9680  145.7730 O   0  0  0  0  0  0  0  0  0  0  0  0
  161.7680  204.8480  144.8390 C   0  0  0  0  0  1  0  0  0  0  0  0
  161.2280  198.5790  145.5890 O   0  0  0  0  0  1  0  0  0  0  0  0
  160.6000  199.7820  145.2630 C   0  0  0  0  0  2  0  0  0  0  0  0
  2  1  1  0  0  0  0
  3  9  1  6  0  0  0
  3  6  1  0  0  0  0
  4 16  1  0  0  0  0
  6  1  1  0  0  0  0
  6  4  2  0  0  0  0
  7  5  1  6  0  0  0
  7  8  1  0  0  0  0
  7  3  1  0  0  0  0
  8 10  1  0  0  0  0
 10  2  1  0  0  0  0
 10 19  1  6  0  0  0
 11 13  1  0  0  0  0
 11 17  2  0  0  0  0
 12 13  1  0  0  0  0
 13 15  1  1  0  0  0
 14 11  1  0  0  0  0
 16 14  2  0  0  0  0
 16 12  1  0  0  0  0
 19 18  1  0  0  0  0
 20 21  2  0  0  0  0
 21 19  2  0  0  0  0
 22 31  1  6  0  0  0
 22 27  1  0  0  0  0
 23 22  1  0  0  0  0
 23 26  1  0  0  0  0
 24 25  1  0  0  0  0
 25 20  1  1  0  0  0
 26 28  1  6  0  0  0
 26 24  1  0  0  0  0
 27 25  1  0  0  0  0
 29 28  1  0  0  0  0
 31 30  1  0  0  0  0
M  END
>  <MODEL>
1

>  <REMARK>
 VINA RESULT:      -9.7      0.000      0.000
  Name = 
  5 active torsions:
  status: ('A' for Active; 'I' for Inactive)
    1  A    between atoms: C_3  and  C_20
    2  A    between atoms: C_5  and  C_31
    3  A    between atoms: O_7  and  C_25
    4  A    between atoms: C_8  and  C_24
    5  A    between atoms: C_18  and  N_19
                            x       y       z     vdW  Elec       q    Type
                         _______ _______ _______ _____ _____    ______ ____

>  <TORSDO>
F 5

$$$$
=
 OpenBabel11072412363D

 31 33  0  0  1  0  0  0  0  0999 V2000
  160.1510  205.9900  148.7830 C   0  0  0  0  0  2  0  0  0  0  0  0
  160.0650  205.8000  150.3080 C   0  0  0  0  0  2  0  0  0  0  0  0
  162.3740  207.3390  148.5680 C   0  0  2  0  0  3  0  0  0  0  0  0
  162.1530  205.1400  147.6160 N   0  0  0  0  0  0  0  0  0  0  0  0
  162.6280  209.2430  150.0150 O   0  0  0  0  0  1  0  0  0  0  0  0
  161.5630  206.1120  148.2530 C   0  0  0  0  0  0  0  0  0  0  0  0
  161.9100  208.0580  149.8460 C   0  0  2  0  0  3  0  0  0  0  0  0
  162.0470  207.2050  151.1150 C   0  0  0  0  0  2  0  0  0  0  0  0
  162.3260  208.2140  147.4800 O   0  0  0  0  0  1  0  0  0  0  0  0
  161.4300  205.8060  151.0020 C   0  0  1  0  0  3  0  0  0  0  0  0
  160.8330  202.1350  146.2130 C   0  0  0  0  0  0  0  0  0  0  0  0
  161.2140  202.8810  148.3880 C   0  0  0  0  0  2  0  0  0  0  0  0
  160.6750  201.6790  147.6150 C   0  0  2  0  0  3  0  0  0  0  0  0
  161.4030  203.4240  146.1120 N   0  0  0  0  0  0  0  0  0  0  0  0
  161.5590  200.4740  147.8740 C   0  0  0  0  0  1  0  0  0  0  0  0
  161.6280  203.8380  147.3120 C   0  0  0  0  0  0  0  0  0  0  0  0
  160.4760  201.4690  145.2070 O   0  0  0  0  0  0  0  0  0  0  0  0
  161.7750  203.8540  152.4810 F   0  0  0  0  0  0  0  0  0  0  0  0
  161.3550  205.1350  152.3280 C   0  0  0  0  0  0  0  0  0  0  0  0
  160.7850  206.6100  154.3970 C   0  0  0  0  0  3  0  0  0  0  0  0
  161.0610  205.8520  153.3750 C   0  0  0  0  0  0  0  0  0  0  0  0
  161.4660  209.9440  156.0980 C   0  0  1  0  0  3  0  0  0  0  0  0
  161.8400  210.7260  154.8380 C   0  0  0  0  0  2  0  0  0  0  0  0
  160.3380  208.9530  153.7390 C   0  0  0  0  0  2  0  0  0  0  0  0
  161.3100  208.0010  154.4290 C   0  0  1  0  0  3  0  0  0  0  0  0
  160.9330  210.3660  153.6500 C   0  0  1  0  0  3  0  0  0  0  0  0
  161.5840  208.4300  155.8760 C   0  0  0  0  0  2  0  0  0  0  0  0
  159.9020  211.3000  153.5390 O   0  0  0  0  0  0  0  0  0  0  0  0
  160.0700  211.8690  152.2750 C   0  0  0  0  0  1  0  0  0  0  0  0
  163.5780  210.8170  156.7850 O   0  0  0  0  0  1  0  0  0  0  0  0
  162.3490  210.3560  157.2600 C   0  0  0  0  0  2  0  0  0  0  0  0
  1  2  1  0  0  0  0
  2 10  1  0  0  0  0
  3  9  1  6  0  0  0
  3  7  1  0  0  0  0
  4  6  2  0  0  0  0
  6  3  1  0  0  0  0
  6  1  1  0  0  0  0
  7  5  1  1  0  0  0
  7  8  1  0  0  0  0
 10  8  1  0  0  0  0
 10 19  1  1  0  0  0
 11 13  1  0  0  0  0
 13 15  1  6  0  0  0
 13 12  1  0  0  0  0
 14 11  1  0  0  0  0
 14 16  2  0  0  0  0
 16  4  1  0  0  0  0
 16 12  1  0  0  0  0
 17 11  2  0  0  0  0
 19 18  1  0  0  0  0
 19 21  2  0  0  0  0
 21 20  2  0  0  0  0
 22 31  1  1  0  0  0
 23 22  1  0  0  0  0
 24 25  1  0  0  0  0
 25 20  1  1  0  0  0
 25 27  1  0  0  0  0
 26 28  1  1  0  0  0
 26 24  1  0  0  0  0
 26 23  1  0  0  0  0
 27 22  1  0  0  0  0
 29 28  1  0  0  0  0
 30 31  1  0  0  0  0
M  END
>  <MODEL>
2

>  <REMARK>
 VINA RESULT:      -9.3      2.370      8.858
  Name = 
  5 active torsions:
  status: ('A' for Active; 'I' for Inactive)
    1  A    between atoms: C_3  and  C_20
    2  A    between atoms: C_5  and  C_31
    3  A    between atoms: O_7  and  C_25
    4  A    between atoms: C_8  and  C_24
    5  A    between atoms: C_18  and  N_19
                            x       y       z     vdW  Elec       q    Type
                         _______ _______ _______ _____ _____    ______ ____

>  <TORSDO>
F 5

$$$$
=
 OpenBabel11072412363D

 31 33  0  0  1  0  0  0  0  0999 V2000
  160.3150  211.7490  154.5250 C   0  0  0  0  0  2  0  0  0  0  0  0
  160.8380  210.3900  155.0220 C   0  0  0  0  0  2  0  0  0  0  0  0
  160.1760  211.3250  151.9540 C   0  0  2  0  0  3  0  0  0  0  0  0
  158.2010  211.7860  153.2500 N   0  0  0  0  0  0  0  0  0  0  0  0
  162.1110  210.3470  150.9130 O   0  0  0  0  0  1  0  0  0  0  0  0
  159.5000  211.6710  153.2520 C   0  0  0  0  0  0  0  0  0  0  0  0
  161.4820  210.5350  152.1450 C   0  0  2  0  0  3  0  0  0  0  0  0
  161.2810  209.1690  152.8160 C   0  0  0  0  0  2  0  0  0  0  0  0
  160.4250  212.4980  151.2380 O   0  0  0  0  0  1  0  0  0  0  0  0
  160.4610  209.2200  154.1110 C   0  0  1  0  0  3  0  0  0  0  0  0
  155.9550  211.6100  156.0180 C   0  0  0  0  0  0  0  0  0  0  0  0
  156.9170  213.3590  154.8150 C   0  0  0  0  0  2  0  0  0  0  0  0
  155.9670  213.0920  155.9810 C   0  0  2  0  0  3  0  0  0  0  0  0
  156.7860  211.0260  155.0360 N   0  0  0  0  0  0  0  0  0  0  0  0
  156.5700  213.6400  157.2610 C   0  0  0  0  0  1  0  0  0  0  0  0
  157.3320  211.9890  154.3750 C   0  0  0  0  0  0  0  0  0  0  0  0
  155.2620  210.9260  156.8160 O   0  0  0  0  0  0  0  0  0  0  0  0
  159.9980  207.8140  156.0930 F   0  0  0  0  0  0  0  0  0  0  0  0
  160.5270  207.9290  154.8480 C   0  0  0  0  0  0  0  0  0  0  0  0
  161.3090  205.8240  153.5300 C   0  0  0  0  0  3  0  0  0  0  0  0
  160.9260  206.8650  154.2110 C   0  0  0  0  0  0  0  0  0  0  0  0
  161.2480  204.0680  150.1550 C   0  0  1  0  0  3  0  0  0  0  0  0
  160.6960  205.2400  149.3420 C   0  0  0  0  0  2  0  0  0  0  0  0
  161.8050  206.5890  151.2290 C   0  0  0  0  0  2  0  0  0  0  0  0
  160.9150  205.7080  152.1000 C   0  0  1  0  0  3  0  0  0  0  0  0
  161.3190  206.5790  149.7720 C   0  0  1  0  0  3  0  0  0  0  0  0
  160.9680  204.2410  151.6550 C   0  0  0  0  0  2  0  0  0  0  0  0
  162.3790  206.9030  148.9240 O   0  0  0  0  0  0  0  0  0  0  0  0
  161.9810  208.0800  148.2880 C   0  0  0  0  0  1  0  0  0  0  0  0
  160.9500  201.7380  150.5750 O   0  0  0  0  0  1  0  0  0  0  0  0
  160.6480  202.7610  149.6760 C   0  0  0  0  0  2  0  0  0  0  0  0
  1  2  1  0  0  0  0
  3  9  1  1  0  0  0
  3  7  1  0  0  0  0
  3  6  1  0  0  0  0
  4  6  2  0  0  0  0
  4 16  1  0  0  0  0
  6  1  1  0  0  0  0
  7  5  1  6  0  0  0
  7  8  1  0  0  0  0
  8 10  1  0  0  0  0
 10 19  1  1  0  0  0
 10  2  1  0  0  0  0
 11 17  2  0  0  0  0
 12 13  1  0  0  0  0
 13 11  1  0  0  0  0
 13 15  1  1  0  0  0
 14 11  1  0  0  0  0
 16 12  1  0  0  0  0
 16 14  2  0  0  0  0
 19 18  1  0  0  0  0
 20 21  2  0  0  0  0
 21 19  2  0  0  0  0
 22 31  1  6  0  0  0
 22 27  1  0  0  0  0
 23 26  1  0  0  0  0
 23 22  1  0  0  0  0
 24 25  1  0  0  0  0
 25 20  1  1  0  0  0
 26 28  1  6  0  0  0
 26 24  1  0  0  0  0
 27 25  1  0  0  0  0
 29 28  1  0  0  0  0
 31 30  1  0  0  0  0
M  END
>  <MODEL>
3

>  <REMARK>
 VINA RESULT:      -8.7      3.709      5.496
  Name = 
  5 active torsions:
  status: ('A' for Active; 'I' for Inactive)
    1  A    between atoms: C_3  and  C_20
    2  A    between atoms: C_5  and  C_31
    3  A    between atoms: O_7  and  C_25
    4  A    between atoms: C_8  and  C_24
    5  A    between atoms: C_18  and  N_19
                            x       y       z     vdW  Elec       q    Type
                         _______ _______ _______ _____ _____    ______ ____

>  <TORSDO>
F 5

$$$$
=
 OpenBabel11072412363D

 31 33  0  0  1  0  0  0  0  0999 V2000
  160.1730  206.1290  148.6750 C   0  0  0  0  0  2  0  0  0  0  0  0
  160.2070  205.7470  150.1650 C   0  0  0  0  0  2  0  0  0  0  0  0
  162.2440  207.7090  148.5120 C   0  0  2  0  0  3  0  0  0  0  0  0
  162.1620  205.6300  147.3010 N   0  0  0  0  0  0  0  0  0  0  0  0
  162.4180  209.4370  150.1750 O   0  0  0  0  0  1  0  0  0  0  0  0
  161.5290  206.4540  148.0880 C   0  0  0  0  0  0  0  0  0  0  0  0
  161.8020  208.2170  149.8960 C   0  0  2  0  0  3  0  0  0  0  0  0
  162.1020  207.2320  151.0360 C   0  0  0  0  0  2  0  0  0  0  0  0
  162.0430  208.7000  147.5500 O   0  0  0  0  0  1  0  0  0  0  0  0
  161.6080  205.8040  150.7790 C   0  0  1  0  0  3  0  0  0  0  0  0
  161.2090  202.2180  146.8660 C   0  0  0  0  0  0  0  0  0  0  0  0
  161.5690  204.0020  145.4110 C   0  0  0  0  0  2  0  0  0  0  0  0
  161.1770  202.5260  145.4160 C   0  0  2  0  0  3  0  0  0  0  0  0
  161.5520  203.3350  147.6610 N   0  0  0  0  0  0  0  0  0  0  0  0
  159.7650  202.3760  144.8830 C   0  0  0  0  0  1  0  0  0  0  0  0
  161.7400  204.3300  146.8620 C   0  0  0  0  0  0  0  0  0  0  0  0
  160.9850  201.0800  147.3540 O   0  0  0  0  0  0  0  0  0  0  0  0
  162.3650  203.7980  152.0130 F   0  0  0  0  0  0  0  0  0  0  0  0
  161.6840  204.9720  152.0100 C   0  0  0  0  0  0  0  0  0  0  0  0
  160.8300  206.0250  154.2330 C   0  0  0  0  0  3  0  0  0  0  0  0
  161.2530  205.4750  153.1310 C   0  0  0  0  0  0  0  0  0  0  0  0
  160.0280  209.3820  155.8330 C   0  0  1  0  0  3  0  0  0  0  0  0
  160.8850  210.2430  154.9040 C   0  0  0  0  0  2  0  0  0  0  0  0
  160.4540  208.2840  153.2970 C   0  0  0  0  0  2  0  0  0  0  0  0
  161.0510  207.4800  154.4470 C   0  0  1  0  0  3  0  0  0  0  0  0
  160.7940  209.7750  153.4420 C   0  0  1  0  0  3  0  0  0  0  0  0
  160.4650  207.9110  155.7970 C   0  0  0  0  0  2  0  0  0  0  0  0
  159.8480  210.5390  152.7560 O   0  0  0  0  0  0  0  0  0  0  0  0
  160.3840  211.8270  152.7240 C   0  0  0  0  0  1  0  0  0  0  0  0
  160.4840  211.2420  157.2570 O   0  0  0  0  0  1  0  0  0  0  0  0
  160.1060  209.8990  157.2560 C   0  0  0  0  0  2  0  0  0  0  0  0
  1  2  1  0  0  0  0
  2 10  1  0  0  0  0
  3  9  1  6  0  0  0
  3  7  1  0  0  0  0
  4  6  2  0  0  0  0
  6  3  1  0  0  0  0
  6  1  1  0  0  0  0
  7  5  1  1  0  0  0
  7  8  1  0  0  0  0
 10  8  1  0  0  0  0
 10 19  1  1  0  0  0
 11 17  2  0  0  0  0
 11 14  1  0  0  0  0
 12 13  1  0  0  0  0
 12 16  1  0  0  0  0
 13 15  1  1  0  0  0
 13 11  1  0  0  0  0
 16  4  1  0  0  0  0
 16 14  2  0  0  0  0
 19 18  1  0  0  0  0
 19 21  2  0  0  0  0
 21 20  2  0  0  0  0
 22 31  1  1  0  0  0
 23 22  1  0  0  0  0
 24 26  1  0  0  0  0
 24 25  1  0  0  0  0
 25 20  1  6  0  0  0
 25 27  1  0  0  0  0
 26 28  1  6  0  0  0
 26 23  1  0  0  0  0
 27 22  1  0  0  0  0
 29 28  1  0  0  0  0
 31 30  1  0  0  0  0
M  END
>  <MODEL>
4

>  <REMARK>
 VINA RESULT:      -8.6      2.443      8.769
  Name = 
  5 active torsions:
  status: ('A' for Active; 'I' for Inactive)
    1  A    between atoms: C_3  and  C_20
    2  A    between atoms: C_5  and  C_31
    3  A    between atoms: O_7  and  C_25
    4  A    between atoms: C_8  and  C_24
    5  A    between atoms: C_18  and  N_19
                            x       y       z     vdW  Elec       q    Type
                         _______ _______ _______ _____ _____    ______ ____

>  <TORSDO>
F 5

$$$$
=
 OpenBabel11072412363D

 31 33  0  0  1  0  0  0  0  0999 V2000
  162.6830  206.4640  150.9470 C   0  0  0  0  0  2  0  0  0  0  0  0
  162.7600  207.9980  151.0470 C   0  0  0  0  0  2  0  0  0  0  0  0
  160.7500  205.9460  152.6220 C   0  0  2  0  0  3  0  0  0  0  0  0
  160.5350  205.4490  150.2770 N   0  0  0  0  0  0  0  0  0  0  0  0
  160.8870  206.9870  154.7860 O   0  0  0  0  0  1  0  0  0  0  0  0
  161.3100  205.8940  151.2260 C   0  0  0  0  0  0  0  0  0  0  0  0
  161.3660  207.0670  153.4770 C   0  0  2  0  0  3  0  0  0  0  0  0
  161.0930  208.4760  152.9310 C   0  0  0  0  0  2  0  0  0  0  0  0
  160.9420  204.7090  153.2410 O   0  0  0  0  0  1  0  0  0  0  0  0
  161.4340  208.6510  151.4460 C   0  0  1  0  0  3  0  0  0  0  0  0
  160.7690  205.9090  146.7460 C   0  0  0  0  0  0  0  0  0  0  0  0
  161.5270  204.2750  148.2250 C   0  0  0  0  0  2  0  0  0  0  0  0
  161.5240  204.6330  146.7400 C   0  0  2  0  0  3  0  0  0  0  0  0
  160.3710  206.3100  148.0410 N   0  0  0  0  0  0  0  0  0  0  0  0
  162.9480  204.8710  146.2730 C   0  0  0  0  0  1  0  0  0  0  0  0
  160.7990  205.4160  148.8660 C   0  0  0  0  0  0  0  0  0  0  0  0
  160.4800  206.5660  145.7120 O   0  0  0  0  0  0  0  0  0  0  0  0
  161.6820  210.4530  149.7700 F   0  0  0  0  0  0  0  0  0  0  0  0
  161.4060  210.0840  151.0470 C   0  0  0  0  0  0  0  0  0  0  0  0
  160.4230  211.7930  152.7480 C   0  0  0  0  0  3  0  0  0  0  0  0
  160.9280  210.9580  151.8860 C   0  0  0  0  0  0  0  0  0  0  0  0
  157.2320  212.4110  154.7260 C   0  0  1  0  0  3  0  0  0  0  0  0
  157.1900  211.0600  155.4420 C   0  0  0  0  0  2  0  0  0  0  0  0
  159.7260  211.1860  155.0430 C   0  0  0  0  0  2  0  0  0  0  0  0
  159.2800  211.3570  153.5950 C   0  0  1  0  0  3  0  0  0  0  0  0
  158.5870  210.6090  155.8970 C   0  0  1  0  0  3  0  0  0  0  0  0
  158.1240  212.3580  153.4770 C   0  0  0  0  0  2  0  0  0  0  0  0
  158.7860  210.9540  157.2350 O   0  0  0  0  0  0  0  0  0  0  0  0
  159.9890  211.6610  157.2480 C   0  0  0  0  0  1  0  0  0  0  0  0
  155.8870  213.6400  153.1850 O   0  0  0  0  0  1  0  0  0  0  0  0
  155.8340  212.8470  154.3320 C   0  0  0  0  0  2  0  0  0  0  0  0
  1  2  1  0  0  0  0
  1  6  1  0  0  0  0
  2 10  1  0  0  0  0
  3  9  1  1  0  0  0
  3  7  1  0  0  0  0
  4  6  2  0  0  0  0
  6  3  1  0  0  0  0
  7  5  1  1  0  0  0
  8  7  1  0  0  0  0
 10 19  1  1  0  0  0
 10  8  1  0  0  0  0
 11 14  1  0  0  0  0
 12 16  1  0  0  0  0
 13 15  1  1  0  0  0
 13 11  1  0  0  0  0
 13 12  1  0  0  0  0
 14 16  2  0  0  0  0
 16  4  1  0  0  0  0
 17 11  2  0  0  0  0
 18 19  1  0  0  0  0
 19 21  2  0  0  0  0
 21 20  2  0  0  0  0
 22 31  1  6  0  0  0
 22 23  1  0  0  0  0
 23 26  1  0  0  0  0
 24 26  1  0  0  0  0
 25 20  1  6  0  0  0
 25 24  1  0  0  0  0
 26 28  1  1  0  0  0
 27 25  1  0  0  0  0
 27 22  1  0  0  0  0
 28 29  1  0  0  0  0
 30 31  1  0  0  0  0
M  END
>  <MODEL>
5

>  <REMARK>
 VINA RESULT:      -8.2      3.717      9.795
  Name = 
  5 active torsions:
  status: ('A' for Active; 'I' for Inactive)
    1  A    between atoms: C_3  and  C_20
    2  A    between atoms: C_5  and  C_31
    3  A    between atoms: O_7  and  C_25
    4  A    between atoms: C_8  and  C_24
    5  A    between atoms: C_18  and  N_19
                            x       y       z     vdW  Elec       q    Type
                         _______ _______ _______ _____ _____    ______ ____

>  <TORSDO>
F 5

$$$$
=
 OpenBabel11072412363D

 31 33  0  0  1  0  0  0  0  0999 V2000
  160.4560  207.2440  149.2580 C   0  0  0  0  0  2  0  0  0  0  0  0
  160.6170  206.7880  150.7190 C   0  0  0  0  0  2  0  0  0  0  0  0
  162.3260  209.0570  149.0880 C   0  0  2  0  0  3  0  0  0  0  0  0
  162.4080  207.0520  147.7590 N   0  0  0  0  0  0  0  0  0  0  0  0
  162.4000  210.7010  150.8410 O   0  0  0  0  0  1  0  0  0  0  0  0
  161.7330  207.7540  148.6250 C   0  0  0  0  0  0  0  0  0  0  0  0
  161.9090  209.4350  150.5190 C   0  0  2  0  0  3  0  0  0  0  0  0
  162.3800  208.4310  151.5820 C   0  0  0  0  0  2  0  0  0  0  0  0
  161.9620  210.0690  148.1980 O   0  0  0  0  0  1  0  0  0  0  0  0
  162.0360  206.9720  151.2640 C   0  0  1  0  0  3  0  0  0  0  0  0
  161.5780  203.6270  147.1920 C   0  0  0  0  0  0  0  0  0  0  0  0
  162.3380  205.3600  145.8330 C   0  0  0  0  0  2  0  0  0  0  0  0
  161.9450  203.8850  145.7790 C   0  0  2  0  0  3  0  0  0  0  0  0
  161.7010  204.7700  148.0130 N   0  0  0  0  0  0  0  0  0  0  0  0
  160.7310  203.7170  144.8860 C   0  0  0  0  0  1  0  0  0  0  0  0
  162.1090  205.7370  147.2640 C   0  0  0  0  0  0  0  0  0  0  0  0
  161.2180  202.5060  147.6370 O   0  0  0  0  0  0  0  0  0  0  0  0
  163.3390  205.2490  152.4690 F   0  0  0  0  0  0  0  0  0  0  0  0
  162.2730  206.0880  152.4370 C   0  0  0  0  0  0  0  0  0  0  0  0
  160.8320  206.4970  154.5670 C   0  0  0  0  0  3  0  0  0  0  0  0
  161.5560  206.2680  153.5100 C   0  0  0  0  0  0  0  0  0  0  0  0
  160.3980  210.1850  153.7410 C   0  0  1  0  0  3  0  0  0  0  0  0
  160.2100  210.6790  155.1770 C   0  0  0  0  0  2  0  0  0  0  0  0
  161.5850  208.5690  155.6900 C   0  0  0  0  0  2  0  0  0  0  0  0
  160.4640  207.8980  154.9040 C   0  0  1  0  0  3  0  0  0  0  0  0
  161.1590  209.9690  156.1560 C   0  0  1  0  0  3  0  0  0  0  0  0
  160.1300  208.6780  153.6250 C   0  0  0  0  0  2  0  0  0  0  0  0
  162.2930  210.7550  156.3720 O   0  0  0  0  0  0  0  0  0  0  0  0
  163.0770  210.0140  157.2570 C   0  0  0  0  0  1  0  0  0  0  0  0
  159.7090  212.3090  152.9000 O   0  0  0  0  0  1  0  0  0  0  0  0
  159.4800  210.9370  152.7970 C   0  0  0  0  0  2  0  0  0  0  0  0
  1  2  1  0  0  0  0
  2 10  1  0  0  0  0
  3  9  1  6  0  0  0
  3  7  1  0  0  0  0
  4  6  2  0  0  0  0
  6  3  1  0  0  0  0
  6  1  1  0  0  0  0
  7  5  1  1  0  0  0
  7  8  1  0  0  0  0
 10  8  1  0  0  0  0
 10 19  1  1  0  0  0
 11 17  2  0  0  0  0
 11 14  1  0  0  0  0
 12 16  1  0  0  0  0
 13 15  1  6  0  0  0
 13 12  1  0  0  0  0
 13 11  1  0  0  0  0
 16  4  1  0  0  0  0
 16 14  2  0  0  0  0
 19 18  1  0  0  0  0
 19 21  2  0  0  0  0
 21 20  2  0  0  0  0
 22 31  1  6  0  0  0
 22 23  1  0  0  0  0
 23 26  1  0  0  0  0
 24 26  1  0  0  0  0
 25 20  1  6  0  0  0
 25 24  1  0  0  0  0
 26 28  1  6  0  0  0
 27 22  1  0  0  0  0
 27 25  1  0  0  0  0
 28 29  1  0  0  0  0
 31 30  1  0  0  0  0
M  END
>  <MODEL>
6

>  <REMARK>
 VINA RESULT:      -7.9      2.699      8.751
  Name = 
  5 active torsions:
  status: ('A' for Active; 'I' for Inactive)
    1  A    between atoms: C_3  and  C_20
    2  A    between atoms: C_5  and  C_31
    3  A    between atoms: O_7  and  C_25
    4  A    between atoms: C_8  and  C_24
    5  A    between atoms: C_18  and  N_19
                            x       y       z     vdW  Elec       q    Type
                         _______ _______ _______ _____ _____    ______ ____

>  <TORSDO>
F 5

$$$$
=
 OpenBabel11072412363D

 31 33  0  0  1  0  0  0  0  0999 V2000
  160.0880  206.0550  149.2470 C   0  0  0  0  0  2  0  0  0  0  0  0
  160.4610  206.0740  150.7400 C   0  0  0  0  0  2  0  0  0  0  0  0
  161.9120  207.6350  148.2520 C   0  0  2  0  0  3  0  0  0  0  0  0
  161.7990  205.3120  147.6300 N   0  0  0  0  0  0  0  0  0  0  0  0
  162.2420  209.7410  149.3660 O   0  0  0  0  0  1  0  0  0  0  0  0
  161.2580  206.2810  148.3140 C   0  0  0  0  0  0  0  0  0  0  0  0
  161.7090  208.4620  149.5330 C   0  0  2  0  0  3  0  0  0  0  0  0
  162.3320  207.8220  150.7830 C   0  0  0  0  0  2  0  0  0  0  0  0
  161.4220  208.3330  147.1470 O   0  0  0  0  0  1  0  0  0  0  0  0
  161.9440  206.3530  150.9950 C   0  0  1  0  0  3  0  0  0  0  0  0
  160.9300  201.9220  146.9320 C   0  0  0  0  0  0  0  0  0  0  0  0
  160.9680  203.2240  148.8650 C   0  0  0  0  0  2  0  0  0  0  0  0
  160.6370  201.8130  148.3820 C   0  0  2  0  0  3  0  0  0  0  0  0
  161.3950  203.2020  146.5570 N   0  0  0  0  0  0  0  0  0  0  0  0
  161.5820  200.8210  149.0320 C   0  0  0  0  0  1  0  0  0  0  0  0
  161.4310  203.9240  147.6240 C   0  0  0  0  0  0  0  0  0  0  0  0
  160.7620  200.9890  146.1040 O   0  0  0  0  0  0  0  0  0  0  0  0
  163.5730  205.3150  152.5410 F   0  0  0  0  0  0  0  0  0  0  0  0
  162.3520  205.8730  152.3440 C   0  0  0  0  0  0  0  0  0  0  0  0
  160.8300  206.5030  154.3610 C   0  0  0  0  0  3  0  0  0  0  0  0
  161.5990  206.1670  153.3650 C   0  0  0  0  0  0  0  0  0  0  0  0
  160.7520  210.2530  153.7190 C   0  0  1  0  0  3  0  0  0  0  0  0
  159.4440  210.5430  154.4580 C   0  0  0  0  0  2  0  0  0  0  0  0
  160.1350  208.4310  155.7480 C   0  0  0  0  0  2  0  0  0  0  0  0
  160.1660  207.8340  154.3450 C   0  0  1  0  0  3  0  0  0  0  0  0
  159.3340  209.7410  155.7650 C   0  0  1  0  0  3  0  0  0  0  0  0
  160.8740  208.7660  153.3540 C   0  0  0  0  0  2  0  0  0  0  0  0
  159.7460  210.5270  156.8410 O   0  0  0  0  0  0  0  0  0  0  0  0
  159.0460  211.7260  156.6980 C   0  0  0  0  0  1  0  0  0  0  0  0
  159.8850  212.1020  152.4850 O   0  0  0  0  0  1  0  0  0  0  0  0
  160.8490  211.0930  152.4610 C   0  0  0  0  0  2  0  0  0  0  0  0
  1  2  1  0  0  0  0
  2 10  1  0  0  0  0
  3  9  1  6  0  0  0
  3  6  1  0  0  0  0
  3  7  1  0  0  0  0
  4  6  2  0  0  0  0
  6  1  1  0  0  0  0
  7  5  1  6  0  0  0
  7  8  1  0  0  0  0
  8 10  1  0  0  0  0
 10 19  1  1  0  0  0
 11 13  1  0  0  0  0
 13 12  1  0  0  0  0
 13 15  1  1  0  0  0
 14 11  1  0  0  0  0
 14 16  2  0  0  0  0
 16  4  1  0  0  0  0
 16 12  1  0  0  0  0
 17 11  2  0  0  0  0
 19 18  1  0  0  0  0
 19 21  2  0  0  0  0
 21 20  2  0  0  0  0
 22 31  1  6  0  0  0
 22 23  1  0  0  0  0
 23 26  1  0  0  0  0
 24 26  1  0  0  0  0
 25 20  1  1  0  0  0
 25 24  1  0  0  0  0
 26 28  1  1  0  0  0
 27 22  1  0  0  0  0
 27 25  1  0  0  0  0
 29 28  1  0  0  0  0
 31 30  1  0  0  0  0
M  END
>  <MODEL>
7

>  <REMARK>
 VINA RESULT:      -7.8      2.561      8.721
  Name = 
  5 active torsions:
  status: ('A' for Active; 'I' for Inactive)
    1  A    between atoms: C_3  and  C_20
    2  A    between atoms: C_5  and  C_31
    3  A    between atoms: O_7  and  C_25
    4  A    between atoms: C_8  and  C_24
    5  A    between atoms: C_18  and  N_19
                            x       y       z     vdW  Elec       q    Type
                         _______ _______ _______ _____ _____    ______ ____

>  <TORSDO>
F 5

$$$$
=
 OpenBabel11072412363D

 31 33  0  0  1  0  0  0  0  0999 V2000
  158.7230  210.4280  152.9660 C   0  0  0  0  0  2  0  0  0  0  0  0
  160.0870  209.8650  152.5300 C   0  0  0  0  0  2  0  0  0  0  0  0
  159.2490  211.1900  155.4060 C   0  0  2  0  0  3  0  0  0  0  0  0
  158.6210  212.7790  153.7120 N   0  0  0  0  0  0  0  0  0  0  0  0
  160.3810  209.6020  156.8140 O   0  0  0  0  0  1  0  0  0  0  0  0
  158.8100  211.5240  154.0060 C   0  0  0  0  0  0  0  0  0  0  0  0
  160.1040  209.9130  155.4820 C   0  0  2  0  0  3  0  0  0  0  0  0
  161.4260  210.0120  154.7070 C   0  0  0  0  0  2  0  0  0  0  0  0
  158.1250  211.0650  156.2240 O   0  0  0  0  0  1  0  0  0  0  0  0
  161.2720  210.5000  153.2620 C   0  0  1  0  0  3  0  0  0  0  0  0
  158.5470  214.1320  150.4100 C   0  0  0  0  0  0  0  0  0  0  0  0
  156.9720  213.9220  152.1140 C   0  0  0  0  0  2  0  0  0  0  0  0
  157.1270  214.4530  150.6910 C   0  0  2  0  0  3  0  0  0  0  0  0
  159.1900  213.4800  151.4850 N   0  0  0  0  0  0  0  0  0  0  0  0
  156.2220  213.6710  149.7580 C   0  0  0  0  0  1  0  0  0  0  0  0
  158.3190  213.3480  152.4280 C   0  0  0  0  0  0  0  0  0  0  0  0
  159.1420  214.4280  149.3410 O   0  0  0  0  0  0  0  0  0  0  0  0
  163.7220  210.7210  153.0030 F   0  0  0  0  0  0  0  0  0  0  0  0
  162.5320  210.3210  152.4900 C   0  0  0  0  0  0  0  0  0  0  0  0
  162.4290  208.8630  150.3340 C   0  0  0  0  0  3  0  0  0  0  0  0
  162.5010  209.6050  151.4020 C   0  0  0  0  0  0  0  0  0  0  0  0
  161.5150  205.2740  151.2020 C   0  0  1  0  0  3  0  0  0  0  0  0
  160.3000  205.1600  150.2800 C   0  0  0  0  0  2  0  0  0  0  0  0
  161.5790  206.9730  148.9820 C   0  0  0  0  0  2  0  0  0  0  0  0
  161.5190  207.6870  150.3290 C   0  0  1  0  0  3  0  0  0  0  0  0
  160.5460  205.8390  148.9220 C   0  0  1  0  0  3  0  0  0  0  0  0
  161.8740  206.7400  151.4830 C   0  0  0  0  0  2  0  0  0  0  0  0
  160.9490  204.8890  147.9830 O   0  0  0  0  0  0  0  0  0  0  0  0
  161.9370  205.5260  147.2310 C   0  0  0  0  0  1  0  0  0  0  0  0
  160.7910  203.2640  152.2650 O   0  0  0  0  0  1  0  0  0  0  0  0
  161.2560  204.5560  152.5120 C   0  0  0  0  0  2  0  0  0  0  0  0
  1  6  1  0  0  0  0
  2  1  1  0  0  0  0
  2 10  1  0  0  0  0
  3  7  1  0  0  0  0
  3  9  1  1  0  0  0
  4  6  2  0  0  0  0
  6  3  1  0  0  0  0
  7  5  1  1  0  0  0
  8  7  1  0  0  0  0
 10 19  1  6  0  0  0
 10  8  1  0  0  0  0
 11 13  1  0  0  0  0
 11 14  1  0  0  0  0
 12 16  1  0  0  0  0
 13 15  1  6  0  0  0
 13 12  1  0  0  0  0
 14 16  2  0  0  0  0
 16  4  1  0  0  0  0
 17 11  2  0  0  0  0
 19 18  1  0  0  0  0
 20 21  2  0  0  0  0
 21 19  2  0  0  0  0
 22 27  1  0  0  0  0
 22 31  1  1  0  0  0
 23 22  1  0  0  0  0
 24 25  1  0  0  0  0
 25 20  1  6  0  0  0
 25 27  1  0  0  0  0
 26 28  1  6  0  0  0
 26 24  1  0  0  0  0
 26 23  1  0  0  0  0
 29 28  1  0  0  0  0
 30 31  1  0  0  0  0
M  END
>  <MODEL>
8

>  <REMARK>
 VINA RESULT:      -6.9      4.097      6.922
  Name = 
  5 active torsions:
  status: ('A' for Active; 'I' for Inactive)
    1  A    between atoms: C_3  and  C_20
    2  A    between atoms: C_5  and  C_31
    3  A    between atoms: O_7  and  C_25
    4  A    between atoms: C_8  and  C_24
    5  A    between atoms: C_18  and  N_19
                            x       y       z     vdW  Elec       q    Type
                         _______ _______ _______ _____ _____    ______ ____

>  <TORSDO>
F 5

$$$$
=
 OpenBabel11072412363D

 31 33  0  0  1  0  0  0  0  0999 V2000
  162.2540  209.7280  152.7260 C   0  0  0  0  0  2  0  0  0  0  0  0
  162.2360  208.2080  152.9680 C   0  0  0  0  0  2  0  0  0  0  0  0
  161.3820  209.8580  150.2700 C   0  0  2  0  0  3  0  0  0  0  0  0
  160.1390  210.8290  152.0880 N   0  0  0  0  0  0  0  0  0  0  0  0
  162.4240  208.3910  148.6740 O   0  0  0  0  0  1  0  0  0  0  0  0
  161.2260  210.2080  151.7250 C   0  0  0  0  0  0  0  0  0  0  0  0
  162.2270  208.5930  150.0410 C   0  0  2  0  0  3  0  0  0  0  0  0
  161.6090  207.3240  150.6490 C   0  0  0  0  0  2  0  0  0  0  0  0
  161.9470  210.9410  149.5950 O   0  0  0  0  0  1  0  0  0  0  0  0
  161.2000  207.4670  152.1190 C   0  0  1  0  0  3  0  0  0  0  0  0
  159.3010  211.0150  155.5520 C   0  0  0  0  0  0  0  0  0  0  0  0
  158.9230  212.3960  153.7130 C   0  0  0  0  0  2  0  0  0  0  0  0
  158.6510  212.3040  155.2130 C   0  0  2  0  0  3  0  0  0  0  0  0
  159.9090  210.3930  154.4390 N   0  0  0  0  0  0  0  0  0  0  0  0
  159.3530  213.4450  155.9250 C   0  0  0  0  0  1  0  0  0  0  0  0
  159.7140  211.1590  153.4190 C   0  0  0  0  0  0  0  0  0  0  0  0
  159.2970  210.5000  156.7010 O   0  0  0  0  0  0  0  0  0  0  0  0
  160.2070  206.0750  153.9060 F   0  0  0  0  0  0  0  0  0  0  0  0
  160.8640  206.1490  152.7210 C   0  0  0  0  0  0  0  0  0  0  0  0
  161.2070  204.0270  151.2500 C   0  0  0  0  0  3  0  0  0  0  0  0
  161.0380  205.0730  152.0070 C   0  0  0  0  0  0  0  0  0  0  0  0
  161.3260  202.7500  147.6680 C   0  0  1  0  0  3  0  0  0  0  0  0
  160.9320  204.0620  146.9870 C   0  0  0  0  0  2  0  0  0  0  0  0
  161.9580  205.0510  149.1260 C   0  0  0  0  0  2  0  0  0  0  0  0
  160.9350  204.1370  149.7920 C   0  0  1  0  0  3  0  0  0  0  0  0
  161.6050  205.2760  147.6490 C   0  0  1  0  0  3  0  0  0  0  0  0
  160.9250  202.7430  149.1510 C   0  0  0  0  0  2  0  0  0  0  0  0
  162.7570  205.6240  146.9410 O   0  0  0  0  0  0  0  0  0  0  0  0
  162.3530  205.6800  145.6060 C   0  0  0  0  0  1  0  0  0  0  0  0
  160.6350  201.8050  145.5890 O   0  0  0  0  0  1  0  0  0  0  0  0
  160.6820  201.5720  146.9640 C   0  0  0  0  0  2  0  0  0  0  0  0
  1  2  1  0  0  0  0
  3  9  1  6  0  0  0
  3  6  1  0  0  0  0
  4 16  1  0  0  0  0
  6  4  2  0  0  0  0
  6  1  1  0  0  0  0
  7  5  1  6  0  0  0
  7  3  1  0  0  0  0
  7  8  1  0  0  0  0
  8 10  1  0  0  0  0
 10 19  1  1  0  0  0
 10  2  1  0  0  0  0
 11 17  2  0  0  0  0
 12 13  1  0  0  0  0
 13 11  1  0  0  0  0
 13 15  1  1  0  0  0
 14 11  1  0  0  0  0
 16 12  1  0  0  0  0
 16 14  2  0  0  0  0
 19 18  1  0  0  0  0
 20 21  2  0  0  0  0
 21 19  2  0  0  0  0
 22 31  1  6  0  0  0
 22 27  1  0  0  0  0
 23 26  1  0  0  0  0
 23 22  1  0  0  0  0
 24 25  1  0  0  0  0
 25 20  1  1  0  0  0
 26 28  1  6  0  0  0
 26 24  1  0  0  0  0
 27 25  1  0  0  0  0
 29 28  1  0  0  0  0
 30 31  1  0  0  0  0
M  END
>  <MODEL>
9

>  <REMARK>
 VINA RESULT:      -6.8      2.268      3.012
  Name = 
  5 active torsions:
  status: ('A' for Active; 'I' for Inactive)
    1  A    between atoms: C_3  and  C_20
    2  A    between atoms: C_5  and  C_31
    3  A    between atoms: O_7  and  C_25
    4  A    between atoms: C_8  and  C_24
    5  A    between atoms: C_18  and  N_19
                            x       y       z     vdW  Elec       q    Type
                         _______ _______ _______ _____ _____    ______ ____

>  <TORSDO>
F 5

$$$$
