=
 OpenBabel11072414563D

 57 66  0  0  1  0  0  0  0  0999 V2000
  159.4260  214.4320  145.9690 C   0  0  0  0  0  2  0  0  0  0  0  0
  161.5450  213.7820  144.6540 C   0  0  0  0  0  2  0  0  0  0  0  0
  160.0890  214.2460  144.5890 C   0  0  1  0  0  3  0  0  0  0  0  0
  161.9850  212.6190  148.1450 N   0  0  0  0  0  2  0  0  0  0  0  0
  159.8600  214.3810  148.4570 N   0  0  0  0  0  2  0  0  0  0  0  0
  161.6950  212.6320  145.6390 C   0  0  0  0  0  2  0  0  0  0  0  0
  161.4820  212.7410  149.5150 C   0  0  1  0  0  3  0  0  0  0  0  0
  160.3040  214.4210  150.7450 O   0  0  0  0  0  0  0  0  0  0  0  0
  161.2570  213.0780  146.9980 C   0  0  0  0  0  0  0  0  0  0  0  0
  160.2150  213.9160  147.1490 C   0  0  0  0  0  0  0  0  0  0  0  0
  160.5310  213.8940  149.6240 C   0  0  0  0  0  0  0  0  0  0  0  0
  160.7660  211.4630  149.9190 C   0  0  0  0  0  2  0  0  0  0  0  0
  161.6230  210.6570  150.9030 C   0  0  1  0  0  3  0  0  0  0  0  0
  161.6510  209.9610  153.3760 C   0  0  0  0  0  2  0  0  0  0  0  0
  159.7580  212.1890  153.9640 C   0  0  0  0  0  0  0  0  0  0  0  0
  158.9780  213.1580  154.1640 O   0  0  0  0  0  0  0  0  0  0  0  0
  162.7410  210.8430  155.3440 O   0  0  0  0  0  0  0  0  0  0  0  0
  160.1580  211.8620  156.3540 C   0  0  0  0  0  2  0  0  0  0  0  0
  161.5270  210.5420  154.7740 C   0  0  0  0  0  0  0  0  0  0  0  0
  162.0360  209.7870  155.8050 O   0  0  0  0  0  0  0  0  0  0  0  0
  160.4470  211.5350  155.0960 C   0  0  0  0  0  0  0  0  0  0  0  0
  159.9270  211.6590  152.5680 C   0  0  2  0  0  3  0  0  0  0  0  0
  158.9460  210.7120  152.3280 F   0  0  0  0  0  0  0  0  0  0  0  0
  161.3330  211.0640  152.3610 C   0  0  2  0  0  3  0  0  0  0  0  0
  162.6350  207.2210  150.7000 C   0  0  2  0  0  3  0  0  0  0  0  0
  160.2180  206.6930  148.1110 O   0  0  0  0  0  0  0  0  0  0  0  0
  160.9630  206.6800  149.1220 C   0  0  0  0  0  0  0  0  0  0  0  0
  161.4170  209.2180  150.7040 N   0  0  0  0  0  0  0  0  0  0  0  0
  160.7600  205.8280  150.1830 O   0  0  0  0  0  0  0  0  0  0  0  0
  162.1050  207.6050  149.3280 C   0  0  1  0  0  3  0  0  0  0  0  0
  161.6440  208.9330  149.3850 O   0  0  0  0  0  0  0  0  0  0  0  0
  161.7520  206.0350  151.1780 C   0  0  2  0  0  3  0  0  0  0  0  0
  162.4180  208.4870  151.4640 C   0  0  0  0  0  2  0  0  0  0  0  0
  161.2400  206.1580  152.4920 O   0  0  0  0  0  0  0  0  0  0  0  0
  161.1290  204.8900  153.0850 C   0  0  0  0  0  1  0  0  0  0  0  0
  159.2420  213.3310  143.7040 C   0  0  0  0  0  2  0  0  0  0  0  0
  160.4490  214.4290  141.9370 O   0  0  0  0  0  1  0  0  0  0  0  0
  159.7170  213.2750  142.2460 C   0  0  2  0  0  0  0  0  0  0  0  0
  158.5270  213.1130  141.2890 C   0  0  0  0  0  2  0  0  0  0  0  0
  157.1010  213.2010  139.0090 O   0  0  0  0  0  0  0  0  0  0  0  0
  157.8770  214.4530  140.9080 C   0  0  2  0  0  3  0  0  0  0  0  0
  156.4090  214.3340  140.9550 N   0  0  2  0  0  0  0  0  0  0  0  0
  155.9800  213.5730  139.7680 C   0  0  1  0  0  3  0  0  0  0  0  0
  157.1060  214.4510  139.6500 C   0  0  2  0  0  0  0  0  0  0  0  0
  160.6210  212.0510  142.1000 C   0  0  0  0  0  2  0  0  0  0  0  0
  161.1070  211.8840  140.6610 C   0  0  0  0  0  2  0  0  0  0  0  0
  160.0140  211.6250  137.8820 C   0  0  0  0  0  1  0  0  0  0  0  0
  159.1820  209.2960  138.5000 C   0  0  2  0  0  3  0  0  0  0  0  0
  159.6020  210.6810  139.0180 C   0  0  1  0  0  3  0  0  0  0  0  0
  160.3780  208.5470  137.9230 C   0  0  0  0  0  2  0  0  0  0  0  0
  162.6450  210.4140  138.6180 O   0  0  0  0  0  1  0  0  0  0  0  0
  161.4460  208.3640  139.0010 C   0  0  0  0  0  2  0  0  0  0  0  0
  161.9080  209.7070  139.5740 C   0  0  2  0  0  3  0  0  0  0  0  0
  160.7070  210.5290  140.0820 C   0  0  1  0  0  3  0  0  0  0  0  0
  158.0490  209.3750  137.4840 C   0  0  0  0  0  2  0  0  0  0  0  0
  156.7180  209.5130  138.1990 C   0  0  0  0  0  2  0  0  0  0  0  0
  155.7630  210.3150  137.3440 C   0  0  0  0  0  1  0  0  0  0  0  0
  1 10  1  0  0  0  0
  2  6  1  0  0  0  0
  3 36  1  6  0  0  0
  3  2  1  0  0  0  0
  3  1  1  0  0  0  0
  4  7  1  0  0  0  0
  5 11  1  0  0  0  0
  6  9  1  0  0  0  0
  7 11  1  0  0  0  0
  7 12  1  6  0  0  0
  9 10  2  0  0  0  0
  9  4  1  0  0  0  0
 10  5  1  0  0  0  0
 11  8  2  0  0  0  0
 13 12  1  6  0  0  0
 14 19  1  0  0  0  0
 15 16  2  0  0  0  0
 15 21  1  0  0  0  0
 17 20  1  0  0  0  0
 19 21  1  0  0  0  0
 19 17  1  0  0  0  0
 19 20  1  0  0  0  0
 21 18  2  0  0  0  0
 22 23  1  1  0  0  0
 22 15  1  0  0  0  0
 24 13  1  6  0  0  0
 24 22  1  0  0  0  0
 24 14  1  0  0  0  0
 25 32  1  0  0  0  0
 25 33  1  1  0  0  0
 26 27  2  0  0  0  0
 27 29  1  0  0  0  0
 28 13  1  0  0  0  0
 28 33  1  0  0  0  0
 29 32  1  0  0  0  0
 30 27  1  1  0  0  0
 30 31  1  0  0  0  0
 30 25  1  0  0  0  0
 31 28  1  0  0  0  0
 32 34  1  1  0  0  0
 34 35  1  0  0  0  0
 38 37  1  6  0  0  0
 38 36  1  0  0  0  0
 39 38  1  0  0  0  0
 40 44  1  0  0  0  0
 40 43  1  0  0  0  0
 41 42  1  0  0  0  0
 41 39  1  6  0  0  0
 43 42  1  0  0  0  0
 44 43  1  0  0  0  0
 44 41  1  0  0  0  0
 44 42  1  0  0  0  0
 45 38  1  0  0  0  0
 46 45  1  0  0  0  0
 47 49  1  0  0  0  0
 48 49  1  0  0  0  0
 49 54  1  0  0  0  0
 50 48  1  0  0  0  0
 50 52  1  0  0  0  0
 51 53  1  0  0  0  0
 52 53  1  0  0  0  0
 53 54  1  0  0  0  0
 54 46  1  0  0  0  0
 55 56  1  0  0  0  0
 55 48  1  0  0  0  0
 57 56  1  0  0  0  0
M  END
>  <MODEL>
1

>  <REMARK>
 VINA RESULT:      -6.0      0.000      0.000
  Name = 
  14 active torsions:
  status: ('A' for Active; 'I' for Inactive)
    1  A    between atoms: C_1  and  C_44
    2  A    between atoms: C_1  and  C_50
    3  A    between atoms: C_8  and  C_39
    4  A    between atoms: C_10  and  C_39
    5  A    between atoms: C_11  and  C_43
    6  A    between atoms: C_13  and  C_23
    7  A    between atoms: C_13  and  C_28
    8  A    between atoms: O_25  and  C_48
    9  A    between atoms: N_26  and  C_56
   10  A    between atoms: C_28  and  C_43
   11  A    between atoms: C_28  and  C_44
   12  A    between atoms: C_37  and  C_38
   13  A    between atoms: C_37  and  C_56
   14  A    between atoms: C_51  and  C_56
                            x       y       z     vdW  Elec       q    Type
                         _______ _______ _______ _____ _____    ______ ____

>  <TORSDO>
F 14

$$$$
=
 OpenBabel11072414563D

 57 66  0  0  1  0  0  0  0  0999 V2000
  161.9850  206.4450  151.8830 C   0  0  0  0  0  2  0  0  0  0  0  0
  161.4200  205.8530  154.3270 C   0  0  0  0  0  2  0  0  0  0  0  0
  161.6470  205.3400  152.9040 C   0  0  1  0  0  3  0  0  0  0  0  0
  160.9960  209.5130  153.9280 N   0  0  0  0  0  2  0  0  0  0  0  0
  162.4560  208.9140  151.6410 N   0  0  0  0  0  2  0  0  0  0  0  0
  160.5060  207.0690  154.3160 C   0  0  0  0  0  2  0  0  0  0  0  0
  161.2930  210.6610  153.0690 C   0  0  1  0  0  3  0  0  0  0  0  0
  162.9810  211.1790  151.4530 O   0  0  0  0  0  0  0  0  0  0  0  0
  161.1250  208.1530  153.4920 C   0  0  0  0  0  0  0  0  0  0  0  0
  161.8160  207.8630  152.3740 C   0  0  0  0  0  0  0  0  0  0  0  0
  162.2960  210.2860  152.0200 C   0  0  0  0  0  0  0  0  0  0  0  0
  160.0200  211.1450  152.3930 C   0  0  0  0  0  2  0  0  0  0  0  0
  159.9320  212.6750  152.4530 C   0  0  1  0  0  3  0  0  0  0  0  0
  158.0870  212.7130  150.6650 C   0  0  0  0  0  2  0  0  0  0  0  0
  160.0370  213.9210  148.7610 C   0  0  0  0  0  0  0  0  0  0  0  0
  160.8920  214.4530  148.0030 O   0  0  0  0  0  0  0  0  0  0  0  0
  156.6720  214.4530  149.7660 O   0  0  0  0  0  0  0  0  0  0  0  0
  158.1950  214.4220  147.2330 C   0  0  0  0  0  2  0  0  0  0  0  0
  157.6200  213.5070  149.4570 C   0  0  0  0  0  0  0  0  0  0  0  0
  156.3070  213.3480  149.0820 O   0  0  0  0  0  0  0  0  0  0  0  0
  158.6010  213.9550  148.4120 C   0  0  0  0  0  0  0  0  0  0  0  0
  160.5000  213.1920  149.9910 C   0  0  2  0  0  3  0  0  0  0  0  0
  160.7800  211.8800  149.6510 F   0  0  0  0  0  0  0  0  0  0  0  0
  159.4460  213.2600  151.1120 C   0  0  2  0  0  3  0  0  0  0  0  0
  158.3360  212.3360  155.6490 C   0  0  2  0  0  3  0  0  0  0  0  0
  155.4530  214.0190  154.3530 O   0  0  0  0  0  0  0  0  0  0  0  0
  156.4480  213.5920  154.9900 C   0  0  0  0  0  0  0  0  0  0  0  0
  159.0660  213.0960  153.5590 N   0  0  0  0  0  0  0  0  0  0  0  0
  156.9540  214.2370  156.0960 O   0  0  0  0  0  0  0  0  0  0  0  0
  157.2300  212.3910  154.6080 C   0  0  1  0  0  3  0  0  0  0  0  0
  157.8170  212.5810  153.3440 O   0  0  0  0  0  0  0  0  0  0  0  0
  158.0730  213.5290  156.6080 C   0  0  2  0  0  3  0  0  0  0  0  0
  159.5530  212.5000  154.7940 C   0  0  0  0  0  2  0  0  0  0  0  0
  159.2000  214.3430  156.8790 O   0  0  0  0  0  0  0  0  0  0  0  0
  160.2910  213.5450  157.2570 C   0  0  0  0  0  1  0  0  0  0  0  0
  160.4720  204.4950  152.4140 C   0  0  0  0  0  2  0  0  0  0  0  0
  159.4170  203.8620  150.3470 O   0  0  0  0  0  1  0  0  0  0  0  0
  160.6580  203.9500  150.9910 C   0  0  2  0  0  0  0  0  0  0  0  0
  161.3560  202.5820  151.0160 C   0  0  0  0  0  2  0  0  0  0  0  0
  160.7660  202.1010  148.4360 O   0  0  0  0  0  0  0  0  0  0  0  0
  160.4010  201.4160  150.7100 C   0  0  2  0  0  3  0  0  0  0  0  0
  161.1180  200.3560  149.9790 N   0  0  2  0  0  0  0  0  0  0  0  0
  161.3050  200.8140  148.5910 C   0  0  1  0  0  3  0  0  0  0  0  0
  160.1080  201.1910  149.2810 C   0  0  2  0  0  0  0  0  0  0  0  0
  161.5510  204.9310  150.2320 C   0  0  0  0  0  2  0  0  0  0  0  0
  160.8780  205.4250  148.9520 C   0  0  0  0  0  2  0  0  0  0  0  0
  159.9930  206.2000  146.1960 C   0  0  0  0  0  1  0  0  0  0  0  0
  161.1250  204.0930  145.3140 C   0  0  2  0  0  3  0  0  0  0  0  0
  160.4970  204.7910  146.5310 C   0  0  1  0  0  3  0  0  0  0  0  0
  162.4280  204.7750  144.9100 C   0  0  0  0  0  2  0  0  0  0  0  0
  162.7690  206.7810  147.1400 O   0  0  0  0  0  1  0  0  0  0  0  0
  163.4210  204.7270  146.0720 C   0  0  0  0  0  2  0  0  0  0  0  0
  162.8580  205.3980  147.3280 C   0  0  2  0  0  3  0  0  0  0  0  0
  161.4920  204.7910  147.7080 C   0  0  1  0  0  3  0  0  0  0  0  0
  160.1670  204.0100  144.1330 C   0  0  0  0  0  2  0  0  0  0  0  0
  159.3120  202.7620  144.2430 C   0  0  0  0  0  2  0  0  0  0  0  0
  160.0510  201.7080  145.0350 C   0  0  0  0  0  1  0  0  0  0  0  0
  1 10  1  0  0  0  0
  1  3  1  0  0  0  0
  3 36  1  6  0  0  0
  3  2  1  0  0  0  0
  5 11  1  0  0  0  0
  5 10  1  0  0  0  0
  6  2  1  0  0  0  0
  7 12  1  6  0  0  0
  7  4  1  0  0  0  0
  8 11  2  0  0  0  0
  9  4  1  0  0  0  0
  9  6  1  0  0  0  0
 10  9  2  0  0  0  0
 11  7  1  0  0  0  0
 13 12  1  6  0  0  0
 13 28  1  0  0  0  0
 14 24  1  0  0  0  0
 15 22  1  0  0  0  0
 16 15  2  0  0  0  0
 18 21  2  0  0  0  0
 19 17  1  0  0  0  0
 19 14  1  0  0  0  0
 20 19  1  0  0  0  0
 20 17  1  0  0  0  0
 21 15  1  0  0  0  0
 21 19  1  0  0  0  0
 22 23  1  6  0  0  0
 22 24  1  0  0  0  0
 24 13  1  1  0  0  0
 25 33  1  6  0  0  0
 25 32  1  0  0  0  0
 26 27  2  0  0  0  0
 27 29  1  0  0  0  0
 28 33  1  0  0  0  0
 29 32  1  0  0  0  0
 30 31  1  6  0  0  0
 30 27  1  0  0  0  0
 30 25  1  0  0  0  0
 31 28  1  0  0  0  0
 32 34  1  6  0  0  0
 34 35  1  0  0  0  0
 38 37  1  6  0  0  0
 38 39  1  0  0  0  0
 38 36  1  0  0  0  0
 40 43  1  0  0  0  0
 40 44  1  0  0  0  0
 41 39  1  6  0  0  0
 42 41  1  0  0  0  0
 43 44  1  0  0  0  0
 43 42  1  0  0  0  0
 44 42  1  0  0  0  0
 44 41  1  0  0  0  0
 45 38  1  0  0  0  0
 46 45  1  0  0  0  0
 47 49  1  0  0  0  0
 48 49  1  0  0  0  0
 49 54  1  0  0  0  0
 50 48  1  0  0  0  0
 50 52  1  0  0  0  0
 51 53  1  0  0  0  0
 52 53  1  0  0  0  0
 53 54  1  0  0  0  0
 54 46  1  0  0  0  0
 55 56  1  0  0  0  0
 55 48  1  0  0  0  0
 56 57  1  0  0  0  0
M  END
>  <MODEL>
2

>  <REMARK>
 VINA RESULT:      -3.7      5.406      9.786
  Name = 
  14 active torsions:
  status: ('A' for Active; 'I' for Inactive)
    1  A    between atoms: C_1  and  C_44
    2  A    between atoms: C_1  and  C_50
    3  A    between atoms: C_8  and  C_39
    4  A    between atoms: C_10  and  C_39
    5  A    between atoms: C_11  and  C_43
    6  A    between atoms: C_13  and  C_23
    7  A    between atoms: C_13  and  C_28
    8  A    between atoms: O_25  and  C_48
    9  A    between atoms: N_26  and  C_56
   10  A    between atoms: C_28  and  C_43
   11  A    between atoms: C_28  and  C_44
   12  A    between atoms: C_37  and  C_38
   13  A    between atoms: C_37  and  C_56
   14  A    between atoms: C_51  and  C_56
                            x       y       z     vdW  Elec       q    Type
                         _______ _______ _______ _____ _____    ______ ____

>  <TORSDO>
F 14

$$$$
