=
 OpenBabel11072412043D

 45 52  0  0  1  0  0  0  0  0999 V2000
  162.5470  210.3860  153.6900 C   0  0  0  0  0  2  0  0  0  0  0  0
  160.2810  209.9520  156.0390 C   0  0  1  0  0  3  0  0  0  0  0  0
  160.4060  212.7560  149.8670 O   0  0  0  0  0  0  0  0  0  0  0  0
  157.8170  214.0040  152.0460 C   0  0  0  0  0  2  0  0  0  0  0  0
  161.9490  209.1060  154.2770 C   0  0  0  0  0  2  0  0  0  0  0  0
  161.1530  210.7400  151.0410 C   0  0  0  0  0  0  0  0  0  0  0  0
  159.2870  208.9020  156.1460 N   0  0  0  0  0  2  0  0  0  0  0  0
  159.7710  207.7440  156.4110 C   0  0  1  0  0  3  0  0  0  0  0  0
  161.2740  209.4230  150.7960 C   0  0  0  0  0  3  0  0  0  0  0  0
  160.9210  211.8750  154.6850 O   0  0  0  0  0  0  0  0  0  0  0  0
  159.4690  212.9980  150.8710 C   0  0  0  0  0  0  0  0  0  0  0  0
  158.0400  211.4450  152.2350 C   0  0  0  0  0  2  0  0  0  0  0  0
  161.4960  211.4790  153.4560 C   0  0  2  0  0  3  0  0  0  0  0  0
  158.6340  213.9760  150.8350 N   0  0  0  0  0  0  0  0  0  0  0  0
  160.4790  211.1130  152.3410 C   0  0  1  0  0  3  0  0  0  0  0  0
  161.5260  211.9080  150.1180 C   0  0  1  0  0  3  0  0  0  0  0  0
  161.6370  209.2730  155.7640 C   0  0  2  0  0  3  0  0  0  0  0  0
  158.4780  212.9960  154.3850 C   0  0  0  0  0  2  0  0  0  0  0  0
  159.8690  210.9880  154.9880 C   0  0  2  0  0  3  0  0  0  0  0  0
  158.9380  206.5950  156.4660 N   0  0  0  0  0  1  0  0  0  0  0  0
  161.5450  207.6220  156.5260 S   0  0  0  0  0  0  0  0  0  0  0  0
  158.5610  211.7410  155.2600 C   0  0  1  0  0  3  0  0  0  0  0  0
  159.3830  212.1680  152.0850 C   0  0  1  0  0  0  0  0  0  0  0  0
  158.2460  212.7910  152.8840 C   0  0  2  0  0  0  0  0  0  0  0  0
  161.1710  207.4400  149.3680 C   0  0  2  0  0  3  0  0  0  0  0  0
  161.8480  208.7780  149.5840 C   0  0  2  0  0  3  0  0  0  0  0  0
  162.5530  207.5010  149.9860 C   0  0  0  0  0  2  0  0  0  0  0  0
  161.2730  207.0790  147.8960 C   0  0  0  0  0  2  0  0  0  0  0  0
  161.5680  205.3180  146.3710 C   0  0  0  0  0  2  0  0  0  0  0  0
  161.9040  204.9870  148.7160 C   0  0  0  0  0  2  0  0  0  0  0  0
  161.2550  203.6710  149.1370 C   0  0  2  0  0  3  0  0  0  0  0  0
  161.2540  202.6750  147.9700 C   0  0  2  0  0  3  0  0  0  0  0  0
  161.0800  205.6530  147.7110 N   0  0  0  0  0  0  0  0  0  0  0  0
  160.5390  203.1760  146.8670 O   0  0  0  0  0  0  0  0  0  0  0  0
  159.9700  203.9110  149.5940 F   0  0  0  0  0  0  0  0  0  0  0  0
  161.5010  203.8110  146.0730 C   0  0  0  0  0  2  0  0  0  0  0  0
  160.7550  201.2900  148.3760 C   0  0  0  0  0  2  0  0  0  0  0  0
  161.5650  200.1680  147.7430 C   0  0  0  0  0  1  0  0  0  0  0  0
  161.5210  211.7550  147.5840 C   0  0  0  0  0  1  0  0  0  0  0  0
  163.4310  212.6030  148.7840 O   0  0  0  0  0  1  0  0  0  0  0  0
  162.3550  211.7180  148.8490 C   0  0  1  0  0  3  0  0  0  0  0  0
  158.4590  212.1590  156.7230 C   0  0  0  0  0  2  0  0  0  0  0  0
  156.0230  211.7840  157.0940 O   0  0  0  0  0  0  0  0  0  0  0  0
  156.9090  213.8910  157.2610 O   0  0  0  0  0  1  0  0  0  0  0  0
  157.0920  212.6660  157.0330 C   0  0  0  0  0  0  0  0  0  0  0  0
  1  5  1  0  0  0  0
  2  7  1  6  0  0  0
  3 16  1  0  0  0  0
  3 11  1  0  0  0  0
  7  8  1  0  0  0  0
  8 20  1  6  0  0  0
  8 21  1  0  0  0  0
  9  6  2  0  0  0  0
 11 23  1  0  0  0  0
 12 24  1  0  0  0  0
 13  1  1  1  0  0  0
 13 10  1  0  0  0  0
 14 11  2  0  0  0  0
 14  4  1  0  0  0  0
 15  6  1  6  0  0  0
 15 13  1  0  0  0  0
 16 41  1  6  0  0  0
 16  6  1  0  0  0  0
 17  5  1  6  0  0  0
 17  2  1  0  0  0  0
 17 21  1  0  0  0  0
 18 22  1  0  0  0  0
 19 10  1  1  0  0  0
 19 22  1  0  0  0  0
 19  2  1  0  0  0  0
 22 42  1  1  0  0  0
 23 12  1  6  0  0  0
 23 15  1  0  0  0  0
 23 24  1  0  0  0  0
 24  4  1  6  0  0  0
 24 18  1  0  0  0  0
 25 28  1  6  0  0  0
 25 26  1  0  0  0  0
 25 27  1  0  0  0  0
 26 27  1  0  0  0  0
 26  9  1  1  0  0  0
 29 33  1  0  0  0  0
 30 31  1  0  0  0  0
 31 35  1  6  0  0  0
 32 37  1  1  0  0  0
 32 31  1  0  0  0  0
 33 28  1  0  0  0  0
 33 30  1  0  0  0  0
 34 32  1  0  0  0  0
 36 29  1  0  0  0  0
 36 34  1  0  0  0  0
 38 37  1  0  0  0  0
 40 41  1  0  0  0  0
 41 39  1  6  0  0  0
 42 45  1  0  0  0  0
 45 43  2  0  0  0  0
 45 44  1  0  0  0  0
M  END
>  <MODEL>
1

>  <REMARK>
 VINA RESULT:      -4.0      0.000      0.000
  Name = 
  7 active torsions:
  status: ('A' for Active; 'I' for Inactive)
    1  A    between atoms: C_4  and  C_35
    2  A    between atoms: C_4  and  C_40
    3  A    between atoms: C_5  and  C_43
    4  A    between atoms: C_15  and  C_16
    5  A    between atoms: C_19  and  C_25
    6  A    between atoms: N_21  and  C_43
    7  A    between atoms: C_31  and  C_44
                            x       y       z     vdW  Elec       q    Type
                         _______ _______ _______ _____ _____    ______ ____

>  <TORSDO>
F 7

$$$$
