=
 OpenBabel11072411163D

 28 32  0  0  1  0  0  0  0  0999 V2000
  159.2270  211.9770  155.0440 C   0  0  0  0  0  0  0  0  0  0  0  0
  160.1190  210.9230  154.3810 C   0  0  0  0  0  0  0  0  0  0  0  0
  163.3420  210.8210  155.3770 O   0  0  0  0  0  1  0  0  0  0  0  0
  160.6720  212.1450  157.2590 C   0  0  0  0  0  2  0  0  0  0  0  0
  158.3810  213.7200  156.9940 Cl  0  0  0  0  0  0  0  0  0  0  0  0
  162.1970  210.2150  155.8920 C   0  0  2  0  0  3  0  0  0  0  0  0
  161.0950  210.6390  155.1820 C   0  0  0  0  0  0  0  0  0  0  0  0
  161.4230  211.1640  156.5410 N   0  0  0  0  0  0  0  0  0  0  0  0
  159.4750  212.5130  156.3240 C   0  0  0  0  0  0  0  0  0  0  0  0
  158.0130  212.4670  154.2950 C   0  0  1  0  0  3  0  0  0  0  0  0
  156.7790  212.1800  155.0050 N   0  0  0  0  0  0  0  0  0  0  0  0
  155.9090  213.2490  155.2660 N   0  0  0  0  0  2  0  0  0  0  0  0
  156.3060  214.3510  154.3980 C   0  0  0  0  0  2  0  0  0  0  0  0
  158.0860  214.2530  154.0390 S   0  0  0  0  0  0  0  0  0  0  0  0
  155.2370  210.3310  155.0260 C   0  0  0  0  0  2  0  0  0  0  0  0
  156.4250  210.8330  155.3370 C   0  0  0  0  0  3  0  0  0  0  0  0
  161.4760  208.9500  151.8590 C   0  0  0  0  0  0  0  0  0  0  0  0
  160.4630  208.9080  152.9420 C   0  0  0  0  0  2  0  0  0  0  0  0
  160.7070  211.1420  151.9640 C   0  0  0  0  0  2  0  0  0  0  0  0
  161.6150  210.1550  151.3220 C   0  0  0  0  0  3  0  0  0  0  0  0
  159.9370  210.3380  153.0120 C   0  0  2  0  0  3  0  0  0  0  0  0
  160.0940  205.4160  149.6750 C   0  0  0  0  0  1  0  0  0  0  0  0
  161.9140  206.9520  149.1910 N   0  0  0  0  0  2  0  0  0  0  0  0
  161.3970  206.4950  151.4900 C   0  0  2  0  0  3  0  0  0  0  0  0
  161.4640  205.9070  150.0980 C   0  0  1  0  0  3  0  0  0  0  0  0
  162.2550  207.7380  151.4370 C   0  0  1  0  0  3  0  0  0  0  0  0
  162.7200  207.8570  149.9970 C   0  0  0  0  0  2  0  0  0  0  0  0
  161.9710  205.5150  152.4940 C   0  0  0  0  0  1  0  0  0  0  0  0
  1  9  2  0  0  0  0
  2  1  1  0  0  0  0
  2  7  2  0  0  0  0
  6  3  1  6  0  0  0
  6  8  1  0  0  0  0
  7  6  1  0  0  0  0
  7  8  1  0  0  0  0
  8  4  1  0  0  0  0
  9  5  1  0  0  0  0
  9  4  1  0  0  0  0
 10 11  1  0  0  0  0
 10  1  1  1  0  0  0
 11 12  1  0  0  0  0
 11 16  1  0  0  0  0
 13 12  1  0  0  0  0
 14 10  1  0  0  0  0
 14 13  1  0  0  0  0
 15 16  2  0  0  0  0
 17 18  1  0  0  0  0
 18 21  1  0  0  0  0
 19 21  1  0  0  0  0
 20 17  2  0  0  0  0
 20 19  1  0  0  0  0
 21  2  1  1  0  0  0
 23 27  1  0  0  0  0
 23 25  1  0  0  0  0
 24 28  1  1  0  0  0
 25 22  1  6  0  0  0
 25 24  1  0  0  0  0
 26 24  1  0  0  0  0
 26 17  1  6  0  0  0
 27 26  1  0  0  0  0
M  END
>  <MODEL>
1

>  <REMARK>
 VINA RESULT:      -6.0      0.000      0.000
  Name = 
  4 active torsions:
  status: ('A' for Active; 'I' for Inactive)
    1  A    between atoms: C_1  and  C_2
    2  A    between atoms: N_3  and  C_26
    3  A    between atoms: C_5  and  C_28
    4  A    between atoms: C_11  and  C_13
                            x       y       z     vdW  Elec       q    Type
                         _______ _______ _______ _____ _____    ______ ____

>  <TORSDO>
F 4

$$$$
=
 OpenBabel11072411163D

 28 32  0  0  1  0  0  0  0  0999 V2000
  161.5010  202.8210  147.6330 C   0  0  0  0  0  0  0  0  0  0  0  0
  161.4100  203.9800  148.6300 C   0  0  0  0  0  0  0  0  0  0  0  0
  159.5610  203.4520  151.4030 O   0  0  0  0  0  1  0  0  0  0  0  0
  161.0350  200.9300  149.4300 C   0  0  0  0  0  2  0  0  0  0  0  0
  161.4670  200.2120  146.7660 Cl  0  0  0  0  0  0  0  0  0  0  0  0
  160.8970  203.1780  151.1190 C   0  0  2  0  0  3  0  0  0  0  0  0
  161.1620  203.5000  149.8060 C   0  0  0  0  0  0  0  0  0  0  0  0
  160.9740  202.0900  150.2620 N   0  0  0  0  0  0  0  0  0  0  0  0
  161.3380  201.4680  147.9950 C   0  0  0  0  0  0  0  0  0  0  0  0
  161.7870  203.1360  146.1860 C   0  0  1  0  0  3  0  0  0  0  0  0
  160.5750  203.4190  145.4370 N   0  0  0  0  0  0  0  0  0  0  0  0
  160.5080  204.6290  144.7310 N   0  0  0  0  0  2  0  0  0  0  0  0
  161.8690  205.1410  144.6220 C   0  0  0  0  0  2  0  0  0  0  0  0
  162.8630  204.5780  146.0360 S   0  0  0  0  0  0  0  0  0  0  0  0
  159.6330  201.3820  144.5640 C   0  0  0  0  0  2  0  0  0  0  0  0
  159.5280  202.4460  145.3490 C   0  0  0  0  0  3  0  0  0  0  0  0
  161.7490  207.2100  149.8730 C   0  0  0  0  0  0  0  0  0  0  0  0
  162.5370  206.1290  149.2310 C   0  0  0  0  0  2  0  0  0  0  0  0
  160.2000  206.1600  148.4940 C   0  0  0  0  0  2  0  0  0  0  0  0
  160.4830  207.2360  149.4800 C   0  0  0  0  0  3  0  0  0  0  0  0
  161.5350  205.4400  148.3100 C   0  0  2  0  0  3  0  0  0  0  0  0
  159.7340  210.0840  152.4910 C   0  0  0  0  0  1  0  0  0  0  0  0
  161.2900  208.2940  153.0220 N   0  0  0  0  0  2  0  0  0  0  0  0
  161.5590  209.4480  150.9340 C   0  0  2  0  0  3  0  0  0  0  0  0
  161.1660  209.5980  152.3880 C   0  0  1  0  0  3  0  0  0  0  0  0
  162.3490  208.1610  150.8680 C   0  0  1  0  0  3  0  0  0  0  0  0
  162.3150  207.5830  152.2710 C   0  0  0  0  0  2  0  0  0  0  0  0
  162.4330  210.6120  150.5130 C   0  0  0  0  0  1  0  0  0  0  0  0
  1  9  2  0  0  0  0
  1  2  1  0  0  0  0
  2  7  2  0  0  0  0
  4  8  1  0  0  0  0
  5  9  1  0  0  0  0
  6  3  1  6  0  0  0
  7  8  1  0  0  0  0
  7  6  1  0  0  0  0
  8  6  1  0  0  0  0
  9  4  1  0  0  0  0
 10  1  1  1  0  0  0
 11 10  1  0  0  0  0
 12 11  1  0  0  0  0
 13 12  1  0  0  0  0
 13 14  1  0  0  0  0
 14 10  1  0  0  0  0
 15 16  2  0  0  0  0
 16 11  1  0  0  0  0
 18 17  1  0  0  0  0
 19 20  1  0  0  0  0
 20 17  2  0  0  0  0
 21 19  1  0  0  0  0
 21  2  1  1  0  0  0
 21 18  1  0  0  0  0
 24 28  1  1  0  0  0
 24 25  1  0  0  0  0
 25 22  1  6  0  0  0
 25 23  1  0  0  0  0
 26 17  1  6  0  0  0
 26 24  1  0  0  0  0
 26 27  1  0  0  0  0
 27 23  1  0  0  0  0
M  END
>  <MODEL>
2

>  <REMARK>
 VINA RESULT:      -5.3      5.646     10.080
  Name = 
  4 active torsions:
  status: ('A' for Active; 'I' for Inactive)
    1  A    between atoms: C_1  and  C_2
    2  A    between atoms: N_3  and  C_26
    3  A    between atoms: C_5  and  C_28
    4  A    between atoms: C_11  and  C_13
                            x       y       z     vdW  Elec       q    Type
                         _______ _______ _______ _____ _____    ______ ____

>  <TORSDO>
F 4

$$$$
=
 OpenBabel11072411163D

 28 32  0  0  1  0  0  0  0  0999 V2000
  161.3470  209.6790  151.7930 C   0  0  0  0  0  0  0  0  0  0  0  0
  161.7080  210.0850  150.3610 C   0  0  0  0  0  0  0  0  0  0  0  0
  162.9790  207.6710  148.3750 O   0  0  0  0  0  1  0  0  0  0  0  0
  160.9750  207.1180  151.2210 C   0  0  0  0  0  2  0  0  0  0  0  0
  160.6140  208.0040  153.8450 Cl  0  0  0  0  0  0  0  0  0  0  0  0
  161.6640  208.0410  148.6520 C   0  0  2  0  0  3  0  0  0  0  0  0
  161.6590  209.0370  149.6040 C   0  0  0  0  0  0  0  0  0  0  0  0
  161.3250  207.6180  149.9290 N   0  0  0  0  0  0  0  0  0  0  0  0
  161.0180  208.3610  152.1680 C   0  0  0  0  0  0  0  0  0  0  0  0
  161.3340  210.7430  152.8620 C   0  0  1  0  0  3  0  0  0  0  0  0
  160.0130  210.9260  153.4360 N   0  0  0  0  0  0  0  0  0  0  0  0
  159.8840  210.8260  154.8290 N   0  0  0  0  0  2  0  0  0  0  0  0
  161.2220  210.9380  155.3960 C   0  0  0  0  0  2  0  0  0  0  0  0
  162.4560  210.3200  154.2120 S   0  0  0  0  0  0  0  0  0  0  0  0
  158.4260  212.5320  152.5970 C   0  0  0  0  0  2  0  0  0  0  0  0
  158.9030  211.2940  152.6100 C   0  0  0  0  0  3  0  0  0  0  0  0
  160.8400  212.8870  148.4910 C   0  0  0  0  0  0  0  0  0  0  0  0
  160.9120  212.4090  149.8940 C   0  0  0  0  0  2  0  0  0  0  0  0
  162.6450  211.4210  148.4700 C   0  0  0  0  0  2  0  0  0  0  0  0
  161.7740  212.3590  147.7120 C   0  0  0  0  0  3  0  0  0  0  0  0
  162.1040  211.4570  149.8990 C   0  0  2  0  0  3  0  0  0  0  0  0
  157.1130  212.1170  146.3250 C   0  0  0  0  0  1  0  0  0  0  0  0
  157.5020  213.2810  148.4230 N   0  0  0  0  0  2  0  0  0  0  0  0
  159.1860  213.4230  146.7170 C   0  0  2  0  0  3  0  0  0  0  0  0
  157.6970  213.3510  146.9820 C   0  0  1  0  0  3  0  0  0  0  0  0
  159.8000  213.8640  148.0260 C   0  0  1  0  0  3  0  0  0  0  0  0
  158.6500  213.9550  149.0120 C   0  0  0  0  0  2  0  0  0  0  0  0
  159.4700  214.4530  145.6420 C   0  0  0  0  0  1  0  0  0  0  0  0
  1  9  2  0  0  0  0
  2  1  1  0  0  0  0
  4  9  1  0  0  0  0
  6  3  1  1  0  0  0
  6  7  1  0  0  0  0
  6  8  1  0  0  0  0
  7  8  1  0  0  0  0
  7  2  2  0  0  0  0
  8  4  1  0  0  0  0
  9  5  1  0  0  0  0
 10  1  1  6  0  0  0
 10 11  1  0  0  0  0
 10 14  1  0  0  0  0
 11 12  1  0  0  0  0
 12 13  1  0  0  0  0
 14 13  1  0  0  0  0
 15 16  2  0  0  0  0
 16 11  1  0  0  0  0
 17 18  1  0  0  0  0
 18 21  1  0  0  0  0
 19 21  1  0  0  0  0
 20 19  1  0  0  0  0
 20 17  2  0  0  0  0
 21  2  1  6  0  0  0
 23 27  1  0  0  0  0
 24 28  1  6  0  0  0
 24 25  1  0  0  0  0
 24 26  1  0  0  0  0
 25 22  1  6  0  0  0
 25 23  1  0  0  0  0
 26 17  1  1  0  0  0
 26 27  1  0  0  0  0
M  END
>  <MODEL>
3

>  <REMARK>
 VINA RESULT:      -5.3      4.184      6.473
  Name = 
  4 active torsions:
  status: ('A' for Active; 'I' for Inactive)
    1  A    between atoms: C_1  and  C_2
    2  A    between atoms: N_3  and  C_26
    3  A    between atoms: C_5  and  C_28
    4  A    between atoms: C_11  and  C_13
                            x       y       z     vdW  Elec       q    Type
                         _______ _______ _______ _____ _____    ______ ____

>  <TORSDO>
F 4

$$$$
=
 OpenBabel11072411163D

 28 32  0  0  1  0  0  0  0  0999 V2000
  161.3700  204.7130  148.7000 C   0  0  0  0  0  0  0  0  0  0  0  0
  161.6670  205.1690  150.1310 C   0  0  0  0  0  0  0  0  0  0  0  0
  160.2010  203.4200  152.6170 O   0  0  0  0  0  1  0  0  0  0  0  0
  160.8170  202.2080  149.3650 C   0  0  0  0  0  2  0  0  0  0  0  0
  160.6810  202.9760  146.6830 Cl  0  0  0  0  0  0  0  0  0  0  0  0
  161.3950  203.2200  151.9270 C   0  0  2  0  0  3  0  0  0  0  0  0
  161.5130  204.1630  150.9310 C   0  0  0  0  0  0  0  0  0  0  0  0
  161.1200  202.7500  150.6520 N   0  0  0  0  0  0  0  0  0  0  0  0
  160.9970  203.3950  148.3650 C   0  0  0  0  0  0  0  0  0  0  0  0
  161.4860  205.7200  147.5830 C   0  0  1  0  0  3  0  0  0  0  0  0
  162.2000  205.1860  146.4370 N   0  0  0  0  0  0  0  0  0  0  0  0
  161.5680  205.2470  145.1850 N   0  0  0  0  0  2  0  0  0  0  0  0
  160.4740  206.2030  145.3000 C   0  0  0  0  0  2  0  0  0  0  0  0
  159.8570  206.2450  147.0090 S   0  0  0  0  0  0  0  0  0  0  0  0
  164.1070  203.9530  145.6360 C   0  0  0  0  0  2  0  0  0  0  0  0
  163.5410  204.7050  146.5710 C   0  0  0  0  0  3  0  0  0  0  0  0
  161.5590  207.5470  152.6670 C   0  0  0  0  0  0  0  0  0  0  0  0
  162.4870  206.5880  152.0190 C   0  0  0  0  0  2  0  0  0  0  0  0
  160.8310  207.4990  150.4590 C   0  0  0  0  0  2  0  0  0  0  0  0
  160.6590  208.0470  151.8310 C   0  0  0  0  0  3  0  0  0  0  0  0
  162.0310  206.5590  150.5640 C   0  0  2  0  0  3  0  0  0  0  0  0
  158.9450  210.1350  155.0420 C   0  0  0  0  0  1  0  0  0  0  0  0
  159.6030  207.8210  155.3870 N   0  0  0  0  0  2  0  0  0  0  0  0
  161.1890  209.3130  154.3750 C   0  0  2  0  0  3  0  0  0  0  0  0
  160.0800  209.1960  155.3980 C   0  0  1  0  0  3  0  0  0  0  0  0
  161.6470  207.8940  154.1250 C   0  0  1  0  0  3  0  0  0  0  0  0
  160.7340  207.0130  154.9570 C   0  0  0  0  0  2  0  0  0  0  0  0
  162.3310  210.1320  154.9410 C   0  0  0  0  0  1  0  0  0  0  0  0
  1  2  1  0  0  0  0
  2  7  2  0  0  0  0
  4  8  1  0  0  0  0
  5  9  1  0  0  0  0
  6  3  1  1  0  0  0
  7  6  1  0  0  0  0
  8  7  1  0  0  0  0
  8  6  1  0  0  0  0
  9  1  2  0  0  0  0
  9  4  1  0  0  0  0
 10  1  1  1  0  0  0
 11 16  1  0  0  0  0
 11 10  1  0  0  0  0
 12 13  1  0  0  0  0
 12 11  1  0  0  0  0
 13 14  1  0  0  0  0
 14 10  1  0  0  0  0
 15 16  2  0  0  0  0
 18 17  1  0  0  0  0
 19 21  1  0  0  0  0
 19 20  1  0  0  0  0
 20 17  2  0  0  0  0
 21  2  1  1  0  0  0
 21 18  1  0  0  0  0
 23 25  1  0  0  0  0
 24 28  1  1  0  0  0
 24 25  1  0  0  0  0
 25 22  1  6  0  0  0
 26 17  1  6  0  0  0
 26 24  1  0  0  0  0
 26 27  1  0  0  0  0
 27 23  1  0  0  0  0
M  END
>  <MODEL>
4

>  <REMARK>
 VINA RESULT:      -5.1      4.733      9.212
  Name = 
  4 active torsions:
  status: ('A' for Active; 'I' for Inactive)
    1  A    between atoms: C_1  and  C_2
    2  A    between atoms: N_3  and  C_26
    3  A    between atoms: C_5  and  C_28
    4  A    between atoms: C_11  and  C_13
                            x       y       z     vdW  Elec       q    Type
                         _______ _______ _______ _____ _____    ______ ____

>  <TORSDO>
F 4

$$$$
=
 OpenBabel11072411163D

 28 32  0  0  1  0  0  0  0  0999 V2000
  158.1890  212.4340  153.6860 C   0  0  0  0  0  0  0  0  0  0  0  0
  159.5460  212.0760  153.0740 C   0  0  0  0  0  0  0  0  0  0  0  0
  159.8970  212.5940  149.7580 O   0  0  0  0  0  1  0  0  0  0  0  0
  157.5630  214.2250  151.8360 C   0  0  0  0  0  2  0  0  0  0  0  0
  155.7760  213.7300  153.9240 Cl  0  0  0  0  0  0  0  0  0  0  0  0
  160.0800  213.4420  150.8490 C   0  0  2  0  0  3  0  0  0  0  0  0
  159.7210  212.7850  152.0050 C   0  0  0  0  0  0  0  0  0  0  0  0
  158.8450  213.8090  151.3620 N   0  0  0  0  0  0  0  0  0  0  0  0
  157.3140  213.3920  153.1350 C   0  0  0  0  0  0  0  0  0  0  0  0
  157.7620  211.7320  154.9520 C   0  0  1  0  0  3  0  0  0  0  0  0
  157.7820  212.6180  156.1020 N   0  0  0  0  0  0  0  0  0  0  0  0
  156.6090  212.7300  156.8640 N   0  0  0  0  0  2  0  0  0  0  0  0
  155.7550  211.6030  156.5100 C   0  0  0  0  0  2  0  0  0  0  0  0
  156.0840  211.0830  154.7990 S   0  0  0  0  0  0  0  0  0  0  0  0
  160.0680  212.5880  156.8610 C   0  0  0  0  0  2  0  0  0  0  0  0
  158.9920  213.2740  156.4970 C   0  0  0  0  0  3  0  0  0  0  0  0
  161.4210  209.2390  152.3470 C   0  0  0  0  0  0  0  0  0  0  0  0
  161.5660  210.7030  152.5390 C   0  0  0  0  0  2  0  0  0  0  0  0
  159.7860  209.7400  153.9210 C   0  0  0  0  0  2  0  0  0  0  0  0
  160.4610  208.7070  153.0910 C   0  0  0  0  0  3  0  0  0  0  0  0
  160.5070  211.0440  153.5840 C   0  0  2  0  0  3  0  0  0  0  0  0
  160.2350  206.2800  149.3450 C   0  0  0  0  0  1  0  0  0  0  0  0
  161.5350  208.3200  149.1150 N   0  0  0  0  0  2  0  0  0  0  0  0
  161.7260  207.0780  151.1600 C   0  0  2  0  0  3  0  0  0  0  0  0
  161.5450  206.9720  149.6610 C   0  0  1  0  0  3  0  0  0  0  0  0
  162.2840  208.4630  151.3950 C   0  0  1  0  0  3  0  0  0  0  0  0
  162.3310  209.1250  150.0300 C   0  0  0  0  0  2  0  0  0  0  0  0
  162.7180  206.0350  151.6360 C   0  0  0  0  0  1  0  0  0  0  0  0
  2  1  1  0  0  0  0
  4  9  1  0  0  0  0
  6  3  1  6  0  0  0
  6  8  1  0  0  0  0
  6  7  1  0  0  0  0
  7  2  2  0  0  0  0
  8  4  1  0  0  0  0
  8  7  1  0  0  0  0
  9  1  2  0  0  0  0
  9  5  1  0  0  0  0
 10  1  1  6  0  0  0
 10 11  1  0  0  0  0
 11 16  1  0  0  0  0
 11 12  1  0  0  0  0
 13 12  1  0  0  0  0
 14 10  1  0  0  0  0
 14 13  1  0  0  0  0
 16 15  2  0  0  0  0
 17 18  1  0  0  0  0
 17 20  2  0  0  0  0
 18 21  1  0  0  0  0
 20 19  1  0  0  0  0
 21  2  1  6  0  0  0
 21 19  1  0  0  0  0
 23 25  1  0  0  0  0
 23 27  1  0  0  0  0
 24 26  1  0  0  0  0
 24 28  1  6  0  0  0
 25 22  1  1  0  0  0
 25 24  1  0  0  0  0
 26 17  1  1  0  0  0
 27 26  1  0  0  0  0
M  END
>  <MODEL>
5

>  <REMARK>
 VINA RESULT:      -4.9      2.280      3.449
  Name = 
  4 active torsions:
  status: ('A' for Active; 'I' for Inactive)
    1  A    between atoms: C_1  and  C_2
    2  A    between atoms: N_3  and  C_26
    3  A    between atoms: C_5  and  C_28
    4  A    between atoms: C_11  and  C_13
                            x       y       z     vdW  Elec       q    Type
                         _______ _______ _______ _____ _____    ______ ____

>  <TORSDO>
F 4

$$$$
=
 OpenBabel11072411163D

 28 32  0  0  1  0  0  0  0  0999 V2000
  160.7990  210.9840  151.7420 C   0  0  0  0  0  0  0  0  0  0  0  0
  161.6520  210.2900  150.6750 C   0  0  0  0  0  0  0  0  0  0  0  0
  161.3690  211.4510  147.5190 O   0  0  0  0  0  1  0  0  0  0  0  0
  160.6140  213.2820  150.4350 C   0  0  0  0  0  2  0  0  0  0  0  0
  159.3720  213.0160  152.9220 Cl  0  0  0  0  0  0  0  0  0  0  0  0
  162.1780  211.8520  148.5810 C   0  0  2  0  0  3  0  0  0  0  0  0
  161.8580  211.1190  149.7030 C   0  0  0  0  0  0  0  0  0  0  0  0
  161.4100  212.5310  149.5160 N   0  0  0  0  0  0  0  0  0  0  0  0
  160.3450  212.3140  151.6320 C   0  0  0  0  0  0  0  0  0  0  0  0
  160.4270  210.2100  152.9830 C   0  0  1  0  0  3  0  0  0  0  0  0
  161.1380  210.6850  154.1570 N   0  0  0  0  0  0  0  0  0  0  0  0
  160.3780  211.0560  155.2770 N   0  0  0  0  0  2  0  0  0  0  0  0
  159.0450  210.4950  155.0990 C   0  0  0  0  0  2  0  0  0  0  0  0
  158.6610  210.3470  153.3280 S   0  0  0  0  0  0  0  0  0  0  0  0
  163.2330  210.7030  155.3450 C   0  0  0  0  0  2  0  0  0  0  0  0
  162.5690  210.6790  154.1960 C   0  0  0  0  0  3  0  0  0  0  0  0
  161.0680  206.9960  149.7250 C   0  0  0  0  0  0  0  0  0  0  0  0
  161.9040  208.1710  149.3730 C   0  0  0  0  0  2  0  0  0  0  0  0
  161.3890  208.0600  151.7670 C   0  0  0  0  0  2  0  0  0  0  0  0
  160.7850  206.9260  151.0190 C   0  0  0  0  0  3  0  0  0  0  0  0
  162.1360  208.8710  150.7090 C   0  0  2  0  0  3  0  0  0  0  0  0
  163.3940  204.8960  146.6670 C   0  0  0  0  0  1  0  0  0  0  0  0
  161.9350  204.0290  148.4060 N   0  0  0  0  0  2  0  0  0  0  0  0
  161.3830  206.1430  147.4130 C   0  0  2  0  0  3  0  0  0  0  0  0
  161.9650  204.7700  147.1540 C   0  0  1  0  0  3  0  0  0  0  0  0
  160.6000  206.0050  148.6990 C   0  0  1  0  0  3  0  0  0  0  0  0
  160.8250  204.5800  149.1680 C   0  0  0  0  0  2  0  0  0  0  0  0
  160.4520  206.5320  146.2820 C   0  0  0  0  0  1  0  0  0  0  0  0
  2  1  1  0  0  0  0
  4  9  1  0  0  0  0
  6  3  1  6  0  0  0
  6  8  1  0  0  0  0
  6  7  1  0  0  0  0
  7  2  2  0  0  0  0
  8  7  1  0  0  0  0
  8  4  1  0  0  0  0
  9  1  2  0  0  0  0
  9  5  1  0  0  0  0
 10  1  1  6  0  0  0
 10 14  1  0  0  0  0
 10 11  1  0  0  0  0
 11 16  1  0  0  0  0
 11 12  1  0  0  0  0
 13 12  1  0  0  0  0
 14 13  1  0  0  0  0
 16 15  2  0  0  0  0
 17 20  2  0  0  0  0
 18 17  1  0  0  0  0
 18 21  1  0  0  0  0
 20 19  1  0  0  0  0
 21  2  1  6  0  0  0
 21 19  1  0  0  0  0
 23 27  1  0  0  0  0
 24 28  1  6  0  0  0
 24 26  1  0  0  0  0
 25 22  1  1  0  0  0
 25 24  1  0  0  0  0
 25 23  1  0  0  0  0
 26 27  1  0  0  0  0
 26 17  1  1  0  0  0
M  END
>  <MODEL>
6

>  <REMARK>
 VINA RESULT:      -4.6      2.931      5.033
  Name = 
  4 active torsions:
  status: ('A' for Active; 'I' for Inactive)
    1  A    between atoms: C_1  and  C_2
    2  A    between atoms: N_3  and  C_26
    3  A    between atoms: C_5  and  C_28
    4  A    between atoms: C_11  and  C_13
                            x       y       z     vdW  Elec       q    Type
                         _______ _______ _______ _____ _____    ______ ____

>  <TORSDO>
F 4

$$$$
=
 OpenBabel11072411163D

 28 32  0  0  1  0  0  0  0  0999 V2000
  160.0750  213.2960  148.4160 C   0  0  0  0  0  0  0  0  0  0  0  0
  159.7150  213.2840  146.9270 C   0  0  0  0  0  0  0  0  0  0  0  0
  156.6270  212.1860  146.1240 O   0  0  0  0  0  1  0  0  0  0  0  0
  157.5710  213.4900  149.2600 C   0  0  0  0  0  2  0  0  0  0  0  0
  159.6440  213.4020  151.1290 Cl  0  0  0  0  0  0  0  0  0  0  0  0
  157.0920  213.4490  146.4860 C   0  0  2  0  0  3  0  0  0  0  0  0
  158.4290  213.3690  146.8080 C   0  0  0  0  0  0  0  0  0  0  0  0
  157.3600  213.4700  147.8460 N   0  0  0  0  0  0  0  0  0  0  0  0
  159.1190  213.3920  149.4470 C   0  0  0  0  0  0  0  0  0  0  0  0
  161.5300  213.2080  148.8060 C   0  0  1  0  0  3  0  0  0  0  0  0
  162.1000  211.9080  148.5000 N   0  0  0  0  0  0  0  0  0  0  0  0
  163.2610  211.8710  147.7130 N   0  0  0  0  0  2  0  0  0  0  0  0
  163.8290  213.2140  147.7160 C   0  0  0  0  0  2  0  0  0  0  0  0
  162.5110  214.4480  147.9350 S   0  0  0  0  0  0  0  0  0  0  0  0
  161.9590  209.5120  148.6930 C   0  0  0  0  0  2  0  0  0  0  0  0
  161.5470  210.7160  149.0680 C   0  0  0  0  0  3  0  0  0  0  0  0
  160.1960  213.5400  143.4920 C   0  0  0  0  0  0  0  0  0  0  0  0
  160.4820  214.2610  144.7570 C   0  0  0  0  0  2  0  0  0  0  0  0
  160.4610  211.8270  145.0410 C   0  0  0  0  0  2  0  0  0  0  0  0
  160.1840  212.2220  143.6350 C   0  0  0  0  0  3  0  0  0  0  0  0
  160.6740  213.1470  145.7820 C   0  0  2  0  0  3  0  0  0  0  0  0
  159.4250  211.8570  139.5250 C   0  0  0  0  0  1  0  0  0  0  0  0
  158.1360  213.4440  140.8380 N   0  0  0  0  0  2  0  0  0  0  0  0
  160.5280  213.4910  141.0310 C   0  0  2  0  0  3  0  0  0  0  0  0
  159.3690  213.2630  140.0860 C   0  0  1  0  0  3  0  0  0  0  0  0
  159.9450  214.2560  142.1970 C   0  0  1  0  0  3  0  0  0  0  0  0
  158.4590  214.3720  141.9120 C   0  0  0  0  0  2  0  0  0  0  0  0
  161.5950  214.3240  140.3490 C   0  0  0  0  0  1  0  0  0  0  0  0
  1  9  2  0  0  0  0
  2  1  1  0  0  0  0
  4  9  1  0  0  0  0
  6  3  1  1  0  0  0
  6  7  1  0  0  0  0
  6  8  1  0  0  0  0
  7  2  2  0  0  0  0
  7  8  1  0  0  0  0
  8  4  1  0  0  0  0
  9  5  1  0  0  0  0
 10  1  1  6  0  0  0
 11 10  1  0  0  0  0
 11 16  1  0  0  0  0
 12 13  1  0  0  0  0
 12 11  1  0  0  0  0
 13 14  1  0  0  0  0
 14 10  1  0  0  0  0
 15 16  2  0  0  0  0
 17 20  2  0  0  0  0
 17 18  1  0  0  0  0
 18 21  1  0  0  0  0
 19 21  1  0  0  0  0
 20 19  1  0  0  0  0
 21  2  1  1  0  0  0
 23 27  1  0  0  0  0
 24 28  1  6  0  0  0
 24 26  1  0  0  0  0
 25 22  1  1  0  0  0
 25 23  1  0  0  0  0
 25 24  1  0  0  0  0
 26 17  1  1  0  0  0
 27 26  1  0  0  0  0
M  END
>  <MODEL>
7

>  <REMARK>
 VINA RESULT:      -3.9      7.825      9.785
  Name = 
  4 active torsions:
  status: ('A' for Active; 'I' for Inactive)
    1  A    between atoms: C_1  and  C_2
    2  A    between atoms: N_3  and  C_26
    3  A    between atoms: C_5  and  C_28
    4  A    between atoms: C_11  and  C_13
                            x       y       z     vdW  Elec       q    Type
                         _______ _______ _______ _____ _____    ______ ____

>  <TORSDO>
F 4

$$$$
=
 OpenBabel11072411163D

 28 32  0  0  1  0  0  0  0  0999 V2000
  161.2030  209.1740  153.9380 C   0  0  0  0  0  0  0  0  0  0  0  0
  161.6990  208.7680  152.5470 C   0  0  0  0  0  0  0  0  0  0  0  0
  162.4090  205.5010  152.0860 O   0  0  0  0  0  1  0  0  0  0  0  0
  160.2380  206.7830  154.5490 C   0  0  0  0  0  2  0  0  0  0  0  0
  160.0160  208.8640  156.3990 Cl  0  0  0  0  0  0  0  0  0  0  0  0
  161.2150  206.2110  151.9720 C   0  0  2  0  0  3  0  0  0  0  0  0
  161.4210  207.5190  152.3540 C   0  0  0  0  0  0  0  0  0  0  0  0
  160.7410  206.5250  153.2370 N   0  0  0  0  0  0  0  0  0  0  0  0
  160.5500  208.2900  154.8210 C   0  0  0  0  0  0  0  0  0  0  0  0
  161.4140  210.5980  154.3910 C   0  0  1  0  0  3  0  0  0  0  0  0
  160.1590  211.2820  154.6480 N   0  0  0  0  0  0  0  0  0  0  0  0
  159.9850  211.8810  155.9050 N   0  0  0  0  0  2  0  0  0  0  0  0
  161.3020  211.9880  156.5190 C   0  0  0  0  0  2  0  0  0  0  0  0
  162.3830  210.6580  155.9130 S   0  0  0  0  0  0  0  0  0  0  0  0
  158.9250  212.5940  153.0490 C   0  0  0  0  0  2  0  0  0  0  0  0
  159.1780  211.4210  153.6140 C   0  0  0  0  0  3  0  0  0  0  0  0
  161.4760  210.8450  149.7670 C   0  0  0  0  0  0  0  0  0  0  0  0
  161.6310  210.8990  151.2420 C   0  0  0  0  0  2  0  0  0  0  0  0
  162.6760  208.9140  150.2540 C   0  0  0  0  0  2  0  0  0  0  0  0
  162.0390  209.7750  149.2220 C   0  0  0  0  0  3  0  0  0  0  0  0
  162.4320  209.6430  151.5740 C   0  0  2  0  0  3  0  0  0  0  0  0
  163.0700  214.4530  147.8670 C   0  0  0  0  0  1  0  0  0  0  0  0
  161.7490  212.6380  146.9370 N   0  0  0  0  0  2  0  0  0  0  0  0
  161.3640  213.2660  149.2220 C   0  0  2  0  0  3  0  0  0  0  0  0
  161.7140  213.7780  147.8410 C   0  0  1  0  0  3  0  0  0  0  0  0
  160.7460  211.9050  148.9950 C   0  0  1  0  0  3  0  0  0  0  0  0
  160.8340  211.6570  147.5000 C   0  0  0  0  0  2  0  0  0  0  0  0
  160.3550  214.1880  149.8750 C   0  0  0  0  0  1  0  0  0  0  0  0
  1  9  2  0  0  0  0
  2  1  1  0  0  0  0
  4  9  1  0  0  0  0
  6  3  1  1  0  0  0
  6  7  1  0  0  0  0
  6  8  1  0  0  0  0
  7  2  2  0  0  0  0
  7  8  1  0  0  0  0
  8  4  1  0  0  0  0
  9  5  1  0  0  0  0
 10  1  1  1  0  0  0
 10 11  1  0  0  0  0
 10 14  1  0  0  0  0
 11 12  1  0  0  0  0
 12 13  1  0  0  0  0
 14 13  1  0  0  0  0
 15 16  2  0  0  0  0
 16 11  1  0  0  0  0
 17 18  1  0  0  0  0
 18 21  1  0  0  0  0
 19 21  1  0  0  0  0
 20 17  2  0  0  0  0
 20 19  1  0  0  0  0
 21  2  1  1  0  0  0
 23 27  1  0  0  0  0
 23 25  1  0  0  0  0
 24 28  1  6  0  0  0
 25 22  1  1  0  0  0
 25 24  1  0  0  0  0
 26 24  1  0  0  0  0
 26 17  1  1  0  0  0
 27 26  1  0  0  0  0
M  END
>  <MODEL>
8

>  <REMARK>
 VINA RESULT:      -3.8      3.311      5.365
  Name = 
  4 active torsions:
  status: ('A' for Active; 'I' for Inactive)
    1  A    between atoms: C_1  and  C_2
    2  A    between atoms: N_3  and  C_26
    3  A    between atoms: C_5  and  C_28
    4  A    between atoms: C_11  and  C_13
                            x       y       z     vdW  Elec       q    Type
                         _______ _______ _______ _____ _____    ______ ____

>  <TORSDO>
F 4

$$$$
=
 OpenBabel11072411163D

 28 32  0  0  1  0  0  0  0  0999 V2000
  160.9570  207.2550  151.5900 C   0  0  0  0  0  0  0  0  0  0  0  0
  160.9250  208.3130  152.6970 C   0  0  0  0  0  0  0  0  0  0  0  0
  160.0020  207.2640  155.7690 O   0  0  0  0  0  1  0  0  0  0  0  0
  161.3330  205.2100  153.2320 C   0  0  0  0  0  2  0  0  0  0  0  0
  161.1680  204.7470  150.4830 Cl  0  0  0  0  0  0  0  0  0  0  0  0
  161.2430  207.2830  155.1340 C   0  0  2  0  0  3  0  0  0  0  0  0
  161.0880  207.7260  153.8390 C   0  0  0  0  0  0  0  0  0  0  0  0
  161.2860  206.2850  154.1730 N   0  0  0  0  0  0  0  0  0  0  0  0
  161.1440  205.8790  151.8330 C   0  0  0  0  0  0  0  0  0  0  0  0
  160.7880  207.7040  150.1590 C   0  0  1  0  0  3  0  0  0  0  0  0
  161.9620  208.4000  149.6620 N   0  0  0  0  0  0  0  0  0  0  0  0
  162.5490  207.9310  148.4770 N   0  0  0  0  0  2  0  0  0  0  0  0
  161.5750  207.0650  147.8260 C   0  0  0  0  0  2  0  0  0  0  0  0
  160.4930  206.2960  149.0680 S   0  0  0  0  0  0  0  0  0  0  0  0
  162.3710  210.7730  149.7270 C   0  0  0  0  0  2  0  0  0  0  0  0
  162.4380  209.5840  150.3120 C   0  0  0  0  0  3  0  0  0  0  0  0
  159.8820  211.2940  154.1530 C   0  0  0  0  0  0  0  0  0  0  0  0
  161.1140  210.5710  153.7520 C   0  0  0  0  0  2  0  0  0  0  0  0
  159.2130  210.0840  152.2840 C   0  0  0  0  0  2  0  0  0  0  0  0
  158.8470  211.0380  153.3640 C   0  0  0  0  0  3  0  0  0  0  0  0
  160.6940  209.7840  152.5150 C   0  0  2  0  0  3  0  0  0  0  0  0
  156.4580  212.4050  156.6450 C   0  0  0  0  0  1  0  0  0  0  0  0
  158.6070  211.4520  157.2590 N   0  0  0  0  0  2  0  0  0  0  0  0
  158.5280  212.9640  155.3970 C   0  0  2  0  0  3  0  0  0  0  0  0
  157.9490  212.6490  156.7590 C   0  0  1  0  0  3  0  0  0  0  0  0
  159.8380  212.2120  155.3400 C   0  0  1  0  0  3  0  0  0  0  0  0
  159.9240  211.4350  156.6400 C   0  0  0  0  0  2  0  0  0  0  0  0
  158.7820  214.4530  155.2750 C   0  0  0  0  0  1  0  0  0  0  0  0
  1  9  2  0  0  0  0
  1  2  1  0  0  0  0
  2  7  2  0  0  0  0
  4  8  1  0  0  0  0
  5  9  1  0  0  0  0
  6  3  1  1  0  0  0
  7  8  1  0  0  0  0
  7  6  1  0  0  0  0
  8  6  1  0  0  0  0
  9  4  1  0  0  0  0
 10  1  1  1  0  0  0
 11 10  1  0  0  0  0
 11 16  1  0  0  0  0
 12 11  1  0  0  0  0
 13 12  1  0  0  0  0
 13 14  1  0  0  0  0
 14 10  1  0  0  0  0
 15 16  2  0  0  0  0
 18 17  1  0  0  0  0
 19 21  1  0  0  0  0
 19 20  1  0  0  0  0
 20 17  2  0  0  0  0
 21  2  1  1  0  0  0
 21 18  1  0  0  0  0
 24 28  1  1  0  0  0
 24 25  1  0  0  0  0
 25 22  1  6  0  0  0
 25 23  1  0  0  0  0
 26 17  1  6  0  0  0
 26 24  1  0  0  0  0
 26 27  1  0  0  0  0
 27 23  1  0  0  0  0
M  END
>  <MODEL>
9

>  <REMARK>
 VINA RESULT:      -3.7      3.474      7.540
  Name = 
  4 active torsions:
  status: ('A' for Active; 'I' for Inactive)
    1  A    between atoms: C_1  and  C_2
    2  A    between atoms: N_3  and  C_26
    3  A    between atoms: C_5  and  C_28
    4  A    between atoms: C_11  and  C_13
                            x       y       z     vdW  Elec       q    Type
                         _______ _______ _______ _____ _____    ______ ____

>  <TORSDO>
F 4

$$$$
