=
 OpenBabel11072411323D

 52 57  0  0  1  0  0  0  0  0999 V2000
  162.3710  204.6830  146.0480 C   0  0  0  0  0  1  0  0  0  0  0  0
  159.6770  205.0240  148.8190 C   0  0  0  0  0  2  0  0  0  0  0  0
  160.7750  203.9680  148.6160 C   0  0  1  0  0  3  0  0  0  0  0  0
  159.9690  205.9320  149.9240 N   0  0  0  0  0  0  0  0  0  0  0  0
  161.0440  207.8540  150.8740 N   0  0  0  0  0  0  0  0  0  0  0  0
  161.8740  208.7160  150.4400 N   0  0  0  0  0  0  0  0  0  0  0  0
  161.5370  207.3660  148.6550 C   0  0  0  0  0  0  0  0  0  0  0  0
  162.4890  205.4370  147.3550 C   0  0  1  0  0  3  0  0  0  0  0  0
  162.1910  208.4380  149.0700 C   0  0  0  0  0  0  0  0  0  0  0  0
  161.6200  206.6950  147.3140 C   0  0  0  0  0  2  0  0  0  0  0  0
  160.7610  206.9570  149.8160 C   0  0  0  0  0  0  0  0  0  0  0  0
  162.2070  204.5190  148.5540 C   0  0  0  0  0  2  0  0  0  0  0  0
  161.0920  201.5410  149.1620 C   0  0  0  0  0  0  0  0  0  0  0  0
  161.5790  200.7450  150.0150 O   0  0  0  0  0  0  0  0  0  0  0  0
  160.4350  200.9640  145.6520 C   0  0  0  0  0  3  0  0  0  0  0  0
  160.9820  201.1110  147.7930 N   0  0  0  0  0  0  0  0  0  0  0  0
  160.6810  202.8640  149.5730 N   0  0  0  0  0  0  0  0  0  0  0  0
  160.2790  201.7080  146.8140 C   0  0  0  0  0  3  0  0  0  0  0  0
  161.5680  200.0230  147.3230 N   0  0  0  0  0  0  0  0  0  0  0  0
  161.2570  199.9090  146.0130 C   0  0  0  0  0  3  0  0  0  0  0  0
  160.5030  203.1650  150.9900 C   0  0  0  0  0  2  0  0  0  0  0  0
  161.8520  203.3580  151.6660 C   0  0  0  0  0  2  0  0  0  0  0  0
  162.0250  204.7060  151.9920 O   0  0  0  0  0  0  0  0  0  0  0  0
  161.2990  204.8890  153.1210 N   0  0  0  0  0  2  0  0  0  0  0  0
  161.6980  206.1780  153.6590 C   0  0  0  0  0  2  0  0  0  0  0  0
  160.5170  206.8530  154.3360 C   0  0  0  0  0  2  0  0  0  0  0  0
  161.0080  207.7750  155.4380 C   0  0  0  0  0  2  0  0  0  0  0  0
  160.1100  208.8310  155.5990 O   0  0  0  0  0  1  0  0  0  0  0  0
  163.1330  209.2540  148.2440 C   0  0  0  0  0  2  0  0  0  0  0  0
  162.4210  214.4530  147.0460 C   0  0  0  0  0  2  0  0  0  0  0  0
  163.6100  211.4860  147.2480 C   0  0  0  0  0  2  0  0  0  0  0  0
  161.3180  210.8890  148.0110 C   0  0  0  0  0  2  0  0  0  0  0  0
  163.1670  213.8040  148.2140 C   0  0  0  0  0  2  0  0  0  0  0  0
  162.8050  210.7370  148.3020 C   0  0  1  0  0  3  0  0  0  0  0  0
  160.2050  213.1350  147.5570 C   0  0  2  0  0  3  0  0  0  0  0  0
  161.2200  213.6600  146.5150 C   0  0  2  0  0  3  0  0  0  0  0  0
  161.5790  212.6850  145.4060 C   0  0  0  0  0  1  0  0  0  0  0  0
  164.2140  212.7790  147.7780 C   0  0  0  0  0  2  0  0  0  0  0  0
  160.7790  212.1800  148.6070 C   0  0  0  0  0  2  0  0  0  0  0  0
  157.7010  212.9750  147.1250 C   0  0  0  0  0  0  0  0  0  0  0  0
  156.7780  212.4940  146.4160 O   0  0  0  0  0  0  0  0  0  0  0  0
  159.0430  212.5330  146.9110 N   0  0  0  0  0  2  0  0  0  0  0  0
  157.4080  214.0230  148.1660 C   0  0  2  0  0  3  0  0  0  0  0  0
  157.5290  213.4100  149.5540 C   0  0  2  0  0  3  0  0  0  0  0  0
  156.1550  213.7100  148.9740 C   0  0  0  0  0  2  0  0  0  0  0  0
  157.3310  213.1650  152.7520 C   0  0  0  0  0  2  0  0  0  0  0  0
  159.0750  212.2370  154.0940 O   0  0  0  0  0  1  0  0  0  0  0  0
  159.7290  213.2920  152.0590 C   0  0  0  0  0  2  0  0  0  0  0  0
  158.7700  213.3000  153.2430 C   0  0  1  0  0  3  0  0  0  0  0  0
  156.9810  214.3430  151.8400 C   0  0  0  0  0  2  0  0  0  0  0  0
  157.9330  214.4220  150.6470 C   0  0  1  0  0  3  0  0  0  0  0  0
  159.4090  214.4450  151.1040 C   0  0  0  0  0  2  0  0  0  0  0  0
  2  4  1  0  0  0  0
  3  2  1  0  0  0  0
  3 17  1  1  0  0  0
  6  5  2  0  0  0  0
  7  9  2  0  0  0  0
  7 11  1  0  0  0  0
  8  1  1  6  0  0  0
  8 12  1  0  0  0  0
  9  6  1  0  0  0  0
 10  8  1  0  0  0  0
 10  7  1  0  0  0  0
 11  4  2  0  0  0  0
 11  5  1  0  0  0  0
 12  3  1  0  0  0  0
 13 17  1  0  0  0  0
 13 14  2  0  0  0  0
 15 20  1  0  0  0  0
 15 18  2  0  0  0  0
 16 13  1  0  0  0  0
 17 21  1  0  0  0  0
 18 16  1  0  0  0  0
 19 16  1  0  0  0  0
 20 19  2  0  0  0  0
 21 22  1  0  0  0  0
 22 23  1  0  0  0  0
 23 24  1  0  0  0  0
 24 25  1  0  0  0  0
 25 26  1  0  0  0  0
 26 27  1  0  0  0  0
 27 28  1  0  0  0  0
 29  9  1  0  0  0  0
 30 33  1  0  0  0  0
 31 38  1  0  0  0  0
 31 34  1  0  0  0  0
 32 34  1  0  0  0  0
 32 39  1  0  0  0  0
 34 29  1  6  0  0  0
 35 42  1  6  0  0  0
 35 39  1  0  0  0  0
 36 37  1  1  0  0  0
 36 30  1  0  0  0  0
 36 35  1  0  0  0  0
 38 33  1  0  0  0  0
 41 40  2  0  0  0  0
 42 40  1  0  0  0  0
 43 40  1  6  0  0  0
 43 45  1  0  0  0  0
 43 44  1  0  0  0  0
 44 45  1  1  0  0  0
 44 51  1  0  0  0  0
 46 49  1  0  0  0  0
 48 49  1  0  0  0  0
 49 47  1  1  0  0  0
 50 46  1  0  0  0  0
 51 52  1  1  0  0  0
 51 50  1  0  0  0  0
 52 48  1  0  0  0  0
M  END
>  <MODEL>
1

>  <REMARK>
 VINA RESULT:      -3.1      0.000      0.000
  Name = 
  13 active torsions:
  status: ('A' for Active; 'I' for Inactive)
    1  A    between atoms: N_1  and  O_19
    2  A    between atoms: N_1  and  C_28
    3  A    between atoms: C_3  and  N_39
    4  A    between atoms: C_3  and  C_48
    5  A    between atoms: C_4  and  C_8
    6  A    between atoms: C_6  and  C_25
    7  A    between atoms: C_6  and  C_28
    8  A    between atoms: C_13  and  N_39
    9  A    between atoms: O_19  and  C_48
   10  A    between atoms: C_27  and  C_30
   11  A    between atoms: C_30  and  C_43
   12  A    between atoms: C_32  and  N_42
   13  A    between atoms: C_36  and  C_37
                            x       y       z     vdW  Elec       q    Type
                         _______ _______ _______ _____ _____    ______ ____

>  <TORSDO>
F 13

$$$$
=
 OpenBabel11072411323D

 52 57  0  0  1  0  0  0  0  0999 V2000
  161.1300  202.1020  149.2610 C   0  0  0  0  0  1  0  0  0  0  0  0
  162.8340  205.0000  147.3260 C   0  0  0  0  0  2  0  0  0  0  0  0
  161.6400  204.1100  146.9470 C   0  0  1  0  0  3  0  0  0  0  0  0
  162.4330  206.3600  147.6730 N   0  0  0  0  0  0  0  0  0  0  0  0
  161.5930  208.0080  149.2000 N   0  0  0  0  0  0  0  0  0  0  0  0
  161.1620  207.9760  150.3980 N   0  0  0  0  0  0  0  0  0  0  0  0
  161.7120  205.8220  149.9800 C   0  0  0  0  0  0  0  0  0  0  0  0
  160.7910  203.5760  149.3300 C   0  0  1  0  0  3  0  0  0  0  0  0
  161.2300  206.6360  150.9020 C   0  0  0  0  0  0  0  0  0  0  0  0
  161.8970  204.3330  150.0660 C   0  0  0  0  0  2  0  0  0  0  0  0
  161.9740  206.6930  148.8430 C   0  0  0  0  0  0  0  0  0  0  0  0
  160.4670  204.1360  147.9370 C   0  0  0  0  0  2  0  0  0  0  0  0
  160.3380  203.3510  144.9430 C   0  0  0  0  0  0  0  0  0  0  0  0
  159.4750  203.7140  144.0930 O   0  0  0  0  0  0  0  0  0  0  0  0
  161.1630  200.0030  146.0370 C   0  0  0  0  0  3  0  0  0  0  0  0
  160.4460  201.9540  145.2720 N   0  0  0  0  0  0  0  0  0  0  0  0
  161.1750  204.3430  145.5790 N   0  0  0  0  0  0  0  0  0  0  0  0
  161.4450  201.3600  145.9480 C   0  0  0  0  0  3  0  0  0  0  0  0
  159.5490  201.0500  144.9140 N   0  0  0  0  0  0  0  0  0  0  0  0
  159.9570  199.8470  145.3740 C   0  0  0  0  0  3  0  0  0  0  0  0
  161.2730  205.6850  145.0130 C   0  0  0  0  0  2  0  0  0  0  0  0
  162.0850  205.6610  143.7270 C   0  0  0  0  0  2  0  0  0  0  0  0
  161.4170  206.3870  142.7360 O   0  0  0  0  0  0  0  0  0  0  0  0
  162.0320  206.0480  141.5790 N   0  0  0  0  0  2  0  0  0  0  0  0
  162.1170  207.2660  140.7900 C   0  0  0  0  0  2  0  0  0  0  0  0
  162.0070  206.9410  139.3090 C   0  0  0  0  0  2  0  0  0  0  0  0
  161.0930  207.9420  138.6250 C   0  0  0  0  0  2  0  0  0  0  0  0
  161.1560  207.7640  137.2430 O   0  0  0  0  0  1  0  0  0  0  0  0
  160.8060  206.2360  152.2780 C   0  0  0  0  0  2  0  0  0  0  0  0
  161.4290  210.5620  155.4190 C   0  0  0  0  0  2  0  0  0  0  0  0
  161.7970  207.7000  154.0330 C   0  0  0  0  0  2  0  0  0  0  0  0
  160.3100  208.6400  152.2730 C   0  0  0  0  0  2  0  0  0  0  0  0
  160.6280  209.2800  155.6560 C   0  0  0  0  0  2  0  0  0  0  0  0
  160.5660  207.4400  153.1750 C   0  0  1  0  0  3  0  0  0  0  0  0
  160.2390  211.0390  153.1240 C   0  0  2  0  0  3  0  0  0  0  0  0
  161.5440  211.0020  153.9530 C   0  0  2  0  0  3  0  0  0  0  0  0
  162.7530  210.4220  153.2390 C   0  0  0  0  0  1  0  0  0  0  0  0
  161.4510  208.0040  155.4830 C   0  0  0  0  0  2  0  0  0  0  0  0
  159.5030  209.7020  153.0010 C   0  0  0  0  0  2  0  0  0  0  0  0
  160.0610  212.9330  151.4320 C   0  0  0  0  0  0  0  0  0  0  0  0
  160.4260  213.3960  150.3190 O   0  0  0  0  0  0  0  0  0  0  0  0
  160.4650  211.6140  151.8020 N   0  0  0  0  0  2  0  0  0  0  0  0
  159.2330  213.7620  152.3780 C   0  0  2  0  0  3  0  0  0  0  0  0
  158.0430  212.9460  152.8620 C   0  0  2  0  0  3  0  0  0  0  0  0
  157.8380  214.0490  151.8360 C   0  0  0  0  0  2  0  0  0  0  0  0
  155.3590  212.0880  154.4090 C   0  0  0  0  0  2  0  0  0  0  0  0
  155.2250  210.1540  155.8030 O   0  0  0  0  0  1  0  0  0  0  0  0
  157.3560  211.2070  155.6260 C   0  0  0  0  0  2  0  0  0  0  0  0
  155.8460  211.3980  155.6800 C   0  0  1  0  0  3  0  0  0  0  0  0
  156.0150  213.4650  154.2830 C   0  0  0  0  0  2  0  0  0  0  0  0
  157.5390  213.3540  154.2630 C   0  0  1  0  0  3  0  0  0  0  0  0
  158.0610  212.5590  155.4810 C   0  0  0  0  0  2  0  0  0  0  0  0
  2  4  1  0  0  0  0
  3 17  1  6  0  0  0
  3  2  1  0  0  0  0
  3 12  1  0  0  0  0
  4 11  2  0  0  0  0
  5  6  2  0  0  0  0
  6  9  1  0  0  0  0
  7 10  1  0  0  0  0
  7  9  2  0  0  0  0
  8  1  1  6  0  0  0
  8 10  1  0  0  0  0
  9 29  1  0  0  0  0
 11  5  1  0  0  0  0
 11  7  1  0  0  0  0
 12  8  1  0  0  0  0
 13 16  1  0  0  0  0
 13 17  1  0  0  0  0
 14 13  2  0  0  0  0
 16 18  1  0  0  0  0
 18 15  2  0  0  0  0
 19 16  1  0  0  0  0
 19 20  2  0  0  0  0
 20 15  1  0  0  0  0
 21 17  1  0  0  0  0
 22 21  1  0  0  0  0
 23 22  1  0  0  0  0
 24 23  1  0  0  0  0
 25 24  1  0  0  0  0
 26 25  1  0  0  0  0
 27 26  1  0  0  0  0
 28 27  1  0  0  0  0
 30 33  1  0  0  0  0
 31 38  1  0  0  0  0
 32 39  1  0  0  0  0
 32 34  1  0  0  0  0
 34 29  1  6  0  0  0
 34 31  1  0  0  0  0
 35 42  1  6  0  0  0
 35 36  1  0  0  0  0
 36 37  1  6  0  0  0
 36 30  1  0  0  0  0
 38 33  1  0  0  0  0
 39 35  1  0  0  0  0
 40 42  1  0  0  0  0
 41 40  2  0  0  0  0
 43 40  1  6  0  0  0
 43 44  1  0  0  0  0
 44 45  1  6  0  0  0
 44 51  1  0  0  0  0
 45 43  1  0  0  0  0
 46 49  1  0  0  0  0
 48 49  1  0  0  0  0
 49 47  1  6  0  0  0
 50 46  1  0  0  0  0
 51 50  1  6  0  0  0
 51 52  1  0  0  0  0
 52 48  1  0  0  0  0
M  END
>  <MODEL>
2

>  <REMARK>
 VINA RESULT:      -3.0      3.692      6.802
  Name = 
  13 active torsions:
  status: ('A' for Active; 'I' for Inactive)
    1  A    between atoms: N_1  and  O_19
    2  A    between atoms: N_1  and  C_28
    3  A    between atoms: C_3  and  N_39
    4  A    between atoms: C_3  and  C_48
    5  A    between atoms: C_4  and  C_8
    6  A    between atoms: C_6  and  C_25
    7  A    between atoms: C_6  and  C_28
    8  A    between atoms: C_13  and  N_39
    9  A    between atoms: O_19  and  C_48
   10  A    between atoms: C_27  and  C_30
   11  A    between atoms: C_30  and  C_43
   12  A    between atoms: C_32  and  N_42
   13  A    between atoms: C_36  and  C_37
                            x       y       z     vdW  Elec       q    Type
                         _______ _______ _______ _____ _____    ______ ____

>  <TORSDO>
F 13

$$$$
=
 OpenBabel11072411323D

 52 57  0  0  1  0  0  0  0  0999 V2000
  160.6930  208.6030  152.2850 C   0  0  0  0  0  1  0  0  0  0  0  0
  158.7660  211.7340  153.5230 C   0  0  0  0  0  2  0  0  0  0  0  0
  159.9260  210.9550  154.1630 C   0  0  1  0  0  3  0  0  0  0  0  0
  159.1850  213.0280  152.9920 N   0  0  0  0  0  0  0  0  0  0  0  0
  160.1580  214.4210  151.2990 N   0  0  0  0  0  0  0  0  0  0  0  0
  160.7100  214.2010  150.1720 N   0  0  0  0  0  0  0  0  0  0  0  0
  160.1440  212.1320  150.8930 C   0  0  0  0  0  0  0  0  0  0  0  0
  161.0200  210.0540  152.0010 C   0  0  1  0  0  3  0  0  0  0  0  0
  160.7090  212.7940  149.8980 C   0  0  0  0  0  0  0  0  0  0  0  0
  159.9870  210.6460  151.0420 C   0  0  0  0  0  2  0  0  0  0  0  0
  159.7580  213.1730  151.8330 C   0  0  0  0  0  0  0  0  0  0  0  0
  161.1940  210.8490  153.3040 C   0  0  0  0  0  2  0  0  0  0  0  0
  160.9940  210.5650  156.3990 C   0  0  0  0  0  0  0  0  0  0  0  0
  161.7680  211.0750  157.2590 O   0  0  0  0  0  0  0  0  0  0  0  0
  160.2400  207.0740  155.8260 C   0  0  0  0  0  3  0  0  0  0  0  0
  160.9010  209.1320  156.3100 N   0  0  0  0  0  0  0  0  0  0  0  0
  160.2460  211.4270  155.5120 N   0  0  0  0  0  0  0  0  0  0  0  0
  159.9700  208.4240  155.6450 C   0  0  0  0  0  3  0  0  0  0  0  0
  161.7410  208.3090  156.9150 N   0  0  0  0  0  0  0  0  0  0  0  0
  161.3660  207.0420  156.6320 C   0  0  0  0  0  3  0  0  0  0  0  0
  160.1090  212.8470  155.8200 C   0  0  0  0  0  2  0  0  0  0  0  0
  158.9570  213.0720  156.7880 C   0  0  0  0  0  2  0  0  0  0  0  0
  158.0710  214.0120  156.2520 O   0  0  0  0  0  0  0  0  0  0  0  0
  156.9870  213.9730  157.0640 N   0  0  0  0  0  2  0  0  0  0  0  0
  155.8240  214.0680  156.1980 C   0  0  0  0  0  2  0  0  0  0  0  0
  156.2590  214.1640  154.7440 C   0  0  0  0  0  2  0  0  0  0  0  0
  155.1080  213.7770  153.8330 C   0  0  0  0  0  2  0  0  0  0  0  0
  155.2530  214.4130  152.6000 O   0  0  0  0  0  1  0  0  0  0  0  0
  161.2770  212.1810  148.6580 C   0  0  0  0  0  2  0  0  0  0  0  0
  157.7050  213.2390  144.7730 C   0  0  0  0  0  2  0  0  0  0  0  0
  159.4230  213.3480  147.4730 C   0  0  0  0  0  2  0  0  0  0  0  0
  160.9860  211.8520  146.2430 C   0  0  0  0  0  2  0  0  0  0  0  0
  157.5730  212.3640  146.0210 C   0  0  0  0  0  2  0  0  0  0  0  0
  160.2390  212.0650  147.5530 C   0  0  1  0  0  3  0  0  0  0  0  0
  159.8660  211.9840  143.9590 C   0  0  2  0  0  3  0  0  0  0  0  0
  159.1160  213.3180  144.1740 C   0  0  2  0  0  3  0  0  0  0  0  0
  159.9530  214.4520  144.7430 C   0  0  0  0  0  1  0  0  0  0  0  0
  157.9310  213.0890  147.3180 C   0  0  0  0  0  2  0  0  0  0  0  0
  160.1010  211.1530  145.2230 C   0  0  0  0  0  2  0  0  0  0  0  0
  161.2350  212.2330  141.8270 C   0  0  0  0  0  0  0  0  0  0  0  0
  162.3350  212.5590  141.3070 O   0  0  0  0  0  0  0  0  0  0  0  0
  161.1250  212.1900  143.2510 N   0  0  0  0  0  2  0  0  0  0  0  0
  160.0390  211.9170  140.9670 C   0  0  2  0  0  3  0  0  0  0  0  0
  160.1740  212.6270  139.6270 C   0  0  2  0  0  3  0  0  0  0  0  0
  159.1930  213.1480  140.6670 C   0  0  0  0  0  2  0  0  0  0  0  0
  161.3980  210.7920  137.2910 C   0  0  0  0  0  2  0  0  0  0  0  0
  161.7030  208.4340  137.5160 O   0  0  0  0  0  1  0  0  0  0  0  0
  159.9260  209.4130  138.7660 C   0  0  0  0  0  2  0  0  0  0  0  0
  160.7290  209.4320  137.4720 C   0  0  1  0  0  3  0  0  0  0  0  0
  160.3340  211.8880  137.2130 C   0  0  0  0  0  2  0  0  0  0  0  0
  159.4600  211.9020  138.4670 C   0  0  1  0  0  3  0  0  0  0  0  0
  158.8540  210.5080  138.7470 C   0  0  0  0  0  2  0  0  0  0  0  0
  2  3  1  0  0  0  0
  3 17  1  1  0  0  0
  4  2  1  0  0  0  0
  5 11  1  0  0  0  0
  6  5  2  0  0  0  0
  7 10  1  0  0  0  0
  7 11  1  0  0  0  0
  8  1  1  1  0  0  0
  8 12  1  0  0  0  0
  9  6  1  0  0  0  0
  9  7  2  0  0  0  0
 10  8  1  0  0  0  0
 11  4  2  0  0  0  0
 12  3  1  0  0  0  0
 13 14  2  0  0  0  0
 15 20  1  0  0  0  0
 16 13  1  0  0  0  0
 16 19  1  0  0  0  0
 17 21  1  0  0  0  0
 17 13  1  0  0  0  0
 18 15  2  0  0  0  0
 18 16  1  0  0  0  0
 20 19  2  0  0  0  0
 21 22  1  0  0  0  0
 23 22  1  0  0  0  0
 23 24  1  0  0  0  0
 25 24  1  0  0  0  0
 26 25  1  0  0  0  0
 27 26  1  0  0  0  0
 28 27  1  0  0  0  0
 29  9  1  0  0  0  0
 30 33  1  0  0  0  0
 31 34  1  0  0  0  0
 32 34  1  0  0  0  0
 33 38  1  0  0  0  0
 34 29  1  1  0  0  0
 35 42  1  1  0  0  0
 35 36  1  0  0  0  0
 35 39  1  0  0  0  0
 36 37  1  1  0  0  0
 36 30  1  0  0  0  0
 38 31  1  0  0  0  0
 39 32  1  0  0  0  0
 40 42  1  0  0  0  0
 41 40  2  0  0  0  0
 43 40  1  1  0  0  0
 44 45  1  1  0  0  0
 44 43  1  0  0  0  0
 45 43  1  0  0  0  0
 46 49  1  0  0  0  0
 49 47  1  1  0  0  0
 49 48  1  0  0  0  0
 50 46  1  0  0  0  0
 51 50  1  6  0  0  0
 51 52  1  0  0  0  0
 51 44  1  0  0  0  0
 52 48  1  0  0  0  0
M  END
>  <MODEL>
3

>  <REMARK>
 VINA RESULT:      -2.1      5.536      9.440
  Name = 
  13 active torsions:
  status: ('A' for Active; 'I' for Inactive)
    1  A    between atoms: N_1  and  O_19
    2  A    between atoms: N_1  and  C_28
    3  A    between atoms: C_3  and  N_39
    4  A    between atoms: C_3  and  C_48
    5  A    between atoms: C_4  and  C_8
    6  A    between atoms: C_6  and  C_25
    7  A    between atoms: C_6  and  C_28
    8  A    between atoms: C_13  and  N_39
    9  A    between atoms: O_19  and  C_48
   10  A    between atoms: C_27  and  C_30
   11  A    between atoms: C_30  and  C_43
   12  A    between atoms: C_32  and  N_42
   13  A    between atoms: C_36  and  C_37
                            x       y       z     vdW  Elec       q    Type
                         _______ _______ _______ _____ _____    ______ ____

>  <TORSDO>
F 13

$$$$
=
 OpenBabel11072411323D

 52 57  0  0  1  0  0  0  0  0999 V2000
  162.5920  211.0770  151.3950 C   0  0  0  0  0  1  0  0  0  0  0  0
  159.9510  212.4930  153.8580 C   0  0  0  0  0  2  0  0  0  0  0  0
  159.8410  212.1430  152.3660 C   0  0  1  0  0  3  0  0  0  0  0  0
  159.2540  211.5350  154.7120 N   0  0  0  0  0  0  0  0  0  0  0  0
  159.1070  209.4600  155.9060 N   0  0  0  0  0  0  0  0  0  0  0  0
  159.8680  208.4460  156.0270 N   0  0  0  0  0  0  0  0  0  0  0  0
  161.0420  209.8230  154.6690 C   0  0  0  0  0  0  0  0  0  0  0  0
  161.6420  210.2910  152.2740 C   0  0  1  0  0  3  0  0  0  0  0  0
  161.0710  208.6490  155.2750 C   0  0  0  0  0  0  0  0  0  0  0  0
  162.0660  210.4080  153.7380 C   0  0  0  0  0  2  0  0  0  0  0  0
  159.7640  210.3930  155.0690 C   0  0  0  0  0  0  0  0  0  0  0  0
  160.1830  210.6900  152.0090 C   0  0  0  0  0  2  0  0  0  0  0  0
  158.4750  212.8140  150.3720 C   0  0  0  0  0  0  0  0  0  0  0  0
  157.4020  212.5760  149.7460 O   0  0  0  0  0  0  0  0  0  0  0  0
  161.5450  214.2610  149.1200 C   0  0  0  0  0  3  0  0  0  0  0  0
  159.6020  213.3370  149.6450 N   0  0  0  0  0  0  0  0  0  0  0  0
  158.5540  212.5350  151.7880 N   0  0  0  0  0  0  0  0  0  0  0  0
  160.7200  213.8740  150.1670 C   0  0  0  0  0  3  0  0  0  0  0  0
  159.6650  213.3710  148.3250 N   0  0  0  0  0  0  0  0  0  0  0  0
  160.8450  213.9260  147.9730 C   0  0  0  0  0  3  0  0  0  0  0  0
  157.3330  212.3140  152.5560 C   0  0  0  0  0  2  0  0  0  0  0  0
  156.6530  213.6400  152.8660 C   0  0  0  0  0  2  0  0  0  0  0  0
  155.5610  213.4200  153.7110 O   0  0  0  0  0  0  0  0  0  0  0  0
  155.6540  214.3820  154.6600 N   0  0  0  0  0  2  0  0  0  0  0  0
  156.4040  213.7990  155.7600 C   0  0  0  0  0  2  0  0  0  0  0  0
  155.4890  212.9530  156.6290 C   0  0  0  0  0  2  0  0  0  0  0  0
  155.9580  211.5090  156.6220 C   0  0  0  0  0  2  0  0  0  0  0  0
  155.6020  210.9070  155.4140 O   0  0  0  0  0  1  0  0  0  0  0  0
  162.1880  207.6580  155.1960 C   0  0  0  0  0  2  0  0  0  0  0  0
  160.0810  204.7050  151.2190 C   0  0  0  0  0  2  0  0  0  0  0  0
  160.4580  206.4320  153.8900 C   0  0  0  0  0  2  0  0  0  0  0  0
  162.5970  207.1370  152.8320 C   0  0  0  0  0  2  0  0  0  0  0  0
  160.6830  204.2700  152.5570 C   0  0  0  0  0  2  0  0  0  0  0  0
  161.9530  206.6190  154.1110 C   0  0  1  0  0  3  0  0  0  0  0  0
  162.2230  206.0730  150.5480 C   0  0  2  0  0  3  0  0  0  0  0  0
  160.6800  205.9820  150.6150 C   0  0  2  0  0  3  0  0  0  0  0  0
  159.9700  207.2520  151.0540 C   0  0  0  0  0  1  0  0  0  0  0  0
  160.0600  204.9680  153.7650 C   0  0  0  0  0  2  0  0  0  0  0  0
  162.9420  205.9890  151.8970 C   0  0  0  0  0  2  0  0  0  0  0  0
  162.6670  207.3570  148.3960 C   0  0  0  0  0  0  0  0  0  0  0  0
  162.9160  208.4680  147.8580 O   0  0  0  0  0  0  0  0  0  0  0  0
  162.6540  207.2630  149.8210 N   0  0  0  0  0  2  0  0  0  0  0  0
  162.3610  206.1450  147.5550 C   0  0  2  0  0  3  0  0  0  0  0  0
  161.9800  206.5850  146.1480 C   0  0  2  0  0  3  0  0  0  0  0  0
  160.9060  206.0970  147.1080 C   0  0  0  0  0  2  0  0  0  0  0  0
  162.0190  203.3770  146.3330 C   0  0  0  0  0  2  0  0  0  0  0  0
  160.0920  202.0280  145.9190 O   0  0  0  0  0  1  0  0  0  0  0  0
  160.2140  204.1120  144.7690 C   0  0  0  0  0  2  0  0  0  0  0  0
  160.9830  202.9150  145.3120 C   0  0  1  0  0  3  0  0  0  0  0  0
  163.0160  204.3270  145.6670 C   0  0  0  0  0  2  0  0  0  0  0  0
  162.3070  205.5380  145.0620 C   0  0  1  0  0  3  0  0  0  0  0  0
  161.1720  205.1070  144.1060 C   0  0  0  0  0  2  0  0  0  0  0  0
  2  4  1  0  0  0  0
  3 17  1  1  0  0  0
  3  2  1  0  0  0  0
  4 11  2  0  0  0  0
  5  6  2  0  0  0  0
  7 11  1  0  0  0  0
  7  9  2  0  0  0  0
  8  1  1  6  0  0  0
  8 10  1  0  0  0  0
  9  6  1  0  0  0  0
 10  7  1  0  0  0  0
 11  5  1  0  0  0  0
 12  8  1  0  0  0  0
 12  3  1  0  0  0  0
 13 17  1  0  0  0  0
 14 13  2  0  0  0  0
 15 18  2  0  0  0  0
 16 18  1  0  0  0  0
 16 13  1  0  0  0  0
 17 21  1  0  0  0  0
 19 16  1  0  0  0  0
 20 19  2  0  0  0  0
 20 15  1  0  0  0  0
 21 22  1  0  0  0  0
 22 23  1  0  0  0  0
 23 24  1  0  0  0  0
 24 25  1  0  0  0  0
 25 26  1  0  0  0  0
 27 26  1  0  0  0  0
 28 27  1  0  0  0  0
 29  9  1  0  0  0  0
 30 33  1  0  0  0  0
 31 34  1  0  0  0  0
 32 34  1  0  0  0  0
 33 38  1  0  0  0  0
 34 29  1  1  0  0  0
 35 42  1  1  0  0  0
 35 36  1  0  0  0  0
 35 39  1  0  0  0  0
 36 37  1  1  0  0  0
 36 30  1  0  0  0  0
 38 31  1  0  0  0  0
 39 32  1  0  0  0  0
 40 42  1  0  0  0  0
 41 40  2  0  0  0  0
 43 40  1  1  0  0  0
 44 45  1  1  0  0  0
 44 43  1  0  0  0  0
 45 43  1  0  0  0  0
 48 49  1  0  0  0  0
 49 47  1  1  0  0  0
 49 46  1  0  0  0  0
 50 46  1  0  0  0  0
 51 52  1  1  0  0  0
 51 50  1  0  0  0  0
 51 44  1  0  0  0  0
 52 48  1  0  0  0  0
M  END
>  <MODEL>
4

>  <REMARK>
 VINA RESULT:      -0.4      2.983      9.751
  Name = 
  13 active torsions:
  status: ('A' for Active; 'I' for Inactive)
    1  A    between atoms: N_1  and  O_19
    2  A    between atoms: N_1  and  C_28
    3  A    between atoms: C_3  and  N_39
    4  A    between atoms: C_3  and  C_48
    5  A    between atoms: C_4  and  C_8
    6  A    between atoms: C_6  and  C_25
    7  A    between atoms: C_6  and  C_28
    8  A    between atoms: C_13  and  N_39
    9  A    between atoms: O_19  and  C_48
   10  A    between atoms: C_27  and  C_30
   11  A    between atoms: C_30  and  C_43
   12  A    between atoms: C_32  and  N_42
   13  A    between atoms: C_36  and  C_37
                            x       y       z     vdW  Elec       q    Type
                         _______ _______ _______ _____ _____    ______ ____

>  <TORSDO>
F 13

$$$$
=
 OpenBabel11072411323D

 52 57  0  0  1  0  0  0  0  0999 V2000
  162.9260  205.0450  145.4010 C   0  0  0  0  0  1  0  0  0  0  0  0
  160.0700  204.7370  148.0080 C   0  0  0  0  0  2  0  0  0  0  0  0
  161.3190  203.8700  147.7850 C   0  0  1  0  0  3  0  0  0  0  0  0
  160.1680  205.5660  149.2060 N   0  0  0  0  0  0  0  0  0  0  0  0
  160.9020  207.5190  150.3900 N   0  0  0  0  0  0  0  0  0  0  0  0
  161.6200  208.5260  150.0880 N   0  0  0  0  0  0  0  0  0  0  0  0
  161.5760  207.3210  148.1740 C   0  0  0  0  0  0  0  0  0  0  0  0
  162.8650  205.6790  146.7740 C   0  0  1  0  0  3  0  0  0  0  0  0
  162.0450  208.4290  148.7230 C   0  0  0  0  0  0  0  0  0  0  0  0
  161.8260  206.8010  146.7870 C   0  0  0  0  0  2  0  0  0  0  0  0
  160.8080  206.6980  149.2410 C   0  0  0  0  0  0  0  0  0  0  0  0
  162.6570  204.6190  147.8660 C   0  0  0  0  0  2  0  0  0  0  0  0
  161.3780  201.3730  148.0110 C   0  0  0  0  0  0  0  0  0  0  0  0
  161.9610  200.4180  148.6000 O   0  0  0  0  0  0  0  0  0  0  0  0
  159.6060  201.3360  144.8580 C   0  0  0  0  0  3  0  0  0  0  0  0
  160.7900  201.1380  146.7180 N   0  0  0  0  0  0  0  0  0  0  0  0
  161.3360  202.6760  148.6330 N   0  0  0  0  0  0  0  0  0  0  0  0
  159.9330  201.9420  146.0630 C   0  0  0  0  0  3  0  0  0  0  0  0
  161.0170  200.0490  146.0030 N   0  0  0  0  0  0  0  0  0  0  0  0
  160.3110  200.1440  144.8550 C   0  0  0  0  0  3  0  0  0  0  0  0
  161.6460  202.8170  150.0520 C   0  0  0  0  0  2  0  0  0  0  0  0
  160.4910  202.3080  150.9020 C   0  0  0  0  0  2  0  0  0  0  0  0
  160.6760  202.7030  152.2300 O   0  0  0  0  0  0  0  0  0  0  0  0
  160.5800  204.0540  152.2100 N   0  0  0  0  0  2  0  0  0  0  0  0
  161.2070  204.5270  153.4330 C   0  0  0  0  0  2  0  0  0  0  0  0
  160.5200  205.7920  153.9200 C   0  0  0  0  0  2  0  0  0  0  0  0
  161.2950  207.0130  153.4590 C   0  0  0  0  0  2  0  0  0  0  0  0
  160.4430  208.1170  153.4130 O   0  0  0  0  0  1  0  0  0  0  0  0
  162.9010  209.4440  148.0360 C   0  0  0  0  0  2  0  0  0  0  0  0
  161.0290  214.4530  148.6490 C   0  0  0  0  0  2  0  0  0  0  0  0
  162.1310  211.7230  147.3900 C   0  0  0  0  0  2  0  0  0  0  0  0
  161.5510  210.7580  149.6090 C   0  0  0  0  0  2  0  0  0  0  0  0
  162.4690  213.9370  148.6070 C   0  0  0  0  0  2  0  0  0  0  0  0
  162.6280  210.8530  148.5370 C   0  0  1  0  0  3  0  0  0  0  0  0
  160.3490  212.7900  150.5670 C   0  0  2  0  0  3  0  0  0  0  0  0
  159.9990  213.4730  149.2250 C   0  0  2  0  0  3  0  0  0  0  0  0
  159.3710  212.5680  148.1770 C   0  0  0  0  0  1  0  0  0  0  0  0
  162.7830  213.0980  147.3690 C   0  0  0  0  0  2  0  0  0  0  0  0
  161.6260  211.9440  150.5580 C   0  0  0  0  0  2  0  0  0  0  0  0
  158.9120  211.8780  152.4600 C   0  0  0  0  0  0  0  0  0  0  0  0
  157.8440  211.3000  152.7940 O   0  0  0  0  0  0  0  0  0  0  0  0
  159.2280  212.0040  151.0730 N   0  0  0  0  0  2  0  0  0  0  0  0
  159.8350  212.4540  153.5010 C   0  0  2  0  0  3  0  0  0  0  0  0
  159.4450  211.9270  154.8750 C   0  0  2  0  0  3  0  0  0  0  0  0
  159.1100  213.3590  154.4890 C   0  0  0  0  0  2  0  0  0  0  0  0
  159.9920  209.8450  157.2610 C   0  0  0  0  0  2  0  0  0  0  0  0
  161.1700  207.7920  156.9480 O   0  0  0  0  0  1  0  0  0  0  0  0
  161.7470  209.5950  155.5000 C   0  0  0  0  0  2  0  0  0  0  0  0
  161.3170  209.1790  156.9010 C   0  0  1  0  0  3  0  0  0  0  0  0
  160.1530  211.3660  157.2380 C   0  0  0  0  0  2  0  0  0  0  0  0
  160.6240  211.8540  155.8680 C   0  0  1  0  0  3  0  0  0  0  0  0
  161.9060  211.1160  155.4190 C   0  0  0  0  0  2  0  0  0  0  0  0
  2  4  1  0  0  0  0
  3 12  1  0  0  0  0
  3  2  1  0  0  0  0
  3 17  1  1  0  0  0
  4 11  2  0  0  0  0
  6  5  2  0  0  0  0
  7  9  2  0  0  0  0
  7 11  1  0  0  0  0
  8  1  1  6  0  0  0
  8 10  1  0  0  0  0
  8 12  1  0  0  0  0
  9  6  1  0  0  0  0
 10  7  1  0  0  0  0
 11  5  1  0  0  0  0
 13 14  2  0  0  0  0
 13 17  1  0  0  0  0
 15 18  2  0  0  0  0
 16 13  1  0  0  0  0
 17 21  1  0  0  0  0
 18 16  1  0  0  0  0
 19 16  1  0  0  0  0
 20 15  1  0  0  0  0
 20 19  2  0  0  0  0
 21 22  1  0  0  0  0
 22 23  1  0  0  0  0
 24 23  1  0  0  0  0
 24 25  1  0  0  0  0
 25 26  1  0  0  0  0
 27 26  1  0  0  0  0
 28 27  1  0  0  0  0
 29  9  1  0  0  0  0
 30 36  1  0  0  0  0
 31 34  1  0  0  0  0
 32 39  1  0  0  0  0
 33 30  1  0  0  0  0
 34 29  1  6  0  0  0
 34 32  1  0  0  0  0
 35 42  1  6  0  0  0
 36 37  1  6  0  0  0
 36 35  1  0  0  0  0
 38 31  1  0  0  0  0
 38 33  1  0  0  0  0
 39 35  1  0  0  0  0
 40 41  2  0  0  0  0
 42 40  1  0  0  0  0
 43 40  1  6  0  0  0
 43 45  1  0  0  0  0
 43 44  1  0  0  0  0
 44 45  1  1  0  0  0
 44 51  1  0  0  0  0
 48 49  1  0  0  0  0
 49 47  1  6  0  0  0
 49 46  1  0  0  0  0
 50 46  1  0  0  0  0
 51 52  1  6  0  0  0
 51 50  1  0  0  0  0
 52 48  1  0  0  0  0
M  END
>  <MODEL>
5

>  <REMARK>
 VINA RESULT:      -0.3      1.889      3.280
  Name = 
  13 active torsions:
  status: ('A' for Active; 'I' for Inactive)
    1  A    between atoms: N_1  and  O_19
    2  A    between atoms: N_1  and  C_28
    3  A    between atoms: C_3  and  N_39
    4  A    between atoms: C_3  and  C_48
    5  A    between atoms: C_4  and  C_8
    6  A    between atoms: C_6  and  C_25
    7  A    between atoms: C_6  and  C_28
    8  A    between atoms: C_13  and  N_39
    9  A    between atoms: O_19  and  C_48
   10  A    between atoms: C_27  and  C_30
   11  A    between atoms: C_30  and  C_43
   12  A    between atoms: C_32  and  N_42
   13  A    between atoms: C_36  and  C_37
                            x       y       z     vdW  Elec       q    Type
                         _______ _______ _______ _____ _____    ______ ____

>  <TORSDO>
F 13

$$$$
