=
 OpenBabel11072410573D

 42 47  0  0  1  0  0  0  0  0999 V2000
  161.6490  211.4630  138.7750 C   0  0  1  0  0  0  0  0  0  0  0  0
  161.5730  213.8210  143.5210 C   0  0  0  0  0  3  0  0  0  0  0  0
  162.2990  209.9920  140.6550 C   0  0  0  0  0  2  0  0  0  0  0  0
  162.5710  212.2050  139.7570 C   0  0  2  0  0  3  0  0  0  0  0  0
  162.3680  214.3510  141.2430 C   0  0  0  0  0  2  0  0  0  0  0  0
  159.3130  213.2560  144.0370 N   0  0  0  0  0  0  0  0  0  0  0  0
  163.3530  214.4380  138.9610 C   0  0  0  0  0  1  0  0  0  0  0  0
  160.2930  212.1540  138.5200 C   0  0  0  0  0  2  0  0  0  0  0  0
  162.3780  211.3750  137.4410 C   0  0  0  0  0  1  0  0  0  0  0  0
  158.9630  213.3590  142.7290 C   0  0  0  0  0  3  0  0  0  0  0  0
  159.5070  213.7280  140.3190 C   0  0  2  0  0  3  0  0  0  0  0  0
  161.4100  210.0860  139.4280 C   0  0  2  0  0  3  0  0  0  0  0  0
  159.9130  213.7100  141.7600 C   0  0  0  0  0  0  0  0  0  0  0  0
  158.0130  211.8220  139.4890 C   0  0  0  0  0  1  0  0  0  0  0  0
  158.3240  214.4530  140.1290 O   0  0  0  0  0  1  0  0  0  0  0  0
  162.5660  211.4230  141.0600 C   0  0  0  0  0  2  0  0  0  0  0  0
  162.3500  213.7280  139.8440 C   0  0  1  0  0  3  0  0  0  0  0  0
  159.4310  212.2960  139.7700 C   0  0  1  0  0  3  0  0  0  0  0  0
  160.5850  213.4830  144.4540 C   0  0  0  0  0  0  0  0  0  0  0  0
  161.2520  213.9270  142.1660 C   0  0  0  0  0  0  0  0  0  0  0  0
  161.7610  211.9610  148.5660 C   0  0  2  0  0  3  0  0  0  0  0  0
  160.3210  212.2190  148.6230 N   0  0  0  0  0  2  0  0  0  0  0  0
  161.3620  212.0220  146.1680 O   0  0  0  0  0  0  0  0  0  0  0  0
  162.3430  212.1670  147.1560 C   0  0  0  0  0  2  0  0  0  0  0  0
  160.0560  213.6030  148.2480 C   0  0  0  0  0  2  0  0  0  0  0  0
  159.7070  213.6770  146.7650 C   0  0  0  0  0  2  0  0  0  0  0  0
  160.9190  213.3270  145.9020 C   0  0  2  0  0  3  0  0  0  0  0  0
  162.0180  210.5990  149.0120 N   0  0  0  0  0  2  0  0  0  0  0  0
  161.3050  208.3430  151.8800 N   0  0  0  0  0  0  0  0  0  0  0  0
  161.6830  211.0220  151.4050 C   0  0  0  0  0  3  0  0  0  0  0  0
  161.5350  208.7400  150.5940 C   0  0  0  0  0  0  0  0  0  0  0  0
  161.7400  210.1200  150.3350 C   0  0  0  0  0  0  0  0  0  0  0  0
  161.4380  210.5760  152.7000 C   0  0  0  0  0  3  0  0  0  0  0  0
  161.2520  209.2140  152.9200 C   0  0  0  0  0  3  0  0  0  0  0  0
  161.5630  207.6910  149.5360 C   0  0  0  0  0  0  0  0  0  0  0  0
  160.7880  205.5290  148.7200 C   0  0  0  0  0  3  0  0  0  0  0  0
  162.3120  207.8380  148.3560 C   0  0  0  0  0  3  0  0  0  0  0  0
  160.7970  206.5250  149.7020 C   0  0  0  0  0  3  0  0  0  0  0  0
  162.3060  206.8440  147.3740 C   0  0  0  0  0  3  0  0  0  0  0  0
  161.5450  205.6880  147.5570 C   0  0  0  0  0  3  0  0  0  0  0  0
  161.5000  208.8480  138.5310 C   0  0  0  0  0  2  0  0  0  0  0  0
  161.9300  207.7320  139.2540 O   0  0  0  0  0  1  0  0  0  0  0  0
  1  9  1  6  0  0  0
  1 12  1  0  0  0  0
  1  4  1  0  0  0  0
  2 19  1  0  0  0  0
  3 16  1  0  0  0  0
  4 17  1  0  0  0  0
  4 16  1  1  0  0  0
  5 20  1  0  0  0  0
  6 19  2  0  0  0  0
  8  1  1  0  0  0  0
  8 18  1  0  0  0  0
 10  6  1  0  0  0  0
 11 15  1  1  0  0  0
 11 13  1  0  0  0  0
 12 41  1  6  0  0  0
 12  3  1  0  0  0  0
 13 20  1  0  0  0  0
 13 10  2  0  0  0  0
 17  7  1  6  0  0  0
 17  5  1  0  0  0  0
 18 14  1  6  0  0  0
 18 11  1  0  0  0  0
 20  2  2  0  0  0  0
 21 22  1  0  0  0  0
 21 28  1  6  0  0  0
 23 24  1  0  0  0  0
 24 21  1  0  0  0  0
 25 22  1  0  0  0  0
 26 25  1  0  0  0  0
 27 19  1  6  0  0  0
 27 23  1  0  0  0  0
 27 26  1  0  0  0  0
 28 32  1  0  0  0  0
 29 34  1  0  0  0  0
 30 33  1  0  0  0  0
 31 29  2  0  0  0  0
 32 31  1  0  0  0  0
 32 30  2  0  0  0  0
 33 34  2  0  0  0  0
 35 38  1  0  0  0  0
 35 31  1  0  0  0  0
 36 38  2  0  0  0  0
 37 35  2  0  0  0  0
 39 40  2  0  0  0  0
 39 37  1  0  0  0  0
 40 36  1  0  0  0  0
 41 42  1  0  0  0  0
M  END
>  <MODEL>
1

>  <REMARK>
 VINA RESULT:      -6.6      0.000      0.000
  Name = 
  5 active torsions:
  status: ('A' for Active; 'I' for Inactive)
    1  A    between atoms: C_6  and  N_33
    2  A    between atoms: C_10  and  C_25
    3  A    between atoms: C_15  and  C_28
    4  A    between atoms: C_26  and  N_33
    5  A    between atoms: C_37  and  C_41
                            x       y       z     vdW  Elec       q    Type
                         _______ _______ _______ _____ _____    ______ ____

>  <TORSDO>
F 5

$$$$
=
 OpenBabel11072410573D

 42 47  0  0  1  0  0  0  0  0999 V2000
  157.6320  211.8020  155.8880 C   0  0  1  0  0  0  0  0  0  0  0  0
  160.7380  210.3830  151.8340 C   0  0  0  0  0  3  0  0  0  0  0  0
  156.4430  210.6580  154.0440 C   0  0  0  0  0  2  0  0  0  0  0  0
  158.1220  212.3100  154.5220 C   0  0  2  0  0  3  0  0  0  0  0  0
  160.4220  212.3670  153.2720 C   0  0  0  0  0  2  0  0  0  0  0  0
  161.2520  208.2090  152.6720 N   0  0  0  0  0  0  0  0  0  0  0  0
  159.6340  214.2930  154.6340 C   0  0  0  0  0  1  0  0  0  0  0  0
  158.7420  211.2480  156.8040 C   0  0  0  0  0  2  0  0  0  0  0  0
  156.9850  212.9770  156.6080 C   0  0  0  0  0  1  0  0  0  0  0  0
  161.2170  208.6660  153.9500 C   0  0  0  0  0  3  0  0  0  0  0  0
  160.8320  210.4610  155.6440 C   0  0  2  0  0  3  0  0  0  0  0  0
  156.6340  210.6740  155.5500 C   0  0  2  0  0  3  0  0  0  0  0  0
  160.9480  210.0150  154.2190 C   0  0  0  0  0  0  0  0  0  0  0  0
  159.5650  208.9330  157.2610 C   0  0  0  0  0  1  0  0  0  0  0  0
  161.9170  210.0160  156.4090 O   0  0  0  0  0  1  0  0  0  0  0  0
  157.6940  211.2900  153.4800 C   0  0  0  0  0  2  0  0  0  0  0  0
  159.5870  212.7880  154.4850 C   0  0  1  0  0  3  0  0  0  0  0  0
  159.4730  210.0420  156.2240 C   0  0  1  0  0  3  0  0  0  0  0  0
  161.0270  209.0320  151.6140 C   0  0  0  0  0  0  0  0  0  0  0  0
  160.6840  210.8870  153.1360 C   0  0  0  0  0  0  0  0  0  0  0  0
  161.5180  206.4400  147.9200 C   0  0  2  0  0  3  0  0  0  0  0  0
  162.5500  207.4750  147.8310 N   0  0  0  0  0  2  0  0  0  0  0  0
  161.4670  207.1270  150.2520 O   0  0  0  0  0  0  0  0  0  0  0  0
  160.7290  206.5020  149.2390 C   0  0  0  0  0  2  0  0  0  0  0  0
  161.9280  208.7930  147.8960 C   0  0  0  0  0  2  0  0  0  0  0  0
  161.9590  209.3060  149.3320 C   0  0  0  0  0  2  0  0  0  0  0  0
  161.0500  208.4670  150.2310 C   0  0  2  0  0  3  0  0  0  0  0  0
  162.1440  205.1320  147.7810 N   0  0  0  0  0  2  0  0  0  0  0  0
  160.5060  201.9080  146.9200 N   0  0  0  0  0  0  0  0  0  0  0  0
  161.5190  204.1160  145.6370 C   0  0  0  0  0  3  0  0  0  0  0  0
  161.0590  202.8950  147.6840 C   0  0  0  0  0  0  0  0  0  0  0  0
  161.5790  204.0450  147.0350 C   0  0  0  0  0  0  0  0  0  0  0  0
  160.9540  203.0830  144.8960 C   0  0  0  0  0  3  0  0  0  0  0  0
  160.4430  201.9740  145.5660 C   0  0  0  0  0  3  0  0  0  0  0  0
  161.0770  202.7050  149.1610 C   0  0  0  0  0  0  0  0  0  0  0  0
  161.2100  201.1940  151.0690 C   0  0  0  0  0  3  0  0  0  0  0  0
  161.0280  203.7880  150.0560 C   0  0  0  0  0  3  0  0  0  0  0  0
  161.1740  201.4060  149.6880 C   0  0  0  0  0  3  0  0  0  0  0  0
  161.0630  203.5790  151.4370 C   0  0  0  0  0  3  0  0  0  0  0  0
  161.1510  202.2810  151.9440 C   0  0  0  0  0  3  0  0  0  0  0  0
  155.3100  210.6410  156.3190 C   0  0  0  0  0  2  0  0  0  0  0  0
  154.4720  209.6330  155.8370 O   0  0  0  0  0  1  0  0  0  0  0  0
  1  9  1  1  0  0  0
  1  8  1  0  0  0  0
  2 20  1  0  0  0  0
  3 12  1  0  0  0  0
  4 16  1  6  0  0  0
  4  1  1  0  0  0  0
  5 17  1  0  0  0  0
  6 10  2  0  0  0  0
 10 13  1  0  0  0  0
 11 18  1  0  0  0  0
 11 15  1  1  0  0  0
 12  1  1  0  0  0  0
 12 41  1  1  0  0  0
 13 11  1  0  0  0  0
 16  3  1  0  0  0  0
 17  4  1  0  0  0  0
 17  7  1  6  0  0  0
 18  8  1  0  0  0  0
 18 14  1  1  0  0  0
 19  2  2  0  0  0  0
 19  6  1  0  0  0  0
 20  5  1  0  0  0  0
 20 13  2  0  0  0  0
 21 28  1  1  0  0  0
 21 24  1  0  0  0  0
 22 25  1  0  0  0  0
 22 21  1  0  0  0  0
 24 23  1  0  0  0  0
 25 26  1  0  0  0  0
 26 27  1  0  0  0  0
 27 23  1  0  0  0  0
 27 19  1  1  0  0  0
 29 31  1  0  0  0  0
 30 32  1  0  0  0  0
 31 35  1  0  0  0  0
 32 31  2  0  0  0  0
 32 28  1  0  0  0  0
 33 34  1  0  0  0  0
 33 30  2  0  0  0  0
 34 29  2  0  0  0  0
 35 38  2  0  0  0  0
 35 37  1  0  0  0  0
 36 40  2  0  0  0  0
 37 39  2  0  0  0  0
 38 36  1  0  0  0  0
 39 40  1  0  0  0  0
 42 41  1  0  0  0  0
M  END
>  <MODEL>
2

>  <REMARK>
 VINA RESULT:      -5.6      6.877     11.984
  Name = 
  5 active torsions:
  status: ('A' for Active; 'I' for Inactive)
    1  A    between atoms: C_6  and  N_33
    2  A    between atoms: C_10  and  C_25
    3  A    between atoms: C_15  and  C_28
    4  A    between atoms: C_26  and  N_33
    5  A    between atoms: C_37  and  C_41
                            x       y       z     vdW  Elec       q    Type
                         _______ _______ _______ _____ _____    ______ ____

>  <TORSDO>
F 5

$$$$
=
 OpenBabel11072410573D

 42 47  0  0  1  0  0  0  0  0999 V2000
  157.5730  211.8890  155.7240 C   0  0  1  0  0  0  0  0  0  0  0  0
  160.6690  210.4360  151.6750 C   0  0  0  0  0  3  0  0  0  0  0  0
  156.4550  210.4510  154.0510 C   0  0  0  0  0  2  0  0  0  0  0  0
  157.9530  212.3150  154.2950 C   0  0  2  0  0  3  0  0  0  0  0  0
  160.1840  212.5020  152.9380 C   0  0  0  0  0  2  0  0  0  0  0  0
  161.4570  208.4220  152.6820 N   0  0  0  0  0  0  0  0  0  0  0  0
  159.2330  214.4530  154.1550 C   0  0  0  0  0  1  0  0  0  0  0  0
  158.7720  211.5510  156.6340 C   0  0  0  0  0  2  0  0  0  0  0  0
  156.8240  213.0510  156.3630 C   0  0  0  0  0  1  0  0  0  0  0  0
  161.4170  208.9930  153.9130 C   0  0  0  0  0  3  0  0  0  0  0  0
  160.8940  210.8900  155.4530 C   0  0  2  0  0  3  0  0  0  0  0  0
  156.6980  210.6320  155.5390 C   0  0  2  0  0  3  0  0  0  0  0  0
  161.0070  210.3240  154.0710 C   0  0  0  0  0  0  0  0  0  0  0  0
  159.8690  209.3950  157.2610 C   0  0  0  0  0  1  0  0  0  0  0  0
  162.0500  210.6420  156.2030 O   0  0  0  0  0  1  0  0  0  0  0  0
  157.6040  211.1580  153.3730 C   0  0  0  0  0  2  0  0  0  0  0  0
  159.3520  212.9440  154.1460 C   0  0  1  0  0  3  0  0  0  0  0  0
  159.6140  210.3830  156.1320 C   0  0  1  0  0  3  0  0  0  0  0  0
  161.1010  209.1090  151.5660 C   0  0  0  0  0  0  0  0  0  0  0  0
  160.6070  211.0540  152.9260 C   0  0  0  0  0  0  0  0  0  0  0  0
  161.1950  206.1110  148.1590 C   0  0  2  0  0  3  0  0  0  0  0  0
  162.5330  206.7010  148.2190 N   0  0  0  0  0  2  0  0  0  0  0  0
  161.0260  207.0300  150.4040 O   0  0  0  0  0  0  0  0  0  0  0  0
  160.2830  206.5940  149.3000 C   0  0  0  0  0  2  0  0  0  0  0  0
  162.4340  208.1510  148.1020 C   0  0  0  0  0  2  0  0  0  0  0  0
  162.4200  208.7800  149.4920 C   0  0  0  0  0  2  0  0  0  0  0  0
  161.1370  208.4210  150.2400 C   0  0  2  0  0  3  0  0  0  0  0  0
  161.3130  204.6590  148.2040 N   0  0  0  0  0  2  0  0  0  0  0  0
  160.8860  201.7740  150.5080 N   0  0  0  0  0  0  0  0  0  0  0  0
  161.1710  204.5020  150.6480 C   0  0  0  0  0  3  0  0  0  0  0  0
  161.0010  202.4670  149.3380 C   0  0  0  0  0  0  0  0  0  0  0  0
  161.1560  203.8760  149.3950 C   0  0  0  0  0  0  0  0  0  0  0  0
  161.0440  203.7580  151.8170 C   0  0  0  0  0  3  0  0  0  0  0  0
  160.9040  202.3770  151.7250 C   0  0  0  0  0  3  0  0  0  0  0  0
  160.9600  201.6950  148.0640 C   0  0  0  0  0  0  0  0  0  0  0  0
  161.5420  199.6750  146.8300 C   0  0  0  0  0  3  0  0  0  0  0  0
  160.3010  202.1730  146.9190 C   0  0  0  0  0  3  0  0  0  0  0  0
  161.5750  200.4330  148.0040 C   0  0  0  0  0  3  0  0  0  0  0  0
  160.2680  201.4190  145.7430 C   0  0  0  0  0  3  0  0  0  0  0  0
  160.8900  200.1700  145.6980 C   0  0  0  0  0  3  0  0  0  0  0  0
  155.4150  210.5290  156.3690 C   0  0  0  0  0  2  0  0  0  0  0  0
  154.5070  209.6420  155.7850 O   0  0  0  0  0  1  0  0  0  0  0  0
  1  9  1  1  0  0  0
  1  8  1  0  0  0  0
  2 20  1  0  0  0  0
  3 12  1  0  0  0  0
  4 16  1  6  0  0  0
  4  1  1  0  0  0  0
  5 17  1  0  0  0  0
  6 10  2  0  0  0  0
 10 13  1  0  0  0  0
 11 18  1  0  0  0  0
 11 15  1  1  0  0  0
 12  1  1  0  0  0  0
 12 41  1  1  0  0  0
 13 11  1  0  0  0  0
 16  3  1  0  0  0  0
 17  7  1  6  0  0  0
 17  4  1  0  0  0  0
 18  8  1  0  0  0  0
 18 14  1  1  0  0  0
 19  2  2  0  0  0  0
 19  6  1  0  0  0  0
 20  5  1  0  0  0  0
 20 13  2  0  0  0  0
 21 28  1  1  0  0  0
 21 22  1  0  0  0  0
 21 24  1  0  0  0  0
 24 23  1  0  0  0  0
 25 22  1  0  0  0  0
 25 26  1  0  0  0  0
 26 27  1  0  0  0  0
 27 23  1  0  0  0  0
 27 19  1  1  0  0  0
 28 32  1  0  0  0  0
 29 34  1  0  0  0  0
 30 33  1  0  0  0  0
 31 32  1  0  0  0  0
 31 29  2  0  0  0  0
 32 30  2  0  0  0  0
 34 33  2  0  0  0  0
 35 31  1  0  0  0  0
 36 38  2  0  0  0  0
 37 35  2  0  0  0  0
 38 35  1  0  0  0  0
 39 37  1  0  0  0  0
 40 39  2  0  0  0  0
 40 36  1  0  0  0  0
 42 41  1  0  0  0  0
M  END
>  <MODEL>
3

>  <REMARK>
 VINA RESULT:      -5.3      7.284     11.792
  Name = 
  5 active torsions:
  status: ('A' for Active; 'I' for Inactive)
    1  A    between atoms: C_6  and  N_33
    2  A    between atoms: C_10  and  C_25
    3  A    between atoms: C_15  and  C_28
    4  A    between atoms: C_26  and  N_33
    5  A    between atoms: C_37  and  C_41
                            x       y       z     vdW  Elec       q    Type
                         _______ _______ _______ _____ _____    ______ ____

>  <TORSDO>
F 5

$$$$
=
 OpenBabel11072410573D

 42 47  0  0  1  0  0  0  0  0999 V2000
  157.9980  212.3030  155.5580 C   0  0  1  0  0  0  0  0  0  0  0  0
  160.5330  209.9830  151.5230 C   0  0  0  0  0  3  0  0  0  0  0  0
  156.6620  210.6020  154.3570 C   0  0  0  0  0  2  0  0  0  0  0  0
  158.1930  212.4270  154.0380 C   0  0  2  0  0  3  0  0  0  0  0  0
  160.2310  212.2720  152.4020 C   0  0  0  0  0  2  0  0  0  0  0  0
  161.4290  208.1810  152.8040 N   0  0  0  0  0  0  0  0  0  0  0  0
  159.4600  214.4530  153.3160 C   0  0  0  0  0  1  0  0  0  0  0  0
  159.3020  212.1110  156.3600 C   0  0  0  0  0  2  0  0  0  0  0  0
  157.3460  213.5920  156.0420 C   0  0  0  0  0  1  0  0  0  0  0  0
  161.5530  208.9830  153.8920 C   0  0  0  0  0  3  0  0  0  0  0  0
  161.2480  211.1610  155.0780 C   0  0  2  0  0  3  0  0  0  0  0  0
  157.0960  211.0640  155.7370 C   0  0  2  0  0  3  0  0  0  0  0  0
  161.1770  210.3320  153.8320 C   0  0  0  0  0  0  0  0  0  0  0  0
  160.4540  210.0840  157.2600 C   0  0  0  0  0  1  0  0  0  0  0  0
  162.4890  211.0270  155.7110 O   0  0  0  0  0  1  0  0  0  0  0  0
  157.7190  211.1250  153.4140 C   0  0  0  0  0  2  0  0  0  0  0  0
  159.5650  212.9690  153.5930 C   0  0  1  0  0  3  0  0  0  0  0  0
  160.0620  210.8390  155.9990 C   0  0  1  0  0  3  0  0  0  0  0  0
  160.9370  208.6470  151.6270 C   0  0  0  0  0  0  0  0  0  0  0  0
  160.6380  210.8360  152.6240 C   0  0  0  0  0  0  0  0  0  0  0  0
  161.1440  205.1550  148.7340 C   0  0  2  0  0  3  0  0  0  0  0  0
  161.9730  206.2130  148.1550 N   0  0  0  0  0  2  0  0  0  0  0  0
  161.4090  206.4800  150.7560 O   0  0  0  0  0  0  0  0  0  0  0  0
  160.6040  205.5210  150.1280 C   0  0  0  0  0  2  0  0  0  0  0  0
  161.1800  207.4270  148.0010 C   0  0  0  0  0  2  0  0  0  0  0  0
  161.3910  208.3350  149.2090 C   0  0  0  0  0  2  0  0  0  0  0  0
  160.7960  207.7110  150.4710 C   0  0  2  0  0  3  0  0  0  0  0  0
  161.9260  203.9290  148.8140 N   0  0  0  0  0  2  0  0  0  0  0  0
  161.0200  201.3660  146.2780 N   0  0  0  0  0  0  0  0  0  0  0  0
  161.3620  201.5480  148.9970 C   0  0  0  0  0  3  0  0  0  0  0  0
  161.3550  202.5810  146.8010 C   0  0  0  0  0  0  0  0  0  0  0  0
  161.5420  202.6890  148.2040 C   0  0  0  0  0  0  0  0  0  0  0  0
  161.0130  200.3300  148.4220 C   0  0  0  0  0  3  0  0  0  0  0  0
  160.8470  200.2580  147.0420 C   0  0  0  0  0  3  0  0  0  0  0  0
  161.5090  203.7270  145.8610 C   0  0  0  0  0  0  0  0  0  0  0  0
  160.4900  205.2940  144.2970 C   0  0  0  0  0  3  0  0  0  0  0  0
  162.7440  204.3650  145.6550 C   0  0  0  0  0  3  0  0  0  0  0  0
  160.3830  204.2110  145.1740 C   0  0  0  0  0  3  0  0  0  0  0  0
  162.8540  205.4480  144.7780 C   0  0  0  0  0  3  0  0  0  0  0  0
  161.7270  205.9110  144.0970 C   0  0  0  0  0  3  0  0  0  0  0  0
  155.9310  211.1680  156.7250 C   0  0  0  0  0  2  0  0  0  0  0  0
  154.8570  210.3690  156.3240 O   0  0  0  0  0  1  0  0  0  0  0  0
  1 12  1  0  0  0  0
  1  9  1  1  0  0  0
  1  8  1  0  0  0  0
  2 19  2  0  0  0  0
  2 20  1  0  0  0  0
  3 12  1  0  0  0  0
  4 16  1  6  0  0  0
  4  1  1  0  0  0  0
  5 20  1  0  0  0  0
  5 17  1  0  0  0  0
  6 10  2  0  0  0  0
 11 15  1  1  0  0  0
 11 18  1  0  0  0  0
 12 41  1  1  0  0  0
 13 10  1  0  0  0  0
 13 11  1  0  0  0  0
 16  3  1  0  0  0  0
 17  7  1  6  0  0  0
 17  4  1  0  0  0  0
 18  8  1  0  0  0  0
 18 14  1  1  0  0  0
 19  6  1  0  0  0  0
 20 13  2  0  0  0  0
 21 28  1  1  0  0  0
 21 24  1  0  0  0  0
 22 21  1  0  0  0  0
 24 23  1  0  0  0  0
 25 22  1  0  0  0  0
 25 26  1  0  0  0  0
 26 27  1  0  0  0  0
 27 23  1  0  0  0  0
 27 19  1  1  0  0  0
 29 31  2  0  0  0  0
 29 34  1  0  0  0  0
 31 32  1  0  0  0  0
 32 28  1  0  0  0  0
 32 30  2  0  0  0  0
 33 30  1  0  0  0  0
 34 33  2  0  0  0  0
 35 31  1  0  0  0  0
 36 38  1  0  0  0  0
 37 35  1  0  0  0  0
 38 35  2  0  0  0  0
 39 37  2  0  0  0  0
 40 36  2  0  0  0  0
 40 39  1  0  0  0  0
 42 41  1  0  0  0  0
M  END
>  <MODEL>
4

>  <REMARK>
 VINA RESULT:      -5.2      6.624     11.906
  Name = 
  5 active torsions:
  status: ('A' for Active; 'I' for Inactive)
    1  A    between atoms: C_6  and  N_33
    2  A    between atoms: C_10  and  C_25
    3  A    between atoms: C_15  and  C_28
    4  A    between atoms: C_26  and  N_33
    5  A    between atoms: C_37  and  C_41
                            x       y       z     vdW  Elec       q    Type
                         _______ _______ _______ _____ _____    ______ ____

>  <TORSDO>
F 5

$$$$
=
 OpenBabel11072410573D

 42 47  0  0  1  0  0  0  0  0999 V2000
  159.7060  212.4640  138.2490 C   0  0  1  0  0  0  0  0  0  0  0  0
  160.7880  212.3280  143.4360 C   0  0  0  0  0  3  0  0  0  0  0  0
  158.2080  213.8580  139.6400 C   0  0  0  0  0  2  0  0  0  0  0  0
  159.3060  211.7220  139.5350 C   0  0  2  0  0  3  0  0  0  0  0  0
  160.5930  210.7110  141.5790 C   0  0  0  0  0  2  0  0  0  0  0  0
  162.2840  214.1880  143.4200 N   0  0  0  0  0  0  0  0  0  0  0  0
  159.9900  209.3230  139.6050 C   0  0  0  0  0  1  0  0  0  0  0  0
  161.2270  212.6060  138.0350 C   0  0  0  0  0  2  0  0  0  0  0  0
  159.1480  211.6730  137.0730 C   0  0  0  0  0  1  0  0  0  0  0  0
  162.7170  213.8600  142.1760 C   0  0  0  0  0  3  0  0  0  0  0  0
  162.6450  212.4590  140.1090 C   0  0  2  0  0  3  0  0  0  0  0  0
  159.0730  213.8640  138.3920 C   0  0  2  0  0  3  0  0  0  0  0  0
  162.2050  212.7360  141.5130 C   0  0  0  0  0  0  0  0  0  0  0  0
  162.8400  214.4530  138.5160 C   0  0  0  0  0  1  0  0  0  0  0  0
  164.0400  212.5010  139.9930 O   0  0  0  0  0  1  0  0  0  0  0  0
  158.7760  212.7610  140.5100 C   0  0  0  0  0  2  0  0  0  0  0  0
  160.3480  210.7190  140.0670 C   0  0  1  0  0  3  0  0  0  0  0  0
  161.9290  213.4010  139.1310 C   0  0  1  0  0  3  0  0  0  0  0  0
  161.3420  213.4500  144.0640 C   0  0  0  0  0  0  0  0  0  0  0  0
  161.2040  211.9660  142.1520 C   0  0  0  0  0  0  0  0  0  0  0  0
  160.4410  213.8140  148.4980 C   0  0  2  0  0  3  0  0  0  0  0  0
  159.1730  213.4720  147.8520 N   0  0  0  0  0  2  0  0  0  0  0  0
  161.3720  213.0010  146.4040 O   0  0  0  0  0  0  0  0  0  0  0  0
  161.6260  213.8140  147.5160 C   0  0  0  0  0  2  0  0  0  0  0  0
  158.8710  214.4530  146.8170 C   0  0  0  0  0  2  0  0  0  0  0  0
  159.3550  213.9410  145.4640 C   0  0  0  0  0  2  0  0  0  0  0  0
  160.8810  213.8750  145.4200 C   0  0  2  0  0  3  0  0  0  0  0  0
  160.6960  212.8690  149.5770 N   0  0  0  0  0  2  0  0  0  0  0  0
  159.7070  212.1050  153.0780 N   0  0  0  0  0  0  0  0  0  0  0  0
  159.5290  214.1820  151.2890 C   0  0  0  0  0  3  0  0  0  0  0  0
  160.2230  211.9190  151.8280 C   0  0  0  0  0  0  0  0  0  0  0  0
  160.1450  212.9860  150.8960 C   0  0  0  0  0  0  0  0  0  0  0  0
  159.0090  214.3250  152.5720 C   0  0  0  0  0  3  0  0  0  0  0  0
  159.1120  213.2620  153.4640 C   0  0  0  0  0  3  0  0  0  0  0  0
  160.8450  210.6010  151.5190 C   0  0  0  0  0  0  0  0  0  0  0  0
  160.9930  208.2090  151.9620 C   0  0  0  0  0  3  0  0  0  0  0  0
  161.8090  210.4470  150.5080 C   0  0  0  0  0  3  0  0  0  0  0  0
  160.4410  209.4640  152.2380 C   0  0  0  0  0  3  0  0  0  0  0  0
  162.3630  209.1940  150.2310 C   0  0  0  0  0  3  0  0  0  0  0  0
  161.9560  208.0750  150.9600 C   0  0  0  0  0  3  0  0  0  0  0  0
  158.3560  214.4500  137.1720 C   0  0  0  0  0  2  0  0  0  0  0  0
  156.9700  214.3210  137.2930 O   0  0  0  0  0  1  0  0  0  0  0  0
  1  9  1  6  0  0  0
  1 12  1  0  0  0  0
  1  4  1  0  0  0  0
  2 19  1  0  0  0  0
  3 16  1  0  0  0  0
  4 17  1  0  0  0  0
  4 16  1  1  0  0  0
  5 20  1  0  0  0  0
  6 19  2  0  0  0  0
  8  1  1  0  0  0  0
  8 18  1  0  0  0  0
 10  6  1  0  0  0  0
 11 15  1  1  0  0  0
 11 13  1  0  0  0  0
 12 41  1  6  0  0  0
 12  3  1  0  0  0  0
 13 20  1  0  0  0  0
 13 10  2  0  0  0  0
 17  7  1  1  0  0  0
 17  5  1  0  0  0  0
 18 14  1  6  0  0  0
 18 11  1  0  0  0  0
 20  2  2  0  0  0  0
 21 28  1  1  0  0  0
 22 21  1  0  0  0  0
 23 24  1  0  0  0  0
 24 21  1  0  0  0  0
 25 22  1  0  0  0  0
 26 25  1  0  0  0  0
 27 19  1  6  0  0  0
 27 26  1  0  0  0  0
 27 23  1  0  0  0  0
 28 32  1  0  0  0  0
 29 34  1  0  0  0  0
 30 33  1  0  0  0  0
 31 29  2  0  0  0  0
 32 30  2  0  0  0  0
 32 31  1  0  0  0  0
 33 34  2  0  0  0  0
 35 31  1  0  0  0  0
 35 38  1  0  0  0  0
 36 38  2  0  0  0  0
 37 35  2  0  0  0  0
 39 37  1  0  0  0  0
 39 40  2  0  0  0  0
 40 36  1  0  0  0  0
 41 42  1  0  0  0  0
M  END
>  <MODEL>
5

>  <REMARK>
 VINA RESULT:      -5.1      2.088      3.842
  Name = 
  5 active torsions:
  status: ('A' for Active; 'I' for Inactive)
    1  A    between atoms: C_6  and  N_33
    2  A    between atoms: C_10  and  C_25
    3  A    between atoms: C_15  and  C_28
    4  A    between atoms: C_26  and  N_33
    5  A    between atoms: C_37  and  C_41
                            x       y       z     vdW  Elec       q    Type
                         _______ _______ _______ _____ _____    ______ ____

>  <TORSDO>
F 5

$$$$
=
 OpenBabel11072410573D

 42 47  0  0  1  0  0  0  0  0999 V2000
  161.8310  210.8170  138.4600 C   0  0  1  0  0  0  0  0  0  0  0  0
  162.1030  213.3860  143.0880 C   0  0  0  0  0  3  0  0  0  0  0  0
  162.1870  209.3510  140.4200 C   0  0  0  0  0  2  0  0  0  0  0  0
  162.8550  211.4350  139.4270 C   0  0  2  0  0  3  0  0  0  0  0  0
  163.0110  213.6540  140.8060 C   0  0  0  0  0  2  0  0  0  0  0  0
  159.7720  213.2500  143.5780 N   0  0  0  0  0  0  0  0  0  0  0  0
  164.0280  213.4540  138.5450 C   0  0  0  0  0  1  0  0  0  0  0  0
  160.6210  211.7200  138.1420 C   0  0  0  0  0  2  0  0  0  0  0  0
  162.5520  210.5360  137.1480 C   0  0  0  0  0  1  0  0  0  0  0  0
  159.4640  213.3470  142.2590 C   0  0  0  0  0  3  0  0  0  0  0  0
  160.0980  213.4950  139.8470 C   0  0  2  0  0  3  0  0  0  0  0  0
  161.3450  209.5370  139.1700 C   0  0  2  0  0  3  0  0  0  0  0  0
  160.4750  213.4790  141.2970 C   0  0  0  0  0  0  0  0  0  0  0  0
  158.3050  211.8400  139.0740 C   0  0  0  0  0  1  0  0  0  0  0  0
  159.0640  214.4050  139.5980 O   0  0  0  0  0  1  0  0  0  0  0  0
  162.6950  210.7310  140.7640 C   0  0  0  0  0  2  0  0  0  0  0  0
  162.9030  212.9750  139.4370 C   0  0  1  0  0  3  0  0  0  0  0  0
  159.7800  212.0730  139.3640 C   0  0  1  0  0  3  0  0  0  0  0  0
  161.0590  213.2730  144.0130 C   0  0  0  0  0  0  0  0  0  0  0  0
  161.8250  213.4790  141.7220 C   0  0  0  0  0  0  0  0  0  0  0  0
  160.8360  212.6390  148.5020 C   0  0  2  0  0  3  0  0  0  0  0  0
  161.0280  214.0770  148.3030 N   0  0  0  0  0  2  0  0  0  0  0  0
  160.1880  212.7150  146.1590 O   0  0  0  0  0  0  0  0  0  0  0  0
  160.6580  211.8760  147.1780 C   0  0  0  0  0  2  0  0  0  0  0  0
  162.2320  214.3050  147.5130 C   0  0  0  0  0  2  0  0  0  0  0  0
  161.8620  214.4530  146.0410 C   0  0  0  0  0  2  0  0  0  0  0  0
  161.3400  213.1330  145.4740 C   0  0  2  0  0  3  0  0  0  0  0  0
  159.6720  212.4290  149.3530 N   0  0  0  0  0  2  0  0  0  0  0  0
  160.1730  212.1830  153.0280 N   0  0  0  0  0  0  0  0  0  0  0  0
  159.0470  213.9060  151.2090 C   0  0  0  0  0  3  0  0  0  0  0  0
  160.2090  211.8350  151.7090 C   0  0  0  0  0  0  0  0  0  0  0  0
  159.6390  212.7190  150.7570 C   0  0  0  0  0  0  0  0  0  0  0  0
  159.0250  214.2180  152.5650 C   0  0  0  0  0  3  0  0  0  0  0  0
  159.6030  213.3330  153.4700 C   0  0  0  0  0  3  0  0  0  0  0  0
  160.8560  210.5420  151.3460 C   0  0  0  0  0  0  0  0  0  0  0  0
  161.0440  208.1360  151.6870 C   0  0  0  0  0  3  0  0  0  0  0  0
  161.8270  210.4480  150.3350 C   0  0  0  0  0  3  0  0  0  0  0  0
  160.4690  209.3680  152.0140 C   0  0  0  0  0  3  0  0  0  0  0  0
  162.4040  209.2180  150.0070 C   0  0  0  0  0  3  0  0  0  0  0  0
  162.0130  208.0620  150.6850 C   0  0  0  0  0  3  0  0  0  0  0  0
  161.2280  208.2580  138.3350 C   0  0  0  0  0  2  0  0  0  0  0  0
  162.0630  207.2540  138.8310 O   0  0  0  0  0  1  0  0  0  0  0  0
  1  9  1  6  0  0  0
  1 12  1  0  0  0  0
  1  4  1  0  0  0  0
  2 19  1  0  0  0  0
  3 16  1  0  0  0  0
  4 17  1  0  0  0  0
  4 16  1  1  0  0  0
  5 20  1  0  0  0  0
  6 19  2  0  0  0  0
  8  1  1  0  0  0  0
  8 18  1  0  0  0  0
 10  6  1  0  0  0  0
 11 15  1  1  0  0  0
 11 13  1  0  0  0  0
 12 41  1  6  0  0  0
 12  3  1  0  0  0  0
 13 20  1  0  0  0  0
 13 10  2  0  0  0  0
 17  7  1  6  0  0  0
 17  5  1  0  0  0  0
 18 14  1  6  0  0  0
 18 11  1  0  0  0  0
 20  2  2  0  0  0  0
 21 28  1  1  0  0  0
 22 21  1  0  0  0  0
 23 24  1  0  0  0  0
 24 21  1  0  0  0  0
 25 22  1  0  0  0  0
 26 25  1  0  0  0  0
 27 19  1  6  0  0  0
 27 26  1  0  0  0  0
 27 23  1  0  0  0  0
 28 32  1  0  0  0  0
 29 34  1  0  0  0  0
 30 33  1  0  0  0  0
 31 29  2  0  0  0  0
 32 30  2  0  0  0  0
 32 31  1  0  0  0  0
 33 34  2  0  0  0  0
 35 31  1  0  0  0  0
 35 38  1  0  0  0  0
 36 38  2  0  0  0  0
 37 35  2  0  0  0  0
 39 37  1  0  0  0  0
 39 40  2  0  0  0  0
 40 36  1  0  0  0  0
 41 42  1  0  0  0  0
M  END
>  <MODEL>
6

>  <REMARK>
 VINA RESULT:      -5.1      1.619      2.294
  Name = 
  5 active torsions:
  status: ('A' for Active; 'I' for Inactive)
    1  A    between atoms: C_6  and  N_33
    2  A    between atoms: C_10  and  C_25
    3  A    between atoms: C_15  and  C_28
    4  A    between atoms: C_26  and  N_33
    5  A    between atoms: C_37  and  C_41
                            x       y       z     vdW  Elec       q    Type
                         _______ _______ _______ _____ _____    ______ ____

>  <TORSDO>
F 5

$$$$
