=
 OpenBabel11072413113D

 34 38  0  0  1  0  0  0  0  0999 V2000
  162.3790  210.6270  148.9460 C   0  0  0  0  0  3  0  0  0  0  0  0
  158.5400  211.1340  152.5290 O   0  0  0  0  0  0  0  0  0  0  0  0
  162.1230  212.3970  147.4680 F   0  0  0  0  0  0  0  0  0  0  0  0
  162.2180  209.9880  150.2940 C   0  0  1  0  0  3  0  0  0  0  0  0
  161.1100  212.5440  149.6470 N   0  0  0  0  0  0  0  0  0  0  0  0
  158.9160  212.3360  152.5670 C   0  0  0  0  0  0  0  0  0  0  0  0
  160.7160  212.0330  150.7750 C   0  0  0  0  0  0  0  0  0  0  0  0
  159.8750  212.8330  151.6230 N   0  0  0  0  0  2  0  0  0  0  0  0
  161.0980  210.6110  151.1590 C   0  0  2  0  0  3  0  0  0  0  0  0
  161.9000  211.8400  148.6840 C   0  0  0  0  0  0  0  0  0  0  0  0
  161.6580  207.0460  148.1190 C   0  0  1  0  0  3  0  0  0  0  0  0
  161.1190  208.2300  148.9090 C   0  0  1  0  0  3  0  0  0  0  0  0
  161.9980  208.4920  150.1220 C   0  0  1  0  0  3  0  0  0  0  0  0
  162.6110  208.0020  148.8220 C   0  0  1  0  0  3  0  0  0  0  0  0
  161.1150  202.0070  147.9870 C   0  0  0  0  0  2  0  0  0  0  0  0
  160.5840  201.7170  150.3390 C   0  0  0  0  0  3  0  0  0  0  0  0
  160.7950  203.1140  150.0140 N   0  0  0  0  0  0  0  0  0  0  0  0
  161.4220  205.7960  150.1520 O   0  0  0  0  0  0  0  0  0  0  0  0
  161.3380  204.5410  148.1740 N   0  0  0  0  0  2  0  0  0  0  0  0
  160.7530  200.9550  149.0260 C   0  0  0  0  0  3  0  0  0  0  0  0
  161.4550  205.7770  148.8890 C   0  0  0  0  0  0  0  0  0  0  0  0
  161.0820  203.2640  148.7670 C   0  0  0  0  0  0  0  0  0  0  0  0
  157.0580  213.4670  153.5850 N   0  0  0  0  0  2  0  0  0  0  0  0
  158.3300  213.2370  153.5640 C   0  0  0  0  0  3  0  0  0  0  0  0
  161.4840  210.5230  152.6400 C   0  0  0  0  0  2  0  0  0  0  0  0
  160.6820  209.4500  153.3790 C   0  0  0  0  0  2  0  0  0  0  0  0
  161.5540  208.5940  157.0040 C   0  0  0  0  0  2  0  0  0  0  0  0
  160.9040  206.6600  153.3710 O   0  0  0  0  0  1  0  0  0  0  0  0
  161.4150  209.5200  155.7960 C   0  0  2  0  0  3  0  0  0  0  0  0
  161.5090  208.7520  154.4640 C   0  0  1  0  0  3  0  0  0  0  0  0
  162.4980  210.5840  155.8530 C   0  0  0  0  0  1  0  0  0  0  0  0
  160.4710  207.5010  157.0110 C   0  0  0  0  0  2  0  0  0  0  0  0
  161.2160  207.2400  154.6030 C   0  0  1  0  0  3  0  0  0  0  0  0
  160.1000  206.9850  155.6140 C   0  0  0  0  0  2  0  0  0  0  0  0
  2  6  2  0  0  0  0
  3 10  1  0  0  0  0
  4  1  1  6  0  0  0
  4  9  1  0  0  0  0
  5  7  2  0  0  0  0
  6 24  1  0  0  0  0
  7  9  1  0  0  0  0
  7  8  1  0  0  0  0
  8  6  1  0  0  0  0
  9 25  1  1  0  0  0
 10  1  2  0  0  0  0
 10  5  1  0  0  0  0
 11 14  1  0  0  0  0
 11 21  1  0  0  0  0
 11 12  1  0  0  0  0
 12 13  1  0  0  0  0
 13  4  1  0  0  0  0
 14 12  1  0  0  0  0
 14 13  1  0  0  0  0
 15 22  1  0  0  0  0
 15 20  1  0  0  0  0
 17 16  1  0  0  0  0
 19 22  1  0  0  0  0
 19 21  1  0  0  0  0
 20 16  2  0  0  0  0
 21 18  2  0  0  0  0
 22 17  2  0  0  0  0
 24 23  2  0  0  0  0
 25 26  1  0  0  0  0
 26 30  1  0  0  0  0
 27 32  1  0  0  0  0
 28 33  1  0  0  0  0
 29 31  1  0  0  0  0
 29 27  1  0  0  0  0
 30 33  1  0  0  0  0
 30 29  1  0  0  0  0
 33 34  1  0  0  0  0
 34 32  1  0  0  0  0
M  END
>  <MODEL>
1

>  <REMARK>
 VINA RESULT:      -7.7      0.000      0.000
  Name = 
  6 active torsions:
  status: ('A' for Active; 'I' for Inactive)
    1  A    between atoms: C_8  and  C_27
    2  A    between atoms: C_9  and  C_13
    3  A    between atoms: C_9  and  C_14
    4  A    between atoms: C_13  and  C_29
    5  A    between atoms: C_17  and  C_30
    6  A    between atoms: C_20  and  C_23
                            x       y       z     vdW  Elec       q    Type
                         _______ _______ _______ _____ _____    ______ ____

>  <TORSDO>
F 6

$$$$
=
 OpenBabel11072413113D

 34 38  0  0  1  0  0  0  0  0999 V2000
  160.1090  207.3190  155.2090 C   0  0  0  0  0  3  0  0  0  0  0  0
  164.0310  210.8450  155.3640 O   0  0  0  0  0  0  0  0  0  0  0  0
  160.1830  206.1800  157.2280 F   0  0  0  0  0  0  0  0  0  0  0  0
  160.3650  208.5260  154.3540 C   0  0  1  0  0  3  0  0  0  0  0  0
  161.2620  208.3260  157.0630 N   0  0  0  0  0  0  0  0  0  0  0  0
  163.5720  211.1070  156.5080 C   0  0  0  0  0  0  0  0  0  0  0  0
  161.7330  209.3330  156.3910 C   0  0  0  0  0  0  0  0  0  0  0  0
  162.5450  210.2920  157.0890 N   0  0  0  0  0  2  0  0  0  0  0  0
  161.4680  209.4630  154.8970 C   0  0  2  0  0  3  0  0  0  0  0  0
  160.4890  207.2700  156.4830 C   0  0  0  0  0  0  0  0  0  0  0  0
  161.9160  209.1620  151.0540 C   0  0  1  0  0  3  0  0  0  0  0  0
  160.7370  209.2870  152.0090 C   0  0  1  0  0  3  0  0  0  0  0  0
  160.6860  208.0820  152.9340 C   0  0  1  0  0  3  0  0  0  0  0  0
  162.0210  208.6440  152.4810 C   0  0  1  0  0  3  0  0  0  0  0  0
  161.0430  204.2290  150.2810 C   0  0  0  0  0  2  0  0  0  0  0  0
  161.2000  204.2890  147.8580 C   0  0  0  0  0  3  0  0  0  0  0  0
  161.4260  205.6000  148.4350 N   0  0  0  0  0  0  0  0  0  0  0  0
  161.5610  208.3250  148.8350 O   0  0  0  0  0  0  0  0  0  0  0  0
  161.5160  206.7220  150.5450 N   0  0  0  0  0  2  0  0  0  0  0  0
  160.9750  203.3480  149.0420 C   0  0  0  0  0  3  0  0  0  0  0  0
  161.6670  208.0630  150.0670 C   0  0  0  0  0  0  0  0  0  0  0  0
  161.3360  205.5650  149.7200 C   0  0  0  0  0  0  0  0  0  0  0  0
  165.3690  212.5740  157.1310 N   0  0  0  0  0  2  0  0  0  0  0  0
  164.1270  212.2370  157.2590 C   0  0  0  0  0  3  0  0  0  0  0  0
  161.1450  210.9130  154.5170 C   0  0  0  0  0  2  0  0  0  0  0  0
  159.7450  211.3270  154.9740 C   0  0  0  0  0  2  0  0  0  0  0  0
  157.2890  213.9900  153.7450 C   0  0  0  0  0  2  0  0  0  0  0  0
  160.2760  213.5330  156.6140 O   0  0  0  0  0  1  0  0  0  0  0  0
  158.0940  212.6940  153.6380 C   0  0  2  0  0  3  0  0  0  0  0  0
  159.3720  212.7340  154.4960 C   0  0  1  0  0  3  0  0  0  0  0  0
  158.4590  212.4510  152.1830 C   0  0  0  0  0  1  0  0  0  0  0  0
  156.8740  214.2840  155.1970 C   0  0  0  0  0  2  0  0  0  0  0  0
  159.3220  213.7890  155.6260 C   0  0  1  0  0  3  0  0  0  0  0  0
  157.9270  213.8770  156.2380 C   0  0  0  0  0  2  0  0  0  0  0  0
  1 10  2  0  0  0  0
  2  6  2  0  0  0  0
  4  9  1  0  0  0  0
  4  1  1  1  0  0  0
  6  8  1  0  0  0  0
  6 24  1  0  0  0  0
  7  5  2  0  0  0  0
  7  8  1  0  0  0  0
  9 25  1  1  0  0  0
  9  7  1  0  0  0  0
 10  5  1  0  0  0  0
 10  3  1  0  0  0  0
 11 12  1  0  0  0  0
 11 14  1  0  0  0  0
 12 14  1  0  0  0  0
 12 13  1  0  0  0  0
 13  4  1  0  0  0  0
 14 13  1  0  0  0  0
 16 17  1  0  0  0  0
 16 20  2  0  0  0  0
 17 22  2  0  0  0  0
 18 21  2  0  0  0  0
 20 15  1  0  0  0  0
 21 19  1  0  0  0  0
 21 11  1  0  0  0  0
 22 15  1  0  0  0  0
 22 19  1  0  0  0  0
 23 24  2  0  0  0  0
 25 26  1  0  0  0  0
 27 32  1  0  0  0  0
 29 27  1  0  0  0  0
 29 30  1  0  0  0  0
 30 26  1  0  0  0  0
 30 33  1  0  0  0  0
 31 29  1  0  0  0  0
 32 34  1  0  0  0  0
 33 34  1  0  0  0  0
 33 28  1  0  0  0  0
M  END
>  <MODEL>
2

>  <REMARK>
 VINA RESULT:      -7.6      3.562      5.852
  Name = 
  6 active torsions:
  status: ('A' for Active; 'I' for Inactive)
    1  A    between atoms: C_8  and  C_27
    2  A    between atoms: C_9  and  C_13
    3  A    between atoms: C_9  and  C_14
    4  A    between atoms: C_13  and  C_29
    5  A    between atoms: C_17  and  C_30
    6  A    between atoms: C_20  and  C_23
                            x       y       z     vdW  Elec       q    Type
                         _______ _______ _______ _____ _____    ______ ____

>  <TORSDO>
F 6

$$$$
=
 OpenBabel11072413113D

 34 38  0  0  1  0  0  0  0  0999 V2000
  162.2280  210.6510  149.5100 C   0  0  0  0  0  3  0  0  0  0  0  0
  158.1100  211.5890  152.6740 O   0  0  0  0  0  0  0  0  0  0  0  0
  162.3130  212.4240  148.0170 F   0  0  0  0  0  0  0  0  0  0  0  0
  161.8610  210.0440  150.8330 C   0  0  1  0  0  3  0  0  0  0  0  0
  161.1000  212.6970  150.0790 N   0  0  0  0  0  0  0  0  0  0  0  0
  158.6040  212.7450  152.7530 C   0  0  0  0  0  0  0  0  0  0  0  0
  160.5390  212.2400  151.1590 C   0  0  0  0  0  0  0  0  0  0  0  0
  159.7030  213.1300  151.9150 N   0  0  0  0  0  2  0  0  0  0  0  0
  160.7290  210.7890  151.5780 C   0  0  2  0  0  3  0  0  0  0  0  0
  161.9080  211.9050  149.2020 C   0  0  0  0  0  0  0  0  0  0  0  0
  161.4700  206.6170  152.1760 C   0  0  1  0  0  3  0  0  0  0  0  0
  162.3380  207.7090  151.5640 C   0  0  1  0  0  3  0  0  0  0  0  0
  161.5050  208.5780  150.6360 C   0  0  1  0  0  3  0  0  0  0  0  0
  160.8920  207.9970  151.8970 C   0  0  1  0  0  3  0  0  0  0  0  0
  161.2820  201.7470  150.7810 C   0  0  0  0  0  2  0  0  0  0  0  0
  160.5410  202.1340  148.5000 C   0  0  0  0  0  3  0  0  0  0  0  0
  160.7190  203.3820  149.2170 N   0  0  0  0  0  0  0  0  0  0  0  0
  160.4960  205.9930  150.0760 O   0  0  0  0  0  0  0  0  0  0  0  0
  161.3600  204.2310  151.3580 N   0  0  0  0  0  2  0  0  0  0  0  0
  160.9310  201.0320  149.4840 C   0  0  0  0  0  3  0  0  0  0  0  0
  161.0850  205.6170  151.1290 C   0  0  0  0  0  0  0  0  0  0  0  0
  161.1070  203.1730  150.4270 C   0  0  0  0  0  0  0  0  0  0  0  0
  156.7480  213.7030  153.9380 N   0  0  0  0  0  2  0  0  0  0  0  0
  158.0160  213.7120  153.6850 C   0  0  0  0  0  3  0  0  0  0  0  0
  160.9470  210.6740  153.0910 C   0  0  0  0  0  2  0  0  0  0  0  0
  159.7650  210.0030  153.7920 C   0  0  0  0  0  2  0  0  0  0  0  0
  161.9260  208.6270  156.6330 C   0  0  0  0  0  2  0  0  0  0  0  0
  159.8060  212.0820  155.6660 O   0  0  0  0  0  1  0  0  0  0  0  0
  161.0580  208.5220  155.3780 C   0  0  2  0  0  3  0  0  0  0  0  0
  160.0630  209.6930  155.2630 C   0  0  1  0  0  3  0  0  0  0  0  0
  160.3020  207.2050  155.4000 C   0  0  0  0  0  1  0  0  0  0  0  0
  162.7320  209.9370  156.6600 C   0  0  0  0  0  2  0  0  0  0  0  0
  160.4690  210.9300  156.0970 C   0  0  1  0  0  3  0  0  0  0  0  0
  161.9810  211.1400  156.0720 C   0  0  0  0  0  2  0  0  0  0  0  0
  2  6  2  0  0  0  0
  3 10  1  0  0  0  0
  4  1  1  6  0  0  0
  4  9  1  0  0  0  0
  5  7  2  0  0  0  0
  6 24  1  0  0  0  0
  7  9  1  0  0  0  0
  7  8  1  0  0  0  0
  8  6  1  0  0  0  0
  9 25  1  1  0  0  0
 10  1  2  0  0  0  0
 10  5  1  0  0  0  0
 12 14  1  0  0  0  0
 12 11  1  0  0  0  0
 13  4  1  0  0  0  0
 13 12  1  0  0  0  0
 13 14  1  0  0  0  0
 14 11  1  0  0  0  0
 16 17  1  0  0  0  0
 16 20  2  0  0  0  0
 17 22  2  0  0  0  0
 18 21  2  0  0  0  0
 20 15  1  0  0  0  0
 21 19  1  0  0  0  0
 21 11  1  0  0  0  0
 22 15  1  0  0  0  0
 22 19  1  0  0  0  0
 24 23  2  0  0  0  0
 25 26  1  0  0  0  0
 26 30  1  0  0  0  0
 27 32  1  0  0  0  0
 28 33  1  0  0  0  0
 29 31  1  0  0  0  0
 29 27  1  0  0  0  0
 30 29  1  0  0  0  0
 30 33  1  0  0  0  0
 34 33  1  0  0  0  0
 34 32  1  0  0  0  0
M  END
>  <MODEL>
3

>  <REMARK>
 VINA RESULT:      -7.1      1.268      2.310
  Name = 
  6 active torsions:
  status: ('A' for Active; 'I' for Inactive)
    1  A    between atoms: C_8  and  C_27
    2  A    between atoms: C_9  and  C_13
    3  A    between atoms: C_9  and  C_14
    4  A    between atoms: C_13  and  C_29
    5  A    between atoms: C_17  and  C_30
    6  A    between atoms: C_20  and  C_23
                            x       y       z     vdW  Elec       q    Type
                         _______ _______ _______ _____ _____    ______ ____

>  <TORSDO>
F 6

$$$$
=
 OpenBabel11072413113D

 34 38  0  0  1  0  0  0  0  0999 V2000
  162.2550  210.3180  150.1440 C   0  0  0  0  0  3  0  0  0  0  0  0
  157.7410  210.9510  152.8020 O   0  0  0  0  0  0  0  0  0  0  0  0
  162.5270  212.2350  148.8660 F   0  0  0  0  0  0  0  0  0  0  0  0
  161.7180  209.5810  151.3360 C   0  0  1  0  0  3  0  0  0  0  0  0
  161.0450  212.3010  150.7620 N   0  0  0  0  0  0  0  0  0  0  0  0
  158.2100  212.0900  153.0650 C   0  0  0  0  0  0  0  0  0  0  0  0
  160.3470  211.7390  151.7030 C   0  0  0  0  0  0  0  0  0  0  0  0
  159.4090  212.5520  152.4280 N   0  0  0  0  0  2  0  0  0  0  0  0
  160.4890  210.2520  151.9930 C   0  0  2  0  0  3  0  0  0  0  0  0
  161.9700  211.5990  149.9260 C   0  0  0  0  0  0  0  0  0  0  0  0
  161.4150  205.9970  152.2090 C   0  0  1  0  0  3  0  0  0  0  0  0
  162.2550  207.1830  151.7550 C   0  0  1  0  0  3  0  0  0  0  0  0
  161.4030  208.1450  150.9430 C   0  0  1  0  0  3  0  0  0  0  0  0
  160.8000  207.3850  152.1110 C   0  0  1  0  0  3  0  0  0  0  0  0
  161.2430  201.3320  150.2300 C   0  0  0  0  0  2  0  0  0  0  0  0
  160.5930  202.0000  147.9870 C   0  0  0  0  0  3  0  0  0  0  0  0
  160.7530  203.1500  148.8550 N   0  0  0  0  0  0  0  0  0  0  0  0
  160.5170  205.6410  150.0140 O   0  0  0  0  0  0  0  0  0  0  0  0
  161.3180  203.7270  151.1050 N   0  0  0  0  0  2  0  0  0  0  0  0
  160.9370  200.7820  148.8440 C   0  0  0  0  0  3  0  0  0  0  0  0
  161.0620  205.1350  151.0350 C   0  0  0  0  0  0  0  0  0  0  0  0
  161.0920  202.7920  150.0450 C   0  0  0  0  0  0  0  0  0  0  0  0
  156.5890  212.4810  154.7930 N   0  0  0  0  0  2  0  0  0  0  0  0
  157.4940  212.9590  154.0030 C   0  0  0  0  0  3  0  0  0  0  0  0
  160.5020  209.9810  153.5020 C   0  0  0  0  0  2  0  0  0  0  0  0
  161.6310  210.7330  154.2100 C   0  0  0  0  0  2  0  0  0  0  0  0
  159.3960  211.3140  157.2600 C   0  0  0  0  0  2  0  0  0  0  0  0
  162.3300  208.6580  155.9550 O   0  0  0  0  0  1  0  0  0  0  0  0
  160.0970  211.7140  155.9610 C   0  0  2  0  0  3  0  0  0  0  0  0
  161.3720  210.8860  155.7130 C   0  0  1  0  0  3  0  0  0  0  0  0
  160.4460  213.1920  156.0150 C   0  0  0  0  0  1  0  0  0  0  0  0
  159.0010  209.8270  157.2600 C   0  0  0  0  0  2  0  0  0  0  0  0
  161.4020  209.5520  156.4950 C   0  0  1  0  0  3  0  0  0  0  0  0
  160.0150  208.9160  156.5540 C   0  0  0  0  0  2  0  0  0  0  0  0
  2  6  2  0  0  0  0
  3 10  1  0  0  0  0
  4  1  1  6  0  0  0
  4  9  1  0  0  0  0
  5  7  2  0  0  0  0
  6 24  1  0  0  0  0
  7  9  1  0  0  0  0
  7  8  1  0  0  0  0
  8  6  1  0  0  0  0
  9 25  1  1  0  0  0
 10  1  2  0  0  0  0
 10  5  1  0  0  0  0
 12 14  1  0  0  0  0
 12 11  1  0  0  0  0
 13  4  1  0  0  0  0
 13 12  1  0  0  0  0
 13 14  1  0  0  0  0
 14 11  1  0  0  0  0
 16 20  2  0  0  0  0
 16 17  1  0  0  0  0
 17 22  2  0  0  0  0
 18 21  2  0  0  0  0
 20 15  1  0  0  0  0
 21 19  1  0  0  0  0
 21 11  1  0  0  0  0
 22 15  1  0  0  0  0
 22 19  1  0  0  0  0
 24 23  2  0  0  0  0
 25 26  1  0  0  0  0
 26 30  1  0  0  0  0
 27 32  1  0  0  0  0
 28 33  1  0  0  0  0
 29 31  1  0  0  0  0
 29 27  1  0  0  0  0
 30 29  1  0  0  0  0
 30 33  1  0  0  0  0
 33 34  1  0  0  0  0
 34 32  1  0  0  0  0
M  END
>  <MODEL>
4

>  <REMARK>
 VINA RESULT:      -6.5      1.711      2.204
  Name = 
  6 active torsions:
  status: ('A' for Active; 'I' for Inactive)
    1  A    between atoms: C_8  and  C_27
    2  A    between atoms: C_9  and  C_13
    3  A    between atoms: C_9  and  C_14
    4  A    between atoms: C_13  and  C_29
    5  A    between atoms: C_17  and  C_30
    6  A    between atoms: C_20  and  C_23
                            x       y       z     vdW  Elec       q    Type
                         _______ _______ _______ _____ _____    ______ ____

>  <TORSDO>
F 6

$$$$
=
 OpenBabel11072413113D

 34 38  0  0  1  0  0  0  0  0999 V2000
  161.2060  204.9450  153.2070 C   0  0  0  0  0  3  0  0  0  0  0  0
  160.3060  207.0470  148.4510 O   0  0  0  0  0  0  0  0  0  0  0  0
  160.4440  202.7570  153.1010 F   0  0  0  0  0  0  0  0  0  0  0  0
  161.7510  206.1950  152.5770 C   0  0  1  0  0  3  0  0  0  0  0  0
  160.9240  203.9220  151.0490 N   0  0  0  0  0  0  0  0  0  0  0  0
  160.8310  205.9820  148.0280 C   0  0  0  0  0  0  0  0  0  0  0  0
  161.1770  204.9960  150.3620 C   0  0  0  0  0  0  0  0  0  0  0  0
  161.1330  204.9080  148.9290 N   0  0  0  0  0  2  0  0  0  0  0  0
  161.4640  206.3170  151.0630 C   0  0  2  0  0  3  0  0  0  0  0  0
  160.8770  203.8810  152.4790 C   0  0  0  0  0  0  0  0  0  0  0  0
  160.5180  207.7740  155.6900 C   0  0  1  0  0  3  0  0  0  0  0  0
  160.2630  206.9720  154.4210 C   0  0  1  0  0  3  0  0  0  0  0  0
  161.2220  207.4100  153.3260 C   0  0  1  0  0  3  0  0  0  0  0  0
  161.6720  207.3900  154.7760 C   0  0  1  0  0  3  0  0  0  0  0  0
  156.6850  211.0790  155.3860 C   0  0  0  0  0  2  0  0  0  0  0  0
  158.0170  212.9970  154.7190 C   0  0  0  0  0  3  0  0  0  0  0  0
  158.8400  211.8150  154.8870 N   0  0  0  0  0  0  0  0  0  0  0  0
  160.9530  210.1120  155.3800 O   0  0  0  0  0  0  0  0  0  0  0  0
  158.6910  209.5040  155.4820 N   0  0  0  0  0  2  0  0  0  0  0  0
  156.5850  212.5490  155.0070 C   0  0  0  0  0  3  0  0  0  0  0  0
  160.0890  209.1970  155.4960 C   0  0  0  0  0  0  0  0  0  0  0  0
  158.1320  210.8010  155.2460 C   0  0  0  0  0  0  0  0  0  0  0  0
  162.3050  205.8280  146.1380 N   0  0  0  0  0  2  0  0  0  0  0  0
  161.0940  205.8350  146.5940 C   0  0  0  0  0  3  0  0  0  0  0  0
  162.6150  207.0650  150.3810 C   0  0  0  0  0  2  0  0  0  0  0  0
  162.7060  208.5210  150.8430 C   0  0  0  0  0  2  0  0  0  0  0  0
  160.8950  211.8380  150.2490 C   0  0  0  0  0  2  0  0  0  0  0  0
  162.6280  208.7490  148.0540 O   0  0  0  0  0  1  0  0  0  0  0  0
  161.3230  210.6220  151.0720 C   0  0  2  0  0  3  0  0  0  0  0  0
  161.6420  209.4050  150.1840 C   0  0  1  0  0  3  0  0  0  0  0  0
  160.2170  210.2670  152.0520 C   0  0  0  0  0  1  0  0  0  0  0  0
  161.9840  212.2580  149.2460 C   0  0  0  0  0  2  0  0  0  0  0  0
  161.9560  209.7800  148.7170 C   0  0  1  0  0  3  0  0  0  0  0  0
  162.7550  211.0780  148.6380 C   0  0  0  0  0  2  0  0  0  0  0  0
  4  1  1  1  0  0  0
  4 13  1  0  0  0  0
  5 10  1  0  0  0  0
  6  2  2  0  0  0  0
  6  8  1  0  0  0  0
  7  5  2  0  0  0  0
  7  9  1  0  0  0  0
  8  7  1  0  0  0  0
  9 25  1  6  0  0  0
  9  4  1  0  0  0  0
 10  3  1  0  0  0  0
 10  1  2  0  0  0  0
 12 14  1  0  0  0  0
 12 11  1  0  0  0  0
 13 12  1  0  0  0  0
 13 14  1  0  0  0  0
 14 11  1  0  0  0  0
 16 17  1  0  0  0  0
 16 20  2  0  0  0  0
 17 22  2  0  0  0  0
 18 21  2  0  0  0  0
 19 21  1  0  0  0  0
 20 15  1  0  0  0  0
 21 11  1  0  0  0  0
 22 15  1  0  0  0  0
 22 19  1  0  0  0  0
 23 24  2  0  0  0  0
 24  6  1  0  0  0  0
 25 26  1  0  0  0  0
 27 29  1  0  0  0  0
 28 33  1  0  0  0  0
 29 31  1  0  0  0  0
 30 26  1  0  0  0  0
 30 29  1  0  0  0  0
 32 27  1  0  0  0  0
 33 30  1  0  0  0  0
 34 33  1  0  0  0  0
 34 32  1  0  0  0  0
M  END
>  <MODEL>
5

>  <REMARK>
 VINA RESULT:      -6.3      3.022      8.168
  Name = 
  6 active torsions:
  status: ('A' for Active; 'I' for Inactive)
    1  A    between atoms: C_8  and  C_27
    2  A    between atoms: C_9  and  C_13
    3  A    between atoms: C_9  and  C_14
    4  A    between atoms: C_13  and  C_29
    5  A    between atoms: C_17  and  C_30
    6  A    between atoms: C_20  and  C_23
                            x       y       z     vdW  Elec       q    Type
                         _______ _______ _______ _____ _____    ______ ____

>  <TORSDO>
F 6

$$$$
=
 OpenBabel11072413113D

 34 38  0  0  1  0  0  0  0  0999 V2000
  161.0780  207.9260  154.3530 C   0  0  0  0  0  3  0  0  0  0  0  0
  160.2970  207.4320  149.1580 O   0  0  0  0  0  0  0  0  0  0  0  0
  160.7840  205.8090  155.2550 F   0  0  0  0  0  0  0  0  0  0  0  0
  161.4270  208.8530  153.2260 C   0  0  1  0  0  3  0  0  0  0  0  0
  161.2410  206.0170  152.9000 N   0  0  0  0  0  0  0  0  0  0  0  0
  161.0660  206.4410  149.2710 C   0  0  0  0  0  0  0  0  0  0  0  0
  161.3470  206.7010  151.8000 C   0  0  0  0  0  0  0  0  0  0  0  0
  161.4770  205.9780  150.5650 N   0  0  0  0  0  2  0  0  0  0  0  0
  161.2880  208.2210  151.8210 C   0  0  2  0  0  3  0  0  0  0  0  0
  161.0490  206.6050  154.1910 C   0  0  0  0  0  0  0  0  0  0  0  0
  160.1050  211.6790  155.2170 C   0  0  1  0  0  3  0  0  0  0  0  0
  160.0040  210.2400  154.7310 C   0  0  1  0  0  3  0  0  0  0  0  0
  160.5890  210.1190  153.3330 C   0  0  1  0  0  3  0  0  0  0  0  0
  161.1940  211.0840  154.3370 C   0  0  1  0  0  3  0  0  0  0  0  0
  155.2980  212.8960  154.1600 C   0  0  0  0  0  2  0  0  0  0  0  0
  155.7890  214.4530  152.3610 C   0  0  0  0  0  3  0  0  0  0  0  0
  157.0020  213.8780  152.9080 N   0  0  0  0  0  0  0  0  0  0  0  0
  159.6110  213.4760  153.7070 O   0  0  0  0  0  0  0  0  0  0  0  0
  157.7530  212.3460  154.5830 N   0  0  0  0  0  2  0  0  0  0  0  0
  154.6400  213.8100  153.1360 C   0  0  0  0  0  3  0  0  0  0  0  0
  159.1630  212.5520  154.4440 C   0  0  0  0  0  0  0  0  0  0  0  0
  156.7390  213.0570  153.8650 C   0  0  0  0  0  0  0  0  0  0  0  0
  161.2810  206.2280  146.8890 N   0  0  0  0  0  2  0  0  0  0  0  0
  161.5070  205.7370  148.0630 C   0  0  0  0  0  3  0  0  0  0  0  0
  162.3330  208.8290  150.8790 C   0  0  0  0  0  2  0  0  0  0  0  0
  162.3250  210.3580  150.9230 C   0  0  0  0  0  2  0  0  0  0  0  0
  161.0660  213.2610  148.7730 C   0  0  0  0  0  2  0  0  0  0  0  0
  162.6990  209.4580  148.2980 O   0  0  0  0  0  1  0  0  0  0  0  0
  161.2040  212.4530  150.0640 C   0  0  2  0  0  3  0  0  0  0  0  0
  161.4950  210.9660  149.7870 C   0  0  1  0  0  3  0  0  0  0  0  0
  159.9270  212.5840  150.8760 C   0  0  0  0  0  1  0  0  0  0  0  0
  162.3380  213.1820  147.9120 C   0  0  0  0  0  2  0  0  0  0  0  0
  162.0730  210.7050  148.3760 C   0  0  1  0  0  3  0  0  0  0  0  0
  163.0350  211.8140  147.9590 C   0  0  0  0  0  2  0  0  0  0  0  0
  2  6  2  0  0  0  0
  4 13  1  0  0  0  0
  4  1  1  1  0  0  0
  5 10  1  0  0  0  0
  6  8  1  0  0  0  0
  7  9  1  0  0  0  0
  7  5  2  0  0  0  0
  8  7  1  0  0  0  0
  9 25  1  6  0  0  0
  9  4  1  0  0  0  0
 10  1  2  0  0  0  0
 10  3  1  0  0  0  0
 12 11  1  0  0  0  0
 13 14  1  0  0  0  0
 13 12  1  0  0  0  0
 14 12  1  0  0  0  0
 14 11  1  0  0  0  0
 16 17  1  0  0  0  0
 16 20  2  0  0  0  0
 17 22  2  0  0  0  0
 18 21  2  0  0  0  0
 20 15  1  0  0  0  0
 21 19  1  0  0  0  0
 21 11  1  0  0  0  0
 22 15  1  0  0  0  0
 22 19  1  0  0  0  0
 23 24  2  0  0  0  0
 24  6  1  0  0  0  0
 25 26  1  0  0  0  0
 27 29  1  0  0  0  0
 28 33  1  0  0  0  0
 29 31  1  0  0  0  0
 30 29  1  0  0  0  0
 30 26  1  0  0  0  0
 32 34  1  0  0  0  0
 32 27  1  0  0  0  0
 33 30  1  0  0  0  0
 34 33  1  0  0  0  0
M  END
>  <MODEL>
6

>  <REMARK>
 VINA RESULT:      -5.7      3.024      8.525
  Name = 
  6 active torsions:
  status: ('A' for Active; 'I' for Inactive)
    1  A    between atoms: C_8  and  C_27
    2  A    between atoms: C_9  and  C_13
    3  A    between atoms: C_9  and  C_14
    4  A    between atoms: C_13  and  C_29
    5  A    between atoms: C_17  and  C_30
    6  A    between atoms: C_20  and  C_23
                            x       y       z     vdW  Elec       q    Type
                         _______ _______ _______ _____ _____    ______ ____

>  <TORSDO>
F 6

$$$$
=
 OpenBabel11072413113D

 34 38  0  0  1  0  0  0  0  0999 V2000
  162.0540  208.6490  151.4850 C   0  0  0  0  0  3  0  0  0  0  0  0
  160.0280  204.7670  148.5430 O   0  0  0  0  0  0  0  0  0  0  0  0
  161.8300  207.9730  153.6920 F   0  0  0  0  0  0  0  0  0  0  0  0
  162.1930  208.3690  150.0170 C   0  0  1  0  0  3  0  0  0  0  0  0
  161.7280  206.3130  151.9510 N   0  0  0  0  0  0  0  0  0  0  0  0
  160.7270  204.0230  149.2800 C   0  0  0  0  0  0  0  0  0  0  0  0
  161.6190  205.9470  150.7080 C   0  0  0  0  0  0  0  0  0  0  0  0
  161.3990  204.5550  150.4300 N   0  0  0  0  0  2  0  0  0  0  0  0
  161.6780  206.9760  149.5880 C   0  0  2  0  0  3  0  0  0  0  0  0
  161.8910  207.6710  152.3720 C   0  0  0  0  0  0  0  0  0  0  0  0
  162.1930  211.7630  148.5390 C   0  0  1  0  0  3  0  0  0  0  0  0
  161.9510  210.8330  149.7200 C   0  0  1  0  0  3  0  0  0  0  0  0
  161.4990  209.4680  149.2250 C   0  0  1  0  0  3  0  0  0  0  0  0
  162.5070  210.2780  148.4280 C   0  0  1  0  0  3  0  0  0  0  0  0
  157.8890  214.4320  148.7670 C   0  0  0  0  0  2  0  0  0  0  0  0
  156.8330  213.4340  146.8200 C   0  0  0  0  0  3  0  0  0  0  0  0
  158.1420  212.8590  147.0650 N   0  0  0  0  0  0  0  0  0  0  0  0
  160.6050  211.6610  146.7450 O   0  0  0  0  0  0  0  0  0  0  0  0
  159.9990  213.0130  148.5620 N   0  0  0  0  0  2  0  0  0  0  0  0
  156.6130  214.4530  147.9380 C   0  0  0  0  0  3  0  0  0  0  0  0
  160.8920  212.1190  147.8870 C   0  0  0  0  0  0  0  0  0  0  0  0
  158.7010  213.3950  148.0940 C   0  0  0  0  0  0  0  0  0  0  0  0
  159.8190  201.8000  149.2050 N   0  0  0  0  0  2  0  0  0  0  0  0
  160.8150  202.5920  148.9740 C   0  0  0  0  0  3  0  0  0  0  0  0
  162.5110  206.4610  148.4080 C   0  0  0  0  0  2  0  0  0  0  0  0
  161.9180  206.8810  147.0620 C   0  0  0  0  0  2  0  0  0  0  0  0
  162.4280  203.3660  145.6390 C   0  0  0  0  0  2  0  0  0  0  0  0
  160.4260  206.8960  144.6930 O   0  0  0  0  0  1  0  0  0  0  0  0
  162.7630  204.5580  146.5370 C   0  0  2  0  0  3  0  0  0  0  0  0
  162.2580  205.8880  145.9450 C   0  0  1  0  0  3  0  0  0  0  0  0
  164.2660  204.6240  146.7420 C   0  0  0  0  0  1  0  0  0  0  0  0
  160.9130  203.2350  145.4070 C   0  0  0  0  0  2  0  0  0  0  0  0
  161.1330  205.7080  144.8990 C   0  0  1  0  0  3  0  0  0  0  0  0
  160.1830  204.5820  145.2980 C   0  0  0  0  0  2  0  0  0  0  0  0
  1 10  2  0  0  0  0
  2  6  2  0  0  0  0
  4  1  1  1  0  0  0
  5 10  1  0  0  0  0
  6  8  1  0  0  0  0
  7  5  2  0  0  0  0
  8  7  1  0  0  0  0
  9 25  1  6  0  0  0
  9  4  1  0  0  0  0
  9  7  1  0  0  0  0
 10  3  1  0  0  0  0
 11 12  1  0  0  0  0
 13 12  1  0  0  0  0
 13  4  1  0  0  0  0
 14 11  1  0  0  0  0
 14 13  1  0  0  0  0
 14 12  1  0  0  0  0
 16 17  1  0  0  0  0
 16 20  2  0  0  0  0
 17 22  2  0  0  0  0
 18 21  2  0  0  0  0
 20 15  1  0  0  0  0
 21 11  1  0  0  0  0
 21 19  1  0  0  0  0
 22 19  1  0  0  0  0
 22 15  1  0  0  0  0
 24 23  2  0  0  0  0
 24  6  1  0  0  0  0
 26 25  1  0  0  0  0
 27 29  1  0  0  0  0
 28 33  1  0  0  0  0
 29 31  1  0  0  0  0
 30 29  1  0  0  0  0
 30 26  1  0  0  0  0
 32 27  1  0  0  0  0
 33 34  1  0  0  0  0
 33 30  1  0  0  0  0
 34 32  1  0  0  0  0
M  END
>  <MODEL>
7

>  <REMARK>
 VINA RESULT:      -5.6      3.293      8.847
  Name = 
  6 active torsions:
  status: ('A' for Active; 'I' for Inactive)
    1  A    between atoms: C_8  and  C_27
    2  A    between atoms: C_9  and  C_13
    3  A    between atoms: C_9  and  C_14
    4  A    between atoms: C_13  and  C_29
    5  A    between atoms: C_17  and  C_30
    6  A    between atoms: C_20  and  C_23
                            x       y       z     vdW  Elec       q    Type
                         _______ _______ _______ _____ _____    ______ ____

>  <TORSDO>
F 6

$$$$
=
 OpenBabel11072413113D

 34 38  0  0  1  0  0  0  0  0999 V2000
  162.4750  211.3410  148.7570 C   0  0  0  0  0  3  0  0  0  0  0  0
  157.9630  212.2960  151.3220 O   0  0  0  0  0  0  0  0  0  0  0  0
  162.7170  213.0560  147.2160 F   0  0  0  0  0  0  0  0  0  0  0  0
  161.9520  210.7770  150.0470 C   0  0  1  0  0  3  0  0  0  0  0  0
  161.2410  213.3780  149.0910 N   0  0  0  0  0  0  0  0  0  0  0  0
  158.4190  213.4660  151.4160 C   0  0  0  0  0  0  0  0  0  0  0  0
  160.5550  212.9490  150.1070 C   0  0  0  0  0  0  0  0  0  0  0  0
  159.6100  213.8470  150.7120 N   0  0  0  0  0  2  0  0  0  0  0  0
  160.7170  211.5200  150.6070 C   0  0  2  0  0  3  0  0  0  0  0  0
  162.1730  212.5740  148.3590 C   0  0  0  0  0  0  0  0  0  0  0  0
  162.1710  207.6680  148.0500 C   0  0  1  0  0  3  0  0  0  0  0  0
  161.4710  208.9760  148.3910 C   0  0  1  0  0  3  0  0  0  0  0  0
  161.6530  209.2950  149.8660 C   0  0  1  0  0  3  0  0  0  0  0  0
  162.7620  208.6120  149.0880 C   0  0  1  0  0  3  0  0  0  0  0  0
  161.6370  204.6390  152.0800 C   0  0  0  0  0  2  0  0  0  0  0  0
  160.0580  203.0960  151.0680 C   0  0  0  0  0  3  0  0  0  0  0  0
  160.4540  204.1340  150.1360 N   0  0  0  0  0  0  0  0  0  0  0  0
  160.4840  205.9640  148.0730 O   0  0  0  0  0  0  0  0  0  0  0  0
  161.8410  206.0750  149.9810 N   0  0  0  0  0  2  0  0  0  0  0  0
  160.8390  203.3720  152.3520 C   0  0  0  0  0  3  0  0  0  0  0  0
  161.4480  206.5150  148.6770 C   0  0  0  0  0  0  0  0  0  0  0  0
  161.2870  204.9540  150.6780 C   0  0  0  0  0  0  0  0  0  0  0  0
  156.5170  214.1950  152.6880 N   0  0  0  0  0  2  0  0  0  0  0  0
  157.6960  214.4530  152.2230 C   0  0  0  0  0  3  0  0  0  0  0  0
  160.7390  211.4700  152.1390 C   0  0  0  0  0  2  0  0  0  0  0  0
  159.5370  210.7140  152.7060 C   0  0  0  0  0  2  0  0  0  0  0  0
  161.9550  209.3530  155.3400 C   0  0  0  0  0  2  0  0  0  0  0  0
  158.4330  211.5700  155.1320 O   0  0  0  0  0  1  0  0  0  0  0  0
  161.3210  209.4290  153.9500 C   0  0  2  0  0  3  0  0  0  0  0  0
  159.8790  209.9680  154.0000 C   0  0  1  0  0  3  0  0  0  0  0  0
  161.3330  208.0480  153.3180 C   0  0  0  0  0  1  0  0  0  0  0  0
  161.9880  210.7290  156.0270 C   0  0  0  0  0  2  0  0  0  0  0  0
  159.5650  210.7650  155.2880 C   0  0  1  0  0  3  0  0  0  0  0  0
  160.7630  211.6030  155.7240 C   0  0  0  0  0  2  0  0  0  0  0  0
  2  6  2  0  0  0  0
  3 10  1  0  0  0  0
  4  1  1  6  0  0  0
  4  9  1  0  0  0  0
  5  7  2  0  0  0  0
  6 24  1  0  0  0  0
  7  9  1  0  0  0  0
  7  8  1  0  0  0  0
  8  6  1  0  0  0  0
  9 25  1  1  0  0  0
 10  1  2  0  0  0  0
 10  5  1  0  0  0  0
 11 12  1  0  0  0  0
 11 21  1  0  0  0  0
 11 14  1  0  0  0  0
 12 14  1  0  0  0  0
 12 13  1  0  0  0  0
 13  4  1  0  0  0  0
 14 13  1  0  0  0  0
 15 20  1  0  0  0  0
 16 20  2  0  0  0  0
 17 22  2  0  0  0  0
 17 16  1  0  0  0  0
 18 21  2  0  0  0  0
 19 22  1  0  0  0  0
 21 19  1  0  0  0  0
 22 15  1  0  0  0  0
 24 23  2  0  0  0  0
 25 26  1  0  0  0  0
 26 30  1  0  0  0  0
 27 32  1  0  0  0  0
 28 33  1  0  0  0  0
 29 30  1  0  0  0  0
 29 27  1  0  0  0  0
 30 33  1  0  0  0  0
 31 29  1  0  0  0  0
 33 34  1  0  0  0  0
 34 32  1  0  0  0  0
M  END
>  <MODEL>
8

>  <REMARK>
 VINA RESULT:      -5.6      1.865      2.429
  Name = 
  6 active torsions:
  status: ('A' for Active; 'I' for Inactive)
    1  A    between atoms: C_8  and  C_27
    2  A    between atoms: C_9  and  C_13
    3  A    between atoms: C_9  and  C_14
    4  A    between atoms: C_13  and  C_29
    5  A    between atoms: C_17  and  C_30
    6  A    between atoms: C_20  and  C_23
                            x       y       z     vdW  Elec       q    Type
                         _______ _______ _______ _____ _____    ______ ____

>  <TORSDO>
F 6

$$$$
=
 OpenBabel11072413113D

 34 38  0  0  1  0  0  0  0  0999 V2000
  162.4200  210.2180  150.6950 C   0  0  0  0  0  3  0  0  0  0  0  0
  159.8090  205.9350  149.0580 O   0  0  0  0  0  0  0  0  0  0  0  0
  162.3560  210.1680  153.0130 F   0  0  0  0  0  0  0  0  0  0  0  0
  162.3920  209.5520  149.3490 C   0  0  1  0  0  3  0  0  0  0  0  0
  161.9520  208.1320  151.7930 N   0  0  0  0  0  0  0  0  0  0  0  0
  160.5140  205.3410  149.9160 C   0  0  0  0  0  0  0  0  0  0  0  0
  161.6940  207.4680  150.7060 C   0  0  0  0  0  0  0  0  0  0  0  0
  161.3350  206.0820  150.8290 N   0  0  0  0  0  2  0  0  0  0  0  0
  161.7270  208.1570  149.3490 C   0  0  2  0  0  3  0  0  0  0  0  0
  162.2650  209.5280  151.8210 C   0  0  0  0  0  0  0  0  0  0  0  0
  161.4380  212.9480  148.2260 C   0  0  1  0  0  3  0  0  0  0  0  0
  161.1580  211.6980  149.0490 C   0  0  1  0  0  3  0  0  0  0  0  0
  161.7160  210.4730  148.3430 C   0  0  1  0  0  3  0  0  0  0  0  0
  162.4410  211.8040  148.2560 C   0  0  1  0  0  3  0  0  0  0  0  0
  161.3250  212.6700  143.1650 C   0  0  0  0  0  2  0  0  0  0  0  0
  158.9570  213.1440  142.9080 C   0  0  0  0  0  3  0  0  0  0  0  0
  159.3510  213.1610  144.3030 N   0  0  0  0  0  0  0  0  0  0  0  0
  159.3460  212.9760  147.0550 O   0  0  0  0  0  0  0  0  0  0  0  0
  161.2610  212.8580  145.7080 N   0  0  0  0  0  2  0  0  0  0  0  0
  160.2340  212.8550  142.1200 C   0  0  0  0  0  3  0  0  0  0  0  0
  160.6060  212.9410  146.9790 C   0  0  0  0  0  0  0  0  0  0  0  0
  160.6060  212.9040  144.4360 C   0  0  0  0  0  0  0  0  0  0  0  0
  160.8310  203.1410  149.0060 N   0  0  0  0  0  2  0  0  0  0  0  0
  160.4560  203.8780  150.0000 C   0  0  0  0  0  3  0  0  0  0  0  0
  162.3970  207.2690  148.2940 C   0  0  0  0  0  2  0  0  0  0  0  0
  161.4630  206.9680  147.1200 C   0  0  0  0  0  2  0  0  0  0  0  0
  162.6250  203.5780  145.7820 C   0  0  0  0  0  2  0  0  0  0  0  0
  160.4560  206.9000  144.5090 O   0  0  0  0  0  1  0  0  0  0  0  0
  162.6470  204.7690  146.7410 C   0  0  2  0  0  3  0  0  0  0  0  0
  162.1180  206.0550  146.0780 C   0  0  1  0  0  3  0  0  0  0  0  0
  164.0670  204.9900  147.2320 C   0  0  0  0  0  1  0  0  0  0  0  0
  161.2060  203.2920  145.2610 C   0  0  0  0  0  2  0  0  0  0  0  0
  161.2400  205.7900  144.8330 C   0  0  1  0  0  3  0  0  0  0  0  0
  160.3640  204.5550  145.0290 C   0  0  0  0  0  2  0  0  0  0  0  0
  1 10  2  0  0  0  0
  2  6  2  0  0  0  0
  4  1  1  1  0  0  0
  5 10  1  0  0  0  0
  6 24  1  0  0  0  0
  6  8  1  0  0  0  0
  7  8  1  0  0  0  0
  7  5  2  0  0  0  0
  9 25  1  6  0  0  0
  9  4  1  0  0  0  0
  9  7  1  0  0  0  0
 10  3  1  0  0  0  0
 11 14  1  0  0  0  0
 11 12  1  0  0  0  0
 13 12  1  0  0  0  0
 13  4  1  0  0  0  0
 14 13  1  0  0  0  0
 14 12  1  0  0  0  0
 15 22  1  0  0  0  0
 16 17  1  0  0  0  0
 17 22  2  0  0  0  0
 19 21  1  0  0  0  0
 20 16  2  0  0  0  0
 20 15  1  0  0  0  0
 21 18  2  0  0  0  0
 21 11  1  0  0  0  0
 22 19  1  0  0  0  0
 23 24  2  0  0  0  0
 26 25  1  0  0  0  0
 27 29  1  0  0  0  0
 28 33  1  0  0  0  0
 29 31  1  0  0  0  0
 30 29  1  0  0  0  0
 30 26  1  0  0  0  0
 32 27  1  0  0  0  0
 33 34  1  0  0  0  0
 33 30  1  0  0  0  0
 34 32  1  0  0  0  0
M  END
>  <MODEL>
9

>  <REMARK>
 VINA RESULT:      -5.4      3.565      8.584
  Name = 
  6 active torsions:
  status: ('A' for Active; 'I' for Inactive)
    1  A    between atoms: C_8  and  C_27
    2  A    between atoms: C_9  and  C_13
    3  A    between atoms: C_9  and  C_14
    4  A    between atoms: C_13  and  C_29
    5  A    between atoms: C_17  and  C_30
    6  A    between atoms: C_20  and  C_23
                            x       y       z     vdW  Elec       q    Type
                         _______ _______ _______ _____ _____    ______ ____

>  <TORSDO>
F 6

$$$$
