=
 OpenBabel11072412153D

 38 42  0  0  1  0  0  0  0  0999 V2000
  160.7340  209.5930  153.8660 C   0  0  1  0  0  3  0  0  0  0  0  0
  159.5090  208.4440  155.5510 F   0  0  0  0  0  0  0  0  0  0  0  0
  161.6750  209.2740  152.8760 O   0  0  0  0  0  0  0  0  0  0  0  0
  160.8520  206.9610  152.9980 C   0  0  0  0  0  2  0  0  0  0  0  0
  161.2200  207.1850  154.4730 C   0  0  0  0  0  2  0  0  0  0  0  0
  161.6690  208.9520  156.0030 O   0  0  0  0  0  1  0  0  0  0  0  0
  161.0990  208.2220  152.1390 C   0  0  2  0  0  3  0  0  0  0  0  0
  160.7750  208.5560  155.0050 C   0  0  1  0  0  0  0  0  0  0  0  0
  161.9430  207.9130  150.9490 C   0  0  0  0  0  0  0  0  0  0  0  0
  161.4940  208.3140  149.6540 N   0  0  0  0  0  2  0  0  0  0  0  0
  163.0640  207.3500  151.0920 O   0  0  0  0  0  0  0  0  0  0  0  0
  162.2490  208.0200  148.4440 C   0  0  0  0  0  2  0  0  0  0  0  0
  162.4600  206.5200  148.3190 C   0  0  0  0  0  2  0  0  0  0  0  0
  160.4320  206.2190  145.6900 C   0  0  0  0  0  2  0  0  0  0  0  0
  160.4300  206.6610  147.0300 O   0  0  0  0  0  0  0  0  0  0  0  0
  161.2500  204.3180  144.4940 O   0  0  0  0  0  1  0  0  0  0  0  0
  161.2320  205.7670  147.7810 C   0  0  1  0  0  0  0  0  0  0  0  0
  161.6920  204.6130  146.8660 C   0  0  2  0  0  3  0  0  0  0  0  0
  161.5590  205.2380  145.5010 C   0  0  2  0  0  3  0  0  0  0  0  0
  161.2490  204.7860  149.9990 O   0  0  0  0  0  1  0  0  0  0  0  0
  160.4150  205.2990  148.9970 C   0  0  0  0  0  2  0  0  0  0  0  0
  160.8390  203.3410  147.0020 C   0  0  0  0  0  2  0  0  0  0  0  0
  160.7510  201.5570  148.5720 O   0  0  0  0  0  1  0  0  0  0  0  0
  161.6140  202.2750  147.7510 C   0  0  0  0  0  2  0  0  0  0  0  0
  160.8950  211.0350  154.3350 C   0  0  0  0  0  2  0  0  0  0  0  0
  157.0430  212.8130  154.3350 C   0  0  1  0  0  3  0  0  0  0  0  0
  157.4210  213.6650  152.0070 N   0  0  0  0  0  0  0  0  0  0  0  0
  157.5320  213.6990  155.3170 O   0  0  0  0  0  0  0  0  0  0  0  0
  159.5000  213.3250  150.8670 C   0  0  0  0  0  0  0  0  0  0  0  0
  158.1990  213.8410  150.9030 C   0  0  0  0  0  3  0  0  0  0  0  0
  159.9950  212.6260  151.9710 C   0  0  0  0  0  3  0  0  0  0  0  0
  157.8790  212.9810  153.0890 C   0  0  0  0  0  0  0  0  0  0  0  0
  158.6890  211.6140  155.4130 C   0  0  1  0  0  3  0  0  0  0  0  0
  160.3150  213.5160  149.7170 N   0  0  0  0  0  1  0  0  0  0  0  0
  158.5230  212.9900  156.0400 C   0  0  0  0  0  2  0  0  0  0  0  0
  157.3000  211.4170  154.8740 C   0  0  0  0  0  2  0  0  0  0  0  0
  159.6150  211.7270  154.2740 N   0  0  0  0  0  0  0  0  0  0  0  0
  159.1830  212.4530  153.0980 C   0  0  0  0  0  0  0  0  0  0  0  0
  1 25  1  1  0  0  0
  1  8  1  0  0  0  0
  3  1  1  0  0  0  0
  4  5  1  0  0  0  0
  5  8  1  0  0  0  0
  7  9  1  6  0  0  0
  7  3  1  0  0  0  0
  7  4  1  0  0  0  0
  8  2  1  1  0  0  0
  8  6  1  0  0  0  0
  9 11  2  0  0  0  0
 10  9  1  0  0  0  0
 12 10  1  0  0  0  0
 13 12  1  0  0  0  0
 14 15  1  0  0  0  0
 15 17  1  0  0  0  0
 17 13  1  1  0  0  0
 17 21  1  0  0  0  0
 18 22  1  6  0  0  0
 18 17  1  0  0  0  0
 19 16  1  6  0  0  0
 19 14  1  0  0  0  0
 19 18  1  0  0  0  0
 21 20  1  0  0  0  0
 22 24  1  0  0  0  0
 24 23  1  0  0  0  0
 26 36  1  1  0  0  0
 26 28  1  0  0  0  0
 27 32  1  0  0  0  0
 28 35  1  0  0  0  0
 29 30  1  0  0  0  0
 29 31  2  0  0  0  0
 30 27  2  0  0  0  0
 31 38  1  0  0  0  0
 32 38  2  0  0  0  0
 32 26  1  0  0  0  0
 33 36  1  6  0  0  0
 33 35  1  0  0  0  0
 34 29  1  0  0  0  0
 37 25  1  0  0  0  0
 37 33  1  0  0  0  0
 38 37  1  0  0  0  0
M  END
>  <MODEL>
1

>  <REMARK>
 VINA RESULT:      -7.5      0.000      0.000
  Name = 
  9 active torsions:
  status: ('A' for Active; 'I' for Inactive)
    1  A    between atoms: C_7  and  C_19
    2  A    between atoms: C_11  and  C_32
    3  A    between atoms: N_16  and  C_35
    4  A    between atoms: C_17  and  C_28
    5  A    between atoms: C_17  and  C_37
    6  A    between atoms: C_19  and  N_30
    7  A    between atoms: C_24  and  C_34
    8  A    between atoms: C_24  and  C_38
    9  A    between atoms: C_34  and  C_35
                            x       y       z     vdW  Elec       q    Type
                         _______ _______ _______ _____ _____    ______ ____

>  <TORSDO>
F 9

$$$$
=
 OpenBabel11072412153D

 38 42  0  0  1  0  0  0  0  0999 V2000
  160.6570  209.5290  153.9810 C   0  0  1  0  0  3  0  0  0  0  0  0
  159.7600  208.3000  155.8090 F   0  0  0  0  0  0  0  0  0  0  0  0
  161.4340  209.2660  152.8420 O   0  0  0  0  0  0  0  0  0  0  0  0
  160.7130  206.9240  153.0320 C   0  0  0  0  0  2  0  0  0  0  0  0
  161.3100  207.1260  154.4340 C   0  0  0  0  0  2  0  0  0  0  0  0
  161.9480  208.8730  155.9190 O   0  0  0  0  0  1  0  0  0  0  0  0
  160.7780  208.2110  152.1800 C   0  0  2  0  0  3  0  0  0  0  0  0
  160.9160  208.4690  155.0690 C   0  0  1  0  0  0  0  0  0  0  0  0
  161.4260  207.9590  150.8610 C   0  0  0  0  0  0  0  0  0  0  0  0
  160.7090  207.2330  149.8600 N   0  0  0  0  0  2  0  0  0  0  0  0
  162.5720  208.4260  150.6140 O   0  0  0  0  0  0  0  0  0  0  0  0
  161.2870  206.9230  148.5610 C   0  0  0  0  0  2  0  0  0  0  0  0
  160.6440  205.6660  147.9960 C   0  0  0  0  0  2  0  0  0  0  0  0
  161.3290  203.2640  150.2040 C   0  0  0  0  0  2  0  0  0  0  0  0
  161.9320  204.3680  149.5650 O   0  0  0  0  0  0  0  0  0  0  0  0
  159.9630  201.4150  149.5480 O   0  0  0  0  0  1  0  0  0  0  0  0
  161.4750  204.3930  148.2230 C   0  0  1  0  0  0  0  0  0  0  0  0
  160.5980  203.1500  147.9670 C   0  0  2  0  0  3  0  0  0  0  0  0
  160.1720  202.7860  149.3670 C   0  0  2  0  0  3  0  0  0  0  0  0
  162.3970  205.1480  146.1120 O   0  0  0  0  0  1  0  0  0  0  0  0
  162.7040  204.4780  147.3020 C   0  0  0  0  0  2  0  0  0  0  0  0
  161.3470  201.9980  147.2770 C   0  0  0  0  0  2  0  0  0  0  0  0
  160.6250  202.6310  145.1000 O   0  0  0  0  0  1  0  0  0  0  0  0
  160.6140  201.5840  146.0170 C   0  0  0  0  0  2  0  0  0  0  0  0
  160.8490  210.9650  154.4580 C   0  0  0  0  0  2  0  0  0  0  0  0
  157.0050  212.7500  154.6730 C   0  0  1  0  0  3  0  0  0  0  0  0
  157.2980  213.6910  152.3670 N   0  0  0  0  0  0  0  0  0  0  0  0
  157.5350  213.5970  155.6700 O   0  0  0  0  0  0  0  0  0  0  0  0
  159.3320  213.3920  151.1380 C   0  0  0  0  0  0  0  0  0  0  0  0
  158.0350  213.9090  151.2430 C   0  0  0  0  0  3  0  0  0  0  0  0
  159.8650  212.6490  152.1940 C   0  0  0  0  0  3  0  0  0  0  0  0
  157.7950  212.9650  153.4040 C   0  0  0  0  0  0  0  0  0  0  0  0
  158.6870  211.5070  155.6400 C   0  0  1  0  0  3  0  0  0  0  0  0
  160.1030  213.6260  149.9660 N   0  0  0  0  0  1  0  0  0  0  0  0
  158.5500  212.8570  156.3260 C   0  0  0  0  0  2  0  0  0  0  0  0
  157.2780  211.3340  155.1480 C   0  0  0  0  0  2  0  0  0  0  0  0
  159.5690  211.6620  154.4720 N   0  0  0  0  0  0  0  0  0  0  0  0
  159.0960  212.4340  153.3430 C   0  0  0  0  0  0  0  0  0  0  0  0
  1 25  1  1  0  0  0
  1  8  1  0  0  0  0
  3  1  1  0  0  0  0
  4  5  1  0  0  0  0
  5  8  1  0  0  0  0
  7  9  1  6  0  0  0
  7  3  1  0  0  0  0
  7  4  1  0  0  0  0
  8  2  1  1  0  0  0
  8  6  1  0  0  0  0
 10  9  1  0  0  0  0
 11  9  2  0  0  0  0
 12 10  1  0  0  0  0
 13 17  1  0  0  0  0
 13 12  1  0  0  0  0
 15 14  1  0  0  0  0
 17 21  1  6  0  0  0
 17 15  1  0  0  0  0
 18 22  1  1  0  0  0
 18 17  1  0  0  0  0
 18 19  1  0  0  0  0
 19 16  1  6  0  0  0
 19 14  1  0  0  0  0
 20 21  1  0  0  0  0
 23 24  1  0  0  0  0
 24 22  1  0  0  0  0
 25 37  1  0  0  0  0
 26 36  1  1  0  0  0
 26 28  1  0  0  0  0
 27 32  1  0  0  0  0
 28 35  1  0  0  0  0
 29 30  1  0  0  0  0
 29 31  2  0  0  0  0
 30 27  2  0  0  0  0
 31 38  1  0  0  0  0
 32 26  1  0  0  0  0
 33 36  1  6  0  0  0
 33 35  1  0  0  0  0
 34 29  1  0  0  0  0
 37 33  1  0  0  0  0
 38 32  2  0  0  0  0
 38 37  1  0  0  0  0
M  END
>  <MODEL>
2

>  <REMARK>
 VINA RESULT:      -7.4      1.004      2.091
  Name = 
  9 active torsions:
  status: ('A' for Active; 'I' for Inactive)
    1  A    between atoms: C_7  and  C_19
    2  A    between atoms: C_11  and  C_32
    3  A    between atoms: N_16  and  C_35
    4  A    between atoms: C_17  and  C_28
    5  A    between atoms: C_17  and  C_37
    6  A    between atoms: C_19  and  N_30
    7  A    between atoms: C_24  and  C_34
    8  A    between atoms: C_24  and  C_38
    9  A    between atoms: C_34  and  C_35
                            x       y       z     vdW  Elec       q    Type
                         _______ _______ _______ _____ _____    ______ ____

>  <TORSDO>
F 9

$$$$
=
 OpenBabel11072412153D

 38 42  0  0  1  0  0  0  0  0999 V2000
  161.3910  207.3930  150.7850 C   0  0  1  0  0  3  0  0  0  0  0  0
  162.7170  206.4570  152.5250 F   0  0  0  0  0  0  0  0  0  0  0  0
  160.9180  208.6600  150.4160 O   0  0  0  0  0  0  0  0  0  0  0  0
  162.7470  209.6080  151.7580 C   0  0  0  0  0  2  0  0  0  0  0  0
  162.0710  208.7300  152.8230 C   0  0  0  0  0  2  0  0  0  0  0  0
  160.5500  206.9090  153.0010 O   0  0  0  0  0  1  0  0  0  0  0  0
  162.0570  209.4870  150.3810 C   0  0  2  0  0  3  0  0  0  0  0  0
  161.6770  207.3410  152.2980 C   0  0  1  0  0  0  0  0  0  0  0  0
  161.6960  210.8270  149.8340 C   0  0  0  0  0  0  0  0  0  0  0  0
  161.9710  211.1170  148.4620 N   0  0  0  0  0  2  0  0  0  0  0  0
  161.1060  211.6740  150.5600 O   0  0  0  0  0  0  0  0  0  0  0  0
  161.6750  212.4120  147.8660 C   0  0  0  0  0  2  0  0  0  0  0  0
  160.7200  212.2360  146.6970 C   0  0  0  0  0  2  0  0  0  0  0  0
  162.6950  214.4500  145.1780 C   0  0  0  0  0  2  0  0  0  0  0  0
  161.6720  214.3790  146.1460 O   0  0  0  0  0  0  0  0  0  0  0  0
  163.0910  213.5350  143.0050 O   0  0  0  0  0  1  0  0  0  0  0  0
  160.7300  213.4150  145.7100 C   0  0  1  0  0  0  0  0  0  0  0  0
  161.1350  212.9130  144.3090 C   0  0  2  0  0  3  0  0  0  0  0  0
  162.6070  213.2410  144.2840 C   0  0  2  0  0  3  0  0  0  0  0  0
  158.3520  213.1150  146.0800 O   0  0  0  0  0  1  0  0  0  0  0  0
  159.3330  214.0580  145.7510 C   0  0  0  0  0  2  0  0  0  0  0  0
  160.3740  213.6000  143.1630 C   0  0  0  0  0  2  0  0  0  0  0  0
  160.3950  211.3810  142.3040 O   0  0  0  0  0  1  0  0  0  0  0  0
  159.6580  212.5620  142.3210 C   0  0  0  0  0  2  0  0  0  0  0  0
  160.4570  206.2920  150.2930 C   0  0  0  0  0  2  0  0  0  0  0  0
  161.5560  205.1660  146.3520 C   0  0  1  0  0  3  0  0  0  0  0  0
  161.3720  202.7450  146.9780 N   0  0  0  0  0  0  0  0  0  0  0  0
  162.8320  205.6980  146.6340 O   0  0  0  0  0  0  0  0  0  0  0  0
  160.8480  202.0620  149.2130 C   0  0  0  0  0  0  0  0  0  0  0  0
  161.1580  201.7510  147.8840 C   0  0  0  0  0  3  0  0  0  0  0  0
  160.7560  203.4000  149.6040 C   0  0  0  0  0  3  0  0  0  0  0  0
  161.2820  204.0540  147.3360 C   0  0  0  0  0  0  0  0  0  0  0  0
  161.1540  206.8040  147.9230 C   0  0  1  0  0  3  0  0  0  0  0  0
  160.6310  201.0230  150.1600 N   0  0  0  0  0  1  0  0  0  0  0  0
  162.6320  206.7450  147.5680 C   0  0  0  0  0  2  0  0  0  0  0  0
  160.5700  206.2850  146.6390 C   0  0  0  0  0  2  0  0  0  0  0  0
  160.8870  205.8190  148.9840 N   0  0  0  0  0  0  0  0  0  0  0  0
  160.9790  204.4110  148.6620 C   0  0  0  0  0  0  0  0  0  0  0  0
  1 25  1  1  0  0  0
  1  8  1  0  0  0  0
  3  1  1  0  0  0  0
  4  5  1  0  0  0  0
  7  9  1  1  0  0  0
  7  3  1  0  0  0  0
  7  4  1  0  0  0  0
  8  2  1  1  0  0  0
  8  5  1  0  0  0  0
  8  6  1  0  0  0  0
  9 11  2  0  0  0  0
 10  9  1  0  0  0  0
 12 10  1  0  0  0  0
 13 12  1  0  0  0  0
 14 15  1  0  0  0  0
 17 21  1  6  0  0  0
 17 15  1  0  0  0  0
 17 13  1  0  0  0  0
 18 22  1  6  0  0  0
 18 17  1  0  0  0  0
 19 16  1  6  0  0  0
 19 18  1  0  0  0  0
 19 14  1  0  0  0  0
 21 20  1  0  0  0  0
 23 24  1  0  0  0  0
 24 22  1  0  0  0  0
 26 28  1  0  0  0  0
 26 36  1  1  0  0  0
 26 32  1  0  0  0  0
 27 32  2  0  0  0  0
 27 30  1  0  0  0  0
 28 35  1  0  0  0  0
 29 31  1  0  0  0  0
 29 34  1  0  0  0  0
 30 29  2  0  0  0  0
 32 38  1  0  0  0  0
 33 36  1  6  0  0  0
 33 37  1  0  0  0  0
 35 33  1  0  0  0  0
 37 25  1  0  0  0  0
 38 37  1  0  0  0  0
 38 31  2  0  0  0  0
M  END
>  <MODEL>
3

>  <REMARK>
 VINA RESULT:      -7.0      4.461      8.657
  Name = 
  9 active torsions:
  status: ('A' for Active; 'I' for Inactive)
    1  A    between atoms: C_7  and  C_19
    2  A    between atoms: C_11  and  C_32
    3  A    between atoms: N_16  and  C_35
    4  A    between atoms: C_17  and  C_28
    5  A    between atoms: C_17  and  C_37
    6  A    between atoms: C_19  and  N_30
    7  A    between atoms: C_24  and  C_34
    8  A    between atoms: C_24  and  C_38
    9  A    between atoms: C_34  and  C_35
                            x       y       z     vdW  Elec       q    Type
                         _______ _______ _______ _____ _____    ______ ____

>  <TORSDO>
F 9

$$$$
=
 OpenBabel11072412153D

 38 42  0  0  1  0  0  0  0  0999 V2000
  160.3090  210.1640  154.1790 C   0  0  1  0  0  3  0  0  0  0  0  0
  159.3640  208.7120  155.8090 F   0  0  0  0  0  0  0  0  0  0  0  0
  161.2600  210.0810  153.1510 O   0  0  0  0  0  0  0  0  0  0  0  0
  160.8690  207.6540  153.1380 C   0  0  0  0  0  2  0  0  0  0  0  0
  161.2380  207.8510  154.6180 C   0  0  0  0  0  2  0  0  0  0  0  0
  161.4110  209.5740  156.2500 O   0  0  0  0  0  1  0  0  0  0  0  0
  160.8600  208.9890  152.3590 C   0  0  2  0  0  3  0  0  0  0  0  0
  160.5710  209.0840  155.2470 C   0  0  1  0  0  0  0  0  0  0  0  0
  161.7070  208.9100  151.1350 C   0  0  0  0  0  0  0  0  0  0  0  0
  161.4160  207.9190  150.1480 N   0  0  0  0  0  2  0  0  0  0  0  0
  162.6380  209.7430  150.9490 O   0  0  0  0  0  0  0  0  0  0  0  0
  162.2170  207.7630  148.9430 C   0  0  0  0  0  2  0  0  0  0  0  0
  162.4620  206.2870  148.6730 C   0  0  0  0  0  2  0  0  0  0  0  0
  160.5000  205.9960  145.9940 C   0  0  0  0  0  2  0  0  0  0  0  0
  160.4700  206.4510  147.3290 O   0  0  0  0  0  0  0  0  0  0  0  0
  161.3150  204.0690  144.8380 O   0  0  0  0  0  1  0  0  0  0  0  0
  161.2360  205.5500  148.1100 C   0  0  1  0  0  0  0  0  0  0  0  0
  161.6990  204.3790  147.2190 C   0  0  2  0  0  3  0  0  0  0  0  0
  161.6140  204.9930  145.8440 C   0  0  2  0  0  3  0  0  0  0  0  0
  161.1750  204.8360  150.4260 O   0  0  0  0  0  1  0  0  0  0  0  0
  160.3780  205.1080  149.3080 C   0  0  0  0  0  2  0  0  0  0  0  0
  160.8200  203.1240  147.3430 C   0  0  0  0  0  2  0  0  0  0  0  0
  160.5990  201.3910  148.9580 O   0  0  0  0  0  1  0  0  0  0  0  0
  161.5270  202.0770  148.1810 C   0  0  0  0  0  2  0  0  0  0  0  0
  160.2240  211.5800  154.7370 C   0  0  0  0  0  2  0  0  0  0  0  0
  157.6600  214.0400  152.4180 C   0  0  1  0  0  3  0  0  0  0  0  0
  155.8460  213.7860  154.1300 N   0  0  0  0  0  0  0  0  0  0  0  0
  157.6470  213.0000  151.4640 O   0  0  0  0  0  0  0  0  0  0  0  0
  156.1260  212.3970  156.0610 C   0  0  0  0  0  0  0  0  0  0  0  0
  155.3460  213.2600  155.2830 C   0  0  0  0  0  3  0  0  0  0  0  0
  157.4230  212.0800  155.6490 C   0  0  0  0  0  3  0  0  0  0  0  0
  157.1070  213.4970  153.7140 C   0  0  0  0  0  0  0  0  0  0  0  0
  159.6840  212.9770  152.7070 C   0  0  1  0  0  3  0  0  0  0  0  0
  155.6010  211.8430  157.2610 N   0  0  0  0  0  1  0  0  0  0  0  0
  158.8960  212.3400  151.5720 C   0  0  0  0  0  2  0  0  0  0  0  0
  159.1240  214.3700  152.6470 C   0  0  0  0  0  2  0  0  0  0  0  0
  159.2590  212.3620  153.9750 N   0  0  0  0  0  0  0  0  0  0  0  0
  157.9220  212.6280  154.4620 C   0  0  0  0  0  0  0  0  0  0  0  0
  1 25  1  1  0  0  0
  1  8  1  0  0  0  0
  3  1  1  0  0  0  0
  4  5  1  0  0  0  0
  5  8  1  0  0  0  0
  7  9  1  6  0  0  0
  7  4  1  0  0  0  0
  7  3  1  0  0  0  0
  8  2  1  1  0  0  0
  8  6  1  0  0  0  0
 10  9  1  0  0  0  0
 11  9  2  0  0  0  0
 12 10  1  0  0  0  0
 13 12  1  0  0  0  0
 14 15  1  0  0  0  0
 15 17  1  0  0  0  0
 17 13  1  1  0  0  0
 17 21  1  0  0  0  0
 18 22  1  6  0  0  0
 18 17  1  0  0  0  0
 19 16  1  6  0  0  0
 19 14  1  0  0  0  0
 19 18  1  0  0  0  0
 21 20  1  0  0  0  0
 22 24  1  0  0  0  0
 24 23  1  0  0  0  0
 26 36  1  1  0  0  0
 26 32  1  0  0  0  0
 27 30  1  0  0  0  0
 28 35  1  0  0  0  0
 28 26  1  0  0  0  0
 29 34  1  0  0  0  0
 30 29  2  0  0  0  0
 31 29  1  0  0  0  0
 32 27  2  0  0  0  0
 32 38  1  0  0  0  0
 33 35  1  6  0  0  0
 33 37  1  0  0  0  0
 36 33  1  0  0  0  0
 37 38  1  0  0  0  0
 37 25  1  0  0  0  0
 38 31  2  0  0  0  0
M  END
>  <MODEL>
4

>  <REMARK>
 VINA RESULT:      -6.6      1.449      2.642
  Name = 
  9 active torsions:
  status: ('A' for Active; 'I' for Inactive)
    1  A    between atoms: C_7  and  C_19
    2  A    between atoms: C_11  and  C_32
    3  A    between atoms: N_16  and  C_35
    4  A    between atoms: C_17  and  C_28
    5  A    between atoms: C_17  and  C_37
    6  A    between atoms: C_19  and  N_30
    7  A    between atoms: C_24  and  C_34
    8  A    between atoms: C_24  and  C_38
    9  A    between atoms: C_34  and  C_35
                            x       y       z     vdW  Elec       q    Type
                         _______ _______ _______ _____ _____    ______ ____

>  <TORSDO>
F 9

$$$$
=
 OpenBabel11072412153D

 38 42  0  0  1  0  0  0  0  0999 V2000
  161.1210  206.2650  150.3430 C   0  0  1  0  0  3  0  0  0  0  0  0
  162.2860  204.3090  151.0340 F   0  0  0  0  0  0  0  0  0  0  0  0
  160.8040  207.5210  150.8800 O   0  0  0  0  0  0  0  0  0  0  0  0
  162.6930  207.2110  152.4240 C   0  0  0  0  0  2  0  0  0  0  0  0
  161.8940  205.9340  152.7300 C   0  0  0  0  0  2  0  0  0  0  0  0
  160.1720  204.5820  151.7980 O   0  0  0  0  0  1  0  0  0  0  0  0
  162.0300  208.0600  151.3160 C   0  0  2  0  0  3  0  0  0  0  0  0
  161.3590  205.2390  151.4680 C   0  0  1  0  0  0  0  0  0  0  0  0
  161.8380  209.4720  151.7550 C   0  0  0  0  0  0  0  0  0  0  0  0
  160.5990  209.8520  152.3570 N   0  0  0  0  0  2  0  0  0  0  0  0
  162.7770  210.3070  151.6430 O   0  0  0  0  0  0  0  0  0  0  0  0
  160.3280  211.2180  152.7820 C   0  0  0  0  0  2  0  0  0  0  0  0
  158.8350  211.4080  152.9910 C   0  0  0  0  0  2  0  0  0  0  0  0
  157.8510  214.1950  154.5340 C   0  0  0  0  0  2  0  0  0  0  0  0
  158.9630  213.3320  154.4350 O   0  0  0  0  0  0  0  0  0  0  0  0
  155.4880  213.9520  154.7990 O   0  0  0  0  0  1  0  0  0  0  0  0
  158.4740  212.0040  154.3620 C   0  0  1  0  0  0  0  0  0  0  0  0
  156.9410  212.0210  154.5320 C   0  0  2  0  0  3  0  0  0  0  0  0
  156.6090  213.4390  154.1400 C   0  0  2  0  0  3  0  0  0  0  0  0
  159.9900  211.9790  156.2550 O   0  0  0  0  0  1  0  0  0  0  0  0
  159.2010  211.1680  155.4290 C   0  0  0  0  0  2  0  0  0  0  0  0
  156.4750  211.6970  155.9610 C   0  0  0  0  0  2  0  0  0  0  0  0
  155.2110  210.1780  154.6360 O   0  0  0  0  0  1  0  0  0  0  0  0
  155.3340  210.7000  155.9200 C   0  0  0  0  0  2  0  0  0  0  0  0
  160.0820  205.8280  149.3160 C   0  0  0  0  0  2  0  0  0  0  0  0
  161.8680  204.3180  145.7760 C   0  0  1  0  0  3  0  0  0  0  0  0
  161.5780  201.9720  146.6140 N   0  0  0  0  0  0  0  0  0  0  0  0
  163.0730  204.9020  146.2220 O   0  0  0  0  0  0  0  0  0  0  0  0
  160.6630  201.5170  148.7800 C   0  0  0  0  0  0  0  0  0  0  0  0
  161.2060  201.0740  147.5680 C   0  0  0  0  0  3  0  0  0  0  0  0
  160.5020  202.8870  149.0040 C   0  0  0  0  0  3  0  0  0  0  0  0
  161.4230  203.3090  146.8080 C   0  0  0  0  0  0  0  0  0  0  0  0
  161.1910  206.1030  147.0670 C   0  0  1  0  0  3  0  0  0  0  0  0
  160.2810  200.5790  149.7790 N   0  0  0  0  0  1  0  0  0  0  0  0
  162.7080  206.0360  146.9890 C   0  0  0  0  0  2  0  0  0  0  0  0
  160.8460  205.4410  145.7620 C   0  0  0  0  0  2  0  0  0  0  0  0
  160.7390  205.2290  148.1620 N   0  0  0  0  0  0  0  0  0  0  0  0
  160.8880  203.7970  148.0140 C   0  0  0  0  0  0  0  0  0  0  0  0
  1 25  1  6  0  0  0
  1  3  1  0  0  0  0
  1  8  1  0  0  0  0
  3  7  1  0  0  0  0
  4  5  1  0  0  0  0
  7  9  1  1  0  0  0
  7  4  1  0  0  0  0
  8  2  1  6  0  0  0
  8  6  1  0  0  0  0
  8  5  1  0  0  0  0
  9 10  1  0  0  0  0
 10 12  1  0  0  0  0
 11  9  2  0  0  0  0
 12 13  1  0  0  0  0
 15 14  1  0  0  0  0
 17 13  1  6  0  0  0
 17 15  1  0  0  0  0
 17 18  1  0  0  0  0
 17 21  1  0  0  0  0
 18 22  1  1  0  0  0
 19 18  1  0  0  0  0
 19 14  1  0  0  0  0
 19 16  1  1  0  0  0
 21 20  1  0  0  0  0
 23 24  1  0  0  0  0
 24 22  1  0  0  0  0
 26 36  1  1  0  0  0
 26 28  1  0  0  0  0
 26 32  1  0  0  0  0
 27 32  2  0  0  0  0
 27 30  1  0  0  0  0
 28 35  1  0  0  0  0
 29 31  1  0  0  0  0
 29 34  1  0  0  0  0
 30 29  2  0  0  0  0
 32 38  1  0  0  0  0
 33 36  1  6  0  0  0
 33 37  1  0  0  0  0
 35 33  1  0  0  0  0
 37 25  1  0  0  0  0
 38 37  1  0  0  0  0
 38 31  2  0  0  0  0
M  END
>  <MODEL>
5

>  <REMARK>
 VINA RESULT:      -6.5      2.712      9.877
  Name = 
  9 active torsions:
  status: ('A' for Active; 'I' for Inactive)
    1  A    between atoms: C_7  and  C_19
    2  A    between atoms: C_11  and  C_32
    3  A    between atoms: N_16  and  C_35
    4  A    between atoms: C_17  and  C_28
    5  A    between atoms: C_17  and  C_37
    6  A    between atoms: C_19  and  N_30
    7  A    between atoms: C_24  and  C_34
    8  A    between atoms: C_24  and  C_38
    9  A    between atoms: C_34  and  C_35
                            x       y       z     vdW  Elec       q    Type
                         _______ _______ _______ _____ _____    ______ ____

>  <TORSDO>
F 9

$$$$
=
 OpenBabel11072412153D

 38 42  0  0  1  0  0  0  0  0999 V2000
  161.2390  205.3430  150.8450 C   0  0  1  0  0  3  0  0  0  0  0  0
  162.3650  203.8320  152.2980 F   0  0  0  0  0  0  0  0  0  0  0  0
  160.7520  206.6570  150.8990 O   0  0  0  0  0  0  0  0  0  0  0  0
  162.3270  207.0450  152.7460 C   0  0  0  0  0  2  0  0  0  0  0  0
  161.5610  205.8350  153.3060 C   0  0  0  0  0  2  0  0  0  0  0  0
  160.1310  204.0760  152.5830 O   0  0  0  0  0  1  0  0  0  0  0  0
  161.8380  207.4390  151.3350 C   0  0  2  0  0  3  0  0  0  0  0  0
  161.3190  204.7370  152.2600 C   0  0  1  0  0  0  0  0  0  0  0  0
  161.4820  208.8860  151.2670 C   0  0  0  0  0  0  0  0  0  0  0  0
  161.9590  209.6710  150.1720 N   0  0  0  0  0  2  0  0  0  0  0  0
  160.7260  209.3970  152.1390 O   0  0  0  0  0  0  0  0  0  0  0  0
  161.6780  211.0940  150.0550 C   0  0  0  0  0  2  0  0  0  0  0  0
  162.1400  211.6020  148.6990 C   0  0  0  0  0  2  0  0  0  0  0  0
  162.5560  214.3960  146.9280 C   0  0  0  0  0  2  0  0  0  0  0  0
  162.4030  213.9560  148.2600 O   0  0  0  0  0  0  0  0  0  0  0  0
  161.5040  213.9570  144.8270 O   0  0  0  0  0  1  0  0  0  0  0  0
  161.4520  212.9060  148.2620 C   0  0  1  0  0  0  0  0  0  0  0  0
  160.8830  212.7390  146.8380 C   0  0  2  0  0  3  0  0  0  0  0  0
  161.9730  213.3610  146.0020 C   0  0  2  0  0  3  0  0  0  0  0  0
  160.6510  214.4530  149.9480 O   0  0  0  0  0  1  0  0  0  0  0  0
  160.3810  213.2340  149.3160 C   0  0  0  0  0  2  0  0  0  0  0  0
  159.5300  213.4370  146.6280 C   0  0  0  0  0  2  0  0  0  0  0  0
  157.4120  212.3950  146.3260 O   0  0  0  0  0  1  0  0  0  0  0  0
  158.6490  212.5980  145.7220 C   0  0  0  0  0  2  0  0  0  0  0  0
  160.4420  204.5010  149.8550 C   0  0  0  0  0  2  0  0  0  0  0  0
  161.3100  205.8190  145.9160 C   0  0  1  0  0  3  0  0  0  0  0  0
  161.2940  203.4460  145.1040 N   0  0  0  0  0  0  0  0  0  0  0  0
  162.5750  206.2110  146.4040 O   0  0  0  0  0  0  0  0  0  0  0  0
  160.9670  201.6080  146.6040 C   0  0  0  0  0  0  0  0  0  0  0  0
  161.1960  202.1050  145.3150 C   0  0  0  0  0  3  0  0  0  0  0  0
  160.8360  202.4980  147.6720 C   0  0  0  0  0  3  0  0  0  0  0  0
  161.1630  204.3310  146.1280 C   0  0  0  0  0  0  0  0  0  0  0  0
  160.9400  206.2850  148.1420 C   0  0  1  0  0  3  0  0  0  0  0  0
  160.8710  200.2060  146.8250 N   0  0  0  0  0  1  0  0  0  0  0  0
  162.3900  206.5520  147.7670 C   0  0  0  0  0  2  0  0  0  0  0  0
  160.2920  206.5110  146.8050 C   0  0  0  0  0  2  0  0  0  0  0  0
  160.8000  204.8610  148.4890 N   0  0  0  0  0  0  0  0  0  0  0  0
  160.9400  203.8750  147.4400 C   0  0  0  0  0  0  0  0  0  0  0  0
  1 25  1  6  0  0  0
  1  3  1  0  0  0  0
  1  8  1  0  0  0  0
  3  7  1  0  0  0  0
  4  5  1  0  0  0  0
  7  9  1  1  0  0  0
  7  4  1  0  0  0  0
  8  2  1  1  0  0  0
  8  6  1  0  0  0  0
  8  5  1  0  0  0  0
  9 11  2  0  0  0  0
 10  9  1  0  0  0  0
 12 10  1  0  0  0  0
 13 12  1  0  0  0  0
 14 15  1  0  0  0  0
 15 17  1  0  0  0  0
 17 13  1  1  0  0  0
 17 21  1  0  0  0  0
 18 22  1  1  0  0  0
 18 17  1  0  0  0  0
 19 16  1  6  0  0  0
 19 18  1  0  0  0  0
 19 14  1  0  0  0  0
 21 20  1  0  0  0  0
 24 23  1  0  0  0  0
 24 22  1  0  0  0  0
 26 32  1  0  0  0  0
 26 28  1  0  0  0  0
 26 36  1  1  0  0  0
 27 30  2  0  0  0  0
 27 32  1  0  0  0  0
 28 35  1  0  0  0  0
 29 34  1  0  0  0  0
 29 31  2  0  0  0  0
 30 29  1  0  0  0  0
 32 38  2  0  0  0  0
 33 36  1  6  0  0  0
 33 37  1  0  0  0  0
 35 33  1  0  0  0  0
 37 25  1  0  0  0  0
 38 31  1  0  0  0  0
 38 37  1  0  0  0  0
M  END
>  <MODEL>
6

>  <REMARK>
 VINA RESULT:      -6.4      3.840      8.778
  Name = 
  9 active torsions:
  status: ('A' for Active; 'I' for Inactive)
    1  A    between atoms: C_7  and  C_19
    2  A    between atoms: C_11  and  C_32
    3  A    between atoms: N_16  and  C_35
    4  A    between atoms: C_17  and  C_28
    5  A    between atoms: C_17  and  C_37
    6  A    between atoms: C_19  and  N_30
    7  A    between atoms: C_24  and  C_34
    8  A    between atoms: C_24  and  C_38
    9  A    between atoms: C_34  and  C_35
                            x       y       z     vdW  Elec       q    Type
                         _______ _______ _______ _____ _____    ______ ____

>  <TORSDO>
F 9

$$$$
=
 OpenBabel11072412153D

 38 42  0  0  1  0  0  0  0  0999 V2000
  161.1810  205.8010  150.7360 C   0  0  1  0  0  3  0  0  0  0  0  0
  162.5280  204.0530  151.6250 F   0  0  0  0  0  0  0  0  0  0  0  0
  160.7410  207.0710  151.1370 O   0  0  0  0  0  0  0  0  0  0  0  0
  162.6430  207.1140  152.6930 C   0  0  0  0  0  2  0  0  0  0  0  0
  161.9710  205.8050  153.1400 C   0  0  0  0  0  2  0  0  0  0  0  0
  160.3940  204.1990  152.3690 O   0  0  0  0  0  1  0  0  0  0  0  0
  161.9050  207.7700  151.5050 C   0  0  2  0  0  3  0  0  0  0  0  0
  161.5130  204.9300  151.9630 C   0  0  1  0  0  0  0  0  0  0  0  0
  161.5740  209.1960  151.7910 C   0  0  0  0  0  0  0  0  0  0  0  0
  160.9040  209.5250  153.0090 N   0  0  0  0  0  2  0  0  0  0  0  0
  161.9280  210.1050  150.9900 O   0  0  0  0  0  0  0  0  0  0  0  0
  160.5210  210.8890  153.3420 C   0  0  0  0  0  2  0  0  0  0  0  0
  159.0670  211.1240  152.9670 C   0  0  0  0  0  2  0  0  0  0  0  0
  156.4210  211.9260  154.8290 C   0  0  0  0  0  2  0  0  0  0  0  0
  157.0010  212.2040  153.5730 O   0  0  0  0  0  0  0  0  0  0  0  0
  157.1810  211.7530  157.0890 O   0  0  0  0  0  1  0  0  0  0  0  0
  158.4050  212.2690  153.7500 C   0  0  1  0  0  0  0  0  0  0  0  0
  158.7300  212.1250  155.2520 C   0  0  2  0  0  3  0  0  0  0  0  0
  157.4930  211.4310  155.7640 C   0  0  2  0  0  3  0  0  0  0  0  0
  158.1240  213.9600  152.0350 O   0  0  0  0  0  1  0  0  0  0  0  0
  158.9030  213.5900  153.1390 C   0  0  0  0  0  2  0  0  0  0  0  0
  158.9730  213.4670  155.9620 C   0  0  0  0  0  2  0  0  0  0  0  0
  160.8290  212.1510  156.6550 O   0  0  0  0  0  1  0  0  0  0  0  0
  160.1730  213.3570  156.8810 C   0  0  0  0  0  2  0  0  0  0  0  0
  160.1950  205.1570  149.7680 C   0  0  0  0  0  2  0  0  0  0  0  0
  161.5130  205.6140  145.7610 C   0  0  1  0  0  3  0  0  0  0  0  0
  161.6680  203.1230  145.5130 N   0  0  0  0  0  0  0  0  0  0  0  0
  162.6940  206.1750  146.2910 O   0  0  0  0  0  0  0  0  0  0  0  0
  161.2080  201.6480  147.3440 C   0  0  0  0  0  0  0  0  0  0  0  0
  161.5830  201.8580  146.0110 C   0  0  0  0  0  3  0  0  0  0  0  0
  160.9180  202.7450  148.1590 C   0  0  0  0  0  3  0  0  0  0  0  0
  161.3840  204.2040  146.2870 C   0  0  0  0  0  0  0  0  0  0  0  0
  160.8530  206.5410  147.7640 C   0  0  1  0  0  3  0  0  0  0  0  0
  161.1260  200.3270  147.8650 N   0  0  0  0  0  1  0  0  0  0  0  0
  162.3300  206.7990  147.5090 C   0  0  0  0  0  2  0  0  0  0  0  0
  160.3720  206.4270  146.3440 C   0  0  0  0  0  2  0  0  0  0  0  0
  160.7110  205.2250  148.4070 N   0  0  0  0  0  0  0  0  0  0  0  0
  161.0100  204.0390  147.6330 C   0  0  0  0  0  0  0  0  0  0  0  0
  1 25  1  1  0  0  0
  1  3  1  0  0  0  0
  1  8  1  0  0  0  0
  3  7  1  0  0  0  0
  4  5  1  0  0  0  0
  7  9  1  1  0  0  0
  7  4  1  0  0  0  0
  8  2  1  6  0  0  0
  8  6  1  0  0  0  0
  8  5  1  0  0  0  0
  9 10  1  0  0  0  0
 10 12  1  0  0  0  0
 11  9  2  0  0  0  0
 13 12  1  0  0  0  0
 14 19  1  0  0  0  0
 15 17  1  0  0  0  0
 15 14  1  0  0  0  0
 17 13  1  6  0  0  0
 17 18  1  0  0  0  0
 18 19  1  0  0  0  0
 18 22  1  1  0  0  0
 19 16  1  1  0  0  0
 20 21  1  0  0  0  0
 21 17  1  0  0  0  0
 22 24  1  0  0  0  0
 23 24  1  0  0  0  0
 26 32  1  0  0  0  0
 26 28  1  0  0  0  0
 26 36  1  1  0  0  0
 27 30  2  0  0  0  0
 27 32  1  0  0  0  0
 28 35  1  0  0  0  0
 29 34  1  0  0  0  0
 29 31  2  0  0  0  0
 30 29  1  0  0  0  0
 32 38  2  0  0  0  0
 33 36  1  6  0  0  0
 33 37  1  0  0  0  0
 35 33  1  0  0  0  0
 37 25  1  0  0  0  0
 38 31  1  0  0  0  0
 38 37  1  0  0  0  0
M  END
>  <MODEL>
7

>  <REMARK>
 VINA RESULT:      -6.2      2.666      9.795
  Name = 
  9 active torsions:
  status: ('A' for Active; 'I' for Inactive)
    1  A    between atoms: C_7  and  C_19
    2  A    between atoms: C_11  and  C_32
    3  A    between atoms: N_16  and  C_35
    4  A    between atoms: C_17  and  C_28
    5  A    between atoms: C_17  and  C_37
    6  A    between atoms: C_19  and  N_30
    7  A    between atoms: C_24  and  C_34
    8  A    between atoms: C_24  and  C_38
    9  A    between atoms: C_34  and  C_35
                            x       y       z     vdW  Elec       q    Type
                         _______ _______ _______ _____ _____    ______ ____

>  <TORSDO>
F 9

$$$$
=
 OpenBabel11072412153D

 38 42  0  0  1  0  0  0  0  0999 V2000
  161.2750  208.7450  152.4260 C   0  0  1  0  0  3  0  0  0  0  0  0
  163.1200  209.9870  151.5800 F   0  0  0  0  0  0  0  0  0  0  0  0
  160.7180  207.4710  152.2430 O   0  0  0  0  0  0  0  0  0  0  0  0
  162.9170  206.7550  151.4070 C   0  0  0  0  0  2  0  0  0  0  0  0
  162.6510  207.9370  150.4620 C   0  0  0  0  0  2  0  0  0  0  0  0
  161.2690  209.8660  150.2810 O   0  0  0  0  0  1  0  0  0  0  0  0
  161.7810  206.5690  152.4380 C   0  0  2  0  0  3  0  0  0  0  0  0
  162.0790  209.1690  151.1810 C   0  0  1  0  0  0  0  0  0  0  0  0
  161.2660  205.1690  152.4340 C   0  0  0  0  0  0  0  0  0  0  0  0
  161.9550  204.1760  151.6720 N   0  0  0  0  0  2  0  0  0  0  0  0
  160.2660  204.8560  153.1380 O   0  0  0  0  0  0  0  0  0  0  0  0
  161.4950  202.7970  151.5960 C   0  0  0  0  0  2  0  0  0  0  0  0
  161.8160  202.2190  150.2270 C   0  0  0  0  0  2  0  0  0  0  0  0
  161.0720  204.6750  148.0990 C   0  0  0  0  0  2  0  0  0  0  0  0
  160.5720  204.0390  149.2540 O   0  0  0  0  0  0  0  0  0  0  0  0
  162.0110  203.9870  146.0110 O   0  0  0  0  0  1  0  0  0  0  0  0
  160.8300  202.6510  149.1290 C   0  0  1  0  0  0  0  0  0  0  0  0
  161.4470  202.3760  147.7420 C   0  0  2  0  0  3  0  0  0  0  0  0
  162.0040  203.7310  147.3850 C   0  0  2  0  0  3  0  0  0  0  0  0
  159.7540  200.5760  149.7730 O   0  0  0  0  0  1  0  0  0  0  0  0
  159.5120  201.8960  149.3760 C   0  0  0  0  0  2  0  0  0  0  0  0
  160.4290  201.8810  146.7010 C   0  0  0  0  0  2  0  0  0  0  0  0
  161.5910  199.8420  147.0900 O   0  0  0  0  0  1  0  0  0  0  0  0
  160.8790  200.5520  146.1290 C   0  0  0  0  0  2  0  0  0  0  0  0
  160.2130  209.7540  152.8500 C   0  0  0  0  0  2  0  0  0  0  0  0
  160.6450  210.2300  157.0440 C   0  0  1  0  0  3  0  0  0  0  0  0
  158.5000  211.5260  157.1310 N   0  0  0  0  0  0  0  0  0  0  0  0
  161.7570  211.0510  156.7630 O   0  0  0  0  0  0  0  0  0  0  0  0
  157.2600  212.0370  155.1470 C   0  0  0  0  0  0  0  0  0  0  0  0
  157.4250  212.1120  156.5350 C   0  0  0  0  0  3  0  0  0  0  0  0
  158.2040  211.3540  154.3770 C   0  0  0  0  0  3  0  0  0  0  0  0
  159.4270  210.8500  156.4020 C   0  0  0  0  0  0  0  0  0  0  0  0
  161.4410  209.4390  155.0310 C   0  0  1  0  0  3  0  0  0  0  0  0
  156.1410  212.6560  154.5240 N   0  0  0  0  0  1  0  0  0  0  0  0
  162.3110  210.5730  155.5490 C   0  0  0  0  0  2  0  0  0  0  0  0
  160.9150  208.9130  156.3370 C   0  0  0  0  0  2  0  0  0  0  0  0
  160.3150  210.0180  154.2790 N   0  0  0  0  0  0  0  0  0  0  0  0
  159.3030  210.7560  155.0040 C   0  0  0  0  0  0  0  0  0  0  0  0
  1 25  1  6  0  0  0
  3  1  1  0  0  0  0
  3  7  1  0  0  0  0
  4  7  1  0  0  0  0
  5  8  1  0  0  0  0
  5  4  1  0  0  0  0
  7  9  1  6  0  0  0
  8  6  1  6  0  0  0
  8  2  1  0  0  0  0
  8  1  1  0  0  0  0
  9 11  2  0  0  0  0
 10  9  1  0  0  0  0
 12 10  1  0  0  0  0
 13 12  1  0  0  0  0
 14 15  1  0  0  0  0
 17 15  1  0  0  0  0
 17 21  1  1  0  0  0
 17 13  1  0  0  0  0
 18 22  1  6  0  0  0
 18 17  1  0  0  0  0
 19 16  1  6  0  0  0
 19 18  1  0  0  0  0
 19 14  1  0  0  0  0
 21 20  1  0  0  0  0
 24 22  1  0  0  0  0
 24 23  1  0  0  0  0
 25 37  1  0  0  0  0
 26 36  1  6  0  0  0
 28 26  1  0  0  0  0
 29 30  2  0  0  0  0
 30 27  1  0  0  0  0
 31 38  2  0  0  0  0
 31 29  1  0  0  0  0
 32 26  1  0  0  0  0
 32 27  2  0  0  0  0
 33 35  1  1  0  0  0
 33 36  1  0  0  0  0
 34 29  1  0  0  0  0
 35 28  1  0  0  0  0
 37 38  1  0  0  0  0
 37 33  1  0  0  0  0
 38 32  1  0  0  0  0
M  END
>  <MODEL>
8

>  <REMARK>
 VINA RESULT:      -6.2      2.621      3.996
  Name = 
  9 active torsions:
  status: ('A' for Active; 'I' for Inactive)
    1  A    between atoms: C_7  and  C_19
    2  A    between atoms: C_11  and  C_32
    3  A    between atoms: N_16  and  C_35
    4  A    between atoms: C_17  and  C_28
    5  A    between atoms: C_17  and  C_37
    6  A    between atoms: C_19  and  N_30
    7  A    between atoms: C_24  and  C_34
    8  A    between atoms: C_24  and  C_38
    9  A    between atoms: C_34  and  C_35
                            x       y       z     vdW  Elec       q    Type
                         _______ _______ _______ _____ _____    ______ ____

>  <TORSDO>
F 9

$$$$
=
 OpenBabel11072412153D

 38 42  0  0  1  0  0  0  0  0999 V2000
  159.6690  212.0010  151.9590 C   0  0  1  0  0  3  0  0  0  0  0  0
  159.3850  214.3160  152.4310 F   0  0  0  0  0  0  0  0  0  0  0  0
  160.0690  211.2110  150.8720 O   0  0  0  0  0  0  0  0  0  0  0  0
  161.2070  213.2040  149.9890 C   0  0  0  0  0  2  0  0  0  0  0  0
  159.7850  213.7650  150.1480 C   0  0  0  0  0  2  0  0  0  0  0  0
  157.7390  213.2860  151.2660 O   0  0  0  0  0  1  0  0  0  0  0  0
  161.3090  211.7370  150.4650 C   0  0  2  0  0  3  0  0  0  0  0  0
  159.1190  213.3560  151.4710 C   0  0  1  0  0  0  0  0  0  0  0  0
  161.9130  210.8660  149.4170 C   0  0  0  0  0  0  0  0  0  0  0  0
  161.9090  209.4490  149.6010 N   0  0  0  0  0  2  0  0  0  0  0  0
  162.3730  211.3710  148.3560 O   0  0  0  0  0  0  0  0  0  0  0  0
  162.5070  208.5380  148.6360 C   0  0  0  0  0  2  0  0  0  0  0  0
  162.4280  207.1110  149.1540 C   0  0  0  0  0  2  0  0  0  0  0  0
  161.0830  206.1670  146.2540 C   0  0  0  0  0  2  0  0  0  0  0  0
  160.8030  206.9670  147.3820 O   0  0  0  0  0  0  0  0  0  0  0  0
  161.9510  203.9760  145.8550 O   0  0  0  0  0  1  0  0  0  0  0  0
  161.2920  206.2870  148.5260 C   0  0  1  0  0  0  0  0  0  0  0  0
  161.8300  204.9060  148.0990 C   0  0  2  0  0  3  0  0  0  0  0  0
  162.1050  205.1280  146.6330 C   0  0  2  0  0  3  0  0  0  0  0  0
  160.6600  206.2230  150.8650 O   0  0  0  0  0  1  0  0  0  0  0  0
  160.1560  206.2120  149.5590 C   0  0  0  0  0  2  0  0  0  0  0  0
  160.8330  203.7580  148.3280 C   0  0  0  0  0  2  0  0  0  0  0  0
  160.4550  202.8590  150.4980 O   0  0  0  0  0  1  0  0  0  0  0  0
  161.3410  202.8430  149.4250 C   0  0  0  0  0  2  0  0  0  0  0  0
  158.7140  211.2380  152.8720 C   0  0  0  0  0  2  0  0  0  0  0  0
  160.0740  211.7880  156.8530 C   0  0  1  0  0  3  0  0  0  0  0  0
  161.2790  209.5910  156.7600 N   0  0  0  0  0  0  0  0  0  0  0  0
  158.7290  211.6460  157.2550 O   0  0  0  0  0  0  0  0  0  0  0  0
  161.1530  208.1700  154.8350 C   0  0  0  0  0  0  0  0  0  0  0  0
  161.6190  208.4320  156.1290 C   0  0  0  0  0  3  0  0  0  0  0  0
  160.3390  209.1070  154.1930 C   0  0  0  0  0  3  0  0  0  0  0  0
  160.4930  210.5180  156.1510 C   0  0  0  0  0  0  0  0  0  0  0  0
  158.8590  212.5220  155.0390 C   0  0  1  0  0  3  0  0  0  0  0  0
  161.5030  206.9580  154.1800 N   0  0  0  0  0  1  0  0  0  0  0  0
  157.9380  212.1280  156.1830 C   0  0  0  0  0  2  0  0  0  0  0  0
  160.0820  212.9050  155.8250 C   0  0  0  0  0  2  0  0  0  0  0  0
  159.1720  211.3180  154.2530 N   0  0  0  0  0  0  0  0  0  0  0  0
  159.9970  210.2920  154.8550 C   0  0  0  0  0  0  0  0  0  0  0  0
  1 25  1  6  0  0  0
  3  1  1  0  0  0  0
  4  5  1  0  0  0  0
  4  7  1  0  0  0  0
  5  8  1  0  0  0  0
  7  9  1  6  0  0  0
  7  3  1  0  0  0  0
  8  6  1  6  0  0  0
  8  1  1  0  0  0  0
  8  2  1  0  0  0  0
  9 10  1  0  0  0  0
 11  9  2  0  0  0  0
 12 13  1  0  0  0  0
 12 10  1  0  0  0  0
 14 19  1  0  0  0  0
 14 15  1  0  0  0  0
 15 17  1  0  0  0  0
 17 13  1  1  0  0  0
 17 21  1  0  0  0  0
 18 22  1  6  0  0  0
 18 17  1  0  0  0  0
 19 16  1  6  0  0  0
 19 18  1  0  0  0  0
 21 20  1  0  0  0  0
 22 24  1  0  0  0  0
 24 23  1  0  0  0  0
 25 37  1  0  0  0  0
 26 36  1  6  0  0  0
 26 28  1  0  0  0  0
 29 30  1  0  0  0  0
 30 27  2  0  0  0  0
 31 29  2  0  0  0  0
 31 38  1  0  0  0  0
 32 27  1  0  0  0  0
 32 26  1  0  0  0  0
 33 36  1  1  0  0  0
 33 35  1  0  0  0  0
 34 29  1  0  0  0  0
 35 28  1  0  0  0  0
 37 38  1  0  0  0  0
 37 33  1  0  0  0  0
 38 32  2  0  0  0  0
M  END
>  <MODEL>
9

>  <REMARK>
 VINA RESULT:      -5.4      2.305      4.212
  Name = 
  9 active torsions:
  status: ('A' for Active; 'I' for Inactive)
    1  A    between atoms: C_7  and  C_19
    2  A    between atoms: C_11  and  C_32
    3  A    between atoms: N_16  and  C_35
    4  A    between atoms: C_17  and  C_28
    5  A    between atoms: C_17  and  C_37
    6  A    between atoms: C_19  and  N_30
    7  A    between atoms: C_24  and  C_34
    8  A    between atoms: C_24  and  C_38
    9  A    between atoms: C_34  and  C_35
                            x       y       z     vdW  Elec       q    Type
                         _______ _______ _______ _____ _____    ______ ____

>  <TORSDO>
F 9

$$$$
