=
 OpenBabel11072414373D

 26 29  0  0  1  0  0  0  0  0999 V2000
  161.5300  203.1790  149.8570 C   0  0  0  0  0  2  0  0  0  0  0  0
  160.4020  203.6490  152.0140 C   0  0  0  0  0  1  0  0  0  0  0  0
  161.0620  205.4920  149.1930 C   0  0  0  0  0  2  0  0  0  0  0  0
  161.8970  206.4670  152.6170 O   0  0  0  0  0  0  0  0  0  0  0  0
  161.5710  206.5820  151.4030 C   0  0  0  0  0  0  0  0  0  0  0  0
  161.3190  205.4140  150.6150 N   0  0  0  0  0  0  0  0  0  0  0  0
  161.5360  204.0620  151.0930 C   0  0  2  0  0  3  0  0  0  0  0  0
  161.0750  204.0550  148.6920 C   0  0  1  0  0  3  0  0  0  0  0  0
  161.0050  203.8010  145.1290 N   0  0  0  0  0  0  0  0  0  0  0  0
  160.9050  201.9500  146.5350 O   0  0  0  0  0  0  0  0  0  0  0  0
  161.4580  204.9910  144.8810 C   0  0  0  0  0  0  0  0  0  0  0  0
  161.2760  203.1410  146.3690 C   0  0  0  0  0  0  0  0  0  0  0  0
  162.5430  205.1580  147.0280 N   0  0  0  0  0  0  0  0  0  0  0  0
  161.1740  205.6100  143.6340 N   0  0  0  0  0  1  0  0  0  0  0  0
  162.2990  205.6880  145.8670 C   0  0  0  0  0  3  0  0  0  0  0  0
  161.9920  203.8700  147.4780 C   0  0  1  0  0  3  0  0  0  0  0  0
  161.4700  207.8430  150.8160 O   0  0  0  0  0  0  0  0  0  0  0  0
  161.8110  209.0320  151.5140 C   0  0  0  0  0  2  0  0  0  0  0  0
  160.5890  209.5770  152.2390 C   0  0  0  0  0  2  0  0  0  0  0  0
  160.1090  211.1410  154.1740 C   0  0  0  0  0  2  0  0  0  0  0  0
  160.7110  208.8890  154.5960 O   0  0  0  0  0  0  0  0  0  0  0  0
  160.8870  211.5610  155.2710 O   0  0  0  0  0  0  0  0  0  0  0  0
  162.1910  210.4080  153.8690 O   0  0  0  0  0  0  0  0  0  0  0  0
  161.4980  209.3150  155.6830 C   0  0  0  0  0  2  0  0  0  0  0  0
  160.8990  209.9540  153.6860 C   0  0  1  0  0  0  0  0  0  0  0  0
  161.9910  210.6730  155.2130 C   0  0  2  0  0  3  0  0  0  0  0  0
  1  7  1  0  0  0  0
  3  6  1  0  0  0  0
  5  4  2  0  0  0  0
  6  7  1  0  0  0  0
  6  5  1  0  0  0  0
  7  2  1  1  0  0  0
  8  3  1  1  0  0  0
  8  1  1  0  0  0  0
  9 12  1  0  0  0  0
 11  9  2  0  0  0  0
 11 15  1  0  0  0  0
 12 10  2  0  0  0  0
 13 16  1  0  0  0  0
 14 11  1  0  0  0  0
 15 13  2  0  0  0  0
 16 12  1  6  0  0  0
 16  8  1  0  0  0  0
 17  5  1  0  0  0  0
 17 18  1  0  0  0  0
 18 19  1  0  0  0  0
 20 22  1  0  0  0  0
 21 24  1  0  0  0  0
 23 26  1  0  0  0  0
 25 19  1  6  0  0  0
 25 23  1  0  0  0  0
 25 20  1  0  0  0  0
 25 21  1  0  0  0  0
 26 22  1  0  0  0  0
 26 24  1  1  0  0  0
M  END
>  <MODEL>
1

>  <REMARK>
 VINA RESULT:      -7.8      0.000      0.000
  Name = 
  5 active torsions:
  status: ('A' for Active; 'I' for Inactive)
    1  A    between atoms: C_12  and  C_14
    2  A    between atoms: C_12  and  C_18
    3  A    between atoms: C_14  and  O_24
    4  A    between atoms: C_17  and  O_24
    5  A    between atoms: C_23  and  C_26
                            x       y       z     vdW  Elec       q    Type
                         _______ _______ _______ _____ _____    ______ ____

>  <TORSDO>
F 5

$$$$
=
 OpenBabel11072414373D

 26 29  0  0  1  0  0  0  0  0999 V2000
  161.4470  203.3750  149.8440 C   0  0  0  0  0  2  0  0  0  0  0  0
  160.2770  203.9050  151.9650 C   0  0  0  0  0  1  0  0  0  0  0  0
  161.0420  205.6850  149.1310 C   0  0  0  0  0  2  0  0  0  0  0  0
  161.8140  206.7020  152.5580 O   0  0  0  0  0  0  0  0  0  0  0  0
  161.5190  206.8020  151.3350 C   0  0  0  0  0  0  0  0  0  0  0  0
  161.2630  205.6270  150.5590 N   0  0  0  0  0  0  0  0  0  0  0  0
  161.4410  204.2790  151.0660 C   0  0  2  0  0  3  0  0  0  0  0  0
  161.0380  204.2400  148.6540 C   0  0  1  0  0  3  0  0  0  0  0  0
  161.0400  203.8410  145.1040 N   0  0  0  0  0  0  0  0  0  0  0  0
  160.9320  202.0470  146.5830 O   0  0  0  0  0  0  0  0  0  0  0  0
  161.4850  205.0250  144.8170 C   0  0  0  0  0  0  0  0  0  0  0  0
  161.2940  203.2340  146.3750 C   0  0  0  0  0  0  0  0  0  0  0  0
  162.5270  205.2900  146.9750 N   0  0  0  0  0  0  0  0  0  0  0  0
  161.2190  205.5900  143.5400 N   0  0  0  0  0  1  0  0  0  0  0  0
  162.3000  205.7700  145.7890 C   0  0  0  0  0  3  0  0  0  0  0  0
  161.9800  204.0160  147.4670 C   0  0  1  0  0  3  0  0  0  0  0  0
  161.4580  208.0550  150.7240 O   0  0  0  0  0  0  0  0  0  0  0  0
  162.2420  209.1530  151.1690 C   0  0  0  0  0  2  0  0  0  0  0  0
  161.3650  210.3880  151.3230 C   0  0  0  0  0  2  0  0  0  0  0  0
  162.0890  210.3600  153.7510 C   0  0  0  0  0  2  0  0  0  0  0  0
  160.4900  211.9440  153.0120 O   0  0  0  0  0  0  0  0  0  0  0  0
  161.3750  210.1900  154.9530 O   0  0  0  0  0  0  0  0  0  0  0  0
  160.0030  209.7680  153.2400 O   0  0  0  0  0  0  0  0  0  0  0  0
  159.7720  211.7600  154.2100 C   0  0  0  0  0  2  0  0  0  0  0  0
  160.9720  210.6360  152.7780 C   0  0  1  0  0  0  0  0  0  0  0  0
  160.0290  210.2960  154.5200 C   0  0  2  0  0  3  0  0  0  0  0  0
  1  7  1  0  0  0  0
  3  6  1  0  0  0  0
  5  4  2  0  0  0  0
  6  7  1  0  0  0  0
  6  5  1  0  0  0  0
  7  2  1  1  0  0  0
  8  3  1  1  0  0  0
  8  1  1  0  0  0  0
  9 12  1  0  0  0  0
 11  9  2  0  0  0  0
 11 15  1  0  0  0  0
 12 10  2  0  0  0  0
 13 16  1  0  0  0  0
 14 11  1  0  0  0  0
 15 13  2  0  0  0  0
 16 12  1  6  0  0  0
 16  8  1  0  0  0  0
 17 18  1  0  0  0  0
 17  5  1  0  0  0  0
 18 19  1  0  0  0  0
 20 22  1  0  0  0  0
 21 24  1  0  0  0  0
 23 26  1  0  0  0  0
 25 19  1  6  0  0  0
 25 21  1  0  0  0  0
 25 23  1  0  0  0  0
 25 20  1  0  0  0  0
 26 24  1  6  0  0  0
 26 22  1  0  0  0  0
M  END
>  <MODEL>
2

>  <REMARK>
 VINA RESULT:      -7.5      0.823      1.305
  Name = 
  5 active torsions:
  status: ('A' for Active; 'I' for Inactive)
    1  A    between atoms: C_12  and  C_14
    2  A    between atoms: C_12  and  C_18
    3  A    between atoms: C_14  and  O_24
    4  A    between atoms: C_17  and  O_24
    5  A    between atoms: C_23  and  C_26
                            x       y       z     vdW  Elec       q    Type
                         _______ _______ _______ _____ _____    ______ ____

>  <TORSDO>
F 5

$$$$
=
 OpenBabel11072414373D

 26 29  0  0  1  0  0  0  0  0999 V2000
  161.6140  204.0830  151.0470 C   0  0  0  0  0  2  0  0  0  0  0  0
  160.7330  205.7650  152.6410 C   0  0  0  0  0  1  0  0  0  0  0  0
  160.9680  205.5850  149.2200 C   0  0  0  0  0  2  0  0  0  0  0  0
  162.1630  208.3500  151.2930 O   0  0  0  0  0  0  0  0  0  0  0  0
  161.6890  207.7440  150.2930 C   0  0  0  0  0  0  0  0  0  0  0  0
  161.3970  206.3450  150.3740 N   0  0  0  0  0  0  0  0  0  0  0  0
  161.7290  205.5220  151.5210 C   0  0  2  0  0  3  0  0  0  0  0  0
  160.9850  204.1270  149.6570 C   0  0  1  0  0  3  0  0  0  0  0  0
  160.5220  201.4890  147.2920 N   0  0  0  0  0  0  0  0  0  0  0  0
  161.0360  201.1110  149.5300 O   0  0  0  0  0  0  0  0  0  0  0  0
  160.6510  202.2150  146.2250 C   0  0  0  0  0  0  0  0  0  0  0  0
  161.0950  201.8870  148.5410 C   0  0  0  0  0  0  0  0  0  0  0  0
  161.9320  203.9010  147.3780 N   0  0  0  0  0  0  0  0  0  0  0  0
  160.0740  201.7810  145.0000 N   0  0  0  0  0  1  0  0  0  0  0  0
  161.4260  203.4640  146.2630 C   0  0  0  0  0  3  0  0  0  0  0  0
  161.7570  203.2350  148.6780 C   0  0  1  0  0  3  0  0  0  0  0  0
  161.4620  208.4250  149.0970 O   0  0  0  0  0  0  0  0  0  0  0  0
  162.2860  209.5010  148.6720 C   0  0  0  0  0  2  0  0  0  0  0  0
  161.8690  210.7840  149.3770 C   0  0  0  0  0  2  0  0  0  0  0  0
  161.1170  213.1780  149.0270 C   0  0  0  0  0  2  0  0  0  0  0  0
  163.0030  212.3480  147.8580 O   0  0  0  0  0  0  0  0  0  0  0  0
  160.7100  213.8880  147.8800 O   0  0  0  0  0  0  0  0  0  0  0  0
  160.9100  211.7250  147.3510 O   0  0  0  0  0  0  0  0  0  0  0  0
  162.5850  213.0480  146.7100 C   0  0  0  0  0  2  0  0  0  0  0  0
  161.7610  211.9620  148.4120 C   0  0  1  0  0  0  0  0  0  0  0  0
  161.0720  213.0010  146.8350 C   0  0  2  0  0  3  0  0  0  0  0  0
  1  7  1  0  0  0  0
  3  6  1  0  0  0  0
  5  6  1  0  0  0  0
  5  4  2  0  0  0  0
  6  7  1  0  0  0  0
  7  2  1  1  0  0  0
  8  3  1  6  0  0  0
  8  1  1  0  0  0  0
  9 12  1  0  0  0  0
 11 15  1  0  0  0  0
 11  9  2  0  0  0  0
 12 16  1  0  0  0  0
 12 10  2  0  0  0  0
 14 11  1  0  0  0  0
 15 13  2  0  0  0  0
 16 13  1  6  0  0  0
 16  8  1  0  0  0  0
 17  5  1  0  0  0  0
 18 17  1  0  0  0  0
 18 19  1  0  0  0  0
 21 25  1  0  0  0  0
 22 20  1  0  0  0  0
 23 25  1  0  0  0  0
 24 21  1  0  0  0  0
 25 20  1  0  0  0  0
 25 19  1  1  0  0  0
 26 24  1  1  0  0  0
 26 23  1  0  0  0  0
 26 22  1  0  0  0  0
M  END
>  <MODEL>
3

>  <REMARK>
 VINA RESULT:      -7.4      3.319      4.435
  Name = 
  5 active torsions:
  status: ('A' for Active; 'I' for Inactive)
    1  A    between atoms: C_12  and  C_14
    2  A    between atoms: C_12  and  C_18
    3  A    between atoms: C_14  and  O_24
    4  A    between atoms: C_17  and  O_24
    5  A    between atoms: C_23  and  C_26
                            x       y       z     vdW  Elec       q    Type
                         _______ _______ _______ _____ _____    ______ ____

>  <TORSDO>
F 5

$$$$
=
 OpenBabel11072414373D

 26 29  0  0  1  0  0  0  0  0999 V2000
  161.5820  203.5700  149.9070 C   0  0  0  0  0  2  0  0  0  0  0  0
  160.4360  204.2490  151.9990 C   0  0  0  0  0  1  0  0  0  0  0  0
  160.8960  205.7090  148.9260 C   0  0  0  0  0  2  0  0  0  0  0  0
  161.6710  207.2480  152.1510 O   0  0  0  0  0  0  0  0  0  0  0  0
  161.3230  207.1530  150.9420 C   0  0  0  0  0  0  0  0  0  0  0  0
  161.1730  205.8640  150.3370 N   0  0  0  0  0  0  0  0  0  0  0  0
  161.5180  204.6220  151.0020 C   0  0  2  0  0  3  0  0  0  0  0  0
  161.0370  204.2210  148.6390 C   0  0  1  0  0  3  0  0  0  0  0  0
  160.9800  203.7660  145.0950 N   0  0  0  0  0  0  0  0  0  0  0  0
  160.8230  202.0010  146.6040 O   0  0  0  0  0  0  0  0  0  0  0  0
  161.4670  204.9280  144.7840 C   0  0  0  0  0  0  0  0  0  0  0  0
  161.2270  203.1710  146.3730 C   0  0  0  0  0  0  0  0  0  0  0  0
  162.5440  205.1880  146.9250 N   0  0  0  0  0  0  0  0  0  0  0  0
  161.2070  205.4820  143.5010 N   0  0  0  0  0  1  0  0  0  0  0  0
  162.3210  205.6570  145.7340 C   0  0  0  0  0  3  0  0  0  0  0  0
  161.9550  203.9430  147.4440 C   0  0  1  0  0  3  0  0  0  0  0  0
  161.1010  208.3000  150.1790 O   0  0  0  0  0  0  0  0  0  0  0  0
  161.9820  209.4140  150.2140 C   0  0  0  0  0  2  0  0  0  0  0  0
  162.3300  209.8440  148.7960 C   0  0  0  0  0  2  0  0  0  0  0  0
  161.3590  211.9920  149.7250 C   0  0  0  0  0  2  0  0  0  0  0  0
  163.1510  212.0760  148.1780 O   0  0  0  0  0  0  0  0  0  0  0  0
  160.7650  213.1100  149.1070 O   0  0  0  0  0  0  0  0  0  0  0  0
  161.0680  211.5200  147.5670 O   0  0  0  0  0  0  0  0  0  0  0  0
  162.5470  213.1860  147.5560 C   0  0  0  0  0  2  0  0  0  0  0  0
  162.0180  211.3180  148.5490 C   0  0  1  0  0  0  0  0  0  0  0  0
  161.0680  212.8940  147.7390 C   0  0  2  0  0  3  0  0  0  0  0  0
  1  7  1  0  0  0  0
  3  6  1  0  0  0  0
  5  4  2  0  0  0  0
  6  5  1  0  0  0  0
  6  7  1  0  0  0  0
  7  2  1  1  0  0  0
  8  3  1  1  0  0  0
  8  1  1  0  0  0  0
  9 12  1  0  0  0  0
 11  9  2  0  0  0  0
 11 15  1  0  0  0  0
 12 10  2  0  0  0  0
 13 16  1  0  0  0  0
 14 11  1  0  0  0  0
 15 13  2  0  0  0  0
 16 12  1  6  0  0  0
 16  8  1  0  0  0  0
 17 18  1  0  0  0  0
 17  5  1  0  0  0  0
 19 18  1  0  0  0  0
 21 25  1  0  0  0  0
 22 20  1  0  0  0  0
 23 26  1  0  0  0  0
 23 25  1  0  0  0  0
 24 21  1  0  0  0  0
 25 19  1  1  0  0  0
 25 20  1  0  0  0  0
 26 24  1  1  0  0  0
 26 22  1  0  0  0  0
M  END
>  <MODEL>
4

>  <REMARK>
 VINA RESULT:      -7.4      2.677      3.699
  Name = 
  5 active torsions:
  status: ('A' for Active; 'I' for Inactive)
    1  A    between atoms: C_12  and  C_14
    2  A    between atoms: C_12  and  C_18
    3  A    between atoms: C_14  and  O_24
    4  A    between atoms: C_17  and  O_24
    5  A    between atoms: C_23  and  C_26
                            x       y       z     vdW  Elec       q    Type
                         _______ _______ _______ _____ _____    ______ ____

>  <TORSDO>
F 5

$$$$
=
 OpenBabel11072414373D

 26 29  0  0  1  0  0  0  0  0999 V2000
  161.2800  206.3040  153.7140 C   0  0  0  0  0  2  0  0  0  0  0  0
  160.0540  207.3680  155.5880 C   0  0  0  0  0  1  0  0  0  0  0  0
  160.8130  208.3020  152.3730 C   0  0  0  0  0  2  0  0  0  0  0  0
  161.4870  210.2730  155.3780 O   0  0  0  0  0  0  0  0  0  0  0  0
  161.2120  210.0130  154.1740 C   0  0  0  0  0  0  0  0  0  0  0  0
  161.0100  208.6580  153.7610 N   0  0  0  0  0  0  0  0  0  0  0  0
  161.2220  207.5150  154.6290 C   0  0  2  0  0  3  0  0  0  0  0  0
  160.8660  206.7820  152.3240 C   0  0  1  0  0  3  0  0  0  0  0  0
  160.9440  205.3490  149.0530 N   0  0  0  0  0  0  0  0  0  0  0  0
  160.9050  204.0710  150.9970 O   0  0  0  0  0  0  0  0  0  0  0  0
  161.3330  206.4160  148.4270 C   0  0  0  0  0  0  0  0  0  0  0  0
  161.2090  205.1610  150.4460 C   0  0  0  0  0  0  0  0  0  0  0  0
  162.3260  207.3650  150.4090 N   0  0  0  0  0  0  0  0  0  0  0  0
  161.0600  206.5620  147.0390 N   0  0  0  0  0  1  0  0  0  0  0  0
  162.0930  207.4580  149.1330 C   0  0  0  0  0  3  0  0  0  0  0  0
  161.8370  206.2670  151.2570 C   0  0  1  0  0  3  0  0  0  0  0  0
  161.1210  211.0390  153.2330 O   0  0  0  0  0  0  0  0  0  0  0  0
  160.1050  212.0300  153.2900 C   0  0  0  0  0  2  0  0  0  0  0  0
  158.7360  211.3780  153.1460 C   0  0  0  0  0  2  0  0  0  0  0  0
  158.2920  212.4300  155.4080 C   0  0  0  0  0  2  0  0  0  0  0  0
  157.0070  213.0820  153.5270 O   0  0  0  0  0  0  0  0  0  0  0  0
  157.1420  212.4840  156.2200 O   0  0  0  0  0  0  0  0  0  0  0  0
  156.7510  211.0880  154.5190 O   0  0  0  0  0  0  0  0  0  0  0  0
  155.8580  213.1220  154.3400 C   0  0  0  0  0  2  0  0  0  0  0  0
  157.7050  211.9900  154.0910 C   0  0  1  0  0  0  0  0  0  0  0  0
  156.1320  212.0140  155.3430 C   0  0  2  0  0  3  0  0  0  0  0  0
  1  7  1  0  0  0  0
  3  6  1  0  0  0  0
  5  4  2  0  0  0  0
  6  5  1  0  0  0  0
  6  7  1  0  0  0  0
  7  2  1  1  0  0  0
  8  3  1  1  0  0  0
  8  1  1  0  0  0  0
  9 12  1  0  0  0  0
 11  9  2  0  0  0  0
 11 15  1  0  0  0  0
 12 10  2  0  0  0  0
 12 16  1  0  0  0  0
 14 11  1  0  0  0  0
 15 13  2  0  0  0  0
 16 13  1  6  0  0  0
 16  8  1  0  0  0  0
 17 18  1  0  0  0  0
 17  5  1  0  0  0  0
 19 18  1  0  0  0  0
 20 22  1  0  0  0  0
 21 25  1  0  0  0  0
 21 24  1  0  0  0  0
 23 26  1  0  0  0  0
 25 19  1  6  0  0  0
 25 23  1  0  0  0  0
 25 20  1  0  0  0  0
 26 24  1  6  0  0  0
 26 22  1  0  0  0  0
M  END
>  <MODEL>
5

>  <REMARK>
 VINA RESULT:      -7.2      2.665      4.558
  Name = 
  5 active torsions:
  status: ('A' for Active; 'I' for Inactive)
    1  A    between atoms: C_12  and  C_14
    2  A    between atoms: C_12  and  C_18
    3  A    between atoms: C_14  and  O_24
    4  A    between atoms: C_17  and  O_24
    5  A    between atoms: C_23  and  C_26
                            x       y       z     vdW  Elec       q    Type
                         _______ _______ _______ _____ _____    ______ ____

>  <TORSDO>
F 5

$$$$
=
 OpenBabel11072414373D

 26 29  0  0  1  0  0  0  0  0999 V2000
  161.2240  204.2400  152.0490 C   0  0  0  0  0  2  0  0  0  0  0  0
  162.0980  201.9220  151.9380 C   0  0  0  0  0  1  0  0  0  0  0  0
  161.1870  204.2650  149.5990 C   0  0  0  0  0  2  0  0  0  0  0  0
  159.9690  200.8200  149.7480 O   0  0  0  0  0  0  0  0  0  0  0  0
  160.3250  201.9260  149.2550 C   0  0  0  0  0  0  0  0  0  0  0  0
  160.8780  202.9420  150.0970 N   0  0  0  0  0  0  0  0  0  0  0  0
  160.9500  202.8340  151.5420 C   0  0  2  0  0  3  0  0  0  0  0  0
  161.5290  205.0990  150.8250 C   0  0  1  0  0  3  0  0  0  0  0  0
  161.7610  208.4700  151.9840 N   0  0  0  0  0  0  0  0  0  0  0  0
  160.8180  206.7570  153.2450 O   0  0  0  0  0  0  0  0  0  0  0  0
  161.9760  209.0160  150.8260 C   0  0  0  0  0  0  0  0  0  0  0  0
  161.0980  207.2080  152.1040 C   0  0  0  0  0  0  0  0  0  0  0  0
  160.9400  207.1920  149.6370 N   0  0  0  0  0  0  0  0  0  0  0  0
  162.6310  210.2750  150.7490 N   0  0  0  0  0  1  0  0  0  0  0  0
  161.5090  208.3600  149.5960 C   0  0  0  0  0  3  0  0  0  0  0  0
  160.7450  206.4150  150.8710 C   0  0  1  0  0  3  0  0  0  0  0  0
  160.1670  202.1740  147.8910 O   0  0  0  0  0  0  0  0  0  0  0  0
  161.2000  201.9150  146.9510 C   0  0  0  0  0  2  0  0  0  0  0  0
  160.8290  202.5040  145.5970 C   0  0  0  0  0  2  0  0  0  0  0  0
  162.7850  204.1140  145.5590 C   0  0  0  0  0  2  0  0  0  0  0  0
  160.8610  204.5610  144.2530 O   0  0  0  0  0  0  0  0  0  0  0  0
  162.8950  205.4820  145.8770 O   0  0  0  0  0  0  0  0  0  0  0  0
  160.8670  204.7680  146.4850 O   0  0  0  0  0  0  0  0  0  0  0  0
  160.9670  205.9260  144.5840 C   0  0  0  0  0  2  0  0  0  0  0  0
  161.2910  203.9520  145.4540 C   0  0  1  0  0  0  0  0  0  0  0  0
  161.5380  205.8740  145.9900 C   0  0  2  0  0  3  0  0  0  0  0  0
  3  6  1  0  0  0  0
  5  4  2  0  0  0  0
  5  6  1  0  0  0  0
  6  7  1  0  0  0  0
  7  2  1  6  0  0  0
  7  1  1  0  0  0  0
  8  3  1  6  0  0  0
  8 16  1  0  0  0  0
  8  1  1  0  0  0  0
  9 12  1  0  0  0  0
 11  9  2  0  0  0  0
 12 10  2  0  0  0  0
 14 11  1  0  0  0  0
 15 13  2  0  0  0  0
 15 11  1  0  0  0  0
 16 13  1  6  0  0  0
 16 12  1  0  0  0  0
 17  5  1  0  0  0  0
 18 17  1  0  0  0  0
 19 18  1  0  0  0  0
 20 22  1  0  0  0  0
 21 24  1  0  0  0  0
 21 25  1  0  0  0  0
 22 26  1  0  0  0  0
 25 20  1  0  0  0  0
 25 19  1  1  0  0  0
 25 23  1  0  0  0  0
 26 24  1  6  0  0  0
 26 23  1  0  0  0  0
M  END
>  <MODEL>
6

>  <REMARK>
 VINA RESULT:      -7.1      2.977      7.588
  Name = 
  5 active torsions:
  status: ('A' for Active; 'I' for Inactive)
    1  A    between atoms: C_12  and  C_14
    2  A    between atoms: C_12  and  C_18
    3  A    between atoms: C_14  and  O_24
    4  A    between atoms: C_17  and  O_24
    5  A    between atoms: C_23  and  C_26
                            x       y       z     vdW  Elec       q    Type
                         _______ _______ _______ _____ _____    ______ ____

>  <TORSDO>
F 5

$$$$
=
 OpenBabel11072414373D

 26 29  0  0  1  0  0  0  0  0999 V2000
  160.8010  208.5570  154.3100 C   0  0  0  0  0  2  0  0  0  0  0  0
  161.5680  206.3030  153.6200 C   0  0  0  0  0  1  0  0  0  0  0  0
  161.9230  209.4640  152.3280 C   0  0  0  0  0  2  0  0  0  0  0  0
  160.6950  206.5440  150.5020 O   0  0  0  0  0  0  0  0  0  0  0  0
  161.2680  207.6480  150.7140 C   0  0  0  0  0  0  0  0  0  0  0  0
  161.3840  208.1510  152.0490 N   0  0  0  0  0  0  0  0  0  0  0  0
  160.7640  207.5210  153.2000 C   0  0  2  0  0  3  0  0  0  0  0  0
  161.6670  209.7100  153.8080 C   0  0  1  0  0  3  0  0  0  0  0  0
  158.5270  211.1410  154.7350 N   0  0  0  0  0  0  0  0  0  0  0  0
  159.1650  210.8060  152.5220 O   0  0  0  0  0  0  0  0  0  0  0  0
  158.8490  211.4390  155.9560 C   0  0  0  0  0  0  0  0  0  0  0  0
  159.5200  210.9960  153.7140 C   0  0  0  0  0  0  0  0  0  0  0  0
  161.2050  211.5090  155.4480 N   0  0  0  0  0  0  0  0  0  0  0  0
  157.8330  211.5840  156.9390 N   0  0  0  0  0  1  0  0  0  0  0  0
  160.2550  211.6700  156.3200 C   0  0  0  0  0  3  0  0  0  0  0  0
  160.9850  211.0580  154.0650 C   0  0  1  0  0  3  0  0  0  0  0  0
  161.7770  208.3950  149.6520 O   0  0  0  0  0  0  0  0  0  0  0  0
  161.5090  208.0630  148.2970 C   0  0  0  0  0  2  0  0  0  0  0  0
  162.4470  206.9560  147.8380 C   0  0  0  0  0  2  0  0  0  0  0  0
  161.6430  204.6290  147.2380 C   0  0  0  0  0  2  0  0  0  0  0  0
  160.5500  206.5280  146.3370 O   0  0  0  0  0  0  0  0  0  0  0  0
  161.5090  203.9590  146.0060 O   0  0  0  0  0  0  0  0  0  0  0  0
  162.5880  205.8860  145.6590 O   0  0  0  0  0  0  0  0  0  0  0  0
  160.4300  205.8590  145.1030 C   0  0  0  0  0  2  0  0  0  0  0  0
  161.8050  206.0570  146.7840 C   0  0  1  0  0  0  0  0  0  0  0  0
  161.6890  205.0100  145.0720 C   0  0  2  0  0  3  0  0  0  0  0  0
  4  5  2  0  0  0  0
  5  6  1  0  0  0  0
  6  3  1  0  0  0  0
  6  7  1  0  0  0  0
  7  2  1  1  0  0  0
  7  1  1  0  0  0  0
  8  3  1  6  0  0  0
  8 16  1  0  0  0  0
  8  1  1  0  0  0  0
  9 11  2  0  0  0  0
 10 12  2  0  0  0  0
 11 15  1  0  0  0  0
 11 14  1  0  0  0  0
 12  9  1  0  0  0  0
 13 15  2  0  0  0  0
 16 12  1  1  0  0  0
 16 13  1  0  0  0  0
 17  5  1  0  0  0  0
 18 17  1  0  0  0  0
 19 18  1  0  0  0  0
 21 25  1  0  0  0  0
 22 20  1  0  0  0  0
 23 25  1  0  0  0  0
 24 21  1  0  0  0  0
 25 20  1  0  0  0  0
 25 19  1  1  0  0  0
 26 24  1  1  0  0  0
 26 23  1  0  0  0  0
 26 22  1  0  0  0  0
M  END
>  <MODEL>
7

>  <REMARK>
 VINA RESULT:      -7.0      3.513      8.957
  Name = 
  5 active torsions:
  status: ('A' for Active; 'I' for Inactive)
    1  A    between atoms: C_12  and  C_14
    2  A    between atoms: C_12  and  C_18
    3  A    between atoms: C_14  and  O_24
    4  A    between atoms: C_17  and  O_24
    5  A    between atoms: C_23  and  C_26
                            x       y       z     vdW  Elec       q    Type
                         _______ _______ _______ _____ _____    ______ ____

>  <TORSDO>
F 5

$$$$
=
 OpenBabel11072414373D

 26 29  0  0  1  0  0  0  0  0999 V2000
  160.8710  205.8010  153.7710 C   0  0  0  0  0  2  0  0  0  0  0  0
  161.6130  204.0080  152.2270 C   0  0  0  0  0  1  0  0  0  0  0  0
  161.6850  207.4400  152.1400 C   0  0  0  0  0  2  0  0  0  0  0  0
  160.3200  205.2730  149.5300 O   0  0  0  0  0  0  0  0  0  0  0  0
  160.8790  206.2710  150.0630 C   0  0  0  0  0  0  0  0  0  0  0  0
  161.1570  206.2740  151.4670 N   0  0  0  0  0  0  0  0  0  0  0  0
  160.7200  205.2280  152.3720 C   0  0  2  0  0  3  0  0  0  0  0  0
  161.6230  207.1220  153.6270 C   0  0  1  0  0  3  0  0  0  0  0  0
  161.9450  209.0190  156.6370 N   0  0  0  0  0  0  0  0  0  0  0  0
  160.7200  207.0450  156.5070 O   0  0  0  0  0  0  0  0  0  0  0  0
  162.3510  210.1200  156.0820 C   0  0  0  0  0  0  0  0  0  0  0  0
  161.1810  208.0530  155.9100 C   0  0  0  0  0  0  0  0  0  0  0  0
  161.3510  209.5620  153.9600 N   0  0  0  0  0  0  0  0  0  0  0  0
  163.1010  211.0600  156.8400 N   0  0  0  0  0  1  0  0  0  0  0  0
  162.0040  210.4200  154.6850 C   0  0  0  0  0  3  0  0  0  0  0  0
  160.9380  208.2310  154.4320 C   0  0  1  0  0  3  0  0  0  0  0  0
  161.2150  207.3860  149.2940 O   0  0  0  0  0  0  0  0  0  0  0  0
  161.8740  207.2690  148.0410 C   0  0  0  0  0  2  0  0  0  0  0  0
  160.8700  206.9000  146.9580 C   0  0  0  0  0  2  0  0  0  0  0  0
  160.5430  205.5390  144.8460 C   0  0  0  0  0  2  0  0  0  0  0  0
  162.7130  205.8030  145.7590 O   0  0  0  0  0  0  0  0  0  0  0  0
  160.8340  204.1990  144.5260 O   0  0  0  0  0  0  0  0  0  0  0  0
  161.1620  204.4990  146.7170 O   0  0  0  0  0  0  0  0  0  0  0  0
  162.9940  204.4580  145.4500 C   0  0  0  0  0  2  0  0  0  0  0  0
  161.3460  205.7250  146.1080 C   0  0  1  0  0  0  0  0  0  0  0  0
  161.6380  203.7960  145.6220 C   0  0  2  0  0  3  0  0  0  0  0  0
  4  5  2  0  0  0  0
  5  6  1  0  0  0  0
  6  3  1  0  0  0  0
  6  7  1  0  0  0  0
  7  2  1  1  0  0  0
  7  1  1  0  0  0  0
  8  3  1  6  0  0  0
  8  1  1  0  0  0  0
  8 16  1  0  0  0  0
 11  9  2  0  0  0  0
 11 14  1  0  0  0  0
 12 10  2  0  0  0  0
 12  9  1  0  0  0  0
 13 15  2  0  0  0  0
 15 11  1  0  0  0  0
 16 13  1  6  0  0  0
 16 12  1  0  0  0  0
 17  5  1  0  0  0  0
 18 17  1  0  0  0  0
 19 18  1  0  0  0  0
 20 25  1  0  0  0  0
 21 25  1  0  0  0  0
 22 20  1  0  0  0  0
 22 26  1  0  0  0  0
 24 21  1  0  0  0  0
 25 23  1  0  0  0  0
 25 19  1  1  0  0  0
 26 24  1  6  0  0  0
 26 23  1  0  0  0  0
M  END
>  <MODEL>
8

>  <REMARK>
 VINA RESULT:      -6.7      3.084      8.675
  Name = 
  5 active torsions:
  status: ('A' for Active; 'I' for Inactive)
    1  A    between atoms: C_12  and  C_14
    2  A    between atoms: C_12  and  C_18
    3  A    between atoms: C_14  and  O_24
    4  A    between atoms: C_17  and  O_24
    5  A    between atoms: C_23  and  C_26
                            x       y       z     vdW  Elec       q    Type
                         _______ _______ _______ _____ _____    ______ ____

>  <TORSDO>
F 5

$$$$
=
 OpenBabel11072414373D

 26 29  0  0  1  0  0  0  0  0999 V2000
  161.9520  210.4290  151.4870 C   0  0  0  0  0  2  0  0  0  0  0  0
  161.6020  210.4650  149.0320 C   0  0  0  0  0  1  0  0  0  0  0  0
  160.9720  208.1830  151.5190 C   0  0  0  0  0  2  0  0  0  0  0  0
  162.8180  207.5140  148.4340 O   0  0  0  0  0  0  0  0  0  0  0  0
  162.0730  207.3090  149.4320 C   0  0  0  0  0  0  0  0  0  0  0  0
  161.7210  208.3920  150.2990 N   0  0  0  0  0  0  0  0  0  0  0  0
  162.2730  209.7280  150.1780 C   0  0  2  0  0  3  0  0  0  0  0  0
  161.0030  209.5140  152.2560 C   0  0  1  0  0  3  0  0  0  0  0  0
  159.7180  209.0380  155.5550 N   0  0  0  0  0  0  0  0  0  0  0  0
  160.1350  211.1390  154.6460 O   0  0  0  0  0  0  0  0  0  0  0  0
  160.0400  207.7860  155.6660 C   0  0  0  0  0  0  0  0  0  0  0  0
  160.4080  209.9110  154.6560 C   0  0  0  0  0  0  0  0  0  0  0  0
  161.7940  207.9650  154.0210 N   0  0  0  0  0  0  0  0  0  0  0  0
  159.3370  206.9530  156.5780 N   0  0  0  0  0  1  0  0  0  0  0  0
  161.1580  207.2330  154.8860 C   0  0  0  0  0  3  0  0  0  0  0  0
  161.4500  209.3620  153.7130 C   0  0  1  0  0  3  0  0  0  0  0  0
  161.6020  206.0250  149.7090 O   0  0  0  0  0  0  0  0  0  0  0  0
  160.6390  205.3800  148.8880 C   0  0  0  0  0  2  0  0  0  0  0  0
  161.3050  204.2780  148.0750 C   0  0  0  0  0  2  0  0  0  0  0  0
  162.8980  205.0740  146.2720 C   0  0  0  0  0  2  0  0  0  0  0  0
  161.0780  203.6670  145.7050 O   0  0  0  0  0  0  0  0  0  0  0  0
  162.7000  205.8150  145.0910 O   0  0  0  0  0  0  0  0  0  0  0  0
  160.7980  205.8200  146.2640 O   0  0  0  0  0  0  0  0  0  0  0  0
  160.8760  204.4190  144.5330 C   0  0  0  0  0  2  0  0  0  0  0  0
  161.4850  204.6730  146.6110 C   0  0  1  0  0  0  0  0  0  0  0  0
  161.2880  205.8150  144.9680 C   0  0  2  0  0  3  0  0  0  0  0  0
  3  8  1  0  0  0  0
  4  5  2  0  0  0  0
  5 17  1  0  0  0  0
  5  6  1  0  0  0  0
  6  3  1  0  0  0  0
  7  2  1  6  0  0  0
  7  6  1  0  0  0  0
  7  1  1  0  0  0  0
  8  1  1  6  0  0  0
  8 16  1  0  0  0  0
  9 11  2  0  0  0  0
 10 12  2  0  0  0  0
 11 14  1  0  0  0  0
 12  9  1  0  0  0  0
 13 15  2  0  0  0  0
 15 11  1  0  0  0  0
 16 13  1  1  0  0  0
 16 12  1  0  0  0  0
 18 17  1  0  0  0  0
 19 18  1  0  0  0  0
 20 25  1  0  0  0  0
 21 25  1  0  0  0  0
 22 20  1  0  0  0  0
 23 25  1  0  0  0  0
 24 21  1  0  0  0  0
 25 19  1  1  0  0  0
 26 24  1  1  0  0  0
 26 22  1  0  0  0  0
 26 23  1  0  0  0  0
M  END
>  <MODEL>
9

>  <REMARK>
 VINA RESULT:      -6.6      2.802      8.794
  Name = 
  5 active torsions:
  status: ('A' for Active; 'I' for Inactive)
    1  A    between atoms: C_12  and  C_14
    2  A    between atoms: C_12  and  C_18
    3  A    between atoms: C_14  and  O_24
    4  A    between atoms: C_17  and  O_24
    5  A    between atoms: C_23  and  C_26
                            x       y       z     vdW  Elec       q    Type
                         _______ _______ _______ _____ _____    ______ ____

>  <TORSDO>
F 5

$$$$
