=
 OpenBabel11072414233D

 26 27  0  0  0  0  0  0  0  0999 V2000
  161.0120  205.8940  152.4360 O   0  0  0  0  0  0  0  0  0  0  0  0
  161.4310  205.7120  148.8130 C   0  0  0  0  0  0  0  0  0  0  0  0
  160.9500  203.9600  151.0950 C   0  0  0  0  0  0  0  0  0  0  0  0
  162.0480  208.4130  149.1590 C   0  0  0  0  0  3  0  0  0  0  0  0
  161.8160  207.9130  147.9240 N   0  0  0  0  0  0  0  0  0  0  0  0
  161.6260  203.6520  147.5460 N   0  0  0  0  0  2  0  0  0  0  0  0
  161.0330  203.4070  149.7890 N   0  0  0  0  0  2  0  0  0  0  0  0
  160.6390  203.2030  152.0930 N   0  0  0  0  0  2  0  0  0  0  0  0
  161.1890  205.3950  151.2940 C   0  0  0  0  0  0  0  0  0  0  0  0
  161.2950  204.2300  148.6510 C   0  0  0  0  0  0  0  0  0  0  0  0
  161.9380  207.6020  150.2820 C   0  0  0  0  0  0  0  0  0  0  0  0
  161.5020  206.6070  147.7100 C   0  0  0  0  0  0  0  0  0  0  0  0
  161.5510  206.2470  150.1250 C   0  0  0  0  0  0  0  0  0  0  0  0
  162.1470  205.8520  145.4260 O   0  0  0  0  0  0  0  0  0  0  0  0
  159.9490  206.1370  145.9870 O   0  0  0  0  0  1  0  0  0  0  0  0
  161.1570  206.2210  146.3290 C   0  0  0  0  0  0  0  0  0  0  0  0
  162.2550  208.1770  151.5500 N   0  0  0  0  0  2  0  0  0  0  0  0
  161.8290  209.5220  151.9070 C   0  0  0  0  0  2  0  0  0  0  0  0
  160.4410  209.4880  152.5320 C   0  0  0  0  0  2  0  0  0  0  0  0
  159.4440  210.8820  154.3100 C   0  0  0  0  0  3  0  0  0  0  0  0
  160.4780  209.9940  153.9010 N   0  0  0  0  0  0  0  0  0  0  0  0
  159.3450  211.2500  155.5100 O   0  0  0  0  0  0  0  0  0  0  0  0
  160.1110  207.4230  155.5450 C   0  0  0  0  0  1  0  0  0  0  0  0
  161.2410  208.3750  155.6980 C   0  0  0  0  0  0  0  0  0  0  0  0
  162.0960  208.1490  156.5870 O   0  0  0  0  0  0  0  0  0  0  0  0
  161.4030  209.5270  154.8560 N   0  0  0  0  0  2  0  0  0  0  0  0
  2 13  1  0  0  0  0
  3  9  1  0  0  0  0
  3  8  2  0  0  0  0
  4 11  1  0  0  0  0
  5  4  2  0  0  0  0
  6 10  2  0  0  0  0
  7  3  1  0  0  0  0
  9  1  2  0  0  0  0
 10  2  1  0  0  0  0
 10  7  1  0  0  0  0
 11 17  1  0  0  0  0
 12  5  1  0  0  0  0
 12  2  2  0  0  0  0
 13 11  2  0  0  0  0
 13  9  1  0  0  0  0
 14 16  2  0  0  0  0
 15 16  1  0  0  0  0
 16 12  1  0  0  0  0
 17 18  1  0  0  0  0
 18 19  1  0  0  0  0
 19 21  1  0  0  0  0
 20 22  2  0  0  0  0
 21 20  1  0  0  0  0
 21 26  1  0  0  0  0
 23 24  1  0  0  0  0
 24 25  2  0  0  0  0
 26 24  1  0  0  0  0
M  END
>  <MODEL>
1

>  <REMARK>
 VINA RESULT:      -7.7      0.000      0.000
  Name = 
  6 active torsions:
  status: ('A' for Active; 'I' for Inactive)
    1  A    between atoms: N_13  and  N_22
    2  A    between atoms: C_18  and  N_22
    3  A    between atoms: C_18  and  C_24
    4  A    between atoms: C_19  and  N_26
    5  A    between atoms: CA_20  and  C_21
    6  A    between atoms: C_24  and  N_26
                            x       y       z     vdW  Elec       q    Type
                         _______ _______ _______ _____ _____    ______ ____

>  <TORSDO>
F 6

$$$$
=
 OpenBabel11072414233D

 26 27  0  0  0  0  0  0  0  0999 V2000
  160.4040  203.6180  151.5880 O   0  0  0  0  0  0  0  0  0  0  0  0
  161.2240  204.7960  148.2310 C   0  0  0  0  0  0  0  0  0  0  0  0
  160.7830  202.3000  149.6740 C   0  0  0  0  0  0  0  0  0  0  0  0
  161.3760  207.2420  149.5690 C   0  0  0  0  0  3  0  0  0  0  0  0
  161.3550  207.1970  148.2180 N   0  0  0  0  0  0  0  0  0  0  0  0
  161.8670  203.3630  146.3820 N   0  0  0  0  0  2  0  0  0  0  0  0
  161.0880  202.2660  148.2870 N   0  0  0  0  0  2  0  0  0  0  0  0
  160.4900  201.2060  150.2920 N   0  0  0  0  0  2  0  0  0  0  0  0
  160.7750  203.5840  150.3850 C   0  0  0  0  0  0  0  0  0  0  0  0
  161.3360  203.4660  147.5530 C   0  0  0  0  0  0  0  0  0  0  0  0
  161.2750  206.0740  150.3160 C   0  0  0  0  0  0  0  0  0  0  0  0
  161.2710  206.0300  147.5250 C   0  0  0  0  0  0  0  0  0  0  0  0
  161.1210  204.8340  149.6480 C   0  0  0  0  0  0  0  0  0  0  0  0
  162.2520  206.0360  145.2360 O   0  0  0  0  0  0  0  0  0  0  0  0
  159.9930  206.2160  145.5410 O   0  0  0  0  0  1  0  0  0  0  0  0
  161.1370  206.1320  146.0590 C   0  0  0  0  0  0  0  0  0  0  0  0
  161.3650  206.1860  151.7370 N   0  0  0  0  0  2  0  0  0  0  0  0
  161.1610  207.4560  152.4180 C   0  0  0  0  0  2  0  0  0  0  0  0
  160.7970  207.2190  153.8780 C   0  0  0  0  0  2  0  0  0  0  0  0
  161.5910  208.1080  156.0410 C   0  0  0  0  0  3  0  0  0  0  0  0
  161.1870  208.3610  154.7000 N   0  0  0  0  0  0  0  0  0  0  0  0
  162.0620  209.0290  156.7580 O   0  0  0  0  0  0  0  0  0  0  0  0
  159.1090  210.5900  155.0960 C   0  0  0  0  0  1  0  0  0  0  0  0
  160.3380  210.7110  154.2720 C   0  0  0  0  0  0  0  0  0  0  0  0
  160.5370  211.7840  153.6520 O   0  0  0  0  0  0  0  0  0  0  0  0
  161.3140  209.6630  154.1760 N   0  0  0  0  0  2  0  0  0  0  0  0
  2 13  1  0  0  0  0
  3  8  2  0  0  0  0
  3  9  1  0  0  0  0
  4 11  1  0  0  0  0
  5  4  2  0  0  0  0
  6 10  2  0  0  0  0
  7  3  1  0  0  0  0
  9  1  2  0  0  0  0
 10  2  1  0  0  0  0
 10  7  1  0  0  0  0
 11 17  1  0  0  0  0
 12  5  1  0  0  0  0
 12  2  2  0  0  0  0
 13 11  2  0  0  0  0
 13  9  1  0  0  0  0
 14 16  2  0  0  0  0
 15 16  1  0  0  0  0
 16 12  1  0  0  0  0
 17 18  1  0  0  0  0
 18 19  1  0  0  0  0
 19 21  1  0  0  0  0
 20 22  2  0  0  0  0
 21 20  1  0  0  0  0
 24 23  1  0  0  0  0
 25 24  2  0  0  0  0
 26 24  1  0  0  0  0
 26 21  1  0  0  0  0
M  END
>  <MODEL>
2

>  <REMARK>
 VINA RESULT:      -7.6      1.425      2.267
  Name = 
  6 active torsions:
  status: ('A' for Active; 'I' for Inactive)
    1  A    between atoms: N_13  and  N_22
    2  A    between atoms: C_18  and  N_22
    3  A    between atoms: C_18  and  C_24
    4  A    between atoms: C_19  and  N_26
    5  A    between atoms: CA_20  and  C_21
    6  A    between atoms: C_24  and  N_26
                            x       y       z     vdW  Elec       q    Type
                         _______ _______ _______ _____ _____    ______ ____

>  <TORSDO>
F 6

$$$$
=
 OpenBabel11072414233D

 26 27  0  0  0  0  0  0  0  0999 V2000
  161.0040  205.9550  152.3140 O   0  0  0  0  0  0  0  0  0  0  0  0
  161.4440  205.6670  148.7010 C   0  0  0  0  0  0  0  0  0  0  0  0
  160.9340  203.9840  151.0280 C   0  0  0  0  0  0  0  0  0  0  0  0
  162.0820  208.3720  148.9750 C   0  0  0  0  0  3  0  0  0  0  0  0
  161.8530  207.8400  147.7530 N   0  0  0  0  0  0  0  0  0  0  0  0
  161.6300  203.5720  147.4930 N   0  0  0  0  0  2  0  0  0  0  0  0
  161.0210  203.3950  149.7380 N   0  0  0  0  0  2  0  0  0  0  0  0
  160.6110  203.2580  152.0440 N   0  0  0  0  0  2  0  0  0  0  0  0
  161.1840  205.4220  151.1880 C   0  0  0  0  0  0  0  0  0  0  0  0
  161.2960  204.1830  148.5790 C   0  0  0  0  0  0  0  0  0  0  0  0
  161.9570  207.5930  150.1190 C   0  0  0  0  0  0  0  0  0  0  0  0
  161.5290  206.5310  147.5740 C   0  0  0  0  0  0  0  0  0  0  0  0
  161.5600  206.2390  149.9980 C   0  0  0  0  0  0  0  0  0  0  0  0
  159.8680  206.0920  145.7710 O   0  0  0  0  0  1  0  0  0  0  0  0
  162.1090  205.8500  145.3820 O   0  0  0  0  0  0  0  0  0  0  0  0
  161.1900  206.1100  146.2010 C   0  0  0  0  0  0  0  0  0  0  0  0
  162.2720  208.2020  151.3730 N   0  0  0  0  0  2  0  0  0  0  0  0
  161.8420  209.5540  151.6960 C   0  0  0  0  0  2  0  0  0  0  0  0
  160.5460  209.5180  152.4950 C   0  0  0  0  0  2  0  0  0  0  0  0
  161.1160  208.5450  154.6920 C   0  0  0  0  0  3  0  0  0  0  0  0
  160.8120  209.7000  153.9190 N   0  0  0  0  0  0  0  0  0  0  0  0
  161.4810  208.6480  155.8920 O   0  0  0  0  0  0  0  0  0  0  0  0
  158.5140  211.1150  155.3900 C   0  0  0  0  0  1  0  0  0  0  0  0
  159.8550  211.7040  155.1440 C   0  0  0  0  0  0  0  0  0  0  0  0
  160.0690  212.8810  155.5230 O   0  0  0  0  0  0  0  0  0  0  0  0
  160.9180  210.9740  154.5130 N   0  0  0  0  0  2  0  0  0  0  0  0
  2 13  1  0  0  0  0
  3  9  1  0  0  0  0
  3  8  2  0  0  0  0
  4 11  1  0  0  0  0
  5  4  2  0  0  0  0
  6 10  2  0  0  0  0
  7  3  1  0  0  0  0
  9  1  2  0  0  0  0
 10  2  1  0  0  0  0
 10  7  1  0  0  0  0
 11 17  1  0  0  0  0
 12  5  1  0  0  0  0
 12  2  2  0  0  0  0
 13 11  2  0  0  0  0
 13  9  1  0  0  0  0
 14 16  1  0  0  0  0
 15 16  2  0  0  0  0
 16 12  1  0  0  0  0
 17 18  1  0  0  0  0
 18 19  1  0  0  0  0
 19 21  1  0  0  0  0
 20 22  2  0  0  0  0
 21 26  1  0  0  0  0
 21 20  1  0  0  0  0
 24 23  1  0  0  0  0
 24 25  2  0  0  0  0
 26 24  1  0  0  0  0
M  END
>  <MODEL>
3

>  <REMARK>
 VINA RESULT:      -7.5      0.672      1.866
  Name = 
  6 active torsions:
  status: ('A' for Active; 'I' for Inactive)
    1  A    between atoms: N_13  and  N_22
    2  A    between atoms: C_18  and  N_22
    3  A    between atoms: C_18  and  C_24
    4  A    between atoms: C_19  and  N_26
    5  A    between atoms: CA_20  and  C_21
    6  A    between atoms: C_24  and  N_26
                            x       y       z     vdW  Elec       q    Type
                         _______ _______ _______ _____ _____    ______ ____

>  <TORSDO>
F 6

$$$$
=
 OpenBabel11072414233D

 26 27  0  0  0  0  0  0  0  0999 V2000
  160.5820  203.5510  151.3570 O   0  0  0  0  0  0  0  0  0  0  0  0
  161.2680  204.6340  147.9380 C   0  0  0  0  0  0  0  0  0  0  0  0
  160.7540  202.1890  149.4440 C   0  0  0  0  0  0  0  0  0  0  0  0
  161.6650  207.0790  149.2270 C   0  0  0  0  0  3  0  0  0  0  0  0
  161.5570  207.0210  147.8810 N   0  0  0  0  0  0  0  0  0  0  0  0
  161.7000  203.1410  146.0750 N   0  0  0  0  0  2  0  0  0  0  0  0
  160.9690  202.1200  148.0410 N   0  0  0  0  0  2  0  0  0  0  0  0
  160.4280  201.1250  150.0960 N   0  0  0  0  0  2  0  0  0  0  0  0
  160.8750  203.4790  150.1350 C   0  0  0  0  0  0  0  0  0  0  0  0
  161.2500  203.2920  147.2750 C   0  0  0  0  0  0  0  0  0  0  0  0
  161.5330  205.9290  149.9970 C   0  0  0  0  0  0  0  0  0  0  0  0
  161.3530  205.8540  147.2120 C   0  0  0  0  0  0  0  0  0  0  0  0
  161.2570  204.6940  149.3590 C   0  0  0  0  0  0  0  0  0  0  0  0
  159.8580  206.1270  145.2390 O   0  0  0  0  0  1  0  0  0  0  0  0
  162.1230  205.9590  144.9760 O   0  0  0  0  0  0  0  0  0  0  0  0
  161.1350  205.9480  145.7560 C   0  0  0  0  0  0  0  0  0  0  0  0
  161.7180  206.0510  151.4080 N   0  0  0  0  0  2  0  0  0  0  0  0
  160.8160  206.8400  152.2320 C   0  0  0  0  0  2  0  0  0  0  0  0
  161.5730  207.9780  152.9040 C   0  0  0  0  0  2  0  0  0  0  0  0
  162.2310  209.6770  151.2370 C   0  0  0  0  0  3  0  0  0  0  0  0
  161.3080  209.2450  152.2290 N   0  0  0  0  0  0  0  0  0  0  0  0
  161.9930  210.6910  150.5300 O   0  0  0  0  0  0  0  0  0  0  0  0
  160.8700  211.2830  154.4880 C   0  0  0  0  0  1  0  0  0  0  0  0
  159.8380  210.8730  153.5020 C   0  0  0  0  0  0  0  0  0  0  0  0
  158.6840  211.3550  153.6100 O   0  0  0  0  0  0  0  0  0  0  0  0
  160.1130  209.9690  152.4210 N   0  0  0  0  0  2  0  0  0  0  0  0
  2 13  1  0  0  0  0
  3  8  2  0  0  0  0
  3  9  1  0  0  0  0
  4 11  1  0  0  0  0
  5  4  2  0  0  0  0
  6 10  2  0  0  0  0
  7  3  1  0  0  0  0
  9  1  2  0  0  0  0
 10  2  1  0  0  0  0
 10  7  1  0  0  0  0
 11 17  1  0  0  0  0
 12  5  1  0  0  0  0
 12  2  2  0  0  0  0
 13 11  2  0  0  0  0
 13  9  1  0  0  0  0
 14 16  1  0  0  0  0
 15 16  2  0  0  0  0
 16 12  1  0  0  0  0
 17 18  1  0  0  0  0
 18 19  1  0  0  0  0
 20 21  1  0  0  0  0
 21 26  1  0  0  0  0
 21 19  1  0  0  0  0
 22 20  2  0  0  0  0
 24 25  2  0  0  0  0
 24 23  1  0  0  0  0
 26 24  1  0  0  0  0
M  END
>  <MODEL>
4

>  <REMARK>
 VINA RESULT:      -7.4      1.989      2.768
  Name = 
  6 active torsions:
  status: ('A' for Active; 'I' for Inactive)
    1  A    between atoms: N_13  and  N_22
    2  A    between atoms: C_18  and  N_22
    3  A    between atoms: C_18  and  C_24
    4  A    between atoms: C_19  and  N_26
    5  A    between atoms: CA_20  and  C_21
    6  A    between atoms: C_24  and  N_26
                            x       y       z     vdW  Elec       q    Type
                         _______ _______ _______ _____ _____    ______ ____

>  <TORSDO>
F 6

$$$$
=
 OpenBabel11072414233D

 26 27  0  0  0  0  0  0  0  0999 V2000
  162.5520  206.8670  147.4280 O   0  0  0  0  0  0  0  0  0  0  0  0
  161.1420  203.5900  148.2060 C   0  0  0  0  0  0  0  0  0  0  0  0
  162.1080  205.1170  145.9160 C   0  0  0  0  0  0  0  0  0  0  0  0
  160.8340  204.7730  150.7170 C   0  0  0  0  0  3  0  0  0  0  0  0
  160.6820  203.4380  150.5620 N   0  0  0  0  0  0  0  0  0  0  0  0
  160.4630  201.9490  146.5540 N   0  0  0  0  0  2  0  0  0  0  0  0
  161.6310  203.7920  145.7280 N   0  0  0  0  0  2  0  0  0  0  0  0
  162.6270  205.7580  144.9250 N   0  0  0  0  0  2  0  0  0  0  0  0
  162.0330  205.7340  147.2470 C   0  0  0  0  0  0  0  0  0  0  0  0
  161.1250  203.0240  146.8210 C   0  0  0  0  0  0  0  0  0  0  0  0
  161.1920  205.5730  149.6380 C   0  0  0  0  0  0  0  0  0  0  0  0
  160.8340  202.8190  149.3610 C   0  0  0  0  0  0  0  0  0  0  0  0
  161.4250  204.9730  148.3760 C   0  0  0  0  0  0  0  0  0  0  0  0
  161.8630  200.5790  149.0050 O   0  0  0  0  0  0  0  0  0  0  0  0
  159.7130  200.7720  149.7590 O   0  0  0  0  0  1  0  0  0  0  0  0
  160.7580  201.3450  149.3560 C   0  0  0  0  0  0  0  0  0  0  0  0
  161.2760  206.9820  149.8570 N   0  0  0  0  0  2  0  0  0  0  0  0
  162.1460  207.5470  150.8770 C   0  0  0  0  0  2  0  0  0  0  0  0
  161.5500  208.8370  151.4240 C   0  0  0  0  0  2  0  0  0  0  0  0
  160.8500  207.3610  153.2760 C   0  0  0  0  0  3  0  0  0  0  0  0
  161.1550  208.6730  152.8200 N   0  0  0  0  0  0  0  0  0  0  0  0
  160.6300  207.1350  154.4940 O   0  0  0  0  0  0  0  0  0  0  0  0
  159.2340  211.0730  152.8090 C   0  0  0  0  0  1  0  0  0  0  0  0
  160.3790  210.9060  153.7390 C   0  0  0  0  0  0  0  0  0  0  0  0
  160.6190  211.8230  154.5610 O   0  0  0  0  0  0  0  0  0  0  0  0
  161.2050  209.7320  153.7490 N   0  0  0  0  0  2  0  0  0  0  0  0
  2 13  2  0  0  0  0
  2 12  1  0  0  0  0
  3  9  1  0  0  0  0
  5  4  1  0  0  0  0
  6 10  2  0  0  0  0
  7  3  1  0  0  0  0
  7 10  1  0  0  0  0
  8  3  2  0  0  0  0
  9  1  2  0  0  0  0
  9 13  1  0  0  0  0
 10  2  1  0  0  0  0
 11 17  1  0  0  0  0
 11  4  2  0  0  0  0
 12  5  2  0  0  0  0
 13 11  1  0  0  0  0
 14 16  2  0  0  0  0
 16 12  1  0  0  0  0
 16 15  1  0  0  0  0
 17 18  1  0  0  0  0
 18 19  1  0  0  0  0
 19 21  1  0  0  0  0
 20 22  2  0  0  0  0
 21 20  1  0  0  0  0
 21 26  1  0  0  0  0
 23 24  1  0  0  0  0
 24 26  1  0  0  0  0
 24 25  2  0  0  0  0
M  END
>  <MODEL>
5

>  <REMARK>
 VINA RESULT:      -7.2      2.425      4.224
  Name = 
  6 active torsions:
  status: ('A' for Active; 'I' for Inactive)
    1  A    between atoms: N_13  and  N_22
    2  A    between atoms: C_18  and  N_22
    3  A    between atoms: C_18  and  C_24
    4  A    between atoms: C_19  and  N_26
    5  A    between atoms: CA_20  and  C_21
    6  A    between atoms: C_24  and  N_26
                            x       y       z     vdW  Elec       q    Type
                         _______ _______ _______ _____ _____    ______ ____

>  <TORSDO>
F 6

$$$$
=
 OpenBabel11072414233D

 26 27  0  0  0  0  0  0  0  0999 V2000
  161.4890  207.3150  148.9630 O   0  0  0  0  0  0  0  0  0  0  0  0
  161.5630  208.1960  152.5050 C   0  0  0  0  0  0  0  0  0  0  0  0
  161.9560  209.4280  149.8900 C   0  0  0  0  0  0  0  0  0  0  0  0
  161.2450  205.4360  152.7790 C   0  0  0  0  0  3  0  0  0  0  0  0
  161.0710  206.2560  153.8390 N   0  0  0  0  0  0  0  0  0  0  0  0
  162.3210  210.3260  153.3840 N   0  0  0  0  0  2  0  0  0  0  0  0
  162.0870  210.2150  151.0660 N   0  0  0  0  0  2  0  0  0  0  0  0
  162.0310  209.9890  148.7310 N   0  0  0  0  0  2  0  0  0  0  0  0
  161.7060  207.9850  150.0060 C   0  0  0  0  0  0  0  0  0  0  0  0
  161.9290  209.6410  152.3640 C   0  0  0  0  0  0  0  0  0  0  0  0
  161.5390  205.9550  151.5240 C   0  0  0  0  0  0  0  0  0  0  0  0
  161.2060  207.6070  153.7490 C   0  0  0  0  0  0  0  0  0  0  0  0
  161.6280  207.3600  151.3570 C   0  0  0  0  0  0  0  0  0  0  0  0
  159.7210  209.1700  154.9960 O   0  0  0  0  0  0  0  0  0  0  0  0
  161.5850  208.2880  155.9840 O   0  0  0  0  0  1  0  0  0  0  0  0
  160.8720  208.3920  154.9530 C   0  0  0  0  0  0  0  0  0  0  0  0
  161.7700  205.0300  150.4610 N   0  0  0  0  0  2  0  0  0  0  0  0
  160.6850  204.2680  149.8600 C   0  0  0  0  0  2  0  0  0  0  0  0
  161.2300  203.0200  149.1800 C   0  0  0  0  0  2  0  0  0  0  0  0
  161.0100  201.9770  146.9520 C   0  0  0  0  0  3  0  0  0  0  0  0
  161.1780  203.1580  147.7270 N   0  0  0  0  0  0  0  0  0  0  0  0
  160.8280  202.0410  145.7090 O   0  0  0  0  0  0  0  0  0  0  0  0
  163.5010  204.3250  146.0880 C   0  0  0  0  0  1  0  0  0  0  0  0
  162.2260  205.0300  146.3750 C   0  0  0  0  0  0  0  0  0  0  0  0
  162.0870  206.2050  145.9590 O   0  0  0  0  0  0  0  0  0  0  0  0
  161.1430  204.4140  147.0880 N   0  0  0  0  0  2  0  0  0  0  0  0
  1  9  2  0  0  0  0
  2 12  1  0  0  0  0
  3  9  1  0  0  0  0
  3  7  1  0  0  0  0
  4  5  1  0  0  0  0
  7 10  1  0  0  0  0
  8  3  2  0  0  0  0
  9 13  1  0  0  0  0
 10  2  1  0  0  0  0
 10  6  2  0  0  0  0
 11  4  2  0  0  0  0
 12  5  2  0  0  0  0
 12 16  1  0  0  0  0
 13 11  1  0  0  0  0
 13  2  2  0  0  0  0
 16 14  2  0  0  0  0
 16 15  1  0  0  0  0
 17 11  1  0  0  0  0
 18 17  1  0  0  0  0
 19 18  1  0  0  0  0
 20 21  1  0  0  0  0
 21 19  1  0  0  0  0
 22 20  2  0  0  0  0
 23 24  1  0  0  0  0
 24 26  1  0  0  0  0
 25 24  2  0  0  0  0
 26 21  1  0  0  0  0
M  END
>  <MODEL>
6

>  <REMARK>
 VINA RESULT:      -6.9      1.960      7.898
  Name = 
  6 active torsions:
  status: ('A' for Active; 'I' for Inactive)
    1  A    between atoms: N_13  and  N_22
    2  A    between atoms: C_18  and  N_22
    3  A    between atoms: C_18  and  C_24
    4  A    between atoms: C_19  and  N_26
    5  A    between atoms: CA_20  and  C_21
    6  A    between atoms: C_24  and  N_26
                            x       y       z     vdW  Elec       q    Type
                         _______ _______ _______ _____ _____    ______ ____

>  <TORSDO>
F 6

$$$$
=
 OpenBabel11072414233D

 26 27  0  0  0  0  0  0  0  0999 V2000
  162.2610  208.9230  151.2340 O   0  0  0  0  0  0  0  0  0  0  0  0
  161.2270  205.9290  149.4190 C   0  0  0  0  0  0  0  0  0  0  0  0
  161.8350  208.7390  148.9260 C   0  0  0  0  0  0  0  0  0  0  0  0
  161.0500  204.9130  152.0130 C   0  0  0  0  0  3  0  0  0  0  0  0
  161.0030  204.0850  150.9460 N   0  0  0  0  0  0  0  0  0  0  0  0
  160.5440  205.8910  147.0910 N   0  0  0  0  0  2  0  0  0  0  0  0
  161.4620  207.8990  147.8420 N   0  0  0  0  0  2  0  0  0  0  0  0
  162.2010  209.9550  148.6980 N   0  0  0  0  0  2  0  0  0  0  0  0
  161.8310  208.2050  150.2940 C   0  0  0  0  0  0  0  0  0  0  0  0
  161.1300  206.5250  148.0490 C   0  0  0  0  0  0  0  0  0  0  0  0
  161.2330  206.2790  151.8400 C   0  0  0  0  0  0  0  0  0  0  0  0
  161.0960  204.5340  149.6660 C   0  0  0  0  0  0  0  0  0  0  0  0
  161.4000  206.7970  150.5310 C   0  0  0  0  0  0  0  0  0  0  0  0
  162.1460  203.5510  147.6320 O   0  0  0  0  0  0  0  0  0  0  0  0
  160.3460  202.5460  148.6220 O   0  0  0  0  0  1  0  0  0  0  0  0
  161.1510  203.5130  148.6020 C   0  0  0  0  0  0  0  0  0  0  0  0
  161.2120  207.1050  153.0050 N   0  0  0  0  0  2  0  0  0  0  0  0
  161.2570  206.5380  154.3450 C   0  0  0  0  0  2  0  0  0  0  0  0
  160.4430  207.3920  155.3070 C   0  0  0  0  0  2  0  0  0  0  0  0
  161.9600  208.5020  156.9090 C   0  0  0  0  0  3  0  0  0  0  0  0
  161.1960  208.5760  155.7110 N   0  0  0  0  0  0  0  0  0  0  0  0
  162.7310  209.4390  157.2430 O   0  0  0  0  0  0  0  0  0  0  0  0
  159.2990  210.9900  155.8580 C   0  0  0  0  0  1  0  0  0  0  0  0
  160.4020  210.8350  154.8750 C   0  0  0  0  0  0  0  0  0  0  0  0
  160.5590  211.7280  154.0080 O   0  0  0  0  0  0  0  0  0  0  0  0
  161.3050  209.7190  154.8930 N   0  0  0  0  0  2  0  0  0  0  0  0
  2 12  2  0  0  0  0
  2 13  1  0  0  0  0
  3  9  1  0  0  0  0
  5  4  2  0  0  0  0
  6 10  2  0  0  0  0
  7 10  1  0  0  0  0
  7  3  1  0  0  0  0
  8  3  2  0  0  0  0
  9 13  1  0  0  0  0
  9  1  2  0  0  0  0
 10  2  1  0  0  0  0
 11  4  1  0  0  0  0
 11 17  1  0  0  0  0
 12  5  1  0  0  0  0
 13 11  2  0  0  0  0
 14 16  2  0  0  0  0
 16 15  1  0  0  0  0
 16 12  1  0  0  0  0
 17 18  1  0  0  0  0
 18 19  1  0  0  0  0
 19 21  1  0  0  0  0
 20 22  2  0  0  0  0
 21 20  1  0  0  0  0
 24 26  1  0  0  0  0
 24 23  1  0  0  0  0
 25 24  2  0  0  0  0
 26 21  1  0  0  0  0
M  END
>  <MODEL>
7

>  <REMARK>
 VINA RESULT:      -6.8      1.785      3.745
  Name = 
  6 active torsions:
  status: ('A' for Active; 'I' for Inactive)
    1  A    between atoms: N_13  and  N_22
    2  A    between atoms: C_18  and  N_22
    3  A    between atoms: C_18  and  C_24
    4  A    between atoms: C_19  and  N_26
    5  A    between atoms: CA_20  and  C_21
    6  A    between atoms: C_24  and  N_26
                            x       y       z     vdW  Elec       q    Type
                         _______ _______ _______ _____ _____    ______ ____

>  <TORSDO>
F 6

$$$$
=
 OpenBabel11072414233D

 26 27  0  0  0  0  0  0  0  0999 V2000
  160.8720  208.7250  152.3240 O   0  0  0  0  0  0  0  0  0  0  0  0
  161.3430  205.5640  150.5610 C   0  0  0  0  0  0  0  0  0  0  0  0
  161.0720  206.5830  153.2800 C   0  0  0  0  0  0  0  0  0  0  0  0
  161.6030  207.2880  148.3800 C   0  0  0  0  0  3  0  0  0  0  0  0
  161.4490  205.9580  148.1900 N   0  0  0  0  0  0  0  0  0  0  0  0
  161.8130  203.4390  151.6340 N   0  0  0  0  0  2  0  0  0  0  0  0
  161.2370  205.1890  153.0640 N   0  0  0  0  0  2  0  0  0  0  0  0
  160.8520  207.0260  154.4710 N   0  0  0  0  0  2  0  0  0  0  0  0
  161.1220  207.5060  152.1380 C   0  0  0  0  0  0  0  0  0  0  0  0
  161.4000  204.6560  151.7500 C   0  0  0  0  0  0  0  0  0  0  0  0
  161.5880  207.8250  149.6620 C   0  0  0  0  0  0  0  0  0  0  0  0
  161.3080  205.0830  149.2220 C   0  0  0  0  0  0  0  0  0  0  0  0
  161.3810  206.9690  150.7710 C   0  0  0  0  0  0  0  0  0  0  0  0
  159.9740  202.9940  149.4670 O   0  0  0  0  0  1  0  0  0  0  0  0
  161.6890  203.1180  147.9590 O   0  0  0  0  0  0  0  0  0  0  0  0
  161.0280  203.6780  148.8710 C   0  0  0  0  0  0  0  0  0  0  0  0
  161.8180  209.2290  149.7950 N   0  0  0  0  0  2  0  0  0  0  0  0
  162.1980  210.0530  148.6570 C   0  0  0  0  0  2  0  0  0  0  0  0
  161.9590  211.5240  148.9690 C   0  0  0  0  0  2  0  0  0  0  0  0
  162.7070  212.9600  147.1030 C   0  0  0  0  0  3  0  0  0  0  0  0
  161.6470  212.2670  147.7510 N   0  0  0  0  0  0  0  0  0  0  0  0
  162.5330  213.5080  145.9840 O   0  0  0  0  0  0  0  0  0  0  0  0
  159.2500  214.0330  148.5150 C   0  0  0  0  0  1  0  0  0  0  0  0
  159.2180  212.9520  147.4980 C   0  0  0  0  0  0  0  0  0  0  0  0
  158.1290  212.7010  146.9280 O   0  0  0  0  0  0  0  0  0  0  0  0
  160.3840  212.2010  147.1270 N   0  0  0  0  0  2  0  0  0  0  0  0
  2 13  1  0  0  0  0
  2 10  1  0  0  0  0
  3  8  2  0  0  0  0
  4 11  1  0  0  0  0
  5  4  2  0  0  0  0
  5 12  1  0  0  0  0
  6 10  2  0  0  0  0
  7  3  1  0  0  0  0
  9  1  2  0  0  0  0
  9  3  1  0  0  0  0
 10  7  1  0  0  0  0
 11 17  1  0  0  0  0
 11 13  2  0  0  0  0
 12  2  2  0  0  0  0
 13  9  1  0  0  0  0
 15 16  2  0  0  0  0
 16 12  1  0  0  0  0
 16 14  1  0  0  0  0
 18 19  1  0  0  0  0
 18 17  1  0  0  0  0
 20 21  1  0  0  0  0
 21 19  1  0  0  0  0
 22 20  2  0  0  0  0
 24 23  1  0  0  0  0
 25 24  2  0  0  0  0
 26 24  1  0  0  0  0
 26 21  1  0  0  0  0
M  END
>  <MODEL>
8

>  <REMARK>
 VINA RESULT:      -6.8      3.567      5.529
  Name = 
  6 active torsions:
  status: ('A' for Active; 'I' for Inactive)
    1  A    between atoms: N_13  and  N_22
    2  A    between atoms: C_18  and  N_22
    3  A    between atoms: C_18  and  C_24
    4  A    between atoms: C_19  and  N_26
    5  A    between atoms: CA_20  and  C_21
    6  A    between atoms: C_24  and  N_26
                            x       y       z     vdW  Elec       q    Type
                         _______ _______ _______ _____ _____    ______ ____

>  <TORSDO>
F 6

$$$$
=
 OpenBabel11072414233D

 26 27  0  0  0  0  0  0  0  0999 V2000
  161.5820  204.0970  150.0370 O   0  0  0  0  0  0  0  0  0  0  0  0
  161.3670  207.5570  151.1800 C   0  0  0  0  0  0  0  0  0  0  0  0
  161.1340  204.8440  152.2250 C   0  0  0  0  0  0  0  0  0  0  0  0
  161.5880  208.0460  148.4400 C   0  0  0  0  0  3  0  0  0  0  0  0
  161.7370  209.0520  149.3320 N   0  0  0  0  0  0  0  0  0  0  0  0
  160.6320  208.2410  153.3890 N   0  0  0  0  0  2  0  0  0  0  0  0
  160.9710  205.9510  153.1000 N   0  0  0  0  0  2  0  0  0  0  0  0
  161.1310  203.6450  152.7010 N   0  0  0  0  0  2  0  0  0  0  0  0
  161.3350  205.0760  150.7890 C   0  0  0  0  0  0  0  0  0  0  0  0
  161.0510  207.2940  152.6200 C   0  0  0  0  0  0  0  0  0  0  0  0
  161.3700  206.7440  148.8730 C   0  0  0  0  0  0  0  0  0  0  0  0
  161.6470  208.8570  150.6750 C   0  0  0  0  0  0  0  0  0  0  0  0
  161.3310  206.4720  150.2630 C   0  0  0  0  0  0  0  0  0  0  0  0
  160.9440  210.9010  151.9130 O   0  0  0  0  0  0  0  0  0  0  0  0
  163.1030  210.1560  152.0160 O   0  0  0  0  0  1  0  0  0  0  0  0
  161.9480  210.0160  151.5390 C   0  0  0  0  0  0  0  0  0  0  0  0
  161.1620  205.7410  147.8780 N   0  0  0  0  0  2  0  0  0  0  0  0
  161.8190  205.8020  146.5810 C   0  0  0  0  0  2  0  0  0  0  0  0
  162.3580  204.4300  146.1980 C   0  0  0  0  0  2  0  0  0  0  0  0
  160.3390  204.2590  144.7850 C   0  0  0  0  0  3  0  0  0  0  0  0
  161.3070  203.6100  145.6020 N   0  0  0  0  0  0  0  0  0  0  0  0
  159.4880  203.5930  144.1400 O   0  0  0  0  0  0  0  0  0  0  0  0
  160.5570  202.0380  148.1340 C   0  0  0  0  0  1  0  0  0  0  0  0
  161.0340  201.4290  146.8670 C   0  0  0  0  0  0  0  0  0  0  0  0
  161.1860  200.1840  146.8230 O   0  0  0  0  0  0  0  0  0  0  0  0
  161.3040  202.2030  145.6880 N   0  0  0  0  0  2  0  0  0  0  0  0
  1  9  2  0  0  0  0
  2 10  1  0  0  0  0
  3  8  2  0  0  0  0
  3  7  1  0  0  0  0
  4 11  2  0  0  0  0
  4  5  1  0  0  0  0
  5 12  2  0  0  0  0
  9  3  1  0  0  0  0
 10  7  1  0  0  0  0
 10  6  2  0  0  0  0
 11 13  1  0  0  0  0
 12  2  1  0  0  0  0
 12 16  1  0  0  0  0
 13  9  1  0  0  0  0
 13  2  2  0  0  0  0
 16 14  2  0  0  0  0
 16 15  1  0  0  0  0
 17 11  1  0  0  0  0
 18 17  1  0  0  0  0
 19 18  1  0  0  0  0
 20 21  1  0  0  0  0
 21 26  1  0  0  0  0
 21 19  1  0  0  0  0
 22 20  2  0  0  0  0
 24 23  1  0  0  0  0
 25 24  2  0  0  0  0
 26 24  1  0  0  0  0
M  END
>  <MODEL>
9

>  <REMARK>
 VINA RESULT:      -6.6      2.513      7.308
  Name = 
  6 active torsions:
  status: ('A' for Active; 'I' for Inactive)
    1  A    between atoms: N_13  and  N_22
    2  A    between atoms: C_18  and  N_22
    3  A    between atoms: C_18  and  C_24
    4  A    between atoms: C_19  and  N_26
    5  A    between atoms: CA_20  and  C_21
    6  A    between atoms: C_24  and  N_26
                            x       y       z     vdW  Elec       q    Type
                         _______ _______ _______ _____ _____    ______ ____

>  <TORSDO>
F 6

$$$$
