=
 OpenBabel11072412283D

 33 38  0  0  1  0  0  0  0  0999 V2000
  161.7110  207.5040  152.9620 C   0  0  1  0  0  3  0  0  0  0  0  0
  158.4270  210.6760  155.5580 C   0  0  0  0  0  2  0  0  0  0  0  0
  159.3730  210.4770  152.9920 C   0  0  1  0  0  3  0  0  0  0  0  0
  161.5680  211.4600  151.8400 C   0  0  0  0  0  2  0  0  0  0  0  0
  161.4220  206.5660  150.6210 C   0  0  0  0  0  2  0  0  0  0  0  0
  162.0640  207.6650  151.4720 C   0  0  1  0  0  3  0  0  0  0  0  0
  162.5170  206.1840  149.2190 S   0  0  0  0  0  0  0  0  0  0  0  0
  161.2560  210.4600  155.2010 C   0  0  0  0  0  0  0  0  0  0  0  0
  157.5940  213.3240  153.2620 O   0  0  0  0  0  1  0  0  0  0  0  0
  158.9850  213.3480  153.1090 C   0  0  2  0  0  3  0  0  0  0  0  0
  161.7130  209.0710  150.9510 C   0  0  2  0  0  3  0  0  0  0  0  0
  162.1660  209.2950  149.5120 C   0  0  0  0  0  2  0  0  0  0  0  0
  160.2130  207.6210  153.2240 C   0  0  0  0  0  2  0  0  0  0  0  0
  159.9340  208.5540  154.3990 C   0  0  0  0  0  2  0  0  0  0  0  0
  159.3640  213.3070  155.4730 O   0  0  0  0  0  1  0  0  0  0  0  0
  160.0340  211.3370  151.8740 C   0  0  2  0  0  3  0  0  0  0  0  0
  161.7270  207.3080  148.0010 C   0  0  0  0  0  2  0  0  0  0  0  0
  159.4110  212.7330  151.7580 C   0  0  1  0  0  3  0  0  0  0  0  0
  159.3520  210.7020  156.8130 C   0  0  0  0  0  2  0  0  0  0  0  0
  160.3380  210.0120  154.1030 C   0  0  2  0  0  0  0  0  0  0  0  0
  161.7820  210.9500  157.2610 N   0  0  0  0  0  0  0  0  0  0  0  0
  162.9030  210.8630  156.5150 C   0  0  0  0  0  0  0  0  0  0  0  0
  159.2370  211.1290  154.3290 C   0  0  2  0  0  0  0  0  0  0  0  0
  164.2070  211.0680  157.0440 N   0  0  0  0  0  1  0  0  0  0  0  0
  160.7810  210.6890  156.4440 N   0  0  0  0  0  0  0  0  0  0  0  0
  162.3330  210.1350  151.8490 C   0  0  0  0  0  2  0  0  0  0  0  0
  161.1860  208.6200  148.5660 C   0  0  0  0  0  2  0  0  0  0  0  0
  159.6550  212.6340  154.2830 C   0  0  1  0  0  3  0  0  0  0  0  0
  162.6350  210.5370  155.1900 C   0  0  0  0  0  3  0  0  0  0  0  0
  158.7100  213.6760  149.8830 C   0  0  0  0  0  1  0  0  0  0  0  0
  158.3590  212.7210  150.8370 O   0  0  0  0  0  0  0  0  0  0  0  0
  161.2350  205.2720  153.6640 O   0  0  0  0  0  1  0  0  0  0  0  0
  162.2580  206.2130  153.5500 C   0  0  0  0  0  2  0  0  0  0  0  0
  1 13  1  0  0  0  0
  1 33  1  6  0  0  0
  2 19  1  0  0  0  0
  3 20  1  0  0  0  0
  3 23  1  0  0  0  0
  4 26  1  0  0  0  0
  4 16  1  0  0  0  0
  5  6  1  0  0  0  0
  6  1  1  0  0  0  0
  7  5  1  0  0  0  0
  8 25  1  0  0  0  0
 10  9  1  0  0  0  0
 10 28  1  0  0  0  0
 11  6  1  0  0  0  0
 11 26  1  0  0  0  0
 12 11  1  0  0  0  0
 13 14  1  0  0  0  0
 16  3  1  0  0  0  0
 17 27  1  0  0  0  0
 17  7  1  0  0  0  0
 18 16  1  0  0  0  0
 18 10  1  0  0  0  0
 20 23  1  0  0  0  0
 20 14  1  0  0  0  0
 20  8  1  0  0  0  0
 22 24  1  0  0  0  0
 22 21  2  0  0  0  0
 23  2  1  0  0  0  0
 25 19  1  0  0  0  0
 25 21  1  0  0  0  0
 27 12  1  0  0  0  0
 28 23  1  0  0  0  0
 28 15  1  0  0  0  0
 29  8  2  0  0  0  0
 29 22  1  0  0  0  0
 30 31  1  0  0  0  0
 31 18  1  0  0  0  0
 33 32  1  0  0  0  0
M  END
>  <MODEL>
1

>  <REMARK>
 VINA RESULT:      -3.1      0.000      0.000
  Name = 
  2 active torsions:
  status: ('A' for Active; 'I' for Inactive)
    1  A    between atoms: C_1  and  C_31
    2  A    between atoms: C_20  and  O_24
                            x       y       z     vdW  Elec       q    Type
                         _______ _______ _______ _____ _____    ______ ____

>  <TORSDO>
F 2

$$$$
=
 OpenBabel11072412283D

 33 38  0  0  1  0  0  0  0  0999 V2000
  161.0320  211.0920  152.2910 C   0  0  1  0  0  3  0  0  0  0  0  0
  156.4210  211.2470  154.8010 C   0  0  0  0  0  2  0  0  0  0  0  0
  157.4170  212.1950  152.4290 C   0  0  1  0  0  3  0  0  0  0  0  0
  158.7040  214.4530  151.8320 C   0  0  0  0  0  2  0  0  0  0  0  0
  161.4270  210.7170  149.8130 C   0  0  0  0  0  2  0  0  0  0  0  0
  161.2920  211.7560  150.9270 C   0  0  1  0  0  3  0  0  0  0  0  0
  162.6020  211.3310  148.5660 S   0  0  0  0  0  0  0  0  0  0  0  0
  158.8790  212.7060  154.8840 C   0  0  0  0  0  0  0  0  0  0  0  0
  154.3220  213.4480  152.8710 O   0  0  0  0  0  1  0  0  0  0  0  0
  155.4550  214.2650  152.9540 C   0  0  2  0  0  3  0  0  0  0  0  0
  160.2230  212.8150  150.5960 C   0  0  2  0  0  3  0  0  0  0  0  0
  160.5270  213.5740  149.3070 C   0  0  0  0  0  2  0  0  0  0  0  0
  159.7260  210.3050  152.3190 C   0  0  0  0  0  2  0  0  0  0  0  0
  158.9160  210.6330  153.5710 C   0  0  0  0  0  2  0  0  0  0  0  0
  155.6920  213.8970  155.3090 O   0  0  0  0  0  1  0  0  0  0  0  0
  157.5150  213.5060  151.5930 C   0  0  2  0  0  3  0  0  0  0  0  0
  161.3630  212.0820  147.4370 C   0  0  0  0  0  2  0  0  0  0  0  0
  156.2120  214.3130  151.6090 C   0  0  1  0  0  3  0  0  0  0  0  0
  157.1130  211.4880  156.1780 C   0  0  0  0  0  2  0  0  0  0  0  0
  158.4280  212.0950  153.5910 C   0  0  2  0  0  0  0  0  0  0  0  0
  158.9460  212.9150  157.0540 N   0  0  0  0  0  0  0  0  0  0  0  0
  159.9460  213.6310  156.4990 C   0  0  0  0  0  0  0  0  0  0  0  0
  156.8780  212.3380  153.8140 C   0  0  2  0  0  0  0  0  0  0  0  0
  160.8770  214.3900  157.2610 N   0  0  0  0  0  1  0  0  0  0  0  0
  158.3080  212.3440  156.0520 N   0  0  0  0  0  0  0  0  0  0  0  0
  160.0870  213.8050  151.7470 C   0  0  0  0  0  2  0  0  0  0  0  0
  160.1470  212.7110  148.1160 C   0  0  0  0  0  2  0  0  0  0  0  0
  156.3640  213.7880  154.0880 C   0  0  1  0  0  3  0  0  0  0  0  0
  159.9680  213.5260  155.1120 C   0  0  0  0  0  3  0  0  0  0  0  0
  156.1330  214.2550  149.3980 C   0  0  0  0  0  1  0  0  0  0  0  0
  155.3940  213.9390  150.5390 O   0  0  0  0  0  0  0  0  0  0  0  0
  161.8190  208.8750  152.7020 O   0  0  0  0  0  1  0  0  0  0  0  0
  162.1930  210.2180  152.7400 C   0  0  0  0  0  2  0  0  0  0  0  0
  1 13  1  0  0  0  0
  1 33  1  6  0  0  0
  2 19  1  0  0  0  0
  3 20  1  0  0  0  0
  3 23  1  0  0  0  0
  5  6  1  0  0  0  0
  6  1  1  0  0  0  0
  7  5  1  0  0  0  0
  8 29  2  0  0  0  0
  8 25  1  0  0  0  0
  9 10  1  0  0  0  0
 10 28  1  0  0  0  0
 11  6  1  0  0  0  0
 11 26  1  0  0  0  0
 12 11  1  0  0  0  0
 13 14  1  0  0  0  0
 14 20  1  0  0  0  0
 16 18  1  0  0  0  0
 16  4  1  0  0  0  0
 16  3  1  0  0  0  0
 17 27  1  0  0  0  0
 17  7  1  0  0  0  0
 18 10  1  0  0  0  0
 20 23  1  0  0  0  0
 20  8  1  0  0  0  0
 22 21  2  0  0  0  0
 22 24  1  0  0  0  0
 23 28  1  0  0  0  0
 23  2  1  0  0  0  0
 25 19  1  0  0  0  0
 25 21  1  0  0  0  0
 26  4  1  0  0  0  0
 27 12  1  0  0  0  0
 28 15  1  0  0  0  0
 29 22  1  0  0  0  0
 30 31  1  0  0  0  0
 31 18  1  0  0  0  0
 32 33  1  0  0  0  0
M  END
>  <MODEL>
2

>  <REMARK>
 VINA RESULT:      -1.6      2.813      3.683
  Name = 
  2 active torsions:
  status: ('A' for Active; 'I' for Inactive)
    1  A    between atoms: C_1  and  C_31
    2  A    between atoms: C_20  and  O_24
                            x       y       z     vdW  Elec       q    Type
                         _______ _______ _______ _____ _____    ______ ____

>  <TORSDO>
F 2

$$$$
