=
 OpenBabel11072410503D

 40 45  0  0  1  0  0  0  0  0999 V2000
  161.5320  206.1390  151.9730 C   0  0  0  0  0  0  0  0  0  0  0  0
  161.1530  209.5370  152.1030 C   0  0  0  0  0  0  0  0  0  0  0  0
  161.8050  210.0290  150.9180 N   0  0  0  0  0  0  0  0  0  0  0  0
  161.9560  209.0850  150.0730 N   0  0  0  0  0  2  0  0  0  0  0  0
  161.3800  207.9250  150.6480 C   0  0  1  0  0  3  0  0  0  0  0  0
  161.8970  206.7040  150.6550 C   0  0  0  0  0  3  0  0  0  0  0  0
  160.8310  208.2600  151.9100 C   0  0  1  0  0  3  0  0  0  0  0  0
  160.5240  206.9030  154.1550 C   0  0  0  0  0  1  0  0  0  0  0  0
  160.9580  207.0730  152.7380 C   0  0  1  0  0  3  0  0  0  0  0  0
  159.1530  211.4880  152.6700 F   0  0  0  0  0  0  0  0  0  0  0  0
  161.0040  211.6320  155.8380 C   0  0  0  0  0  3  0  0  0  0  0  0
  160.0340  211.9190  154.8640 C   0  0  0  0  0  0  0  0  0  0  0  0
  161.0930  210.2820  153.3800 C   0  0  0  0  0  0  0  0  0  0  0  0
  160.0780  211.2310  153.6290 C   0  0  0  0  0  0  0  0  0  0  0  0
  162.0400  210.0140  154.3780 C   0  0  0  0  0  3  0  0  0  0  0  0
  163.0120  210.3890  156.6440 C   0  0  0  0  0  1  0  0  0  0  0  0
  161.9980  210.6850  155.5980 C   0  0  0  0  0  0  0  0  0  0  0  0
  157.7580  212.5500  155.7830 N   0  0  0  0  0  2  0  0  0  0  0  0
  158.9950  212.9310  155.1730 C   0  0  0  0  0  0  0  0  0  0  0  0
  159.2030  214.1430  154.8920 O   0  0  0  0  0  0  0  0  0  0  0  0
  156.7370  213.5120  156.1740 C   0  0  0  0  0  2  0  0  0  0  0  0
  155.4970  213.3760  155.2970 C   0  0  0  0  0  2  0  0  0  0  0  0
  154.1820  214.4530  153.5010 C   0  0  0  0  0  1  0  0  0  0  0  0
  155.5640  214.3090  154.0990 C   0  0  2  0  0  3  0  0  0  0  0  0
  156.4300  213.7910  153.1380 O   0  0  0  0  0  1  0  0  0  0  0  0
  161.8620  204.7520  152.4150 C   0  0  0  0  0  2  0  0  0  0  0  0
  161.3970  203.7650  151.3990 C   0  0  0  0  0  0  0  0  0  0  0  0
  160.9790  201.9220  150.3090 N   0  0  0  0  0  0  0  0  0  0  0  0
  159.6700  201.8520  149.6010 C   0  0  0  0  0  2  0  0  0  0  0  0
  160.5070  202.8930  149.3110 C   0  0  1  0  0  0  0  0  0  0  0  0
  160.7580  204.0970  150.2320 C   0  0  0  0  0  3  0  0  0  0  0  0
  161.6030  202.3210  151.4700 C   0  0  0  0  0  0  0  0  0  0  0  0
  162.3250  201.6260  152.2320 O   0  0  0  0  0  0  0  0  0  0  0  0
  161.3880  202.7740  148.0790 C   0  0  0  0  0  2  0  0  0  0  0  0
  161.9980  204.0250  147.7820 O   0  0  0  0  0  0  0  0  0  0  0  0
  161.4130  205.3340  144.4440 C   0  0  0  0  0  2  0  0  0  0  0  0
  161.6430  204.7980  146.6740 C   0  0  0  0  0  0  0  0  0  0  0  0
  161.8900  204.4230  145.4650 N   0  0  0  0  0  0  0  0  0  0  0  0
  160.7700  206.3360  146.8620 S   0  0  0  0  0  0  0  0  0  0  0  0
  160.3590  206.2200  145.0930 C   0  0  0  0  0  2  0  0  0  0  0  0
  1 26  1  0  0  0  0
  1  9  1  0  0  0  0
  2 13  1  0  0  0  0
  3  2  2  0  0  0  0
  4  5  1  0  0  0  0
  4  3  1  0  0  0  0
  5  6  1  1  0  0  0
  5  7  1  0  0  0  0
  6  1  2  0  0  0  0
  7  2  1  1  0  0  0
  7  9  1  0  0  0  0
  9  8  1  6  0  0  0
 10 14  1  0  0  0  0
 12 19  1  0  0  0  0
 12 11  2  0  0  0  0
 13 14  2  0  0  0  0
 13 15  1  0  0  0  0
 14 12  1  0  0  0  0
 15 17  2  0  0  0  0
 17 11  1  0  0  0  0
 17 16  1  0  0  0  0
 18 21  1  0  0  0  0
 19 18  1  0  0  0  0
 20 19  2  0  0  0  0
 22 21  1  0  0  0  0
 24 23  1  6  0  0  0
 24 22  1  0  0  0  0
 25 24  1  0  0  0  0
 27 32  1  0  0  0  0
 27 26  1  0  0  0  0
 28 32  1  0  0  0  0
 29 28  1  0  0  0  0
 30 34  1  6  0  0  0
 30 29  1  0  0  0  0
 30 31  1  0  0  0  0
 30 28  1  0  0  0  0
 31 27  2  0  0  0  0
 32 33  2  0  0  0  0
 35 34  1  0  0  0  0
 36 40  1  0  0  0  0
 36 38  1  0  0  0  0
 37 39  1  0  0  0  0
 37 35  1  0  0  0  0
 38 37  2  0  0  0  0
 40 39  1  0  0  0  0
M  END
>  <MODEL>
1

>  <REMARK>
 VINA RESULT:      -8.6      0.000      0.000
  Name = 
  10 active torsions:
  status: ('A' for Active; 'I' for Inactive)
    1  A    between atoms: C_1  and  C_17
    2  A    between atoms: C_2  and  C_17
    3  A    between atoms: C_6  and  C_15
    4  A    between atoms: C_7  and  C_18
    5  A    between atoms: C_11  and  C_15
    6  A    between atoms: C_11  and  N_22
    7  A    between atoms: O_14  and  C_21
    8  A    between atoms: O_14  and  C_35
    9  A    between atoms: C_16  and  C_36
   10  A    between atoms: C_19  and  C_35
                            x       y       z     vdW  Elec       q    Type
                         _______ _______ _______ _____ _____    ______ ____

>  <TORSDO>
F 10

$$$$
=
 OpenBabel11072410503D

 40 45  0  0  1  0  0  0  0  0999 V2000
  160.2880  209.5750  154.6110 C   0  0  0  0  0  0  0  0  0  0  0  0
  161.6640  208.6330  151.6240 C   0  0  0  0  0  0  0  0  0  0  0  0
  161.7450  209.8460  150.8540 N   0  0  0  0  0  0  0  0  0  0  0  0
  161.6500  210.8620  151.6190 N   0  0  0  0  0  2  0  0  0  0  0  0
  161.5340  210.3690  152.9420 C   0  0  1  0  0  3  0  0  0  0  0  0
  160.6910  210.7940  153.8740 C   0  0  0  0  0  3  0  0  0  0  0  0
  161.6020  208.9540  152.9150 C   0  0  1  0  0  3  0  0  0  0  0  0
  160.5160  207.0710  154.4150 C   0  0  0  0  0  1  0  0  0  0  0  0
  160.7720  208.4840  154.0110 C   0  0  1  0  0  3  0  0  0  0  0  0
  161.6560  208.1600  148.8130 F   0  0  0  0  0  0  0  0  0  0  0  0
  161.0590  204.7260  149.9700 C   0  0  0  0  0  3  0  0  0  0  0  0
  161.2590  205.8060  149.0950 C   0  0  0  0  0  0  0  0  0  0  0  0
  161.4410  207.2950  151.0330 C   0  0  0  0  0  0  0  0  0  0  0  0
  161.4590  207.0980  149.6350 C   0  0  0  0  0  0  0  0  0  0  0  0
  161.2480  206.1930  151.8770 C   0  0  0  0  0  3  0  0  0  0  0  0
  160.8490  203.7610  152.2610 C   0  0  0  0  0  1  0  0  0  0  0  0
  161.0560  204.9170  151.3510 C   0  0  0  0  0  0  0  0  0  0  0  0
  162.1290  204.5640  147.0650 N   0  0  0  0  0  2  0  0  0  0  0  0
  161.2600  205.5470  147.6360 C   0  0  0  0  0  0  0  0  0  0  0  0
  160.4850  206.2020  146.8860 O   0  0  0  0  0  0  0  0  0  0  0  0
  162.1150  204.2190  145.6500 C   0  0  0  0  0  2  0  0  0  0  0  0
  160.8280  203.4870  145.2810 C   0  0  0  0  0  2  0  0  0  0  0  0
  159.7820  201.2700  144.9540 C   0  0  0  0  0  1  0  0  0  0  0  0
  160.9180  202.0100  145.6280 C   0  0  2  0  0  3  0  0  0  0  0  0
  160.8260  201.8360  147.0080 O   0  0  0  0  0  1  0  0  0  0  0  0
  159.3760  209.5700  155.7940 C   0  0  0  0  0  2  0  0  0  0  0  0
  158.6830  210.8850  155.9140 C   0  0  0  0  0  0  0  0  0  0  0  0
  157.1790  212.4650  155.9270 N   0  0  0  0  0  0  0  0  0  0  0  0
  157.3160  213.5040  156.9860 C   0  0  0  0  0  2  0  0  0  0  0  0
  158.3780  213.2850  156.1540 C   0  0  1  0  0  0  0  0  0  0  0  0
  159.3090  212.0650  156.2230 C   0  0  0  0  0  3  0  0  0  0  0  0
  157.2630  211.1150  155.6650 C   0  0  0  0  0  0  0  0  0  0  0  0
  156.3840  210.3770  155.1460 O   0  0  0  0  0  0  0  0  0  0  0  0
  158.5500  214.2150  154.9640 C   0  0  0  0  0  2  0  0  0  0  0  0
  158.8770  213.4710  153.7950 O   0  0  0  0  0  0  0  0  0  0  0  0
  156.5460  214.2250  151.1130 C   0  0  0  0  0  2  0  0  0  0  0  0
  158.2530  213.6820  152.5630 C   0  0  0  0  0  0  0  0  0  0  0  0
  157.0090  214.0100  152.4690 N   0  0  0  0  0  0  0  0  0  0  0  0
  159.1570  213.5620  151.0370 S   0  0  0  0  0  0  0  0  0  0  0  0
  157.7790  214.4530  150.2510 C   0  0  0  0  0  2  0  0  0  0  0  0
  1 26  1  0  0  0  0
  3  4  1  0  0  0  0
  3  2  2  0  0  0  0
  4  5  1  0  0  0  0
  5  6  1  6  0  0  0
  6  1  2  0  0  0  0
  7  2  1  6  0  0  0
  7  5  1  0  0  0  0
  7  9  1  0  0  0  0
  9  8  1  1  0  0  0
  9  1  1  0  0  0  0
 10 14  1  0  0  0  0
 11 17  1  0  0  0  0
 12 14  1  0  0  0  0
 12 11  2  0  0  0  0
 13  2  1  0  0  0  0
 13 15  1  0  0  0  0
 14 13  2  0  0  0  0
 17 15  2  0  0  0  0
 17 16  1  0  0  0  0
 18 19  1  0  0  0  0
 19 12  1  0  0  0  0
 20 19  2  0  0  0  0
 21 18  1  0  0  0  0
 22 24  1  0  0  0  0
 22 21  1  0  0  0  0
 24 23  1  6  0  0  0
 24 25  1  0  0  0  0
 26 27  1  0  0  0  0
 27 31  2  0  0  0  0
 28 30  1  0  0  0  0
 28 29  1  0  0  0  0
 30 34  1  6  0  0  0
 30 31  1  0  0  0  0
 30 29  1  0  0  0  0
 32 27  1  0  0  0  0
 32 28  1  0  0  0  0
 33 32  2  0  0  0  0
 35 34  1  0  0  0  0
 36 38  1  0  0  0  0
 37 35  1  0  0  0  0
 38 37  2  0  0  0  0
 39 37  1  0  0  0  0
 40 39  1  0  0  0  0
 40 36  1  0  0  0  0
M  END
>  <MODEL>
2

>  <REMARK>
 VINA RESULT:      -7.7      2.613      9.920
  Name = 
  10 active torsions:
  status: ('A' for Active; 'I' for Inactive)
    1  A    between atoms: C_1  and  C_17
    2  A    between atoms: C_2  and  C_17
    3  A    between atoms: C_6  and  C_15
    4  A    between atoms: C_7  and  C_18
    5  A    between atoms: C_11  and  C_15
    6  A    between atoms: C_11  and  N_22
    7  A    between atoms: O_14  and  C_21
    8  A    between atoms: O_14  and  C_35
    9  A    between atoms: C_16  and  C_36
   10  A    between atoms: C_19  and  C_35
                            x       y       z     vdW  Elec       q    Type
                         _______ _______ _______ _____ _____    ______ ____

>  <TORSDO>
F 10

$$$$
=
 OpenBabel11072410503D

 40 45  0  0  1  0  0  0  0  0999 V2000
  160.9880  209.6810  154.6100 C   0  0  0  0  0  0  0  0  0  0  0  0
  161.1120  207.0790  152.3920 C   0  0  0  0  0  0  0  0  0  0  0  0
  161.6450  205.9740  153.1440 N   0  0  0  0  0  0  0  0  0  0  0  0
  161.5380  206.2000  154.3950 N   0  0  0  0  0  2  0  0  0  0  0  0
  160.8950  207.4550  154.5310 C   0  0  1  0  0  3  0  0  0  0  0  0
  161.2320  208.4310  155.3640 C   0  0  0  0  0  3  0  0  0  0  0  0
  160.5900  207.9590  153.2430 C   0  0  1  0  0  3  0  0  0  0  0  0
  160.4280  210.4050  152.2600 C   0  0  0  0  0  1  0  0  0  0  0  0
  160.6700  209.4060  153.3410 C   0  0  1  0  0  3  0  0  0  0  0  0
  160.7830  205.0030  150.4650 F   0  0  0  0  0  0  0  0  0  0  0  0
  161.7580  207.7290  148.2050 C   0  0  0  0  0  3  0  0  0  0  0  0
  161.3720  206.4500  148.6390 C   0  0  0  0  0  0  0  0  0  0  0  0
  161.3450  207.2790  150.9440 C   0  0  0  0  0  0  0  0  0  0  0  0
  161.1580  206.2290  150.0190 C   0  0  0  0  0  0  0  0  0  0  0  0
  161.7220  208.5450  150.4760 C   0  0  0  0  0  3  0  0  0  0  0  0
  162.3320  210.1180  148.6380 C   0  0  0  0  0  1  0  0  0  0  0  0
  161.9300  208.7690  149.1160 C   0  0  0  0  0  0  0  0  0  0  0  0
  161.4360  204.0090  147.9610 N   0  0  0  0  0  2  0  0  0  0  0  0
  161.1980  205.3800  147.6270 C   0  0  0  0  0  0  0  0  0  0  0  0
  160.8360  205.6810  146.4560 O   0  0  0  0  0  0  0  0  0  0  0  0
  161.2080  202.9140  147.0270 C   0  0  0  0  0  2  0  0  0  0  0  0
  160.8910  201.6220  147.7720 C   0  0  0  0  0  2  0  0  0  0  0  0
  161.2060  201.3300  150.2080 C   0  0  0  0  0  1  0  0  0  0  0  0
  160.3000  201.9080  149.1430 C   0  0  2  0  0  3  0  0  0  0  0  0
  159.0370  201.3290  149.2500 O   0  0  0  0  0  1  0  0  0  0  0  0
  161.1820  211.0520  155.1680 C   0  0  0  0  0  2  0  0  0  0  0  0
  159.8740  211.7610  155.2530 C   0  0  0  0  0  0  0  0  0  0  0  0
  157.7690  212.2420  155.5710 N   0  0  0  0  0  0  0  0  0  0  0  0
  157.4720  213.5990  156.1110 C   0  0  0  0  0  2  0  0  0  0  0  0
  158.2050  213.5060  154.9610 C   0  0  1  0  0  0  0  0  0  0  0  0
  159.6770  213.0700  154.8920 C   0  0  0  0  0  3  0  0  0  0  0  0
  158.6120  211.1570  155.6730 C   0  0  0  0  0  0  0  0  0  0  0  0
  158.2960  209.9540  155.8640 O   0  0  0  0  0  0  0  0  0  0  0  0
  157.4760  213.6710  153.6380 C   0  0  0  0  0  2  0  0  0  0  0  0
  158.1090  212.9020  152.6210 O   0  0  0  0  0  0  0  0  0  0  0  0
  159.8850  214.2320  149.7440 C   0  0  0  0  0  2  0  0  0  0  0  0
  158.4720  213.4360  151.3820 C   0  0  0  0  0  0  0  0  0  0  0  0
  159.6940  213.7250  151.0880 N   0  0  0  0  0  0  0  0  0  0  0  0
  157.2660  213.7020  150.1030 S   0  0  0  0  0  0  0  0  0  0  0  0
  158.6580  213.8300  148.9370 C   0  0  0  0  0  2  0  0  0  0  0  0
  1 26  1  0  0  0  0
  1  6  2  0  0  0  0
  2  3  2  0  0  0  0
  3  4  1  0  0  0  0
  4  5  1  0  0  0  0
  5  6  1  6  0  0  0
  7  2  1  6  0  0  0
  7  9  1  0  0  0  0
  7  5  1  0  0  0  0
  9  8  1  1  0  0  0
  9  1  1  0  0  0  0
 11 12  2  0  0  0  0
 11 17  1  0  0  0  0
 12 14  1  0  0  0  0
 13  2  1  0  0  0  0
 14 10  1  0  0  0  0
 14 13  2  0  0  0  0
 15 13  1  0  0  0  0
 16 17  1  0  0  0  0
 17 15  2  0  0  0  0
 19 18  1  0  0  0  0
 19 12  1  0  0  0  0
 20 19  2  0  0  0  0
 21 22  1  0  0  0  0
 21 18  1  0  0  0  0
 22 24  1  0  0  0  0
 24 25  1  0  0  0  0
 24 23  1  1  0  0  0
 26 27  1  0  0  0  0
 27 32  1  0  0  0  0
 28 32  1  0  0  0  0
 28 29  1  0  0  0  0
 30 34  1  6  0  0  0
 30 28  1  0  0  0  0
 30 29  1  0  0  0  0
 31 30  1  0  0  0  0
 31 27  2  0  0  0  0
 32 33  2  0  0  0  0
 35 34  1  0  0  0  0
 36 38  1  0  0  0  0
 37 35  1  0  0  0  0
 38 37  2  0  0  0  0
 39 37  1  0  0  0  0
 40 36  1  0  0  0  0
 40 39  1  0  0  0  0
M  END
>  <MODEL>
3

>  <REMARK>
 VINA RESULT:      -7.7      3.024      9.575
  Name = 
  10 active torsions:
  status: ('A' for Active; 'I' for Inactive)
    1  A    between atoms: C_1  and  C_17
    2  A    between atoms: C_2  and  C_17
    3  A    between atoms: C_6  and  C_15
    4  A    between atoms: C_7  and  C_18
    5  A    between atoms: C_11  and  C_15
    6  A    between atoms: C_11  and  N_22
    7  A    between atoms: O_14  and  C_21
    8  A    between atoms: O_14  and  C_35
    9  A    between atoms: C_16  and  C_36
   10  A    between atoms: C_19  and  C_35
                            x       y       z     vdW  Elec       q    Type
                         _______ _______ _______ _____ _____    ______ ____

>  <TORSDO>
F 10

$$$$
=
 OpenBabel11072410503D

 40 45  0  0  1  0  0  0  0  0999 V2000
  160.1570  210.7440  155.0310 C   0  0  0  0  0  0  0  0  0  0  0  0
  160.8360  207.8730  153.2990 C   0  0  0  0  0  0  0  0  0  0  0  0
  161.4290  206.9870  154.2670 N   0  0  0  0  0  0  0  0  0  0  0  0
  161.1680  207.3870  155.4500 N   0  0  0  0  0  2  0  0  0  0  0  0
  160.3590  208.5430  155.3210 C   0  0  1  0  0  3  0  0  0  0  0  0
  160.4820  209.6750  156.0020 C   0  0  0  0  0  3  0  0  0  0  0  0
  160.1220  208.7910  153.9470 C   0  0  1  0  0  3  0  0  0  0  0  0
  159.7470  211.0040  152.5560 C   0  0  0  0  0  1  0  0  0  0  0  0
  160.0050  210.2320  153.8060 C   0  0  1  0  0  3  0  0  0  0  0  0
  160.7270  205.5350  151.6700 F   0  0  0  0  0  0  0  0  0  0  0  0
  161.8190  207.9500  149.1290 C   0  0  0  0  0  3  0  0  0  0  0  0
  161.4300  206.7310  149.7090 C   0  0  0  0  0  0  0  0  0  0  0  0
  161.1860  207.8750  151.8610 C   0  0  0  0  0  0  0  0  0  0  0  0
  161.1060  206.6990  151.0840 C   0  0  0  0  0  0  0  0  0  0  0  0
  161.5680  209.0760  151.2480 C   0  0  0  0  0  3  0  0  0  0  0  0
  162.2900  210.3960  149.2590 C   0  0  0  0  0  1  0  0  0  0  0  0
  161.8840  209.1140  149.8920 C   0  0  0  0  0  0  0  0  0  0  0  0
  162.0650  205.4770  147.6000 N   0  0  0  0  0  2  0  0  0  0  0  0
  161.3710  205.5230  148.8510 C   0  0  0  0  0  0  0  0  0  0  0  0
  160.6990  204.5240  149.2260 O   0  0  0  0  0  0  0  0  0  0  0  0
  162.1000  204.2900  146.7560 C   0  0  0  0  0  2  0  0  0  0  0  0
  162.3920  204.6620  145.3060 C   0  0  0  0  0  2  0  0  0  0  0  0
  160.3510  206.0380  145.0650 C   0  0  0  0  0  1  0  0  0  0  0  0
  161.1050  204.8470  144.5170 C   0  0  2  0  0  3  0  0  0  0  0  0
  160.3110  203.7070  144.6260 O   0  0  0  0  0  1  0  0  0  0  0  0
  160.1150  212.1990  155.3630 C   0  0  0  0  0  2  0  0  0  0  0  0
  158.7870  212.7710  155.0020 C   0  0  0  0  0  0  0  0  0  0  0  0
  156.6460  213.0690  154.7070 N   0  0  0  0  0  0  0  0  0  0  0  0
  156.1330  214.4520  154.9150 C   0  0  0  0  0  2  0  0  0  0  0  0
  157.1430  214.2650  154.0130 C   0  0  1  0  0  0  0  0  0  0  0  0
  158.6070  213.9820  154.3840 C   0  0  0  0  0  3  0  0  0  0  0  0
  157.5020  212.1060  155.1970 C   0  0  0  0  0  0  0  0  0  0  0  0
  157.2240  210.9190  155.5090 O   0  0  0  0  0  0  0  0  0  0  0  0
  156.7720  214.1520  152.5440 C   0  0  0  0  0  2  0  0  0  0  0  0
  157.9400  213.9910  151.7470 O   0  0  0  0  0  0  0  0  0  0  0  0
  158.7010  213.3570  148.2520 C   0  0  0  0  0  2  0  0  0  0  0  0
  157.8950  213.8140  150.3620 C   0  0  0  0  0  0  0  0  0  0  0  0
  158.9480  213.5460  149.6670 N   0  0  0  0  0  0  0  0  0  0  0  0
  156.3580  213.8920  149.4710 S   0  0  0  0  0  0  0  0  0  0  0  0
  157.2150  213.0710  148.0920 C   0  0  0  0  0  2  0  0  0  0  0  0
  1 26  1  0  0  0  0
  1  6  2  0  0  0  0
  2  3  2  0  0  0  0
  3  4  1  0  0  0  0
  5  4  1  0  0  0  0
  5  6  1  6  0  0  0
  7  2  1  6  0  0  0
  7  5  1  0  0  0  0
  9  8  1  1  0  0  0
  9  7  1  0  0  0  0
  9  1  1  0  0  0  0
 11 12  2  0  0  0  0
 11 17  1  0  0  0  0
 12 14  1  0  0  0  0
 13  2  1  0  0  0  0
 14 10  1  0  0  0  0
 14 13  2  0  0  0  0
 15 13  1  0  0  0  0
 16 17  1  0  0  0  0
 17 15  2  0  0  0  0
 18 19  1  0  0  0  0
 19 20  2  0  0  0  0
 19 12  1  0  0  0  0
 21 18  1  0  0  0  0
 22 21  1  0  0  0  0
 24 25  1  0  0  0  0
 24 23  1  1  0  0  0
 24 22  1  0  0  0  0
 27 32  1  0  0  0  0
 27 26  1  0  0  0  0
 28 29  1  0  0  0  0
 28 32  1  0  0  0  0
 30 34  1  6  0  0  0
 30 31  1  0  0  0  0
 30 28  1  0  0  0  0
 30 29  1  0  0  0  0
 31 27  2  0  0  0  0
 32 33  2  0  0  0  0
 35 34  1  0  0  0  0
 36 38  1  0  0  0  0
 37 35  1  0  0  0  0
 38 37  2  0  0  0  0
 39 37  1  0  0  0  0
 40 36  1  0  0  0  0
 40 39  1  0  0  0  0
M  END
>  <MODEL>
4

>  <REMARK>
 VINA RESULT:      -7.1      3.102      9.576
  Name = 
  10 active torsions:
  status: ('A' for Active; 'I' for Inactive)
    1  A    between atoms: C_1  and  C_17
    2  A    between atoms: C_2  and  C_17
    3  A    between atoms: C_6  and  C_15
    4  A    between atoms: C_7  and  C_18
    5  A    between atoms: C_11  and  C_15
    6  A    between atoms: C_11  and  N_22
    7  A    between atoms: O_14  and  C_21
    8  A    between atoms: O_14  and  C_35
    9  A    between atoms: C_16  and  C_36
   10  A    between atoms: C_19  and  C_35
                            x       y       z     vdW  Elec       q    Type
                         _______ _______ _______ _____ _____    ______ ____

>  <TORSDO>
F 10

$$$$
=
 OpenBabel11072410503D

 40 45  0  0  1  0  0  0  0  0999 V2000
  161.9780  207.7250  149.8050 C   0  0  0  0  0  0  0  0  0  0  0  0
  161.3390  207.7710  153.1660 C   0  0  0  0  0  0  0  0  0  0  0  0
  160.6780  206.5210  153.4350 N   0  0  0  0  0  0  0  0  0  0  0  0
  160.8820  205.6990  152.4810 N   0  0  0  0  0  2  0  0  0  0  0  0
  161.7190  206.3570  151.5460 C   0  0  1  0  0  3  0  0  0  0  0  0
  161.5800  206.3630  150.2270 C   0  0  0  0  0  3  0  0  0  0  0  0
  162.0340  207.6480  152.0370 C   0  0  1  0  0  3  0  0  0  0  0  0
  162.5250  209.9550  150.8480 C   0  0  0  0  0  1  0  0  0  0  0  0
  162.1860  208.5030  150.8720 C   0  0  1  0  0  3  0  0  0  0  0  0
  159.6550  209.8390  152.1560 F   0  0  0  0  0  0  0  0  0  0  0  0
  160.5520  211.3560  155.3780 C   0  0  0  0  0  3  0  0  0  0  0  0
  159.9590  211.1980  154.1150 C   0  0  0  0  0  0  0  0  0  0  0  0
  161.0670  209.0230  153.9070 C   0  0  0  0  0  0  0  0  0  0  0  0
  160.2150  210.0180  153.3790 C   0  0  0  0  0  0  0  0  0  0  0  0
  161.6340  209.2090  155.1750 C   0  0  0  0  0  3  0  0  0  0  0  0
  161.9940  210.5490  157.2480 C   0  0  0  0  0  1  0  0  0  0  0  0
  161.3810  210.3680  155.9060 C   0  0  0  0  0  0  0  0  0  0  0  0
  159.3810  212.9490  152.3760 N   0  0  0  0  0  2  0  0  0  0  0  0
  159.0800  212.2770  153.6030 C   0  0  0  0  0  0  0  0  0  0  0  0
  158.0550  212.6100  154.2580 O   0  0  0  0  0  0  0  0  0  0  0  0
  158.5120  213.9620  151.7920 C   0  0  0  0  0  2  0  0  0  0  0  0
  158.4970  213.8540  150.2710 C   0  0  0  0  0  2  0  0  0  0  0  0
  156.1200  214.1720  150.8740 C   0  0  0  0  0  1  0  0  0  0  0  0
  157.0860  213.9980  149.7230 C   0  0  2  0  0  3  0  0  0  0  0  0
  156.7370  212.8610  148.9970 O   0  0  0  0  0  1  0  0  0  0  0  0
  162.0280  208.1850  148.3860 C   0  0  0  0  0  2  0  0  0  0  0  0
  161.7640  207.0420  147.4660 C   0  0  0  0  0  0  0  0  0  0  0  0
  160.7950  205.4640  146.3120 N   0  0  0  0  0  0  0  0  0  0  0  0
  161.3250  205.2220  144.9410 C   0  0  0  0  0  2  0  0  0  0  0  0
  162.1970  205.1560  145.9930 C   0  0  1  0  0  0  0  0  0  0  0  0
  162.7330  206.3720  146.7630 C   0  0  0  0  0  3  0  0  0  0  0  0
  160.4560  206.4380  147.2260 C   0  0  0  0  0  0  0  0  0  0  0  0
  159.3570  206.5830  147.8220 O   0  0  0  0  0  0  0  0  0  0  0  0
  162.5240  203.7850  146.5590 C   0  0  0  0  0  2  0  0  0  0  0  0
  161.3350  203.1230  146.9780 O   0  0  0  0  0  0  0  0  0  0  0  0
  160.7920  202.5720  150.5270 C   0  0  0  0  0  2  0  0  0  0  0  0
  161.1800  202.5790  148.2550 C   0  0  0  0  0  0  0  0  0  0  0  0
  160.9670  203.3130  149.2940 N   0  0  0  0  0  0  0  0  0  0  0  0
  161.2120  200.8220  148.5200 S   0  0  0  0  0  0  0  0  0  0  0  0
  160.4490  201.1400  150.1420 C   0  0  0  0  0  2  0  0  0  0  0  0
  1  6  2  0  0  0  0
  1  9  1  0  0  0  0
  2  3  2  0  0  0  0
  2 13  1  0  0  0  0
  4  3  1  0  0  0  0
  5  6  1  6  0  0  0
  5  7  1  0  0  0  0
  5  4  1  0  0  0  0
  7  2  1  1  0  0  0
  9  8  1  6  0  0  0
  9  7  1  0  0  0  0
 10 14  1  0  0  0  0
 11 17  1  0  0  0  0
 12 11  2  0  0  0  0
 13 15  1  0  0  0  0
 14 13  2  0  0  0  0
 14 12  1  0  0  0  0
 15 17  2  0  0  0  0
 17 16  1  0  0  0  0
 18 19  1  0  0  0  0
 19 12  1  0  0  0  0
 19 20  2  0  0  0  0
 21 18  1  0  0  0  0
 22 21  1  0  0  0  0
 24 22  1  0  0  0  0
 24 23  1  1  0  0  0
 25 24  1  0  0  0  0
 26  1  1  0  0  0  0
 27 26  1  0  0  0  0
 28 32  1  0  0  0  0
 29 30  1  0  0  0  0
 29 28  1  0  0  0  0
 30 28  1  0  0  0  0
 30 34  1  1  0  0  0
 30 31  1  0  0  0  0
 31 27  2  0  0  0  0
 32 27  1  0  0  0  0
 32 33  2  0  0  0  0
 34 35  1  0  0  0  0
 35 37  1  0  0  0  0
 37 39  1  0  0  0  0
 37 38  2  0  0  0  0
 38 36  1  0  0  0  0
 39 40  1  0  0  0  0
 40 36  1  0  0  0  0
M  END
>  <MODEL>
5

>  <REMARK>
 VINA RESULT:      -7.0      2.458      3.987
  Name = 
  10 active torsions:
  status: ('A' for Active; 'I' for Inactive)
    1  A    between atoms: C_1  and  C_17
    2  A    between atoms: C_2  and  C_17
    3  A    between atoms: C_6  and  C_15
    4  A    between atoms: C_7  and  C_18
    5  A    between atoms: C_11  and  C_15
    6  A    between atoms: C_11  and  N_22
    7  A    between atoms: O_14  and  C_21
    8  A    between atoms: O_14  and  C_35
    9  A    between atoms: C_16  and  C_36
   10  A    between atoms: C_19  and  C_35
                            x       y       z     vdW  Elec       q    Type
                         _______ _______ _______ _____ _____    ______ ____

>  <TORSDO>
F 10

$$$$
=
 OpenBabel11072410503D

 40 45  0  0  1  0  0  0  0  0999 V2000
  161.8530  207.8580  150.0120 C   0  0  0  0  0  0  0  0  0  0  0  0
  161.3410  207.8800  153.3940 C   0  0  0  0  0  0  0  0  0  0  0  0
  160.5520  206.7050  153.6580 N   0  0  0  0  0  0  0  0  0  0  0  0
  160.6280  205.8930  152.6770 N   0  0  0  0  0  2  0  0  0  0  0  0
  161.5010  206.4790  151.7280 C   0  0  1  0  0  3  0  0  0  0  0  0
  161.3180  206.5380  150.4150 C   0  0  0  0  0  3  0  0  0  0  0  0
  161.9780  207.7110  152.2370 C   0  0  1  0  0  3  0  0  0  0  0  0
  162.6860  209.9810  151.0870 C   0  0  0  0  0  1  0  0  0  0  0  0
  162.1850  208.5760  151.0880 C   0  0  1  0  0  3  0  0  0  0  0  0
  159.3510  209.8620  152.8980 F   0  0  0  0  0  0  0  0  0  0  0  0
  161.0670  211.4690  155.7190 C   0  0  0  0  0  3  0  0  0  0  0  0
  160.1450  211.2660  154.6800 C   0  0  0  0  0  0  0  0  0  0  0  0
  161.2390  209.1330  154.1750 C   0  0  0  0  0  0  0  0  0  0  0  0
  160.2300  210.0840  153.9080 C   0  0  0  0  0  0  0  0  0  0  0  0
  162.1370  209.3630  155.2260 C   0  0  0  0  0  3  0  0  0  0  0  0
  163.0160  210.7530  157.1020 C   0  0  0  0  0  1  0  0  0  0  0  0
  162.0540  210.5240  155.9930 C   0  0  0  0  0  0  0  0  0  0  0  0
  158.2990  212.7940  155.5060 N   0  0  0  0  0  2  0  0  0  0  0  0
  159.1110  212.3000  154.4360 C   0  0  0  0  0  0  0  0  0  0  0  0
  158.9420  212.7500  153.2690 O   0  0  0  0  0  0  0  0  0  0  0  0
  157.3230  213.8610  155.3340 C   0  0  0  0  0  2  0  0  0  0  0  0
  155.9070  213.3480  155.5800 C   0  0  0  0  0  2  0  0  0  0  0  0
  155.5580  210.9660  155.0120 C   0  0  0  0  0  1  0  0  0  0  0  0
  155.9240  211.9270  156.1220 C   0  0  2  0  0  3  0  0  0  0  0  0
  155.0060  211.8020  157.1620 O   0  0  0  0  0  1  0  0  0  0  0  0
  161.9060  208.3490  148.6030 C   0  0  0  0  0  2  0  0  0  0  0  0
  161.7040  207.2150  147.6560 C   0  0  0  0  0  0  0  0  0  0  0  0
  160.8250  205.6070  146.4720 N   0  0  0  0  0  0  0  0  0  0  0  0
  161.3500  205.4370  145.0880 C   0  0  0  0  0  2  0  0  0  0  0  0
  162.2390  205.4020  146.1270 C   0  0  1  0  0  0  0  0  0  0  0  0
  162.7050  206.6300  146.9230 C   0  0  0  0  0  3  0  0  0  0  0  0
  160.4360  206.5330  147.4160 C   0  0  0  0  0  0  0  0  0  0  0  0
  159.3380  206.5890  148.0300 O   0  0  0  0  0  0  0  0  0  0  0  0
  162.6630  204.0400  146.6520 C   0  0  0  0  0  2  0  0  0  0  0  0
  161.5220  203.2460  146.9540 O   0  0  0  0  0  0  0  0  0  0  0  0
  160.7920  202.7200  150.4730 C   0  0  0  0  0  2  0  0  0  0  0  0
  161.2850  202.7100  148.2220 C   0  0  0  0  0  0  0  0  0  0  0  0
  161.0530  203.4520  149.2510 N   0  0  0  0  0  0  0  0  0  0  0  0
  161.2350  200.9520  148.4870 S   0  0  0  0  0  0  0  0  0  0  0  0
  160.4110  201.3020  150.0720 C   0  0  0  0  0  2  0  0  0  0  0  0
  1  6  2  0  0  0  0
  1  9  1  0  0  0  0
  2  3  2  0  0  0  0
  2 13  1  0  0  0  0
  4  3  1  0  0  0  0
  5  6  1  6  0  0  0
  5  7  1  0  0  0  0
  5  4  1  0  0  0  0
  7  2  1  1  0  0  0
  9  8  1  6  0  0  0
  9  7  1  0  0  0  0
 10 14  1  0  0  0  0
 11 17  1  0  0  0  0
 12 11  2  0  0  0  0
 13 15  1  0  0  0  0
 14 13  2  0  0  0  0
 14 12  1  0  0  0  0
 15 17  2  0  0  0  0
 17 16  1  0  0  0  0
 19 12  1  0  0  0  0
 19 18  1  0  0  0  0
 20 19  2  0  0  0  0
 21 18  1  0  0  0  0
 21 22  1  0  0  0  0
 22 24  1  0  0  0  0
 24 23  1  6  0  0  0
 24 25  1  0  0  0  0
 26  1  1  0  0  0  0
 27 26  1  0  0  0  0
 28 32  1  0  0  0  0
 29 30  1  0  0  0  0
 29 28  1  0  0  0  0
 30 28  1  0  0  0  0
 30 34  1  1  0  0  0
 30 31  1  0  0  0  0
 31 27  2  0  0  0  0
 32 27  1  0  0  0  0
 32 33  2  0  0  0  0
 34 35  1  0  0  0  0
 35 37  1  0  0  0  0
 37 39  1  0  0  0  0
 37 38  2  0  0  0  0
 38 36  1  0  0  0  0
 39 40  1  0  0  0  0
 40 36  1  0  0  0  0
M  END
>  <MODEL>
6

>  <REMARK>
 VINA RESULT:      -6.5      2.089      3.705
  Name = 
  10 active torsions:
  status: ('A' for Active; 'I' for Inactive)
    1  A    between atoms: C_1  and  C_17
    2  A    between atoms: C_2  and  C_17
    3  A    between atoms: C_6  and  C_15
    4  A    between atoms: C_7  and  C_18
    5  A    between atoms: C_11  and  C_15
    6  A    between atoms: C_11  and  N_22
    7  A    between atoms: O_14  and  C_21
    8  A    between atoms: O_14  and  C_35
    9  A    between atoms: C_16  and  C_36
   10  A    between atoms: C_19  and  C_35
                            x       y       z     vdW  Elec       q    Type
                         _______ _______ _______ _____ _____    ______ ____

>  <TORSDO>
F 10

$$$$
=
 OpenBabel11072410503D

 40 45  0  0  1  0  0  0  0  0999 V2000
  160.3760  212.7500  145.1000 C   0  0  0  0  0  0  0  0  0  0  0  0
  161.5540  213.6550  148.1810 C   0  0  0  0  0  0  0  0  0  0  0  0
  162.9550  213.9220  147.9790 N   0  0  0  0  0  0  0  0  0  0  0  0
  163.1960  214.1000  146.7400 N   0  0  0  0  0  2  0  0  0  0  0  0
  161.9560  213.9930  146.0620 C   0  0  1  0  0  3  0  0  0  0  0  0
  161.7250  213.3350  144.9330 C   0  0  0  0  0  3  0  0  0  0  0  0
  160.9290  213.7650  147.0110 C   0  0  1  0  0  3  0  0  0  0  0  0
  158.6470  212.4400  146.9090 C   0  0  0  0  0  1  0  0  0  0  0  0
  159.9300  212.9490  146.3440 C   0  0  1  0  0  3  0  0  0  0  0  0
  162.4140  211.1930  149.3350 F   0  0  0  0  0  0  0  0  0  0  0  0
  159.9200  212.1610  151.8500 C   0  0  0  0  0  3  0  0  0  0  0  0
  160.9110  211.4110  151.1970 C   0  0  0  0  0  0  0  0  0  0  0  0
  160.9920  213.1140  149.4380 C   0  0  0  0  0  0  0  0  0  0  0  0
  161.4540  211.8980  149.9860 C   0  0  0  0  0  0  0  0  0  0  0  0
  160.0080  213.8420  150.1210 C   0  0  0  0  0  3  0  0  0  0  0  0
  158.4280  214.1540  152.0260 C   0  0  0  0  0  1  0  0  0  0  0  0
  159.4730  213.3690  151.3180 C   0  0  0  0  0  0  0  0  0  0  0  0
  160.4630  209.0200  151.9100 N   0  0  0  0  0  2  0  0  0  0  0  0
  161.3550  210.1350  151.8100 C   0  0  0  0  0  0  0  0  0  0  0  0
  162.5320  210.0310  152.2510 O   0  0  0  0  0  0  0  0  0  0  0  0
  160.8710  207.7240  152.4340 C   0  0  0  0  0  2  0  0  0  0  0  0
  160.9680  206.6910  151.3150 C   0  0  0  0  0  2  0  0  0  0  0  0
  161.2280  204.2620  151.6990 C   0  0  0  0  0  1  0  0  0  0  0  0
  161.9540  205.5890  151.6670 C   0  0  2  0  0  3  0  0  0  0  0  0
  162.5190  205.8350  152.9170 O   0  0  0  0  0  1  0  0  0  0  0  0
  159.6680  211.9560  144.0520 C   0  0  0  0  0  2  0  0  0  0  0  0
  160.1830  212.3160  142.7000 C   0  0  0  0  0  0  0  0  0  0  0  0
  160.5650  213.3340  140.8080 N   0  0  0  0  0  0  0  0  0  0  0  0
  161.9590  213.2620  140.2850 C   0  0  0  0  0  2  0  0  0  0  0  0
  161.3080  212.0910  140.5560 C   0  0  1  0  0  0  0  0  0  0  0  0
  161.0440  211.5410  141.9660 C   0  0  0  0  0  3  0  0  0  0  0  0
  159.8030  213.5060  141.9430 C   0  0  0  0  0  0  0  0  0  0  0  0
  158.8870  214.3480  142.1320 O   0  0  0  0  0  0  0  0  0  0  0  0
  160.6410  211.3650  139.3990 C   0  0  0  0  0  2  0  0  0  0  0  0
  160.3590  210.0160  139.7550 O   0  0  0  0  0  0  0  0  0  0  0  0
  162.3260  206.9720  139.5170 C   0  0  0  0  0  2  0  0  0  0  0  0
  161.1420  208.9400  139.3310 C   0  0  0  0  0  0  0  0  0  0  0  0
  161.5610  208.0310  140.1430 N   0  0  0  0  0  0  0  0  0  0  0  0
  161.5680  208.7270  137.6180 S   0  0  0  0  0  0  0  0  0  0  0  0
  162.0070  207.0100  138.0300 C   0  0  0  0  0  2  0  0  0  0  0  0
  1  9  1  0  0  0  0
  2 13  1  0  0  0  0
  3  2  2  0  0  0  0
  4  3  1  0  0  0  0
  5  6  1  6  0  0  0
  5  4  1  0  0  0  0
  5  7  1  0  0  0  0
  6  1  2  0  0  0  0
  7  2  1  1  0  0  0
  9  8  1  6  0  0  0
  9  7  1  0  0  0  0
 10 14  1  0  0  0  0
 12 19  1  0  0  0  0
 12 11  2  0  0  0  0
 13 14  2  0  0  0  0
 13 15  1  0  0  0  0
 14 12  1  0  0  0  0
 15 17  2  0  0  0  0
 17 11  1  0  0  0  0
 17 16  1  0  0  0  0
 18 21  1  0  0  0  0
 19 18  1  0  0  0  0
 19 20  2  0  0  0  0
 22 24  1  0  0  0  0
 22 21  1  0  0  0  0
 24 23  1  1  0  0  0
 24 25  1  0  0  0  0
 26  1  1  0  0  0  0
 27 26  1  0  0  0  0
 28 32  1  0  0  0  0
 29 30  1  0  0  0  0
 29 28  1  0  0  0  0
 30 34  1  6  0  0  0
 30 28  1  0  0  0  0
 30 31  1  0  0  0  0
 31 27  2  0  0  0  0
 32 33  2  0  0  0  0
 32 27  1  0  0  0  0
 34 35  1  0  0  0  0
 36 38  1  0  0  0  0
 37 35  1  0  0  0  0
 37 38  2  0  0  0  0
 39 40  1  0  0  0  0
 39 37  1  0  0  0  0
 40 36  1  0  0  0  0
M  END
>  <MODEL>
7

>  <REMARK>
 VINA RESULT:      -6.1      6.095      9.255
  Name = 
  10 active torsions:
  status: ('A' for Active; 'I' for Inactive)
    1  A    between atoms: C_1  and  C_17
    2  A    between atoms: C_2  and  C_17
    3  A    between atoms: C_6  and  C_15
    4  A    between atoms: C_7  and  C_18
    5  A    between atoms: C_11  and  C_15
    6  A    between atoms: C_11  and  N_22
    7  A    between atoms: O_14  and  C_21
    8  A    between atoms: O_14  and  C_35
    9  A    between atoms: C_16  and  C_36
   10  A    between atoms: C_19  and  C_35
                            x       y       z     vdW  Elec       q    Type
                         _______ _______ _______ _____ _____    ______ ____

>  <TORSDO>
F 10

$$$$
=
 OpenBabel11072410503D

 40 45  0  0  1  0  0  0  0  0999 V2000
  160.2410  213.2420  149.6180 C   0  0  0  0  0  0  0  0  0  0  0  0
  162.0010  210.4070  150.3720 C   0  0  0  0  0  0  0  0  0  0  0  0
  162.6280  210.0200  149.1350 N   0  0  0  0  0  0  0  0  0  0  0  0
  162.6400  211.0010  148.3200 N   0  0  0  0  0  2  0  0  0  0  0  0
  162.0490  212.0990  148.9930 C   0  0  1  0  0  3  0  0  0  0  0  0
  161.1570  212.9460  148.4950 C   0  0  0  0  0  3  0  0  0  0  0  0
  161.7060  211.7040  150.3090 C   0  0  1  0  0  3  0  0  0  0  0  0
  159.7710  212.4220  151.9570 C   0  0  0  0  0  1  0  0  0  0  0  0
  160.5230  212.4660  150.6690 C   0  0  1  0  0  3  0  0  0  0  0  0
  162.1090  207.5800  150.0150 F   0  0  0  0  0  0  0  0  0  0  0  0
  160.7450  207.6740  153.4240 C   0  0  0  0  0  3  0  0  0  0  0  0
  161.2250  207.1560  152.2100 C   0  0  0  0  0  0  0  0  0  0  0  0
  161.5580  209.4470  151.4070 C   0  0  0  0  0  0  0  0  0  0  0  0
  161.6400  208.0530  151.1980 C   0  0  0  0  0  0  0  0  0  0  0  0
  161.0840  209.9290  152.6340 C   0  0  0  0  0  3  0  0  0  0  0  0
  160.1740  209.5790  154.9310 C   0  0  0  0  0  1  0  0  0  0  0  0
  160.6780  209.0500  153.6360 C   0  0  0  0  0  0  0  0  0  0  0  0
  161.1950  205.0940  150.7380 N   0  0  0  0  0  2  0  0  0  0  0  0
  161.2820  205.6850  152.0380 C   0  0  0  0  0  0  0  0  0  0  0  0
  161.4070  204.9430  153.0510 O   0  0  0  0  0  0  0  0  0  0  0  0
  161.3210  203.6610  150.5080 C   0  0  0  0  0  2  0  0  0  0  0  0
  160.9420  203.3050  149.0740 C   0  0  0  0  0  2  0  0  0  0  0  0
  160.7980  201.0700  150.1230 C   0  0  0  0  0  1  0  0  0  0  0  0
  160.2720  201.9420  149.0040 C   0  0  2  0  0  3  0  0  0  0  0  0
  160.5480  201.3360  147.7800 O   0  0  0  0  0  1  0  0  0  0  0  0
  159.0950  214.1970  149.5400 C   0  0  0  0  0  2  0  0  0  0  0  0
  158.3390  213.9890  148.2730 C   0  0  0  0  0  0  0  0  0  0  0  0
  156.8400  213.3940  146.8030 N   0  0  0  0  0  0  0  0  0  0  0  0
  156.5660  214.3630  145.7050 C   0  0  0  0  0  2  0  0  0  0  0  0
  157.8540  213.9430  145.8910 C   0  0  1  0  0  0  0  0  0  0  0  0
  158.7680  214.4010  147.0370 C   0  0  0  0  0  3  0  0  0  0  0  0
  157.0720  213.2710  148.1560 C   0  0  0  0  0  0  0  0  0  0  0  0
  156.4530  212.5480  148.9780 O   0  0  0  0  0  0  0  0  0  0  0  0
  158.3650  212.8130  145.0140 C   0  0  0  0  0  2  0  0  0  0  0  0
  158.9140  213.3290  143.8060 O   0  0  0  0  0  0  0  0  0  0  0  0
  161.6120  211.7720  141.9380 C   0  0  0  0  0  2  0  0  0  0  0  0
  160.1500  212.9210  143.2990 C   0  0  0  0  0  0  0  0  0  0  0  0
  160.2530  212.0400  142.3630 N   0  0  0  0  0  0  0  0  0  0  0  0
  161.6690  213.6370  143.8820 S   0  0  0  0  0  0  0  0  0  0  0  0
  162.4640  212.9460  142.3980 C   0  0  0  0  0  2  0  0  0  0  0  0
  1  9  1  0  0  0  0
  2 13  1  0  0  0  0
  3  2  2  0  0  0  0
  4  5  1  0  0  0  0
  4  3  1  0  0  0  0
  5  6  1  6  0  0  0
  5  7  1  0  0  0  0
  6  1  2  0  0  0  0
  7  2  1  6  0  0  0
  7  9  1  0  0  0  0
  9  8  1  1  0  0  0
 10 14  1  0  0  0  0
 11 17  1  0  0  0  0
 12 11  2  0  0  0  0
 13 15  1  0  0  0  0
 14 13  2  0  0  0  0
 14 12  1  0  0  0  0
 15 17  2  0  0  0  0
 17 16  1  0  0  0  0
 18 19  1  0  0  0  0
 19 12  1  0  0  0  0
 19 20  2  0  0  0  0
 21 18  1  0  0  0  0
 22 21  1  0  0  0  0
 24 22  1  0  0  0  0
 24 23  1  1  0  0  0
 25 24  1  0  0  0  0
 26  1  1  0  0  0  0
 27 26  1  0  0  0  0
 28 32  1  0  0  0  0
 29 30  1  0  0  0  0
 29 28  1  0  0  0  0
 30 34  1  6  0  0  0
 30 28  1  0  0  0  0
 30 31  1  0  0  0  0
 31 27  2  0  0  0  0
 32 27  1  0  0  0  0
 32 33  2  0  0  0  0
 35 34  1  0  0  0  0
 36 38  1  0  0  0  0
 36 40  1  0  0  0  0
 37 35  1  0  0  0  0
 37 39  1  0  0  0  0
 38 37  2  0  0  0  0
 40 39  1  0  0  0  0
M  END
>  <MODEL>
8

>  <REMARK>
 VINA RESULT:      -5.8      4.899      9.028
  Name = 
  10 active torsions:
  status: ('A' for Active; 'I' for Inactive)
    1  A    between atoms: C_1  and  C_17
    2  A    between atoms: C_2  and  C_17
    3  A    between atoms: C_6  and  C_15
    4  A    between atoms: C_7  and  C_18
    5  A    between atoms: C_11  and  C_15
    6  A    between atoms: C_11  and  N_22
    7  A    between atoms: O_14  and  C_21
    8  A    between atoms: O_14  and  C_35
    9  A    between atoms: C_16  and  C_36
   10  A    between atoms: C_19  and  C_35
                            x       y       z     vdW  Elec       q    Type
                         _______ _______ _______ _____ _____    ______ ____

>  <TORSDO>
F 10

$$$$
=
 OpenBabel11072410503D

 40 45  0  0  1  0  0  0  0  0999 V2000
  162.4460  207.2600  148.5710 C   0  0  0  0  0  0  0  0  0  0  0  0
  161.3710  209.2860  151.1080 C   0  0  0  0  0  0  0  0  0  0  0  0
  161.9310  210.5790  150.8140 N   0  0  0  0  0  0  0  0  0  0  0  0
  162.2910  210.6360  149.5920 N   0  0  0  0  0  2  0  0  0  0  0  0
  161.9550  209.3900  149.0070 C   0  0  1  0  0  3  0  0  0  0  0  0
  162.7130  208.6660  148.1950 C   0  0  0  0  0  3  0  0  0  0  0  0
  161.3240  208.5780  149.9820 C   0  0  1  0  0  3  0  0  0  0  0  0
  161.2590  205.9680  150.3820 C   0  0  0  0  0  1  0  0  0  0  0  0
  161.6770  207.2060  149.6620 C   0  0  1  0  0  3  0  0  0  0  0  0
  160.5720  210.9750  153.2630 F   0  0  0  0  0  0  0  0  0  0  0  0
  160.6530  207.7690  155.0510 C   0  0  0  0  0  3  0  0  0  0  0  0
  160.4880  209.1430  154.8170 C   0  0  0  0  0  0  0  0  0  0  0  0
  161.1330  208.7850  152.4810 C   0  0  0  0  0  0  0  0  0  0  0  0
  160.7240  209.6500  153.5180 C   0  0  0  0  0  0  0  0  0  0  0  0
  161.2780  207.4160  152.7470 C   0  0  0  0  0  3  0  0  0  0  0  0
  161.2040  205.4570  154.2900 C   0  0  0  0  0  1  0  0  0  0  0  0
  161.0420  206.9110  154.0240 C   0  0  0  0  0  0  0  0  0  0  0  0
  158.9350  210.8770  155.8180 N   0  0  0  0  0  2  0  0  0  0  0  0
  160.0670  210.0100  155.9430 C   0  0  0  0  0  0  0  0  0  0  0  0
  160.7150  209.9870  157.0250 O   0  0  0  0  0  0  0  0  0  0  0  0
  158.4340  211.6920  156.9170 C   0  0  0  0  0  2  0  0  0  0  0  0
  156.9900  212.1130  156.6670 C   0  0  0  0  0  2  0  0  0  0  0  0
  155.9410  212.8550  154.5540 C   0  0  0  0  0  1  0  0  0  0  0  0
  156.5170  211.6670  155.2930 C   0  0  2  0  0  3  0  0  0  0  0  0
  155.5360  210.6850  155.4210 O   0  0  0  0  0  1  0  0  0  0  0  0
  163.0470  206.0770  147.8850 C   0  0  0  0  0  2  0  0  0  0  0  0
  162.1610  205.6210  146.7770 C   0  0  0  0  0  0  0  0  0  0  0  0
  160.4940  205.3940  145.3870 N   0  0  0  0  0  0  0  0  0  0  0  0
  160.8460  205.0840  143.9730 C   0  0  0  0  0  2  0  0  0  0  0  0
  161.3140  204.2540  144.9530 C   0  0  1  0  0  0  0  0  0  0  0  0
  162.4600  204.5950  145.9170 C   0  0  0  0  0  3  0  0  0  0  0  0
  160.8340  206.1550  146.4850 C   0  0  0  0  0  0  0  0  0  0  0  0
  160.0880  206.9250  147.1450 O   0  0  0  0  0  0  0  0  0  0  0  0
  160.5390  202.9770  145.2330 C   0  0  0  0  0  2  0  0  0  0  0  0
  161.3160  202.0860  146.0260 O   0  0  0  0  0  0  0  0  0  0  0  0
  160.4750  202.5400  149.5300 C   0  0  0  0  0  2  0  0  0  0  0  0
  161.1380  201.9470  147.4040 C   0  0  0  0  0  0  0  0  0  0  0  0
  160.6170  202.8780  148.1290 N   0  0  0  0  0  0  0  0  0  0  0  0
  161.5720  200.4410  148.2440 S   0  0  0  0  0  0  0  0  0  0  0  0
  160.5520  201.0230  149.6340 C   0  0  0  0  0  2  0  0  0  0  0  0
  1  9  1  0  0  0  0
  2 13  1  0  0  0  0
  3  2  2  0  0  0  0
  4  3  1  0  0  0  0
  5  6  1  1  0  0  0
  5  4  1  0  0  0  0
  5  7  1  0  0  0  0
  6  1  2  0  0  0  0
  7  2  1  1  0  0  0
  9  7  1  0  0  0  0
  9  8  1  6  0  0  0
 10 14  1  0  0  0  0
 12 11  1  0  0  0  0
 12 19  1  0  0  0  0
 13 15  2  0  0  0  0
 13 14  1  0  0  0  0
 14 12  2  0  0  0  0
 15 17  1  0  0  0  0
 17 16  1  0  0  0  0
 17 11  2  0  0  0  0
 18 19  1  0  0  0  0
 18 21  1  0  0  0  0
 19 20  2  0  0  0  0
 22 21  1  0  0  0  0
 24 23  1  1  0  0  0
 24 25  1  0  0  0  0
 24 22  1  0  0  0  0
 26  1  1  0  0  0  0
 27 26  1  0  0  0  0
 28 32  1  0  0  0  0
 29 30  1  0  0  0  0
 29 28  1  0  0  0  0
 30 34  1  1  0  0  0
 30 28  1  0  0  0  0
 30 31  1  0  0  0  0
 31 27  2  0  0  0  0
 32 27  1  0  0  0  0
 32 33  2  0  0  0  0
 34 35  1  0  0  0  0
 35 37  1  0  0  0  0
 36 40  1  0  0  0  0
 37 38  2  0  0  0  0
 37 39  1  0  0  0  0
 38 36  1  0  0  0  0
 39 40  1  0  0  0  0
M  END
>  <MODEL>
9

>  <REMARK>
 VINA RESULT:      -5.7      2.339      4.081
  Name = 
  10 active torsions:
  status: ('A' for Active; 'I' for Inactive)
    1  A    between atoms: C_1  and  C_17
    2  A    between atoms: C_2  and  C_17
    3  A    between atoms: C_6  and  C_15
    4  A    between atoms: C_7  and  C_18
    5  A    between atoms: C_11  and  C_15
    6  A    between atoms: C_11  and  N_22
    7  A    between atoms: O_14  and  C_21
    8  A    between atoms: O_14  and  C_35
    9  A    between atoms: C_16  and  C_36
   10  A    between atoms: C_19  and  C_35
                            x       y       z     vdW  Elec       q    Type
                         _______ _______ _______ _____ _____    ______ ____

>  <TORSDO>
F 10

$$$$
