=
 OpenBabel11072410163D

 37 43  0  0  1  0  0  0  0  0999 V2000
  161.7850  206.3270  154.0770 C   0  0  1  0  0  3  0  0  0  0  0  0
  160.7390  209.9040  152.5900 N   0  0  1  0  0  0  0  0  0  0  0  0
  159.5540  211.8340  153.8170 C   0  0  1  0  0  0  0  0  0  0  0  0
  158.5700  212.9510  153.9160 C   0  0  0  0  0  0  0  0  0  0  0  0
  160.8160  204.6990  150.2440 C   0  0  0  0  0  3  0  0  0  0  0  0
  161.1290  205.2280  151.5000 C   0  0  0  0  0  0  0  0  0  0  0  0
  162.0690  209.0230  148.2900 N   0  0  0  0  0  0  0  0  0  0  0  0
  160.6370  211.8430  154.8930 C   0  0  1  0  0  3  0  0  0  0  0  0
  161.7540  210.4480  151.6610 C   0  0  2  0  0  3  0  0  0  0  0  0
  159.1030  213.0670  156.3450 O   0  0  0  0  0  0  0  0  0  0  0  0
  162.0790  207.1750  150.4480 C   0  0  0  0  0  3  0  0  0  0  0  0
  161.4980  207.3810  155.1470 C   0  0  0  0  0  2  0  0  0  0  0  0
  157.9650  213.3950  152.9030 O   0  0  0  0  0  0  0  0  0  0  0  0
  158.8020  211.0300  151.5790 O   0  0  0  0  0  1  0  0  0  0  0  0
  161.7280  207.2320  146.8530 O   0  0  0  0  0  0  0  0  0  0  0  0
  161.3440  209.5540  153.8980 C   0  0  2  0  0  3  0  0  0  0  0  0
  160.9400  212.0340  157.2610 F   0  0  0  0  0  0  0  0  0  0  0  0
  161.2650  210.3060  150.2070 C   0  0  0  0  0  2  0  0  0  0  0  0
  161.7200  206.7010  149.1830 C   0  0  0  0  0  0  0  0  0  0  0  0
  161.7940  206.4480  151.5950 C   0  0  0  0  0  0  0  0  0  0  0  0
  157.5010  214.4420  155.4200 O   0  0  0  0  0  0  0  0  0  0  0  0
  161.1180  205.4230  149.0810 C   0  0  0  0  0  0  0  0  0  0  0  0
  160.5880  205.3750  153.9260 C   0  0  0  0  0  2  0  0  0  0  0  0
  162.3980  210.1660  149.1950 C   0  0  2  0  0  3  0  0  0  0  0  0
  161.9960  210.4620  147.9090 C   0  0  0  0  0  2  0  0  0  0  0  0
  160.7420  204.8780  147.8190 N   0  0  0  0  0  1  0  0  0  0  0  0
  160.7050  204.5860  152.7010 N   0  0  0  0  0  2  0  0  0  0  0  0
  158.8290  210.6170  153.8470 O   0  0  0  0  0  0  0  0  0  0  0  0
  162.1240  206.9710  152.8450 O   0  0  0  0  0  0  0  0  0  0  0  0
  159.6100  210.8530  152.7040 C   0  0  1  0  0  0  0  0  0  0  0  0
  160.5570  208.4790  154.6460 C   0  0  0  0  0  2  0  0  0  0  0  0
  161.8620  207.6310  148.0390 C   0  0  0  0  0  0  0  0  0  0  0  0
  159.9790  211.9320  156.2720 C   0  0  2  0  0  3  0  0  0  0  0  0
  158.3440  213.5210  155.2550 C   0  0  0  0  0  0  0  0  0  0  0  0
  161.7120  210.7570  154.7770 C   0  0  0  0  0  2  0  0  0  0  0  0
  163.8310  210.7500  152.3950 C   0  0  0  0  0  1  0  0  0  0  0  0
  162.9870  209.7930  151.8270 O   0  0  0  0  0  0  0  0  0  0  0  0
  1 23  1  6  0  0  0
  1 12  1  0  0  0  0
  2 30  1  0  0  0  0
  2 16  1  0  0  0  0
  3 28  1  0  0  0  0
  3  4  1  0  0  0  0
  3  8  1  0  0  0  0
  4 34  1  0  0  0  0
  5  6  1  0  0  0  0
  6 20  2  0  0  0  0
  6 27  1  0  0  0  0
  7 24  1  0  0  0  0
  8 33  1  0  0  0  0
  9 37  1  0  0  0  0
  9  2  1  0  0  0  0
 11 20  1  0  0  0  0
 13  4  2  0  0  0  0
 14 30  1  0  0  0  0
 15 32  2  0  0  0  0
 16 31  1  0  0  0  0
 16 35  1  0  0  0  0
 18  9  1  0  0  0  0
 19 11  2  0  0  0  0
 20 29  1  0  0  0  0
 22 19  1  0  0  0  0
 22  5  2  0  0  0  0
 24 18  1  0  0  0  0
 25  7  1  0  0  0  0
 25 24  1  0  0  0  0
 26 22  1  0  0  0  0
 27 23  1  0  0  0  0
 29  1  1  0  0  0  0
 30  3  1  0  0  0  0
 30 28  1  0  0  0  0
 31 12  1  0  0  0  0
 32  7  1  0  0  0  0
 32 19  1  0  0  0  0
 33 10  1  0  0  0  0
 33 17  1  0  0  0  0
 34 21  2  0  0  0  0
 34 10  1  0  0  0  0
 35  8  1  0  0  0  0
 37 36  1  0  0  0  0
M  END
>  <MODEL>
1

>  <REMARK>
 VINA RESULT:      -1.7      0.000      0.000
  Name = 
  1 active torsions:
  status: ('A' for Active; 'I' for Inactive)
    1  A    between atoms: C_9  and  O_28
                            x       y       z     vdW  Elec       q    Type
                         _______ _______ _______ _____ _____    ______ ____

>  <TORSDO>
F 1

$$$$
