=
 OpenBabel11072415243D

 25 29  0  0  1  0  0  0  0  0999 V2000
  161.6370  206.2550  151.4320 C   0  0  2  0  0  0  0  0  0  0  0  0
  160.6640  211.1650  152.3270 C   0  0  2  0  0  3  0  0  0  0  0  0
  159.9390  210.2720  154.2860 N   0  0  0  0  0  2  0  0  0  0  0  0
  159.1180  211.1710  153.9150 N   0  0  0  0  0  0  0  0  0  0  0  0
  161.0240  206.3020  152.8320 C   0  0  2  0  0  3  0  0  0  0  0  0
  160.8910  207.6970  153.3880 C   0  0  0  0  0  3  0  0  0  0  0  0
  161.0490  210.1580  153.3480 C   0  0  1  0  0  3  0  0  0  0  0  0
  159.5250  211.7310  152.6730 C   0  0  0  0  0  3  0  0  0  0  0  0
  162.0410  210.0340  150.5800 C   0  0  1  0  0  3  0  0  0  0  0  0
  162.4990  205.9620  152.6430 C   0  0  0  0  0  2  0  0  0  0  0  0
  161.9340  207.5520  150.7350 C   0  0  0  0  0  3  0  0  0  0  0  0
  161.1480  211.1210  150.9870 N   0  0  0  0  0  2  0  0  0  0  0  0
  161.1390  208.8090  152.6850 C   0  0  0  0  0  0  0  0  0  0  0  0
  161.6720  208.7390  151.2930 C   0  0  0  0  0  0  0  0  0  0  0  0
  160.7480  202.8000  149.0360 C   0  0  0  0  0  0  0  0  0  0  0  0
  160.4770  201.7110  148.2790 F   0  0  0  0  0  0  0  0  0  0  0  0
  161.2540  205.1630  149.2040 C   0  0  0  0  0  3  0  0  0  0  0  0
  161.0860  203.8120  151.2090 C   0  0  0  0  0  3  0  0  0  0  0  0
  160.8070  202.6880  150.4270 C   0  0  0  0  0  3  0  0  0  0  0  0
  160.9750  204.0370  148.4240 C   0  0  0  0  0  3  0  0  0  0  0  0
  161.2990  205.0580  150.6010 C   0  0  0  0  0  0  0  0  0  0  0  0
  162.0180  209.9020  149.0590 C   0  0  0  0  0  2  0  0  0  0  0  0
  160.9920  211.6720  147.6340 O   0  0  0  0  0  0  0  0  0  0  0  0
  163.0710  211.9780  148.5520 O   0  0  0  0  0  1  0  0  0  0  0  0
  162.0580  211.2440  148.4140 C   0  0  0  0  0  0  0  0  0  0  0  0
  1 21  1  6  0  0  0
  1 10  1  0  0  0  0
  1  5  1  0  0  0  0
  2  8  1  6  0  0  0
  2  7  1  0  0  0  0
  4  3  1  0  0  0  0
  5 10  1  1  0  0  0
  5  6  1  0  0  0  0
  7 13  1  6  0  0  0
  7  3  1  0  0  0  0
  8  4  2  0  0  0  0
  9 22  1  6  0  0  0
  9 12  1  0  0  0  0
  9 14  1  0  0  0  0
 11 14  2  0  0  0  0
 11  1  1  0  0  0  0
 12  2  1  0  0  0  0
 13  6  2  0  0  0  0
 14 13  1  0  0  0  0
 15 19  1  0  0  0  0
 16 15  1  0  0  0  0
 17 21  2  0  0  0  0
 19 18  2  0  0  0  0
 20 15  2  0  0  0  0
 20 17  1  0  0  0  0
 21 18  1  0  0  0  0
 23 25  2  0  0  0  0
 25 24  1  0  0  0  0
 25 22  1  0  0  0  0
M  END
>  <MODEL>
1

>  <REMARK>
 VINA RESULT:      -8.9      0.000      0.000
  Name = 
  3 active torsions:
  status: ('A' for Active; 'I' for Inactive)
    1  A    between atoms: C_2  and  C_22
    2  A    between atoms: C_13  and  C_25
    3  A    between atoms: C_16  and  C_25
                            x       y       z     vdW  Elec       q    Type
                         _______ _______ _______ _____ _____    ______ ____

>  <TORSDO>
F 3

$$$$
=
 OpenBabel11072415243D

 25 29  0  0  1  0  0  0  0  0999 V2000
  161.7600  207.1490  150.2780 C   0  0  2  0  0  0  0  0  0  0  0  0
  160.4350  211.8350  151.7430 C   0  0  2  0  0  3  0  0  0  0  0  0
  159.6580  210.6480  153.5170 N   0  0  0  0  0  2  0  0  0  0  0  0
  158.8050  211.5440  153.2150 N   0  0  0  0  0  0  0  0  0  0  0  0
  161.0670  206.9750  151.6290 C   0  0  2  0  0  3  0  0  0  0  0  0
  160.8170  208.2730  152.3540 C   0  0  0  0  0  3  0  0  0  0  0  0
  160.8240  210.7220  152.6460 C   0  0  1  0  0  3  0  0  0  0  0  0
  159.2460  212.2860  152.0860 C   0  0  0  0  0  3  0  0  0  0  0  0
  161.9770  211.0240  149.9550 C   0  0  1  0  0  3  0  0  0  0  0  0
  162.5690  206.7430  151.4930 C   0  0  0  0  0  2  0  0  0  0  0  0
  162.0150  208.5410  149.7760 C   0  0  0  0  0  3  0  0  0  0  0  0
  160.9960  211.9970  150.4420 N   0  0  0  0  0  2  0  0  0  0  0  0
  161.0350  209.4810  151.8190 C   0  0  0  0  0  0  0  0  0  0  0  0
  161.6490  209.6270  150.4670 C   0  0  0  0  0  0  0  0  0  0  0  0
  161.2220  203.9980  147.4060 C   0  0  0  0  0  0  0  0  0  0  0  0
  161.0620  203.0040  146.5000 F   0  0  0  0  0  0  0  0  0  0  0  0
  161.7130  206.3150  147.9100 C   0  0  0  0  0  3  0  0  0  0  0  0
  161.2330  204.7590  149.7050 C   0  0  0  0  0  3  0  0  0  0  0  0
  161.0680  203.7330  148.7690 C   0  0  0  0  0  3  0  0  0  0  0  0
  161.5480  205.2880  146.9770 C   0  0  0  0  0  3  0  0  0  0  0  0
  161.5440  206.0580  149.2780 C   0  0  0  0  0  0  0  0  0  0  0  0
  162.0470  211.0970  148.4320 C   0  0  0  0  0  2  0  0  0  0  0  0
  161.0090  213.1080  147.3860 O   0  0  0  0  0  0  0  0  0  0  0  0
  163.1890  213.1610  148.0960 O   0  0  0  0  0  1  0  0  0  0  0  0
  162.1170  212.5120  147.9750 C   0  0  0  0  0  0  0  0  0  0  0  0
  1 21  1  6  0  0  0
  1 10  1  0  0  0  0
  1  5  1  0  0  0  0
  2  8  1  6  0  0  0
  2  7  1  0  0  0  0
  4  3  1  0  0  0  0
  5 10  1  1  0  0  0
  5  6  1  0  0  0  0
  7 13  1  6  0  0  0
  7  3  1  0  0  0  0
  8  4  2  0  0  0  0
  9 22  1  6  0  0  0
  9 12  1  0  0  0  0
  9 14  1  0  0  0  0
 11  1  1  0  0  0  0
 11 14  2  0  0  0  0
 12  2  1  0  0  0  0
 13  6  2  0  0  0  0
 14 13  1  0  0  0  0
 15 19  1  0  0  0  0
 16 15  1  0  0  0  0
 17 21  2  0  0  0  0
 19 18  2  0  0  0  0
 20 15  2  0  0  0  0
 20 17  1  0  0  0  0
 21 18  1  0  0  0  0
 23 25  2  0  0  0  0
 25 24  1  0  0  0  0
 25 22  1  0  0  0  0
M  END
>  <MODEL>
2

>  <REMARK>
 VINA RESULT:      -7.8      1.159      1.447
  Name = 
  3 active torsions:
  status: ('A' for Active; 'I' for Inactive)
    1  A    between atoms: C_2  and  C_22
    2  A    between atoms: C_13  and  C_25
    3  A    between atoms: C_16  and  C_25
                            x       y       z     vdW  Elec       q    Type
                         _______ _______ _______ _____ _____    ______ ____

>  <TORSDO>
F 3

$$$$
=
 OpenBabel11072415243D

 25 29  0  0  1  0  0  0  0  0999 V2000
  161.8050  206.6490  151.1210 C   0  0  2  0  0  0  0  0  0  0  0  0
  160.3900  209.1260  155.3310 C   0  0  2  0  0  3  0  0  0  0  0  0
  160.3590  206.9940  156.1160 N   0  0  0  0  0  2  0  0  0  0  0  0
  159.3450  207.6140  156.5700 N   0  0  0  0  0  0  0  0  0  0  0  0
  161.5910  205.5670  152.1800 C   0  0  2  0  0  3  0  0  0  0  0  0
  161.4070  206.1110  153.5730 C   0  0  0  0  0  3  0  0  0  0  0  0
  161.1810  207.8690  155.2890 C   0  0  1  0  0  3  0  0  0  0  0  0
  159.3150  208.9450  156.0720 C   0  0  0  0  0  3  0  0  0  0  0  0
  161.3990  209.9220  153.1920 C   0  0  1  0  0  3  0  0  0  0  0  0
  162.9950  205.8960  151.6800 C   0  0  0  0  0  2  0  0  0  0  0  0
  161.7080  208.0890  151.5360 C   0  0  0  0  0  3  0  0  0  0  0  0
  160.4960  210.1310  154.3260 N   0  0  0  0  0  2  0  0  0  0  0  0
  161.2890  207.4150  153.8570 C   0  0  0  0  0  0  0  0  0  0  0  0
  161.4310  208.4520  152.7940 C   0  0  0  0  0  0  0  0  0  0  0  0
  160.8310  205.6040  147.0680 C   0  0  0  0  0  0  0  0  0  0  0  0
  160.5330  205.2760  145.7890 F   0  0  0  0  0  0  0  0  0  0  0  0
  161.2310  207.2880  148.7620 C   0  0  0  0  0  3  0  0  0  0  0  0
  161.3590  204.9370  149.3350 C   0  0  0  0  0  3  0  0  0  0  0  0
  161.0520  204.5990  148.0140 C   0  0  0  0  0  3  0  0  0  0  0  0
  160.9250  206.9480  147.4410 C   0  0  0  0  0  3  0  0  0  0  0  0
  161.4380  206.2840  149.7170 C   0  0  0  0  0  0  0  0  0  0  0  0
  160.9860  210.8390  152.0430 C   0  0  0  0  0  2  0  0  0  0  0  0
  158.5610  211.1610  152.5230 O   0  0  0  0  0  0  0  0  0  0  0  0
  160.0210  212.9230  152.6780 O   0  0  0  0  0  1  0  0  0  0  0  0
  159.8390  211.7000  152.4420 C   0  0  0  0  0  0  0  0  0  0  0  0
  1 21  1  6  0  0  0
  1 11  1  0  0  0  0
  1 10  1  0  0  0  0
  1  5  1  0  0  0  0
  2  8  1  6  0  0  0
  3  4  1  0  0  0  0
  5 10  1  1  0  0  0
  5  6  1  0  0  0  0
  6 13  2  0  0  0  0
  7 13  1  6  0  0  0
  7  2  1  0  0  0  0
  7  3  1  0  0  0  0
  8  4  2  0  0  0  0
  9 22  1  6  0  0  0
  9 12  1  0  0  0  0
 11 14  2  0  0  0  0
 12  2  1  0  0  0  0
 14  9  1  0  0  0  0
 14 13  1  0  0  0  0
 15 20  2  0  0  0  0
 15 19  1  0  0  0  0
 16 15  1  0  0  0  0
 17 21  2  0  0  0  0
 18 21  1  0  0  0  0
 19 18  2  0  0  0  0
 20 17  1  0  0  0  0
 22 25  1  0  0  0  0
 25 23  2  0  0  0  0
 25 24  1  0  0  0  0
M  END
>  <MODEL>
3

>  <REMARK>
 VINA RESULT:      -7.2      2.418      3.217
  Name = 
  3 active torsions:
  status: ('A' for Active; 'I' for Inactive)
    1  A    between atoms: C_2  and  C_22
    2  A    between atoms: C_13  and  C_25
    3  A    between atoms: C_16  and  C_25
                            x       y       z     vdW  Elec       q    Type
                         _______ _______ _______ _____ _____    ______ ____

>  <TORSDO>
F 3

$$$$
=
 OpenBabel11072415243D

 25 29  0  0  1  0  0  0  0  0999 V2000
  161.7200  205.9060  148.9190 C   0  0  2  0  0  0  0  0  0  0  0  0
  160.5370  202.3120  145.5220 C   0  0  2  0  0  3  0  0  0  0  0  0
  160.0870  204.1650  144.2860 N   0  0  0  0  0  2  0  0  0  0  0  0
  159.1760  203.3010  144.0800 N   0  0  0  0  0  0  0  0  0  0  0  0
  161.2600  206.6590  147.6700 C   0  0  2  0  0  3  0  0  0  0  0  0
  161.1000  205.7780  146.4580 C   0  0  0  0  0  3  0  0  0  0  0  0
  161.0950  203.6520  145.2070 C   0  0  1  0  0  3  0  0  0  0  0  0
  159.4080  202.1380  144.8640 C   0  0  0  0  0  3  0  0  0  0  0  0
  161.7870  202.2150  147.6810 C   0  0  1  0  0  3  0  0  0  0  0  0
  162.7250  206.6860  148.0960 C   0  0  0  0  0  2  0  0  0  0  0  0
  161.8560  204.4120  148.8470 C   0  0  0  0  0  3  0  0  0  0  0  0
  160.8750  201.6020  146.7120 N   0  0  0  0  0  2  0  0  0  0  0  0
  161.1990  204.4440  146.4850 C   0  0  0  0  0  0  0  0  0  0  0  0
  161.5800  203.7230  147.7340 C   0  0  0  0  0  0  0  0  0  0  0  0
  160.8000  207.6990  152.7150 C   0  0  0  0  0  0  0  0  0  0  0  0
  160.5180  208.2630  153.9130 F   0  0  0  0  0  0  0  0  0  0  0  0
  161.2130  205.7270  151.3710 C   0  0  0  0  0  3  0  0  0  0  0  0
  161.2620  207.9230  150.3480 C   0  0  0  0  0  3  0  0  0  0  0  0
  160.9720  208.5050  151.5860 C   0  0  0  0  0  3  0  0  0  0  0  0
  160.9230  206.3100  152.6080 C   0  0  0  0  0  3  0  0  0  0  0  0
  161.3710  206.5300  150.2340 C   0  0  0  0  0  0  0  0  0  0  0  0
  161.6060  201.5420  149.0390 C   0  0  0  0  0  2  0  0  0  0  0  0
  160.1760  202.6330  150.7650 O   0  0  0  0  0  1  0  0  0  0  0  0
  159.2270  201.4140  149.0700 O   0  0  0  0  0  0  0  0  0  0  0  0
  160.2700  201.8630  149.6130 C   0  0  0  0  0  0  0  0  0  0  0  0
  1 21  1  1  0  0  0
  2  8  1  1  0  0  0
  2 12  1  0  0  0  0
  4  3  1  0  0  0  0
  4  8  2  0  0  0  0
  5  6  1  6  0  0  0
  5 10  1  0  0  0  0
  5  1  1  0  0  0  0
  6 13  2  0  0  0  0
  7  3  1  6  0  0  0
  7  2  1  0  0  0  0
  7 13  1  0  0  0  0
  9 14  1  0  0  0  0
  9 22  1  1  0  0  0
 10  1  1  0  0  0  0
 11  1  1  0  0  0  0
 12  9  1  0  0  0  0
 13 14  1  0  0  0  0
 14 11  2  0  0  0  0
 15 16  1  0  0  0  0
 17 20  2  0  0  0  0
 18 19  1  0  0  0  0
 19 15  2  0  0  0  0
 20 15  1  0  0  0  0
 21 18  2  0  0  0  0
 21 17  1  0  0  0  0
 22 25  1  0  0  0  0
 24 25  2  0  0  0  0
 25 23  1  0  0  0  0
M  END
>  <MODEL>
4

>  <REMARK>
 VINA RESULT:      -6.9      5.319      8.130
  Name = 
  3 active torsions:
  status: ('A' for Active; 'I' for Inactive)
    1  A    between atoms: C_2  and  C_22
    2  A    between atoms: C_13  and  C_25
    3  A    between atoms: C_16  and  C_25
                            x       y       z     vdW  Elec       q    Type
                         _______ _______ _______ _____ _____    ______ ____

>  <TORSDO>
F 3

$$$$
=
 OpenBabel11072415243D

 25 29  0  0  1  0  0  0  0  0999 V2000
  161.7230  207.0100  150.9280 C   0  0  2  0  0  0  0  0  0  0  0  0
  160.9410  204.5640  146.5380 C   0  0  2  0  0  3  0  0  0  0  0  0
  161.1670  206.6850  145.7560 N   0  0  0  0  0  2  0  0  0  0  0  0
  160.2170  206.1150  145.1310 N   0  0  0  0  0  0  0  0  0  0  0  0
  161.7590  208.0900  149.8450 C   0  0  2  0  0  3  0  0  0  0  0  0
  161.7950  207.5400  148.4430 C   0  0  0  0  0  3  0  0  0  0  0  0
  161.7800  205.7770  146.7170 C   0  0  1  0  0  3  0  0  0  0  0  0
  160.0260  204.7930  145.6180 C   0  0  0  0  0  3  0  0  0  0  0  0
  161.5110  203.7390  148.8240 C   0  0  1  0  0  3  0  0  0  0  0  0
  163.0320  207.6920  150.5860 C   0  0  0  0  0  2  0  0  0  0  0  0
  161.6220  205.5730  150.5040 C   0  0  0  0  0  3  0  0  0  0  0  0
  160.8140  203.5660  147.5480 N   0  0  0  0  0  2  0  0  0  0  0  0
  161.6580  206.2420  148.1450 C   0  0  0  0  0  0  0  0  0  0  0  0
  161.5530  205.2100  149.2180 C   0  0  0  0  0  0  0  0  0  0  0  0
  160.1080  208.1760  154.7350 C   0  0  0  0  0  0  0  0  0  0  0  0
  159.6070  208.5440  155.9380 F   0  0  0  0  0  0  0  0  0  0  0  0
  161.0270  206.4730  153.2790 C   0  0  0  0  0  3  0  0  0  0  0  0
  160.7430  208.7390  152.4680 C   0  0  0  0  0  3  0  0  0  0  0  0
  160.2270  209.1180  153.7100 C   0  0  0  0  0  3  0  0  0  0  0  0
  160.5110  206.8540  154.5210 C   0  0  0  0  0  3  0  0  0  0  0  0
  161.1340  207.4110  152.2430 C   0  0  0  0  0  0  0  0  0  0  0  0
  160.8530  202.8590  149.8830 C   0  0  0  0  0  2  0  0  0  0  0  0
  161.3740  200.6750  148.8000 O   0  0  0  0  0  0  0  0  0  0  0  0
  159.2020  201.2730  149.2250 O   0  0  0  0  0  1  0  0  0  0  0  0
  160.4250  201.5590  149.2970 C   0  0  0  0  0  0  0  0  0  0  0  0
  1 21  1  1  0  0  0
  2  8  1  1  0  0  0
  2  7  1  0  0  0  0
  2 12  1  0  0  0  0
  4  8  2  0  0  0  0
  4  3  1  0  0  0  0
  5  6  1  6  0  0  0
  5 10  1  0  0  0  0
  5  1  1  0  0  0  0
  7  3  1  6  0  0  0
  7 13  1  0  0  0  0
  9 14  1  0  0  0  0
  9 22  1  1  0  0  0
 10  1  1  0  0  0  0
 11  1  1  0  0  0  0
 12  9  1  0  0  0  0
 13  6  2  0  0  0  0
 13 14  1  0  0  0  0
 14 11  2  0  0  0  0
 15 16  1  0  0  0  0
 17 20  2  0  0  0  0
 18 19  1  0  0  0  0
 19 15  2  0  0  0  0
 20 15  1  0  0  0  0
 21 18  2  0  0  0  0
 21 17  1  0  0  0  0
 23 25  2  0  0  0  0
 24 25  1  0  0  0  0
 25 22  1  0  0  0  0
M  END
>  <MODEL>
5

>  <REMARK>
 VINA RESULT:      -6.8      4.999      7.366
  Name = 
  3 active torsions:
  status: ('A' for Active; 'I' for Inactive)
    1  A    between atoms: C_2  and  C_22
    2  A    between atoms: C_13  and  C_25
    3  A    between atoms: C_16  and  C_25
                            x       y       z     vdW  Elec       q    Type
                         _______ _______ _______ _____ _____    ______ ____

>  <TORSDO>
F 3

$$$$
=
 OpenBabel11072415243D

 25 29  0  0  1  0  0  0  0  0999 V2000
  160.8230  208.5270  153.9100 C   0  0  2  0  0  0  0  0  0  0  0  0
  158.0700  212.7190  154.7510 C   0  0  2  0  0  3  0  0  0  0  0  0
  157.5110  211.5210  156.5990 N   0  0  0  0  0  2  0  0  0  0  0  0
  156.4680  212.0910  156.1470 N   0  0  0  0  0  0  0  0  0  0  0  0
  160.0900  208.2780  155.2290 C   0  0  2  0  0  3  0  0  0  0  0  0
  159.4100  209.5020  155.7840 C   0  0  0  0  0  3  0  0  0  0  0  0
  158.6810  211.8590  155.7970 C   0  0  1  0  0  3  0  0  0  0  0  0
  156.7750  212.8250  154.9690 C   0  0  0  0  0  3  0  0  0  0  0  0
  159.9370  212.2450  153.1630 C   0  0  1  0  0  3  0  0  0  0  0  0
  161.6010  208.4920  155.2100 C   0  0  0  0  0  2  0  0  0  0  0  0
  160.7090  209.8810  153.2700 C   0  0  0  0  0  3  0  0  0  0  0  0
  158.6760  212.9220  153.4770 N   0  0  0  0  0  2  0  0  0  0  0  0
  159.3170  210.6670  155.1310 C   0  0  0  0  0  0  0  0  0  0  0  0
  159.9820  210.8660  153.8100 C   0  0  0  0  0  0  0  0  0  0  0  0
  161.3190  205.0900  151.3780 C   0  0  0  0  0  0  0  0  0  0  0  0
  161.4660  204.0050  150.5820 F   0  0  0  0  0  0  0  0  0  0  0  0
  161.1320  206.0560  153.5920 C   0  0  0  0  0  3  0  0  0  0  0  0
  161.0450  207.4820  151.6340 C   0  0  0  0  0  3  0  0  0  0  0  0
  161.1960  206.3620  150.8120 C   0  0  0  0  0  3  0  0  0  0  0  0
  161.2830  204.9370  152.7680 C   0  0  0  0  0  3  0  0  0  0  0  0
  161.0250  207.3350  153.0290 C   0  0  0  0  0  0  0  0  0  0  0  0
  160.1210  212.1970  151.6490 C   0  0  0  0  0  2  0  0  0  0  0  0
  158.1620  213.2170  150.4920 O   0  0  0  0  0  0  0  0  0  0  0  0
  160.0530  214.4520  150.8840 O   0  0  0  0  0  1  0  0  0  0  0  0
  159.4470  213.3550  150.9990 C   0  0  0  0  0  0  0  0  0  0  0  0
  1 21  1  6  0  0  0
  1 10  1  0  0  0  0
  1  5  1  0  0  0  0
  2  8  1  6  0  0  0
  2  7  1  0  0  0  0
  4  3  1  0  0  0  0
  5 10  1  1  0  0  0
  5  6  1  0  0  0  0
  7 13  1  6  0  0  0
  7  3  1  0  0  0  0
  8  4  2  0  0  0  0
  9 22  1  6  0  0  0
  9 12  1  0  0  0  0
  9 14  1  0  0  0  0
 11 14  2  0  0  0  0
 11  1  1  0  0  0  0
 12  2  1  0  0  0  0
 13  6  2  0  0  0  0
 14 13  1  0  0  0  0
 15 20  1  0  0  0  0
 16 15  1  0  0  0  0
 18 21  2  0  0  0  0
 19 15  2  0  0  0  0
 19 18  1  0  0  0  0
 20 17  2  0  0  0  0
 21 17  1  0  0  0  0
 23 25  2  0  0  0  0
 24 25  1  0  0  0  0
 25 22  1  0  0  0  0
M  END
>  <MODEL>
6

>  <REMARK>
 VINA RESULT:      -6.7      2.551      3.804
  Name = 
  3 active torsions:
  status: ('A' for Active; 'I' for Inactive)
    1  A    between atoms: C_2  and  C_22
    2  A    between atoms: C_13  and  C_25
    3  A    between atoms: C_16  and  C_25
                            x       y       z     vdW  Elec       q    Type
                         _______ _______ _______ _____ _____    ______ ____

>  <TORSDO>
F 3

$$$$
=
 OpenBabel11072415243D

 25 29  0  0  1  0  0  0  0  0999 V2000
  160.9550  210.0220  152.3260 C   0  0  2  0  0  0  0  0  0  0  0  0
  161.3180  204.9620  152.6810 C   0  0  2  0  0  3  0  0  0  0  0  0
  161.8550  205.2290  150.4890 N   0  0  0  0  0  2  0  0  0  0  0  0
  161.0920  204.2170  150.6060 N   0  0  0  0  0  0  0  0  0  0  0  0
  161.3450  209.5400  150.9280 C   0  0  2  0  0  3  0  0  0  0  0  0
  161.7460  208.0890  150.8770 C   0  0  0  0  0  3  0  0  0  0  0  0
  162.1300  205.8290  151.7890 C   0  0  1  0  0  3  0  0  0  0  0  0
  160.7090  204.0400  151.9630 C   0  0  0  0  0  3  0  0  0  0  0  0
  161.1840  206.7470  154.4200 C   0  0  1  0  0  3  0  0  0  0  0  0
  162.3390  210.3190  151.7840 C   0  0  0  0  0  2  0  0  0  0  0  0
  160.9080  209.0190  153.4430 C   0  0  0  0  0  3  0  0  0  0  0  0
  160.8650  205.3930  153.9620 N   0  0  0  0  0  2  0  0  0  0  0  0
  161.6350  207.2460  151.9120 C   0  0  0  0  0  0  0  0  0  0  0  0
  161.1850  207.7240  153.2520 C   0  0  0  0  0  0  0  0  0  0  0  0
  158.2860  213.3880  152.4390 C   0  0  0  0  0  0  0  0  0  0  0  0
  157.4410  214.4460  152.4660 F   0  0  0  0  0  0  0  0  0  0  0  0
  160.2900  212.3270  151.5870 C   0  0  0  0  0  3  0  0  0  0  0  0
  158.8980  211.1730  153.2000 C   0  0  0  0  0  3  0  0  0  0  0  0
  158.0250  212.2640  153.2270 C   0  0  0  0  0  3  0  0  0  0  0  0
  159.4160  213.4180  151.6150 C   0  0  0  0  0  3  0  0  0  0  0  0
  160.0410  211.2050  152.3880 C   0  0  0  0  0  0  0  0  0  0  0  0
  160.2140  207.1470  155.5290 C   0  0  0  0  0  2  0  0  0  0  0  0
  160.1120  209.1560  157.0020 O   0  0  0  0  0  1  0  0  0  0  0  0
  162.0740  207.9960  156.7520 O   0  0  0  0  0  0  0  0  0  0  0  0
  160.8530  208.1110  156.4660 C   0  0  0  0  0  0  0  0  0  0  0  0
  1 21  1  1  0  0  0
  1 11  1  0  0  0  0
  2  8  1  6  0  0  0
  2 12  1  0  0  0  0
  3  4  1  0  0  0  0
  4  8  2  0  0  0  0
  5  6  1  1  0  0  0
  5 10  1  0  0  0  0
  5  1  1  0  0  0  0
  6 13  2  0  0  0  0
  7  3  1  6  0  0  0
  7 13  1  0  0  0  0
  7  2  1  0  0  0  0
  9 22  1  1  0  0  0
 10  1  1  0  0  0  0
 12  9  1  0  0  0  0
 13 14  1  0  0  0  0
 14 11  2  0  0  0  0
 14  9  1  0  0  0  0
 15 16  1  0  0  0  0
 15 19  1  0  0  0  0
 17 20  1  0  0  0  0
 17 21  2  0  0  0  0
 18 19  2  0  0  0  0
 20 15  2  0  0  0  0
 21 18  1  0  0  0  0
 22 25  1  0  0  0  0
 25 24  2  0  0  0  0
 25 23  1  0  0  0  0
M  END
>  <MODEL>
7

>  <REMARK>
 VINA RESULT:      -6.3      4.581      7.404
  Name = 
  3 active torsions:
  status: ('A' for Active; 'I' for Inactive)
    1  A    between atoms: C_2  and  C_22
    2  A    between atoms: C_13  and  C_25
    3  A    between atoms: C_16  and  C_25
                            x       y       z     vdW  Elec       q    Type
                         _______ _______ _______ _____ _____    ______ ____

>  <TORSDO>
F 3

$$$$
=
 OpenBabel11072415243D

 25 29  0  0  1  0  0  0  0  0999 V2000
  161.4240  208.8290  151.9500 C   0  0  2  0  0  0  0  0  0  0  0  0
  161.5870  205.4030  148.1950 C   0  0  2  0  0  3  0  0  0  0  0  0
  161.7450  207.3120  146.9740 N   0  0  0  0  0  2  0  0  0  0  0  0
  160.9640  206.5050  146.3760 N   0  0  0  0  0  0  0  0  0  0  0  0
  161.5380  209.6410  150.6590 C   0  0  2  0  0  3  0  0  0  0  0  0
  161.8500  208.8060  149.4440 C   0  0  0  0  0  3  0  0  0  0  0  0
  162.2730  206.7200  148.1970 C   0  0  1  0  0  3  0  0  0  0  0  0
  160.8160  205.3090  147.1300 C   0  0  0  0  0  3  0  0  0  0  0  0
  161.8500  205.1760  150.6670 C   0  0  1  0  0  3  0  0  0  0  0  0
  162.7050  209.5770  151.6410 C   0  0  0  0  0  2  0  0  0  0  0  0
  161.5220  207.3320  151.8670 C   0  0  0  0  0  3  0  0  0  0  0  0
  161.3870  204.6420  149.3840 N   0  0  0  0  0  2  0  0  0  0  0  0
  161.8800  207.4670  149.4440 C   0  0  0  0  0  0  0  0  0  0  0  0
  161.6960  206.6910  150.7050 C   0  0  0  0  0  0  0  0  0  0  0  0
  159.1080  210.6120  155.1000 C   0  0  0  0  0  0  0  0  0  0  0  0
  158.3850  211.1780  156.0950 F   0  0  0  0  0  0  0  0  0  0  0  0
  160.7270  208.9710  154.3570 C   0  0  0  0  0  3  0  0  0  0  0  0
  159.7300  210.4980  152.7620 C   0  0  0  0  0  3  0  0  0  0  0  0
  158.9850  211.0840  153.7900 C   0  0  0  0  0  3  0  0  0  0  0  0
  159.9820  209.5580  155.3840 C   0  0  0  0  0  3  0  0  0  0  0  0
  160.5960  209.4310  153.0400 C   0  0  0  0  0  0  0  0  0  0  0  0
  161.1100  204.4750  151.8030 C   0  0  0  0  0  2  0  0  0  0  0  0
  160.0800  202.3200  151.0860 O   0  0  0  0  0  0  0  0  0  0  0  0
  162.1790  202.3550  152.0090 O   0  0  0  0  0  1  0  0  0  0  0  0
  161.1630  202.9960  151.6320 C   0  0  0  0  0  0  0  0  0  0  0  0
  1 21  1  1  0  0  0
  2  8  1  1  0  0  0
  2  7  1  0  0  0  0
  2 12  1  0  0  0  0
  4  3  1  0  0  0  0
  4  8  2  0  0  0  0
  5  6  1  6  0  0  0
  5 10  1  0  0  0  0
  5  1  1  0  0  0  0
  7  3  1  6  0  0  0
  7 13  1  0  0  0  0
  9 14  1  0  0  0  0
  9 22  1  1  0  0  0
 10  1  1  0  0  0  0
 11  1  1  0  0  0  0
 12  9  1  0  0  0  0
 13  6  2  0  0  0  0
 13 14  1  0  0  0  0
 14 11  2  0  0  0  0
 15 20  1  0  0  0  0
 15 16  1  0  0  0  0
 17 20  2  0  0  0  0
 18 21  2  0  0  0  0
 18 19  1  0  0  0  0
 19 15  2  0  0  0  0
 21 17  1  0  0  0  0
 23 25  2  0  0  0  0
 25 22  1  0  0  0  0
 25 24  1  0  0  0  0
M  END
>  <MODEL>
8

>  <REMARK>
 VINA RESULT:      -6.2      4.710      7.247
  Name = 
  3 active torsions:
  status: ('A' for Active; 'I' for Inactive)
    1  A    between atoms: C_2  and  C_22
    2  A    between atoms: C_13  and  C_25
    3  A    between atoms: C_16  and  C_25
                            x       y       z     vdW  Elec       q    Type
                         _______ _______ _______ _____ _____    ______ ____

>  <TORSDO>
F 3

$$$$
=
 OpenBabel11072415243D

 25 29  0  0  1  0  0  0  0  0999 V2000
  161.2700  207.4460  152.1870 C   0  0  2  0  0  0  0  0  0  0  0  0
  159.4330  211.5170  154.6180 C   0  0  2  0  0  3  0  0  0  0  0  0
  159.1380  209.9460  156.2330 N   0  0  0  0  0  2  0  0  0  0  0  0
  158.1150  210.7020  156.2020 N   0  0  0  0  0  0  0  0  0  0  0  0
  160.8270  206.9380  153.5600 C   0  0  2  0  0  3  0  0  0  0  0  0
  160.4810  208.0380  154.5300 C   0  0  0  0  0  3  0  0  0  0  0  0
  160.1310  210.3710  155.2530 C   0  0  1  0  0  3  0  0  0  0  0  0
  158.2520  211.6790  155.1790 C   0  0  0  0  0  3  0  0  0  0  0  0
  160.7970  211.2950  152.5400 C   0  0  1  0  0  3  0  0  0  0  0  0
  162.3090  207.0150  153.2020 C   0  0  0  0  0  2  0  0  0  0  0  0
  161.2140  208.9220  151.9160 C   0  0  0  0  0  3  0  0  0  0  0  0
  159.7560  211.9800  153.3090 N   0  0  0  0  0  2  0  0  0  0  0  0
  160.4150  209.3340  154.1980 C   0  0  0  0  0  0  0  0  0  0  0  0
  160.7840  209.8000  152.8290 C   0  0  0  0  0  0  0  0  0  0  0  0
  160.8260  204.7330  148.8840 C   0  0  0  0  0  0  0  0  0  0  0  0
  160.6950  203.8790  147.8420 F   0  0  0  0  0  0  0  0  0  0  0  0
  160.9930  206.9950  149.7330 C   0  0  0  0  0  3  0  0  0  0  0  0
  161.0690  205.1170  151.2630 C   0  0  0  0  0  3  0  0  0  0  0  0
  160.9350  204.2350  150.1860 C   0  0  0  0  0  3  0  0  0  0  0  0
  160.8590  206.1120  148.6580 C   0  0  0  0  0  3  0  0  0  0  0  0
  161.0860  206.5010  151.0420 C   0  0  0  0  0  0  0  0  0  0  0  0
  160.6220  211.6150  151.0570 C   0  0  0  0  0  2  0  0  0  0  0  0
  160.5020  214.0780  150.6890 O   0  0  0  0  0  0  0  0  0  0  0  0
  158.5850  212.8420  150.9240 O   0  0  0  0  0  1  0  0  0  0  0  0
  159.8420  212.8700  150.8770 C   0  0  0  0  0  0  0  0  0  0  0  0
  1 21  1  6  0  0  0
  1 10  1  0  0  0  0
  1  5  1  0  0  0  0
  2  8  1  6  0  0  0
  2  7  1  0  0  0  0
  4  3  1  0  0  0  0
  5 10  1  1  0  0  0
  5  6  1  0  0  0  0
  7 13  1  6  0  0  0
  7  3  1  0  0  0  0
  8  4  2  0  0  0  0
  9 22  1  6  0  0  0
  9 14  1  0  0  0  0
  9 12  1  0  0  0  0
 11  1  1  0  0  0  0
 11 14  2  0  0  0  0
 12  2  1  0  0  0  0
 13  6  2  0  0  0  0
 14 13  1  0  0  0  0
 15 19  1  0  0  0  0
 16 15  1  0  0  0  0
 17 21  2  0  0  0  0
 19 18  2  0  0  0  0
 20 15  2  0  0  0  0
 20 17  1  0  0  0  0
 21 18  1  0  0  0  0
 23 25  2  0  0  0  0
 25 24  1  0  0  0  0
 25 22  1  0  0  0  0
M  END
>  <MODEL>
9

>  <REMARK>
 VINA RESULT:      -6.1      1.886      2.452
  Name = 
  3 active torsions:
  status: ('A' for Active; 'I' for Inactive)
    1  A    between atoms: C_2  and  C_22
    2  A    between atoms: C_13  and  C_25
    3  A    between atoms: C_16  and  C_25
                            x       y       z     vdW  Elec       q    Type
                         _______ _______ _______ _____ _____    ______ ____

>  <TORSDO>
F 3

$$$$
