=
 OpenBabel11072413023D

 37 40  0  0  1  0  0  0  0  0999 V2000
  161.7050  209.0030  152.2690 C   0  0  2  0  0  3  0  0  0  0  0  0
  161.2170  210.0900  148.7640 N   0  0  0  0  0  2  0  0  0  0  0  0
  160.7100  208.2370  153.0150 N   0  0  2  0  0  0  0  0  0  0  0  0
  157.6120  212.6930  153.5460 C   0  0  0  0  0  2  0  0  0  0  0  0
  161.0670  208.3200  154.4210 C   0  0  0  0  0  2  0  0  0  0  0  0
  162.5200  213.2400  147.4490 O   0  0  0  0  0  1  0  0  0  0  0  0
  158.8920  211.9480  155.4890 N   0  0  0  0  0  0  0  0  0  0  0  0
  160.1560  209.3100  155.1200 C   0  0  0  0  0  2  0  0  0  0  0  0
  162.7890  208.5630  149.8820 C   0  0  2  0  0  3  0  0  0  0  0  0
  160.9510  214.1780  149.7490 N   0  0  0  0  0  2  0  0  0  0  0  0
  158.2660  213.9940  153.2040 C   0  0  0  0  0  3  0  0  0  0  0  0
  161.7830  208.7520  148.7470 C   0  0  0  0  0  2  0  0  0  0  0  0
  162.1650  210.9830  148.1140 C   0  0  0  0  0  2  0  0  0  0  0  0
  161.0470  210.2470  151.7030 C   0  0  0  0  0  1  0  0  0  0  0  0
  163.7900  207.6880  149.4620 O   0  0  0  0  0  1  0  0  0  0  0  0
  161.2780  206.8710  151.3340 C   0  0  1  0  0  0  0  0  0  0  0  0
  158.6410  211.7050  154.0680 C   0  0  0  0  0  2  0  0  0  0  0  0
  158.3450  212.2280  150.7440 C   0  0  0  0  0  2  0  0  0  0  0  0
  162.1960  208.0590  151.2160 C   0  0  2  0  0  3  0  0  0  0  0  0
  160.9900  210.4100  155.7570 C   0  0  2  0  0  3  0  0  0  0  0  0
  160.8320  212.6370  156.7950 O   0  0  0  0  0  1  0  0  0  0  0  0
  161.6190  212.8850  149.6340 C   0  0  0  0  0  2  0  0  0  0  0  0
  161.6670  212.4150  148.1840 C   0  0  1  0  0  3  0  0  0  0  0  0
  159.5140  213.9920  149.5730 C   0  0  0  0  0  2  0  0  0  0  0  0
  160.2950  211.7190  155.8940 C   0  0  2  0  0  0  0  0  0  0  0  0
  162.0800  205.5960  151.1280 C   0  0  0  0  0  1  0  0  0  0  0  0
  158.8840  213.4390  150.8090 C   0  0  0  0  0  0  0  0  0  0  0  0
  158.8160  214.2910  152.0180 C   0  0  0  0  0  3  0  0  0  0  0  0
  160.8020  206.9140  152.6590 O   0  0  0  0  0  0  0  0  0  0  0  0
  161.1780  211.4630  154.8290 O   0  0  0  0  0  0  0  0  0  0  0  0
  158.0980  211.1080  156.1990 O   0  0  0  0  0  0  0  0  0  0  0  0
  156.2370  211.8560  157.2570 O   0  0  0  0  0  0  0  0  0  0  0  0
  157.6140  211.8770  157.2610 C   0  0  0  0  0  3  0  0  0  0  0  0
  156.8750  212.9280  156.7660 O   0  0  0  0  0  0  0  0  0  0  0  0
  160.0990  206.9310  150.3500 C   0  0  0  0  0  2  0  0  0  0  0  0
  160.0640  205.7550  149.3830 C   0  0  0  0  0  2  0  0  0  0  0  0
  160.0700  206.2190  148.0680 O   0  0  0  0  0  1  0  0  0  0  0  0
  1 14  1  6  0  0  0
  1  3  1  0  0  0  0
  3  5  1  1  0  0  0
  4 17  1  0  0  0  0
  5  8  1  0  0  0  0
  6 23  1  0  0  0  0
  7 25  1  0  0  0  0
  7 31  1  0  0  0  0
  8 20  1  0  0  0  0
  9 15  1  6  0  0  0
  9 19  1  0  0  0  0
 11  4  1  0  0  0  0
 12  2  1  0  0  0  0
 12  9  1  0  0  0  0
 13 23  1  0  0  0  0
 13  2  1  0  0  0  0
 16 26  1  6  0  0  0
 16 29  1  0  0  0  0
 17  7  1  0  0  0  0
 18 27  2  0  0  0  0
 19 16  1  0  0  0  0
 19  1  1  0  0  0  0
 20 25  1  0  0  0  0
 22 10  1  0  0  0  0
 23 22  1  0  0  0  0
 24 10  1  0  0  0  0
 24 27  1  0  0  0  0
 25 21  1  0  0  0  0
 27 28  1  0  0  0  0
 28 11  2  0  0  0  0
 29  3  1  0  0  0  0
 30 20  1  0  0  0  0
 30 25  1  0  0  0  0
 31 33  1  0  0  0  0
 32 33  1  0  0  0  0
 34 32  1  0  0  0  0
 34 33  1  0  0  0  0
 35 16  1  0  0  0  0
 36 35  1  0  0  0  0
 37 36  1  0  0  0  0
M  END
>  <MODEL>
1

>  <REMARK>
 VINA RESULT:      -1.7      0.000      0.000
  Name = 
  4 active torsions:
  status: ('A' for Active; 'I' for Inactive)
    1  A    between atoms: N_7  and  O_17
    2  A    between atoms: C_13  and  C_24
    3  A    between atoms: O_17  and  C_26
    4  A    between atoms: C_19  and  C_24
                            x       y       z     vdW  Elec       q    Type
                         _______ _______ _______ _____ _____    ______ ____

>  <TORSDO>
F 4

$$$$
=
 OpenBabel11072413023D

 37 40  0  0  1  0  0  0  0  0999 V2000
  160.2780  208.6760  153.3530 C   0  0  2  0  0  3  0  0  0  0  0  0
  160.0860  212.3330  153.8950 N   0  0  0  0  0  2  0  0  0  0  0  0
  161.5390  207.9390  153.3020 N   0  0  2  0  0  0  0  0  0  0  0  0
  162.5720  209.9590  148.3430 C   0  0  0  0  0  2  0  0  0  0  0  0
  161.2580  206.6410  152.7130 C   0  0  0  0  0  2  0  0  0  0  0  0
  157.5400  214.4490  152.3520 O   0  0  0  0  0  1  0  0  0  0  0  0
  161.8180  207.6400  148.5030 N   0  0  0  0  0  0  0  0  0  0  0  0
  161.7230  206.6260  151.2690 C   0  0  0  0  0  2  0  0  0  0  0  0
  159.3390  210.3680  155.1750 C   0  0  2  0  0  3  0  0  0  0  0  0
  158.7130  213.1450  149.9950 N   0  0  0  0  0  2  0  0  0  0  0  0
  161.4270  210.6280  147.6540 C   0  0  0  0  0  3  0  0  0  0  0  0
  160.1150  211.6840  155.1960 C   0  0  0  0  0  2  0  0  0  0  0  0
  158.8210  213.0440  153.7820 C   0  0  0  0  0  2  0  0  0  0  0  0
  160.3390  209.8250  152.3650 C   0  0  0  0  0  1  0  0  0  0  0  0
  158.7610  210.1600  156.4260 O   0  0  0  0  0  1  0  0  0  0  0  0
  161.4870  208.7570  155.3870 C   0  0  1  0  0  0  0  0  0  0  0  0
  162.0670  208.8640  149.2680 C   0  0  0  0  0  2  0  0  0  0  0  0
  161.9400  212.0910  150.2560 C   0  0  0  0  0  2  0  0  0  0  0  0
  160.1580  209.1210  154.7770 C   0  0  2  0  0  3  0  0  0  0  0  0
  160.5480  206.3040  150.3590 C   0  0  2  0  0  3  0  0  0  0  0  0
  159.8410  206.3050  148.0010 O   0  0  0  0  0  1  0  0  0  0  0  0
  158.6260  212.5780  151.3380 C   0  0  0  0  0  2  0  0  0  0  0  0
  158.6940  213.6670  152.4030 C   0  0  1  0  0  3  0  0  0  0  0  0
  160.0890  213.5610  149.7400 C   0  0  0  0  0  2  0  0  0  0  0  0
  160.6550  206.8650  148.9840 C   0  0  2  0  0  0  0  0  0  0  0  0
  161.2650  208.2470  156.8020 C   0  0  0  0  0  1  0  0  0  0  0  0
  160.9570  212.3900  149.4150 C   0  0  0  0  0  0  0  0  0  0  0  0
  160.7390  211.6710  148.1390 C   0  0  0  0  0  3  0  0  0  0  0  0
  161.9760  207.7080  154.5830 O   0  0  0  0  0  0  0  0  0  0  0  0
  159.8960  207.5030  149.9820 O   0  0  0  0  0  0  0  0  0  0  0  0
  162.9230  206.8600  148.5990 O   0  0  0  0  0  0  0  0  0  0  0  0
  163.6780  205.4170  147.0210 O   0  0  0  0  0  0  0  0  0  0  0  0
  162.6240  205.7150  147.8560 C   0  0  0  0  0  3  0  0  0  0  0  0
  162.6000  206.0310  146.5160 O   0  0  0  0  0  0  0  0  0  0  0  0
  162.4820  209.9280  155.3860 C   0  0  0  0  0  2  0  0  0  0  0  0
  162.9780  210.2950  156.7780 C   0  0  0  0  0  2  0  0  0  0  0  0
  164.0390  211.1950  156.6840 O   0  0  0  0  0  1  0  0  0  0  0  0
  1 14  1  6  0  0  0
  1 19  1  0  0  0  0
  2 12  1  0  0  0  0
  3  5  1  1  0  0  0
  3  1  1  0  0  0  0
  3 29  1  0  0  0  0
  4 17  1  0  0  0  0
  6 23  1  0  0  0  0
  7 31  1  0  0  0  0
  7 25  1  0  0  0  0
  7 17  1  0  0  0  0
  8  5  1  0  0  0  0
  9 12  1  0  0  0  0
  9 15  1  1  0  0  0
 10 22  1  0  0  0  0
 11 28  2  0  0  0  0
 11  4  1  0  0  0  0
 13  2  1  0  0  0  0
 16 26  1  1  0  0  0
 19  9  1  0  0  0  0
 19 16  1  0  0  0  0
 20  8  1  0  0  0  0
 21 25  1  0  0  0  0
 22 23  1  0  0  0  0
 23 13  1  0  0  0  0
 24 10  1  0  0  0  0
 25 30  1  0  0  0  0
 25 20  1  0  0  0  0
 27 24  1  0  0  0  0
 27 18  2  0  0  0  0
 28 27  1  0  0  0  0
 29 16  1  0  0  0  0
 30 20  1  0  0  0  0
 32 33  1  0  0  0  0
 33 31  1  0  0  0  0
 34 32  1  0  0  0  0
 34 33  1  0  0  0  0
 35 16  1  0  0  0  0
 35 36  1  0  0  0  0
 37 36  1  0  0  0  0
M  END
>  <MODEL>
2

>  <REMARK>
 VINA RESULT:       0.0      1.988      7.169
  Name = 
  4 active torsions:
  status: ('A' for Active; 'I' for Inactive)
    1  A    between atoms: N_7  and  O_17
    2  A    between atoms: C_13  and  C_24
    3  A    between atoms: O_17  and  C_26
    4  A    between atoms: C_19  and  C_24
                            x       y       z     vdW  Elec       q    Type
                         _______ _______ _______ _____ _____    ______ ____

>  <TORSDO>
F 4

$$$$
=
 OpenBabel11072413023D

 37 40  0  0  1  0  0  0  0  0999 V2000
  159.7810  212.3370  149.8490 C   0  0  2  0  0  3  0  0  0  0  0  0
  162.2620  209.7000  149.0740 N   0  0  0  0  0  2  0  0  0  0  0  0
  160.1410  213.6290  150.4280 N   0  0  2  0  0  0  0  0  0  0  0  0
  160.9680  211.2770  155.2780 C   0  0  0  0  0  2  0  0  0  0  0  0
  158.9180  214.2320  150.9310 C   0  0  0  0  0  2  0  0  0  0  0  0
  161.5450  206.1320  149.3820 O   0  0  0  0  0  1  0  0  0  0  0  0
  158.9170  212.5670  154.9640 N   0  0  0  0  0  0  0  0  0  0  0  0
  158.8640  214.0900  152.4400 C   0  0  0  0  0  2  0  0  0  0  0  0
  160.7390  211.0740  147.7150 C   0  0  2  0  0  3  0  0  0  0  0  0
  160.8770  207.0900  152.0780 N   0  0  0  0  0  2  0  0  0  0  0  0
  160.4550  209.8800  155.4280 C   0  0  0  0  0  3  0  0  0  0  0  0
  162.1720  210.5880  147.9260 C   0  0  0  0  0  2  0  0  0  0  0  0
  161.8410  208.3750  148.6460 C   0  0  0  0  0  2  0  0  0  0  0  0
  160.3520  211.2320  150.7170 C   0  0  0  0  0  1  0  0  0  0  0  0
  160.5150  211.2530  146.3510 O   0  0  0  0  0  1  0  0  0  0  0  0
  161.1860  213.6270  148.4470 C   0  0  1  0  0  0  0  0  0  0  0  0
  160.1110  212.0520  154.2910 C   0  0  0  0  0  2  0  0  0  0  0  0
  162.4580  209.9060  153.1560 C   0  0  0  0  0  2  0  0  0  0  0  0
  160.3600  212.3670  148.4690 C   0  0  2  0  0  3  0  0  0  0  0  0
  157.6040  213.3370  152.8360 C   0  0  2  0  0  3  0  0  0  0  0  0
  156.5190  212.1930  154.7270 O   0  0  0  0  0  1  0  0  0  0  0  0
  160.7720  207.8590  150.8410 C   0  0  0  0  0  2  0  0  0  0  0  0
  161.8260  207.4230  149.8290 C   0  0  1  0  0  3  0  0  0  0  0  0
  162.0440  207.5450  152.8270 C   0  0  0  0  0  2  0  0  0  0  0  0
  157.7100  212.5740  154.1110 C   0  0  2  0  0  0  0  0  0  0  0  0
  161.0440  214.2950  147.0880 C   0  0  0  0  0  1  0  0  0  0  0  0
  161.7690  208.8340  153.5290 C   0  0  0  0  0  0  0  0  0  0  0  0
  160.8090  208.8430  154.6560 C   0  0  0  0  0  3  0  0  0  0  0  0
  160.6100  214.4520  149.4340 O   0  0  0  0  0  0  0  0  0  0  0  0
  157.8710  211.9450  152.8620 O   0  0  0  0  0  0  0  0  0  0  0  0
  159.1770  213.8410  155.3500 O   0  0  0  0  0  0  0  0  0  0  0  0
  160.2510  214.4530  157.2510 O   0  0  0  0  0  0  0  0  0  0  0  0
  159.1420  213.8100  156.7470 C   0  0  0  0  0  3  0  0  0  0  0  0
  160.2330  213.1130  157.2180 O   0  0  0  0  0  0  0  0  0  0  0  0
  162.6660  213.3740  148.7720 C   0  0  0  0  0  2  0  0  0  0  0  0
  163.6020  213.7360  147.6270 C   0  0  0  0  0  2  0  0  0  0  0  0
  163.8660  212.6070  146.8520 O   0  0  0  0  0  1  0  0  0  0  0  0
  1  3  1  0  0  0  0
  1 14  1  1  0  0  0
  3  5  1  6  0  0  0
  4 11  1  0  0  0  0
  5  8  1  0  0  0  0
  6 23  1  0  0  0  0
  7 31  1  0  0  0  0
  8 20  1  0  0  0  0
  9 15  1  6  0  0  0
  9 12  1  0  0  0  0
  9 19  1  0  0  0  0
 10 24  1  0  0  0  0
 12  2  1  0  0  0  0
 13  2  1  0  0  0  0
 13 23  1  0  0  0  0
 16 26  1  6  0  0  0
 16 19  1  0  0  0  0
 16 35  1  0  0  0  0
 16 29  1  0  0  0  0
 17  7  1  0  0  0  0
 17  4  1  0  0  0  0
 18 27  2  0  0  0  0
 19  1  1  0  0  0  0
 20 30  1  0  0  0  0
 20 25  1  0  0  0  0
 22 10  1  0  0  0  0
 23 22  1  0  0  0  0
 24 27  1  0  0  0  0
 25 21  1  0  0  0  0
 25  7  1  0  0  0  0
 27 28  1  0  0  0  0
 28 11  2  0  0  0  0
 29  3  1  0  0  0  0
 30 25  1  0  0  0  0
 31 33  1  0  0  0  0
 33 34  1  0  0  0  0
 33 32  1  0  0  0  0
 34 32  1  0  0  0  0
 36 35  1  0  0  0  0
 37 36  1  0  0  0  0
M  END
>  <MODEL>
3

>  <REMARK>
 VINA RESULT:       1.3      1.685      5.545
  Name = 
  4 active torsions:
  status: ('A' for Active; 'I' for Inactive)
    1  A    between atoms: N_7  and  O_17
    2  A    between atoms: C_13  and  C_24
    3  A    between atoms: O_17  and  C_26
    4  A    between atoms: C_19  and  C_24
                            x       y       z     vdW  Elec       q    Type
                         _______ _______ _______ _____ _____    ______ ____

>  <TORSDO>
F 4

$$$$
