=
 OpenBabel11072413083D

 35 40  0  0  1  0  0  0  0  0999 V2000
  159.7770  206.8350  157.1560 N   0  0  0  0  0  1  0  0  0  0  0  0
  162.1010  205.9210  150.8270 C   0  0  1  0  0  3  0  0  0  0  0  0
  161.0050  207.7740  155.1270 C   0  0  0  0  0  0  0  0  0  0  0  0
  160.8540  206.7790  154.3060 N   0  0  0  0  0  0  0  0  0  0  0  0
  161.6010  209.1080  154.8060 C   0  0  2  0  0  3  0  0  0  0  0  0
  160.4240  207.8830  156.4400 C   0  0  0  0  0  0  0  0  0  0  0  0
  161.1080  206.6230  149.9120 C   0  0  0  0  0  2  0  0  0  0  0  0
  160.5910  207.8060  150.7000 C   0  0  0  0  0  2  0  0  0  0  0  0
  162.4140  206.8740  151.9880 C   0  0  2  0  0  3  0  0  0  0  0  0
  161.2790  206.9290  152.9810 N   0  0  0  0  0  0  0  0  0  0  0  0
  161.9480  209.2210  152.3780 N   0  0  0  0  0  2  0  0  0  0  0  0
  161.1690  209.8590  155.9410 O   0  0  0  0  0  0  0  0  0  0  0  0
  161.0640  209.6540  153.4670 C   0  0  2  0  0  3  0  0  0  0  0  0
  161.5160  207.9090  151.8870 C   0  0  2  0  0  0  0  0  0  0  0  0
  160.5230  209.0850  156.8840 N   0  0  0  0  0  0  0  0  0  0  0  0
  160.9020  211.1680  153.4150 C   0  0  1  0  0  3  0  0  0  0  0  0
  159.7560  211.4640  152.4600 C   0  0  1  0  0  3  0  0  0  0  0  0
  159.5420  211.5840  153.9530 C   0  0  0  0  0  2  0  0  0  0  0  0
  159.8890  212.8480  151.8600 C   0  0  0  0  0  2  0  0  0  0  0  0
  158.7300  213.0510  150.9020 C   0  0  0  0  0  2  0  0  0  0  0  0
  159.0890  213.9420  149.8530 O   0  0  0  0  0  0  0  0  0  0  0  0
  159.1270  213.5420  148.5140 C   0  0  0  0  0  0  0  0  0  0  0  0
  158.0660  213.2270  147.9040 O   0  0  0  0  0  0  0  0  0  0  0  0
  160.3590  213.4650  147.8690 O   0  0  0  0  0  0  0  0  0  0  0  0
  160.9640  212.2300  147.5090 C   0  0  0  0  0  2  0  0  0  0  0  0
  163.2610  212.4930  148.0760 O   0  0  0  0  0  0  0  0  0  0  0  0
  162.0340  211.1690  149.4950 O   0  0  0  0  0  1  0  0  0  0  0  0
  162.1490  211.9790  148.3730 C   0  0  0  0  0  0  0  0  0  0  0  0
  161.5170  204.5910  151.2880 C   0  0  2  0  0  3  0  0  0  0  0  0
  161.1750  203.7170  150.1360 C   0  0  2  0  0  3  0  0  0  0  0  0
  160.1990  204.4990  150.7960 O   0  0  0  0  0  0  0  0  0  0  0  0
  161.1060  202.2670  150.6150 C   0  0  0  0  0  2  0  0  0  0  0  0
  161.4120  200.6310  148.8920 O   0  0  0  0  0  0  0  0  0  0  0  0
  160.6060  201.3390  149.5550 C   0  0  0  0  0  0  0  0  0  0  0  0
  159.2500  201.2840  149.2720 O   0  0  0  0  0  1  0  0  0  0  0  0
  2  7  1  6  0  0  0
  2 29  1  0  0  0  0
  2  9  1  0  0  0  0
  3  6  1  0  0  0  0
  4  3  2  0  0  0  0
  5  3  1  1  0  0  0
  5 12  1  0  0  0  0
  6 15  2  0  0  0  0
  6  1  1  0  0  0  0
  7  8  1  0  0  0  0
  9 10  1  1  0  0  0
 10  4  1  0  0  0  0
 12 15  1  0  0  0  0
 13 11  1  6  0  0  0
 13  5  1  0  0  0  0
 14  8  1  6  0  0  0
 14  9  1  0  0  0  0
 14 11  1  0  0  0  0
 14 10  1  0  0  0  0
 16 13  1  0  0  0  0
 16 18  1  1  0  0  0
 17 19  1  6  0  0  0
 17 16  1  0  0  0  0
 17 18  1  0  0  0  0
 20 19  1  0  0  0  0
 21 20  1  0  0  0  0
 22 21  1  0  0  0  0
 23 22  2  0  0  0  0
 24 22  1  0  0  0  0
 25 24  1  0  0  0  0
 25 28  1  0  0  0  0
 26 28  2  0  0  0  0
 28 27  1  0  0  0  0
 29 31  1  6  0  0  0
 30 32  1  1  0  0  0
 30 31  1  0  0  0  0
 30 29  1  0  0  0  0
 33 34  2  0  0  0  0
 34 32  1  0  0  0  0
 35 34  1  0  0  0  0
M  END
>  <MODEL>
1

>  <REMARK>
 VINA RESULT:      -6.6      0.000      0.000
  Name = 
  11 active torsions:
  status: ('A' for Active; 'I' for Inactive)
    1  A    between atoms: C_2  and  C_23
    2  A    between atoms: C_3  and  C_18
    3  A    between atoms: C_3  and  O_24
    4  A    between atoms: C_4  and  C_15
    5  A    between atoms: O_5  and  C_29
    6  A    between atoms: O_5  and  C_30
    7  A    between atoms: C_6  and  C_31
    8  A    between atoms: C_20  and  C_22
    9  A    between atoms: C_20  and  C_33
   10  A    between atoms: O_24  and  C_30
   11  A    between atoms: C_29  and  C_31
                            x       y       z     vdW  Elec       q    Type
                         _______ _______ _______ _____ _____    ______ ____

>  <TORSDO>
F 11

$$$$
=
 OpenBabel11072413083D

 35 40  0  0  1  0  0  0  0  0999 V2000
  160.3240  203.4430  152.6460 N   0  0  0  0  0  1  0  0  0  0  0  0
  161.5760  205.0220  146.1470 C   0  0  1  0  0  3  0  0  0  0  0  0
  161.5610  204.8980  150.9540 C   0  0  0  0  0  0  0  0  0  0  0  0
  161.0260  204.4530  149.8570 N   0  0  0  0  0  0  0  0  0  0  0  0
  162.5020  206.0550  151.0780 C   0  0  2  0  0  3  0  0  0  0  0  0
  161.1830  204.5230  152.2930 C   0  0  0  0  0  0  0  0  0  0  0  0
  160.7570  206.2710  145.8550 C   0  0  0  0  0  2  0  0  0  0  0  0
  160.7150  207.0450  147.1540 C   0  0  0  0  0  2  0  0  0  0  0  0
  162.2870  205.2390  147.4890 C   0  0  2  0  0  3  0  0  0  0  0  0
  161.3360  205.0910  148.6510 N   0  0  0  0  0  0  0  0  0  0  0  0
  162.6090  207.1830  148.9010 N   0  0  0  0  0  2  0  0  0  0  0  0
  162.4430  206.2790  152.4870 O   0  0  0  0  0  0  0  0  0  0  0  0
  162.0210  207.2590  150.2440 C   0  0  2  0  0  3  0  0  0  0  0  0
  161.7460  206.3790  148.0310 C   0  0  2  0  0  0  0  0  0  0  0  0
  161.6930  205.3310  153.1530 N   0  0  0  0  0  0  0  0  0  0  0  0
  162.3280  208.6210  150.8530 C   0  0  1  0  0  3  0  0  0  0  0  0
  161.4620  209.6420  150.1320 C   0  0  1  0  0  3  0  0  0  0  0  0
  161.0960  209.1990  151.5310 C   0  0  0  0  0  2  0  0  0  0  0  0
  162.0820  211.0220  150.1890 C   0  0  0  0  0  2  0  0  0  0  0  0
  162.0970  211.5830  148.7790 C   0  0  0  0  0  2  0  0  0  0  0  0
  161.7260  212.9560  148.7750 O   0  0  0  0  0  0  0  0  0  0  0  0
  160.4850  213.3920  148.3000 C   0  0  0  0  0  0  0  0  0  0  0  0
  159.4700  213.3910  149.0510 O   0  0  0  0  0  0  0  0  0  0  0  0
  160.3790  213.7990  146.9710 O   0  0  0  0  0  0  0  0  0  0  0  0
  160.2740  212.8810  145.8910 C   0  0  0  0  0  2  0  0  0  0  0  0
  161.4180  212.6450  143.8160 O   0  0  0  0  0  0  0  0  0  0  0  0
  162.6860  213.4210  145.5660 O   0  0  0  0  0  1  0  0  0  0  0  0
  161.4840  212.9780  145.0300 C   0  0  0  0  0  0  0  0  0  0  0  0
  160.6630  203.8020  146.1460 C   0  0  2  0  0  3  0  0  0  0  0  0
  161.4410  202.5370  146.1120 C   0  0  2  0  0  3  0  0  0  0  0  0
  160.8770  203.0980  144.9430 O   0  0  0  0  0  0  0  0  0  0  0  0
  160.5650  201.3990  146.6320 C   0  0  0  0  0  2  0  0  0  0  0  0
  161.8140  200.3590  148.3930 O   0  0  0  0  0  0  0  0  0  0  0  0
  160.8330  201.0830  148.0680 C   0  0  0  0  0  0  0  0  0  0  0  0
  159.9730  201.5540  149.0500 O   0  0  0  0  0  1  0  0  0  0  0  0
  2  7  1  1  0  0  0
  2  9  1  0  0  0  0
  3  6  1  0  0  0  0
  4  3  2  0  0  0  0
  5  3  1  1  0  0  0
  5 12  1  0  0  0  0
  6  1  1  0  0  0  0
  6 15  2  0  0  0  0
  7  8  1  0  0  0  0
  9 14  1  0  0  0  0
  9 10  1  1  0  0  0
 10  4  1  0  0  0  0
 12 15  1  0  0  0  0
 13 11  1  6  0  0  0
 13 16  1  0  0  0  0
 13  5  1  0  0  0  0
 14  8  1  6  0  0  0
 14 10  1  0  0  0  0
 14 11  1  0  0  0  0
 16 18  1  1  0  0  0
 17 19  1  1  0  0  0
 17 16  1  0  0  0  0
 17 18  1  0  0  0  0
 20 19  1  0  0  0  0
 21 20  1  0  0  0  0
 22 21  1  0  0  0  0
 22 23  2  0  0  0  0
 24 22  1  0  0  0  0
 25 24  1  0  0  0  0
 26 28  2  0  0  0  0
 28 27  1  0  0  0  0
 28 25  1  0  0  0  0
 29 31  1  6  0  0  0
 29  2  1  0  0  0  0
 30 29  1  0  0  0  0
 30 32  1  1  0  0  0
 31 30  1  0  0  0  0
 32 34  1  0  0  0  0
 34 33  2  0  0  0  0
 34 35  1  0  0  0  0
M  END
>  <MODEL>
2

>  <REMARK>
 VINA RESULT:      -6.2      2.725      4.096
  Name = 
  11 active torsions:
  status: ('A' for Active; 'I' for Inactive)
    1  A    between atoms: C_2  and  C_23
    2  A    between atoms: C_3  and  C_18
    3  A    between atoms: C_3  and  O_24
    4  A    between atoms: C_4  and  C_15
    5  A    between atoms: O_5  and  C_29
    6  A    between atoms: O_5  and  C_30
    7  A    between atoms: C_6  and  C_31
    8  A    between atoms: C_20  and  C_22
    9  A    between atoms: C_20  and  C_33
   10  A    between atoms: O_24  and  C_30
   11  A    between atoms: C_29  and  C_31
                            x       y       z     vdW  Elec       q    Type
                         _______ _______ _______ _____ _____    ______ ____

>  <TORSDO>
F 11

$$$$
=
 OpenBabel11072413083D

 35 40  0  0  1  0  0  0  0  0999 V2000
  160.1520  203.0290  152.5210 N   0  0  0  0  0  1  0  0  0  0  0  0
  161.7170  205.4340  146.3520 C   0  0  1  0  0  3  0  0  0  0  0  0
  161.4410  204.7080  151.0970 C   0  0  0  0  0  0  0  0  0  0  0  0
  160.9800  204.3930  149.9250 N   0  0  0  0  0  0  0  0  0  0  0  0
  162.3430  205.8580  151.4180 C   0  0  2  0  0  3  0  0  0  0  0  0
  161.0000  204.1610  152.3550 C   0  0  0  0  0  0  0  0  0  0  0  0
  160.8820  206.6930  146.1710 C   0  0  0  0  0  2  0  0  0  0  0  0
  160.7480  207.2970  147.5510 C   0  0  0  0  0  2  0  0  0  0  0  0
  162.3470  205.4940  147.7490 C   0  0  2  0  0  3  0  0  0  0  0  0
  161.3370  205.1830  148.8270 N   0  0  0  0  0  0  0  0  0  0  0  0
  162.5400  207.2520  149.4070 N   0  0  0  0  0  2  0  0  0  0  0  0
  162.2010  205.9030  152.8380 O   0  0  0  0  0  0  0  0  0  0  0  0
  161.8770  207.1480  150.7130 C   0  0  2  0  0  3  0  0  0  0  0  0
  161.7470  206.5470  148.3960 C   0  0  2  0  0  0  0  0  0  0  0  0
  161.4410  204.8640  153.3370 N   0  0  0  0  0  0  0  0  0  0  0  0
  162.1140  208.4280  151.5040 C   0  0  1  0  0  3  0  0  0  0  0  0
  160.8050  209.2030  151.5070 C   0  0  1  0  0  3  0  0  0  0  0  0
  161.2440  208.4610  152.7510 C   0  0  0  0  0  2  0  0  0  0  0  0
  161.0490  210.6850  151.6960 C   0  0  0  0  0  2  0  0  0  0  0  0
  159.9820  211.2150  152.6360 C   0  0  0  0  0  2  0  0  0  0  0  0
  160.5660  211.7670  153.8090 O   0  0  0  0  0  0  0  0  0  0  0  0
  160.1050  211.4550  155.0910 C   0  0  0  0  0  0  0  0  0  0  0  0
  159.2890  212.2140  155.6860 O   0  0  0  0  0  0  0  0  0  0  0  0
  160.5850  210.3070  155.7180 O   0  0  0  0  0  0  0  0  0  0  0  0
  159.7370  209.2390  156.1220 C   0  0  0  0  0  2  0  0  0  0  0  0
  159.9960  206.9650  156.7770 O   0  0  0  0  0  1  0  0  0  0  0  0
  161.9450  208.1540  156.5270 O   0  0  0  0  0  0  0  0  0  0  0  0
  160.5600  208.0540  156.4890 C   0  0  0  0  0  0  0  0  0  0  0  0
  160.8370  204.2060  146.1460 C   0  0  2  0  0  3  0  0  0  0  0  0
  161.6300  202.9510  146.2020 C   0  0  2  0  0  3  0  0  0  0  0  0
  161.2680  203.5520  144.9750 O   0  0  0  0  0  0  0  0  0  0  0  0
  160.6950  201.7850  146.5200 C   0  0  0  0  0  2  0  0  0  0  0  0
  161.7450  200.5870  148.3100 O   0  0  0  0  0  0  0  0  0  0  0  0
  160.8010  201.3390  147.9430 C   0  0  0  0  0  0  0  0  0  0  0  0
  159.8320  201.7210  148.8590 O   0  0  0  0  0  1  0  0  0  0  0  0
  2  7  1  1  0  0  0
  2  9  1  0  0  0  0
  3  6  1  0  0  0  0
  4  3  2  0  0  0  0
  5  3  1  6  0  0  0
  5 12  1  0  0  0  0
  6  1  1  0  0  0  0
  6 15  2  0  0  0  0
  7  8  1  0  0  0  0
  9 14  1  0  0  0  0
  9 10  1  1  0  0  0
 10  4  1  0  0  0  0
 12 15  1  0  0  0  0
 13 11  1  6  0  0  0
 13  5  1  0  0  0  0
 13 16  1  0  0  0  0
 14  8  1  6  0  0  0
 14 10  1  0  0  0  0
 14 11  1  0  0  0  0
 16 17  1  0  0  0  0
 16 18  1  1  0  0  0
 17 19  1  1  0  0  0
 17 18  1  0  0  0  0
 19 20  1  0  0  0  0
 20 21  1  0  0  0  0
 21 22  1  0  0  0  0
 22 23  2  0  0  0  0
 22 24  1  0  0  0  0
 24 25  1  0  0  0  0
 25 28  1  0  0  0  0
 28 27  2  0  0  0  0
 28 26  1  0  0  0  0
 29 31  1  6  0  0  0
 29 30  1  0  0  0  0
 29  2  1  0  0  0  0
 30 32  1  6  0  0  0
 31 30  1  0  0  0  0
 32 34  1  0  0  0  0
 34 33  2  0  0  0  0
 34 35  1  0  0  0  0
M  END
>  <MODEL>
3

>  <REMARK>
 VINA RESULT:      -6.1      3.157      5.404
  Name = 
  11 active torsions:
  status: ('A' for Active; 'I' for Inactive)
    1  A    between atoms: C_2  and  C_23
    2  A    between atoms: C_3  and  C_18
    3  A    between atoms: C_3  and  O_24
    4  A    between atoms: C_4  and  C_15
    5  A    between atoms: O_5  and  C_29
    6  A    between atoms: O_5  and  C_30
    7  A    between atoms: C_6  and  C_31
    8  A    between atoms: C_20  and  C_22
    9  A    between atoms: C_20  and  C_33
   10  A    between atoms: O_24  and  C_30
   11  A    between atoms: C_29  and  C_31
                            x       y       z     vdW  Elec       q    Type
                         _______ _______ _______ _____ _____    ______ ____

>  <TORSDO>
F 11

$$$$
=
 OpenBabel11072413083D

 35 40  0  0  1  0  0  0  0  0999 V2000
  161.5540  200.9580  151.0390 N   0  0  0  0  0  1  0  0  0  0  0  0
  161.1450  207.7360  150.6150 C   0  0  1  0  0  3  0  0  0  0  0  0
  160.9790  203.0260  149.6600 C   0  0  0  0  0  0  0  0  0  0  0  0
  161.3460  203.9500  150.4970 N   0  0  0  0  0  0  0  0  0  0  0  0
  160.5220  203.2350  148.2510 C   0  0  2  0  0  3  0  0  0  0  0  0
  161.1580  201.6070  149.8350 C   0  0  0  0  0  0  0  0  0  0  0  0
  162.3710  208.1800  149.8300 C   0  0  0  0  0  2  0  0  0  0  0  0
  162.6560  207.0640  148.8500 C   0  0  0  0  0  2  0  0  0  0  0  0
  160.5250  206.5470  149.8700 C   0  0  2  0  0  3  0  0  0  0  0  0
  161.3240  205.2850  150.0780 N   0  0  0  0  0  0  0  0  0  0  0  0
  160.8930  205.5910  147.6730 N   0  0  0  0  0  2  0  0  0  0  0  0
  160.6180  201.9000  147.7530 O   0  0  0  0  0  0  0  0  0  0  0  0
  161.4310  204.2350  147.5090 C   0  0  2  0  0  3  0  0  0  0  0  0
  161.4280  206.1880  148.9000 C   0  0  2  0  0  0  0  0  0  0  0  0
  160.9530  200.9840  148.7300 N   0  0  0  0  0  0  0  0  0  0  0  0
  161.6240  203.9430  146.0270 C   0  0  1  0  0  3  0  0  0  0  0  0
  161.5770  205.2770  145.2970 C   0  0  1  0  0  3  0  0  0  0  0  0
  162.9040  204.5830  145.5140 C   0  0  0  0  0  2  0  0  0  0  0  0
  161.1470  205.0960  143.8570 C   0  0  0  0  0  2  0  0  0  0  0  0
  161.8990  206.1120  143.0170 C   0  0  0  0  0  2  0  0  0  0  0  0
  161.5330  206.0090  141.6470 O   0  0  0  0  0  0  0  0  0  0  0  0
  162.0800  206.8400  140.6640 C   0  0  0  0  0  0  0  0  0  0  0  0
  163.1230  206.4990  140.0390 O   0  0  0  0  0  0  0  0  0  0  0  0
  161.4730  208.0670  140.4060 O   0  0  0  0  0  0  0  0  0  0  0  0
  161.8740  208.9150  139.3370 C   0  0  0  0  0  2  0  0  0  0  0  0
  163.1120  210.9340  139.5750 O   0  0  0  0  0  0  0  0  0  0  0  0
  161.0600  210.9020  140.6030 O   0  0  0  0  0  1  0  0  0  0  0  0
  162.0520  210.3050  139.8370 C   0  0  0  0  0  0  0  0  0  0  0  0
  161.5510  207.3990  152.0450 C   0  0  2  0  0  3  0  0  0  0  0  0
  160.6620  208.0590  153.0350 C   0  0  2  0  0  3  0  0  0  0  0  0
  161.9220  208.5970  152.6870 O   0  0  0  0  0  0  0  0  0  0  0  0
  160.7520  207.3080  154.3630 C   0  0  0  0  0  2  0  0  0  0  0  0
  159.5960  208.7590  155.8790 O   0  0  0  0  0  0  0  0  0  0  0  0
  160.6880  208.2230  155.5430 C   0  0  0  0  0  0  0  0  0  0  0  0
  161.8430  208.5180  156.2500 O   0  0  0  0  0  1  0  0  0  0  0  0
  2  7  1  6  0  0  0
  2 29  1  0  0  0  0
  3  6  1  0  0  0  0
  3  4  2  0  0  0  0
  5 12  1  6  0  0  0
  5  3  1  0  0  0  0
  6  1  1  0  0  0  0
  8  7  1  0  0  0  0
  9 10  1  1  0  0  0
  9  2  1  0  0  0  0
 10  4  1  0  0  0  0
 11 14  1  0  0  0  0
 12 15  1  0  0  0  0
 13 11  1  6  0  0  0
 13  5  1  0  0  0  0
 14  8  1  6  0  0  0
 14  9  1  0  0  0  0
 14 10  1  0  0  0  0
 15  6  2  0  0  0  0
 16 18  1  1  0  0  0
 16 13  1  0  0  0  0
 17 19  1  6  0  0  0
 17 18  1  0  0  0  0
 17 16  1  0  0  0  0
 20 19  1  0  0  0  0
 21 20  1  0  0  0  0
 22 21  1  0  0  0  0
 23 22  2  0  0  0  0
 24 22  1  0  0  0  0
 25 28  1  0  0  0  0
 25 24  1  0  0  0  0
 26 28  2  0  0  0  0
 28 27  1  0  0  0  0
 29 31  1  1  0  0  0
 29 30  1  0  0  0  0
 30 32  1  1  0  0  0
 31 30  1  0  0  0  0
 32 34  1  0  0  0  0
 34 33  2  0  0  0  0
 34 35  1  0  0  0  0
M  END
>  <MODEL>
4

>  <REMARK>
 VINA RESULT:      -6.1      5.260      8.434
  Name = 
  11 active torsions:
  status: ('A' for Active; 'I' for Inactive)
    1  A    between atoms: C_2  and  C_23
    2  A    between atoms: C_3  and  C_18
    3  A    between atoms: C_3  and  O_24
    4  A    between atoms: C_4  and  C_15
    5  A    between atoms: O_5  and  C_29
    6  A    between atoms: O_5  and  C_30
    7  A    between atoms: C_6  and  C_31
    8  A    between atoms: C_20  and  C_22
    9  A    between atoms: C_20  and  C_33
   10  A    between atoms: O_24  and  C_30
   11  A    between atoms: C_29  and  C_31
                            x       y       z     vdW  Elec       q    Type
                         _______ _______ _______ _____ _____    ______ ____

>  <TORSDO>
F 11

$$$$
=
 OpenBabel11072413083D

 35 40  0  0  1  0  0  0  0  0999 V2000
  162.4220  204.3880  144.7930 N   0  0  0  0  0  1  0  0  0  0  0  0
  160.5580  202.5830  151.0830 C   0  0  1  0  0  3  0  0  0  0  0  0
  161.2460  204.9880  146.9760 C   0  0  0  0  0  0  0  0  0  0  0  0
  161.5240  203.9240  147.6680 N   0  0  0  0  0  0  0  0  0  0  0  0
  160.5660  206.2220  147.4780 C   0  0  2  0  0  3  0  0  0  0  0  0
  161.7380  205.2910  145.6560 C   0  0  0  0  0  0  0  0  0  0  0  0
  161.5450  203.2610  152.0220 C   0  0  0  0  0  2  0  0  0  0  0  0
  161.9180  204.5640  151.3510 C   0  0  0  0  0  2  0  0  0  0  0  0
  160.1020  203.6280  150.0570 C   0  0  2  0  0  3  0  0  0  0  0  0
  161.1670  203.8900  149.0210 N   0  0  0  0  0  0  0  0  0  0  0  0
  160.3560  206.0350  149.9170 N   0  0  0  0  0  2  0  0  0  0  0  0
  160.8690  207.1280  146.4170 O   0  0  0  0  0  0  0  0  0  0  0  0
  161.1370  206.6610  148.8420 C   0  0  2  0  0  3  0  0  0  0  0  0
  160.9190  204.7190  150.2310 C   0  0  2  0  0  0  0  0  0  0  0  0
  161.5180  206.5220  145.3600 N   0  0  0  0  0  0  0  0  0  0  0  0
  161.1810  208.1670  149.0610 C   0  0  1  0  0  3  0  0  0  0  0  0
  162.2320  208.4360  150.1270 C   0  0  1  0  0  3  0  0  0  0  0  0
  162.5400  208.7290  148.6750 C   0  0  0  0  0  2  0  0  0  0  0  0
  161.9540  209.7360  150.8520 C   0  0  0  0  0  2  0  0  0  0  0  0
  162.1120  209.4800  152.3400 C   0  0  0  0  0  2  0  0  0  0  0  0
  161.7510  208.1440  152.6670 O   0  0  0  0  0  0  0  0  0  0  0  0
  161.0600  207.8230  153.8390 C   0  0  0  0  0  0  0  0  0  0  0  0
  160.8460  206.6180  154.1530 O   0  0  0  0  0  0  0  0  0  0  0  0
  160.5800  208.8560  154.6420 O   0  0  0  0  0  0  0  0  0  0  0  0
  161.1840  209.2130  155.8790 C   0  0  0  0  0  2  0  0  0  0  0  0
  161.0860  211.5710  155.5710 O   0  0  0  0  0  0  0  0  0  0  0  0
  163.1880  210.6940  155.8560 O   0  0  0  0  0  1  0  0  0  0  0  0
  161.8090  210.5580  155.7640 C   0  0  0  0  0  0  0  0  0  0  0  0
  161.2170  201.3670  150.4430 C   0  0  2  0  0  3  0  0  0  0  0  0
  160.5990  201.0360  149.1330 C   0  0  2  0  0  3  0  0  0  0  0  0
  160.2430  200.3560  150.3200 O   0  0  0  0  0  0  0  0  0  0  0  0
  161.5830  200.2010  148.3150 C   0  0  0  0  0  2  0  0  0  0  0  0
  160.8170  201.2500  146.3020 O   0  0  0  0  0  1  0  0  0  0  0  0
  161.2630  200.2080  146.8550 C   0  0  0  0  0  0  0  0  0  0  0  0
  161.4180  199.0480  146.1100 O   0  0  0  0  0  0  0  0  0  0  0  0
  1  6  1  0  0  0  0
  2  7  1  1  0  0  0
  3  5  1  0  0  0  0
  3  4  2  0  0  0  0
  4 10  1  0  0  0  0
  5 12  1  6  0  0  0
  5 13  1  0  0  0  0
  6  3  1  0  0  0  0
  8  7  1  0  0  0  0
  9 10  1  6  0  0  0
  9 14  1  0  0  0  0
  9  2  1  0  0  0  0
 10 14  1  0  0  0  0
 11 14  1  0  0  0  0
 13 16  1  0  0  0  0
 13 11  1  1  0  0  0
 14  8  1  1  0  0  0
 15  6  2  0  0  0  0
 15 12  1  0  0  0  0
 16 18  1  6  0  0  0
 16 17  1  0  0  0  0
 17 19  1  1  0  0  0
 18 17  1  0  0  0  0
 19 20  1  0  0  0  0
 20 21  1  0  0  0  0
 21 22  1  0  0  0  0
 22 23  2  0  0  0  0
 22 24  1  0  0  0  0
 24 25  1  0  0  0  0
 26 28  2  0  0  0  0
 28 27  1  0  0  0  0
 28 25  1  0  0  0  0
 29 31  1  1  0  0  0
 29  2  1  0  0  0  0
 30 32  1  6  0  0  0
 30 31  1  0  0  0  0
 30 29  1  0  0  0  0
 33 34  1  0  0  0  0
 34 32  1  0  0  0  0
 35 34  2  0  0  0  0
M  END
>  <MODEL>
5

>  <REMARK>
 VINA RESULT:      -6.1      3.842      6.755
  Name = 
  11 active torsions:
  status: ('A' for Active; 'I' for Inactive)
    1  A    between atoms: C_2  and  C_23
    2  A    between atoms: C_3  and  C_18
    3  A    between atoms: C_3  and  O_24
    4  A    between atoms: C_4  and  C_15
    5  A    between atoms: O_5  and  C_29
    6  A    between atoms: O_5  and  C_30
    7  A    between atoms: C_6  and  C_31
    8  A    between atoms: C_20  and  C_22
    9  A    between atoms: C_20  and  C_33
   10  A    between atoms: O_24  and  C_30
   11  A    between atoms: C_29  and  C_31
                            x       y       z     vdW  Elec       q    Type
                         _______ _______ _______ _____ _____    ______ ____

>  <TORSDO>
F 11

$$$$
=
 OpenBabel11072413083D

 35 40  0  0  1  0  0  0  0  0999 V2000
  162.5830  209.2480  148.6190 N   0  0  0  0  0  1  0  0  0  0  0  0
  160.5500  202.9650  150.2570 C   0  0  1  0  0  3  0  0  0  0  0  0
  161.4550  207.6870  150.2940 C   0  0  0  0  0  0  0  0  0  0  0  0
  161.6390  206.5540  149.6860 N   0  0  0  0  0  0  0  0  0  0  0  0
  160.8820  207.8790  151.6620 C   0  0  2  0  0  3  0  0  0  0  0  0
  161.9750  208.9640  149.8760 C   0  0  0  0  0  0  0  0  0  0  0  0
  161.5890  202.4310  151.2340 C   0  0  0  0  0  2  0  0  0  0  0  0
  162.0750  203.6340  152.0120 C   0  0  0  0  0  2  0  0  0  0  0  0
  160.1890  204.3880  150.6990 C   0  0  2  0  0  3  0  0  0  0  0  0
  161.2760  205.3720  150.3430 N   0  0  0  0  0  0  0  0  0  0  0  0
  160.6490  205.6690  152.7050 N   0  0  0  0  0  2  0  0  0  0  0  0
  161.2650  209.2320  151.9090 O   0  0  0  0  0  0  0  0  0  0  0  0
  161.4840  206.8770  152.6670 C   0  0  2  0  0  3  0  0  0  0  0  0
  161.0960  204.7300  151.6720 C   0  0  2  0  0  0  0  0  0  0  0  0
  161.8620  209.8310  150.8190 N   0  0  0  0  0  0  0  0  0  0  0  0
  161.6560  207.4170  154.0810 C   0  0  1  0  0  3  0  0  0  0  0  0
  160.4840  208.3480  154.3520 C   0  0  1  0  0  3  0  0  0  0  0  0
  160.5090  206.9680  154.9730 C   0  0  0  0  0  2  0  0  0  0  0  0
  160.8380  209.3770  155.4050 C   0  0  0  0  0  2  0  0  0  0  0  0
  159.6080  210.2330  155.6480 C   0  0  0  0  0  2  0  0  0  0  0  0
  159.0420  210.6690  154.4180 O   0  0  0  0  0  0  0  0  0  0  0  0
  158.0970  211.6970  154.3540 C   0  0  0  0  0  0  0  0  0  0  0  0
  156.8610  211.4400  154.3750 O   0  0  0  0  0  0  0  0  0  0  0  0
  158.5410  213.0130  154.2350 O   0  0  0  0  0  0  0  0  0  0  0  0
  158.1720  213.8550  153.1500 C   0  0  0  0  0  2  0  0  0  0  0  0
  157.8630  213.1910  150.8850 O   0  0  0  0  0  0  0  0  0  0  0  0
  159.9440  212.7790  151.7650 O   0  0  0  0  0  1  0  0  0  0  0  0
  158.6460  213.2630  151.8700 C   0  0  0  0  0  0  0  0  0  0  0  0
  161.1060  202.9020  148.8390 C   0  0  2  0  0  3  0  0  0  0  0  0
  160.4370  201.8460  148.0370 C   0  0  2  0  0  3  0  0  0  0  0  0
  161.6910  201.6330  148.6550 O   0  0  0  0  0  0  0  0  0  0  0  0
  160.6210  202.1560  146.5520 C   0  0  0  0  0  2  0  0  0  0  0  0
  159.8520  200.9130  144.6550 O   0  0  0  0  0  0  0  0  0  0  0  0
  160.5580  200.9300  145.7000 C   0  0  0  0  0  0  0  0  0  0  0  0
  161.2490  199.7900  146.0800 O   0  0  0  0  0  1  0  0  0  0  0  0
  1  6  1  0  0  0  0
  2  9  1  0  0  0  0
  2  7  1  1  0  0  0
  4  3  2  0  0  0  0
  4 10  1  0  0  0  0
  5  3  1  6  0  0  0
  5 12  1  0  0  0  0
  5 13  1  0  0  0  0
  6  3  1  0  0  0  0
  6 15  2  0  0  0  0
  7  8  1  0  0  0  0
  9 10  1  6  0  0  0
  9 14  1  0  0  0  0
 10 14  1  0  0  0  0
 13 11  1  1  0  0  0
 13 16  1  0  0  0  0
 14  8  1  1  0  0  0
 14 11  1  0  0  0  0
 15 12  1  0  0  0  0
 16 17  1  0  0  0  0
 16 18  1  1  0  0  0
 17 18  1  0  0  0  0
 17 19  1  1  0  0  0
 19 20  1  0  0  0  0
 21 20  1  0  0  0  0
 22 23  2  0  0  0  0
 22 21  1  0  0  0  0
 24 22  1  0  0  0  0
 25 24  1  0  0  0  0
 26 28  2  0  0  0  0
 27 28  1  0  0  0  0
 28 25  1  0  0  0  0
 29 31  1  1  0  0  0
 29  2  1  0  0  0  0
 30 32  1  6  0  0  0
 30 31  1  0  0  0  0
 30 29  1  0  0  0  0
 33 34  2  0  0  0  0
 34 35  1  0  0  0  0
 34 32  1  0  0  0  0
M  END
>  <MODEL>
6

>  <REMARK>
 VINA RESULT:      -5.9      2.558      4.908
  Name = 
  11 active torsions:
  status: ('A' for Active; 'I' for Inactive)
    1  A    between atoms: C_2  and  C_23
    2  A    between atoms: C_3  and  C_18
    3  A    between atoms: C_3  and  O_24
    4  A    between atoms: C_4  and  C_15
    5  A    between atoms: O_5  and  C_29
    6  A    between atoms: O_5  and  C_30
    7  A    between atoms: C_6  and  C_31
    8  A    between atoms: C_20  and  C_22
    9  A    between atoms: C_20  and  C_33
   10  A    between atoms: O_24  and  C_30
   11  A    between atoms: C_29  and  C_31
                            x       y       z     vdW  Elec       q    Type
                         _______ _______ _______ _____ _____    ______ ____

>  <TORSDO>
F 11

$$$$
=
 OpenBabel11072413083D

 35 40  0  0  1  0  0  0  0  0999 V2000
  161.2340  210.8920  149.8140 N   0  0  0  0  0  1  0  0  0  0  0  0
  160.6990  208.4130  156.1270 C   0  0  1  0  0  3  0  0  0  0  0  0
  161.7940  209.0500  151.4890 C   0  0  0  0  0  0  0  0  0  0  0  0
  161.1070  209.4720  152.5070 N   0  0  0  0  0  0  0  0  0  0  0  0
  162.5300  207.7520  151.3890 C   0  0  2  0  0  3  0  0  0  0  0  0
  161.7970  209.6330  150.1710 C   0  0  0  0  0  0  0  0  0  0  0  0
  159.6360  207.3250  156.0600 C   0  0  0  0  0  2  0  0  0  0  0  0
  159.7600  206.7180  154.6800 C   0  0  0  0  0  2  0  0  0  0  0  0
  161.6480  208.2060  154.9400 C   0  0  2  0  0  3  0  0  0  0  0  0
  161.0230  208.6610  153.6440 N   0  0  0  0  0  0  0  0  0  0  0  0
  161.9500  206.3990  153.3540 N   0  0  0  0  0  2  0  0  0  0  0  0
  162.7550  207.6950  149.9810 O   0  0  0  0  0  0  0  0  0  0  0  0
  161.6770  206.5830  151.9230 C   0  0  2  0  0  3  0  0  0  0  0  0
  161.0600  207.2580  154.1390 C   0  0  2  0  0  0  0  0  0  0  0  0
  162.3450  208.8370  149.3230 N   0  0  0  0  0  0  0  0  0  0  0  0
  161.8810  205.2600  151.1950 C   0  0  1  0  0  3  0  0  0  0  0  0
  160.6460  204.4110  151.4540 C   0  0  1  0  0  3  0  0  0  0  0  0
  160.8330  205.0760  150.1080 C   0  0  0  0  0  2  0  0  0  0  0  0
  160.9640  202.9350  151.3320 C   0  0  0  0  0  2  0  0  0  0  0  0
  160.3130  202.4250  150.0600 C   0  0  0  0  0  2  0  0  0  0  0  0
  161.2020  201.5830  149.3360 O   0  0  0  0  0  0  0  0  0  0  0  0
  161.2250  201.5470  147.9380 C   0  0  0  0  0  0  0  0  0  0  0  0
  160.9640  200.4800  147.3160 O   0  0  0  0  0  0  0  0  0  0  0  0
  161.5720  202.7030  147.2420 O   0  0  0  0  0  0  0  0  0  0  0  0
  161.2080  202.9230  145.8850 C   0  0  0  0  0  2  0  0  0  0  0  0
  160.8760  204.8080  144.4690 O   0  0  0  0  0  0  0  0  0  0  0  0
  161.9740  205.2290  146.4410 O   0  0  0  0  0  1  0  0  0  0  0  0
  161.3370  204.3690  145.5570 C   0  0  0  0  0  0  0  0  0  0  0  0
  160.0270  209.7820  156.1230 C   0  0  2  0  0  3  0  0  0  0  0  0
  161.0230  210.8780  156.0190 C   0  0  2  0  0  3  0  0  0  0  0  0
  160.4680  210.4880  157.2600 O   0  0  0  0  0  0  0  0  0  0  0  0
  160.3290  212.1350  155.4970 C   0  0  0  0  0  2  0  0  0  0  0  0
  160.8150  213.6820  157.2610 O   0  0  0  0  0  1  0  0  0  0  0  0
  159.9350  213.0700  156.5950 C   0  0  0  0  0  0  0  0  0  0  0  0
  158.5960  213.2350  156.9130 O   0  0  0  0  0  0  0  0  0  0  0  0
  1  6  1  0  0  0  0
  2  7  1  6  0  0  0
  3  4  2  0  0  0  0
  4 10  1  0  0  0  0
  5 12  1  6  0  0  0
  5  3  1  0  0  0  0
  5 13  1  0  0  0  0
  6  3  1  0  0  0  0
  8  7  1  0  0  0  0
  9 10  1  6  0  0  0
  9  2  1  0  0  0  0
 10 14  1  0  0  0  0
 11 14  1  0  0  0  0
 13 11  1  1  0  0  0
 14  8  1  1  0  0  0
 14  9  1  0  0  0  0
 15 12  1  0  0  0  0
 15  6  2  0  0  0  0
 16 18  1  6  0  0  0
 16 17  1  0  0  0  0
 16 13  1  0  0  0  0
 17 19  1  6  0  0  0
 18 17  1  0  0  0  0
 20 19  1  0  0  0  0
 21 20  1  0  0  0  0
 22 21  1  0  0  0  0
 23 22  2  0  0  0  0
 24 22  1  0  0  0  0
 25 24  1  0  0  0  0
 26 28  2  0  0  0  0
 28 25  1  0  0  0  0
 28 27  1  0  0  0  0
 29  2  1  0  0  0  0
 29 31  1  1  0  0  0
 30 32  1  6  0  0  0
 30 29  1  0  0  0  0
 30 31  1  0  0  0  0
 32 34  1  0  0  0  0
 34 35  2  0  0  0  0
 34 33  1  0  0  0  0
M  END
>  <MODEL>
7

>  <REMARK>
 VINA RESULT:      -5.9      3.231      8.626
  Name = 
  11 active torsions:
  status: ('A' for Active; 'I' for Inactive)
    1  A    between atoms: C_2  and  C_23
    2  A    between atoms: C_3  and  C_18
    3  A    between atoms: C_3  and  O_24
    4  A    between atoms: C_4  and  C_15
    5  A    between atoms: O_5  and  C_29
    6  A    between atoms: O_5  and  C_30
    7  A    between atoms: C_6  and  C_31
    8  A    between atoms: C_20  and  C_22
    9  A    between atoms: C_20  and  C_33
   10  A    between atoms: O_24  and  C_30
   11  A    between atoms: C_29  and  C_31
                            x       y       z     vdW  Elec       q    Type
                         _______ _______ _______ _____ _____    ______ ____

>  <TORSDO>
F 11

$$$$
=
 OpenBabel11072413083D

 35 40  0  0  1  0  0  0  0  0999 V2000
  159.9250  212.4660  151.2620 N   0  0  0  0  0  1  0  0  0  0  0  0
  161.4820  206.5810  154.3010 C   0  0  1  0  0  3  0  0  0  0  0  0
  161.3250  210.3330  151.2970 C   0  0  0  0  0  0  0  0  0  0  0  0
  160.7850  209.7410  152.3200 N   0  0  0  0  0  0  0  0  0  0  0  0
  162.3540  209.7570  150.3770 C   0  0  2  0  0  3  0  0  0  0  0  0
  160.8800  211.5690  150.7040 C   0  0  0  0  0  0  0  0  0  0  0  0
  160.7760  205.4970  153.4980 C   0  0  0  0  0  2  0  0  0  0  0  0
  160.7630  205.9910  152.0680 C   0  0  0  0  0  2  0  0  0  0  0  0
  162.1710  207.5210  153.3030 C   0  0  2  0  0  3  0  0  0  0  0  0
  161.1790  208.4330  152.6240 N   0  0  0  0  0  0  0  0  0  0  0  0
  162.6140  207.3780  150.9240 N   0  0  0  0  0  2  0  0  0  0  0  0
  162.2750  210.6850  149.2960 O   0  0  0  0  0  0  0  0  0  0  0  0
  161.9970  208.3120  149.9730 C   0  0  2  0  0  3  0  0  0  0  0  0
  161.7110  207.1640  152.0590 C   0  0  2  0  0  0  0  0  0  0  0  0
  161.4310  211.7460  149.5570 N   0  0  0  0  0  0  0  0  0  0  0  0
  162.3990  207.9280  148.5550 C   0  0  1  0  0  3  0  0  0  0  0  0
  161.6150  206.6780  148.1890 C   0  0  1  0  0  3  0  0  0  0  0  0
  161.2070  208.0170  147.6150 C   0  0  0  0  0  2  0  0  0  0  0  0
  162.3340  205.8740  147.1260 C   0  0  0  0  0  2  0  0  0  0  0  0
  161.2990  205.4070  146.1190 C   0  0  0  0  0  2  0  0  0  0  0  0
  161.7310  204.2240  145.4590 O   0  0  0  0  0  0  0  0  0  0  0  0
  161.2090  202.9640  145.7680 C   0  0  0  0  0  0  0  0  0  0  0  0
  160.4460  202.3650  144.9590 O   0  0  0  0  0  0  0  0  0  0  0  0
  161.5200  202.3910  146.9990 O   0  0  0  0  0  0  0  0  0  0  0  0
  160.5550  201.7230  147.8030 C   0  0  0  0  0  2  0  0  0  0  0  0
  160.4590  201.3980  150.1590 O   0  0  0  0  0  1  0  0  0  0  0  0
  160.9430  203.5350  149.4710 O   0  0  0  0  0  0  0  0  0  0  0  0
  160.6530  202.2020  149.2080 C   0  0  0  0  0  0  0  0  0  0  0  0
  160.4710  207.2940  155.1910 C   0  0  2  0  0  3  0  0  0  0  0  0
  161.1370  208.2340  156.1290 C   0  0  2  0  0  3  0  0  0  0  0  0
  160.7390  206.9370  156.5280 O   0  0  0  0  0  0  0  0  0  0  0  0
  160.1190  209.2710  156.6010 C   0  0  0  0  0  2  0  0  0  0  0  0
  161.6070  210.8930  155.6550 O   0  0  0  0  0  0  0  0  0  0  0  0
  160.5570  210.6720  156.3180 C   0  0  0  0  0  0  0  0  0  0  0  0
  159.8260  211.7380  156.8210 O   0  0  0  0  0  1  0  0  0  0  0  0
  2  7  1  6  0  0  0
  2 29  1  0  0  0  0
  3  4  2  0  0  0  0
  4 10  1  0  0  0  0
  5 12  1  6  0  0  0
  5  3  1  0  0  0  0
  6  1  1  0  0  0  0
  6  3  1  0  0  0  0
  8  7  1  0  0  0  0
  9 10  1  1  0  0  0
  9  2  1  0  0  0  0
 11 14  1  0  0  0  0
 12 15  1  0  0  0  0
 13  5  1  0  0  0  0
 13 11  1  1  0  0  0
 14  8  1  6  0  0  0
 14 10  1  0  0  0  0
 14  9  1  0  0  0  0
 15  6  2  0  0  0  0
 16 18  1  6  0  0  0
 16 13  1  0  0  0  0
 17 19  1  6  0  0  0
 17 16  1  0  0  0  0
 18 17  1  0  0  0  0
 20 19  1  0  0  0  0
 21 22  1  0  0  0  0
 21 20  1  0  0  0  0
 22 24  1  0  0  0  0
 23 22  2  0  0  0  0
 24 25  1  0  0  0  0
 25 28  1  0  0  0  0
 28 27  2  0  0  0  0
 28 26  1  0  0  0  0
 29 30  1  0  0  0  0
 29 31  1  1  0  0  0
 30 31  1  0  0  0  0
 30 32  1  1  0  0  0
 33 34  2  0  0  0  0
 34 32  1  0  0  0  0
 34 35  1  0  0  0  0
M  END
>  <MODEL>
8

>  <REMARK>
 VINA RESULT:      -5.9      2.491      7.922
  Name = 
  11 active torsions:
  status: ('A' for Active; 'I' for Inactive)
    1  A    between atoms: C_2  and  C_23
    2  A    between atoms: C_3  and  C_18
    3  A    between atoms: C_3  and  O_24
    4  A    between atoms: C_4  and  C_15
    5  A    between atoms: O_5  and  C_29
    6  A    between atoms: O_5  and  C_30
    7  A    between atoms: C_6  and  C_31
    8  A    between atoms: C_20  and  C_22
    9  A    between atoms: C_20  and  C_33
   10  A    between atoms: O_24  and  C_30
   11  A    between atoms: C_29  and  C_31
                            x       y       z     vdW  Elec       q    Type
                         _______ _______ _______ _____ _____    ______ ____

>  <TORSDO>
F 11

$$$$
=
 OpenBabel11072413083D

 35 40  0  0  1  0  0  0  0  0999 V2000
  161.8070  202.0430  152.3980 N   0  0  0  0  0  1  0  0  0  0  0  0
  161.1080  208.7850  151.8110 C   0  0  1  0  0  3  0  0  0  0  0  0
  161.0240  204.0430  151.0210 C   0  0  0  0  0  0  0  0  0  0  0  0
  161.4360  205.0060  151.7880 N   0  0  0  0  0  0  0  0  0  0  0  0
  160.4220  204.1870  149.6590 C   0  0  2  0  0  3  0  0  0  0  0  0
  161.2700  202.6370  151.2200 C   0  0  0  0  0  0  0  0  0  0  0  0
  162.2330  209.2440  150.8940 C   0  0  0  0  0  2  0  0  0  0  0  0
  162.4610  208.1040  149.9250 C   0  0  0  0  0  2  0  0  0  0  0  0
  160.4620  207.5510  151.1680 C   0  0  2  0  0  3  0  0  0  0  0  0
  161.3240  206.3240  151.3330 N   0  0  0  0  0  0  0  0  0  0  0  0
  160.6470  206.5340  148.9750 N   0  0  0  0  0  2  0  0  0  0  0  0
  160.5180  202.8410  149.1940 O   0  0  0  0  0  0  0  0  0  0  0  0
  161.2160  205.1920  148.8000 C   0  0  2  0  0  3  0  0  0  0  0  0
  161.2780  207.1900  150.1240 C   0  0  2  0  0  0  0  0  0  0  0  0
  160.9810  201.9700  150.1600 N   0  0  0  0  0  0  0  0  0  0  0  0
  161.2730  204.8570  147.3150 C   0  0  1  0  0  3  0  0  0  0  0  0
  162.4440  205.6270  146.7250 C   0  0  1  0  0  3  0  0  0  0  0  0
  162.5690  204.1400  146.9730 C   0  0  0  0  0  2  0  0  0  0  0  0
  162.2450  205.8730  145.2440 C   0  0  0  0  0  2  0  0  0  0  0  0
  160.8100  205.5180  144.9040 C   0  0  0  0  0  2  0  0  0  0  0  0
  160.7510  204.3240  144.1330 O   0  0  0  0  0  0  0  0  0  0  0  0
  159.9330  203.2460  144.4870 C   0  0  0  0  0  0  0  0  0  0  0  0
  158.7180  203.2190  144.1450 O   0  0  0  0  0  0  0  0  0  0  0  0
  160.4740  202.2150  145.2530 O   0  0  0  0  0  0  0  0  0  0  0  0
  159.9420  200.8960  145.2530 C   0  0  0  0  0  2  0  0  0  0  0  0
  161.2730  200.3510  147.1500 O   0  0  0  0  0  1  0  0  0  0  0  0
  161.2080  198.7620  145.4940 O   0  0  0  0  0  0  0  0  0  0  0  0
  160.8390  199.9920  146.0220 C   0  0  0  0  0  0  0  0  0  0  0  0
  161.6650  208.5100  153.2020 C   0  0  2  0  0  3  0  0  0  0  0  0
  160.7270  208.9580  154.2640 C   0  0  2  0  0  3  0  0  0  0  0  0
  161.8280  209.7470  153.8590 O   0  0  0  0  0  0  0  0  0  0  0  0
  161.0520  208.2170  155.5600 C   0  0  0  0  0  2  0  0  0  0  0  0
  162.6570  209.1300  157.0860 O   0  0  0  0  0  0  0  0  0  0  0  0
  161.4700  209.1400  156.6580 C   0  0  0  0  0  0  0  0  0  0  0  0
  160.5380  209.9880  157.2380 O   0  0  0  0  0  1  0  0  0  0  0  0
  2  7  1  6  0  0  0
  2 29  1  0  0  0  0
  3  6  1  0  0  0  0
  3  4  2  0  0  0  0
  5 12  1  6  0  0  0
  5  3  1  0  0  0  0
  6  1  1  0  0  0  0
  8  7  1  0  0  0  0
  9 10  1  1  0  0  0
  9  2  1  0  0  0  0
 10  4  1  0  0  0  0
 11 14  1  0  0  0  0
 12 15  1  0  0  0  0
 13 11  1  6  0  0  0
 13  5  1  0  0  0  0
 14  8  1  6  0  0  0
 14  9  1  0  0  0  0
 14 10  1  0  0  0  0
 15  6  2  0  0  0  0
 16 18  1  1  0  0  0
 16 13  1  0  0  0  0
 17 19  1  6  0  0  0
 17 18  1  0  0  0  0
 17 16  1  0  0  0  0
 20 19  1  0  0  0  0
 21 22  1  0  0  0  0
 21 20  1  0  0  0  0
 22 24  1  0  0  0  0
 23 22  2  0  0  0  0
 25 24  1  0  0  0  0
 25 28  1  0  0  0  0
 27 28  2  0  0  0  0
 28 26  1  0  0  0  0
 29 31  1  1  0  0  0
 29 30  1  0  0  0  0
 30 32  1  1  0  0  0
 31 30  1  0  0  0  0
 32 34  1  0  0  0  0
 34 33  2  0  0  0  0
 34 35  1  0  0  0  0
M  END
>  <MODEL>
9

>  <REMARK>
 VINA RESULT:      -5.7      3.725      8.636
  Name = 
  11 active torsions:
  status: ('A' for Active; 'I' for Inactive)
    1  A    between atoms: C_2  and  C_23
    2  A    between atoms: C_3  and  C_18
    3  A    between atoms: C_3  and  O_24
    4  A    between atoms: C_4  and  C_15
    5  A    between atoms: O_5  and  C_29
    6  A    between atoms: O_5  and  C_30
    7  A    between atoms: C_6  and  C_31
    8  A    between atoms: C_20  and  C_22
    9  A    between atoms: C_20  and  C_33
   10  A    between atoms: O_24  and  C_30
   11  A    between atoms: C_29  and  C_31
                            x       y       z     vdW  Elec       q    Type
                         _______ _______ _______ _____ _____    ______ ____

>  <TORSDO>
F 11

$$$$
