=
 OpenBabel11072413543D

 46 52  0  0  1  0  0  0  0  0999 V2000
  160.4830  211.0650  151.2000 C   0  0  1  0  0  3  0  0  0  0  0  0
  156.4900  212.9790  156.5470 C   0  0  2  0  0  3  0  0  0  0  0  0
  159.7780  212.3460  156.3910 C   0  0  0  0  0  2  0  0  0  0  0  0
  155.6300  212.0330  154.5030 F   0  0  0  0  0  0  0  0  0  0  0  0
  157.7440  213.4980  156.9340 O   0  0  0  0  0  0  0  0  0  0  0  0
  158.6920  211.5890  152.3060 C   0  0  0  0  0  2  0  0  0  0  0  0
  157.9360  212.5580  154.7460 C   0  0  1  0  0  3  0  0  0  0  0  0
  156.6920  212.0200  155.3930 C   0  0  0  0  0  0  0  0  0  0  0  0
  160.3750  211.5900  155.2180 C   0  0  0  0  0  2  0  0  0  0  0  0
  159.1920  214.4530  155.4350 O   0  0  0  0  0  1  0  0  0  0  0  0
  158.6550  213.2480  155.8860 C   0  0  2  0  0  0  0  0  0  0  0  0
  156.8670  210.7430  155.9000 F   0  0  0  0  0  0  0  0  0  0  0  0
  159.0220  211.2780  154.0570 P   0  0  1  0  0  4  0  0  0  0  0  0
  155.6500  214.0320  156.1800 O   0  0  0  0  0  1  0  0  0  0  0  0
  161.0650  210.4810  152.4370 C   0  0  2  0  0  0  0  0  0  0  0  0
  160.0990  211.7190  152.5480 C   0  0  2  0  0  0  0  0  0  0  0  0
  162.4040  210.8290  152.7290 O   0  0  0  0  0  0  0  0  0  0  0  0
  162.6870  210.4390  154.0470 C   0  0  0  0  0  1  0  0  0  0  0  0
  161.9830  211.3180  149.3620 O   0  0  0  0  0  1  0  0  0  0  0  0
  161.4140  212.0000  150.4370 C   0  0  1  0  0  3  0  0  0  0  0  0
  160.6390  213.1980  149.9160 C   0  0  0  0  0  2  0  0  0  0  0  0
  162.6230  214.2470  146.9130 C   0  0  0  0  0  3  0  0  0  0  0  0
  161.1390  213.0050  145.3740 C   0  0  0  0  0  0  0  0  0  0  0  0
  161.9050  214.3290  148.0350 C   0  0  0  0  0  3  0  0  0  0  0  0
  160.8680  213.3620  148.4560 C   0  0  0  0  0  0  0  0  0  0  0  0
  160.0670  212.7720  146.1370 C   0  0  0  0  0  3  0  0  0  0  0  0
  162.5150  213.0980  145.9660 C   0  0  0  0  0  2  0  0  0  0  0  0
  160.0510  212.7120  147.6140 C   0  0  0  0  0  3  0  0  0  0  0  0
  160.9530  213.1020  143.9910 O   0  0  0  0  0  0  0  0  0  0  0  0
  160.0270  212.2940  143.2710 C   0  0  0  0  0  2  0  0  0  0  0  0
  160.3260  212.3290  141.7810 C   0  0  0  0  0  2  0  0  0  0  0  0
  161.8020  212.5550  141.5470 C   0  0  0  0  0  1  0  0  0  0  0  0
  160.6430  208.9930  152.6610 C   0  0  1  0  0  3  0  0  0  0  0  0
  160.8850  208.1240  151.4320 C   0  0  0  0  0  2  0  0  0  0  0  0
  162.0580  207.2780  151.6370 N   0  0  0  0  0  2  0  0  0  0  0  0
  161.7080  204.8280  151.4670 C   0  0  0  0  0  2  0  0  0  0  0  0
  160.9080  206.0520  149.9380 O   0  0  0  0  0  0  0  0  0  0  0  0
  160.5220  204.8370  150.5380 C   0  0  0  0  0  2  0  0  0  0  0  0
  162.0580  206.1050  150.7450 C   0  0  1  0  0  3  0  0  0  0  0  0
  161.2500  208.4180  153.7840 O   0  0  0  0  0  0  0  0  0  0  0  0
  160.2540  207.6350  154.3710 C   0  0  2  0  0  3  0  0  0  0  0  0
  160.5410  207.3620  155.7980 C   0  0  1  0  0  0  0  0  0  0  0  0
  159.4630  206.9610  156.5850 O   0  0  0  0  0  1  0  0  0  0  0  0
  160.8170  206.4150  154.8030 O   0  0  0  0  0  0  0  0  0  0  0  0
  161.8020  207.8520  156.4920 C   0  0  0  0  0  2  0  0  0  0  0  0
  161.5070  209.1240  157.2610 C   0  0  0  0  0  1  0  0  0  0  0  0
  1 20  1  6  0  0  0
  1 15  1  0  0  0  0
  1 16  1  0  0  0  0
  2 14  1  6  0  0  0
  2  5  1  0  0  0  0
  4  8  1  0  0  0  0
  7  8  1  1  0  0  0
  7 11  1  0  0  0  0
  8 12  1  0  0  0  0
  8  2  1  0  0  0  0
  9  3  1  0  0  0  0
 11 10  1  6  0  0  0
 11  3  1  0  0  0  0
 11  5  1  0  0  0  0
 13  6  1  1  0  0  0
 13  7  1  0  0  0  0
 13  9  1  0  0  0  0
 15 16  1  0  0  0  0
 15 33  1  0  0  0  0
 15 17  1  1  0  0  0
 16  6  1  6  0  0  0
 16 13  1  0  0  0  0
 17 18  1  0  0  0  0
 20 19  1  6  0  0  0
 21 20  1  0  0  0  0
 22 24  2  0  0  0  0
 23 27  1  0  0  0  0
 23 26  2  0  0  0  0
 24 25  1  0  0  0  0
 25 21  1  0  0  0  0
 26 28  1  0  0  0  0
 27 22  1  0  0  0  0
 28 25  2  0  0  0  0
 29 23  1  0  0  0  0
 30 29  1  0  0  0  0
 31 30  1  0  0  0  0
 32 31  1  0  0  0  0
 33 34  1  6  0  0  0
 33 40  1  0  0  0  0
 34 35  1  0  0  0  0
 37 38  1  0  0  0  0
 37 39  1  0  0  0  0
 38 36  1  0  0  0  0
 39 36  1  0  0  0  0
 39 35  1  1  0  0  0
 41 40  1  6  0  0  0
 41 44  1  0  0  0  0
 41 42  1  0  0  0  0
 42 45  1  0  0  0  0
 42 43  1  1  0  0  0
 44 42  1  0  0  0  0
 45 46  1  0  0  0  0
M  END
>  <MODEL>
1

>  <REMARK>
 VINA RESULT:      -4.5      0.000      0.000
  Name = 
  14 active torsions:
  status: ('A' for Active; 'I' for Inactive)
    1  A    between atoms: C_1  and  C_5
    2  A    between atoms: C_2  and  C_31
    3  A    between atoms: C_3  and  C_45
    4  A    between atoms: C_4  and  O_19
    5  A    between atoms: O_6  and  C_23
    6  A    between atoms: O_6  and  C_31
    7  A    between atoms: O_7  and  C_44
    8  A    between atoms: C_9  and  C_11
    9  A    between atoms: C_9  and  N_18
   10  A    between atoms: C_11  and  O_19
   11  A    between atoms: C_11  and  C_44
   12  A    between atoms: N_18  and  C_40
   13  A    between atoms: C_30  and  C_42
   14  A    between atoms: C_42  and  C_45
                            x       y       z     vdW  Elec       q    Type
                         _______ _______ _______ _____ _____    ______ ____

>  <TORSDO>
F 14

$$$$
=
 OpenBabel11072413543D

 46 52  0  0  1  0  0  0  0  0999 V2000
  162.6390  208.5490  150.9560 C   0  0  1  0  0  3  0  0  0  0  0  0
  162.0390  204.5050  145.3450 C   0  0  2  0  0  3  0  0  0  0  0  0
  159.7060  205.7320  147.4150 C   0  0  0  0  0  2  0  0  0  0  0  0
  164.0980  204.8140  146.5610 F   0  0  0  0  0  0  0  0  0  0  0  0
  160.7910  205.1620  145.3510 O   0  0  0  0  0  0  0  0  0  0  0  0
  163.2360  207.3450  149.2520 C   0  0  0  0  0  2  0  0  0  0  0  0
  162.1440  206.0520  147.1070 C   0  0  1  0  0  3  0  0  0  0  0  0
  162.7200  204.7330  146.6780 C   0  0  0  0  0  0  0  0  0  0  0  0
  160.0800  206.2820  148.7790 C   0  0  0  0  0  2  0  0  0  0  0  0
  160.5710  207.3740  145.9140 O   0  0  0  0  0  1  0  0  0  0  0  0
  160.8000  206.0920  146.4130 C   0  0  2  0  0  0  0  0  0  0  0  0
  162.3790  203.7010  147.5360 F   0  0  0  0  0  0  0  0  0  0  0  0
  161.8840  206.1970  148.8980 P   0  0  1  0  0  4  0  0  0  0  0  0
  162.8150  205.0010  144.2960 O   0  0  0  0  0  1  0  0  0  0  0  0
  161.4550  207.6730  151.1490 C   0  0  2  0  0  0  0  0  0  0  0  0
  162.0000  207.9240  149.6940 C   0  0  2  0  0  0  0  0  0  0  0  0
  160.2190  208.3240  151.3680 O   0  0  0  0  0  0  0  0  0  0  0  0
  160.3570  209.1820  152.4700 C   0  0  0  0  0  1  0  0  0  0  0  0
  163.0780  210.6510  151.9970 O   0  0  0  0  0  1  0  0  0  0  0  0
  162.3400  210.0430  150.9820 C   0  0  1  0  0  3  0  0  0  0  0  0
  162.7070  210.6730  149.6490 C   0  0  0  0  0  2  0  0  0  0  0  0
  160.1830  213.3830  150.2390 C   0  0  0  0  0  3  0  0  0  0  0  0
  159.9160  213.8000  147.8170 C   0  0  0  0  0  0  0  0  0  0  0  0
  160.7770  212.1880  150.2820 C   0  0  0  0  0  3  0  0  0  0  0  0
  161.6500  211.6310  149.2260 C   0  0  0  0  0  0  0  0  0  0  0  0
  160.4650  212.7080  147.2770 C   0  0  0  0  0  3  0  0  0  0  0  0
  160.4000  214.3520  149.1250 C   0  0  0  0  0  2  0  0  0  0  0  0
  161.4810  211.8430  147.9130 C   0  0  0  0  0  3  0  0  0  0  0  0
  158.9110  214.4530  147.0970 O   0  0  0  0  0  0  0  0  0  0  0  0
  157.6830  213.8290  146.7290 C   0  0  0  0  0  2  0  0  0  0  0  0
  157.0560  213.1280  147.9230 C   0  0  0  0  0  2  0  0  0  0  0  0
  156.4400  214.1390  148.8630 C   0  0  0  0  0  1  0  0  0  0  0  0
  161.7690  206.4120  152.0180 C   0  0  1  0  0  3  0  0  0  0  0  0
  161.9070  206.7420  153.4990 C   0  0  0  0  0  2  0  0  0  0  0  0
  160.6250  206.5640  154.1770 N   0  0  0  0  0  2  0  0  0  0  0  0
  161.4440  208.2720  155.7780 C   0  0  0  0  0  2  0  0  0  0  0  0
  159.4680  207.5550  156.0180 O   0  0  0  0  0  0  0  0  0  0  0  0
  160.1110  208.7870  156.2560 C   0  0  0  0  0  2  0  0  0  0  0  0
  160.6790  206.9870  155.5870 C   0  0  1  0  0  3  0  0  0  0  0  0
  160.8370  205.3820  151.8380 O   0  0  0  0  0  0  0  0  0  0  0  0
  161.4630  204.2390  152.3390 C   0  0  2  0  0  3  0  0  0  0  0  0
  161.2410  203.0640  151.4640 C   0  0  1  0  0  0  0  0  0  0  0  0
  162.1250  201.9980  151.6180 O   0  0  0  0  0  1  0  0  0  0  0  0
  160.4850  203.2630  152.6270 O   0  0  0  0  0  0  0  0  0  0  0  0
  160.3890  203.1250  150.2070 C   0  0  0  0  0  2  0  0  0  0  0  0
  160.4150  201.7860  149.5000 C   0  0  0  0  0  1  0  0  0  0  0  0
  1 20  1  6  0  0  0
  1 15  1  0  0  0  0
  2 14  1  6  0  0  0
  2  5  1  0  0  0  0
  2  8  1  0  0  0  0
  3  9  1  0  0  0  0
  4  8  1  0  0  0  0
  5 11  1  0  0  0  0
  7  8  1  1  0  0  0
  7 13  1  0  0  0  0
  8 12  1  0  0  0  0
 11 10  1  6  0  0  0
 11  7  1  0  0  0  0
 11  3  1  0  0  0  0
 13  9  1  1  0  0  0
 13  6  1  0  0  0  0
 13 16  1  0  0  0  0
 15 17  1  1  0  0  0
 15 33  1  0  0  0  0
 16  6  1  1  0  0  0
 16  1  1  0  0  0  0
 16 15  1  0  0  0  0
 17 18  1  0  0  0  0
 20 19  1  1  0  0  0
 21 20  1  0  0  0  0
 22 24  2  0  0  0  0
 23 27  1  0  0  0  0
 25 21  1  0  0  0  0
 25 24  1  0  0  0  0
 26 23  2  0  0  0  0
 26 28  1  0  0  0  0
 27 22  1  0  0  0  0
 28 25  2  0  0  0  0
 29 23  1  0  0  0  0
 30 29  1  0  0  0  0
 30 31  1  0  0  0  0
 31 32  1  0  0  0  0
 33 34  1  1  0  0  0
 34 35  1  0  0  0  0
 36 38  1  0  0  0  0
 37 38  1  0  0  0  0
 39 35  1  6  0  0  0
 39 36  1  0  0  0  0
 39 37  1  0  0  0  0
 40 33  1  0  0  0  0
 41 40  1  6  0  0  0
 41 44  1  0  0  0  0
 42 43  1  1  0  0  0
 42 41  1  0  0  0  0
 42 44  1  0  0  0  0
 45 42  1  0  0  0  0
 46 45  1  0  0  0  0
M  END
>  <MODEL>
2

>  <REMARK>
 VINA RESULT:      -4.2      4.242      7.718
  Name = 
  14 active torsions:
  status: ('A' for Active; 'I' for Inactive)
    1  A    between atoms: C_1  and  C_5
    2  A    between atoms: C_2  and  C_31
    3  A    between atoms: C_3  and  C_45
    4  A    between atoms: C_4  and  O_19
    5  A    between atoms: O_6  and  C_23
    6  A    between atoms: O_6  and  C_31
    7  A    between atoms: O_7  and  C_44
    8  A    between atoms: C_9  and  C_11
    9  A    between atoms: C_9  and  N_18
   10  A    between atoms: C_11  and  O_19
   11  A    between atoms: C_11  and  C_44
   12  A    between atoms: N_18  and  C_40
   13  A    between atoms: C_30  and  C_42
   14  A    between atoms: C_42  and  C_45
                            x       y       z     vdW  Elec       q    Type
                         _______ _______ _______ _____ _____    ______ ____

>  <TORSDO>
F 14

$$$$
=
 OpenBabel11072413543D

 46 52  0  0  1  0  0  0  0  0999 V2000
  161.0860  208.7350  153.4020 C   0  0  1  0  0  3  0  0  0  0  0  0
  156.4330  213.8850  153.2500 C   0  0  2  0  0  3  0  0  0  0  0  0
  159.5180  213.6890  151.9560 C   0  0  0  0  0  2  0  0  0  0  0  0
  156.3530  212.0530  154.8150 F   0  0  0  0  0  0  0  0  0  0  0  0
  157.1620  214.1330  152.0680 O   0  0  0  0  0  0  0  0  0  0  0  0
  159.2520  209.8220  153.8060 C   0  0  0  0  0  2  0  0  0  0  0  0
  157.9590  212.1120  153.0630 C   0  0  1  0  0  3  0  0  0  0  0  0
  157.1940  212.8870  154.0970 C   0  0  0  0  0  0  0  0  0  0  0  0
  160.4960  212.6230  152.4190 C   0  0  0  0  0  2  0  0  0  0  0  0
  157.9090  212.4420  150.7110 O   0  0  0  0  0  1  0  0  0  0  0  0
  158.1110  213.0980  151.9250 C   0  0  2  0  0  0  0  0  0  0  0  0
  158.0250  213.5790  154.9620 F   0  0  0  0  0  0  0  0  0  0  0  0
  159.6090  211.5850  153.6060 P   0  0  1  0  0  4  0  0  0  0  0  0
  155.1690  213.3960  152.9170 O   0  0  0  0  0  1  0  0  0  0  0  0
  161.8290  210.0220  153.3650 C   0  0  2  0  0  0  0  0  0  0  0  0
  160.3340  209.9800  152.8770 C   0  0  2  0  0  0  0  0  0  0  0  0
  162.7300  210.1980  152.2890 O   0  0  0  0  0  0  0  0  0  0  0  0
  161.9930  210.2350  151.0940 C   0  0  0  0  0  1  0  0  0  0  0  0
  162.7100  207.3920  152.2830 O   0  0  0  0  0  1  0  0  0  0  0  0
  161.3760  207.7970  152.2380 C   0  0  1  0  0  3  0  0  0  0  0  0
  160.4790  206.5730  152.3160 C   0  0  0  0  0  2  0  0  0  0  0  0
  161.2400  203.1060  151.1090 C   0  0  0  0  0  3  0  0  0  0  0  0
  161.2390  203.8210  148.7430 C   0  0  0  0  0  0  0  0  0  0  0  0
  161.3500  204.2560  151.7790 C   0  0  0  0  0  3  0  0  0  0  0  0
  160.8850  205.5730  151.2930 C   0  0  0  0  0  0  0  0  0  0  0  0
  161.3310  205.1500  148.8460 C   0  0  0  0  0  3  0  0  0  0  0  0
  160.5460  203.0010  149.7920 C   0  0  0  0  0  2  0  0  0  0  0  0
  160.9120  205.9600  150.0090 C   0  0  0  0  0  3  0  0  0  0  0  0
  161.7570  203.2140  147.5940 O   0  0  0  0  0  0  0  0  0  0  0  0
  161.1020  203.2530  146.3290 C   0  0  0  0  0  2  0  0  0  0  0  0
  161.8020  204.2200  145.3890 C   0  0  0  0  0  2  0  0  0  0  0  0
  160.8870  205.3740  145.0450 C   0  0  0  0  0  1  0  0  0  0  0  0
  162.2970  210.4930  154.7800 C   0  0  1  0  0  3  0  0  0  0  0  0
  162.0840  209.4300  155.8510 C   0  0  0  0  0  2  0  0  0  0  0  0
  160.8530  209.6990  156.5900 N   0  0  0  0  0  2  0  0  0  0  0  0
  159.3050  207.7670  156.4330 C   0  0  0  0  0  2  0  0  0  0  0  0
  161.2440  207.4230  157.2070 O   0  0  0  0  0  0  0  0  0  0  0  0
  160.3270  206.6600  156.4560 C   0  0  0  0  0  2  0  0  0  0  0  0
  160.3350  208.4940  157.2610 C   0  0  1  0  0  3  0  0  0  0  0  0
  163.6270  210.9320  154.7950 O   0  0  0  0  0  0  0  0  0  0  0  0
  163.8140  211.4720  156.0690 C   0  0  2  0  0  3  0  0  0  0  0  0
  165.1620  212.0680  156.2190 C   0  0  1  0  0  0  0  0  0  0  0  0
  165.3280  212.9800  157.2590 O   0  0  0  0  0  1  0  0  0  0  0  0
  164.8680  210.7900  156.7120 O   0  0  0  0  0  0  0  0  0  0  0  0
  166.2040  212.0320  155.1130 C   0  0  0  0  0  2  0  0  0  0  0  0
  167.5260  212.5600  155.6320 C   0  0  0  0  0  1  0  0  0  0  0  0
  1 20  1  6  0  0  0
  2 14  1  6  0  0  0
  2  8  1  0  0  0  0
  3  9  1  0  0  0  0
  5  2  1  0  0  0  0
  7 13  1  0  0  0  0
  7  8  1  1  0  0  0
  8  4  1  0  0  0  0
  8 12  1  0  0  0  0
 11 10  1  6  0  0  0
 11  3  1  0  0  0  0
 11  5  1  0  0  0  0
 11  7  1  0  0  0  0
 13  9  1  1  0  0  0
 13  6  1  0  0  0  0
 15 17  1  6  0  0  0
 15  1  1  0  0  0  0
 15 33  1  0  0  0  0
 16 15  1  0  0  0  0
 16  1  1  0  0  0  0
 16 13  1  0  0  0  0
 16  6  1  1  0  0  0
 18 17  1  0  0  0  0
 20 19  1  1  0  0  0
 20 21  1  0  0  0  0
 22 24  2  0  0  0  0
 23 26  2  0  0  0  0
 23 27  1  0  0  0  0
 25 24  1  0  0  0  0
 25 21  1  0  0  0  0
 26 28  1  0  0  0  0
 27 22  1  0  0  0  0
 28 25  2  0  0  0  0
 29 23  1  0  0  0  0
 30 29  1  0  0  0  0
 31 30  1  0  0  0  0
 32 31  1  0  0  0  0
 33 40  1  0  0  0  0
 33 34  1  1  0  0  0
 34 35  1  0  0  0  0
 36 38  1  0  0  0  0
 36 39  1  0  0  0  0
 37 39  1  0  0  0  0
 38 37  1  0  0  0  0
 39 35  1  6  0  0  0
 41 40  1  6  0  0  0
 41 42  1  0  0  0  0
 41 44  1  0  0  0  0
 42 44  1  0  0  0  0
 42 43  1  1  0  0  0
 45 46  1  0  0  0  0
 45 42  1  0  0  0  0
M  END
>  <MODEL>
3

>  <REMARK>
 VINA RESULT:      -2.9      3.666      6.276
  Name = 
  14 active torsions:
  status: ('A' for Active; 'I' for Inactive)
    1  A    between atoms: C_1  and  C_5
    2  A    between atoms: C_2  and  C_31
    3  A    between atoms: C_3  and  C_45
    4  A    between atoms: C_4  and  O_19
    5  A    between atoms: O_6  and  C_23
    6  A    between atoms: O_6  and  C_31
    7  A    between atoms: O_7  and  C_44
    8  A    between atoms: C_9  and  C_11
    9  A    between atoms: C_9  and  N_18
   10  A    between atoms: C_11  and  O_19
   11  A    between atoms: C_11  and  C_44
   12  A    between atoms: N_18  and  C_40
   13  A    between atoms: C_30  and  C_42
   14  A    between atoms: C_42  and  C_45
                            x       y       z     vdW  Elec       q    Type
                         _______ _______ _______ _____ _____    ______ ____

>  <TORSDO>
F 14

$$$$
=
 OpenBabel11072413543D

 46 52  0  0  1  0  0  0  0  0999 V2000
  160.7040  206.9560  151.2120 C   0  0  1  0  0  3  0  0  0  0  0  0
  160.8210  205.2770  144.4770 C   0  0  2  0  0  3  0  0  0  0  0  0
  163.2890  206.2270  146.5360 C   0  0  0  0  0  2  0  0  0  0  0  0
  158.8160  205.8810  145.6730 F   0  0  0  0  0  0  0  0  0  0  0  0
  162.1330  204.9400  144.8710 O   0  0  0  0  0  0  0  0  0  0  0  0
  159.9680  206.3810  149.2530 C   0  0  0  0  0  2  0  0  0  0  0  0
  160.8970  205.6310  146.7960 C   0  0  1  0  0  3  0  0  0  0  0  0
  160.1780  206.1090  145.5660 C   0  0  0  0  0  0  0  0  0  0  0  0
  162.9870  206.8980  147.8630 C   0  0  0  0  0  2  0  0  0  0  0  0
  162.5940  203.9720  146.8980 O   0  0  0  0  0  1  0  0  0  0  0  0
  162.2320  205.1590  146.2620 C   0  0  2  0  0  0  0  0  0  0  0  0
  160.4140  207.4480  145.3010 F   0  0  0  0  0  0  0  0  0  0  0  0
  161.1850  206.9290  148.0330 P   0  0  1  0  0  4  0  0  0  0  0  0
  160.0940  204.1060  144.2490 O   0  0  0  0  0  1  0  0  0  0  0  0
  161.7890  207.7380  150.5650 C   0  0  2  0  0  0  0  0  0  0  0  0
  161.2620  206.4280  149.8700 C   0  0  2  0  0  0  0  0  0  0  0  0
  163.0890  207.5690  151.0920 O   0  0  0  0  0  0  0  0  0  0  0  0
  163.3820  206.1960  151.1190 C   0  0  0  0  0  1  0  0  0  0  0  0
  161.1490  206.7400  153.5460 O   0  0  0  0  0  1  0  0  0  0  0  0
  161.1630  206.0400  152.3400 C   0  0  1  0  0  3  0  0  0  0  0  0
  160.2390  204.8380  152.4480 C   0  0  0  0  0  2  0  0  0  0  0  0
  162.1290  201.7220  151.5650 C   0  0  0  0  0  3  0  0  0  0  0  0
  160.9120  201.4700  149.4280 C   0  0  0  0  0  0  0  0  0  0  0  0
  161.8850  202.9890  151.9110 C   0  0  0  0  0  3  0  0  0  0  0  0
  160.6860  203.7630  151.5230 C   0  0  0  0  0  0  0  0  0  0  0  0
  160.3590  202.6760  149.2700 C   0  0  0  0  0  3  0  0  0  0  0  0
  161.1560  200.8950  150.7920 C   0  0  0  0  0  2  0  0  0  0  0  0
  160.0480  203.6360  150.3500 C   0  0  0  0  0  3  0  0  0  0  0  0
  161.2050  200.7260  148.2800 O   0  0  0  0  0  0  0  0  0  0  0  0
  161.1330  201.2650  146.9630 C   0  0  0  0  0  2  0  0  0  0  0  0
  160.7530  200.1870  145.9600 C   0  0  0  0  0  2  0  0  0  0  0  0
  159.9600  200.7860  144.8210 C   0  0  0  0  0  1  0  0  0  0  0  0
  161.3470  209.1900  150.1900 C   0  0  1  0  0  3  0  0  0  0  0  0
  161.5380  210.1740  151.3380 C   0  0  0  0  0  2  0  0  0  0  0  0
  160.4660  210.0180  152.3190 N   0  0  0  0  0  2  0  0  0  0  0  0
  160.1080  210.0780  154.7730 C   0  0  0  0  0  2  0  0  0  0  0  0
  162.0580  210.4630  154.0460 O   0  0  0  0  0  0  0  0  0  0  0  0
  161.5340  209.8680  155.2110 C   0  0  0  0  0  2  0  0  0  0  0  0
  160.7590  210.7270  153.5770 C   0  0  1  0  0  3  0  0  0  0  0  0
  161.9770  209.6690  149.0350 O   0  0  0  0  0  0  0  0  0  0  0  0
  162.3520  210.9780  149.3450 C   0  0  2  0  0  3  0  0  0  0  0  0
  161.7760  211.9540  148.3910 C   0  0  1  0  0  0  0  0  0  0  0  0
  161.7250  213.2810  148.8110 O   0  0  0  0  0  1  0  0  0  0  0  0
  163.1000  211.5130  148.2750 O   0  0  0  0  0  0  0  0  0  0  0  0
  160.9240  211.5370  147.2020 C   0  0  0  0  0  2  0  0  0  0  0  0
  159.8460  212.5710  146.9500 C   0  0  0  0  0  1  0  0  0  0  0  0
  1 20  1  1  0  0  0
  2 14  1  1  0  0  0
  2  5  1  0  0  0  0
  2  8  1  0  0  0  0
  3  9  1  0  0  0  0
  5 11  1  0  0  0  0
  7  8  1  6  0  0  0
  7 13  1  0  0  0  0
  8  4  1  0  0  0  0
 11  3  1  0  0  0  0
 11  7  1  0  0  0  0
 11 10  1  1  0  0  0
 12  8  1  0  0  0  0
 13  9  1  6  0  0  0
 13  6  1  0  0  0  0
 13 16  1  0  0  0  0
 15 17  1  1  0  0  0
 15  1  1  0  0  0  0
 16  6  1  6  0  0  0
 16 15  1  0  0  0  0
 16  1  1  0  0  0  0
 17 18  1  0  0  0  0
 20 21  1  0  0  0  0
 20 19  1  1  0  0  0
 22 24  2  0  0  0  0
 23 27  1  0  0  0  0
 25 24  1  0  0  0  0
 25 21  1  0  0  0  0
 26 23  2  0  0  0  0
 26 28  1  0  0  0  0
 27 22  1  0  0  0  0
 28 25  2  0  0  0  0
 29 23  1  0  0  0  0
 30 29  1  0  0  0  0
 31 30  1  0  0  0  0
 32 31  1  0  0  0  0
 33 15  1  0  0  0  0
 33 34  1  1  0  0  0
 34 35  1  0  0  0  0
 36 38  1  0  0  0  0
 37 38  1  0  0  0  0
 39 35  1  6  0  0  0
 39 37  1  0  0  0  0
 39 36  1  0  0  0  0
 40 33  1  0  0  0  0
 41 40  1  6  0  0  0
 42 43  1  1  0  0  0
 42 41  1  0  0  0  0
 44 42  1  0  0  0  0
 44 41  1  0  0  0  0
 45 42  1  0  0  0  0
 46 45  1  0  0  0  0
M  END
>  <MODEL>
4

>  <REMARK>
 VINA RESULT:      -2.9      4.157      9.891
  Name = 
  14 active torsions:
  status: ('A' for Active; 'I' for Inactive)
    1  A    between atoms: C_1  and  C_5
    2  A    between atoms: C_2  and  C_31
    3  A    between atoms: C_3  and  C_45
    4  A    between atoms: C_4  and  O_19
    5  A    between atoms: O_6  and  C_23
    6  A    between atoms: O_6  and  C_31
    7  A    between atoms: O_7  and  C_44
    8  A    between atoms: C_9  and  C_11
    9  A    between atoms: C_9  and  N_18
   10  A    between atoms: C_11  and  O_19
   11  A    between atoms: C_11  and  C_44
   12  A    between atoms: N_18  and  C_40
   13  A    between atoms: C_30  and  C_42
   14  A    between atoms: C_42  and  C_45
                            x       y       z     vdW  Elec       q    Type
                         _______ _______ _______ _____ _____    ______ ____

>  <TORSDO>
F 14

$$$$
=
 OpenBabel11072413543D

 46 52  0  0  1  0  0  0  0  0999 V2000
  160.7060  211.1250  150.6920 C   0  0  1  0  0  3  0  0  0  0  0  0
  157.4130  211.6900  156.7780 C   0  0  2  0  0  3  0  0  0  0  0  0
  160.6160  210.9880  156.0830 C   0  0  0  0  0  2  0  0  0  0  0  0
  156.2880  211.3660  154.6700 F   0  0  0  0  0  0  0  0  0  0  0  0
  158.7320  212.0340  157.1410 O   0  0  0  0  0  0  0  0  0  0  0  0
  159.0750  211.4050  152.0960 C   0  0  0  0  0  2  0  0  0  0  0  0
  158.6380  211.7110  154.7760 C   0  0  1  0  0  3  0  0  0  0  0  0
  157.4300  211.0700  155.3970 C   0  0  0  0  0  0  0  0  0  0  0  0
  161.0380  210.5520  154.6920 C   0  0  0  0  0  2  0  0  0  0  0  0
  160.0870  213.2970  155.7900 O   0  0  0  0  0  1  0  0  0  0  0  0
  159.5140  212.0380  155.9660 C   0  0  2  0  0  0  0  0  0  0  0  0
  157.5650  209.6980  155.5260 F   0  0  0  0  0  0  0  0  0  0  0  0
  159.5570  210.6200  153.6530 P   0  0  1  0  0  4  0  0  0  0  0  0
  156.6160  212.8370  156.8010 O   0  0  0  0  0  1  0  0  0  0  0  0
  161.3660  210.2060  151.6560 C   0  0  2  0  0  0  0  0  0  0  0  0
  160.5060  211.4070  152.2000 C   0  0  2  0  0  0  0  0  0  0  0  0
  162.7480  210.4080  151.8730 O   0  0  0  0  0  0  0  0  0  0  0  0
  162.9820  210.4370  153.2570 C   0  0  0  0  0  1  0  0  0  0  0  0
  162.3980  211.6320  149.0880 O   0  0  0  0  0  1  0  0  0  0  0  0
  161.6190  212.1920  150.1000 C   0  0  1  0  0  3  0  0  0  0  0  0
  160.7910  213.3290  149.5250 C   0  0  0  0  0  2  0  0  0  0  0  0
  159.8280  212.7150  145.9530 C   0  0  0  0  0  3  0  0  0  0  0  0
  161.5360  214.2930  145.1160 C   0  0  0  0  0  0  0  0  0  0  0  0
  160.2160  212.4770  147.2090 C   0  0  0  0  0  3  0  0  0  0  0  0
  160.9900  213.4130  148.0530 C   0  0  0  0  0  0  0  0  0  0  0  0
  162.3270  214.4490  146.1820 C   0  0  0  0  0  3  0  0  0  0  0  0
  160.0690  214.0170  145.2660 C   0  0  0  0  0  2  0  0  0  0  0  0
  161.9330  214.2480  147.5920 C   0  0  0  0  0  3  0  0  0  0  0  0
  162.1040  214.4530  143.8480 O   0  0  0  0  0  0  0  0  0  0  0  0
  161.6060  213.8010  142.6830 C   0  0  0  0  0  2  0  0  0  0  0  0
  161.8770  212.3060  142.7440 C   0  0  0  0  0  2  0  0  0  0  0  0
  160.7610  211.5420  142.0710 C   0  0  0  0  0  1  0  0  0  0  0  0
  160.8640  208.7320  151.5270 C   0  0  1  0  0  3  0  0  0  0  0  0
  161.6930  207.9150  150.5430 C   0  0  0  0  0  2  0  0  0  0  0  0
  160.8830  207.5490  149.3840 N   0  0  0  0  0  2  0  0  0  0  0  0
  161.4350  205.3060  148.4810 C   0  0  0  0  0  2  0  0  0  0  0  0
  161.0820  206.8710  147.1010 O   0  0  0  0  0  0  0  0  0  0  0  0
  160.8680  205.4780  147.0960 C   0  0  0  0  0  2  0  0  0  0  0  0
  161.6560  206.7940  148.3830 C   0  0  1  0  0  3  0  0  0  0  0  0
  160.7930  208.0720  152.7600 O   0  0  0  0  0  0  0  0  0  0  0  0
  162.0130  207.4030  152.8820 C   0  0  2  0  0  3  0  0  0  0  0  0
  161.8620  205.9450  152.6680 C   0  0  1  0  0  0  0  0  0  0  0  0
  163.0210  205.2380  152.3570 O   0  0  0  0  0  1  0  0  0  0  0  0
  161.9360  206.4900  153.9570 O   0  0  0  0  0  0  0  0  0  0  0  0
  160.5180  205.2880  152.3980 C   0  0  0  0  0  2  0  0  0  0  0  0
  160.7100  203.8100  152.1260 C   0  0  0  0  0  1  0  0  0  0  0  0
  1 20  1  6  0  0  0
  1 15  1  0  0  0  0
  1 16  1  0  0  0  0
  2 14  1  6  0  0  0
  2  5  1  0  0  0  0
  4  8  1  0  0  0  0
  7  8  1  1  0  0  0
  7 11  1  0  0  0  0
  8 12  1  0  0  0  0
  8  2  1  0  0  0  0
  9  3  1  0  0  0  0
 11 10  1  6  0  0  0
 11  3  1  0  0  0  0
 11  5  1  0  0  0  0
 13  6  1  6  0  0  0
 13  9  1  0  0  0  0
 13  7  1  0  0  0  0
 15 17  1  1  0  0  0
 15 16  1  0  0  0  0
 16  6  1  6  0  0  0
 16 13  1  0  0  0  0
 17 18  1  0  0  0  0
 20 19  1  6  0  0  0
 21 20  1  0  0  0  0
 22 24  2  0  0  0  0
 23 27  1  0  0  0  0
 23 26  2  0  0  0  0
 24 25  1  0  0  0  0
 25 21  1  0  0  0  0
 26 28  1  0  0  0  0
 27 22  1  0  0  0  0
 28 25  2  0  0  0  0
 29 23  1  0  0  0  0
 30 31  1  0  0  0  0
 30 29  1  0  0  0  0
 32 31  1  0  0  0  0
 33 34  1  6  0  0  0
 33 15  1  0  0  0  0
 33 40  1  0  0  0  0
 35 34  1  0  0  0  0
 37 39  1  0  0  0  0
 38 37  1  0  0  0  0
 38 36  1  0  0  0  0
 39 36  1  0  0  0  0
 39 35  1  1  0  0  0
 41 40  1  1  0  0  0
 41 44  1  0  0  0  0
 42 43  1  6  0  0  0
 42 41  1  0  0  0  0
 42 44  1  0  0  0  0
 45 42  1  0  0  0  0
 46 45  1  0  0  0  0
M  END
>  <MODEL>
5

>  <REMARK>
 VINA RESULT:      -2.6      1.565      2.400
  Name = 
  14 active torsions:
  status: ('A' for Active; 'I' for Inactive)
    1  A    between atoms: C_1  and  C_5
    2  A    between atoms: C_2  and  C_31
    3  A    between atoms: C_3  and  C_45
    4  A    between atoms: C_4  and  O_19
    5  A    between atoms: O_6  and  C_23
    6  A    between atoms: O_6  and  C_31
    7  A    between atoms: O_7  and  C_44
    8  A    between atoms: C_9  and  C_11
    9  A    between atoms: C_9  and  N_18
   10  A    between atoms: C_11  and  O_19
   11  A    between atoms: C_11  and  C_44
   12  A    between atoms: N_18  and  C_40
   13  A    between atoms: C_30  and  C_42
   14  A    between atoms: C_42  and  C_45
                            x       y       z     vdW  Elec       q    Type
                         _______ _______ _______ _____ _____    ______ ____

>  <TORSDO>
F 14

$$$$
=
 OpenBabel11072413543D

 46 52  0  0  1  0  0  0  0  0999 V2000
  160.4280  209.4800  151.5630 C   0  0  1  0  0  3  0  0  0  0  0  0
  156.1460  213.5090  155.2540 C   0  0  2  0  0  3  0  0  0  0  0  0
  159.4930  213.3700  155.1790 C   0  0  0  0  0  2  0  0  0  0  0  0
  155.4660  211.4590  154.1820 F   0  0  0  0  0  0  0  0  0  0  0  0
  157.2920  214.3260  155.1670 O   0  0  0  0  0  0  0  0  0  0  0  0
  158.5690  210.2810  152.3430 C   0  0  0  0  0  2  0  0  0  0  0  0
  157.6490  212.3480  153.8760 C   0  0  1  0  0  3  0  0  0  0  0  0
  156.5110  212.1040  154.8240 C   0  0  0  0  0  0  0  0  0  0  0  0
  160.2150  212.1740  154.5840 C   0  0  0  0  0  2  0  0  0  0  0  0
  158.5670  214.4520  153.2650 O   0  0  0  0  0  1  0  0  0  0  0  0
  158.2370  213.6560  154.3610 C   0  0  2  0  0  0  0  0  0  0  0  0
  156.8950  211.3820  155.9410 F   0  0  0  0  0  0  0  0  0  0  0  0
  158.9390  211.0710  153.9280 P   0  0  1  0  0  4  0  0  0  0  0  0
  155.1420  214.0360  154.4390 O   0  0  0  0  0  1  0  0  0  0  0  0
  161.0930  209.7920  152.8550 C   0  0  2  0  0  0  0  0  0  0  0  0
  159.9340  210.7220  152.3400 C   0  0  2  0  0  0  0  0  0  0  0  0
  162.3530  210.4280  152.7770 O   0  0  0  0  0  0  0  0  0  0  0  0
  163.0530  210.1760  153.9670 C   0  0  0  0  0  1  0  0  0  0  0  0
  161.6140  211.2530  150.4940 O   0  0  0  0  0  1  0  0  0  0  0  0
  161.1920  209.9350  150.3250 C   0  0  1  0  0  3  0  0  0  0  0  0
  162.4040  209.0460  150.1020 C   0  0  0  0  0  2  0  0  0  0  0  0
  160.1000  206.5200  148.5620 C   0  0  0  0  0  3  0  0  0  0  0  0
  161.6710  206.0710  146.7060 C   0  0  0  0  0  0  0  0  0  0  0  0
  160.8620  207.1390  149.4680 C   0  0  0  0  0  3  0  0  0  0  0  0
  162.0650  207.9440  149.1630 C   0  0  0  0  0  0  0  0  0  0  0  0
  162.8100  206.6000  147.1620 C   0  0  0  0  0  3  0  0  0  0  0  0
  160.3360  206.6370  147.0930 C   0  0  0  0  0  2  0  0  0  0  0  0
  162.9240  207.6760  148.1690 C   0  0  0  0  0  3  0  0  0  0  0  0
  161.7560  205.0030  145.8070 O   0  0  0  0  0  0  0  0  0  0  0  0
  161.5890  203.6420  146.1940 C   0  0  0  0  0  2  0  0  0  0  0  0
  160.6260  202.9300  145.2570 C   0  0  0  0  0  2  0  0  0  0  0  0
  160.3650  201.5230  145.7430 C   0  0  0  0  0  1  0  0  0  0  0  0
  160.9260  208.6530  153.9120 C   0  0  1  0  0  3  0  0  0  0  0  0
  159.8480  208.9640  154.9420 C   0  0  0  0  0  2  0  0  0  0  0  0
  159.9230  208.0180  156.0530 N   0  0  0  0  0  2  0  0  0  0  0  0
  162.0680  208.5140  157.1940 C   0  0  0  0  0  2  0  0  0  0  0  0
  160.5740  210.0120  157.1970 O   0  0  0  0  0  0  0  0  0  0  0  0
  161.9830  210.0190  157.1830 C   0  0  0  0  0  2  0  0  0  0  0  0
  160.5640  208.6070  157.2410 C   0  0  1  0  0  3  0  0  0  0  0  0
  160.6900  207.4010  153.3300 O   0  0  0  0  0  0  0  0  0  0  0  0
  161.9420  206.7860  153.2780 C   0  0  2  0  0  3  0  0  0  0  0  0
  161.9430  205.6210  152.3630 C   0  0  1  0  0  0  0  0  0  0  0  0
  163.1860  205.1840  151.9100 O   0  0  0  0  0  1  0  0  0  0  0  0
  161.8290  205.4610  153.7510 O   0  0  0  0  0  0  0  0  0  0  0  0
  160.6980  205.1530  151.6270 C   0  0  0  0  0  2  0  0  0  0  0  0
  160.7160  203.6450  151.4850 C   0  0  0  0  0  1  0  0  0  0  0  0
  1 20  1  6  0  0  0
  1 16  1  0  0  0  0
  1 15  1  0  0  0  0
  2 14  1  6  0  0  0
  4  8  1  0  0  0  0
  5  2  1  0  0  0  0
  7 13  1  0  0  0  0
  7 11  1  0  0  0  0
  7  8  1  1  0  0  0
  8  2  1  0  0  0  0
  8 12  1  0  0  0  0
  9  3  1  0  0  0  0
 11 10  1  6  0  0  0
 11  5  1  0  0  0  0
 11  3  1  0  0  0  0
 13  6  1  1  0  0  0
 13  9  1  0  0  0  0
 15 17  1  6  0  0  0
 15 33  1  0  0  0  0
 16  6  1  1  0  0  0
 16 15  1  0  0  0  0
 16 13  1  0  0  0  0
 17 18  1  0  0  0  0
 20 19  1  1  0  0  0
 21 20  1  0  0  0  0
 22 24  2  0  0  0  0
 23 27  1  0  0  0  0
 23 26  2  0  0  0  0
 25 24  1  0  0  0  0
 25 21  1  0  0  0  0
 26 28  1  0  0  0  0
 27 22  1  0  0  0  0
 28 25  2  0  0  0  0
 29 30  1  0  0  0  0
 29 23  1  0  0  0  0
 31 32  1  0  0  0  0
 31 30  1  0  0  0  0
 33 34  1  1  0  0  0
 34 35  1  0  0  0  0
 36 39  1  0  0  0  0
 37 39  1  0  0  0  0
 38 36  1  0  0  0  0
 38 37  1  0  0  0  0
 39 35  1  6  0  0  0
 40 33  1  0  0  0  0
 41 40  1  6  0  0  0
 41 44  1  0  0  0  0
 42 43  1  6  0  0  0
 42 41  1  0  0  0  0
 42 44  1  0  0  0  0
 45 42  1  0  0  0  0
 46 45  1  0  0  0  0
M  END
>  <MODEL>
6

>  <REMARK>
 VINA RESULT:      -2.0      3.328      5.164
  Name = 
  14 active torsions:
  status: ('A' for Active; 'I' for Inactive)
    1  A    between atoms: C_1  and  C_5
    2  A    between atoms: C_2  and  C_31
    3  A    between atoms: C_3  and  C_45
    4  A    between atoms: C_4  and  O_19
    5  A    between atoms: O_6  and  C_23
    6  A    between atoms: O_6  and  C_31
    7  A    between atoms: O_7  and  C_44
    8  A    between atoms: C_9  and  C_11
    9  A    between atoms: C_9  and  N_18
   10  A    between atoms: C_11  and  O_19
   11  A    between atoms: C_11  and  C_44
   12  A    between atoms: N_18  and  C_40
   13  A    between atoms: C_30  and  C_42
   14  A    between atoms: C_42  and  C_45
                            x       y       z     vdW  Elec       q    Type
                         _______ _______ _______ _____ _____    ______ ____

>  <TORSDO>
F 14

$$$$
