=
 OpenBabel11072411183D

 28 35  0  0  1  0  0  0  0  0999 V2000
  162.2740  207.3780  151.5730 C   0  0  2  0  0  3  0  0  0  0  0  0
  160.8850  207.1340  151.8660 C   0  0  1  0  0  0  0  0  0  0  0  0
  161.0840  205.1510  153.1490 C   0  0  0  0  0  2  0  0  0  0  0  0
  160.9890  206.9930  149.7930 C   0  0  2  0  0  3  0  0  0  0  0  0
  160.7770  206.6310  153.2990 C   0  0  1  0  0  3  0  0  0  0  0  0
  161.1100  204.8890  151.6360 C   0  0  0  0  0  2  0  0  0  0  0  0
  161.1880  208.1660  150.8310 C   0  0  2  0  0  3  0  0  0  0  0  0
  161.5930  206.1680  150.9520 C   0  0  1  0  0  0  0  0  0  0  0  0
  161.6910  207.3010  154.3350 C   0  0  1  0  0  3  0  0  0  0  0  0
  161.0420  211.2470  154.0560 C   0  0  0  0  0  3  0  0  0  0  0  0
  159.9930  210.4750  153.7400 C   0  0  0  0  0  0  0  0  0  0  0  0
  161.0980  208.5670  154.9450 C   0  0  2  0  0  0  0  0  0  0  0  0
  162.0870  210.7970  155.0000 C   0  0  0  0  0  3  0  0  0  0  0  0
  159.0520  210.9490  152.8340 O   0  0  0  0  0  1  0  0  0  0  0  0
  161.0210  207.2620  155.7050 C   0  0  0  0  0  2  0  0  0  0  0  0
  159.7790  209.1260  154.3820 C   0  0  1  0  0  3  0  0  0  0  0  0
  158.8360  209.2450  155.4060 O   0  0  0  0  0  1  0  0  0  0  0  0
  162.1150  209.5400  155.4450 C   0  0  0  0  0  3  0  0  0  0  0  0
  161.9710  207.1020  148.6310 C   0  0  0  0  0  2  0  0  0  0  0  0
  161.4550  206.3830  147.4770 N   0  0  0  0  0  2  0  0  0  0  0  0
  161.8500  204.0960  147.7410 C   0  0  0  0  0  0  0  0  0  0  0  0
  161.7770  204.3850  146.3140 C   0  0  0  0  0  0  0  0  0  0  0  0
  161.2270  203.5950  145.3520 C   0  0  0  0  0  3  0  0  0  0  0  0
  160.7910  202.1050  147.3900 C   0  0  0  0  0  3  0  0  0  0  0  0
  161.3790  202.9820  148.3680 C   0  0  0  0  0  3  0  0  0  0  0  0
  160.0780  201.3800  145.0690 C   0  0  0  0  0  1  0  0  0  0  0  0
  160.7150  202.3910  145.9530 C   0  0  0  0  0  0  0  0  0  0  0  0
  162.3720  205.2870  147.2110 C   0  0  1  0  0  3  0  0  0  0  0  0
  1  2  1  0  0  0  0
  2  5  1  0  0  0  0
  3  5  1  0  0  0  0
  4  7  1  0  0  0  0
  4  8  1  0  0  0  0
  5  9  1  0  0  0  0
  6  3  1  0  0  0  0
  7  1  1  0  0  0  0
  7  2  1  0  0  0  0
  8  1  1  0  0  0  0
  8  6  1  0  0  0  0
  8  2  1  0  0  0  0
  9 12  1  0  0  0  0
  9 15  1  0  0  0  0
 10 13  1  0  0  0  0
 11 10  2  0  0  0  0
 11 16  1  0  0  0  0
 12 18  1  0  0  0  0
 12 15  1  0  0  0  0
 13 18  2  0  0  0  0
 14 11  1  0  0  0  0
 16 12  1  0  0  0  0
 16 17  1  0  0  0  0
 19  4  1  0  0  0  0
 20 19  1  0  0  0  0
 21 25  1  0  0  0  0
 22 28  1  0  0  0  0
 22 21  2  0  0  0  0
 23 27  2  0  0  0  0
 23 22  1  0  0  0  0
 24 25  2  0  0  0  0
 26 27  1  0  0  0  0
 27 24  1  0  0  0  0
 28 20  1  0  0  0  0
 28 21  1  0  0  0  0
M  END
>  <MODEL>
1

>  <REMARK>
 VINA RESULT:      -9.0      0.000      0.000
  Name = 
  4 active torsions:
  status: ('A' for Active; 'I' for Inactive)
    1  A    between atoms: C_3  and  C_18
    2  A    between atoms: C_4  and  C_16
    3  A    between atoms: C_4  and  N_27
    4  A    between atoms: C_19  and  N_27
                            x       y       z     vdW  Elec       q    Type
                         _______ _______ _______ _____ _____    ______ ____

>  <TORSDO>
F 4

$$$$
=
 OpenBabel11072411183D

 28 35  0  0  1  0  0  0  0  0999 V2000
  162.2200  207.9600  152.2450 C   0  0  2  0  0  3  0  0  0  0  0  0
  160.8500  207.5650  152.4460 C   0  0  1  0  0  0  0  0  0  0  0  0
  161.1850  205.5000  153.5600 C   0  0  0  0  0  2  0  0  0  0  0  0
  161.0530  207.6240  150.3760 C   0  0  2  0  0  3  0  0  0  0  0  0
  160.7320  206.9250  153.8230 C   0  0  1  0  0  3  0  0  0  0  0  0
  161.3000  205.3800  152.0330 C   0  0  0  0  0  2  0  0  0  0  0  0
  161.0960  208.7100  151.5210 C   0  0  2  0  0  3  0  0  0  0  0  0
  161.6850  206.7550  151.4870 C   0  0  1  0  0  0  0  0  0  0  0  0
  161.5340  207.5790  154.9570 C   0  0  1  0  0  3  0  0  0  0  0  0
  160.9100  211.5280  154.6760 C   0  0  0  0  0  3  0  0  0  0  0  0
  159.9000  210.7620  154.2410 C   0  0  0  0  0  0  0  0  0  0  0  0
  160.8790  208.8340  155.5230 C   0  0  2  0  0  0  0  0  0  0  0  0
  161.8530  211.0640  155.7150 C   0  0  0  0  0  3  0  0  0  0  0  0
  159.0560  211.2500  153.2510 O   0  0  0  0  0  1  0  0  0  0  0  0
  160.7270  207.5170  156.2500 C   0  0  0  0  0  2  0  0  0  0  0  0
  159.6230  209.4030  154.8370 C   0  0  1  0  0  3  0  0  0  0  0  0
  158.5800  209.5050  155.7610 O   0  0  0  0  0  1  0  0  0  0  0  0
  161.8380  209.8000  156.1410 C   0  0  0  0  0  3  0  0  0  0  0  0
  162.0680  207.9270  149.2790 C   0  0  0  0  0  2  0  0  0  0  0  0
  162.3570  206.7200  148.5220 N   0  0  0  0  0  2  0  0  0  0  0  0
  161.2830  205.2020  147.1070 C   0  0  0  0  0  0  0  0  0  0  0  0
  161.0400  204.7930  148.4850 C   0  0  0  0  0  0  0  0  0  0  0  0
  160.9800  203.5170  148.9560 C   0  0  0  0  0  3  0  0  0  0  0  0
  161.4350  203.0120  146.4860 C   0  0  0  0  0  3  0  0  0  0  0  0
  161.4960  204.3790  146.0430 C   0  0  0  0  0  3  0  0  0  0  0  0
  161.1530  201.1390  148.1690 C   0  0  0  0  0  1  0  0  0  0  0  0
  161.1900  202.5940  147.8700 C   0  0  0  0  0  0  0  0  0  0  0  0
  161.0810  206.1490  148.1230 C   0  0  1  0  0  3  0  0  0  0  0  0
  1  2  1  0  0  0  0
  2  5  1  0  0  0  0
  3  5  1  0  0  0  0
  4  8  1  0  0  0  0
  4  7  1  0  0  0  0
  5  9  1  0  0  0  0
  6  3  1  0  0  0  0
  7  1  1  0  0  0  0
  7  2  1  0  0  0  0
  8  6  1  0  0  0  0
  8  1  1  0  0  0  0
  8  2  1  0  0  0  0
  9 12  1  0  0  0  0
  9 15  1  0  0  0  0
 10 13  1  0  0  0  0
 11 10  2  0  0  0  0
 11 16  1  0  0  0  0
 12 18  1  0  0  0  0
 12 15  1  0  0  0  0
 13 18  2  0  0  0  0
 14 11  1  0  0  0  0
 16 12  1  0  0  0  0
 16 17  1  0  0  0  0
 19  4  1  0  0  0  0
 20 19  1  0  0  0  0
 21 28  1  0  0  0  0
 21 22  1  0  0  0  0
 22 23  2  0  0  0  0
 24 27  2  0  0  0  0
 25 24  1  0  0  0  0
 25 21  2  0  0  0  0
 27 26  1  0  0  0  0
 27 23  1  0  0  0  0
 28 22  1  0  0  0  0
 28 20  1  0  0  0  0
M  END
>  <MODEL>
2

>  <REMARK>
 VINA RESULT:      -8.8      0.939      1.462
  Name = 
  4 active torsions:
  status: ('A' for Active; 'I' for Inactive)
    1  A    between atoms: C_3  and  C_18
    2  A    between atoms: C_4  and  C_16
    3  A    between atoms: C_4  and  N_27
    4  A    between atoms: C_19  and  N_27
                            x       y       z     vdW  Elec       q    Type
                         _______ _______ _______ _____ _____    ______ ____

>  <TORSDO>
F 4

$$$$
=
 OpenBabel11072411183D

 28 35  0  0  1  0  0  0  0  0999 V2000
  161.6680  209.4970  153.4250 C   0  0  2  0  0  3  0  0  0  0  0  0
  160.3500  208.9370  153.5700 C   0  0  1  0  0  0  0  0  0  0  0  0
  160.7700  207.3510  155.2800 C   0  0  0  0  0  2  0  0  0  0  0  0
  160.8800  208.4600  151.6170 C   0  0  2  0  0  3  0  0  0  0  0  0
  160.0930  208.6910  155.0510 C   0  0  1  0  0  3  0  0  0  0  0  0
  161.1490  206.8380  153.8830 C   0  0  0  0  0  2  0  0  0  0  0  0
  160.5890  209.8090  152.3830 C   0  0  2  0  0  3  0  0  0  0  0  0
  161.4310  208.0550  153.0030 C   0  0  1  0  0  0  0  0  0  0  0  0
  160.6030  209.7620  156.0260 C   0  0  1  0  0  3  0  0  0  0  0  0
  159.1080  213.2620  154.7700 C   0  0  0  0  0  3  0  0  0  0  0  0
  158.3530  212.1900  154.4920 C   0  0  0  0  0  0  0  0  0  0  0  0
  159.6200  210.9080  156.2430 C   0  0  2  0  0  0  0  0  0  0  0  0
  160.0250  213.2940  155.9290 C   0  0  0  0  0  3  0  0  0  0  0  0
  157.5230  212.2170  153.3790 O   0  0  0  0  0  1  0  0  0  0  0  0
  159.7070  209.7930  157.2610 C   0  0  0  0  0  2  0  0  0  0  0  0
  158.3420  210.9750  155.3870 C   0  0  1  0  0  3  0  0  0  0  0  0
  157.2170  211.0180  156.2140 O   0  0  0  0  0  1  0  0  0  0  0  0
  160.2610  212.1960  156.6480 C   0  0  0  0  0  3  0  0  0  0  0  0
  162.0110  208.6230  150.6070 C   0  0  0  0  0  2  0  0  0  0  0  0
  162.2850  207.3510  149.9580 N   0  0  0  0  0  2  0  0  0  0  0  0
  161.2270  205.7440  148.6330 C   0  0  0  0  0  0  0  0  0  0  0  0
  160.8490  205.5120  150.0210 C   0  0  0  0  0  0  0  0  0  0  0  0
  160.6660  204.3050  150.6230 C   0  0  0  0  0  3  0  0  0  0  0  0
  161.2800  203.4910  148.2720 C   0  0  0  0  0  3  0  0  0  0  0  0
  161.4680  204.7930  147.6880 C   0  0  0  0  0  3  0  0  0  0  0  0
  160.7410  201.8450  150.1220 C   0  0  0  0  0  1  0  0  0  0  0  0
  160.8990  203.2520  149.6680 C   0  0  0  0  0  0  0  0  0  0  0  0
  161.0090  206.8120  149.5170 C   0  0  1  0  0  3  0  0  0  0  0  0
  1  2  1  0  0  0  0
  2  5  1  0  0  0  0
  4  7  1  0  0  0  0
  4  8  1  0  0  0  0
  5  3  1  0  0  0  0
  5  9  1  0  0  0  0
  6  3  1  0  0  0  0
  7  1  1  0  0  0  0
  7  2  1  0  0  0  0
  8  1  1  0  0  0  0
  8  2  1  0  0  0  0
  8  6  1  0  0  0  0
  9 12  1  0  0  0  0
  9 15  1  0  0  0  0
 10 13  1  0  0  0  0
 11 10  2  0  0  0  0
 11 16  1  0  0  0  0
 12 18  1  0  0  0  0
 12 15  1  0  0  0  0
 13 18  2  0  0  0  0
 14 11  1  0  0  0  0
 16 17  1  0  0  0  0
 16 12  1  0  0  0  0
 19  4  1  0  0  0  0
 20 19  1  0  0  0  0
 21 28  1  0  0  0  0
 21 22  1  0  0  0  0
 22 23  2  0  0  0  0
 24 27  2  0  0  0  0
 25 24  1  0  0  0  0
 25 21  2  0  0  0  0
 27 26  1  0  0  0  0
 27 23  1  0  0  0  0
 28 20  1  0  0  0  0
 28 22  1  0  0  0  0
M  END
>  <MODEL>
3

>  <REMARK>
 VINA RESULT:      -8.7      1.888      3.070
  Name = 
  4 active torsions:
  status: ('A' for Active; 'I' for Inactive)
    1  A    between atoms: C_3  and  C_18
    2  A    between atoms: C_4  and  C_16
    3  A    between atoms: C_4  and  N_27
    4  A    between atoms: C_19  and  N_27
                            x       y       z     vdW  Elec       q    Type
                         _______ _______ _______ _____ _____    ______ ____

>  <TORSDO>
F 4

$$$$
=
 OpenBabel11072411183D

 28 35  0  0  1  0  0  0  0  0999 V2000
  160.3460  207.1000  152.8460 C   0  0  2  0  0  3  0  0  0  0  0  0
  161.6830  207.6360  152.8230 C   0  0  1  0  0  0  0  0  0  0  0  0
  161.5970  208.8490  150.7890 C   0  0  0  0  0  2  0  0  0  0  0  0
  161.9700  205.5770  152.7440 C   0  0  2  0  0  3  0  0  0  0  0  0
  161.6190  209.0620  152.2920 C   0  0  1  0  0  3  0  0  0  0  0  0
  161.8810  207.3530  150.5810 C   0  0  0  0  0  2  0  0  0  0  0  0
  161.3980  206.5710  153.8280 C   0  0  2  0  0  3  0  0  0  0  0  0
  161.3190  206.6030  151.7880 C   0  0  1  0  0  0  0  0  0  0  0  0
  160.4380  209.9210  152.7650 C   0  0  1  0  0  3  0  0  0  0  0  0
  160.0760  209.3040  156.7090 C   0  0  0  0  0  3  0  0  0  0  0  0
  161.3210  209.1810  156.2270 C   0  0  0  0  0  0  0  0  0  0  0  0
  160.6010  210.4550  154.1840 C   0  0  2  0  0  0  0  0  0  0  0  0
  159.0710  210.1750  156.0640 C   0  0  0  0  0  3  0  0  0  0  0  0
  162.2150  208.3350  156.8690 O   0  0  0  0  0  1  0  0  0  0  0  0
  160.9140  211.3500  153.0060 C   0  0  0  0  0  2  0  0  0  0  0  0
  161.7920  209.9790  155.0350 C   0  0  1  0  0  3  0  0  0  0  0  0
  162.5330  211.0790  155.4770 O   0  0  0  0  0  1  0  0  0  0  0  0
  159.3110  210.7430  154.8820 C   0  0  0  0  0  3  0  0  0  0  0  0
  161.2050  204.2590  152.7320 C   0  0  0  0  0  2  0  0  0  0  0  0
  161.5900  203.4700  151.5730 N   0  0  0  0  0  2  0  0  0  0  0  0
  160.8460  203.6860  149.3690 C   0  0  0  0  0  0  0  0  0  0  0  0
  160.5630  202.3280  149.8150 C   0  0  0  0  0  0  0  0  0  0  0  0
  160.6490  201.1930  149.0690 C   0  0  0  0  0  3  0  0  0  0  0  0
  161.3490  202.8960  147.2880 C   0  0  0  0  0  3  0  0  0  0  0  0
  161.2500  204.0630  148.1240 C   0  0  0  0  0  3  0  0  0  0  0  0
  161.2110  200.4250  146.7450 C   0  0  0  0  0  1  0  0  0  0  0  0
  161.0650  201.5270  147.7310 C   0  0  0  0  0  0  0  0  0  0  0  0
  160.4400  203.4220  150.6860 C   0  0  1  0  0  3  0  0  0  0  0  0
  1  7  1  0  0  0  0
  2  1  1  0  0  0  0
  2  7  1  0  0  0  0
  3  5  1  0  0  0  0
  4  7  1  0  0  0  0
  5  9  1  0  0  0  0
  5  2  1  0  0  0  0
  6  3  1  0  0  0  0
  6  8  1  0  0  0  0
  8  4  1  0  0  0  0
  8  2  1  0  0  0  0
  8  1  1  0  0  0  0
  9 15  1  0  0  0  0
  9 12  1  0  0  0  0
 11 10  2  0  0  0  0
 11 14  1  0  0  0  0
 12 18  1  0  0  0  0
 12 16  1  0  0  0  0
 13 10  1  0  0  0  0
 15 12  1  0  0  0  0
 16 17  1  0  0  0  0
 16 11  1  0  0  0  0
 18 13  2  0  0  0  0
 19  4  1  0  0  0  0
 20 19  1  0  0  0  0
 21 22  1  0  0  0  0
 21 28  1  0  0  0  0
 22 28  1  0  0  0  0
 23 22  2  0  0  0  0
 24 27  2  0  0  0  0
 24 25  1  0  0  0  0
 25 21  2  0  0  0  0
 26 27  1  0  0  0  0
 27 23  1  0  0  0  0
 28 20  1  0  0  0  0
M  END
>  <MODEL>
4

>  <REMARK>
 VINA RESULT:      -8.5      1.923      3.410
  Name = 
  4 active torsions:
  status: ('A' for Active; 'I' for Inactive)
    1  A    between atoms: C_3  and  C_18
    2  A    between atoms: C_4  and  C_16
    3  A    between atoms: C_4  and  N_27
    4  A    between atoms: C_19  and  N_27
                            x       y       z     vdW  Elec       q    Type
                         _______ _______ _______ _____ _____    ______ ____

>  <TORSDO>
F 4

$$$$
=
 OpenBabel11072411183D

 28 35  0  0  1  0  0  0  0  0999 V2000
  160.4580  207.3080  152.4800 C   0  0  2  0  0  3  0  0  0  0  0  0
  161.7670  207.8410  152.7540 C   0  0  1  0  0  0  0  0  0  0  0  0
  161.9550  209.3900  150.9710 C   0  0  0  0  0  2  0  0  0  0  0  0
  162.1200  205.8280  152.3660 C   0  0  2  0  0  3  0  0  0  0  0  0
  161.7450  209.3380  152.4740 C   0  0  1  0  0  3  0  0  0  0  0  0
  162.3090  207.9550  150.5550 C   0  0  0  0  0  2  0  0  0  0  0  0
  161.3630  206.6160  153.5050 C   0  0  2  0  0  3  0  0  0  0  0  0
  161.5930  207.0040  151.5140 C   0  0  1  0  0  0  0  0  0  0  0  0
  160.4820  210.1000  152.9010 C   0  0  1  0  0  3  0  0  0  0  0  0
  159.7840  209.1150  156.7230 C   0  0  0  0  0  3  0  0  0  0  0  0
  161.0730  209.0890  156.3570 C   0  0  0  0  0  0  0  0  0  0  0  0
  160.4840  210.5100  154.3700 C   0  0  2  0  0  0  0  0  0  0  0  0
  158.8000  209.9970  156.0600 C   0  0  0  0  0  3  0  0  0  0  0  0
  161.9450  208.2260  157.0080 O   0  0  0  0  0  1  0  0  0  0  0  0
  160.8600  211.5200  153.3090 C   0  0  0  0  0  2  0  0  0  0  0  0
  161.6120  210.0100  155.2890 C   0  0  1  0  0  3  0  0  0  0  0  0
  162.2520  211.0950  155.8940 O   0  0  0  0  0  1  0  0  0  0  0  0
  159.1210  210.6790  154.9600 C   0  0  0  0  0  3  0  0  0  0  0  0
  161.4020  204.5310  152.0100 C   0  0  0  0  0  2  0  0  0  0  0  0
  161.9050  204.0150  150.7470 N   0  0  0  0  0  2  0  0  0  0  0  0
  160.6310  204.9950  149.0520 C   0  0  0  0  0  0  0  0  0  0  0  0
  161.2060  203.7590  148.5350 C   0  0  0  0  0  0  0  0  0  0  0  0
  161.6710  203.5450  147.2740 C   0  0  0  0  0  3  0  0  0  0  0  0
  160.9260  205.9830  147.0170 C   0  0  0  0  0  3  0  0  0  0  0  0
  160.4570  206.1580  148.3660 C   0  0  0  0  0  3  0  0  0  0  0  0
  161.9430  204.7180  145.0700 C   0  0  0  0  0  1  0  0  0  0  0  0
  161.5050  204.7420  146.4910 C   0  0  0  0  0  0  0  0  0  0  0  0
  160.7620  203.8570  149.8640 C   0  0  1  0  0  3  0  0  0  0  0  0
  1  2  1  0  0  0  0
  1  7  1  0  0  0  0
  2  7  1  0  0  0  0
  3  5  1  0  0  0  0
  4  7  1  0  0  0  0
  5  2  1  0  0  0  0
  5  9  1  0  0  0  0
  6  3  1  0  0  0  0
  6  8  1  0  0  0  0
  8  4  1  0  0  0  0
  8  1  1  0  0  0  0
  8  2  1  0  0  0  0
  9 15  1  0  0  0  0
  9 12  1  0  0  0  0
 11 10  2  0  0  0  0
 11 14  1  0  0  0  0
 12 18  1  0  0  0  0
 12 16  1  0  0  0  0
 13 10  1  0  0  0  0
 15 12  1  0  0  0  0
 16 17  1  0  0  0  0
 16 11  1  0  0  0  0
 18 13  2  0  0  0  0
 19  4  1  0  0  0  0
 20 19  1  0  0  0  0
 21 28  1  0  0  0  0
 22 21  1  0  0  0  0
 22 28  1  0  0  0  0
 23 22  2  0  0  0  0
 24 25  1  0  0  0  0
 25 21  2  0  0  0  0
 26 27  1  0  0  0  0
 27 24  2  0  0  0  0
 27 23  1  0  0  0  0
 28 20  1  0  0  0  0
M  END
>  <MODEL>
5

>  <REMARK>
 VINA RESULT:      -8.4      1.871      3.366
  Name = 
  4 active torsions:
  status: ('A' for Active; 'I' for Inactive)
    1  A    between atoms: C_3  and  C_18
    2  A    between atoms: C_4  and  C_16
    3  A    between atoms: C_4  and  N_27
    4  A    between atoms: C_19  and  N_27
                            x       y       z     vdW  Elec       q    Type
                         _______ _______ _______ _____ _____    ______ ____

>  <TORSDO>
F 4

$$$$
=
 OpenBabel11072411183D

 28 35  0  0  1  0  0  0  0  0999 V2000
  160.2090  208.0690  152.5400 C   0  0  2  0  0  3  0  0  0  0  0  0
  161.3750  208.7560  153.0340 C   0  0  1  0  0  0  0  0  0  0  0  0
  161.9390  210.0260  151.1140 C   0  0  0  0  0  2  0  0  0  0  0  0
  161.9170  206.7490  153.0950 C   0  0  2  0  0  3  0  0  0  0  0  0
  161.3500  210.1840  152.5050 C   0  0  1  0  0  3  0  0  0  0  0  0
  162.4610  208.5820  151.0510 C   0  0  0  0  0  2  0  0  0  0  0  0
  160.8520  207.6280  153.8600 C   0  0  2  0  0  3  0  0  0  0  0  0
  161.5690  207.7270  151.9510 C   0  0  1  0  0  0  0  0  0  0  0  0
  159.9830  210.8820  152.4700 C   0  0  1  0  0  3  0  0  0  0  0  0
  158.2930  210.2770  156.0540 C   0  0  0  0  0  3  0  0  0  0  0  0
  159.6330  210.3160  156.0570 C   0  0  0  0  0  0  0  0  0  0  0  0
  159.5550  211.4530  153.8170 C   0  0  2  0  0  0  0  0  0  0  0  0
  157.4920  210.9950  155.0390 C   0  0  0  0  0  3  0  0  0  0  0  0
  160.3290  209.6070  157.0280 O   0  0  0  0  0  1  0  0  0  0  0  0
  160.1630  212.3660  152.7770 C   0  0  0  0  0  2  0  0  0  0  0  0
  160.4040  211.1540  155.0660 C   0  0  1  0  0  3  0  0  0  0  0  0
  160.7950  212.3490  155.6750 O   0  0  0  0  0  1  0  0  0  0  0  0
  158.0750  211.5740  153.9890 C   0  0  0  0  0  3  0  0  0  0  0  0
  161.3820  205.3520  152.8000 C   0  0  0  0  0  2  0  0  0  0  0  0
  161.8790  204.8910  151.5140 N   0  0  0  0  0  2  0  0  0  0  0  0
  160.6300  205.4760  149.6290 C   0  0  0  0  0  0  0  0  0  0  0  0
  161.1450  204.1260  149.4340 C   0  0  0  0  0  0  0  0  0  0  0  0
  161.5860  203.5850  148.2660 C   0  0  0  0  0  3  0  0  0  0  0  0
  160.9450  205.9140  147.4120 C   0  0  0  0  0  3  0  0  0  0  0  0
  160.4990  206.4390  148.6750 C   0  0  0  0  0  3  0  0  0  0  0  0
  161.8840  204.1620  145.8400 C   0  0  0  0  0  1  0  0  0  0  0  0
  161.4640  204.5580  147.2100 C   0  0  0  0  0  0  0  0  0  0  0  0
  160.7210  204.5700  150.6970 C   0  0  1  0  0  3  0  0  0  0  0  0
  1  2  1  0  0  0  0
  1  7  1  0  0  0  0
  2  7  1  0  0  0  0
  3  5  1  0  0  0  0
  4  7  1  0  0  0  0
  5  2  1  0  0  0  0
  6  3  1  0  0  0  0
  6  8  1  0  0  0  0
  8  1  1  0  0  0  0
  8  2  1  0  0  0  0
  8  4  1  0  0  0  0
  9  5  1  0  0  0  0
  9 15  1  0  0  0  0
  9 12  1  0  0  0  0
 10 11  2  0  0  0  0
 11 14  1  0  0  0  0
 12 18  1  0  0  0  0
 12 16  1  0  0  0  0
 13 10  1  0  0  0  0
 15 12  1  0  0  0  0
 16 17  1  0  0  0  0
 16 11  1  0  0  0  0
 18 13  2  0  0  0  0
 19  4  1  0  0  0  0
 20 19  1  0  0  0  0
 21 28  1  0  0  0  0
 22 21  1  0  0  0  0
 22 28  1  0  0  0  0
 23 22  2  0  0  0  0
 24 25  1  0  0  0  0
 25 21  2  0  0  0  0
 26 27  1  0  0  0  0
 27 24  2  0  0  0  0
 27 23  1  0  0  0  0
 28 20  1  0  0  0  0
M  END
>  <MODEL>
6

>  <REMARK>
 VINA RESULT:      -8.0      1.876      3.718
  Name = 
  4 active torsions:
  status: ('A' for Active; 'I' for Inactive)
    1  A    between atoms: C_3  and  C_18
    2  A    between atoms: C_4  and  C_16
    3  A    between atoms: C_4  and  N_27
    4  A    between atoms: C_19  and  N_27
                            x       y       z     vdW  Elec       q    Type
                         _______ _______ _______ _____ _____    ______ ____

>  <TORSDO>
F 4

$$$$
=
 OpenBabel11072411183D

 28 35  0  0  1  0  0  0  0  0999 V2000
  161.5110  209.6140  153.3630 C   0  0  2  0  0  3  0  0  0  0  0  0
  160.2300  209.1480  153.8270 C   0  0  1  0  0  0  0  0  0  0  0  0
  160.6440  209.0810  156.1590 C   0  0  0  0  0  2  0  0  0  0  0  0
  160.9300  207.5860  152.6450 C   0  0  2  0  0  3  0  0  0  0  0  0
  159.8890  209.8850  155.1150 C   0  0  1  0  0  3  0  0  0  0  0  0
  161.1560  207.8330  155.4250 C   0  0  0  0  0  2  0  0  0  0  0  0
  160.4870  209.0740  152.3590 C   0  0  2  0  0  3  0  0  0  0  0  0
  161.4100  208.2230  153.9690 C   0  0  1  0  0  0  0  0  0  0  0  0
  160.2480  211.3760  155.1730 C   0  0  1  0  0  3  0  0  0  0  0  0
  156.9210  213.3970  154.2180 C   0  0  0  0  0  3  0  0  0  0  0  0
  156.7160  212.2150  154.8140 C   0  0  0  0  0  0  0  0  0  0  0  0
  159.0950  212.2660  155.6230 C   0  0  2  0  0  0  0  0  0  0  0  0
  158.1510  214.1850  154.4480 C   0  0  0  0  0  3  0  0  0  0  0  0
  155.5460  211.5140  154.5450 O   0  0  0  0  0  1  0  0  0  0  0  0
  160.1620  211.8640  156.6150 C   0  0  0  0  0  2  0  0  0  0  0  0
  157.6970  211.6480  155.8110 C   0  0  1  0  0  3  0  0  0  0  0  0
  157.2370  211.8960  157.1070 O   0  0  0  0  0  1  0  0  0  0  0  0
  159.1780  213.6730  155.1270 C   0  0  0  0  0  3  0  0  0  0  0  0
  162.1140  207.1760  151.7760 C   0  0  0  0  0  2  0  0  0  0  0  0
  162.0980  205.7390  151.5610 N   0  0  0  0  0  2  0  0  0  0  0  0
  161.0550  205.0790  149.5770 C   0  0  0  0  0  0  0  0  0  0  0  0
  160.8140  204.0520  150.5830 C   0  0  0  0  0  0  0  0  0  0  0  0
  160.7730  202.7070  150.3790 C   0  0  0  0  0  3  0  0  0  0  0  0
  161.2450  203.4640  147.9770 C   0  0  0  0  0  3  0  0  0  0  0  0
  161.2860  204.8760  148.2500 C   0  0  0  0  0  3  0  0  0  0  0  0
  160.9880  201.0070  148.5430 C   0  0  0  0  0  1  0  0  0  0  0  0
  161.0020  202.4260  148.9850 C   0  0  0  0  0  0  0  0  0  0  0  0
  160.8330  205.4150  150.9220 C   0  0  1  0  0  3  0  0  0  0  0  0
  1  2  1  0  0  0  0
  1  8  1  0  0  0  0
  2  8  1  0  0  0  0
  2  5  1  0  0  0  0
  4  8  1  0  0  0  0
  5  9  1  0  0  0  0
  5  3  1  0  0  0  0
  6  3  1  0  0  0  0
  7  4  1  0  0  0  0
  7  1  1  0  0  0  0
  7  2  1  0  0  0  0
  8  6  1  0  0  0  0
  9 12  1  0  0  0  0
  9 15  1  0  0  0  0
 10 13  1  0  0  0  0
 10 11  2  0  0  0  0
 11 16  1  0  0  0  0
 12 16  1  0  0  0  0
 12 15  1  0  0  0  0
 13 18  2  0  0  0  0
 14 11  1  0  0  0  0
 16 17  1  0  0  0  0
 18 12  1  0  0  0  0
 19  4  1  0  0  0  0
 20 19  1  0  0  0  0
 21 22  1  0  0  0  0
 21 28  1  0  0  0  0
 22 28  1  0  0  0  0
 23 22  2  0  0  0  0
 24 25  1  0  0  0  0
 24 27  2  0  0  0  0
 25 21  2  0  0  0  0
 26 27  1  0  0  0  0
 27 23  1  0  0  0  0
 28 20  1  0  0  0  0
M  END
>  <MODEL>
7

>  <REMARK>
 VINA RESULT:      -7.9      2.408      3.864
  Name = 
  4 active torsions:
  status: ('A' for Active; 'I' for Inactive)
    1  A    between atoms: C_3  and  C_18
    2  A    between atoms: C_4  and  C_16
    3  A    between atoms: C_4  and  N_27
    4  A    between atoms: C_19  and  N_27
                            x       y       z     vdW  Elec       q    Type
                         _______ _______ _______ _____ _____    ______ ____

>  <TORSDO>
F 4

$$$$
=
 OpenBabel11072411183D

 28 35  0  0  1  0  0  0  0  0999 V2000
  160.1050  203.8900  149.3600 C   0  0  2  0  0  3  0  0  0  0  0  0
  161.4760  203.4620  149.2540 C   0  0  1  0  0  0  0  0  0  0  0  0
  161.1480  201.1510  148.8460 C   0  0  0  0  0  2  0  0  0  0  0  0
  161.3230  204.1600  151.2080 C   0  0  2  0  0  3  0  0  0  0  0  0
  161.5720  202.4270  148.1410 C   0  0  1  0  0  3  0  0  0  0  0  0
  161.0730  201.5110  150.3370 C   0  0  0  0  0  2  0  0  0  0  0  0
  161.2340  204.8360  149.7840 C   0  0  2  0  0  3  0  0  0  0  0  0
  160.6790  202.9840  150.4390 C   0  0  1  0  0  0  0  0  0  0  0  0
  160.7320  202.6900  146.8820 C   0  0  1  0  0  3  0  0  0  0  0  0
  160.8890  206.6370  146.2010 C   0  0  0  0  0  3  0  0  0  0  0  0
  161.9680  206.1220  146.8070 C   0  0  0  0  0  0  0  0  0  0  0  0
  161.2540  203.8410  146.0300 C   0  0  2  0  0  0  0  0  0  0  0  0
  160.0350  205.8280  145.3060 C   0  0  0  0  0  3  0  0  0  0  0  0
  162.7210  206.9300  147.6500 O   0  0  0  0  0  1  0  0  0  0  0  0
  161.5770  202.4160  145.6420 C   0  0  0  0  0  2  0  0  0  0  0  0
  162.4160  204.7020  146.5580 C   0  0  1  0  0  3  0  0  0  0  0  0
  163.4660  204.7030  145.6360 O   0  0  0  0  0  1  0  0  0  0  0  0
  160.2080  204.5100  145.1980 C   0  0  0  0  0  3  0  0  0  0  0  0
  160.3300  204.7810  152.1850 C   0  0  0  0  0  2  0  0  0  0  0  0
  160.9780  205.0220  153.4640 N   0  0  0  0  0  2  0  0  0  0  0  0
  161.3810  207.1140  152.5060 C   0  0  0  0  0  0  0  0  0  0  0  0
  161.5550  207.2310  153.9490 C   0  0  0  0  0  0  0  0  0  0  0  0
  161.2060  208.2920  154.7260 C   0  0  0  0  0  3  0  0  0  0  0  0
  160.4550  209.1990  152.4510 C   0  0  0  0  0  3  0  0  0  0  0  0
  160.8350  208.0460  151.6770 C   0  0  0  0  0  3  0  0  0  0  0  0
  160.1860  210.5810  154.5580 C   0  0  0  0  0  1  0  0  0  0  0  0
  160.6280  209.3220  153.9020 C   0  0  0  0  0  0  0  0  0  0  0  0
  161.9560  206.0770  153.2570 C   0  0  1  0  0  3  0  0  0  0  0  0
  1  7  1  0  0  0  0
  1  8  1  0  0  0  0
  2  1  1  0  0  0  0
  2  7  1  0  0  0  0
  2  8  1  0  0  0  0
  3  6  1  0  0  0  0
  4 19  1  0  0  0  0
  5  3  1  0  0  0  0
  5  2  1  0  0  0  0
  6  8  1  0  0  0  0
  7  4  1  0  0  0  0
  8  4  1  0  0  0  0
  9  5  1  0  0  0  0
 10 11  2  0  0  0  0
 11 14  1  0  0  0  0
 12 16  1  0  0  0  0
 12  9  1  0  0  0  0
 13 10  1  0  0  0  0
 15 12  1  0  0  0  0
 15  9  1  0  0  0  0
 16 11  1  0  0  0  0
 17 16  1  0  0  0  0
 18 13  2  0  0  0  0
 18 12  1  0  0  0  0
 19 20  1  0  0  0  0
 21 28  1  0  0  0  0
 21 22  1  0  0  0  0
 22 23  2  0  0  0  0
 24 27  2  0  0  0  0
 25 24  1  0  0  0  0
 25 21  2  0  0  0  0
 27 26  1  0  0  0  0
 27 23  1  0  0  0  0
 28 20  1  0  0  0  0
 28 22  1  0  0  0  0
M  END
>  <MODEL>
8

>  <REMARK>
 VINA RESULT:      -7.5      3.011      8.170
  Name = 
  4 active torsions:
  status: ('A' for Active; 'I' for Inactive)
    1  A    between atoms: C_3  and  C_18
    2  A    between atoms: C_4  and  C_16
    3  A    between atoms: C_4  and  N_27
    4  A    between atoms: C_19  and  N_27
                            x       y       z     vdW  Elec       q    Type
                         _______ _______ _______ _____ _____    ______ ____

>  <TORSDO>
F 4

$$$$
=
 OpenBabel11072411183D

 28 35  0  0  1  0  0  0  0  0999 V2000
  160.2560  203.8120  149.6490 C   0  0  2  0  0  3  0  0  0  0  0  0
  161.5850  203.3330  149.3700 C   0  0  1  0  0  0  0  0  0  0  0  0
  161.0860  201.1060  148.7320 C   0  0  0  0  0  2  0  0  0  0  0  0
  161.6390  203.8000  151.3960 C   0  0  2  0  0  3  0  0  0  0  0  0
  161.5240  202.4340  148.1420 C   0  0  1  0  0  3  0  0  0  0  0  0
  161.1590  201.2890  150.2560 C   0  0  0  0  0  2  0  0  0  0  0  0
  161.4720  204.6440  150.0730 C   0  0  2  0  0  3  0  0  0  0  0  0
  160.8640  202.7570  150.5610 C   0  0  1  0  0  0  0  0  0  0  0  0
  160.5980  202.8860  147.0040 C   0  0  1  0  0  3  0  0  0  0  0  0
  161.0980  206.8450  146.6200 C   0  0  0  0  0  3  0  0  0  0  0  0
  162.1710  206.1780  147.0670 C   0  0  0  0  0  0  0  0  0  0  0  0
  161.1510  204.0540  146.1930 C   0  0  2  0  0  0  0  0  0  0  0  0
  160.0810  206.2030  145.7600 C   0  0  0  0  0  3  0  0  0  0  0  0
  163.0820  206.8320  147.8860 O   0  0  0  0  0  1  0  0  0  0  0  0
  161.2850  202.6430  145.6640 C   0  0  0  0  0  2  0  0  0  0  0  0
  162.4420  204.7500  146.6610 C   0  0  1  0  0  3  0  0  0  0  0  0
  163.3920  204.7310  145.6370 O   0  0  0  0  0  1  0  0  0  0  0  0
  160.1050  204.8900  145.5310 C   0  0  0  0  0  3  0  0  0  0  0  0
  160.7730  204.3490  152.5250 C   0  0  0  0  0  2  0  0  0  0  0  0
  161.4180  205.5020  153.1310 N   0  0  0  0  0  2  0  0  0  0  0  0
  160.4560  206.9550  154.6870 C   0  0  0  0  0  0  0  0  0  0  0  0
  160.9820  207.7500  153.5840 C   0  0  0  0  0  0  0  0  0  0  0  0
  161.5810  208.9690  153.6740 C   0  0  0  0  0  3  0  0  0  0  0  0
  161.0880  208.5800  156.1580 C   0  0  0  0  0  3  0  0  0  0  0  0
  160.4700  207.2900  156.0070 C   0  0  0  0  0  3  0  0  0  0  0  0
  162.2270  210.7030  155.3720 C   0  0  0  0  0  1  0  0  0  0  0  0
  161.6190  209.3850  155.0530 C   0  0  0  0  0  0  0  0  0  0  0  0
  160.3860  206.4990  153.3610 C   0  0  1  0  0  3  0  0  0  0  0  0
  1  7  1  0  0  0  0
  1  8  1  0  0  0  0
  2  1  1  0  0  0  0
  2  7  1  0  0  0  0
  2  8  1  0  0  0  0
  3  6  1  0  0  0  0
  4 19  1  0  0  0  0
  5  3  1  0  0  0  0
  5  2  1  0  0  0  0
  6  8  1  0  0  0  0
  7  4  1  0  0  0  0
  8  4  1  0  0  0  0
  9  5  1  0  0  0  0
 10 11  2  0  0  0  0
 11 14  1  0  0  0  0
 12 16  1  0  0  0  0
 12  9  1  0  0  0  0
 13 10  1  0  0  0  0
 15 12  1  0  0  0  0
 15  9  1  0  0  0  0
 16 11  1  0  0  0  0
 17 16  1  0  0  0  0
 18 13  2  0  0  0  0
 18 12  1  0  0  0  0
 19 20  1  0  0  0  0
 20 28  1  0  0  0  0
 21 25  1  0  0  0  0
 22 23  1  0  0  0  0
 22 21  2  0  0  0  0
 23 27  2  0  0  0  0
 25 24  2  0  0  0  0
 27 26  1  0  0  0  0
 27 24  1  0  0  0  0
 28 22  1  0  0  0  0
 28 21  1  0  0  0  0
M  END
>  <MODEL>
9

>  <REMARK>
 VINA RESULT:      -7.3      2.983      8.398
  Name = 
  4 active torsions:
  status: ('A' for Active; 'I' for Inactive)
    1  A    between atoms: C_3  and  C_18
    2  A    between atoms: C_4  and  C_16
    3  A    between atoms: C_4  and  N_27
    4  A    between atoms: C_19  and  N_27
                            x       y       z     vdW  Elec       q    Type
                         _______ _______ _______ _____ _____    ______ ____

>  <TORSDO>
F 4

$$$$
