=
 OpenBabel11072411403D

 53 60  0  0  1  0  0  0  0  0999 V2000
  161.7820  206.9320  154.6780 N   0  0  0  0  0  0  0  0  0  0  0  0
  161.4800  208.4150  151.6160 N   0  0  0  0  0  0  0  0  0  0  0  0
  161.2260  209.2190  154.9150 C   0  0  2  0  0  3  0  0  0  0  0  0
  160.5600  207.9870  152.7170 C   0  0  1  0  0  0  0  0  0  0  0  0
  160.2210  209.1350  153.7570 C   0  0  2  0  0  3  0  0  0  0  0  0
  160.6740  209.4080  152.2790 C   0  0  1  0  0  0  0  0  0  0  0  0
  161.6520  208.1340  155.4200 N   0  0  0  0  0  2  0  0  0  0  0  0
  161.4080  206.9310  153.4410 C   0  0  0  0  0  3  0  0  0  0  0  0
  161.2870  210.3500  155.8110 C   0  0  0  0  0  1  0  0  0  0  0  0
  162.1260  211.3570  152.8710 O   0  0  0  0  0  1  0  0  0  0  0  0
  161.3310  210.7990  152.0170 C   0  0  1  0  0  3  0  0  0  0  0  0
  161.4180  211.2020  150.5450 C   0  0  0  0  0  2  0  0  0  0  0  0
  160.9260  212.5700  150.2630 C   0  0  2  0  0  3  0  0  0  0  0  0
  158.9240  213.4680  149.4810 C   0  0  0  0  0  0  0  0  0  0  0  0
  159.5400  212.8340  150.6220 N   0  0  0  0  0  0  0  0  0  0  0  0
  159.8000  213.2870  148.3630 N   0  0  0  0  0  0  0  0  0  0  0  0
  158.1650  214.4350  149.5670 O   0  0  0  0  0  0  0  0  0  0  0  0
  161.0360  212.7110  148.7930 C   0  0  0  0  0  2  0  0  0  0  0  0
  159.2130  213.1270  152.0510 C   0  0  0  0  0  2  0  0  0  0  0  0
  158.2930  212.0620  152.7400 C   0  0  0  0  0  1  0  0  0  0  0  0
  159.6290  214.1630  147.1870 C   0  0  0  0  0  2  0  0  0  0  0  0
  159.2450  214.2550  144.8490 N   0  0  1  0  0  0  0  0  0  0  0  0
  161.4720  213.7050  143.1240 C   0  0  0  0  0  1  0  0  0  0  0  0
  159.7630  212.8400  144.7670 C   0  0  2  0  0  0  0  0  0  0  0  0
  160.9720  212.5510  145.3930 O   0  0  0  0  0  1  0  0  0  0  0  0
  160.1450  211.8440  142.4090 C   0  0  0  0  0  1  0  0  0  0  0  0
  158.8520  214.4460  142.5770 S   0  0  0  0  0  0  0  0  0  0  0  0
  160.0780  213.0940  143.2220 C   0  0  0  0  0  0  0  0  0  0  0  0
  158.1320  214.2230  144.1660 O   0  0  0  0  0  0  0  0  0  0  0  0
  159.0590  213.3910  145.9850 C   0  0  1  0  0  0  0  0  0  0  0  0
  157.6680  212.5860  146.1300 C   0  0  0  0  0  1  0  0  0  0  0  0
  160.9890  207.9200  150.2110 C   0  0  0  0  0  2  0  0  0  0  0  0
  161.9580  208.0300  148.9860 C   0  0  0  0  0  0  0  0  0  0  0  0
  162.5900  209.0520  148.7660 O   0  0  0  0  0  0  0  0  0  0  0  0
  162.5490  206.7670  148.4390 C   0  0  0  0  0  2  0  0  0  0  0  0
  161.6070  205.6140  148.2250 N   0  0  0  0  0  0  0  0  0  0  0  0
  160.5880  205.1840  149.2320 C   0  0  0  0  0  0  0  0  0  0  0  0
  159.6020  205.8940  149.4790 O   0  0  0  0  0  0  0  0  0  0  0  0
  160.7140  204.3200  144.3580 C   0  0  0  0  0  3  0  0  0  0  0  0
  161.2840  203.8340  146.5840 C   0  0  0  0  0  3  0  0  0  0  0  0
  161.4500  205.1960  146.8530 C   0  0  0  0  0  0  0  0  0  0  0  0
  160.8630  205.6730  144.5720 N   0  0  0  0  0  0  0  0  0  0  0  0
  161.2080  206.0980  145.8050 C   0  0  0  0  0  3  0  0  0  0  0  0
  160.9010  203.3870  145.3610 C   0  0  0  0  0  0  0  0  0  0  0  0
  160.7120  201.9280  145.2000 C   0  0  2  0  0  3  0  0  0  0  0  0
  159.5790  201.6160  144.4480 F   0  0  0  0  0  0  0  0  0  0  0  0
  160.7150  201.2930  146.4950 N   0  0  0  0  0  1  0  0  0  0  0  0
  161.6960  203.1730  152.0930 C   0  0  0  0  0  3  0  0  0  0  0  0
  160.8320  204.0390  150.0430 C   0  0  0  0  0  0  0  0  0  0  0  0
  161.3030  204.2540  151.3200 C   0  0  0  0  0  3  0  0  0  0  0  0
  160.5100  202.7940  149.5690 C   0  0  0  0  0  3  0  0  0  0  0  0
  161.5330  201.8660  151.5450 C   0  0  0  0  0  3  0  0  0  0  0  0
  160.9010  201.6710  150.2940 C   0  0  0  0  0  3  0  0  0  0  0  0
  1  7  1  0  0  0  0
  2  6  1  0  0  0  0
  2  4  1  0  0  0  0
  3  7  1  0  0  0  0
  3  9  1  1  0  0  0
  4  8  1  6  0  0  0
  4  5  1  0  0  0  0
  5  3  1  0  0  0  0
  6  4  1  0  0  0  0
  6  5  1  0  0  0  0
  8  1  2  0  0  0  0
 11  6  1  0  0  0  0
 11 10  1  0  0  0  0
 12 11  1  0  0  0  0
 13 12  1  0  0  0  0
 13 15  1  0  0  0  0
 14 17  2  0  0  0  0
 14 15  1  0  0  0  0
 15 19  1  0  0  0  0
 16 18  1  0  0  0  0
 16 14  1  0  0  0  0
 18 13  1  0  0  0  0
 19 20  1  0  0  0  0
 21 16  1  0  0  0  0
 22 30  1  0  0  0  0
 23 28  1  0  0  0  0
 24 22  1  0  0  0  0
 24 25  1  0  0  0  0
 24 30  1  0  0  0  0
 26 28  1  0  0  0  0
 27 28  1  0  0  0  0
 27 29  1  0  0  0  0
 28 24  1  0  0  0  0
 29 22  1  0  0  0  0
 30 31  1  0  0  0  0
 30 21  1  0  0  0  0
 32  2  1  0  0  0  0
 33 32  1  0  0  0  0
 34 33  2  0  0  0  0
 35 33  1  0  0  0  0
 36 35  1  0  0  0  0
 36 37  1  0  0  0  0
 37 38  2  0  0  0  0
 37 49  1  0  0  0  0
 39 42  2  0  0  0  0
 39 44  1  0  0  0  0
 40 41  1  0  0  0  0
 41 36  1  0  0  0  0
 42 43  1  0  0  0  0
 43 41  2  0  0  0  0
 44 40  2  0  0  0  0
 45 44  1  0  0  0  0
 45 47  1  0  0  0  0
 46 45  1  0  0  0  0
 49 50  1  0  0  0  0
 50 48  2  0  0  0  0
 51 49  2  0  0  0  0
 51 53  1  0  0  0  0
 52 48  1  0  0  0  0
 53 52  2  0  0  0  0
M  END
>  <MODEL>
1

>  <REMARK>
 VINA RESULT:      -6.9      0.000      0.000
  Name = 
  13 active torsions:
  status: ('A' for Active; 'I' for Inactive)
    1  A    between atoms: N_3  and  C_18
    2  A    between atoms: N_3  and  C_52
    3  A    between atoms: C_5  and  C_14
    4  A    between atoms: N_7  and  C_39
    5  A    between atoms: C_10  and  C_39
    6  A    between atoms: C_10  and  C_52
    7  A    between atoms: C_11  and  C_27
    8  A    between atoms: C_12  and  C_34
    9  A    between atoms: C_14  and  C_43
   10  A    between atoms: C_15  and  N_22
   11  A    between atoms: N_26  and  C_48
   12  A    between atoms: C_33  and  C_43
   13  A    between atoms: C_47  and  C_48
                            x       y       z     vdW  Elec       q    Type
                         _______ _______ _______ _____ _____    ______ ____

>  <TORSDO>
F 13

$$$$
=
 OpenBabel11072411403D

 53 60  0  0  1  0  0  0  0  0999 V2000
  160.6170  212.6710  147.4760 N   0  0  0  0  0  0  0  0  0  0  0  0
  161.3530  210.0060  149.4820 N   0  0  0  0  0  0  0  0  0  0  0  0
  160.5100  213.2930  149.7550 C   0  0  2  0  0  3  0  0  0  0  0  0
  162.0210  211.2820  149.0730 C   0  0  1  0  0  0  0  0  0  0  0  0
  161.7770  212.4860  150.0750 C   0  0  2  0  0  3  0  0  0  0  0  0
  161.6830  210.9760  150.4940 C   0  0  1  0  0  0  0  0  0  0  0  0
  160.2450  213.5360  148.5370 N   0  0  0  0  0  2  0  0  0  0  0  0
  161.2960  211.6080  147.7590 C   0  0  0  0  0  3  0  0  0  0  0  0
  159.9370  214.2410  150.6830 C   0  0  0  0  0  1  0  0  0  0  0  0
  159.6770  211.2810  151.9590 O   0  0  0  0  0  1  0  0  0  0  0  0
  160.7990  210.6730  151.7430 C   0  0  1  0  0  3  0  0  0  0  0  0
  161.0400  209.3060  152.3850 C   0  0  0  0  0  2  0  0  0  0  0  0
  161.4410  209.3690  153.8090 C   0  0  2  0  0  3  0  0  0  0  0  0
  160.3000  209.5330  155.8330 C   0  0  0  0  0  0  0  0  0  0  0  0
  160.5960  208.6360  154.7420 N   0  0  0  0  0  0  0  0  0  0  0  0
  160.6640  210.8540  155.4160 N   0  0  0  0  0  0  0  0  0  0  0  0
  160.3180  209.1930  157.0180 O   0  0  0  0  0  0  0  0  0  0  0  0
  161.3460  210.8040  154.1610 C   0  0  0  0  0  2  0  0  0  0  0  0
  160.7810  207.1590  154.8670 C   0  0  0  0  0  2  0  0  0  0  0  0
  159.6030  206.4130  155.5820 C   0  0  0  0  0  1  0  0  0  0  0  0
  160.8530  211.8910  156.4500 C   0  0  0  0  0  2  0  0  0  0  0  0
  159.0390  212.7190  155.1680 N   0  0  1  0  0  0  0  0  0  0  0  0
  156.5760  211.2470  155.2610 C   0  0  0  0  0  1  0  0  0  0  0  0
  158.2270  212.7480  156.4410 C   0  0  2  0  0  0  0  0  0  0  0  0
  158.2210  211.6050  157.2350 O   0  0  0  0  0  1  0  0  0  0  0  0
  155.6970  213.2510  156.2320 C   0  0  0  0  0  1  0  0  0  0  0  0
  157.3220  213.5080  153.8310 S   0  0  0  0  0  0  0  0  0  0  0  0
  156.9060  212.7090  155.5450 C   0  0  0  0  0  0  0  0  0  0  0  0
  158.8350  213.8970  154.6390 O   0  0  0  0  0  0  0  0  0  0  0  0
  159.7260  212.9370  156.4130 C   0  0  1  0  0  0  0  0  0  0  0  0
  160.0180  214.4530  156.8860 C   0  0  0  0  0  1  0  0  0  0  0  0
  162.3070  208.7690  149.3420 C   0  0  0  0  0  2  0  0  0  0  0  0
  162.1010  207.7820  148.1440 C   0  0  0  0  0  0  0  0  0  0  0  0
  163.0430  207.4010  147.4670 O   0  0  0  0  0  0  0  0  0  0  0  0
  160.9100  206.8740  148.1750 C   0  0  0  0  0  2  0  0  0  0  0  0
  161.1830  205.3950  148.1440 N   0  0  0  0  0  0  0  0  0  0  0  0
  161.9190  204.7160  147.0330 C   0  0  0  0  0  0  0  0  0  0  0  0
  163.1330  204.9050  146.8690 O   0  0  0  0  0  0  0  0  0  0  0  0
  161.2490  203.2640  151.7330 C   0  0  0  0  0  3  0  0  0  0  0  0
  160.8430  203.3410  149.4210 C   0  0  0  0  0  3  0  0  0  0  0  0
  161.0640  204.7210  149.4140 C   0  0  0  0  0  0  0  0  0  0  0  0
  161.4770  204.6230  151.7800 N   0  0  0  0  0  0  0  0  0  0  0  0
  161.4010  205.3300  150.6340 C   0  0  0  0  0  3  0  0  0  0  0  0
  160.9510  202.6040  150.5560 C   0  0  0  0  0  0  0  0  0  0  0  0
  160.7410  201.1430  150.4380 C   0  0  2  0  0  3  0  0  0  0  0  0
  161.6400  200.5440  149.5540 F   0  0  0  0  0  0  0  0  0  0  0  0
  159.3640  200.8760  150.1010 N   0  0  0  0  0  1  0  0  0  0  0  0
  159.8540  204.0500  144.0750 C   0  0  0  0  0  3  0  0  0  0  0  0
  161.1970  203.9840  146.0480 C   0  0  0  0  0  0  0  0  0  0  0  0
  160.6880  204.6890  144.9790 C   0  0  0  0  0  3  0  0  0  0  0  0
  161.1140  202.6190  146.1450 C   0  0  0  0  0  3  0  0  0  0  0  0
  159.6100  202.6560  144.2620 C   0  0  0  0  0  3  0  0  0  0  0  0
  160.2730  201.9280  145.2780 C   0  0  0  0  0  3  0  0  0  0  0  0
  1  8  2  0  0  0  0
  1  7  1  0  0  0  0
  2  6  1  0  0  0  0
  3  5  1  0  0  0  0
  3  9  1  1  0  0  0
  4  8  1  6  0  0  0
  4  2  1  0  0  0  0
  4  5  1  0  0  0  0
  4  6  1  0  0  0  0
  5  6  1  0  0  0  0
  6 11  1  0  0  0  0
  7  3  1  0  0  0  0
 11 10  1  0  0  0  0
 11 12  1  0  0  0  0
 12 13  1  0  0  0  0
 13 18  1  0  0  0  0
 13 15  1  0  0  0  0
 14 17  2  0  0  0  0
 15 19  1  0  0  0  0
 15 14  1  0  0  0  0
 16 14  1  0  0  0  0
 16 21  1  0  0  0  0
 18 16  1  0  0  0  0
 19 20  1  0  0  0  0
 22 30  1  0  0  0  0
 22 24  1  0  0  0  0
 23 28  1  0  0  0  0
 24 25  1  0  0  0  0
 27 29  1  0  0  0  0
 27 28  1  0  0  0  0
 28 26  1  0  0  0  0
 28 24  1  0  0  0  0
 29 22  1  0  0  0  0
 30 24  1  0  0  0  0
 30 21  1  0  0  0  0
 30 31  1  0  0  0  0
 32  2  1  0  0  0  0
 33 35  1  0  0  0  0
 33 32  1  0  0  0  0
 34 33  2  0  0  0  0
 36 35  1  0  0  0  0
 36 41  1  0  0  0  0
 37 36  1  0  0  0  0
 38 37  2  0  0  0  0
 39 42  1  0  0  0  0
 40 44  1  0  0  0  0
 41 40  2  0  0  0  0
 41 43  1  0  0  0  0
 43 42  2  0  0  0  0
 44 39  2  0  0  0  0
 45 44  1  0  0  0  0
 46 45  1  0  0  0  0
 47 45  1  0  0  0  0
 48 52  2  0  0  0  0
 48 50  1  0  0  0  0
 49 51  1  0  0  0  0
 49 37  1  0  0  0  0
 50 49  2  0  0  0  0
 52 53  1  0  0  0  0
 53 51  2  0  0  0  0
M  END
>  <MODEL>
2

>  <REMARK>
 VINA RESULT:      -6.4      3.213      7.260
  Name = 
  13 active torsions:
  status: ('A' for Active; 'I' for Inactive)
    1  A    between atoms: N_3  and  C_18
    2  A    between atoms: N_3  and  C_52
    3  A    between atoms: C_5  and  C_14
    4  A    between atoms: N_7  and  C_39
    5  A    between atoms: C_10  and  C_39
    6  A    between atoms: C_10  and  C_52
    7  A    between atoms: C_11  and  C_27
    8  A    between atoms: C_12  and  C_34
    9  A    between atoms: C_14  and  C_43
   10  A    between atoms: C_15  and  N_22
   11  A    between atoms: N_26  and  C_48
   12  A    between atoms: C_33  and  C_43
   13  A    between atoms: C_47  and  C_48
                            x       y       z     vdW  Elec       q    Type
                         _______ _______ _______ _____ _____    ______ ____

>  <TORSDO>
F 13

$$$$
=
 OpenBabel11072411403D

 53 60  0  0  1  0  0  0  0  0999 V2000
  159.7000  213.3630  147.6090 N   0  0  0  0  0  0  0  0  0  0  0  0
  161.1490  210.6530  149.1020 N   0  0  0  0  0  0  0  0  0  0  0  0
  159.9140  213.7140  149.9380 C   0  0  2  0  0  3  0  0  0  0  0  0
  161.5470  212.0560  148.7640 C   0  0  1  0  0  0  0  0  0  0  0  0
  161.3180  213.0930  149.9430 C   0  0  2  0  0  3  0  0  0  0  0  0
  161.5140  211.5520  150.1670 C   0  0  1  0  0  0  0  0  0  0  0  0
  159.4050  214.0390  148.8200 N   0  0  0  0  0  2  0  0  0  0  0  0
  160.5620  212.4000  147.6380 C   0  0  0  0  0  3  0  0  0  0  0  0
  159.3870  214.4530  151.0620 C   0  0  0  0  0  1  0  0  0  0  0  0
  159.7230  211.2700  151.8920 O   0  0  0  0  0  1  0  0  0  0  0  0
  160.9180  210.9780  151.4910 C   0  0  1  0  0  3  0  0  0  0  0  0
  161.5760  209.6910  151.9890 C   0  0  0  0  0  2  0  0  0  0  0  0
  161.6010  209.5560  153.4630 C   0  0  2  0  0  3  0  0  0  0  0  0
  160.0030  209.6810  155.1530 C   0  0  0  0  0  0  0  0  0  0  0  0
  160.4670  208.8630  154.0580 N   0  0  0  0  0  0  0  0  0  0  0  0
  160.6080  210.9710  155.0130 N   0  0  0  0  0  0  0  0  0  0  0  0
  159.6760  209.2270  156.2510 O   0  0  0  0  0  0  0  0  0  0  0  0
  161.5810  210.9490  153.9660 C   0  0  0  0  0  2  0  0  0  0  0  0
  160.4450  207.3690  154.0290 C   0  0  0  0  0  2  0  0  0  0  0  0
  161.1870  206.6830  155.2270 C   0  0  0  0  0  1  0  0  0  0  0  0
  160.6390  211.8640  156.1890 C   0  0  0  0  0  2  0  0  0  0  0  0
  158.7230  212.5630  154.9800 N   0  0  1  0  0  0  0  0  0  0  0  0
  156.2940  211.0890  155.3890 C   0  0  0  0  0  1  0  0  0  0  0  0
  158.0090  212.6990  156.3030 C   0  0  2  0  0  0  0  0  0  0  0  0
  158.0780  211.6310  157.1930 O   0  0  0  0  0  1  0  0  0  0  0  0
  155.4640  213.1660  156.2440 C   0  0  0  0  0  1  0  0  0  0  0  0
  156.9010  213.2190  153.7140 S   0  0  0  0  0  0  0  0  0  0  0  0
  156.6260  212.5730  155.5170 C   0  0  0  0  0  0  0  0  0  0  0  0
  158.4650  213.6880  154.3670 O   0  0  0  0  0  0  0  0  0  0  0  0
  159.5000  212.8960  156.1460 C   0  0  1  0  0  0  0  0  0  0  0  0
  159.8060  214.4490  156.4600 C   0  0  0  0  0  1  0  0  0  0  0  0
  162.2270  209.6090  148.6500 C   0  0  0  0  0  2  0  0  0  0  0  0
  161.7560  208.2480  148.0330 C   0  0  0  0  0  0  0  0  0  0  0  0
  161.0930  208.2120  147.0080 O   0  0  0  0  0  0  0  0  0  0  0  0
  162.5620  207.0220  148.3330 C   0  0  0  0  0  2  0  0  0  0  0  0
  161.8440  205.7030  148.2550 N   0  0  0  0  0  0  0  0  0  0  0  0
  160.6890  205.3390  149.1330 C   0  0  0  0  0  0  0  0  0  0  0  0
  159.5910  205.9010  149.0020 O   0  0  0  0  0  0  0  0  0  0  0  0
  162.0020  203.6570  144.6190 C   0  0  0  0  0  3  0  0  0  0  0  0
  161.4390  203.7120  146.8990 C   0  0  0  0  0  3  0  0  0  0  0  0
  162.0490  204.9620  147.0330 C   0  0  0  0  0  0  0  0  0  0  0  0
  162.6160  204.8890  144.6990 N   0  0  0  0  0  0  0  0  0  0  0  0
  162.6210  205.5330  145.8840 C   0  0  0  0  0  3  0  0  0  0  0  0
  161.3910  203.0640  145.7070 C   0  0  0  0  0  0  0  0  0  0  0  0
  160.6790  201.7660  145.6690 C   0  0  2  0  0  3  0  0  0  0  0  0
  159.5090  201.8200  144.9100 F   0  0  0  0  0  0  0  0  0  0  0  0
  160.4510  201.2980  147.0140 N   0  0  0  0  0  1  0  0  0  0  0  0
  160.9580  202.2250  151.0540 C   0  0  0  0  0  3  0  0  0  0  0  0
  160.8890  204.4700  150.2440 C   0  0  0  0  0  0  0  0  0  0  0  0
  160.9170  203.1160  149.9920 C   0  0  0  0  0  3  0  0  0  0  0  0
  161.1330  205.0010  151.4830 C   0  0  0  0  0  3  0  0  0  0  0  0
  161.0330  202.7630  152.3730 C   0  0  0  0  0  3  0  0  0  0  0  0
  161.1610  204.1560  152.5890 C   0  0  0  0  0  3  0  0  0  0  0  0
  1  8  2  0  0  0  0
  1  7  1  0  0  0  0
  2  6  1  0  0  0  0
  3  5  1  0  0  0  0
  3  9  1  1  0  0  0
  4  8  1  6  0  0  0
  4  2  1  0  0  0  0
  4  5  1  0  0  0  0
  4  6  1  0  0  0  0
  5  6  1  0  0  0  0
  6 11  1  0  0  0  0
  7  3  1  0  0  0  0
 11 10  1  0  0  0  0
 11 12  1  0  0  0  0
 12 13  1  0  0  0  0
 13 18  1  0  0  0  0
 13 15  1  0  0  0  0
 14 17  2  0  0  0  0
 15 14  1  0  0  0  0
 16 14  1  0  0  0  0
 16 21  1  0  0  0  0
 18 16  1  0  0  0  0
 19 15  1  0  0  0  0
 19 20  1  0  0  0  0
 22 30  1  0  0  0  0
 22 24  1  0  0  0  0
 23 28  1  0  0  0  0
 24 25  1  0  0  0  0
 27 29  1  0  0  0  0
 27 28  1  0  0  0  0
 28 26  1  0  0  0  0
 28 24  1  0  0  0  0
 29 22  1  0  0  0  0
 30 21  1  0  0  0  0
 30 24  1  0  0  0  0
 30 31  1  0  0  0  0
 32  2  1  0  0  0  0
 33 35  1  0  0  0  0
 33 32  1  0  0  0  0
 34 33  2  0  0  0  0
 36 35  1  0  0  0  0
 36 37  1  0  0  0  0
 37 49  1  0  0  0  0
 38 37  2  0  0  0  0
 39 42  2  0  0  0  0
 39 44  1  0  0  0  0
 40 41  1  0  0  0  0
 41 36  1  0  0  0  0
 42 43  1  0  0  0  0
 43 41  2  0  0  0  0
 44 40  2  0  0  0  0
 45 44  1  0  0  0  0
 45 47  1  0  0  0  0
 46 45  1  0  0  0  0
 48 52  1  0  0  0  0
 49 51  2  0  0  0  0
 50 49  1  0  0  0  0
 50 48  2  0  0  0  0
 51 53  1  0  0  0  0
 52 53  2  0  0  0  0
M  END
>  <MODEL>
3

>  <REMARK>
 VINA RESULT:      -6.1      2.792      6.599
  Name = 
  13 active torsions:
  status: ('A' for Active; 'I' for Inactive)
    1  A    between atoms: N_3  and  C_18
    2  A    between atoms: N_3  and  C_52
    3  A    between atoms: C_5  and  C_14
    4  A    between atoms: N_7  and  C_39
    5  A    between atoms: C_10  and  C_39
    6  A    between atoms: C_10  and  C_52
    7  A    between atoms: C_11  and  C_27
    8  A    between atoms: C_12  and  C_34
    9  A    between atoms: C_14  and  C_43
   10  A    between atoms: C_15  and  N_22
   11  A    between atoms: N_26  and  C_48
   12  A    between atoms: C_33  and  C_43
   13  A    between atoms: C_47  and  C_48
                            x       y       z     vdW  Elec       q    Type
                         _______ _______ _______ _____ _____    ______ ____

>  <TORSDO>
F 13

$$$$
=
 OpenBabel11072411403D

 53 60  0  0  1  0  0  0  0  0999 V2000
  161.9150  207.0700  154.8410 N   0  0  0  0  0  0  0  0  0  0  0  0
  161.1200  208.9780  152.1220 N   0  0  0  0  0  0  0  0  0  0  0  0
  161.0010  209.1420  155.5210 C   0  0  2  0  0  3  0  0  0  0  0  0
  160.3790  208.2070  153.1690 C   0  0  1  0  0  0  0  0  0  0  0  0
  159.9350  209.0790  154.4180 C   0  0  2  0  0  3  0  0  0  0  0  0
  160.2140  209.6790  152.9950 C   0  0  1  0  0  0  0  0  0  0  0  0
  161.6440  208.0820  155.7970 N   0  0  0  0  0  2  0  0  0  0  0  0
  161.4490  207.2140  153.6450 C   0  0  0  0  0  3  0  0  0  0  0  0
  160.9410  210.0940  156.6060 C   0  0  0  0  0  1  0  0  0  0  0  0
  161.1000  211.7970  153.9900 O   0  0  0  0  0  1  0  0  0  0  0  0
  160.6030  211.1900  152.9610 C   0  0  1  0  0  3  0  0  0  0  0  0
  160.8640  211.7570  151.5650 C   0  0  0  0  0  2  0  0  0  0  0  0
  160.0340  212.9350  151.2260 C   0  0  2  0  0  3  0  0  0  0  0  0
  158.0090  213.2580  150.1230 C   0  0  0  0  0  0  0  0  0  0  0  0
  158.5940  212.7540  151.3420 N   0  0  0  0  0  0  0  0  0  0  0  0
  159.0670  213.4220  149.1730 N   0  0  0  0  0  0  0  0  0  0  0  0
  156.9890  213.9510  150.0920 O   0  0  0  0  0  0  0  0  0  0  0  0
  160.3320  213.2060  149.8020 C   0  0  0  0  0  2  0  0  0  0  0  0
  157.9680  212.8370  152.6960 C   0  0  0  0  0  2  0  0  0  0  0  0
  158.6090  213.9050  153.6470 C   0  0  0  0  0  1  0  0  0  0  0  0
  158.8320  214.2890  148.0010 C   0  0  0  0  0  2  0  0  0  0  0  0
  158.7940  214.3220  145.6310 N   0  0  1  0  0  0  0  0  0  0  0  0
  161.2790  213.8750  144.2650 C   0  0  0  0  0  1  0  0  0  0  0  0
  159.3950  212.9380  145.6590 C   0  0  2  0  0  0  0  0  0  0  0  0
  160.5130  212.7300  146.4630 O   0  0  0  0  0  1  0  0  0  0  0  0
  160.1770  211.9290  143.4080 C   0  0  0  0  0  1  0  0  0  0  0  0
  158.7320  214.4530  143.3210 S   0  0  0  0  0  0  0  0  0  0  0  0
  159.9210  213.1850  144.1720 C   0  0  0  0  0  0  0  0  0  0  0  0
  157.7970  214.2140  144.7920 O   0  0  0  0  0  0  0  0  0  0  0  0
  158.4900  213.4670  146.7480 C   0  0  1  0  0  0  0  0  0  0  0  0
  157.1390  212.5840  146.7060 C   0  0  0  0  0  1  0  0  0  0  0  0
  160.6090  208.6530  150.6760 C   0  0  0  0  0  2  0  0  0  0  0  0
  161.6560  208.4130  149.5360 C   0  0  0  0  0  0  0  0  0  0  0  0
  162.0350  209.3270  148.8200 O   0  0  0  0  0  0  0  0  0  0  0  0
  162.6010  207.2600  149.6770 C   0  0  0  0  0  2  0  0  0  0  0  0
  162.1580  205.9440  149.1000 N   0  0  0  0  0  0  0  0  0  0  0  0
  162.6520  205.4100  147.7940 C   0  0  0  0  0  0  0  0  0  0  0  0
  163.8240  205.0270  147.6670 O   0  0  0  0  0  0  0  0  0  0  0  0
  160.7900  203.0610  151.7920 C   0  0  0  0  0  3  0  0  0  0  0  0
  161.1260  203.7830  149.5820 C   0  0  0  0  0  3  0  0  0  0  0  0
  161.5530  205.0330  150.0410 C   0  0  0  0  0  0  0  0  0  0  0  0
  161.2030  204.2760  152.2950 N   0  0  0  0  0  0  0  0  0  0  0  0
  161.5930  205.2350  151.4300 C   0  0  0  0  0  3  0  0  0  0  0  0
  160.7650  202.7920  150.4360 C   0  0  0  0  0  0  0  0  0  0  0  0
  160.3740  201.4940  149.8420 C   0  0  2  0  0  3  0  0  0  0  0  0
  161.2050  200.4490  150.2480 F   0  0  0  0  0  0  0  0  0  0  0  0
  160.2960  201.6200  148.4070 N   0  0  0  0  0  1  0  0  0  0  0  0
  161.3920  204.7370  144.4140 C   0  0  0  0  0  3  0  0  0  0  0  0
  161.8280  205.4980  146.6350 C   0  0  0  0  0  0  0  0  0  0  0  0
  162.0630  204.5980  145.6190 C   0  0  0  0  0  3  0  0  0  0  0  0
  160.7920  206.3950  146.6080 C   0  0  0  0  0  3  0  0  0  0  0  0
  160.4290  205.7850  144.3040 C   0  0  0  0  0  3  0  0  0  0  0  0
  160.0980  206.5940  145.4170 C   0  0  0  0  0  3  0  0  0  0  0  0
  1  7  1  0  0  0  0
  2  6  1  0  0  0  0
  2  4  1  0  0  0  0
  3  7  1  0  0  0  0
  3  9  1  1  0  0  0
  4  8  1  6  0  0  0
  4  5  1  0  0  0  0
  5  3  1  0  0  0  0
  6  4  1  0  0  0  0
  6  5  1  0  0  0  0
  8  1  2  0  0  0  0
 11  6  1  0  0  0  0
 11 10  1  0  0  0  0
 12 11  1  0  0  0  0
 13 15  1  0  0  0  0
 13 12  1  0  0  0  0
 14 15  1  0  0  0  0
 15 19  1  0  0  0  0
 16 18  1  0  0  0  0
 16 14  1  0  0  0  0
 17 14  2  0  0  0  0
 18 13  1  0  0  0  0
 19 20  1  0  0  0  0
 21 16  1  0  0  0  0
 22 24  1  0  0  0  0
 22 30  1  0  0  0  0
 24 25  1  0  0  0  0
 24 30  1  0  0  0  0
 26 28  1  0  0  0  0
 27 28  1  0  0  0  0
 27 29  1  0  0  0  0
 28 23  1  0  0  0  0
 28 24  1  0  0  0  0
 29 22  1  0  0  0  0
 30 21  1  0  0  0  0
 31 30  1  0  0  0  0
 32  2  1  0  0  0  0
 33 35  1  0  0  0  0
 33 32  1  0  0  0  0
 34 33  2  0  0  0  0
 36 35  1  0  0  0  0
 36 41  1  0  0  0  0
 37 36  1  0  0  0  0
 38 37  2  0  0  0  0
 39 42  1  0  0  0  0
 40 41  2  0  0  0  0
 40 44  1  0  0  0  0
 41 43  1  0  0  0  0
 43 42  2  0  0  0  0
 44 39  2  0  0  0  0
 45 46  1  0  0  0  0
 45 44  1  0  0  0  0
 47 45  1  0  0  0  0
 48 50  1  0  0  0  0
 49 37  1  0  0  0  0
 50 49  2  0  0  0  0
 51 49  1  0  0  0  0
 52 48  2  0  0  0  0
 52 53  1  0  0  0  0
 53 51  2  0  0  0  0
M  END
>  <MODEL>
4

>  <REMARK>
 VINA RESULT:      -5.8      1.621      3.301
  Name = 
  13 active torsions:
  status: ('A' for Active; 'I' for Inactive)
    1  A    between atoms: N_3  and  C_18
    2  A    between atoms: N_3  and  C_52
    3  A    between atoms: C_5  and  C_14
    4  A    between atoms: N_7  and  C_39
    5  A    between atoms: C_10  and  C_39
    6  A    between atoms: C_10  and  C_52
    7  A    between atoms: C_11  and  C_27
    8  A    between atoms: C_12  and  C_34
    9  A    between atoms: C_14  and  C_43
   10  A    between atoms: C_15  and  N_22
   11  A    between atoms: N_26  and  C_48
   12  A    between atoms: C_33  and  C_43
   13  A    between atoms: C_47  and  C_48
                            x       y       z     vdW  Elec       q    Type
                         _______ _______ _______ _____ _____    ______ ____

>  <TORSDO>
F 13

$$$$
=
 OpenBabel11072411403D

 53 60  0  0  1  0  0  0  0  0999 V2000
  160.4350  206.6290  150.1070 N   0  0  0  0  0  0  0  0  0  0  0  0
  161.2020  209.9300  150.5390 N   0  0  0  0  0  0  0  0  0  0  0  0
  161.5600  207.4750  148.2070 C   0  0  2  0  0  3  0  0  0  0  0  0
  161.9450  208.6310  150.5110 C   0  0  1  0  0  0  0  0  0  0  0  0
  162.5410  208.2610  149.0890 C   0  0  2  0  0  3  0  0  0  0  0  0
  162.2190  209.7290  149.5390 C   0  0  1  0  0  0  0  0  0  0  0  0
  160.8520  206.5730  148.7530 N   0  0  0  0  0  2  0  0  0  0  0  0
  160.8310  207.6240  150.8310 C   0  0  0  0  0  3  0  0  0  0  0  0
  161.7710  207.2830  146.7910 C   0  0  0  0  0  1  0  0  0  0  0  0
  160.8600  210.7410  147.6980 O   0  0  0  0  0  1  0  0  0  0  0  0
  161.9540  210.7490  148.3880 C   0  0  1  0  0  3  0  0  0  0  0  0
  162.7740  212.0370  148.4690 C   0  0  0  0  0  2  0  0  0  0  0  0
  162.1730  213.1820  147.7470 C   0  0  2  0  0  3  0  0  0  0  0  0
  160.2750  213.4820  146.4310 C   0  0  0  0  0  0  0  0  0  0  0  0
  160.7190  213.2670  147.7870 N   0  0  0  0  0  0  0  0  0  0  0  0
  161.3790  213.1980  145.5650 N   0  0  0  0  0  0  0  0  0  0  0  0
  159.3920  214.2860  146.1230 O   0  0  0  0  0  0  0  0  0  0  0  0
  162.5650  212.9800  146.3330 C   0  0  0  0  0  2  0  0  0  0  0  0
  160.0680  213.8330  149.0070 C   0  0  0  0  0  2  0  0  0  0  0  0
  158.7500  213.1040  149.4390 C   0  0  0  0  0  1  0  0  0  0  0  0
  161.3410  213.7170  144.1830 C   0  0  0  0  0  2  0  0  0  0  0  0
  160.6640  213.3390  141.9420 N   0  0  1  0  0  0  0  0  0  0  0  0
  162.7310  213.0590  139.9700 C   0  0  0  0  0  1  0  0  0  0  0  0
  161.5130  212.0910  141.9570 C   0  0  2  0  0  0  0  0  0  0  0  0
  162.8230  212.2000  142.4160 O   0  0  0  0  0  1  0  0  0  0  0  0
  161.8490  210.8480  139.7120 C   0  0  0  0  0  1  0  0  0  0  0  0
  159.9620  213.0640  139.7550 S   0  0  0  0  0  0  0  0  0  0  0  0
  161.5620  212.1600  140.3630 C   0  0  0  0  0  0  0  0  0  0  0  0
  159.5220  212.9350  141.4530 O   0  0  0  0  0  0  0  0  0  0  0  0
  160.8450  212.6490  143.1930 C   0  0  1  0  0  0  0  0  0  0  0  0
  159.7360  211.5730  143.6550 C   0  0  0  0  0  1  0  0  0  0  0  0
  161.5870  210.8040  151.7830 C   0  0  0  0  0  2  0  0  0  0  0  0
  160.4910  211.7010  152.4500 C   0  0  0  0  0  0  0  0  0  0  0  0
  160.3530  212.8740  152.1360 O   0  0  0  0  0  0  0  0  0  0  0  0
  159.2760  211.0300  153.0120 C   0  0  0  0  0  2  0  0  0  0  0  0
  159.1700  210.9630  154.5110 N   0  0  0  0  0  0  0  0  0  0  0  0
  160.3090  210.5820  155.4010 C   0  0  0  0  0  0  0  0  0  0  0  0
  161.2830  211.3360  155.5420 O   0  0  0  0  0  0  0  0  0  0  0  0
  155.6550  212.7020  155.9440 C   0  0  0  0  0  3  0  0  0  0  0  0
  157.2480  212.4460  154.2370 C   0  0  0  0  0  3  0  0  0  0  0  0
  158.0470  211.6690  155.0800 C   0  0  0  0  0  0  0  0  0  0  0  0
  156.4060  211.9410  156.8150 N   0  0  0  0  0  0  0  0  0  0  0  0
  157.5720  211.4220  156.3790 C   0  0  0  0  0  3  0  0  0  0  0  0
  156.0540  212.9470  154.6430 C   0  0  0  0  0  0  0  0  0  0  0  0
  155.2690  213.7180  153.6530 C   0  0  2  0  0  3  0  0  0  0  0  0
  154.3710  212.9190  152.9440 F   0  0  0  0  0  0  0  0  0  0  0  0
  156.1630  214.4520  152.7910 N   0  0  0  0  0  1  0  0  0  0  0  0
  161.5990  207.6900  157.2550 C   0  0  0  0  0  3  0  0  0  0  0  0
  160.3670  209.2730  155.9590 C   0  0  0  0  0  0  0  0  0  0  0  0
  161.4150  208.9890  156.8070 C   0  0  0  0  0  3  0  0  0  0  0  0
  159.3500  208.3870  155.7120 C   0  0  0  0  0  3  0  0  0  0  0  0
  160.6430  206.7070  156.8600 C   0  0  0  0  0  3  0  0  0  0  0  0
  159.4920  207.0630  156.1180 C   0  0  0  0  0  3  0  0  0  0  0  0
  1  8  2  0  0  0  0
  2 32  1  0  0  0  0
  3  9  1  6  0  0  0
  3  7  1  0  0  0  0
  3  5  1  0  0  0  0
  4  2  1  0  0  0  0
  4  8  1  1  0  0  0
  5  6  1  0  0  0  0
  5  4  1  0  0  0  0
  6  4  1  0  0  0  0
  6  2  1  0  0  0  0
  7  1  1  0  0  0  0
 10 11  1  0  0  0  0
 11 12  1  0  0  0  0
 11  6  1  0  0  0  0
 13 15  1  0  0  0  0
 13 12  1  0  0  0  0
 14 15  1  0  0  0  0
 15 19  1  0  0  0  0
 16 18  1  0  0  0  0
 16 14  1  0  0  0  0
 17 14  2  0  0  0  0
 18 13  1  0  0  0  0
 19 20  1  0  0  0  0
 21 16  1  0  0  0  0
 22 24  1  0  0  0  0
 22 30  1  0  0  0  0
 23 28  1  0  0  0  0
 24 25  1  0  0  0  0
 24 30  1  0  0  0  0
 26 28  1  0  0  0  0
 27 28  1  0  0  0  0
 27 29  1  0  0  0  0
 28 24  1  0  0  0  0
 29 22  1  0  0  0  0
 30 31  1  0  0  0  0
 30 21  1  0  0  0  0
 32 33  1  0  0  0  0
 33 35  1  0  0  0  0
 34 33  2  0  0  0  0
 35 36  1  0  0  0  0
 36 41  1  0  0  0  0
 36 37  1  0  0  0  0
 37 38  2  0  0  0  0
 37 49  1  0  0  0  0
 39 42  1  0  0  0  0
 40 44  1  0  0  0  0
 40 41  2  0  0  0  0
 41 43  1  0  0  0  0
 43 42  2  0  0  0  0
 44 39  2  0  0  0  0
 45 44  1  0  0  0  0
 46 45  1  0  0  0  0
 47 45  1  0  0  0  0
 49 50  1  0  0  0  0
 50 48  2  0  0  0  0
 51 49  2  0  0  0  0
 51 53  1  0  0  0  0
 52 48  1  0  0  0  0
 53 52  2  0  0  0  0
M  END
>  <MODEL>
5

>  <REMARK>
 VINA RESULT:      -5.6      3.651      7.486
  Name = 
  13 active torsions:
  status: ('A' for Active; 'I' for Inactive)
    1  A    between atoms: N_3  and  C_18
    2  A    between atoms: N_3  and  C_52
    3  A    between atoms: C_5  and  C_14
    4  A    between atoms: N_7  and  C_39
    5  A    between atoms: C_10  and  C_39
    6  A    between atoms: C_10  and  C_52
    7  A    between atoms: C_11  and  C_27
    8  A    between atoms: C_12  and  C_34
    9  A    between atoms: C_14  and  C_43
   10  A    between atoms: C_15  and  N_22
   11  A    between atoms: N_26  and  C_48
   12  A    between atoms: C_33  and  C_43
   13  A    between atoms: C_47  and  C_48
                            x       y       z     vdW  Elec       q    Type
                         _______ _______ _______ _____ _____    ______ ____

>  <TORSDO>
F 13

$$$$
=
 OpenBabel11072411403D

 53 60  0  0  1  0  0  0  0  0999 V2000
  160.6610  206.5330  150.0370 N   0  0  0  0  0  0  0  0  0  0  0  0
  161.2200  209.9020  150.1220 N   0  0  0  0  0  0  0  0  0  0  0  0
  161.3740  207.3100  147.9200 C   0  0  2  0  0  3  0  0  0  0  0  0
  162.0510  208.6590  150.0440 C   0  0  1  0  0  0  0  0  0  0  0  0
  162.4240  208.2250  148.5650 C   0  0  2  0  0  3  0  0  0  0  0  0
  162.0650  209.6970  148.9740 C   0  0  1  0  0  0  0  0  0  0  0  0
  160.8440  206.4040  148.6370 N   0  0  0  0  0  2  0  0  0  0  0  0
  161.0930  207.6040  150.6170 C   0  0  0  0  0  3  0  0  0  0  0  0
  161.3540  207.0260  146.5040 C   0  0  0  0  0  1  0  0  0  0  0  0
  160.5090  210.2710  147.1000 O   0  0  0  0  0  1  0  0  0  0  0  0
  161.5260  210.6070  147.8260 C   0  0  1  0  0  3  0  0  0  0  0  0
  161.8980  212.0850  147.9480 C   0  0  0  0  0  2  0  0  0  0  0  0
  160.9850  212.9990  147.2240 C   0  0  2  0  0  3  0  0  0  0  0  0
  159.2400  212.7200  145.7070 C   0  0  0  0  0  0  0  0  0  0  0  0
  159.6060  212.5500  147.0930 N   0  0  0  0  0  0  0  0  0  0  0  0
  160.4460  212.9400  144.9670 N   0  0  0  0  0  0  0  0  0  0  0  0
  158.1550  213.1760  145.3410 O   0  0  0  0  0  0  0  0  0  0  0  0
  161.5520  213.0910  145.8600 C   0  0  0  0  0  2  0  0  0  0  0  0
  158.6830  212.7210  148.2550 C   0  0  0  0  0  2  0  0  0  0  0  0
  158.3750  214.2110  148.6290 C   0  0  0  0  0  1  0  0  0  0  0  0
  160.3460  213.5410  143.6220 C   0  0  0  0  0  2  0  0  0  0  0  0
  160.9900  212.0800  141.8700 N   0  0  1  0  0  0  0  0  0  0  0  0
  160.2590  212.8230  139.1950 C   0  0  0  0  0  1  0  0  0  0  0  0
  161.6920  213.2520  141.2280 C   0  0  2  0  0  0  0  0  0  0  0  0
  160.9810  214.4410  141.0900 O   0  0  0  0  0  1  0  0  0  0  0  0
  162.6240  212.9230  138.8360 C   0  0  0  0  0  1  0  0  0  0  0  0
  161.5570  210.5830  140.1980 S   0  0  0  0  0  0  0  0  0  0  0  0
  161.6030  212.4830  139.8320 C   0  0  0  0  0  0  0  0  0  0  0  0
  161.8830  211.1250  141.8390 O   0  0  0  0  0  0  0  0  0  0  0  0
  161.5180  213.1120  142.7230 C   0  0  1  0  0  0  0  0  0  0  0  0
  162.9910  212.9240  143.3530 C   0  0  0  0  0  1  0  0  0  0  0  0
  161.7390  210.8910  151.2220 C   0  0  0  0  0  2  0  0  0  0  0  0
  160.7110  211.8080  151.9670 C   0  0  0  0  0  0  0  0  0  0  0  0
  160.4640  212.9370  151.5720 O   0  0  0  0  0  0  0  0  0  0  0  0
  159.6340  211.1490  152.7730 C   0  0  0  0  0  2  0  0  0  0  0  0
  159.8700  211.0290  154.2530 N   0  0  0  0  0  0  0  0  0  0  0  0
  161.0630  210.3480  154.8450 C   0  0  0  0  0  0  0  0  0  0  0  0
  162.1930  210.8470  154.7430 O   0  0  0  0  0  0  0  0  0  0  0  0
  157.4200  213.3230  156.7360 C   0  0  0  0  0  3  0  0  0  0  0  0
  157.8330  212.3150  154.6550 C   0  0  0  0  0  3  0  0  0  0  0  0
  159.1140  211.9460  155.0730 C   0  0  0  0  0  0  0  0  0  0  0  0
  158.6740  212.9820  157.1960 N   0  0  0  0  0  0  0  0  0  0  0  0
  159.4960  212.2900  156.3800 C   0  0  0  0  0  3  0  0  0  0  0  0
  156.9770  212.9790  155.4730 C   0  0  0  0  0  0  0  0  0  0  0  0
  155.6270  213.2790  154.9430 C   0  0  2  0  0  3  0  0  0  0  0  0
  155.6700  213.8790  153.6840 F   0  0  0  0  0  0  0  0  0  0  0  0
  154.8900  214.0580  155.9080 N   0  0  0  0  0  1  0  0  0  0  0  0
  160.4560  206.7320  154.9640 C   0  0  0  0  0  3  0  0  0  0  0  0
  160.9370  209.0330  155.3790 C   0  0  0  0  0  0  0  0  0  0  0  0
  160.7330  208.0030  154.4860 C   0  0  0  0  0  3  0  0  0  0  0  0
  161.1100  208.8290  156.7230 C   0  0  0  0  0  3  0  0  0  0  0  0
  160.4550  206.5350  156.3770 C   0  0  0  0  0  3  0  0  0  0  0  0
  160.8220  207.5780  157.2610 C   0  0  0  0  0  3  0  0  0  0  0  0
  1  8  2  0  0  0  0
  2 32  1  0  0  0  0
  3  9  1  6  0  0  0
  3  5  1  0  0  0  0
  3  7  1  0  0  0  0
  4  2  1  0  0  0  0
  4  8  1  1  0  0  0
  5  6  1  0  0  0  0
  5  4  1  0  0  0  0
  6  4  1  0  0  0  0
  6  2  1  0  0  0  0
  7  1  1  0  0  0  0
 10 11  1  0  0  0  0
 11 12  1  0  0  0  0
 11  6  1  0  0  0  0
 13 12  1  0  0  0  0
 14 15  1  0  0  0  0
 15 13  1  0  0  0  0
 15 19  1  0  0  0  0
 16 14  1  0  0  0  0
 16 18  1  0  0  0  0
 17 14  2  0  0  0  0
 18 13  1  0  0  0  0
 19 20  1  0  0  0  0
 21 16  1  0  0  0  0
 22 30  1  0  0  0  0
 23 28  1  0  0  0  0
 24 22  1  0  0  0  0
 24 30  1  0  0  0  0
 25 24  1  0  0  0  0
 26 28  1  0  0  0  0
 27 29  1  0  0  0  0
 28 27  1  0  0  0  0
 28 24  1  0  0  0  0
 29 22  1  0  0  0  0
 30 31  1  0  0  0  0
 30 21  1  0  0  0  0
 32 33  1  0  0  0  0
 33 35  1  0  0  0  0
 34 33  2  0  0  0  0
 35 36  1  0  0  0  0
 36 37  1  0  0  0  0
 36 41  1  0  0  0  0
 37 49  1  0  0  0  0
 38 37  2  0  0  0  0
 39 42  1  0  0  0  0
 40 41  2  0  0  0  0
 40 44  1  0  0  0  0
 41 43  1  0  0  0  0
 43 42  2  0  0  0  0
 44 39  2  0  0  0  0
 45 44  1  0  0  0  0
 45 47  1  0  0  0  0
 46 45  1  0  0  0  0
 48 52  1  0  0  0  0
 49 51  2  0  0  0  0
 50 48  2  0  0  0  0
 50 49  1  0  0  0  0
 51 53  1  0  0  0  0
 52 53  2  0  0  0  0
M  END
>  <MODEL>
6

>  <REMARK>
 VINA RESULT:      -4.2      3.645      7.759
  Name = 
  13 active torsions:
  status: ('A' for Active; 'I' for Inactive)
    1  A    between atoms: N_3  and  C_18
    2  A    between atoms: N_3  and  C_52
    3  A    between atoms: C_5  and  C_14
    4  A    between atoms: N_7  and  C_39
    5  A    between atoms: C_10  and  C_39
    6  A    between atoms: C_10  and  C_52
    7  A    between atoms: C_11  and  C_27
    8  A    between atoms: C_12  and  C_34
    9  A    between atoms: C_14  and  C_43
   10  A    between atoms: C_15  and  N_22
   11  A    between atoms: N_26  and  C_48
   12  A    between atoms: C_33  and  C_43
   13  A    between atoms: C_47  and  C_48
                            x       y       z     vdW  Elec       q    Type
                         _______ _______ _______ _____ _____    ______ ____

>  <TORSDO>
F 13

$$$$
