=
 OpenBabel11072411143D

 28 29  0  0  1  0  0  0  0  0999 V2000
  160.7140  208.5310  153.1180 C   0  0  1  0  0  3  0  0  0  0  0  0
  160.7000  208.3750  154.9330 P   0  0  0  0  0  0  0  0  0  0  0  0
  162.1040  209.0660  155.5760 O   0  0  0  0  0  1  0  0  0  0  0  0
  160.6390  206.9140  155.3200 O   0  0  0  0  0  0  0  0  0  0  0  0
  159.3460  209.1720  155.5600 O   0  0  0  0  0  1  0  0  0  0  0  0
  161.7220  209.5870  152.7020 C   0  0  2  0  0  3  0  0  0  0  0  0
  161.0810  210.9600  152.7230 C   0  0  0  0  0  2  0  0  0  0  0  0
  161.2620  210.2320  151.4090 C   0  0  1  0  0  3  0  0  0  0  0  0
  162.3740  210.7410  150.7370 O   0  0  0  0  0  0  0  0  0  0  0  0
  162.0090  210.7240  149.3870 C   0  0  0  0  0  2  0  0  0  0  0  0
  163.1870  212.1710  147.8760 O   0  0  0  0  0  1  0  0  0  0  0  0
  162.1200  212.1150  148.7740 C   0  0  1  0  0  3  0  0  0  0  0  0
  160.5930  212.0690  146.9500 O   0  0  0  0  0  0  0  0  0  0  0  0
  160.8480  212.5150  148.1010 C   0  0  0  0  0  0  0  0  0  0  0  0
  159.9700  213.3980  148.7350 O   0  0  0  0  0  0  0  0  0  0  0  0
  160.1350  213.7660  150.0960 C   0  0  0  0  0  1  0  0  0  0  0  0
  160.9640  207.0290  151.1820 C   0  0  0  0  0  3  0  0  0  0  0  0
  161.0890  207.2240  152.4940 C   0  0  0  0  0  3  0  0  0  0  0  0
  160.8470  203.2840  150.5160 C   0  0  0  0  0  2  0  0  0  0  0  0
  161.6000  204.4560  148.4110 C   0  0  2  0  0  3  0  0  0  0  0  0
  161.3470  205.7230  150.5720 C   0  0  2  0  0  3  0  0  0  0  0  0
  160.7560  203.3010  148.9900 C   0  0  1  0  0  3  0  0  0  0  0  0
  161.2300  205.7960  149.0510 C   0  0  0  0  0  2  0  0  0  0  0  0
  160.4310  204.6290  151.1000 C   0  0  0  0  0  2  0  0  0  0  0  0
  161.5040  204.5570  146.8870 C   0  0  0  0  0  2  0  0  0  0  0  0
  162.8510  204.8360  146.2360 C   0  0  0  0  0  1  0  0  0  0  0  0
  161.0460  200.8850  149.5360 C   0  0  0  0  0  1  0  0  0  0  0  0
  161.2450  201.9530  148.4780 C   0  0  0  0  0  2  0  0  0  0  0  0
  1 18  1  6  0  0  0
  1  2  1  0  0  0  0
  2  4  2  0  0  0  0
  2  5  1  0  0  0  0
  2  3  1  0  0  0  0
  6  7  1  0  0  0  0
  6  1  1  1  0  0  0
  8  9  1  6  0  0  0
  8  6  1  0  0  0  0
  8  7  1  0  0  0  0
 10  9  1  0  0  0  0
 12 11  1  6  0  0  0
 12 10  1  0  0  0  0
 13 14  2  0  0  0  0
 14 15  1  0  0  0  0
 14 12  1  0  0  0  0
 15 16  1  0  0  0  0
 17 18  2  0  0  0  0
 19 24  1  0  0  0  0
 20 25  1  6  0  0  0
 20 22  1  0  0  0  0
 20 23  1  0  0  0  0
 21 24  1  0  0  0  0
 21 17  1  1  0  0  0
 22 28  1  6  0  0  0
 22 19  1  0  0  0  0
 23 21  1  0  0  0  0
 26 25  1  0  0  0  0
 28 27  1  0  0  0  0
M  END
>  <MODEL>
1

>  <REMARK>
 VINA RESULT:      -7.0      0.000      0.000
  Name = 
  11 active torsions:
  status: ('A' for Active; 'I' for Inactive)
    1  A    between atoms: P_2  and  C_12
    2  A    between atoms: C_3  and  C_12
    3  A    between atoms: C_5  and  C_6
    4  A    between atoms: O_8  and  C_22
    5  A    between atoms: C_9  and  C_13
    6  A    between atoms: C_11  and  C_26
    7  A    between atoms: C_12  and  C_16
    8  A    between atoms: O_14  and  C_21
    9  A    between atoms: O_14  and  C_23
   10  A    between atoms: C_22  and  C_28
   11  A    between atoms: C_23  and  C_28
                            x       y       z     vdW  Elec       q    Type
                         _______ _______ _______ _____ _____    ______ ____

>  <TORSDO>
F 11

$$$$
=
 OpenBabel11072411143D

 28 29  0  0  1  0  0  0  0  0999 V2000
  160.4410  209.6320  154.5610 C   0  0  1  0  0  3  0  0  0  0  0  0
  161.5200  209.6300  156.0300 P   0  0  0  0  0  0  0  0  0  0  0  0
  161.9920  208.0460  156.3890 O   0  0  0  0  0  1  0  0  0  0  0  0
  160.7760  210.2110  157.2110 O   0  0  0  0  0  1  0  0  0  0  0  0
  162.8940  210.5680  155.7230 O   0  0  0  0  0  0  0  0  0  0  0  0
  160.7050  210.8770  153.7330 C   0  0  2  0  0  3  0  0  0  0  0  0
  160.0470  212.0820  154.3750 C   0  0  0  0  0  2  0  0  0  0  0  0
  159.3890  211.4020  153.1930 C   0  0  1  0  0  3  0  0  0  0  0  0
  159.6380  212.1330  152.0310 O   0  0  0  0  0  0  0  0  0  0  0  0
  158.4360  212.7990  151.7690 C   0  0  0  0  0  2  0  0  0  0  0  0
  159.9910  214.2400  150.6410 O   0  0  0  0  0  1  0  0  0  0  0  0
  158.6390  213.9100  150.7440 C   0  0  1  0  0  3  0  0  0  0  0  0
  158.8460  213.5530  148.4010 O   0  0  0  0  0  0  0  0  0  0  0  0
  158.0900  213.5250  149.4090 C   0  0  0  0  0  0  0  0  0  0  0  0
  156.7450  213.1690  149.2840 O   0  0  0  0  0  0  0  0  0  0  0  0
  155.6990  214.0750  149.6030 C   0  0  0  0  0  1  0  0  0  0  0  0
  161.4400  208.5040  152.6130 C   0  0  0  0  0  3  0  0  0  0  0  0
  160.7120  208.4220  153.7260 C   0  0  0  0  0  3  0  0  0  0  0  0
  161.5410  204.8050  151.7270 C   0  0  0  0  0  2  0  0  0  0  0  0
  161.2280  206.1360  149.6050 C   0  0  2  0  0  3  0  0  0  0  0  0
  161.7070  207.2890  151.7910 C   0  0  2  0  0  3  0  0  0  0  0  0
  160.8410  204.8510  150.3680 C   0  0  1  0  0  3  0  0  0  0  0  0
  160.9800  207.3870  150.4520 C   0  0  0  0  0  2  0  0  0  0  0  0
  161.2280  206.0550  152.5410 C   0  0  0  0  0  2  0  0  0  0  0  0
  160.5140  206.2640  148.2570 C   0  0  0  0  0  2  0  0  0  0  0  0
  161.4870  206.3660  147.0910 C   0  0  0  0  0  1  0  0  0  0  0  0
  160.5150  202.3910  150.1200 C   0  0  0  0  0  1  0  0  0  0  0  0
  161.2500  203.6070  149.5910 C   0  0  0  0  0  2  0  0  0  0  0  0
  1 18  1  6  0  0  0
  1  2  1  0  0  0  0
  2  3  1  0  0  0  0
  2  4  1  0  0  0  0
  5  2  2  0  0  0  0
  6  7  1  0  0  0  0
  6  1  1  1  0  0  0
  8  9  1  6  0  0  0
  8  6  1  0  0  0  0
  8  7  1  0  0  0  0
 10  9  1  0  0  0  0
 12 11  1  6  0  0  0
 12 10  1  0  0  0  0
 13 14  2  0  0  0  0
 14 12  1  0  0  0  0
 15 14  1  0  0  0  0
 15 16  1  0  0  0  0
 17 18  2  0  0  0  0
 19 24  1  0  0  0  0
 20 25  1  6  0  0  0
 20 22  1  0  0  0  0
 20 23  1  0  0  0  0
 21 24  1  0  0  0  0
 21 17  1  1  0  0  0
 22 28  1  6  0  0  0
 22 19  1  0  0  0  0
 23 21  1  0  0  0  0
 26 25  1  0  0  0  0
 28 27  1  0  0  0  0
M  END
>  <MODEL>
2

>  <REMARK>
 VINA RESULT:      -6.9      2.161      2.863
  Name = 
  11 active torsions:
  status: ('A' for Active; 'I' for Inactive)
    1  A    between atoms: P_2  and  C_12
    2  A    between atoms: C_3  and  C_12
    3  A    between atoms: C_5  and  C_6
    4  A    between atoms: O_8  and  C_22
    5  A    between atoms: C_9  and  C_13
    6  A    between atoms: C_11  and  C_26
    7  A    between atoms: C_12  and  C_16
    8  A    between atoms: O_14  and  C_21
    9  A    between atoms: O_14  and  C_23
   10  A    between atoms: C_22  and  C_28
   11  A    between atoms: C_23  and  C_28
                            x       y       z     vdW  Elec       q    Type
                         _______ _______ _______ _____ _____    ______ ____

>  <TORSDO>
F 11

$$$$
=
 OpenBabel11072411143D

 28 29  0  0  1  0  0  0  0  0999 V2000
  160.5650  208.4870  154.3830 C   0  0  1  0  0  3  0  0  0  0  0  0
  160.7200  208.3280  156.1910 P   0  0  0  0  0  0  0  0  0  0  0  0
  162.3470  208.4490  156.6380 O   0  0  0  0  0  1  0  0  0  0  0  0
  160.1770  206.9890  156.6350 O   0  0  0  0  0  0  0  0  0  0  0  0
  159.8400  209.5620  156.9450 O   0  0  0  0  0  1  0  0  0  0  0  0
  161.5750  209.4980  153.8690 C   0  0  2  0  0  3  0  0  0  0  0  0
  161.0230  210.9030  154.0030 C   0  0  0  0  0  2  0  0  0  0  0  0
  160.9960  210.2070  152.6590 C   0  0  1  0  0  3  0  0  0  0  0  0
  162.0440  210.6740  151.8660 O   0  0  0  0  0  0  0  0  0  0  0  0
  161.4430  211.0120  150.6500 C   0  0  0  0  0  2  0  0  0  0  0  0
  162.0830  209.3220  149.0680 O   0  0  0  0  0  1  0  0  0  0  0  0
  162.3370  210.6330  149.4740 C   0  0  1  0  0  3  0  0  0  0  0  0
  163.1370  212.2900  147.9660 O   0  0  0  0  0  0  0  0  0  0  0  0
  162.1620  211.5790  148.3310 C   0  0  0  0  0  0  0  0  0  0  0  0
  160.9210  211.6900  147.7010 O   0  0  0  0  0  0  0  0  0  0  0  0
  160.5810  212.8220  146.9140 C   0  0  0  0  0  1  0  0  0  0  0  0
  161.3280  207.0950  152.4990 C   0  0  0  0  0  3  0  0  0  0  0  0
  160.8200  207.1660  153.7290 C   0  0  0  0  0  3  0  0  0  0  0  0
  161.0390  203.3420  151.9390 C   0  0  0  0  0  2  0  0  0  0  0  0
  161.4510  204.4620  149.7150 C   0  0  2  0  0  3  0  0  0  0  0  0
  161.5820  205.7710  151.8610 C   0  0  2  0  0  3  0  0  0  0  0  0
  160.6950  203.3340  150.4490 C   0  0  1  0  0  3  0  0  0  0  0  0
  161.2150  205.8200  150.3800 C   0  0  0  0  0  2  0  0  0  0  0  0
  160.7490  204.7050  152.5570 C   0  0  0  0  0  2  0  0  0  0  0  0
  161.1040  204.5380  148.2260 C   0  0  0  0  0  2  0  0  0  0  0  0
  160.8920  205.9670  147.7490 C   0  0  0  0  0  1  0  0  0  0  0  0
  159.8720  201.3280  149.2190 C   0  0  0  0  0  1  0  0  0  0  0  0
  161.0700  201.9680  149.8920 C   0  0  0  0  0  2  0  0  0  0  0  0
  1 18  1  6  0  0  0
  1  2  1  0  0  0  0
  2  4  2  0  0  0  0
  2  3  1  0  0  0  0
  2  5  1  0  0  0  0
  6  7  1  0  0  0  0
  6  1  1  1  0  0  0
  8  9  1  6  0  0  0
  8  6  1  0  0  0  0
  8  7  1  0  0  0  0
 10  9  1  0  0  0  0
 12 11  1  6  0  0  0
 12 10  1  0  0  0  0
 13 14  2  0  0  0  0
 14 12  1  0  0  0  0
 15 14  1  0  0  0  0
 16 15  1  0  0  0  0
 17 18  2  0  0  0  0
 19 24  1  0  0  0  0
 20 25  1  6  0  0  0
 20 23  1  0  0  0  0
 20 22  1  0  0  0  0
 21 17  1  1  0  0  0
 21 24  1  0  0  0  0
 22 28  1  6  0  0  0
 22 19  1  0  0  0  0
 23 21  1  0  0  0  0
 26 25  1  0  0  0  0
 27 28  1  0  0  0  0
M  END
>  <MODEL>
3

>  <REMARK>
 VINA RESULT:      -6.9      1.355      1.743
  Name = 
  11 active torsions:
  status: ('A' for Active; 'I' for Inactive)
    1  A    between atoms: P_2  and  C_12
    2  A    between atoms: C_3  and  C_12
    3  A    between atoms: C_5  and  C_6
    4  A    between atoms: O_8  and  C_22
    5  A    between atoms: C_9  and  C_13
    6  A    between atoms: C_11  and  C_26
    7  A    between atoms: C_12  and  C_16
    8  A    between atoms: O_14  and  C_21
    9  A    between atoms: O_14  and  C_23
   10  A    between atoms: C_22  and  C_28
   11  A    between atoms: C_23  and  C_28
                            x       y       z     vdW  Elec       q    Type
                         _______ _______ _______ _____ _____    ______ ____

>  <TORSDO>
F 11

$$$$
=
 OpenBabel11072411143D

 28 29  0  0  1  0  0  0  0  0999 V2000
  160.9790  207.5500  150.8800 C   0  0  1  0  0  3  0  0  0  0  0  0
  161.5750  206.8670  152.4600 P   0  0  0  0  0  0  0  0  0  0  0  0
  161.4100  208.0260  153.6820 O   0  0  0  0  0  1  0  0  0  0  0  0
  163.0300  206.4770  152.3320 O   0  0  0  0  0  0  0  0  0  0  0  0
  160.6660  205.4970  152.8630 O   0  0  0  0  0  1  0  0  0  0  0  0
  162.0930  208.3330  150.2080 C   0  0  2  0  0  3  0  0  0  0  0  0
  162.3330  209.6380  150.9400 C   0  0  0  0  0  2  0  0  0  0  0  0
  161.5290  209.6280  149.6570 C   0  0  1  0  0  3  0  0  0  0  0  0
  162.3290  210.0550  148.5970 O   0  0  0  0  0  0  0  0  0  0  0  0
  162.3640  211.4470  148.7190 C   0  0  0  0  0  2  0  0  0  0  0  0
  160.5460  213.0150  148.7850 O   0  0  0  0  0  1  0  0  0  0  0  0
  161.2020  212.0910  147.9700 C   0  0  1  0  0  3  0  0  0  0  0  0
  162.7530  213.3740  146.7030 O   0  0  0  0  0  0  0  0  0  0  0  0
  161.6630  212.7410  146.7070 C   0  0  0  0  0  0  0  0  0  0  0  0
  160.8750  212.6680  145.5570 O   0  0  0  0  0  0  0  0  0  0  0  0
  159.6220  213.3300  145.4660 C   0  0  0  0  0  1  0  0  0  0  0  0
  161.3990  205.8710  149.1280 C   0  0  0  0  0  3  0  0  0  0  0  0
  160.5430  206.4430  149.9750 C   0  0  0  0  0  3  0  0  0  0  0  0
  161.3840  203.5960  146.0770 C   0  0  0  0  0  2  0  0  0  0  0  0
  160.5620  202.2830  148.0700 C   0  0  2  0  0  3  0  0  0  0  0  0
  160.9530  204.7640  148.2340 C   0  0  2  0  0  3  0  0  0  0  0  0
  161.4020  202.2360  146.7760 C   0  0  1  0  0  3  0  0  0  0  0  0
  160.9970  203.4320  148.9810 C   0  0  0  0  0  2  0  0  0  0  0  0
  161.8640  204.6960  147.0170 C   0  0  0  0  0  2  0  0  0  0  0  0
  160.5870  200.9610  148.8420 C   0  0  0  0  0  2  0  0  0  0  0  0
  161.0790  201.1310  150.2720 C   0  0  0  0  0  1  0  0  0  0  0  0
  159.8410  201.8450  144.8710 C   0  0  0  0  0  1  0  0  0  0  0  0
  160.8530  201.2040  145.8000 C   0  0  0  0  0  2  0  0  0  0  0  0
  1 18  1  6  0  0  0
  1  2  1  0  0  0  0
  2  5  1  0  0  0  0
  2  3  1  0  0  0  0
  4  2  2  0  0  0  0
  6  1  1  1  0  0  0
  6  7  1  0  0  0  0
  8  9  1  6  0  0  0
  8  6  1  0  0  0  0
  8  7  1  0  0  0  0
  9 10  1  0  0  0  0
 12 10  1  0  0  0  0
 12 11  1  1  0  0  0
 13 14  2  0  0  0  0
 14 12  1  0  0  0  0
 15 14  1  0  0  0  0
 16 15  1  0  0  0  0
 17 18  2  0  0  0  0
 19 22  1  0  0  0  0
 19 24  1  0  0  0  0
 20 25  1  1  0  0  0
 20 23  1  0  0  0  0
 21 23  1  0  0  0  0
 21 17  1  1  0  0  0
 22 28  1  6  0  0  0
 22 20  1  0  0  0  0
 24 21  1  0  0  0  0
 25 26  1  0  0  0  0
 27 28  1  0  0  0  0
M  END
>  <MODEL>
4

>  <REMARK>
 VINA RESULT:      -6.7      1.877      3.237
  Name = 
  11 active torsions:
  status: ('A' for Active; 'I' for Inactive)
    1  A    between atoms: P_2  and  C_12
    2  A    between atoms: C_3  and  C_12
    3  A    between atoms: C_5  and  C_6
    4  A    between atoms: O_8  and  C_22
    5  A    between atoms: C_9  and  C_13
    6  A    between atoms: C_11  and  C_26
    7  A    between atoms: C_12  and  C_16
    8  A    between atoms: O_14  and  C_21
    9  A    between atoms: O_14  and  C_23
   10  A    between atoms: C_22  and  C_28
   11  A    between atoms: C_23  and  C_28
                            x       y       z     vdW  Elec       q    Type
                         _______ _______ _______ _____ _____    ______ ____

>  <TORSDO>
F 11

$$$$
=
 OpenBabel11072411143D

 28 29  0  0  1  0  0  0  0  0999 V2000
  161.5880  204.5560  150.7970 C   0  0  1  0  0  3  0  0  0  0  0  0
  161.1350  202.9290  151.4810 P   0  0  0  0  0  0  0  0  0  0  0  0
  160.1860  202.0840  150.3640 O   0  0  0  0  0  0  0  0  0  0  0  0
  160.3550  203.1130  152.7630 O   0  0  0  0  0  1  0  0  0  0  0  0
  162.5390  202.0420  151.8070 O   0  0  0  0  0  1  0  0  0  0  0  0
  160.6930  204.8810  149.6130 C   0  0  2  0  0  3  0  0  0  0  0  0
  160.9830  203.9360  148.4630 C   0  0  0  0  0  2  0  0  0  0  0  0
  161.5540  205.3380  148.4510 C   0  0  1  0  0  3  0  0  0  0  0  0
  160.7870  206.1510  147.6150 O   0  0  0  0  0  0  0  0  0  0  0  0
  161.5310  206.2430  146.4340 C   0  0  0  0  0  2  0  0  0  0  0  0
  160.9590  206.2440  144.1020 O   0  0  0  0  0  1  0  0  0  0  0  0
  160.8300  205.5210  145.2890 C   0  0  1  0  0  3  0  0  0  0  0  0
  162.5890  203.9200  145.2640 O   0  0  0  0  0  0  0  0  0  0  0  0
  161.3560  204.1330  145.1180 C   0  0  0  0  0  0  0  0  0  0  0  0
  160.4880  203.0960  144.7690 O   0  0  0  0  0  0  0  0  0  0  0  0
  160.4730  201.8650  145.4750 C   0  0  0  0  0  1  0  0  0  0  0  0
  161.8140  206.8680  151.6140 C   0  0  0  0  0  3  0  0  0  0  0  0
  161.4220  205.6150  151.8390 C   0  0  0  0  0  3  0  0  0  0  0  0
  160.7880  210.2120  153.1130 C   0  0  0  0  0  2  0  0  0  0  0  0
  160.6080  208.4360  154.8980 C   0  0  2  0  0  3  0  0  0  0  0  0
  161.6380  207.9150  152.6610 C   0  0  2  0  0  3  0  0  0  0  0  0
  159.9750  209.7140  154.3090 C   0  0  1  0  0  3  0  0  0  0  0  0
  160.8150  207.3660  153.8240 C   0  0  0  0  0  2  0  0  0  0  0  0
  160.9290  209.1190  152.0590 C   0  0  0  0  0  2  0  0  0  0  0  0
  159.8050  207.8600  156.0670 C   0  0  0  0  0  2  0  0  0  0  0  0
  160.6890  207.1790  157.1020 C   0  0  0  0  0  1  0  0  0  0  0  0
  161.3350  211.1980  155.7800 C   0  0  0  0  0  1  0  0  0  0  0  0
  159.9310  210.8330  155.3410 C   0  0  0  0  0  2  0  0  0  0  0  0
  1  2  1  0  0  0  0
  1 18  1  1  0  0  0
  2  5  1  0  0  0  0
  2  4  1  0  0  0  0
  3  2  2  0  0  0  0
  6  1  1  1  0  0  0
  7  6  1  0  0  0  0
  8  9  1  6  0  0  0
  8  7  1  0  0  0  0
  8  6  1  0  0  0  0
 10  9  1  0  0  0  0
 12 11  1  6  0  0  0
 12 10  1  0  0  0  0
 14 13  2  0  0  0  0
 14 12  1  0  0  0  0
 15 14  1  0  0  0  0
 15 16  1  0  0  0  0
 17 18  2  0  0  0  0
 19 22  1  0  0  0  0
 20 25  1  1  0  0  0
 21 17  1  6  0  0  0
 21 23  1  0  0  0  0
 22 20  1  0  0  0  0
 22 28  1  1  0  0  0
 23 20  1  0  0  0  0
 24 21  1  0  0  0  0
 24 19  1  0  0  0  0
 25 26  1  0  0  0  0
 28 27  1  0  0  0  0
M  END
>  <MODEL>
5

>  <REMARK>
 VINA RESULT:      -6.4      4.088      7.855
  Name = 
  11 active torsions:
  status: ('A' for Active; 'I' for Inactive)
    1  A    between atoms: P_2  and  C_12
    2  A    between atoms: C_3  and  C_12
    3  A    between atoms: C_5  and  C_6
    4  A    between atoms: O_8  and  C_22
    5  A    between atoms: C_9  and  C_13
    6  A    between atoms: C_11  and  C_26
    7  A    between atoms: C_12  and  C_16
    8  A    between atoms: O_14  and  C_21
    9  A    between atoms: O_14  and  C_23
   10  A    between atoms: C_22  and  C_28
   11  A    between atoms: C_23  and  C_28
                            x       y       z     vdW  Elec       q    Type
                         _______ _______ _______ _____ _____    ______ ____

>  <TORSDO>
F 11

$$$$
=
 OpenBabel11072411143D

 28 29  0  0  1  0  0  0  0  0999 V2000
  162.3250  210.1200  149.7000 C   0  0  1  0  0  3  0  0  0  0  0  0
  162.0060  211.5700  148.6440 P   0  0  0  0  0  0  0  0  0  0  0  0
  161.1940  212.7570  149.5350 O   0  0  0  0  0  1  0  0  0  0  0  0
  161.1570  211.1640  147.4600 O   0  0  0  0  0  0  0  0  0  0  0  0
  163.4750  212.1970  148.0850 O   0  0  0  0  0  1  0  0  0  0  0  0
  161.4980  210.2190  150.9700 C   0  0  2  0  0  3  0  0  0  0  0  0
  162.4030  210.4010  152.1710 C   0  0  0  0  0  2  0  0  0  0  0  0
  161.8200  209.0380  151.8650 C   0  0  1  0  0  3  0  0  0  0  0  0
  160.7290  208.7950  152.7000 O   0  0  0  0  0  0  0  0  0  0  0  0
  161.1980  207.8630  153.6310 C   0  0  0  0  0  2  0  0  0  0  0  0
  160.0720  206.9320  155.5360 O   0  0  0  0  0  1  0  0  0  0  0  0
  160.5940  208.1140  155.0080 C   0  0  1  0  0  3  0  0  0  0  0  0
  161.7690  208.1830  157.0750 O   0  0  0  0  0  0  0  0  0  0  0  0
  161.5960  208.7080  155.9430 C   0  0  0  0  0  0  0  0  0  0  0  0
  162.3070  209.8510  155.5690 O   0  0  0  0  0  0  0  0  0  0  0  0
  162.8580  210.7360  156.5320 C   0  0  0  0  0  1  0  0  0  0  0  0
  161.4440  207.8210  149.6210 C   0  0  0  0  0  3  0  0  0  0  0  0
  161.9570  208.8660  148.9730 C   0  0  0  0  0  3  0  0  0  0  0  0
  161.6320  205.1380  146.9290 C   0  0  0  0  0  2  0  0  0  0  0  0
  160.7950  204.0840  149.0650 C   0  0  2  0  0  3  0  0  0  0  0  0
  161.0760  206.5790  148.8830 C   0  0  2  0  0  3  0  0  0  0  0  0
  161.6820  203.8930  147.8160 C   0  0  1  0  0  3  0  0  0  0  0  0
  161.1500  205.3710  149.8140 C   0  0  0  0  0  2  0  0  0  0  0  0
  162.0320  206.3810  147.7150 C   0  0  0  0  0  2  0  0  0  0  0  0
  160.8480  202.8880  150.0190 C   0  0  0  0  0  2  0  0  0  0  0  0
  161.2050  203.2940  151.4420 C   0  0  0  0  0  1  0  0  0  0  0  0
  161.2020  203.0710  145.5110 C   0  0  0  0  0  1  0  0  0  0  0  0
  161.2120  202.7090  146.9830 C   0  0  0  0  0  2  0  0  0  0  0  0
  1 18  1  6  0  0  0
  2  3  1  0  0  0  0
  2  1  1  0  0  0  0
  4  2  2  0  0  0  0
  5  2  1  0  0  0  0
  6  1  1  6  0  0  0
  6  8  1  0  0  0  0
  6  7  1  0  0  0  0
  8  7  1  0  0  0  0
  8  9  1  1  0  0  0
  9 10  1  0  0  0  0
 10 12  1  0  0  0  0
 12 11  1  1  0  0  0
 12 14  1  0  0  0  0
 14 13  2  0  0  0  0
 15 14  1  0  0  0  0
 15 16  1  0  0  0  0
 18 17  2  0  0  0  0
 19 24  1  0  0  0  0
 19 22  1  0  0  0  0
 20 23  1  0  0  0  0
 20 25  1  1  0  0  0
 21 17  1  1  0  0  0
 21 23  1  0  0  0  0
 22 28  1  6  0  0  0
 22 20  1  0  0  0  0
 24 21  1  0  0  0  0
 25 26  1  0  0  0  0
 27 28  1  0  0  0  0
M  END
>  <MODEL>
6

>  <REMARK>
 VINA RESULT:      -6.2      2.113      5.757
  Name = 
  11 active torsions:
  status: ('A' for Active; 'I' for Inactive)
    1  A    between atoms: P_2  and  C_12
    2  A    between atoms: C_3  and  C_12
    3  A    between atoms: C_5  and  C_6
    4  A    between atoms: O_8  and  C_22
    5  A    between atoms: C_9  and  C_13
    6  A    between atoms: C_11  and  C_26
    7  A    between atoms: C_12  and  C_16
    8  A    between atoms: O_14  and  C_21
    9  A    between atoms: O_14  and  C_23
   10  A    between atoms: C_22  and  C_28
   11  A    between atoms: C_23  and  C_28
                            x       y       z     vdW  Elec       q    Type
                         _______ _______ _______ _____ _____    ______ ____

>  <TORSDO>
F 11

$$$$
=
 OpenBabel11072411143D

 28 29  0  0  1  0  0  0  0  0999 V2000
  161.3350  203.0330  148.9500 C   0  0  1  0  0  3  0  0  0  0  0  0
  160.8240  201.4190  149.6220 P   0  0  0  0  0  0  0  0  0  0  0  0
  159.1460  201.2510  149.4900 O   0  0  0  0  0  1  0  0  0  0  0  0
  161.2240  201.3220  151.0780 O   0  0  0  0  0  1  0  0  0  0  0  0
  161.5820  200.1790  148.7550 O   0  0  0  0  0  0  0  0  0  0  0  0
  160.7670  203.2090  147.5520 C   0  0  2  0  0  3  0  0  0  0  0  0
  160.7000  201.8720  146.8420 C   0  0  0  0  0  2  0  0  0  0  0  0
  161.8270  202.8340  146.5350 C   0  0  1  0  0  3  0  0  0  0  0  0
  161.5620  203.5030  145.3400 O   0  0  0  0  0  0  0  0  0  0  0  0
  162.5600  204.4790  145.2530 C   0  0  0  0  0  2  0  0  0  0  0  0
  161.5820  205.8280  143.5240 O   0  0  0  0  0  1  0  0  0  0  0  0
  161.9710  205.8310  144.8650 C   0  0  1  0  0  3  0  0  0  0  0  0
  159.6550  206.2030  145.2620 O   0  0  0  0  0  0  0  0  0  0  0  0
  160.8200  206.1950  145.7440 C   0  0  0  0  0  0  0  0  0  0  0  0
  161.0440  206.5510  147.0760 O   0  0  0  0  0  0  0  0  0  0  0  0
  162.3300  206.9320  147.5410 C   0  0  0  0  0  1  0  0  0  0  0  0
  161.4700  204.4720  150.9450 C   0  0  0  0  0  3  0  0  0  0  0  0
  160.8300  204.1360  149.8250 C   0  0  0  0  0  3  0  0  0  0  0  0
  161.0040  206.5550  154.0950 C   0  0  0  0  0  2  0  0  0  0  0  0
  160.8310  208.0750  152.0880 C   0  0  2  0  0  3  0  0  0  0  0  0
  160.9580  205.5770  151.8060 C   0  0  2  0  0  3  0  0  0  0  0  0
  161.3440  207.9370  153.5370 C   0  0  1  0  0  3  0  0  0  0  0  0
  161.3320  206.9300  151.2040 C   0  0  0  0  0  2  0  0  0  0  0  0
  161.5600  205.4550  153.1980 C   0  0  0  0  0  2  0  0  0  0  0  0
  161.1910  209.4230  151.4560 C   0  0  0  0  0  2  0  0  0  0  0  0
  162.3310  209.3110  150.4540 C   0  0  0  0  0  1  0  0  0  0  0  0
  159.9360  208.2980  155.5630 C   0  0  0  0  0  1  0  0  0  0  0  0
  160.7060  208.9770  154.4470 C   0  0  0  0  0  2  0  0  0  0  0  0
  1  2  1  0  0  0  0
  1 18  1  1  0  0  0
  2  4  1  0  0  0  0
  3  2  1  0  0  0  0
  5  2  2  0  0  0  0
  6  1  1  1  0  0  0
  7  6  1  0  0  0  0
  8  9  1  6  0  0  0
  8  7  1  0  0  0  0
  8  6  1  0  0  0  0
 10  9  1  0  0  0  0
 12 11  1  6  0  0  0
 12 10  1  0  0  0  0
 12 14  1  0  0  0  0
 13 14  2  0  0  0  0
 14 15  1  0  0  0  0
 15 16  1  0  0  0  0
 18 17  2  0  0  0  0
 20 25  1  6  0  0  0
 20 22  1  0  0  0  0
 21 17  1  6  0  0  0
 21 24  1  0  0  0  0
 22 19  1  0  0  0  0
 22 28  1  1  0  0  0
 23 21  1  0  0  0  0
 23 20  1  0  0  0  0
 24 19  1  0  0  0  0
 26 25  1  0  0  0  0
 28 27  1  0  0  0  0
M  END
>  <MODEL>
7

>  <REMARK>
 VINA RESULT:      -6.2      4.347      7.359
  Name = 
  11 active torsions:
  status: ('A' for Active; 'I' for Inactive)
    1  A    between atoms: P_2  and  C_12
    2  A    between atoms: C_3  and  C_12
    3  A    between atoms: C_5  and  C_6
    4  A    between atoms: O_8  and  C_22
    5  A    between atoms: C_9  and  C_13
    6  A    between atoms: C_11  and  C_26
    7  A    between atoms: C_12  and  C_16
    8  A    between atoms: O_14  and  C_21
    9  A    between atoms: O_14  and  C_23
   10  A    between atoms: C_22  and  C_28
   11  A    between atoms: C_23  and  C_28
                            x       y       z     vdW  Elec       q    Type
                         _______ _______ _______ _____ _____    ______ ____

>  <TORSDO>
F 11

$$$$
=
 OpenBabel11072411143D

 28 29  0  0  1  0  0  0  0  0999 V2000
  162.0930  210.2210  150.6200 C   0  0  1  0  0  3  0  0  0  0  0  0
  161.8490  211.3050  149.1760 P   0  0  0  0  0  0  0  0  0  0  0  0
  160.8290  212.5880  149.5910 O   0  0  0  0  0  1  0  0  0  0  0  0
  161.2280  210.5170  148.0450 O   0  0  0  0  0  0  0  0  0  0  0  0
  163.3430  211.9180  148.6700 O   0  0  0  0  0  1  0  0  0  0  0  0
  160.8520  210.2470  151.4950 C   0  0  2  0  0  3  0  0  0  0  0  0
  160.8220  211.5170  152.3220 C   0  0  0  0  0  2  0  0  0  0  0  0
  161.2710  210.2160  152.9530 C   0  0  1  0  0  3  0  0  0  0  0  0
  160.2320  209.6760  153.7100 O   0  0  0  0  0  0  0  0  0  0  0  0
  160.6040  209.9080  155.0370 C   0  0  0  0  0  2  0  0  0  0  0  0
  162.0820  209.1330  156.7640 O   0  0  0  0  0  1  0  0  0  0  0  0
  161.4490  208.7590  155.5770 C   0  0  1  0  0  3  0  0  0  0  0  0
  160.0610  207.3500  156.8980 O   0  0  0  0  0  0  0  0  0  0  0  0
  160.6260  207.5310  155.7860 C   0  0  0  0  0  0  0  0  0  0  0  0
  160.5140  206.5830  154.7660 O   0  0  0  0  0  0  0  0  0  0  0  0
  161.5340  206.4060  153.7950 C   0  0  0  0  0  1  0  0  0  0  0  0
  161.4200  207.8710  150.3240 C   0  0  0  0  0  3  0  0  0  0  0  0
  162.3450  208.8170  150.1710 C   0  0  0  0  0  3  0  0  0  0  0  0
  161.0550  204.0860  150.1760 C   0  0  0  0  0  2  0  0  0  0  0  0
  161.6860  204.9270  147.8820 C   0  0  2  0  0  3  0  0  0  0  0  0
  161.6820  206.4750  149.8670 C   0  0  2  0  0  3  0  0  0  0  0  0
  160.8360  203.9110  148.6730 C   0  0  1  0  0  3  0  0  0  0  0  0
  161.4410  206.3590  148.3630 C   0  0  0  0  0  2  0  0  0  0  0  0
  160.7600  205.5180  150.6060 C   0  0  0  0  0  2  0  0  0  0  0  0
  161.4660  204.8360  146.3700 C   0  0  0  0  0  2  0  0  0  0  0  0
  162.7080  204.3640  145.6280 C   0  0  0  0  0  1  0  0  0  0  0  0
  160.2880  201.5020  149.0120 C   0  0  0  0  0  1  0  0  0  0  0  0
  161.2100  202.4800  148.3110 C   0  0  0  0  0  2  0  0  0  0  0  0
  1 18  1  6  0  0  0
  2  3  1  0  0  0  0
  2  1  1  0  0  0  0
  4  2  2  0  0  0  0
  5  2  1  0  0  0  0
  6  1  1  6  0  0  0
  6  7  1  0  0  0  0
  6  8  1  0  0  0  0
  7  8  1  0  0  0  0
  8  9  1  1  0  0  0
  9 10  1  0  0  0  0
 10 12  1  0  0  0  0
 12 14  1  0  0  0  0
 12 11  1  1  0  0  0
 14 13  2  0  0  0  0
 15 14  1  0  0  0  0
 16 15  1  0  0  0  0
 18 17  2  0  0  0  0
 19 24  1  0  0  0  0
 20 25  1  6  0  0  0
 20 23  1  0  0  0  0
 20 22  1  0  0  0  0
 21 17  1  1  0  0  0
 21 24  1  0  0  0  0
 22 28  1  6  0  0  0
 22 19  1  0  0  0  0
 23 21  1  0  0  0  0
 26 25  1  0  0  0  0
 28 27  1  0  0  0  0
M  END
>  <MODEL>
8

>  <REMARK>
 VINA RESULT:      -6.1      1.988      5.413
  Name = 
  11 active torsions:
  status: ('A' for Active; 'I' for Inactive)
    1  A    between atoms: P_2  and  C_12
    2  A    between atoms: C_3  and  C_12
    3  A    between atoms: C_5  and  C_6
    4  A    between atoms: O_8  and  C_22
    5  A    between atoms: C_9  and  C_13
    6  A    between atoms: C_11  and  C_26
    7  A    between atoms: C_12  and  C_16
    8  A    between atoms: O_14  and  C_21
    9  A    between atoms: O_14  and  C_23
   10  A    between atoms: C_22  and  C_28
   11  A    between atoms: C_23  and  C_28
                            x       y       z     vdW  Elec       q    Type
                         _______ _______ _______ _____ _____    ______ ____

>  <TORSDO>
F 11

$$$$
=
 OpenBabel11072411143D

 28 29  0  0  1  0  0  0  0  0999 V2000
  161.8290  212.2380  149.3600 C   0  0  1  0  0  3  0  0  0  0  0  0
  162.4500  212.8980  147.7790 P   0  0  0  0  0  0  0  0  0  0  0  0
  163.8620  212.0790  147.3340 O   0  0  0  0  0  1  0  0  0  0  0  0
  162.7510  214.3730  147.9230 O   0  0  0  0  0  1  0  0  0  0  0  0
  161.2780  212.6850  146.5780 O   0  0  0  0  0  0  0  0  0  0  0  0
  160.3720  212.6280  149.5410 C   0  0  2  0  0  3  0  0  0  0  0  0
  160.2420  214.1340  149.6390 C   0  0  0  0  0  2  0  0  0  0  0  0
  160.1990  213.2890  150.8940 C   0  0  1  0  0  3  0  0  0  0  0  0
  158.8770  213.1280  151.3090 O   0  0  0  0  0  0  0  0  0  0  0  0
  158.8910  213.4590  152.6680 C   0  0  0  0  0  2  0  0  0  0  0  0
  158.5750  211.0800  152.7460 O   0  0  0  0  0  1  0  0  0  0  0  0
  158.7930  212.2100  153.5360 C   0  0  1  0  0  3  0  0  0  0  0  0
  160.0900  212.6300  155.4850 O   0  0  0  0  0  0  0  0  0  0  0  0
  160.0140  212.0340  154.3770 C   0  0  0  0  0  0  0  0  0  0  0  0
  161.0690  211.2410  153.9190 O   0  0  0  0  0  0  0  0  0  0  0  0
  161.7300  210.3140  154.7670 C   0  0  0  0  0  1  0  0  0  0  0  0
  161.9540  210.0690  150.5200 C   0  0  0  0  0  3  0  0  0  0  0  0
  161.9420  210.7480  149.3730 C   0  0  0  0  0  3  0  0  0  0  0  0
  161.3870  206.4960  151.6990 C   0  0  0  0  0  2  0  0  0  0  0  0
  161.6320  206.4890  149.1870 C   0  0  2  0  0  3  0  0  0  0  0  0
  162.0620  208.5820  150.5180 C   0  0  2  0  0  3  0  0  0  0  0  0
  160.8910  205.8740  150.3930 C   0  0  1  0  0  3  0  0  0  0  0  0
  161.5470  208.0170  149.1960 C   0  0  0  0  0  2  0  0  0  0  0  0
  161.2430  208.0130  151.6670 C   0  0  0  0  0  2  0  0  0  0  0  0
  161.1380  205.9430  147.8450 C   0  0  0  0  0  2  0  0  0  0  0  0
  162.2610  205.7930  146.8280 C   0  0  0  0  0  1  0  0  0  0  0  0
  160.8700  203.8760  151.8840 C   0  0  0  0  0  1  0  0  0  0  0  0
  161.1240  204.3720  150.4740 C   0  0  0  0  0  2  0  0  0  0  0  0
  1 18  1  6  0  0  0
  2  4  1  0  0  0  0
  2  1  1  0  0  0  0
  3  2  1  0  0  0  0
  5  2  2  0  0  0  0
  6  1  1  1  0  0  0
  6  7  1  0  0  0  0
  6  8  1  0  0  0  0
  7  8  1  0  0  0  0
  8  9  1  6  0  0  0
  9 10  1  0  0  0  0
 10 12  1  0  0  0  0
 12 11  1  6  0  0  0
 12 14  1  0  0  0  0
 14 13  2  0  0  0  0
 15 14  1  0  0  0  0
 15 16  1  0  0  0  0
 18 17  2  0  0  0  0
 20 25  1  6  0  0  0
 20 23  1  0  0  0  0
 20 22  1  0  0  0  0
 21 17  1  6  0  0  0
 21 24  1  0  0  0  0
 22 28  1  1  0  0  0
 22 19  1  0  0  0  0
 23 21  1  0  0  0  0
 24 19  1  0  0  0  0
 26 25  1  0  0  0  0
 28 27  1  0  0  0  0
M  END
>  <MODEL>
9

>  <REMARK>
 VINA RESULT:      -6.1      2.595      5.576
  Name = 
  11 active torsions:
  status: ('A' for Active; 'I' for Inactive)
    1  A    between atoms: P_2  and  C_12
    2  A    between atoms: C_3  and  C_12
    3  A    between atoms: C_5  and  C_6
    4  A    between atoms: O_8  and  C_22
    5  A    between atoms: C_9  and  C_13
    6  A    between atoms: C_11  and  C_26
    7  A    between atoms: C_12  and  C_16
    8  A    between atoms: O_14  and  C_21
    9  A    between atoms: O_14  and  C_23
   10  A    between atoms: C_22  and  C_28
   11  A    between atoms: C_23  and  C_28
                            x       y       z     vdW  Elec       q    Type
                         _______ _______ _______ _____ _____    ______ ____

>  <TORSDO>
F 11

$$$$
