=
 OpenBabel11072412213D

 27 30  0  0  1  0  0  0  0  0999 V2000
  161.3120  205.4180  148.1270 N   0  0  0  0  0  0  0  0  0  0  0  0
  160.9720  202.7530  148.5200 N   0  0  0  0  0  0  0  0  0  0  0  0
  160.8260  202.3580  149.8490 C   0  0  0  0  0  0  0  0  0  0  0  0
  160.8530  203.3130  150.9840 C   0  0  0  0  0  0  0  0  0  0  0  0
  160.6350  200.9100  150.1350 C   0  0  0  0  0  1  0  0  0  0  0  0
  160.7000  202.8230  152.2410 F   0  0  0  0  0  0  0  0  0  0  0  0
  161.1640  205.0100  149.4630 C   0  0  0  0  0  0  0  0  0  0  0  0
  161.1320  204.0700  148.4670 C   0  0  0  0  0  0  0  0  0  0  0  0
  161.0320  204.7450  150.7920 C   0  0  0  0  0  0  0  0  0  0  0  0
  161.0170  208.1200  152.5260 C   0  0  0  0  0  0  0  0  0  0  0  0
  161.1350  210.1520  154.5220 N   0  0  0  0  0  0  0  0  0  0  0  0
  161.0650  205.7800  151.8490 C   0  0  0  0  0  0  0  0  0  0  0  0
  161.1850  205.4070  153.1960 C   0  0  0  0  0  3  0  0  0  0  0  0
  161.1370  207.7340  153.8710 C   0  0  0  0  0  0  0  0  0  0  0  0
  160.9010  209.5670  152.1320 C   0  0  0  0  0  2  0  0  0  0  0  0
  161.2220  206.3760  154.2020 C   0  0  0  0  0  3  0  0  0  0  0  0
  161.1820  208.7750  154.9050 C   0  0  0  0  0  0  0  0  0  0  0  0
  161.2700  208.4700  156.1250 O   0  0  0  0  0  0  0  0  0  0  0  0
  161.0180  210.5330  153.2850 C   0  0  0  0  0  3  0  0  0  0  0  0
  160.9790  207.1430  151.5270 C   0  0  0  0  0  3  0  0  0  0  0  0
  162.4060  207.3790  147.5470 O   0  0  0  0  0  1  0  0  0  0  0  0
  161.4340  206.4670  147.1300 C   0  0  1  0  0  3  0  0  0  0  0  0
  161.8130  205.8730  145.7670 C   0  0  1  0  0  3  0  0  0  0  0  0
  163.8190  204.6640  146.1150 O   0  0  0  0  0  0  0  0  0  0  0  0
  162.6170  204.6160  145.9140 C   0  0  0  0  0  3  0  0  0  0  0  0
  160.5770  205.5920  144.9150 C   0  0  0  0  0  2  0  0  0  0  0  0
  160.5350  204.2540  144.5160 O   0  0  0  0  0  1  0  0  0  0  0  0
  1  8  1  0  0  0  0
  1  7  1  0  0  0  0
  2  3  1  0  0  0  0
  3  5  1  0  0  0  0
  3  4  2  0  0  0  0
  4  6  1  0  0  0  0
  7  9  2  0  0  0  0
  8  2  2  0  0  0  0
  8  7  1  0  0  0  0
  9  4  1  0  0  0  0
  9 12  1  0  0  0  0
 10 14  1  0  0  0  0
 11 17  1  0  0  0  0
 12 13  2  0  0  0  0
 13 16  1  0  0  0  0
 14 16  2  0  0  0  0
 14 17  1  0  0  0  0
 15 10  1  0  0  0  0
 15 19  1  0  0  0  0
 17 18  2  0  0  0  0
 19 11  2  0  0  0  0
 20 12  1  0  0  0  0
 20 10  2  0  0  0  0
 22 21  1  1  0  0  0
 22  1  1  0  0  0  0
 23 26  1  1  0  0  0
 23 25  1  0  0  0  0
 23 22  1  0  0  0  0
 25 24  2  0  0  0  0
 27 26  1  0  0  0  0
M  END
>  <MODEL>
1

>  <REMARK>
 VINA RESULT:     -10.2      0.000      0.000
  Name = 
  5 active torsions:
  status: ('A' for Active; 'I' for Inactive)
    1  A    between atoms: N_1  and  C_19
    2  A    between atoms: C_3  and  C_14
    3  A    between atoms: C_3  and  C_19
    4  A    between atoms: C_3  and  C_24
    5  A    between atoms: C_7  and  C_27
                            x       y       z     vdW  Elec       q    Type
                         _______ _______ _______ _____ _____    ______ ____

>  <TORSDO>
F 5

$$$$
=
 OpenBabel11072412213D

 27 30  0  0  1  0  0  0  0  0999 V2000
  161.2430  205.6160  148.1610 N   0  0  0  0  0  0  0  0  0  0  0  0
  160.9420  202.9990  148.8220 N   0  0  0  0  0  0  0  0  0  0  0  0
  160.8100  202.7390  150.1860 C   0  0  0  0  0  0  0  0  0  0  0  0
  160.8310  203.8030  151.2190 C   0  0  0  0  0  0  0  0  0  0  0  0
  160.6400  201.3240  150.6170 C   0  0  0  0  0  1  0  0  0  0  0  0
  160.6930  203.4400  152.5200 F   0  0  0  0  0  0  0  0  0  0  0  0
  161.1100  205.3420  149.5330 C   0  0  0  0  0  0  0  0  0  0  0  0
  161.0840  204.3070  148.6360 C   0  0  0  0  0  0  0  0  0  0  0  0
  160.9900  205.2100  150.8820 C   0  0  0  0  0  0  0  0  0  0  0  0
  160.8450  207.2220  154.0970 C   0  0  0  0  0  0  0  0  0  0  0  0
  160.8310  209.3880  155.9500 N   0  0  0  0  0  0  0  0  0  0  0  0
  161.0160  206.3470  151.8290 C   0  0  0  0  0  0  0  0  0  0  0  0
  161.2340  207.6510  151.3570 C   0  0  0  0  0  3  0  0  0  0  0  0
  161.0640  208.5230  153.6120 C   0  0  0  0  0  0  0  0  0  0  0  0
  160.6550  206.9530  155.5640 C   0  0  0  0  0  2  0  0  0  0  0  0
  161.2580  208.7330  152.2410 C   0  0  0  0  0  3  0  0  0  0  0  0
  161.0750  209.6410  154.5640 C   0  0  0  0  0  0  0  0  0  0  0  0
  161.2870  210.8190  154.1730 O   0  0  0  0  0  0  0  0  0  0  0  0
  160.6310  208.1940  156.4220 C   0  0  0  0  0  3  0  0  0  0  0  0
  160.8260  206.1460  153.2050 C   0  0  0  0  0  3  0  0  0  0  0  0
  162.2390  207.5740  147.4170 O   0  0  0  0  0  1  0  0  0  0  0  0
  161.3450  206.5610  147.0630 C   0  0  1  0  0  3  0  0  0  0  0  0
  161.8210  205.8550  145.7870 C   0  0  1  0  0  3  0  0  0  0  0  0
  163.8240  204.6320  146.1090 O   0  0  0  0  0  0  0  0  0  0  0  0
  162.6040  204.6140  146.0990 C   0  0  0  0  0  3  0  0  0  0  0  0
  160.6510  205.5030  144.8710 C   0  0  0  0  0  2  0  0  0  0  0  0
  160.6330  204.1360  144.5820 O   0  0  0  0  0  1  0  0  0  0  0  0
  1  8  1  0  0  0  0
  1  7  1  0  0  0  0
  2  3  1  0  0  0  0
  3  5  1  0  0  0  0
  3  4  2  0  0  0  0
  4  6  1  0  0  0  0
  7  9  2  0  0  0  0
  8  2  2  0  0  0  0
  8  7  1  0  0  0  0
  9  4  1  0  0  0  0
  9 12  1  0  0  0  0
 10 15  1  0  0  0  0
 11 19  2  0  0  0  0
 12 20  1  0  0  0  0
 13 12  2  0  0  0  0
 13 16  1  0  0  0  0
 14 10  1  0  0  0  0
 14 17  1  0  0  0  0
 15 19  1  0  0  0  0
 16 14  2  0  0  0  0
 17 11  1  0  0  0  0
 18 17  2  0  0  0  0
 20 10  2  0  0  0  0
 22 21  1  1  0  0  0
 22  1  1  0  0  0  0
 23 26  1  6  0  0  0
 23 25  1  0  0  0  0
 23 22  1  0  0  0  0
 25 24  2  0  0  0  0
 27 26  1  0  0  0  0
M  END
>  <MODEL>
2

>  <REMARK>
 VINA RESULT:      -9.6      0.934      1.670
  Name = 
  5 active torsions:
  status: ('A' for Active; 'I' for Inactive)
    1  A    between atoms: N_1  and  C_19
    2  A    between atoms: C_3  and  C_14
    3  A    between atoms: C_3  and  C_19
    4  A    between atoms: C_3  and  C_24
    5  A    between atoms: C_7  and  C_27
                            x       y       z     vdW  Elec       q    Type
                         _______ _______ _______ _____ _____    ______ ____

>  <TORSDO>
F 5

$$$$
=
 OpenBabel11072412213D

 27 30  0  0  1  0  0  0  0  0999 V2000
  161.1230  208.0740  152.7050 N   0  0  0  0  0  0  0  0  0  0  0  0
  161.7540  210.1850  151.1180 N   0  0  0  0  0  0  0  0  0  0  0  0
  161.9400  209.8840  149.7690 C   0  0  0  0  0  0  0  0  0  0  0  0
  161.8070  208.5130  149.2210 C   0  0  0  0  0  0  0  0  0  0  0  0
  162.2870  210.9970  148.8430 C   0  0  0  0  0  1  0  0  0  0  0  0
  162.0090  208.3300  147.8900 F   0  0  0  0  0  0  0  0  0  0  0  0
  161.3130  207.7820  151.3440 C   0  0  0  0  0  0  0  0  0  0  0  0
  161.4550  209.0730  151.7800 C   0  0  0  0  0  0  0  0  0  0  0  0
  161.4680  207.3700  150.0560 C   0  0  0  0  0  0  0  0  0  0  0  0
  161.2780  204.2960  147.8400 C   0  0  0  0  0  0  0  0  0  0  0  0
  160.9140  201.6190  146.9290 N   0  0  0  0  0  0  0  0  0  0  0  0
  161.3050  205.9680  149.6110 C   0  0  0  0  0  0  0  0  0  0  0  0
  161.0100  204.9640  150.5460 C   0  0  0  0  0  3  0  0  0  0  0  0
  160.9830  203.2990  148.7850 C   0  0  0  0  0  0  0  0  0  0  0  0
  161.4510  203.9690  146.3820 C   0  0  0  0  0  2  0  0  0  0  0  0
  160.8490  203.6370  150.1370 C   0  0  0  0  0  3  0  0  0  0  0  0
  160.8110  201.9150  148.3250 C   0  0  0  0  0  0  0  0  0  0  0  0
  160.5650  200.9890  149.1420 O   0  0  0  0  0  0  0  0  0  0  0  0
  161.1910  202.5230  146.0380 C   0  0  0  0  0  3  0  0  0  0  0  0
  161.4390  205.6190  148.2590 C   0  0  0  0  0  3  0  0  0  0  0  0
  161.3720  206.4560  154.3490 O   0  0  0  0  0  1  0  0  0  0  0  0
  160.7430  207.6660  154.0470 C   0  0  1  0  0  3  0  0  0  0  0  0
  161.1390  208.7400  155.0680 C   0  0  1  0  0  3  0  0  0  0  0  0
  159.8930  210.7090  154.6470 O   0  0  0  0  0  0  0  0  0  0  0  0
  160.0180  209.7020  155.3240 C   0  0  0  0  0  3  0  0  0  0  0  0
  161.5900  208.1190  156.3880 C   0  0  0  0  0  2  0  0  0  0  0  0
  162.4410  208.9810  157.0850 O   0  0  0  0  0  1  0  0  0  0  0  0
  1 22  1  0  0  0  0
  2  8  1  0  0  0  0
  3  2  2  0  0  0  0
  4  3  1  0  0  0  0
  4  9  2  0  0  0  0
  5  3  1  0  0  0  0
  6  4  1  0  0  0  0
  7  8  2  0  0  0  0
  7  1  1  0  0  0  0
  8  1  1  0  0  0  0
  9  7  1  0  0  0  0
 10 20  2  0  0  0  0
 10 14  1  0  0  0  0
 11 17  1  0  0  0  0
 12  9  1  0  0  0  0
 12 13  2  0  0  0  0
 14 16  2  0  0  0  0
 15 10  1  0  0  0  0
 16 13  1  0  0  0  0
 17 14  1  0  0  0  0
 17 18  2  0  0  0  0
 19 15  1  0  0  0  0
 19 11  2  0  0  0  0
 20 12  1  0  0  0  0
 22 21  1  1  0  0  0
 22 23  1  0  0  0  0
 23 25  1  1  0  0  0
 23 26  1  0  0  0  0
 24 25  2  0  0  0  0
 26 27  1  0  0  0  0
M  END
>  <MODEL>
3

>  <REMARK>
 VINA RESULT:      -9.6      2.938      8.150
  Name = 
  5 active torsions:
  status: ('A' for Active; 'I' for Inactive)
    1  A    between atoms: N_1  and  C_19
    2  A    between atoms: C_3  and  C_14
    3  A    between atoms: C_3  and  C_19
    4  A    between atoms: C_3  and  C_24
    5  A    between atoms: C_7  and  C_27
                            x       y       z     vdW  Elec       q    Type
                         _______ _______ _______ _____ _____    ______ ____

>  <TORSDO>
F 5

$$$$
=
 OpenBabel11072412213D

 27 30  0  0  1  0  0  0  0  0999 V2000
  161.1560  208.1120  152.6750 N   0  0  0  0  0  0  0  0  0  0  0  0
  161.7380  210.3080  151.1870 N   0  0  0  0  0  0  0  0  0  0  0  0
  161.9300  210.0730  149.8260 C   0  0  0  0  0  0  0  0  0  0  0  0
  161.8280  208.7260  149.2140 C   0  0  0  0  0  0  0  0  0  0  0  0
  162.2510  211.2350  148.9520 C   0  0  0  0  0  1  0  0  0  0  0  0
  162.0320  208.6090  147.8770 F   0  0  0  0  0  0  0  0  0  0  0  0
  161.3510  207.8880  151.3020 C   0  0  0  0  0  0  0  0  0  0  0  0
  161.4640  209.1600  151.7970 C   0  0  0  0  0  0  0  0  0  0  0  0
  161.5150  207.5390  149.9960 C   0  0  0  0  0  0  0  0  0  0  0  0
  161.0680  203.7720  149.8830 C   0  0  0  0  0  0  0  0  0  0  0  0
  160.8650  201.0850  148.9530 N   0  0  0  0  0  0  0  0  0  0  0  0
  161.3820  206.1560  149.4870 C   0  0  0  0  0  0  0  0  0  0  0  0
  161.4510  205.9040  148.1080 C   0  0  0  0  0  3  0  0  0  0  0  0
  161.1390  203.5330  148.5000 C   0  0  0  0  0  0  0  0  0  0  0  0
  160.8410  202.6540  150.8620 C   0  0  0  0  0  2  0  0  0  0  0  0
  161.3300  204.6020  147.6160 C   0  0  0  0  0  3  0  0  0  0  0  0
  161.0180  202.1530  148.0130 C   0  0  0  0  0  0  0  0  0  0  0  0
  161.0560  201.8980  146.7800 O   0  0  0  0  0  0  0  0  0  0  0  0
  160.7920  201.2830  150.2350 C   0  0  0  0  0  3  0  0  0  0  0  0
  161.1870  205.0790  150.3650 C   0  0  0  0  0  3  0  0  0  0  0  0
  161.4770  206.4510  154.2600 O   0  0  0  0  0  1  0  0  0  0  0  0
  160.7860  207.6350  153.9960 C   0  0  1  0  0  3  0  0  0  0  0  0
  161.1130  208.6900  155.0610 C   0  0  1  0  0  3  0  0  0  0  0  0
  159.8830  210.7070  154.9000 O   0  0  0  0  0  0  0  0  0  0  0  0
  159.9350  209.5730  155.3460 C   0  0  0  0  0  3  0  0  0  0  0  0
  161.5950  208.0460  156.3590 C   0  0  0  0  0  2  0  0  0  0  0  0
  162.4070  208.9220  157.0840 O   0  0  0  0  0  1  0  0  0  0  0  0
  1 22  1  0  0  0  0
  2  8  1  0  0  0  0
  3  2  2  0  0  0  0
  4  3  1  0  0  0  0
  4  9  2  0  0  0  0
  5  3  1  0  0  0  0
  6  4  1  0  0  0  0
  7  8  2  0  0  0  0
  7  1  1  0  0  0  0
  8  1  1  0  0  0  0
  9  7  1  0  0  0  0
 10 20  1  0  0  0  0
 10 15  1  0  0  0  0
 11 19  2  0  0  0  0
 12  9  1  0  0  0  0
 12 20  2  0  0  0  0
 13 12  1  0  0  0  0
 14 10  2  0  0  0  0
 16 13  2  0  0  0  0
 16 14  1  0  0  0  0
 17 14  1  0  0  0  0
 17 11  1  0  0  0  0
 18 17  2  0  0  0  0
 19 15  1  0  0  0  0
 22 21  1  1  0  0  0
 22 23  1  0  0  0  0
 23 25  1  1  0  0  0
 23 26  1  0  0  0  0
 24 25  2  0  0  0  0
 26 27  1  0  0  0  0
M  END
>  <MODEL>
4

>  <REMARK>
 VINA RESULT:      -9.5      2.631      8.181
  Name = 
  5 active torsions:
  status: ('A' for Active; 'I' for Inactive)
    1  A    between atoms: N_1  and  C_19
    2  A    between atoms: C_3  and  C_14
    3  A    between atoms: C_3  and  C_19
    4  A    between atoms: C_3  and  C_24
    5  A    between atoms: C_7  and  C_27
                            x       y       z     vdW  Elec       q    Type
                         _______ _______ _______ _____ _____    ______ ____

>  <TORSDO>
F 5

$$$$
=
 OpenBabel11072412213D

 27 30  0  0  1  0  0  0  0  0999 V2000
  161.9810  204.4360  147.2920 N   0  0  0  0  0  0  0  0  0  0  0  0
  161.2370  201.9970  148.2270 N   0  0  0  0  0  0  0  0  0  0  0  0
  160.8330  201.9670  149.5610 C   0  0  0  0  0  0  0  0  0  0  0  0
  160.8050  203.1710  150.4260 C   0  0  0  0  0  0  0  0  0  0  0  0
  160.4100  200.6610  150.1360 C   0  0  0  0  0  1  0  0  0  0  0  0
  160.3930  203.0300  151.7120 F   0  0  0  0  0  0  0  0  0  0  0  0
  161.5730  204.3930  148.6360 C   0  0  0  0  0  0  0  0  0  0  0  0
  161.5750  203.2390  147.8980 C   0  0  0  0  0  0  0  0  0  0  0  0
  161.1990  204.4860  149.9420 C   0  0  0  0  0  0  0  0  0  0  0  0
  161.1930  206.9280  152.8450 C   0  0  0  0  0  0  0  0  0  0  0  0
  161.1400  209.3330  154.3760 N   0  0  0  0  0  0  0  0  0  0  0  0
  161.2010  205.7480  150.7150 C   0  0  0  0  0  0  0  0  0  0  0  0
  161.2090  206.9820  150.0460 C   0  0  0  0  0  3  0  0  0  0  0  0
  161.2000  208.1570  152.1650 C   0  0  0  0  0  0  0  0  0  0  0  0
  161.2070  206.8630  154.3480 C   0  0  0  0  0  2  0  0  0  0  0  0
  161.2070  208.1800  150.7660 C   0  0  0  0  0  3  0  0  0  0  0  0
  161.1900  209.4000  152.9480 C   0  0  0  0  0  0  0  0  0  0  0  0
  161.2150  210.5230  152.3770 O   0  0  0  0  0  0  0  0  0  0  0  0
  161.1380  208.2090  155.0270 C   0  0  0  0  0  3  0  0  0  0  0  0
  161.1970  205.7350  152.1170 C   0  0  0  0  0  3  0  0  0  0  0  0
  163.6020  204.6600  145.6490 O   0  0  0  0  0  1  0  0  0  0  0  0
  162.3960  205.1840  146.1180 C   0  0  1  0  0  3  0  0  0  0  0  0
  161.3220  205.1080  145.0240 C   0  0  1  0  0  3  0  0  0  0  0  0
  159.6940  203.4900  144.4440 O   0  0  0  0  0  0  0  0  0  0  0  0
  160.8330  203.7050  144.8250 C   0  0  0  0  0  3  0  0  0  0  0  0
  160.1390  206.0220  145.3360 C   0  0  0  0  0  2  0  0  0  0  0  0
  160.4570  206.9260  146.3540 O   0  0  0  0  0  1  0  0  0  0  0  0
  1  8  1  0  0  0  0
  1  7  1  0  0  0  0
  2  3  1  0  0  0  0
  3  5  1  0  0  0  0
  3  4  2  0  0  0  0
  4  6  1  0  0  0  0
  7  9  2  0  0  0  0
  8  2  2  0  0  0  0
  8  7  1  0  0  0  0
  9  4  1  0  0  0  0
  9 12  1  0  0  0  0
 10 15  1  0  0  0  0
 11 19  2  0  0  0  0
 12 20  1  0  0  0  0
 13 12  2  0  0  0  0
 13 16  1  0  0  0  0
 14 10  1  0  0  0  0
 14 17  1  0  0  0  0
 15 19  1  0  0  0  0
 16 14  2  0  0  0  0
 17 11  1  0  0  0  0
 18 17  2  0  0  0  0
 20 10  2  0  0  0  0
 22 21  1  6  0  0  0
 22  1  1  0  0  0  0
 23 25  1  1  0  0  0
 23 26  1  0  0  0  0
 23 22  1  0  0  0  0
 24 25  2  0  0  0  0
 26 27  1  0  0  0  0
M  END
>  <MODEL>
5

>  <REMARK>
 VINA RESULT:      -9.5      1.299      2.292
  Name = 
  5 active torsions:
  status: ('A' for Active; 'I' for Inactive)
    1  A    between atoms: N_1  and  C_19
    2  A    between atoms: C_3  and  C_14
    3  A    between atoms: C_3  and  C_19
    4  A    between atoms: C_3  and  C_24
    5  A    between atoms: C_7  and  C_27
                            x       y       z     vdW  Elec       q    Type
                         _______ _______ _______ _____ _____    ______ ____

>  <TORSDO>
F 5

$$$$
=
 OpenBabel11072412213D

 27 30  0  0  1  0  0  0  0  0999 V2000
  161.9560  209.6850  150.2680 N   0  0  0  0  0  0  0  0  0  0  0  0
  161.5330  210.2910  152.8810 N   0  0  0  0  0  0  0  0  0  0  0  0
  161.1850  209.2140  153.6950 C   0  0  0  0  0  0  0  0  0  0  0  0
  161.0500  207.8270  153.1880 C   0  0  0  0  0  0  0  0  0  0  0  0
  160.9410  209.4760  155.1400 C   0  0  0  0  0  1  0  0  0  0  0  0
  160.7080  206.8510  154.0680 F   0  0  0  0  0  0  0  0  0  0  0  0
  161.6050  208.6080  151.0970 C   0  0  0  0  0  0  0  0  0  0  0  0
  161.7090  209.8630  151.6360 C   0  0  0  0  0  0  0  0  0  0  0  0
  161.2750  207.4840  151.7920 C   0  0  0  0  0  0  0  0  0  0  0  0
  161.2180  204.6840  149.2310 C   0  0  0  0  0  0  0  0  0  0  0  0
  160.9750  202.1180  148.0120 N   0  0  0  0  0  0  0  0  0  0  0  0
  161.1740  206.1370  151.1860 C   0  0  0  0  0  0  0  0  0  0  0  0
  160.9320  205.0180  151.9960 C   0  0  0  0  0  3  0  0  0  0  0  0
  160.9740  203.5710  150.0520 C   0  0  0  0  0  0  0  0  0  0  0  0
  161.3990  204.5390  147.7450 C   0  0  0  0  0  2  0  0  0  0  0  0
  160.8310  203.7420  151.4340 C   0  0  0  0  0  3  0  0  0  0  0  0
  160.8650  202.2440  149.4330 C   0  0  0  0  0  0  0  0  0  0  0  0
  160.6670  201.2180  150.1360 O   0  0  0  0  0  0  0  0  0  0  0  0
  161.2060  203.1320  147.2330 C   0  0  0  0  0  3  0  0  0  0  0  0
  161.3190  205.9560  149.8020 C   0  0  0  0  0  3  0  0  0  0  0  0
  161.5680  209.6650  147.9810 O   0  0  0  0  0  1  0  0  0  0  0  0
  162.3810  210.2060  148.9800 C   0  0  1  0  0  3  0  0  0  0  0  0
  162.2960  211.7380  148.9640 C   0  0  1  0  0  3  0  0  0  0  0  0
  162.6750  213.0630  147.0390 O   0  0  0  0  0  0  0  0  0  0  0  0
  163.1550  212.3300  147.8870 C   0  0  0  0  0  3  0  0  0  0  0  0
  160.8560  212.2170  148.7890 C   0  0  0  0  0  2  0  0  0  0  0  0
  160.4560  213.0110  149.8670 O   0  0  0  0  0  1  0  0  0  0  0  0
  1  7  1  0  0  0  0
  1  8  1  0  0  0  0
  2  3  1  0  0  0  0
  3  5  1  0  0  0  0
  4  3  2  0  0  0  0
  4  6  1  0  0  0  0
  7  8  1  0  0  0  0
  7  9  2  0  0  0  0
  8  2  2  0  0  0  0
  9  4  1  0  0  0  0
 10 20  2  0  0  0  0
 10 14  1  0  0  0  0
 11 17  1  0  0  0  0
 12  9  1  0  0  0  0
 12 13  2  0  0  0  0
 14 16  2  0  0  0  0
 15 10  1  0  0  0  0
 16 13  1  0  0  0  0
 17 14  1  0  0  0  0
 17 18  2  0  0  0  0
 19 15  1  0  0  0  0
 19 11  2  0  0  0  0
 20 12  1  0  0  0  0
 22 21  1  6  0  0  0
 22  1  1  0  0  0  0
 23 25  1  6  0  0  0
 23 22  1  0  0  0  0
 24 25  2  0  0  0  0
 26 23  1  0  0  0  0
 26 27  1  0  0  0  0
M  END
>  <MODEL>
6

>  <REMARK>
 VINA RESULT:      -8.9      3.052      6.732
  Name = 
  5 active torsions:
  status: ('A' for Active; 'I' for Inactive)
    1  A    between atoms: N_1  and  C_19
    2  A    between atoms: C_3  and  C_14
    3  A    between atoms: C_3  and  C_19
    4  A    between atoms: C_3  and  C_24
    5  A    between atoms: C_7  and  C_27
                            x       y       z     vdW  Elec       q    Type
                         _______ _______ _______ _____ _____    ______ ____

>  <TORSDO>
F 5

$$$$
=
 OpenBabel11072412213D

 27 30  0  0  1  0  0  0  0  0999 V2000
  161.9420  209.9350  149.8980 N   0  0  0  0  0  0  0  0  0  0  0  0
  161.5380  210.1390  152.5760 N   0  0  0  0  0  0  0  0  0  0  0  0
  161.2370  208.9440  153.2280 C   0  0  0  0  0  0  0  0  0  0  0  0
  161.1400  207.6420  152.5250 C   0  0  0  0  0  0  0  0  0  0  0  0
  161.0060  208.9850  154.6970 C   0  0  0  0  0  1  0  0  0  0  0  0
  160.8420  206.5370  153.2560 F   0  0  0  0  0  0  0  0  0  0  0  0
  161.6380  208.7370  150.5650 C   0  0  0  0  0  0  0  0  0  0  0  0
  161.7090  209.9030  151.2800 C   0  0  0  0  0  0  0  0  0  0  0  0
  161.3540  207.5130  151.0910 C   0  0  0  0  0  0  0  0  0  0  0  0
  161.0490  203.8460  150.1650 C   0  0  0  0  0  0  0  0  0  0  0  0
  160.9740  201.4140  148.6800 N   0  0  0  0  0  0  0  0  0  0  0  0
  161.2890  206.2670  150.2960 C   0  0  0  0  0  0  0  0  0  0  0  0
  161.4120  206.3170  148.8990 C   0  0  0  0  0  3  0  0  0  0  0  0
  161.1730  203.9090  148.7670 C   0  0  0  0  0  0  0  0  0  0  0  0
  160.8310  202.5390  150.8760 C   0  0  0  0  0  2  0  0  0  0  0  0
  161.3550  205.1460  148.1380 C   0  0  0  0  0  3  0  0  0  0  0  0
  161.1180  202.6610  147.9950 C   0  0  0  0  0  0  0  0  0  0  0  0
  161.2060  202.6760  146.7380 O   0  0  0  0  0  0  0  0  0  0  0  0
  160.8520  201.3320  149.9700 C   0  0  0  0  0  3  0  0  0  0  0  0
  161.1040  205.0230  150.9170 C   0  0  0  0  0  3  0  0  0  0  0  0
  161.4790  210.2840  147.6520 O   0  0  0  0  0  1  0  0  0  0  0  0
  162.3310  210.6520  148.6960 C   0  0  1  0  0  3  0  0  0  0  0  0
  162.2640  212.1670  148.9270 C   0  0  1  0  0  3  0  0  0  0  0  0
  162.7360  214.0330  147.5470 O   0  0  0  0  0  0  0  0  0  0  0  0
  163.0730  212.9190  147.9120 C   0  0  0  0  0  3  0  0  0  0  0  0
  160.8240  212.6740  148.9100 C   0  0  0  0  0  2  0  0  0  0  0  0
  160.4560  213.1850  150.1570 O   0  0  0  0  0  1  0  0  0  0  0  0
  1  7  1  0  0  0  0
  1  8  1  0  0  0  0
  2  3  1  0  0  0  0
  3  5  1  0  0  0  0
  4  3  2  0  0  0  0
  4  6  1  0  0  0  0
  7  9  2  0  0  0  0
  7  8  1  0  0  0  0
  8  2  2  0  0  0  0
  9  4  1  0  0  0  0
 10 15  1  0  0  0  0
 10 20  1  0  0  0  0
 11 19  2  0  0  0  0
 12 20  2  0  0  0  0
 12  9  1  0  0  0  0
 13 12  1  0  0  0  0
 14 10  2  0  0  0  0
 16 14  1  0  0  0  0
 16 13  2  0  0  0  0
 17 11  1  0  0  0  0
 17 14  1  0  0  0  0
 18 17  2  0  0  0  0
 19 15  1  0  0  0  0
 22 21  1  6  0  0  0
 22 23  1  0  0  0  0
 22  1  1  0  0  0  0
 23 25  1  6  0  0  0
 24 25  2  0  0  0  0
 26 23  1  0  0  0  0
 26 27  1  0  0  0  0
M  END
>  <MODEL>
7

>  <REMARK>
 VINA RESULT:      -8.9      3.064      7.080
  Name = 
  5 active torsions:
  status: ('A' for Active; 'I' for Inactive)
    1  A    between atoms: N_1  and  C_19
    2  A    between atoms: C_3  and  C_14
    3  A    between atoms: C_3  and  C_19
    4  A    between atoms: C_3  and  C_24
    5  A    between atoms: C_7  and  C_27
                            x       y       z     vdW  Elec       q    Type
                         _______ _______ _______ _____ _____    ______ ____

>  <TORSDO>
F 5

$$$$
=
 OpenBabel11072412213D

 27 30  0  0  1  0  0  0  0  0999 V2000
  162.0450  204.3890  147.4460 N   0  0  0  0  0  0  0  0  0  0  0  0
  161.1240  201.9580  148.2300 N   0  0  0  0  0  0  0  0  0  0  0  0
  160.6810  201.8840  149.5500 C   0  0  0  0  0  0  0  0  0  0  0  0
  160.7040  203.0420  150.4770 C   0  0  0  0  0  0  0  0  0  0  0  0
  160.1620  200.5800  150.0450 C   0  0  0  0  0  1  0  0  0  0  0  0
  160.2480  202.8620  151.7430 F   0  0  0  0  0  0  0  0  0  0  0  0
  161.5970  204.3030  148.7740 C   0  0  0  0  0  0  0  0  0  0  0  0
  161.5480  203.1910  147.9760 C   0  0  0  0  0  0  0  0  0  0  0  0
  161.1930  204.3520  150.0730 C   0  0  0  0  0  0  0  0  0  0  0  0
  161.6150  207.9680  151.1450 C   0  0  0  0  0  0  0  0  0  0  0  0
  161.7970  210.3310  152.7300 N   0  0  0  0  0  0  0  0  0  0  0  0
  161.2520  205.5700  150.9120 C   0  0  0  0  0  0  0  0  0  0  0  0
  161.0060  205.4870  152.2910 C   0  0  0  0  0  3  0  0  0  0  0  0
  161.3670  207.8720  152.5240 C   0  0  0  0  0  0  0  0  0  0  0  0
  161.9230  209.2880  150.4930 C   0  0  0  0  0  2  0  0  0  0  0  0
  161.0630  206.6290  153.0940 C   0  0  0  0  0  3  0  0  0  0  0  0
  161.4420  209.0880  153.3440 C   0  0  0  0  0  0  0  0  0  0  0  0
  161.2070  209.0490  154.5810 O   0  0  0  0  0  0  0  0  0  0  0  0
  162.0260  210.4440  151.4560 C   0  0  0  0  0  3  0  0  0  0  0  0
  161.5530  206.8200  150.3500 C   0  0  0  0  0  3  0  0  0  0  0  0
  163.8070  204.7020  145.9690 O   0  0  0  0  0  1  0  0  0  0  0  0
  162.5390  205.1680  146.3230 C   0  0  1  0  0  3  0  0  0  0  0  0
  161.5800  205.0600  145.1300 C   0  0  1  0  0  3  0  0  0  0  0  0
  159.9820  203.4270  144.5090 O   0  0  0  0  0  0  0  0  0  0  0  0
  161.1060  203.6520  144.9260 C   0  0  0  0  0  3  0  0  0  0  0  0
  160.3770  205.9860  145.2910 C   0  0  0  0  0  2  0  0  0  0  0  0
  160.4550  206.7080  146.4850 O   0  0  0  0  0  1  0  0  0  0  0  0
  1  8  1  0  0  0  0
  1  7  1  0  0  0  0
  2  3  1  0  0  0  0
  3  5  1  0  0  0  0
  3  4  2  0  0  0  0
  4  6  1  0  0  0  0
  7  9  2  0  0  0  0
  8  2  2  0  0  0  0
  8  7  1  0  0  0  0
  9  4  1  0  0  0  0
  9 12  1  0  0  0  0
 10 14  1  0  0  0  0
 11 17  1  0  0  0  0
 12 13  2  0  0  0  0
 13 16  1  0  0  0  0
 14 16  2  0  0  0  0
 14 17  1  0  0  0  0
 15 10  1  0  0  0  0
 15 19  1  0  0  0  0
 17 18  2  0  0  0  0
 19 11  2  0  0  0  0
 20 12  1  0  0  0  0
 20 10  2  0  0  0  0
 22 21  1  6  0  0  0
 22  1  1  0  0  0  0
 23 25  1  1  0  0  0
 23 26  1  0  0  0  0
 23 22  1  0  0  0  0
 24 25  2  0  0  0  0
 26 27  1  0  0  0  0
M  END
>  <MODEL>
8

>  <REMARK>
 VINA RESULT:      -8.9      1.202      1.755
  Name = 
  5 active torsions:
  status: ('A' for Active; 'I' for Inactive)
    1  A    between atoms: N_1  and  C_19
    2  A    between atoms: C_3  and  C_14
    3  A    between atoms: C_3  and  C_19
    4  A    between atoms: C_3  and  C_24
    5  A    between atoms: C_7  and  C_27
                            x       y       z     vdW  Elec       q    Type
                         _______ _______ _______ _____ _____    ______ ____

>  <TORSDO>
F 5

$$$$
=
 OpenBabel11072412213D

 27 30  0  0  1  0  0  0  0  0999 V2000
  160.8820  208.7310  152.9740 N   0  0  0  0  0  0  0  0  0  0  0  0
  161.6640  210.6340  151.2010 N   0  0  0  0  0  0  0  0  0  0  0  0
  161.9360  210.1750  149.9130 C   0  0  0  0  0  0  0  0  0  0  0  0
  161.8120  208.7510  149.5190 C   0  0  0  0  0  0  0  0  0  0  0  0
  162.3680  211.1670  148.8910 C   0  0  0  0  0  1  0  0  0  0  0  0
  162.1000  208.4110  148.2360 F   0  0  0  0  0  0  0  0  0  0  0  0
  161.1590  208.2800  151.6730 C   0  0  0  0  0  0  0  0  0  0  0  0
  161.2970  209.6110  151.9650 C   0  0  0  0  0  0  0  0  0  0  0  0
  161.3930  207.7180  150.4550 C   0  0  0  0  0  0  0  0  0  0  0  0
  161.2500  204.4140  148.5930 C   0  0  0  0  0  0  0  0  0  0  0  0
  160.8920  201.6540  147.9770 N   0  0  0  0  0  0  0  0  0  0  0  0
  161.2310  206.2760  150.1650 C   0  0  0  0  0  0  0  0  0  0  0  0
  160.8930  205.3850  151.1950 C   0  0  0  0  0  3  0  0  0  0  0  0
  160.9120  203.5320  149.6330 C   0  0  0  0  0  0  0  0  0  0  0  0
  161.4710  203.9240  147.1890 C   0  0  0  0  0  2  0  0  0  0  0  0
  160.7340  204.0220  150.9330 C   0  0  0  0  0  3  0  0  0  0  0  0
  160.7420  202.1070  149.3250 C   0  0  0  0  0  0  0  0  0  0  0  0
  160.4590  201.2800  150.2320 O   0  0  0  0  0  0  0  0  0  0  0  0
  161.2090  202.4500  147.0000 C   0  0  0  0  0  3  0  0  0  0  0  0
  161.4100  205.7760  148.8660 C   0  0  0  0  0  3  0  0  0  0  0  0
  161.3350  207.6980  155.0000 O   0  0  0  0  0  1  0  0  0  0  0  0
  160.4030  208.4880  154.3230 C   0  0  1  0  0  3  0  0  0  0  0  0
  160.1910  209.8140  155.0670 C   0  0  1  0  0  3  0  0  0  0  0  0
  161.7870  210.7200  156.5640 O   0  0  0  0  0  0  0  0  0  0  0  0
  161.4940  210.4740  155.4050 C   0  0  0  0  0  3  0  0  0  0  0  0
  159.3250  210.7770  154.2580 C   0  0  0  0  0  2  0  0  0  0  0  0
  158.3260  211.3430  155.0540 O   0  0  0  0  0  1  0  0  0  0  0  0
  1 22  1  0  0  0  0
  2  8  1  0  0  0  0
  3  2  2  0  0  0  0
  4  3  1  0  0  0  0
  4  9  2  0  0  0  0
  5  3  1  0  0  0  0
  6  4  1  0  0  0  0
  7  8  2  0  0  0  0
  7  1  1  0  0  0  0
  8  1  1  0  0  0  0
  9  7  1  0  0  0  0
 10 20  2  0  0  0  0
 10 14  1  0  0  0  0
 11 17  1  0  0  0  0
 12  9  1  0  0  0  0
 12 13  2  0  0  0  0
 14 16  2  0  0  0  0
 15 10  1  0  0  0  0
 16 13  1  0  0  0  0
 17 14  1  0  0  0  0
 17 18  2  0  0  0  0
 19 15  1  0  0  0  0
 19 11  2  0  0  0  0
 20 12  1  0  0  0  0
 22 21  1  1  0  0  0
 22 23  1  0  0  0  0
 23 26  1  6  0  0  0
 23 25  1  0  0  0  0
 25 24  2  0  0  0  0
 26 27  1  0  0  0  0
M  END
>  <MODEL>
9

>  <REMARK>
 VINA RESULT:      -8.8      3.008      8.026
  Name = 
  5 active torsions:
  status: ('A' for Active; 'I' for Inactive)
    1  A    between atoms: N_1  and  C_19
    2  A    between atoms: C_3  and  C_14
    3  A    between atoms: C_3  and  C_19
    4  A    between atoms: C_3  and  C_24
    5  A    between atoms: C_7  and  C_27
                            x       y       z     vdW  Elec       q    Type
                         _______ _______ _______ _____ _____    ______ ____

>  <TORSDO>
F 5

$$$$
