=
 OpenBabel11072413433D

 44 49  0  0  1  0  0  0  0  0999 V2000
  162.7590  205.9510  145.6300 O   0  0  0  0  0  0  0  0  0  0  0  0
  162.2930  203.5770  147.2910 C   0  0  0  0  0  2  0  0  0  0  0  0
  161.8980  205.4340  149.0380 C   0  0  2  0  0  3  0  0  0  0  0  0
  161.4780  208.2590  155.0050 O   0  0  0  0  0  1  0  0  0  0  0  0
  162.1010  207.7550  150.0110 C   0  0  0  0  0  0  0  0  0  0  0  0
  160.1890  211.2990  152.3990 C   0  0  0  0  0  2  0  0  0  0  0  0
  161.7150  208.1410  152.2750 C   0  0  0  0  0  2  0  0  0  0  0  0
  162.1280  204.9740  147.6770 N   0  0  0  0  0  0  0  0  0  0  0  0
  160.4540  205.1230  149.4280 C   0  0  0  0  0  2  0  0  0  0  0  0
  160.3140  210.3410  154.7160 C   0  0  2  0  0  3  0  0  0  0  0  0
  161.5630  209.2970  152.8430 C   0  0  1  0  0  3  0  0  0  0  0  0
  162.1170  206.9250  148.9560 C   0  0  0  0  0  0  0  0  0  0  0  0
  161.8810  207.2300  151.3760 C   0  0  0  0  0  2  0  0  0  0  0  0
  161.5280  209.4870  154.3370 C   0  0  2  0  0  3  0  0  0  0  0  0
  161.2300  202.7320  149.3240 N   0  0  0  0  0  2  0  0  0  0  0  0
  161.4160  210.5050  151.9360 C   0  0  1  0  0  3  0  0  0  0  0  0
  160.2830  211.6290  153.8880 C   0  0  0  0  0  2  0  0  0  0  0  0
  162.3910  209.2400  149.8180 C   0  0  0  0  0  2  0  0  0  0  0  0
  162.4630  206.0730  146.8470 C   0  0  0  0  0  0  0  0  0  0  0  0
  161.1620  202.7220  147.8670 C   0  0  2  0  0  3  0  0  0  0  0  0
  162.4390  207.3700  147.5590 C   0  0  0  0  0  2  0  0  0  0  0  0
  160.2320  203.6620  149.8520 C   0  0  0  0  0  2  0  0  0  0  0  0
  161.3000  210.1790  150.4020 C   0  0  2  0  0  3  0  0  0  0  0  0
  161.0720  211.4150  149.5020 C   0  0  1  0  0  3  0  0  0  0  0  0
  162.3000  212.0150  149.1480 O   0  0  0  0  0  0  0  0  0  0  0  0
  161.6640  211.2690  148.1460 C   0  0  0  0  0  2  0  0  0  0  0  0
  161.1860  201.2830  147.3390 C   0  0  1  0  0  3  0  0  0  0  0  0
  161.1570  200.3010  148.4940 C   0  0  0  0  0  1  0  0  0  0  0  0
  160.0480  200.9680  146.3680 C   0  0  0  0  0  2  0  0  0  0  0  0
  160.3710  201.4280  144.9530 C   0  0  0  0  0  2  0  0  0  0  0  0
  160.0190  202.8940  144.7590 C   0  0  0  0  0  2  0  0  0  0  0  0
  158.7530  203.0090  144.1840 O   0  0  0  0  0  1  0  0  0  0  0  0
  160.3540  210.6850  156.1720 C   0  0  0  0  0  3  0  0  0  0  0  0
  159.4190  211.3390  156.7990 N   0  0  0  0  0  0  0  0  0  0  0  0
  154.5790  213.2210  154.5930 O   0  0  0  0  0  1  0  0  0  0  0  0
  158.1590  211.8040  156.2750 C   0  0  0  0  0  0  0  0  0  0  0  0
  155.5170  212.6080  155.4230 C   0  0  1  0  0  3  0  0  0  0  0  0
  157.2190  210.8390  155.5900 C   0  0  0  0  0  2  0  0  0  0  0  0
  157.7640  213.0690  156.5420 C   0  0  0  0  0  0  0  0  0  0  0  0
  156.2650  211.5460  154.6430 C   0  0  0  0  0  2  0  0  0  0  0  0
  155.8460  214.4470  156.9080 O   0  0  0  0  0  1  0  0  0  0  0  0
  156.4930  213.6560  155.9570 C   0  0  2  0  0  3  0  0  0  0  0  0
  158.6820  214.0120  157.2600 C   0  0  0  0  0  2  0  0  0  0  0  0
  159.8680  214.2580  156.4570 N   0  0  0  0  0  1  0  0  0  0  0  0
  1 19  2  0  0  0  0
  2  8  1  0  0  0  0
  2 20  1  0  0  0  0
  3  9  1  6  0  0  0
  5 13  1  0  0  0  0
  6 17  1  0  0  0  0
  8  3  1  0  0  0  0
  9 22  1  0  0  0  0
 10 33  1  1  0  0  0
 11  7  1  1  0  0  0
 11 14  1  0  0  0  0
 12  3  1  0  0  0  0
 12  5  2  0  0  0  0
 13  7  1  0  0  0  0
 14 10  1  0  0  0  0
 14  4  1  1  0  0  0
 15 22  1  0  0  0  0
 16  6  1  1  0  0  0
 16 11  1  0  0  0  0
 17 10  1  0  0  0  0
 18  5  1  0  0  0  0
 19 21  1  0  0  0  0
 19  8  1  0  0  0  0
 20 27  1  6  0  0  0
 20 15  1  0  0  0  0
 21 12  1  0  0  0  0
 23 18  1  6  0  0  0
 23 16  1  0  0  0  0
 24 26  1  6  0  0  0
 24 23  1  0  0  0  0
 25 24  1  0  0  0  0
 26 25  1  0  0  0  0
 27 28  1  1  0  0  0
 29 27  1  0  0  0  0
 30 29  1  0  0  0  0
 31 30  1  0  0  0  0
 32 31  1  0  0  0  0
 33 34  2  0  0  0  0
 36 39  2  0  0  0  0
 36 34  1  0  0  0  0
 37 35  1  6  0  0  0
 37 42  1  0  0  0  0
 38 36  1  0  0  0  0
 39 43  1  0  0  0  0
 40 37  1  0  0  0  0
 40 38  1  0  0  0  0
 42 39  1  0  0  0  0
 42 41  1  1  0  0  0
 44 43  1  0  0  0  0
M  END
>  <MODEL>
1

>  <REMARK>
 VINA RESULT:      -5.0      0.000      0.000
  Name = 
  8 active torsions:
  status: ('A' for Active; 'I' for Inactive)
    1  A    between atoms: C_4  and  N_43
    2  A    between atoms: C_10  and  C_44
    3  A    between atoms: C_13  and  C_19
    4  A    between atoms: C_16  and  C_42
    5  A    between atoms: C_20  and  C_25
    6  A    between atoms: C_20  and  C_42
    7  A    between atoms: C_22  and  C_27
    8  A    between atoms: C_25  and  C_38
                            x       y       z     vdW  Elec       q    Type
                         _______ _______ _______ _____ _____    ______ ____

>  <TORSDO>
F 8

$$$$
=
 OpenBabel11072413433D

 44 49  0  0  1  0  0  0  0  0999 V2000
  161.0590  203.1100  150.3750 O   0  0  0  0  0  0  0  0  0  0  0  0
  161.2880  204.9380  148.0910 C   0  0  0  0  0  2  0  0  0  0  0  0
  161.1250  206.6450  150.0200 C   0  0  2  0  0  3  0  0  0  0  0  0
  159.9170  212.4130  153.0240 O   0  0  0  0  0  1  0  0  0  0  0  0
  160.5310  207.4390  152.3420 C   0  0  0  0  0  0  0  0  0  0  0  0
  161.5640  210.0480  156.0890 C   0  0  0  0  0  2  0  0  0  0  0  0
  160.3420  209.7110  152.8160 C   0  0  0  0  0  2  0  0  0  0  0  0
  161.2570  205.2890  149.5070 N   0  0  0  0  0  0  0  0  0  0  0  0
  162.4540  207.3750  149.8350 C   0  0  0  0  0  2  0  0  0  0  0  0
  160.9640  212.3110  155.1860 C   0  0  2  0  0  3  0  0  0  0  0  0
  160.2720  210.2460  153.9950 C   0  0  1  0  0  3  0  0  0  0  0  0
  160.8250  206.4470  151.4850 C   0  0  0  0  0  0  0  0  0  0  0  0
  160.4600  208.8390  151.8710 C   0  0  0  0  0  2  0  0  0  0  0  0
  159.9390  211.6980  154.2270 C   0  0  2  0  0  3  0  0  0  0  0  0
  161.8980  207.1990  147.3890 N   0  0  0  0  0  2  0  0  0  0  0  0
  160.5420  209.3460  155.1870 C   0  0  1  0  0  3  0  0  0  0  0  0
  161.0970  211.4570  156.4490 C   0  0  0  0  0  2  0  0  0  0  0  0
  160.1890  207.1180  153.7930 C   0  0  0  0  0  2  0  0  0  0  0  0
  161.0490  204.3560  150.5530 C   0  0  0  0  0  0  0  0  0  0  0  0
  162.3100  205.7990  147.3450 C   0  0  2  0  0  3  0  0  0  0  0  0
  160.8110  204.9950  151.8660 C   0  0  0  0  0  2  0  0  0  0  0  0
  162.6740  207.9040  148.4090 C   0  0  0  0  0  2  0  0  0  0  0  0
  161.0410  207.8980  154.8320 C   0  0  2  0  0  3  0  0  0  0  0  0
  161.3860  207.0220  156.0570 C   0  0  1  0  0  3  0  0  0  0  0  0
  161.1540  207.7240  157.2610 O   0  0  0  0  0  0  0  0  0  0  0  0
  160.2120  206.7410  156.9260 C   0  0  0  0  0  2  0  0  0  0  0  0
  162.5150  205.3450  145.8960 C   0  0  1  0  0  3  0  0  0  0  0  0
  163.7230  204.4340  145.7990 C   0  0  0  0  0  1  0  0  0  0  0  0
  161.2950  204.6460  145.2950 C   0  0  0  0  0  2  0  0  0  0  0  0
  161.2690  203.1630  145.6400 C   0  0  0  0  0  2  0  0  0  0  0  0
  160.2200  202.4270  144.8210 C   0  0  0  0  0  2  0  0  0  0  0  0
  160.2140  201.0740  145.1600 O   0  0  0  0  0  1  0  0  0  0  0  0
  160.5570  213.7010  155.5630 C   0  0  0  0  0  3  0  0  0  0  0  0
  159.3450  214.0500  155.8870 N   0  0  0  0  0  0  0  0  0  0  0  0
  154.8810  210.6210  156.2710 O   0  0  0  0  0  1  0  0  0  0  0  0
  158.1850  213.2050  156.0170 C   0  0  0  0  0  0  0  0  0  0  0  0
  155.7830  211.6640  156.4790 C   0  0  1  0  0  3  0  0  0  0  0  0
  158.0660  212.2520  157.1830 C   0  0  0  0  0  2  0  0  0  0  0  0
  157.1410  213.3890  155.1770 C   0  0  0  0  0  0  0  0  0  0  0  0
  157.1290  211.0950  156.8830 C   0  0  0  0  0  2  0  0  0  0  0  0
  154.7620  213.2370  155.0030 O   0  0  0  0  0  1  0  0  0  0  0  0
  155.9230  212.4850  155.1970 C   0  0  2  0  0  3  0  0  0  0  0  0
  157.2450  214.3670  154.0450 C   0  0  0  0  0  2  0  0  0  0  0  0
  156.7000  213.7820  152.8320 N   0  0  0  0  0  1  0  0  0  0  0  0
  1 19  2  0  0  0  0
  2  8  1  0  0  0  0
  3  9  1  1  0  0  0
  3 12  1  0  0  0  0
  5 18  1  0  0  0  0
  6 17  1  0  0  0  0
  8  3  1  0  0  0  0
  8 19  1  0  0  0  0
 10 33  1  1  0  0  0
 10 17  1  0  0  0  0
 11  7  1  1  0  0  0
 11 14  1  0  0  0  0
 11 16  1  0  0  0  0
 12 21  1  0  0  0  0
 12  5  2  0  0  0  0
 13  5  1  0  0  0  0
 13  7  1  0  0  0  0
 14  4  1  6  0  0  0
 14 10  1  0  0  0  0
 15 22  1  0  0  0  0
 16  6  1  1  0  0  0
 19 21  1  0  0  0  0
 20 27  1  6  0  0  0
 20 15  1  0  0  0  0
 20  2  1  0  0  0  0
 22  9  1  0  0  0  0
 23 18  1  1  0  0  0
 23 16  1  0  0  0  0
 23 24  1  0  0  0  0
 24 26  1  1  0  0  0
 24 25  1  0  0  0  0
 26 25  1  0  0  0  0
 27 28  1  1  0  0  0
 29 30  1  0  0  0  0
 29 27  1  0  0  0  0
 31 32  1  0  0  0  0
 31 30  1  0  0  0  0
 33 34  2  0  0  0  0
 34 36  1  0  0  0  0
 36 38  1  0  0  0  0
 37 35  1  6  0  0  0
 37 40  1  0  0  0  0
 39 42  1  0  0  0  0
 39 36  2  0  0  0  0
 40 38  1  0  0  0  0
 42 41  1  1  0  0  0
 42 37  1  0  0  0  0
 43 39  1  0  0  0  0
 44 43  1  0  0  0  0
M  END
>  <MODEL>
2

>  <REMARK>
 VINA RESULT:      -4.7      2.153      4.069
  Name = 
  8 active torsions:
  status: ('A' for Active; 'I' for Inactive)
    1  A    between atoms: C_4  and  N_43
    2  A    between atoms: C_10  and  C_44
    3  A    between atoms: C_13  and  C_19
    4  A    between atoms: C_16  and  C_42
    5  A    between atoms: C_20  and  C_25
    6  A    between atoms: C_20  and  C_42
    7  A    between atoms: C_22  and  C_27
    8  A    between atoms: C_25  and  C_38
                            x       y       z     vdW  Elec       q    Type
                         _______ _______ _______ _____ _____    ______ ____

>  <TORSDO>
F 8

$$$$
=
 OpenBabel11072413433D

 44 49  0  0  1  0  0  0  0  0999 V2000
  162.0970  202.9410  151.0170 O   0  0  0  0  0  0  0  0  0  0  0  0
  161.2850  204.3500  148.5740 C   0  0  0  0  0  2  0  0  0  0  0  0
  160.9450  206.2280  150.3110 C   0  0  2  0  0  3  0  0  0  0  0  0
  158.5240  211.7980  152.9330 O   0  0  0  0  0  1  0  0  0  0  0  0
  160.5760  207.1850  152.6180 C   0  0  0  0  0  0  0  0  0  0  0  0
  161.3960  210.5670  155.7500 C   0  0  0  0  0  2  0  0  0  0  0  0
  159.7540  209.3460  152.8980 C   0  0  0  0  0  2  0  0  0  0  0  0
  161.4100  204.9070  149.9170 N   0  0  0  0  0  0  0  0  0  0  0  0
  161.9050  207.2770  149.7530 C   0  0  0  0  0  2  0  0  0  0  0  0
  159.9360  212.3700  154.7920 C   0  0  2  0  0  3  0  0  0  0  0  0
  159.7380  210.0250  154.0030 C   0  0  2  0  0  3  0  0  0  0  0  0
  161.0080  206.1970  151.8180 C   0  0  0  0  0  0  0  0  0  0  0  0
  159.9670  208.4040  152.0420 C   0  0  0  0  0  2  0  0  0  0  0  0
  159.0030  211.3310  154.1620 C   0  0  2  0  0  3  0  0  0  0  0  0
  160.9850  206.5410  147.5310 N   0  0  0  0  0  2  0  0  0  0  0  0
  160.5060  209.4560  155.1820 C   0  0  1  0  0  3  0  0  0  0  0  0
  160.5750  211.8150  156.0680 C   0  0  0  0  0  2  0  0  0  0  0  0
  160.6370  207.0230  154.1330 C   0  0  0  0  0  2  0  0  0  0  0  0
  161.7180  204.1410  151.0700 C   0  0  0  0  0  0  0  0  0  0  0  0
  161.8120  205.3390  147.5310 C   0  0  2  0  0  3  0  0  0  0  0  0
  161.5380  204.8900  152.3330 C   0  0  0  0  0  2  0  0  0  0  0  0
  161.6680  207.6030  148.2700 C   0  0  0  0  0  2  0  0  0  0  0  0
  161.3700  208.1820  154.8650 C   0  0  2  0  0  3  0  0  0  0  0  0
  162.2060  207.6630  156.0570 C   0  0  1  0  0  3  0  0  0  0  0  0
  161.8110  208.2880  157.2600 O   0  0  0  0  0  0  0  0  0  0  0  0
  161.3900  206.9630  157.0850 C   0  0  0  0  0  2  0  0  0  0  0  0
  161.8750  204.7310  146.1250 C   0  0  1  0  0  3  0  0  0  0  0  0
  163.2990  204.7600  145.6060 C   0  0  0  0  0  1  0  0  0  0  0  0
  161.3300  203.3040  146.0500 C   0  0  0  0  0  2  0  0  0  0  0  0
  160.4660  203.0960  144.8130 C   0  0  0  0  0  2  0  0  0  0  0  0
  159.6910  201.7910  144.8990 C   0  0  0  0  0  2  0  0  0  0  0  0
  160.5700  200.7260  145.0960 O   0  0  0  0  0  1  0  0  0  0  0  0
  159.1790  213.6200  155.1150 C   0  0  0  0  0  3  0  0  0  0  0  0
  158.6750  214.4260  154.2250 N   0  0  0  0  0  0  0  0  0  0  0  0
  158.6640  214.0120  148.5980 O   0  0  0  0  0  1  0  0  0  0  0  0
  158.6730  214.2720  152.7920 C   0  0  0  0  0  0  0  0  0  0  0  0
  158.7100  213.7060  149.9570 C   0  0  1  0  0  3  0  0  0  0  0  0
  159.9630  213.9970  152.0550 C   0  0  0  0  0  2  0  0  0  0  0  0
  157.4900  214.2190  152.1390 C   0  0  0  0  0  0  0  0  0  0  0  0
  159.8880  214.4140  150.5960 C   0  0  0  0  0  2  0  0  0  0  0  0
  156.3790  213.2790  150.2430 O   0  0  0  0  0  1  0  0  0  0  0  0
  157.4070  214.1440  150.6260 C   0  0  2  0  0  3  0  0  0  0  0  0
  156.2070  214.4500  152.8810 C   0  0  0  0  0  2  0  0  0  0  0  0
  155.6150  213.1780  153.2580 N   0  0  0  0  0  1  0  0  0  0  0  0
  1 19  2  0  0  0  0
  2  8  1  0  0  0  0
  3  9  1  6  0  0  0
  3 12  1  0  0  0  0
  5 18  1  0  0  0  0
  6 17  1  0  0  0  0
  8  3  1  0  0  0  0
  8 19  1  0  0  0  0
 10 33  1  1  0  0  0
 10 17  1  0  0  0  0
 11  7  1  6  0  0  0
 11 14  1  0  0  0  0
 11 16  1  0  0  0  0
 12 21  1  0  0  0  0
 12  5  2  0  0  0  0
 13  5  1  0  0  0  0
 13  7  1  0  0  0  0
 14  4  1  6  0  0  0
 14 10  1  0  0  0  0
 15 22  1  0  0  0  0
 16  6  1  6  0  0  0
 19 21  1  0  0  0  0
 20 27  1  6  0  0  0
 20 15  1  0  0  0  0
 20  2  1  0  0  0  0
 22  9  1  0  0  0  0
 23 18  1  1  0  0  0
 23 16  1  0  0  0  0
 23 24  1  0  0  0  0
 24 26  1  1  0  0  0
 24 25  1  0  0  0  0
 26 25  1  0  0  0  0
 27 28  1  1  0  0  0
 29 27  1  0  0  0  0
 30 31  1  0  0  0  0
 30 29  1  0  0  0  0
 31 32  1  0  0  0  0
 34 33  2  0  0  0  0
 36 34  1  0  0  0  0
 37 35  1  6  0  0  0
 37 40  1  0  0  0  0
 37 42  1  0  0  0  0
 38 36  1  0  0  0  0
 39 36  2  0  0  0  0
 39 43  1  0  0  0  0
 40 38  1  0  0  0  0
 42 41  1  1  0  0  0
 42 39  1  0  0  0  0
 43 44  1  0  0  0  0
M  END
>  <MODEL>
3

>  <REMARK>
 VINA RESULT:      -3.7      2.704      4.707
  Name = 
  8 active torsions:
  status: ('A' for Active; 'I' for Inactive)
    1  A    between atoms: C_4  and  N_43
    2  A    between atoms: C_10  and  C_44
    3  A    between atoms: C_13  and  C_19
    4  A    between atoms: C_16  and  C_42
    5  A    between atoms: C_20  and  C_25
    6  A    between atoms: C_20  and  C_42
    7  A    between atoms: C_22  and  C_27
    8  A    between atoms: C_25  and  C_38
                            x       y       z     vdW  Elec       q    Type
                         _______ _______ _______ _____ _____    ______ ____

>  <TORSDO>
F 8

$$$$
=
 OpenBabel11072413433D

 44 49  0  0  1  0  0  0  0  0999 V2000
  162.4000  209.6580  152.2800 O   0  0  0  0  0  0  0  0  0  0  0  0
  161.2520  207.3000  150.9630 C   0  0  0  0  0  2  0  0  0  0  0  0
  161.2070  208.9770  149.0030 C   0  0  2  0  0  3  0  0  0  0  0  0
  159.2980  211.6630  143.2670 O   0  0  0  0  0  1  0  0  0  0  0  0
  161.2050  211.2650  147.9350 C   0  0  0  0  0  0  0  0  0  0  0  0
  162.5420  214.0740  144.4360 C   0  0  0  0  0  2  0  0  0  0  0  0
  160.4700  211.5610  145.7460 C   0  0  0  0  0  2  0  0  0  0  0  0
  161.5860  208.5810  150.3510 N   0  0  0  0  0  0  0  0  0  0  0  0
  162.0890  208.2320  148.0020 C   0  0  0  0  0  2  0  0  0  0  0  0
  160.9830  213.2610  142.6460 C   0  0  2  0  0  3  0  0  0  0  0  0
  160.6310  212.6230  145.0180 C   0  0  2  0  0  3  0  0  0  0  0  0
  161.4960  210.4570  148.9680 C   0  0  0  0  0  0  0  0  0  0  0  0
  160.5360  210.7290  146.7300 C   0  0  0  0  0  2  0  0  0  0  0  0
  159.9490  212.8280  143.6900 C   0  0  2  0  0  3  0  0  0  0  0  0
  160.8340  206.2100  148.8150 N   0  0  0  0  0  2  0  0  0  0  0  0
  161.5580  213.6990  145.5510 C   0  0  1  0  0  3  0  0  0  0  0  0
  161.7980  214.4520  143.1570 C   0  0  0  0  0  2  0  0  0  0  0  0
  161.4920  212.7590  148.0310 C   0  0  0  0  0  2  0  0  0  0  0  0
  162.0520  209.7100  151.0710 C   0  0  0  0  0  0  0  0  0  0  0  0
  161.6320  206.1440  150.0350 C   0  0  2  0  0  3  0  0  0  0  0  0
  162.0760  210.9480  150.2630 C   0  0  0  0  0  2  0  0  0  0  0  0
  161.6370  206.7870  147.7380 C   0  0  0  0  0  2  0  0  0  0  0  0
  162.3450  213.3170  146.8580 C   0  0  2  0  0  3  0  0  0  0  0  0
  163.3420  214.3940  147.3420 C   0  0  1  0  0  3  0  0  0  0  0  0
  163.4160  214.4150  148.7530 O   0  0  0  0  0  0  0  0  0  0  0  0
  164.5010  213.8290  148.0840 C   0  0  0  0  0  2  0  0  0  0  0  0
  161.4730  204.7750  150.7060 C   0  0  1  0  0  3  0  0  0  0  0  0
  161.1200  204.9480  152.1710 C   0  0  0  0  0  1  0  0  0  0  0  0
  160.4350  203.8780  150.0310 C   0  0  0  0  0  2  0  0  0  0  0  0
  160.9500  202.4560  149.8530 C   0  0  0  0  0  2  0  0  0  0  0  0
  160.9250  202.0420  148.3900 C   0  0  0  0  0  2  0  0  0  0  0  0
  161.1960  200.6780  148.2760 O   0  0  0  0  0  1  0  0  0  0  0  0
  160.3030  213.6340  141.3650 C   0  0  0  0  0  3  0  0  0  0  0  0
  160.3030  212.8970  140.2910 N   0  0  0  0  0  0  0  0  0  0  0  0
  162.6470  207.8300  139.4750 O   0  0  0  0  0  1  0  0  0  0  0  0
  160.8720  211.5850  140.1170 C   0  0  0  0  0  0  0  0  0  0  0  0
  161.8810  208.8790  139.9830 C   0  0  1  0  0  3  0  0  0  0  0  0
  161.9420  211.0890  141.0630 C   0  0  0  0  0  2  0  0  0  0  0  0
  160.3300  210.7500  139.2020 C   0  0  0  0  0  0  0  0  0  0  0  0
  162.7960  209.9980  140.4390 C   0  0  0  0  0  2  0  0  0  0  0  0
  159.9100  208.4490  138.7090 O   0  0  0  0  0  1  0  0  0  0  0  0
  160.9260  209.3870  138.9030 C   0  0  2  0  0  3  0  0  0  0  0  0
  159.2390  211.2310  138.2930 C   0  0  0  0  0  2  0  0  0  0  0  0
  157.9460  210.8000  138.7970 N   0  0  0  0  0  1  0  0  0  0  0  0
  3  9  1  6  0  0  0
  3  8  1  0  0  0  0
  5 18  1  0  0  0  0
  5 12  2  0  0  0  0
  7 13  1  0  0  0  0
  8  2  1  0  0  0  0
  8 19  1  0  0  0  0
 10 33  1  6  0  0  0
 10 17  1  0  0  0  0
 10 14  1  0  0  0  0
 11 16  1  0  0  0  0
 11  7  1  6  0  0  0
 12  3  1  0  0  0  0
 12 21  1  0  0  0  0
 13  5  1  0  0  0  0
 14  4  1  6  0  0  0
 14 11  1  0  0  0  0
 15 20  1  0  0  0  0
 16  6  1  6  0  0  0
 16 23  1  0  0  0  0
 17  6  1  0  0  0  0
 19  1  2  0  0  0  0
 20 27  1  1  0  0  0
 20  2  1  0  0  0  0
 21 19  1  0  0  0  0
 22  9  1  0  0  0  0
 22 15  1  0  0  0  0
 23 24  1  0  0  0  0
 23 18  1  1  0  0  0
 24 26  1  6  0  0  0
 24 25  1  0  0  0  0
 26 25  1  0  0  0  0
 27 28  1  1  0  0  0
 29 27  1  0  0  0  0
 30 29  1  0  0  0  0
 31 30  1  0  0  0  0
 32 31  1  0  0  0  0
 34 33  2  0  0  0  0
 36 34  1  0  0  0  0
 36 38  1  0  0  0  0
 37 35  1  6  0  0  0
 37 40  1  0  0  0  0
 39 36  2  0  0  0  0
 40 38  1  0  0  0  0
 42 41  1  1  0  0  0
 42 39  1  0  0  0  0
 42 37  1  0  0  0  0
 43 44  1  0  0  0  0
 43 39  1  0  0  0  0
M  END
>  <MODEL>
4

>  <REMARK>
 VINA RESULT:      -2.9      5.270     10.588
  Name = 
  8 active torsions:
  status: ('A' for Active; 'I' for Inactive)
    1  A    between atoms: C_4  and  N_43
    2  A    between atoms: C_10  and  C_44
    3  A    between atoms: C_13  and  C_19
    4  A    between atoms: C_16  and  C_42
    5  A    between atoms: C_20  and  C_25
    6  A    between atoms: C_20  and  C_42
    7  A    between atoms: C_22  and  C_27
    8  A    between atoms: C_25  and  C_38
                            x       y       z     vdW  Elec       q    Type
                         _______ _______ _______ _____ _____    ______ ____

>  <TORSDO>
F 8

$$$$
