=
 OpenBabel11072412203D

 68 71  0  0  1  0  0  0  0  0999 V2000
  162.0320  208.3760  150.6680 C   0  0  2  0  0  0  0  0  0  0  0  0
  162.9580  209.4600  150.1830 C   0  0  1  0  0  3  0  0  0  0  0  0
  161.6240  209.3020  149.5280 C   0  0  2  0  0  0  0  0  0  0  0  0
  162.2210  210.5640  149.7190 O   0  0  0  0  0  0  0  0  0  0  0  0
  161.1310  208.5790  151.8720 C   0  0  0  0  0  2  0  0  0  0  0  0
  159.9540  207.8500  151.6830 O   0  0  0  0  0  0  0  0  0  0  0  0
  159.6310  207.3240  152.9480 C   0  0  0  0  0  2  0  0  0  0  0  0
  160.5450  207.8750  154.0320 C   0  0  2  0  0  3  0  0  0  0  0  0
  161.0740  206.8030  154.9690 C   0  0  0  0  0  0  0  0  0  0  0  0
  160.9700  206.9520  156.2860 C   0  0  0  0  0  2  0  0  0  0  0  0
  161.7340  205.6500  154.5100 O   0  0  0  0  0  0  0  0  0  0  0  0
  160.9750  205.8070  152.3270 F   0  0  0  0  0  0  0  0  0  0  0  0
  161.4120  204.9360  153.3110 C   0  0  0  0  0  0  0  0  0  0  0  0
  162.5590  204.2960  152.8780 F   0  0  0  0  0  0  0  0  0  0  0  0
  160.4620  203.9640  153.5560 F   0  0  0  0  0  0  0  0  0  0  0  0
  159.8730  208.9120  154.7090 O   0  0  0  0  0  0  0  0  0  0  0  0
  160.6420  210.3810  154.2340 S   0  0  0  0  0  0  0  0  0  0  0  0
  159.5220  211.4300  155.2210 C   0  0  0  0  0  2  0  0  0  0  0  0
  159.6820  212.8910  154.8410 C   0  0  0  0  0  2  0  0  0  0  0  0
  158.6510  213.3200  153.7960 C   0  0  0  0  0  2  0  0  0  0  0  0
  158.8760  212.6700  152.4230 C   0  0  0  0  0  2  0  0  0  0  0  0
  157.8740  213.1850  151.3970 C   0  0  1  0  0  3  0  0  0  0  0  0
  155.6110  213.9300  151.1080 O   0  0  0  0  0  1  0  0  0  0  0  0
  156.5130  213.4520  152.0640 C   0  0  2  0  0  3  0  0  0  0  0  0
  156.6470  214.3930  153.1030 O   0  0  0  0  0  0  0  0  0  0  0  0
  154.8520  214.2890  154.6510 C   0  0  0  0  0  2  0  0  0  0  0  0
  154.9390  212.9650  153.9400 C   0  0  0  0  0  2  0  0  0  0  0  0
  156.2020  213.7360  154.2560 C   0  0  0  0  0  3  0  0  0  0  0  0
  158.4280  214.4180  150.6820 C   0  0  0  0  0  2  0  0  0  0  0  0
  159.6450  214.0360  149.8560 C   0  0  0  0  0  2  0  0  0  0  0  0
  159.2740  213.8460  148.5220 O   0  0  0  0  0  1  0  0  0  0  0  0
  161.9000  208.8030  148.1130 C   0  0  0  0  0  2  0  0  0  0  0  0
  161.3230  207.4230  147.7190 C   0  0  2  0  0  3  0  0  0  0  0  0
  160.3710  207.5380  146.6960 O   0  0  0  0  0  1  0  0  0  0  0  0
  160.6780  206.7350  148.9390 C   0  0  0  0  0  2  0  0  0  0  0  0
  159.9160  205.4590  148.5760 C   0  0  0  0  0  2  0  0  0  0  0  0
  160.0160  204.4410  149.7030 C   0  0  0  0  0  2  0  0  0  0  0  0
  160.9940  203.3010  149.4110 C   0  0  1  0  0  3  0  0  0  0  0  0
  161.5030  202.5950  150.6520 C   0  0  0  0  0  2  0  0  0  0  0  0
  161.6200  201.2170  150.3760 O   0  0  0  0  0  0  0  0  0  0  0  0
  161.0930  201.0070  149.0790 C   0  0  0  0  0  2  0  0  0  0  0  0
  160.2510  202.2050  148.7240 C   0  0  2  0  0  3  0  0  0  0  0  0
  160.2060  202.4360  147.3400 O   0  0  0  0  0  0  0  0  0  0  0  0
  161.1310  201.6060  146.6480 C   0  0  1  0  0  3  0  0  0  0  0  0
  160.6520  200.3210  146.3170 O   0  0  0  0  0  1  0  0  0  0  0  0
  161.6280  202.2510  145.4940 O   0  0  0  0  0  0  0  0  0  0  0  0
  161.2280  203.5970  145.5290 C   0  0  0  0  0  2  0  0  0  0  0  0
  162.3930  204.4710  145.2160 C   0  0  0  0  0  0  0  0  0  0  0  0
  163.5020  203.9730  145.0840 O   0  0  0  0  0  0  0  0  0  0  0  0
  162.2320  205.9510  145.0840 C   0  0  0  0  0  2  0  0  0  0  0  0
  161.2730  206.2650  143.9360 C   0  0  0  0  0  2  0  0  0  0  0  0
  161.3880  205.2660  142.9540 O   0  0  0  0  0  0  0  0  0  0  0  0
  160.6140  206.6310  141.2120 O   0  0  0  0  0  1  0  0  0  0  0  0
  161.6880  205.8730  141.7210 C   0  0  1  0  0  3  0  0  0  0  0  0
  163.0260  206.6210  141.6920 C   0  0  0  0  0  2  0  0  0  0  0  0
  163.3550  207.2180  140.3310 C   0  0  0  0  0  2  0  0  0  0  0  0
  162.1030  207.3080  139.4680 C   0  0  0  0  0  2  0  0  0  0  0  0
  162.4480  207.4990  138.0630 N   0  0  0  0  0  2  0  0  0  0  0  0
  161.4550  208.3830  137.4560 C   0  0  1  0  0  3  0  0  0  0  0  0
  160.3770  207.6030  137.0180 O   0  0  0  0  0  1  0  0  0  0  0  0
  160.9710  209.4430  138.4620 C   0  0  0  0  0  2  0  0  0  0  0  0
  162.1360  210.2480  139.0270 C   0  0  0  0  0  3  0  0  0  0  0  0
  162.6540  211.0760  138.0510 F   0  0  0  0  0  0  0  0  0  0  0  0
  161.7360  210.9840  140.1220 F   0  0  0  0  0  0  0  0  0  0  0  0
  162.3760  207.0490  150.2860 O   0  0  0  0  0  0  0  0  0  0  0  0
  164.0590  206.0690  151.7270 O   0  0  0  0  0  1  0  0  0  0  0  0
  164.4530  206.4420  149.5060 O   0  0  0  0  0  0  0  0  0  0  0  0
  163.6520  206.5120  150.4740 C   0  0  0  0  0  0  0  0  0  0  0  0
  1  5  1  1  0  0  0
  2  4  1  1  0  0  0
  2  1  1  0  0  0  0
  3 32  1  6  0  0  0
  3  4  1  0  0  0  0
  3  2  1  0  0  0  0
  3  1  1  0  0  0  0
  6  5  1  0  0  0  0
  6  7  1  0  0  0  0
  8  7  1  6  0  0  0
  8 16  1  0  0  0  0
  8  9  1  0  0  0  0
  9 10  2  0  0  0  0
 11  9  1  0  0  0  0
 12 13  1  0  0  0  0
 13 15  1  0  0  0  0
 13 11  1  0  0  0  0
 14 13  1  0  0  0  0
 17 16  1  0  0  0  0
 17 18  1  0  0  0  0
 19 18  1  0  0  0  0
 20 19  1  0  0  0  0
 21 20  1  0  0  0  0
 22 29  1  1  0  0  0
 22 24  1  0  0  0  0
 22 21  1  0  0  0  0
 24 23  1  6  0  0  0
 24 25  1  0  0  0  0
 25 28  1  0  0  0  0
 27 28  1  0  0  0  0
 27 26  1  0  0  0  0
 28 26  1  0  0  0  0
 30 29  1  0  0  0  0
 31 30  1  0  0  0  0
 33 34  1  6  0  0  0
 33 32  1  0  0  0  0
 33 35  1  0  0  0  0
 36 35  1  0  0  0  0
 36 37  1  0  0  0  0
 38 37  1  1  0  0  0
 38 39  1  0  0  0  0
 40 39  1  0  0  0  0
 41 40  1  0  0  0  0
 42 43  1  6  0  0  0
 42 41  1  0  0  0  0
 42 38  1  0  0  0  0
 44 45  1  6  0  0  0
 44 43  1  0  0  0  0
 46 47  1  0  0  0  0
 46 44  1  0  0  0  0
 48 47  1  0  0  0  0
 49 48  2  0  0  0  0
 50 48  1  0  0  0  0
 51 50  1  0  0  0  0
 52 51  1  0  0  0  0
 54 53  1  1  0  0  0
 54 52  1  0  0  0  0
 55 54  1  0  0  0  0
 56 55  1  0  0  0  0
 57 56  1  0  0  0  0
 58 57  1  0  0  0  0
 59 60  1  1  0  0  0
 59 58  1  0  0  0  0
 59 61  1  0  0  0  0
 61 62  1  0  0  0  0
 62 64  1  0  0  0  0
 63 62  1  0  0  0  0
 65 68  1  0  0  0  0
 65  1  1  0  0  0  0
 67 68  2  0  0  0  0
 68 66  1  0  0  0  0
M  END
>  <MODEL>
1

>  <REMARK>
 VINA RESULT:       4.4      0.000      0.000
  Name = 
  43 active torsions:
  status: ('A' for Active; 'I' for Inactive)
    1  A    between atoms: C_1  and  C_8
    2  A    between atoms: C_1  and  C_15
    3  A    between atoms: C_2  and  O_6
    4  A    between atoms: C_2  and  C_56
    5  A    between atoms: C_3  and  C_22
    6  A    between atoms: C_3  and  N_55
    7  A    between atoms: C_4  and  C_20
    8  A    between atoms: C_4  and  C_37
    9  A    between atoms: C_5  and  C_12
   10  A    between atoms: C_5  and  C_18
   11  A    between atoms: O_6  and  C_51
   12  A    between atoms: C_7  and  C_54
   13  A    between atoms: C_8  and  O_57
   14  A    between atoms: C_9  and  C_15
   15  A    between atoms: C_9  and  O_49
   16  A    between atoms: C_10  and  C_31
   17  A    between atoms: C_10  and  C_58
   18  A    between atoms: O_11  and  C_30
   19  A    between atoms: O_11  and  C_41
   20  A    between atoms: C_12  and  C_46
   21  A    between atoms: C_13  and  C_52
   22  A    between atoms: C_18  and  S_36
   23  A    between atoms: C_20  and  C_64
   24  A    between atoms: C_22  and  C_23
   25  A    between atoms: C_25  and  C_37
   26  A    between atoms: C_25  and  C_52
   27  A    between atoms: C_29  and  O_59
   28  A    between atoms: C_30  and  O_49
   29  A    between atoms: C_31  and  C_53
   30  A    between atoms: O_32  and  C_56
   31  A    between atoms: O_32  and  C_65
   32  A    between atoms: O_35  and  C_43
   33  A    between atoms: O_35  and  C_63
   34  A    between atoms: S_36  and  O_42
   35  A    between atoms: O_42  and  C_47
   36  A    between atoms: C_43  and  C_48
   37  A    between atoms: C_45  and  C_47
   38  A    between atoms: C_45  and  O_59
   39  A    between atoms: C_46  and  C_48
   40  A    between atoms: C_47  and  C_65
   41  A    between atoms: C_48  and  C_54
   42  A    between atoms: C_53  and  N_55
   43  A    between atoms: O_57  and  C_58
                            x       y       z     vdW  Elec       q    Type
                         _______ _______ _______ _____ _____    ______ ____

>  <TORSDO>
F 43

$$$$
