=
 OpenBabel11072411343D

 25 28  0  0  1  0  0  0  0  0999 V2000
  161.3780  207.1020  152.3870 C   0  0  1  0  0  3  0  0  0  0  0  0
  162.6100  206.6020  152.8130 O   0  0  0  0  0  1  0  0  0  0  0  0
  162.0610  209.3290  150.6170 C   0  0  0  0  0  2  0  0  0  0  0  0
  161.5520  209.5250  151.9810 N   0  0  0  0  0  0  0  0  0  0  0  0
  160.7910  208.8860  154.1160 N   0  0  0  0  0  2  0  0  0  0  0  0
  161.2510  208.5550  152.8030 C   0  0  0  0  0  0  0  0  0  0  0  0
  160.9910  205.9810  148.7970 C   0  0  0  0  0  0  0  0  0  0  0  0
  161.2660  206.9580  150.8970 C   0  0  0  0  0  0  0  0  0  0  0  0
  160.9240  205.7960  150.1770 C   0  0  0  0  0  0  0  0  0  0  0  0
  161.5910  208.0220  150.0770 C   0  0  0  0  0  0  0  0  0  0  0  0
  161.4920  207.5580  148.4660 S   0  0  0  0  0  0  0  0  0  0  0  0
  160.4180  207.8770  155.0930 C   0  0  0  0  0  1  0  0  0  0  0  0
  160.7500  204.9330  147.7620 C   0  0  0  0  0  2  0  0  0  0  0  0
  161.3900  205.3030  146.5060 N   0  0  0  0  0  0  0  0  0  0  0  0
  161.6170  205.5480  144.1720 N   0  0  0  0  0  0  0  0  0  0  0  0
  159.5240  205.9300  145.2000 O   0  0  0  0  0  0  0  0  0  0  0  0
  162.9550  205.2130  144.6500 C   0  0  0  0  0  2  0  0  0  0  0  0
  161.3690  206.1350  142.9800 O   0  0  0  0  0  1  0  0  0  0  0  0
  162.7300  205.0210  146.1190 C   0  0  0  0  0  0  0  0  0  0  0  0
  160.7400  205.6140  145.2870 C   0  0  0  0  0  0  0  0  0  0  0  0
  163.6190  204.6440  146.9270 O   0  0  0  0  0  0  0  0  0  0  0  0
  160.5430  204.5390  150.7530 N   0  0  0  0  0  2  0  0  0  0  0  0
  160.8600  202.1530  150.5260 C   0  0  0  0  0  2  0  0  0  0  0  0
  161.4600  203.4460  151.0340 C   0  0  0  0  0  3  0  0  0  0  0  0
  160.8060  202.4820  152.0030 C   0  0  0  0  0  2  0  0  0  0  0  0
  1  6  1  0  0  0  0
  1  2  1  6  0  0  0
  3  4  1  0  0  0  0
  4  6  2  0  0  0  0
  5 12  1  0  0  0  0
  6  5  1  0  0  0  0
  7  9  2  0  0  0  0
  8  1  1  0  0  0  0
  9 22  1  0  0  0  0
  9  8  1  0  0  0  0
 10  3  1  0  0  0  0
 10  8  2  0  0  0  0
 11  7  1  0  0  0  0
 11 10  1  0  0  0  0
 13  7  1  0  0  0  0
 14 13  1  0  0  0  0
 15 17  1  0  0  0  0
 15 20  1  0  0  0  0
 16 20  2  0  0  0  0
 17 19  1  0  0  0  0
 18 15  1  0  0  0  0
 19 14  1  0  0  0  0
 19 21  2  0  0  0  0
 20 14  1  0  0  0  0
 22 24  1  0  0  0  0
 23 24  1  0  0  0  0
 23 25  1  0  0  0  0
 24 25  1  0  0  0  0
M  END
>  <MODEL>
1

>  <REMARK>
 VINA RESULT:      -6.4      0.000      0.000
  Name = 
  4 active torsions:
  status: ('A' for Active; 'I' for Inactive)
    1  A    between atoms: N_3  and  C_9
    2  A    between atoms: C_9  and  C_11
    3  A    between atoms: N_12  and  C_15
    4  A    between atoms: N_12  and  C_16
                            x       y       z     vdW  Elec       q    Type
                         _______ _______ _______ _____ _____    ______ ____

>  <TORSDO>
F 4

$$$$
=
 OpenBabel11072411343D

 25 28  0  0  1  0  0  0  0  0999 V2000
  161.5380  206.8690  150.9490 C   0  0  1  0  0  3  0  0  0  0  0  0
  162.9100  206.9450  150.7040 O   0  0  0  0  0  1  0  0  0  0  0  0
  161.3250  205.4740  153.5110 C   0  0  0  0  0  2  0  0  0  0  0  0
  161.0270  204.8270  152.2260 N   0  0  0  0  0  0  0  0  0  0  0  0
  160.8310  204.6590  149.8860 N   0  0  0  0  0  2  0  0  0  0  0  0
  161.1240  205.4140  151.0630 C   0  0  0  0  0  0  0  0  0  0  0  0
  160.8300  209.3970  153.6690 C   0  0  0  0  0  0  0  0  0  0  0  0
  161.2100  207.6220  152.2050 C   0  0  0  0  0  0  0  0  0  0  0  0
  161.0510  209.0150  152.3470 C   0  0  0  0  0  0  0  0  0  0  0  0
  161.1120  206.9460  153.4060 C   0  0  0  0  0  0  0  0  0  0  0  0
  160.8560  208.0330  154.6600 S   0  0  0  0  0  0  0  0  0  0  0  0
  160.8960  205.2300  148.5510 C   0  0  0  0  0  1  0  0  0  0  0  0
  160.6850  210.8000  154.1600 C   0  0  0  0  0  2  0  0  0  0  0  0
  159.3200  211.0420  154.6100 N   0  0  0  0  0  0  0  0  0  0  0  0
  157.2250  212.1170  154.7160 N   0  0  0  0  0  0  0  0  0  0  0  0
  158.3170  211.8640  152.6360 O   0  0  0  0  0  0  0  0  0  0  0  0
  157.5060  211.7010  156.0860 C   0  0  0  0  0  2  0  0  0  0  0  0
  155.9890  212.4220  154.2610 O   0  0  0  0  0  1  0  0  0  0  0  0
  158.8630  211.0780  155.9570 C   0  0  0  0  0  0  0  0  0  0  0  0
  158.2950  211.6930  153.8840 C   0  0  0  0  0  0  0  0  0  0  0  0
  159.5350  210.6390  156.9280 O   0  0  0  0  0  0  0  0  0  0  0  0
  161.1030  209.9730  151.2810 N   0  0  0  0  0  2  0  0  0  0  0  0
  161.9560  211.3480  149.4850 C   0  0  0  0  0  2  0  0  0  0  0  0
  162.2740  210.2360  150.4610 C   0  0  0  0  0  3  0  0  0  0  0  0
  161.9560  209.9080  149.0170 C   0  0  0  0  0  2  0  0  0  0  0  0
  1  2  1  1  0  0  0
  1  6  1  0  0  0  0
  1  8  1  0  0  0  0
  4  3  1  0  0  0  0
  5  6  1  0  0  0  0
  6  4  2  0  0  0  0
  7 13  1  0  0  0  0
  7 11  1  0  0  0  0
  8  9  1  0  0  0  0
  8 10  2  0  0  0  0
  9  7  2  0  0  0  0
 10  3  1  0  0  0  0
 10 11  1  0  0  0  0
 12  5  1  0  0  0  0
 13 14  1  0  0  0  0
 14 19  1  0  0  0  0
 15 17  1  0  0  0  0
 16 20  2  0  0  0  0
 18 15  1  0  0  0  0
 19 17  1  0  0  0  0
 19 21  2  0  0  0  0
 20 14  1  0  0  0  0
 20 15  1  0  0  0  0
 22  9  1  0  0  0  0
 23 24  1  0  0  0  0
 24 22  1  0  0  0  0
 25 23  1  0  0  0  0
 25 24  1  0  0  0  0
M  END
>  <MODEL>
2

>  <REMARK>
 VINA RESULT:      -6.0      3.633      8.355
  Name = 
  4 active torsions:
  status: ('A' for Active; 'I' for Inactive)
    1  A    between atoms: N_3  and  C_9
    2  A    between atoms: C_9  and  C_11
    3  A    between atoms: N_12  and  C_15
    4  A    between atoms: N_12  and  C_16
                            x       y       z     vdW  Elec       q    Type
                         _______ _______ _______ _____ _____    ______ ____

>  <TORSDO>
F 4

$$$$
=
 OpenBabel11072411343D

 25 28  0  0  1  0  0  0  0  0999 V2000
  159.1130  211.1210  153.8830 C   0  0  1  0  0  3  0  0  0  0  0  0
  159.8540  211.5550  154.9820 O   0  0  0  0  0  1  0  0  0  0  0  0
  159.9720  212.8520  151.6870 C   0  0  0  0  0  2  0  0  0  0  0  0
  158.6790  213.0110  152.3650 N   0  0  0  0  0  0  0  0  0  0  0  0
  156.9970  212.5480  153.9470 N   0  0  0  0  0  2  0  0  0  0  0  0
  158.2680  212.2660  153.3570 C   0  0  0  0  0  0  0  0  0  0  0  0
  161.5320  209.2150  151.6910 C   0  0  0  0  0  0  0  0  0  0  0  0
  160.0420  210.6080  152.8220 C   0  0  0  0  0  0  0  0  0  0  0  0
  160.6610  209.3420  152.7710 C   0  0  0  0  0  0  0  0  0  0  0  0
  160.4360  211.4390  151.7910 C   0  0  0  0  0  0  0  0  0  0  0  0
  161.5600  210.6580  150.8190 S   0  0  0  0  0  0  0  0  0  0  0  0
  156.4510  211.7650  155.0430 C   0  0  0  0  0  1  0  0  0  0  0  0
  162.3850  208.0260  151.3920 C   0  0  0  0  0  2  0  0  0  0  0  0
  161.5850  206.9660  150.7910 N   0  0  0  0  0  0  0  0  0  0  0  0
  160.9080  204.7580  150.3160 N   0  0  0  0  0  0  0  0  0  0  0  0
  161.6280  205.3290  152.4930 O   0  0  0  0  0  0  0  0  0  0  0  0
  160.7040  205.4930  149.0720 C   0  0  0  0  0  2  0  0  0  0  0  0
  160.3080  203.5810  150.6020 O   0  0  0  0  0  1  0  0  0  0  0  0
  161.1990  206.8620  149.4250 C   0  0  0  0  0  0  0  0  0  0  0  0
  161.4000  205.6580  151.2990 C   0  0  0  0  0  0  0  0  0  0  0  0
  161.2770  207.8180  148.6090 O   0  0  0  0  0  0  0  0  0  0  0  0
  160.4510  208.2720  153.7030 N   0  0  0  0  0  2  0  0  0  0  0  0
  160.5660  206.9450  155.7210 C   0  0  0  0  0  2  0  0  0  0  0  0
  161.0800  208.1790  155.0100 C   0  0  0  0  0  3  0  0  0  0  0  0
  160.0200  208.3090  156.0850 C   0  0  0  0  0  2  0  0  0  0  0  0
  1  2  1  1  0  0  0
  3 10  1  0  0  0  0
  3  4  1  0  0  0  0
  4  6  2  0  0  0  0
  5 12  1  0  0  0  0
  6  1  1  0  0  0  0
  6  5  1  0  0  0  0
  7  9  2  0  0  0  0
  8  1  1  0  0  0  0
  9  8  1  0  0  0  0
  9 22  1  0  0  0  0
 10  8  2  0  0  0  0
 11  7  1  0  0  0  0
 11 10  1  0  0  0  0
 13  7  1  0  0  0  0
 14 20  1  0  0  0  0
 14 13  1  0  0  0  0
 15 18  1  0  0  0  0
 15 20  1  0  0  0  0
 17 19  1  0  0  0  0
 17 15  1  0  0  0  0
 19 14  1  0  0  0  0
 20 16  2  0  0  0  0
 21 19  2  0  0  0  0
 22 24  1  0  0  0  0
 23 25  1  0  0  0  0
 24 23  1  0  0  0  0
 24 25  1  0  0  0  0
M  END
>  <MODEL>
3

>  <REMARK>
 VINA RESULT:      -6.0      3.212      5.427
  Name = 
  4 active torsions:
  status: ('A' for Active; 'I' for Inactive)
    1  A    between atoms: N_3  and  C_9
    2  A    between atoms: C_9  and  C_11
    3  A    between atoms: N_12  and  C_15
    4  A    between atoms: N_12  and  C_16
                            x       y       z     vdW  Elec       q    Type
                         _______ _______ _______ _____ _____    ______ ____

>  <TORSDO>
F 4

$$$$
=
 OpenBabel11072411343D

 25 28  0  0  1  0  0  0  0  0999 V2000
  161.4000  206.3910  149.0950 C   0  0  1  0  0  3  0  0  0  0  0  0
  160.0640  206.3890  148.6930 O   0  0  0  0  0  1  0  0  0  0  0  0
  162.2380  209.1820  148.8460 C   0  0  0  0  0  2  0  0  0  0  0  0
  162.6360  208.1440  147.8860 N   0  0  0  0  0  0  0  0  0  0  0  0
  162.7050  205.9900  146.9380 N   0  0  0  0  0  2  0  0  0  0  0  0
  162.2690  206.8920  147.9570 C   0  0  0  0  0  0  0  0  0  0  0  0
  161.4480  207.9690  152.5300 C   0  0  0  0  0  0  0  0  0  0  0  0
  161.5570  207.2540  150.3120 C   0  0  0  0  0  0  0  0  0  0  0  0
  161.2670  206.9050  151.6470 C   0  0  0  0  0  0  0  0  0  0  0  0
  161.9560  208.5700  150.1760 C   0  0  0  0  0  0  0  0  0  0  0  0
  161.9370  209.3350  151.6700 S   0  0  0  0  0  0  0  0  0  0  0  0
  162.3620  204.5780  146.9420 C   0  0  0  0  0  1  0  0  0  0  0  0
  161.1670  207.9440  153.9960 C   0  0  0  0  0  2  0  0  0  0  0  0
  161.0540  209.3020  154.5140 N   0  0  0  0  0  0  0  0  0  0  0  0
  160.9770  211.0090  156.1380 N   0  0  0  0  0  0  0  0  0  0  0  0
  162.4790  209.2030  156.3950 O   0  0  0  0  0  0  0  0  0  0  0  0
  160.0210  211.4180  155.1140 C   0  0  0  0  0  2  0  0  0  0  0  0
  161.5220  211.8570  157.0400 O   0  0  0  0  0  1  0  0  0  0  0  0
  160.0800  210.2730  154.1480 C   0  0  0  0  0  0  0  0  0  0  0  0
  161.5750  209.7840  155.7390 C   0  0  0  0  0  0  0  0  0  0  0  0
  159.3490  210.1700  153.1290 O   0  0  0  0  0  0  0  0  0  0  0  0
  160.8310  205.6150  152.0970 N   0  0  0  0  0  2  0  0  0  0  0  0
  160.8570  203.5110  150.9060 C   0  0  0  0  0  2  0  0  0  0  0  0
  161.5770  204.3810  151.9150 C   0  0  0  0  0  3  0  0  0  0  0  0
  160.7330  203.2140  152.3860 C   0  0  0  0  0  2  0  0  0  0  0  0
  1  2  1  6  0  0  0
  1  8  1  0  0  0  0
  3 10  1  0  0  0  0
  4  6  2  0  0  0  0
  4  3  1  0  0  0  0
  5 12  1  0  0  0  0
  5  6  1  0  0  0  0
  6  1  1  0  0  0  0
  7 13  1  0  0  0  0
  8  9  1  0  0  0  0
  9 22  1  0  0  0  0
  9  7  2  0  0  0  0
 10  8  2  0  0  0  0
 10 11  1  0  0  0  0
 11  7  1  0  0  0  0
 13 14  1  0  0  0  0
 14 20  1  0  0  0  0
 15 18  1  0  0  0  0
 17 15  1  0  0  0  0
 19 14  1  0  0  0  0
 19 17  1  0  0  0  0
 20 15  1  0  0  0  0
 20 16  2  0  0  0  0
 21 19  2  0  0  0  0
 23 24  1  0  0  0  0
 23 25  1  0  0  0  0
 24 22  1  0  0  0  0
 24 25  1  0  0  0  0
M  END
>  <MODEL>
4

>  <REMARK>
 VINA RESULT:      -5.9      2.687      7.538
  Name = 
  4 active torsions:
  status: ('A' for Active; 'I' for Inactive)
    1  A    between atoms: N_3  and  C_9
    2  A    between atoms: C_9  and  C_11
    3  A    between atoms: N_12  and  C_15
    4  A    between atoms: N_12  and  C_16
                            x       y       z     vdW  Elec       q    Type
                         _______ _______ _______ _____ _____    ______ ____

>  <TORSDO>
F 4

$$$$
=
 OpenBabel11072411343D

 25 28  0  0  1  0  0  0  0  0999 V2000
  161.5640  207.0960  150.9560 C   0  0  1  0  0  3  0  0  0  0  0  0
  162.9290  207.1400  150.6710 O   0  0  0  0  0  1  0  0  0  0  0  0
  161.4000  205.8080  153.5760 C   0  0  0  0  0  2  0  0  0  0  0  0
  161.0570  205.1160  152.3270 N   0  0  0  0  0  0  0  0  0  0  0  0
  160.7940  204.8580  150.0020 N   0  0  0  0  0  2  0  0  0  0  0  0
  161.1310  205.6540  151.1390 C   0  0  0  0  0  0  0  0  0  0  0  0
  160.9690  209.7420  153.5900 C   0  0  0  0  0  0  0  0  0  0  0  0
  161.2820  207.9040  152.1890 C   0  0  0  0  0  0  0  0  0  0  0  0
  161.1480  209.3040  152.2790 C   0  0  0  0  0  0  0  0  0  0  0  0
  161.2060  207.2780  153.4180 C   0  0  0  0  0  0  0  0  0  0  0  0
  161.0010  208.4170  154.6340 S   0  0  0  0  0  0  0  0  0  0  0  0
  160.8310  205.3740  148.6440 C   0  0  0  0  0  1  0  0  0  0  0  0
  160.8590  211.1650  154.0280 C   0  0  0  0  0  2  0  0  0  0  0  0
  159.4880  211.4730  154.4140 N   0  0  0  0  0  0  0  0  0  0  0  0
  157.4750  211.2780  155.6250 N   0  0  0  0  0  0  0  0  0  0  0  0
  159.5480  211.0390  156.7350 O   0  0  0  0  0  0  0  0  0  0  0  0
  157.0660  211.5940  154.2610 C   0  0  0  0  0  2  0  0  0  0  0  0
  156.6840  211.4530  156.7070 O   0  0  0  0  0  1  0  0  0  0  0  0
  158.3780  211.6510  153.5400 C   0  0  0  0  0  0  0  0  0  0  0  0
  158.8930  211.2400  155.6770 C   0  0  0  0  0  0  0  0  0  0  0  0
  158.4970  211.8280  152.2990 O   0  0  0  0  0  0  0  0  0  0  0  0
  161.1850  210.2180  151.1750 N   0  0  0  0  0  2  0  0  0  0  0  0
  162.0010  211.4870  149.2850 C   0  0  0  0  0  2  0  0  0  0  0  0
  162.3310  210.4160  150.3030 C   0  0  0  0  0  3  0  0  0  0  0  0
  161.9560  210.0270  148.8880 C   0  0  0  0  0  2  0  0  0  0  0  0
  1  2  1  1  0  0  0
  1  6  1  0  0  0  0
  1  8  1  0  0  0  0
  4  3  1  0  0  0  0
  5  6  1  0  0  0  0
  6  4  2  0  0  0  0
  7 13  1  0  0  0  0
  7 11  1  0  0  0  0
  8  9  1  0  0  0  0
  8 10  2  0  0  0  0
  9  7  2  0  0  0  0
 10  3  1  0  0  0  0
 10 11  1  0  0  0  0
 12  5  1  0  0  0  0
 13 14  1  0  0  0  0
 14 20  1  0  0  0  0
 15 20  1  0  0  0  0
 15 18  1  0  0  0  0
 17 15  1  0  0  0  0
 19 17  1  0  0  0  0
 19 14  1  0  0  0  0
 20 16  2  0  0  0  0
 21 19  2  0  0  0  0
 22  9  1  0  0  0  0
 23 24  1  0  0  0  0
 24 22  1  0  0  0  0
 25 23  1  0  0  0  0
 25 24  1  0  0  0  0
M  END
>  <MODEL>
5

>  <REMARK>
 VINA RESULT:      -5.9      3.614      8.451
  Name = 
  4 active torsions:
  status: ('A' for Active; 'I' for Inactive)
    1  A    between atoms: N_3  and  C_9
    2  A    between atoms: C_9  and  C_11
    3  A    between atoms: N_12  and  C_15
    4  A    between atoms: N_12  and  C_16
                            x       y       z     vdW  Elec       q    Type
                         _______ _______ _______ _____ _____    ______ ____

>  <TORSDO>
F 4

$$$$
=
 OpenBabel11072411343D

 25 28  0  0  1  0  0  0  0  0999 V2000
  161.0800  205.2370  149.6930 C   0  0  1  0  0  3  0  0  0  0  0  0
  159.7310  205.1820  150.0450 O   0  0  0  0  0  1  0  0  0  0  0  0
  161.1160  206.6690  147.1430 C   0  0  0  0  0  2  0  0  0  0  0  0
  161.3070  205.2160  147.2410 N   0  0  0  0  0  0  0  0  0  0  0  0
  161.4550  203.1240  148.3110 N   0  0  0  0  0  2  0  0  0  0  0  0
  161.2830  204.5420  148.3600 C   0  0  0  0  0  0  0  0  0  0  0  0
  162.1660  208.8060  150.3040 C   0  0  0  0  0  0  0  0  0  0  0  0
  161.5230  206.6690  149.6250 C   0  0  0  0  0  0  0  0  0  0  0  0
  161.8800  207.5020  150.7050 C   0  0  0  0  0  0  0  0  0  0  0  0
  161.5360  207.3290  148.4120 C   0  0  0  0  0  0  0  0  0  0  0  0
  161.9560  208.9390  148.6360 S   0  0  0  0  0  0  0  0  0  0  0  0
  161.4590  202.2930  149.5030 C   0  0  0  0  0  1  0  0  0  0  0  0
  162.5140  209.9420  151.2090 C   0  0  0  0  0  2  0  0  0  0  0  0
  161.3220  210.7130  151.5370 N   0  0  0  0  0  0  0  0  0  0  0  0
  159.9150  212.6020  151.6380 N   0  0  0  0  0  0  0  0  0  0  0  0
  161.2040  212.1940  149.7000 O   0  0  0  0  0  0  0  0  0  0  0  0
  159.6970  211.9000  152.8990 C   0  0  0  0  0  2  0  0  0  0  0  0
  159.0530  213.5070  151.1220 O   0  0  0  0  0  1  0  0  0  0  0  0
  160.6520  210.7500  152.7920 C   0  0  0  0  0  0  0  0  0  0  0  0
  160.8500  211.8650  150.8630 C   0  0  0  0  0  0  0  0  0  0  0  0
  160.8520  209.9100  153.7090 O   0  0  0  0  0  0  0  0  0  0  0  0
  161.9560  207.1000  152.0800 N   0  0  0  0  0  2  0  0  0  0  0  0
  161.2240  206.5740  154.3230 C   0  0  0  0  0  2  0  0  0  0  0  0
  160.8310  206.6140  152.8620 C   0  0  0  0  0  3  0  0  0  0  0  0
  161.2050  205.2970  153.5100 C   0  0  0  0  0  2  0  0  0  0  0  0
  1  2  1  6  0  0  0
  3  4  1  0  0  0  0
  3 10  1  0  0  0  0
  4  6  2  0  0  0  0
  5  6  1  0  0  0  0
  5 12  1  0  0  0  0
  6  1  1  0  0  0  0
  7  9  2  0  0  0  0
  7 13  1  0  0  0  0
  8  1  1  0  0  0  0
  8  9  1  0  0  0  0
  9 22  1  0  0  0  0
 10 11  1  0  0  0  0
 10  8  2  0  0  0  0
 11  7  1  0  0  0  0
 13 14  1  0  0  0  0
 14 19  1  0  0  0  0
 15 17  1  0  0  0  0
 16 20  2  0  0  0  0
 18 15  1  0  0  0  0
 19 17  1  0  0  0  0
 19 21  2  0  0  0  0
 20 14  1  0  0  0  0
 20 15  1  0  0  0  0
 22 24  1  0  0  0  0
 24 25  1  0  0  0  0
 24 23  1  0  0  0  0
 25 23  1  0  0  0  0
M  END
>  <MODEL>
6

>  <REMARK>
 VINA RESULT:      -5.8      2.942      6.621
  Name = 
  4 active torsions:
  status: ('A' for Active; 'I' for Inactive)
    1  A    between atoms: N_3  and  C_9
    2  A    between atoms: C_9  and  C_11
    3  A    between atoms: N_12  and  C_15
    4  A    between atoms: N_12  and  C_16
                            x       y       z     vdW  Elec       q    Type
                         _______ _______ _______ _____ _____    ______ ____

>  <TORSDO>
F 4

$$$$
=
 OpenBabel11072411343D

 25 28  0  0  1  0  0  0  0  0999 V2000
  161.7580  207.2530  148.4940 C   0  0  1  0  0  3  0  0  0  0  0  0
  163.0880  206.8980  148.2670 O   0  0  0  0  0  1  0  0  0  0  0  0
  160.8670  205.4450  150.6140 C   0  0  0  0  0  2  0  0  0  0  0  0
  160.4740  205.2770  149.2090 N   0  0  0  0  0  0  0  0  0  0  0  0
  160.4290  205.7610  146.9050 N   0  0  0  0  0  2  0  0  0  0  0  0
  160.8640  206.0550  148.2340 C   0  0  0  0  0  0  0  0  0  0  0  0
  161.7320  209.1280  151.7760 C   0  0  0  0  0  0  0  0  0  0  0  0
  161.6030  207.7440  149.9040 C   0  0  0  0  0  0  0  0  0  0  0  0
  161.9190  209.0250  150.3990 C   0  0  0  0  0  0  0  0  0  0  0  0
  161.1790  206.8760  150.8920 C   0  0  0  0  0  0  0  0  0  0  0  0
  161.2060  207.6450  152.3840 S   0  0  0  0  0  0  0  0  0  0  0  0
  160.7980  206.5780  145.7610 C   0  0  0  0  0  1  0  0  0  0  0  0
  162.0340  210.3280  152.6120 C   0  0  0  0  0  2  0  0  0  0  0  0
  160.8890  210.6660  153.4480 N   0  0  0  0  0  0  0  0  0  0  0  0
  159.1530  212.0020  154.3190 N   0  0  0  0  0  0  0  0  0  0  0  0
  159.6700  212.0950  152.0160 O   0  0  0  0  0  0  0  0  0  0  0  0
  159.6380  211.2240  155.4550 C   0  0  0  0  0  2  0  0  0  0  0  0
  157.9410  212.6010  154.2800 O   0  0  0  0  0  1  0  0  0  0  0  0
  160.7650  210.4440  154.8490 C   0  0  0  0  0  0  0  0  0  0  0  0
  159.8920  211.6300  153.1650 C   0  0  0  0  0  0  0  0  0  0  0  0
  161.5270  209.6810  155.4990 O   0  0  0  0  0  0  0  0  0  0  0  0
  162.3840  210.1320  149.6150 N   0  0  0  0  0  2  0  0  0  0  0  0
  162.4610  211.8330  147.8980 C   0  0  0  0  0  2  0  0  0  0  0  0
  161.5810  210.8470  148.6350 C   0  0  0  0  0  3  0  0  0  0  0  0
  161.5420  212.3170  148.9990 C   0  0  0  0  0  2  0  0  0  0  0  0
  1  2  1  1  0  0  0
  1  8  1  0  0  0  0
  3 10  1  0  0  0  0
  4  3  1  0  0  0  0
  5  6  1  0  0  0  0
  6  1  1  0  0  0  0
  6  4  2  0  0  0  0
  7 11  1  0  0  0  0
  7 13  1  0  0  0  0
  8  9  1  0  0  0  0
  8 10  2  0  0  0  0
  9  7  2  0  0  0  0
 10 11  1  0  0  0  0
 12  5  1  0  0  0  0
 13 14  1  0  0  0  0
 14 19  1  0  0  0  0
 15 17  1  0  0  0  0
 16 20  2  0  0  0  0
 18 15  1  0  0  0  0
 19 17  1  0  0  0  0
 19 21  2  0  0  0  0
 20 14  1  0  0  0  0
 20 15  1  0  0  0  0
 22  9  1  0  0  0  0
 23 24  1  0  0  0  0
 23 25  1  0  0  0  0
 24 25  1  0  0  0  0
 24 22  1  0  0  0  0
M  END
>  <MODEL>
7

>  <REMARK>
 VINA RESULT:      -5.6      3.090      8.093
  Name = 
  4 active torsions:
  status: ('A' for Active; 'I' for Inactive)
    1  A    between atoms: N_3  and  C_9
    2  A    between atoms: C_9  and  C_11
    3  A    between atoms: N_12  and  C_15
    4  A    between atoms: N_12  and  C_16
                            x       y       z     vdW  Elec       q    Type
                         _______ _______ _______ _____ _____    ______ ____

>  <TORSDO>
F 4

$$$$
=
 OpenBabel11072411343D

 25 28  0  0  1  0  0  0  0  0999 V2000
  161.3930  206.3940  149.0900 C   0  0  1  0  0  3  0  0  0  0  0  0
  160.0550  206.4040  148.6940 O   0  0  0  0  0  1  0  0  0  0  0  0
  162.2490  209.1810  148.8530 C   0  0  0  0  0  2  0  0  0  0  0  0
  162.6360  208.1450  147.8850 N   0  0  0  0  0  0  0  0  0  0  0  0
  162.6870  205.9960  146.9270 N   0  0  0  0  0  2  0  0  0  0  0  0
  162.2610  206.8950  147.9520 C   0  0  0  0  0  0  0  0  0  0  0  0
  161.4660  207.9540  152.5330 C   0  0  0  0  0  0  0  0  0  0  0  0
  161.5610  207.2500  150.3120 C   0  0  0  0  0  0  0  0  0  0  0  0
  161.2740  206.8970  151.6460 C   0  0  0  0  0  0  0  0  0  0  0  0
  161.9690  208.5640  150.1800 C   0  0  0  0  0  0  0  0  0  0  0  0
  161.9610  209.3220  151.6780 S   0  0  0  0  0  0  0  0  0  0  0  0
  162.3330  204.5860  146.9240 C   0  0  0  0  0  1  0  0  0  0  0  0
  161.1900  207.9250  154.0000 C   0  0  0  0  0  2  0  0  0  0  0  0
  160.8680  209.2610  154.4840 N   0  0  0  0  0  0  0  0  0  0  0  0
  160.2940  211.5430  154.3430 N   0  0  0  0  0  0  0  0  0  0  0  0
  159.3290  209.9900  152.8470 O   0  0  0  0  0  0  0  0  0  0  0  0
  161.2070  211.4520  155.4780 C   0  0  0  0  0  2  0  0  0  0  0  0
  159.4420  212.5740  154.1440 O   0  0  0  0  0  1  0  0  0  0  0  0
  161.5710  209.9980  155.4780 C   0  0  0  0  0  0  0  0  0  0  0  0
  160.1040  210.2420  153.8070 C   0  0  0  0  0  0  0  0  0  0  0  0
  162.4100  209.4790  156.2600 O   0  0  0  0  0  0  0  0  0  0  0  0
  160.8310  205.6080  152.0910 N   0  0  0  0  0  2  0  0  0  0  0  0
  160.8680  203.5000  150.9060 C   0  0  0  0  0  2  0  0  0  0  0  0
  161.5780  204.3720  151.9200 C   0  0  0  0  0  3  0  0  0  0  0  0
  160.7290  203.2070  152.3850 C   0  0  0  0  0  2  0  0  0  0  0  0
  1  2  1  6  0  0  0
  1  8  1  0  0  0  0
  3 10  1  0  0  0  0
  4  6  2  0  0  0  0
  4  3  1  0  0  0  0
  5  6  1  0  0  0  0
  6  1  1  0  0  0  0
  7 13  1  0  0  0  0
  8  9  1  0  0  0  0
  9 22  1  0  0  0  0
  9  7  2  0  0  0  0
 10  8  2  0  0  0  0
 10 11  1  0  0  0  0
 11  7  1  0  0  0  0
 12  5  1  0  0  0  0
 13 14  1  0  0  0  0
 14 19  1  0  0  0  0
 15 17  1  0  0  0  0
 16 20  2  0  0  0  0
 17 19  1  0  0  0  0
 18 15  1  0  0  0  0
 19 21  2  0  0  0  0
 20 15  1  0  0  0  0
 20 14  1  0  0  0  0
 23 24  1  0  0  0  0
 23 25  1  0  0  0  0
 24 22  1  0  0  0  0
 24 25  1  0  0  0  0
M  END
>  <MODEL>
8

>  <REMARK>
 VINA RESULT:      -5.5      2.681      7.118
  Name = 
  4 active torsions:
  status: ('A' for Active; 'I' for Inactive)
    1  A    between atoms: N_3  and  C_9
    2  A    between atoms: C_9  and  C_11
    3  A    between atoms: N_12  and  C_15
    4  A    between atoms: N_12  and  C_16
                            x       y       z     vdW  Elec       q    Type
                         _______ _______ _______ _____ _____    ______ ____

>  <TORSDO>
F 4

$$$$
=
 OpenBabel11072411343D

 25 28  0  0  1  0  0  0  0  0999 V2000
  160.9230  206.2560  149.6450 C   0  0  1  0  0  3  0  0  0  0  0  0
  159.5470  206.3390  149.4280 O   0  0  0  0  0  1  0  0  0  0  0  0
  162.0700  208.2940  147.8880 C   0  0  0  0  0  2  0  0  0  0  0  0
  162.1350  206.8580  147.5880 N   0  0  0  0  0  0  0  0  0  0  0  0
  161.7320  204.5610  147.9160 N   0  0  0  0  0  2  0  0  0  0  0  0
  161.6220  205.9210  148.3410 C   0  0  0  0  0  0  0  0  0  0  0  0
  161.8310  209.2890  151.7110 C   0  0  0  0  0  0  0  0  0  0  0  0
  161.4230  207.5560  150.2050 C   0  0  0  0  0  0  0  0  0  0  0  0
  161.3450  207.9940  151.5420 C   0  0  0  0  0  0  0  0  0  0  0  0
  161.9630  208.5060  149.3600 C   0  0  0  0  0  0  0  0  0  0  0  0
  162.3300  209.9000  150.2210 S   0  0  0  0  0  0  0  0  0  0  0  0
  161.2070  203.4520  148.6940 C   0  0  0  0  0  1  0  0  0  0  0  0
  161.8310  210.0620  152.9890 C   0  0  0  0  0  2  0  0  0  0  0  0
  160.4800  210.5000  153.3160 N   0  0  0  0  0  0  0  0  0  0  0  0
  158.6840  212.0070  153.5670 N   0  0  0  0  0  0  0  0  0  0  0  0
  160.1400  212.2040  151.7160 O   0  0  0  0  0  0  0  0  0  0  0  0
  158.5570  211.0780  154.6840 C   0  0  0  0  0  2  0  0  0  0  0  0
  157.6730  212.7810  153.1130 O   0  0  0  0  0  1  0  0  0  0  0  0
  159.7480  210.1880  154.4970 C   0  0  0  0  0  0  0  0  0  0  0  0
  159.8020  211.6210  152.7810 C   0  0  0  0  0  0  0  0  0  0  0  0
  160.0780  209.2700  155.2930 O   0  0  0  0  0  0  0  0  0  0  0  0
  160.8310  207.2290  152.6420 N   0  0  0  0  0  2  0  0  0  0  0  0
  162.4780  205.4640  152.5260 C   0  0  0  0  0  2  0  0  0  0  0  0
  161.6140  206.3030  153.4430 C   0  0  0  0  0  3  0  0  0  0  0  0
  161.2060  204.8830  153.1060 C   0  0  0  0  0  2  0  0  0  0  0  0
  1  2  1  6  0  0  0
  1  8  1  0  0  0  0
  3 10  1  0  0  0  0
  4  3  1  0  0  0  0
  4  6  2  0  0  0  0
  5  6  1  0  0  0  0
  5 12  1  0  0  0  0
  6  1  1  0  0  0  0
  7 13  1  0  0  0  0
  8  9  1  0  0  0  0
  9  7  2  0  0  0  0
  9 22  1  0  0  0  0
 10  8  2  0  0  0  0
 10 11  1  0  0  0  0
 11  7  1  0  0  0  0
 13 14  1  0  0  0  0
 14 19  1  0  0  0  0
 15 17  1  0  0  0  0
 16 20  2  0  0  0  0
 18 15  1  0  0  0  0
 19 17  1  0  0  0  0
 19 21  2  0  0  0  0
 20 14  1  0  0  0  0
 20 15  1  0  0  0  0
 22 24  1  0  0  0  0
 23 25  1  0  0  0  0
 23 24  1  0  0  0  0
 25 24  1  0  0  0  0
M  END
>  <MODEL>
9

>  <REMARK>
 VINA RESULT:      -5.5      3.076      7.116
  Name = 
  4 active torsions:
  status: ('A' for Active; 'I' for Inactive)
    1  A    between atoms: N_3  and  C_9
    2  A    between atoms: C_9  and  C_11
    3  A    between atoms: N_12  and  C_15
    4  A    between atoms: N_12  and  C_16
                            x       y       z     vdW  Elec       q    Type
                         _______ _______ _______ _____ _____    ______ ____

>  <TORSDO>
F 4

$$$$
