=
 OpenBabel11072414583D

 39 43  0  0  1  0  0  0  0  0999 V2000
  158.7070  213.3390  151.2060 F   0  0  0  0  0  0  0  0  0  0  0  0
  161.4660  208.1980  153.0320 N   0  0  0  0  0  0  0  0  0  0  0  0
  161.3100  209.8830  151.3100 C   0  0  0  0  0  0  0  0  0  0  0  0
  161.3410  208.4590  151.7620 C   0  0  0  0  0  0  0  0  0  0  0  0
  160.1000  211.8280  152.2280 C   0  0  0  0  0  3  0  0  0  0  0  0
  160.6830  212.6180  149.9400 C   0  0  0  0  0  0  0  0  0  0  0  0
  161.4900  210.5020  153.7460 C   0  0  0  0  0  3  0  0  0  0  0  0
  161.3260  211.5510  149.4390 C   0  0  0  0  0  3  0  0  0  0  0  0
  161.3250  210.9890  152.3360 C   0  0  1  0  0  3  0  0  0  0  0  0
  161.3850  210.1900  150.0100 C   0  0  0  0  0  3  0  0  0  0  0  0
  159.8140  212.5610  151.1500 C   0  0  0  0  0  0  0  0  0  0  0  0
  161.5550  209.2060  154.0460 C   0  0  0  0  0  3  0  0  0  0  0  0
  159.9760  213.8620  147.8370 C   0  0  0  0  0  0  0  0  0  0  0  0
  162.8490  213.6820  147.6680 C   0  0  0  0  0  2  0  0  0  0  0  0
  162.2210  214.3400  148.9000 C   0  0  0  0  0  2  0  0  0  0  0  0
  160.7720  213.8800  149.1200 C   0  0  2  0  0  3  0  0  0  0  0  0
  160.6260  214.4530  146.6030 C   0  0  1  0  0  3  0  0  0  0  0  0
  161.9710  212.6580  145.6930 O   0  0  0  0  0  1  0  0  0  0  0  0
  157.5120  213.2170  147.8900 O   0  0  0  0  0  0  0  0  0  0  0  0
  158.7080  213.5320  147.8640 C   0  0  0  0  0  0  0  0  0  0  0  0
  162.0350  213.8740  146.3760 C   0  0  2  0  0  3  0  0  0  0  0  0
  159.7810  214.4220  145.3250 C   0  0  0  0  0  2  0  0  0  0  0  0
  159.5030  212.9930  144.8810 C   0  0  0  0  0  2  0  0  0  0  0  0
  159.8960  211.8890  142.8430 O   0  0  0  0  0  0  0  0  0  0  0  0
  159.5010  212.9030  143.3920 C   0  0  0  0  0  3  0  0  0  0  0  0
  161.1080  204.5080  149.3410 C   0  0  0  0  0  0  0  0  0  0  0  0
  161.2400  204.8150  150.6860 C   0  0  0  0  0  2  0  0  0  0  0  0
  161.2320  207.3150  150.8180 C   0  0  0  0  0  0  0  0  0  0  0  0
  161.2990  206.0330  151.3350 C   0  0  0  0  0  3  0  0  0  0  0  0
  161.0170  205.4340  148.2730 C   0  0  2  0  0  3  0  0  0  0  0  0
  161.0290  206.7830  148.4120 N   0  0  0  0  0  0  0  0  0  0  0  0
  161.1190  207.6230  149.4670 C   0  0  0  0  0  3  0  0  0  0  0  0
  161.0690  203.2760  149.0820 O   0  0  0  0  0  0  0  0  0  0  0  0
  162.1600  204.6080  146.0720 C   0  0  2  0  0  3  0  0  0  0  0  0
  160.5960  206.0790  145.8110 C   0  0  0  0  0  2  0  0  0  0  0  0
  160.8820  204.9840  146.8250 C   0  0  2  0  0  3  0  0  0  0  0  0
  163.3740  204.9330  146.8070 N   0  0  0  0  0  1  0  0  0  0  0  0
  161.5210  205.1200  143.8340 O   0  0  0  0  0  1  0  0  0  0  0  0
  161.8630  205.7000  145.0560 C   0  0  2  0  0  3  0  0  0  0  0  0
  2 12  1  0  0  0  0
  3  4  1  0  0  0  0
  3  9  1  0  0  0  0
  4  2  2  0  0  0  0
  6 11  1  0  0  0  0
  7 12  2  0  0  0  0
  8  6  2  0  0  0  0
  8 10  1  0  0  0  0
  9  5  1  1  0  0  0
  9  7  1  0  0  0  0
 10  3  2  0  0  0  0
 11  1  1  0  0  0  0
 11  5  2  0  0  0  0
 13 20  2  0  0  0  0
 13 16  1  0  0  0  0
 14 15  1  0  0  0  0
 15 16  1  0  0  0  0
 16  6  1  6  0  0  0
 17 22  1  6  0  0  0
 17 13  1  0  0  0  0
 20 19  2  0  0  0  0
 21 18  1  1  0  0  0
 21 17  1  0  0  0  0
 21 14  1  0  0  0  0
 23 22  1  0  0  0  0
 24 25  2  0  0  0  0
 25 23  1  0  0  0  0
 26 27  1  0  0  0  0
 27 29  1  0  0  0  0
 28 29  2  0  0  0  0
 28  4  1  0  0  0  0
 30 31  1  1  0  0  0
 30 26  1  0  0  0  0
 31 32  2  0  0  0  0
 32 28  1  0  0  0  0
 33 26  2  0  0  0  0
 34 37  1  1  0  0  0
 34 36  1  0  0  0  0
 36 35  1  6  0  0  0
 36 30  1  0  0  0  0
 39 38  1  6  0  0  0
 39 35  1  0  0  0  0
 39 34  1  0  0  0  0
M  END
>  <MODEL>
1

>  <REMARK>
 VINA RESULT:      -7.3      0.000      0.000
  Name = 
  6 active torsions:
  status: ('A' for Active; 'I' for Inactive)
    1  A    between atoms: C_7  and  C_14
    2  A    between atoms: C_12  and  C_19
    3  A    between atoms: C_16  and  C_22
    4  A    between atoms: C_16  and  C_37
    5  A    between atoms: C_18  and  C_27
    6  A    between atoms: C_21  and  C_22
                            x       y       z     vdW  Elec       q    Type
                         _______ _______ _______ _____ _____    ______ ____

>  <TORSDO>
F 6

$$$$
=
 OpenBabel11072414583D

 39 43  0  0  1  0  0  0  0  0999 V2000
  160.0170  205.1970  148.3210 F   0  0  0  0  0  0  0  0  0  0  0  0
  161.4060  210.5910  150.8410 N   0  0  0  0  0  0  0  0  0  0  0  0
  161.5670  208.1900  151.0360 C   0  0  0  0  0  0  0  0  0  0  0  0
  161.2450  209.5390  151.5920 C   0  0  2  0  0  3  0  0  0  0  0  0
  161.0250  207.1910  148.8450 C   0  0  0  0  0  3  0  0  0  0  0  0
  161.5980  205.1820  150.1990 C   0  0  0  0  0  0  0  0  0  0  0  0
  162.1260  209.3780  148.8850 C   0  0  0  0  0  3  0  0  0  0  0  0
  161.8750  205.7280  151.3940 C   0  0  0  0  0  3  0  0  0  0  0  0
  161.9770  208.0620  149.5890 C   0  0  0  0  0  0  0  0  0  0  0  0
  161.6080  207.1140  151.8300 C   0  0  0  0  0  3  0  0  0  0  0  0
  160.8570  205.8960  149.1200 C   0  0  0  0  0  0  0  0  0  0  0  0
  161.8580  210.5370  149.4830 C   0  0  0  0  0  3  0  0  0  0  0  0
  161.6250  203.1260  148.7020 C   0  0  0  0  0  0  0  0  0  0  0  0
  160.0130  202.3750  150.9720 C   0  0  0  0  0  2  0  0  0  0  0  0
  161.4440  202.8660  151.2110 C   0  0  0  0  0  2  0  0  0  0  0  0
  161.9580  203.7260  150.0470 C   0  0  2  0  0  3  0  0  0  0  0  0
  161.0290  201.7340  148.6860 C   0  0  1  0  0  3  0  0  0  0  0  0
  158.6560  202.0730  149.0250 O   0  0  0  0  0  1  0  0  0  0  0  0
  162.4150  204.2830  146.5740 O   0  0  0  0  0  0  0  0  0  0  0  0
  162.0320  203.7200  147.6070 C   0  0  0  0  0  0  0  0  0  0  0  0
  159.8270  201.6240  149.6410 C   0  0  2  0  0  3  0  0  0  0  0  0
  160.7130  201.1600  147.3000 C   0  0  0  0  0  2  0  0  0  0  0  0
  161.5540  199.9250  147.0100 C   0  0  0  0  0  2  0  0  0  0  0  0
  161.2140  198.1570  145.4970 O   0  0  0  0  0  0  0  0  0  0  0  0
  161.2080  199.3640  145.6720 C   0  0  0  0  0  3  0  0  0  0  0  0
  159.9130  209.5510  156.0360 C   0  0  0  0  0  0  0  0  0  0  0  0
  160.6430  208.6790  155.2450 C   0  0  0  0  0  3  0  0  0  0  0  0
  160.7420  209.7360  152.9780 C   0  0  2  0  0  3  0  0  0  0  0  0
  161.0040  208.7500  153.9140 C   0  0  0  0  0  3  0  0  0  0  0  0
  159.3290  210.7720  155.6210 C   0  0  2  0  0  3  0  0  0  0  0  0
  159.4110  211.2870  154.3700 N   0  0  0  0  0  0  0  0  0  0  0  0
  159.9970  210.8840  153.2190 C   0  0  0  0  0  3  0  0  0  0  0  0
  159.7790  209.1890  157.2360 O   0  0  0  0  0  0  0  0  0  0  0  0
  157.0110  211.5810  156.5170 C   0  0  2  0  0  3  0  0  0  0  0  0
  158.4900  213.1330  156.2350 C   0  0  0  0  0  2  0  0  0  0  0  0
  158.5380  211.6540  156.5780 C   0  0  2  0  0  3  0  0  0  0  0  0
  156.5180  210.8060  155.3870 N   0  0  0  0  0  1  0  0  0  0  0  0
  156.4340  213.7700  157.2610 O   0  0  0  0  0  1  0  0  0  0  0  0
  156.9690  213.0640  156.1830 C   0  0  2  0  0  3  0  0  0  0  0  0
  1 11  1  0  0  0  0
  3  4  1  0  0  0  0
  3 10  2  0  0  0  0
  4  2  1  6  0  0  0
  4 28  1  0  0  0  0
  5 11  2  0  0  0  0
  5  9  1  0  0  0  0
  6  8  2  0  0  0  0
  7 12  1  0  0  0  0
  7  9  2  0  0  0  0
  8 10  1  0  0  0  0
  9  3  1  0  0  0  0
 11  6  1  0  0  0  0
 12  2  2  0  0  0  0
 13 16  1  0  0  0  0
 14 15  1  0  0  0  0
 16  6  1  6  0  0  0
 16 15  1  0  0  0  0
 17 22  1  6  0  0  0
 17 13  1  0  0  0  0
 17 21  1  0  0  0  0
 19 20  2  0  0  0  0
 20 13  2  0  0  0  0
 21 18  1  6  0  0  0
 21 14  1  0  0  0  0
 23 22  1  0  0  0  0
 24 25  2  0  0  0  0
 25 23  1  0  0  0  0
 26 33  2  0  0  0  0
 27 26  1  0  0  0  0
 28 32  1  6  0  0  0
 28 29  1  0  0  0  0
 29 27  2  0  0  0  0
 30 31  1  1  0  0  0
 30 26  1  0  0  0  0
 30 36  1  0  0  0  0
 32 31  2  0  0  0  0
 34 37  1  6  0  0  0
 34 36  1  0  0  0  0
 36 35  1  6  0  0  0
 39 35  1  0  0  0  0
 39 34  1  0  0  0  0
 39 38  1  1  0  0  0
M  END
>  <MODEL>
2

>  <REMARK>
 VINA RESULT:      -7.1      4.277      9.895
  Name = 
  6 active torsions:
  status: ('A' for Active; 'I' for Inactive)
    1  A    between atoms: C_7  and  C_14
    2  A    between atoms: C_12  and  C_19
    3  A    between atoms: C_16  and  C_22
    4  A    between atoms: C_16  and  C_37
    5  A    between atoms: C_18  and  C_27
    6  A    between atoms: C_21  and  C_22
                            x       y       z     vdW  Elec       q    Type
                         _______ _______ _______ _____ _____    ______ ____

>  <TORSDO>
F 6

$$$$
=
 OpenBabel11072414583D

 39 43  0  0  1  0  0  0  0  0999 V2000
  162.8630  210.2880  154.2440 F   0  0  0  0  0  0  0  0  0  0  0  0
  162.3090  208.4490  148.4400 N   0  0  0  0  0  0  0  0  0  0  0  0
  161.2910  208.5020  150.6290 C   0  0  0  0  0  0  0  0  0  0  0  0
  161.7330  207.7790  149.3970 C   0  0  2  0  0  3  0  0  0  0  0  0
  162.4510  210.2040  151.9880 C   0  0  0  0  0  3  0  0  0  0  0  0
  160.6730  209.4250  153.5460 C   0  0  0  0  0  0  0  0  0  0  0  0
  162.2600  210.5760  149.5750 C   0  0  0  0  0  3  0  0  0  0  0  0
  160.0560  208.4880  152.8090 C   0  0  0  0  0  3  0  0  0  0  0  0
  161.6080  209.9690  150.7820 C   0  0  0  0  0  0  0  0  0  0  0  0
  160.5230  207.8940  151.5400 C   0  0  0  0  0  3  0  0  0  0  0  0
  162.0280  209.9610  153.2300 C   0  0  0  0  0  0  0  0  0  0  0  0
  162.5740  209.8550  148.5000 C   0  0  0  0  0  3  0  0  0  0  0  0
  160.0890  211.2820  155.1840 C   0  0  0  0  0  0  0  0  0  0  0  0
  161.5830  209.3610  156.7320 C   0  0  0  0  0  2  0  0  0  0  0  0
  160.3220  208.8990  155.9980 C   0  0  0  0  0  2  0  0  0  0  0  0
  159.9720  209.8210  154.8210 C   0  0  2  0  0  3  0  0  0  0  0  0
  160.3380  211.6220  156.6390 C   0  0  1  0  0  3  0  0  0  0  0  0
  162.7360  211.4490  156.9140 O   0  0  0  0  0  1  0  0  0  0  0  0
  159.4960  213.0630  153.4610 O   0  0  0  0  0  0  0  0  0  0  0  0
  159.7830  212.1980  154.2990 C   0  0  0  0  0  0  0  0  0  0  0  0
  161.5240  210.8240  157.2100 C   0  0  2  0  0  3  0  0  0  0  0  0
  160.4430  213.1160  156.9660 C   0  0  0  0  0  2  0  0  0  0  0  0
  159.0750  213.7140  157.2610 C   0  0  0  0  0  2  0  0  0  0  0  0
  156.9880  212.8640  156.5880 O   0  0  0  0  0  0  0  0  0  0  0  0
  158.0230  212.6580  157.2000 C   0  0  0  0  0  3  0  0  0  0  0  0
  161.1100  203.1830  149.4860 C   0  0  0  0  0  0  0  0  0  0  0  0
  161.1160  204.1790  150.4490 C   0  0  0  0  0  3  0  0  0  0  0  0
  161.5440  206.3150  149.2150 C   0  0  2  0  0  3  0  0  0  0  0  0
  161.3090  205.5430  150.3390 C   0  0  0  0  0  3  0  0  0  0  0  0
  161.3290  203.3550  148.0970 C   0  0  2  0  0  3  0  0  0  0  0  0
  161.5660  204.5430  147.4900 N   0  0  0  0  0  0  0  0  0  0  0  0
  161.6680  205.8210  147.9220 C   0  0  0  0  0  3  0  0  0  0  0  0
  160.8830  202.0240  149.9270 O   0  0  0  0  0  0  0  0  0  0  0  0
  161.3150  202.4980  145.6290 C   0  0  2  0  0  3  0  0  0  0  0  0
  159.9760  201.4670  146.9760 C   0  0  0  0  0  2  0  0  0  0  0  0
  161.3060  202.1830  147.1260 C   0  0  2  0  0  3  0  0  0  0  0  0
  161.1390  203.9140  145.3390 N   0  0  0  0  0  1  0  0  0  0  0  0
  160.1770  200.5890  144.7690 O   0  0  0  0  0  1  0  0  0  0  0  0
  159.9870  201.7720  145.4840 C   0  0  2  0  0  3  0  0  0  0  0  0
  2 12  2  0  0  0  0
  3  9  1  0  0  0  0
  3 10  2  0  0  0  0
  4  2  1  1  0  0  0
  4  3  1  0  0  0  0
  5 11  2  0  0  0  0
  7  9  2  0  0  0  0
  8  6  2  0  0  0  0
  9  5  1  0  0  0  0
 10  8  1  0  0  0  0
 11  6  1  0  0  0  0
 11  1  1  0  0  0  0
 12  7  1  0  0  0  0
 13 17  1  0  0  0  0
 14 21  1  0  0  0  0
 15 14  1  0  0  0  0
 16  6  1  6  0  0  0
 16 13  1  0  0  0  0
 16 15  1  0  0  0  0
 17 22  1  6  0  0  0
 17 21  1  0  0  0  0
 19 20  2  0  0  0  0
 20 13  2  0  0  0  0
 21 18  1  6  0  0  0
 22 23  1  0  0  0  0
 24 25  2  0  0  0  0
 25 23  1  0  0  0  0
 26 33  2  0  0  0  0
 26 27  1  0  0  0  0
 28 32  1  1  0  0  0
 28  4  1  0  0  0  0
 28 29  1  0  0  0  0
 29 27  2  0  0  0  0
 30 31  1  6  0  0  0
 30 26  1  0  0  0  0
 31 32  2  0  0  0  0
 34 37  1  1  0  0  0
 34 36  1  0  0  0  0
 36 35  1  6  0  0  0
 36 30  1  0  0  0  0
 39 38  1  6  0  0  0
 39 34  1  0  0  0  0
 39 35  1  0  0  0  0
M  END
>  <MODEL>
3

>  <REMARK>
 VINA RESULT:      -6.3      3.962      6.667
  Name = 
  6 active torsions:
  status: ('A' for Active; 'I' for Inactive)
    1  A    between atoms: C_7  and  C_14
    2  A    between atoms: C_12  and  C_19
    3  A    between atoms: C_16  and  C_22
    4  A    between atoms: C_16  and  C_37
    5  A    between atoms: C_18  and  C_27
    6  A    between atoms: C_21  and  C_22
                            x       y       z     vdW  Elec       q    Type
                         _______ _______ _______ _____ _____    ______ ____

>  <TORSDO>
F 6

$$$$
=
 OpenBabel11072414583D

 39 43  0  0  1  0  0  0  0  0999 V2000
  161.5150  207.7830  147.7270 F   0  0  0  0  0  0  0  0  0  0  0  0
  161.0840  213.6510  149.3890 N   0  0  0  0  0  0  0  0  0  0  0  0
  161.3130  211.3680  150.1430 C   0  0  0  0  0  0  0  0  0  0  0  0
  160.6590  212.7120  150.1860 C   0  0  2  0  0  3  0  0  0  0  0  0
  161.9840  209.9750  148.2200 C   0  0  0  0  0  3  0  0  0  0  0  0
  161.9770  208.3190  150.0780 C   0  0  0  0  0  0  0  0  0  0  0  0
  162.7550  212.2980  148.2970 C   0  0  0  0  0  3  0  0  0  0  0  0
  161.5950  209.0770  151.1180 C   0  0  0  0  0  3  0  0  0  0  0  0
  162.3840  211.0960  149.1150 C   0  0  0  0  0  0  0  0  0  0  0  0
  161.0440  210.4460  151.0750 C   0  0  0  0  0  3  0  0  0  0  0  0
  161.8040  208.7270  148.6540 C   0  0  0  0  0  0  0  0  0  0  0  0
  162.1420  213.4720  148.4410 C   0  0  0  0  0  3  0  0  0  0  0  0
  161.4400  205.8450  150.3250 C   0  0  0  0  0  0  0  0  0  0  0  0
  162.2950  206.6880  152.9460 C   0  0  0  0  0  2  0  0  0  0  0  0
  163.2360  206.9010  151.7570 C   0  0  0  0  0  2  0  0  0  0  0  0
  162.4760  206.9380  150.4230 C   0  0  2  0  0  3  0  0  0  0  0  0
  161.4230  204.7970  151.4180 C   0  0  1  0  0  3  0  0  0  0  0  0
  160.0980  205.7750  153.1920 O   0  0  0  0  0  1  0  0  0  0  0  0
  160.0670  205.5950  148.1930 O   0  0  0  0  0  0  0  0  0  0  0  0
  160.7340  205.7150  149.2280 C   0  0  0  0  0  0  0  0  0  0  0  0
  161.4010  205.4420  152.8160 C   0  0  2  0  0  3  0  0  0  0  0  0
  160.3610  203.7010  151.2760 C   0  0  0  0  0  2  0  0  0  0  0  0
  160.9610  202.4220  150.7100 C   0  0  0  0  0  2  0  0  0  0  0  0
  161.1570  202.3120  148.3690 O   0  0  0  0  0  0  0  0  0  0  0  0
  160.4330  202.1640  149.3390 C   0  0  0  0  0  3  0  0  0  0  0  0
  156.8190  213.8870  152.5090 C   0  0  0  0  0  0  0  0  0  0  0  0
  157.1650  213.8400  151.1680 C   0  0  0  0  0  3  0  0  0  0  0  0
  159.5310  213.0260  151.1030 C   0  0  2  0  0  3  0  0  0  0  0  0
  158.3430  213.4710  150.5500 C   0  0  0  0  0  3  0  0  0  0  0  0
  157.6560  213.5630  153.6050 C   0  0  2  0  0  3  0  0  0  0  0  0
  158.9390  213.1350  153.5020 N   0  0  0  0  0  0  0  0  0  0  0  0
  159.7740  212.8940  152.4650 C   0  0  0  0  0  3  0  0  0  0  0  0
  155.6370  214.2590  152.7370 O   0  0  0  0  0  0  0  0  0  0  0  0
  156.5190  212.4180  155.6600 C   0  0  2  0  0  3  0  0  0  0  0  0
  155.8990  214.4520  155.2700 C   0  0  0  0  0  2  0  0  0  0  0  0
  157.1730  213.6570  155.0450 C   0  0  2  0  0  3  0  0  0  0  0  0
  156.2660  211.3620  154.6910 N   0  0  0  0  0  1  0  0  0  0  0  0
  155.0710  213.4310  157.2590 O   0  0  0  0  0  1  0  0  0  0  0  0
  155.2500  213.2230  155.8910 C   0  0  2  0  0  3  0  0  0  0  0  0
  1 11  1  0  0  0  0
  3  4  1  0  0  0  0
  3 10  2  0  0  0  0
  4  2  1  6  0  0  0
  4 28  1  0  0  0  0
  5 11  2  0  0  0  0
  5  9  1  0  0  0  0
  6  8  2  0  0  0  0
  7 12  1  0  0  0  0
  7  9  2  0  0  0  0
  9  3  1  0  0  0  0
 10  8  1  0  0  0  0
 11  6  1  0  0  0  0
 12  2  2  0  0  0  0
 13 16  1  0  0  0  0
 13 17  1  0  0  0  0
 15 14  1  0  0  0  0
 16  6  1  1  0  0  0
 16 15  1  0  0  0  0
 17 22  1  6  0  0  0
 17 21  1  0  0  0  0
 19 20  2  0  0  0  0
 20 13  2  0  0  0  0
 21 14  1  0  0  0  0
 21 18  1  6  0  0  0
 23 22  1  0  0  0  0
 24 25  2  0  0  0  0
 25 23  1  0  0  0  0
 26 33  2  0  0  0  0
 27 26  1  0  0  0  0
 28 29  1  1  0  0  0
 28 32  1  0  0  0  0
 29 27  2  0  0  0  0
 30 26  1  6  0  0  0
 30 36  1  0  0  0  0
 31 30  1  0  0  0  0
 32 31  2  0  0  0  0
 34 37  1  6  0  0  0
 34 39  1  0  0  0  0
 35 39  1  0  0  0  0
 36 35  1  6  0  0  0
 36 34  1  0  0  0  0
 39 38  1  1  0  0  0
M  END
>  <MODEL>
4

>  <REMARK>
 VINA RESULT:      -5.2      3.836      9.449
  Name = 
  6 active torsions:
  status: ('A' for Active; 'I' for Inactive)
    1  A    between atoms: C_7  and  C_14
    2  A    between atoms: C_12  and  C_19
    3  A    between atoms: C_16  and  C_22
    4  A    between atoms: C_16  and  C_37
    5  A    between atoms: C_18  and  C_27
    6  A    between atoms: C_21  and  C_22
                            x       y       z     vdW  Elec       q    Type
                         _______ _______ _______ _____ _____    ______ ____

>  <TORSDO>
F 6

$$$$
=
 OpenBabel11072414583D

 39 43  0  0  1  0  0  0  0  0999 V2000
  159.0210  211.2020  152.4710 F   0  0  0  0  0  0  0  0  0  0  0  0
  161.2710  205.5440  153.0180 N   0  0  0  0  0  0  0  0  0  0  0  0
  161.3740  207.6310  151.8080 C   0  0  0  0  0  0  0  0  0  0  0  0
  161.2730  206.1410  151.8600 C   0  0  0  0  0  0  0  0  0  0  0  0
  160.2190  209.3610  153.1360 C   0  0  0  0  0  3  0  0  0  0  0  0
  161.0470  210.6740  151.1900 C   0  0  0  0  0  0  0  0  0  0  0  0
  161.3830  207.5660  154.3270 C   0  0  0  0  0  3  0  0  0  0  0  0
  161.6600  209.7270  150.4630 C   0  0  0  0  0  3  0  0  0  0  0  0
  161.3730  208.4210  153.0940 C   0  0  1  0  0  3  0  0  0  0  0  0
  161.5800  208.2630  150.6470 C   0  0  0  0  0  3  0  0  0  0  0  0
  160.0750  210.3750  152.2800 C   0  0  0  0  0  0  0  0  0  0  0  0
  161.3380  206.2360  154.2700 C   0  0  0  0  0  3  0  0  0  0  0  0
  160.0560  212.8380  150.2920 C   0  0  0  0  0  0  0  0  0  0  0  0
  161.9750  212.0120  148.3030 C   0  0  0  0  0  2  0  0  0  0  0  0
  162.4450  212.2140  149.7460 C   0  0  0  0  0  2  0  0  0  0  0  0
  161.2890  212.0960  150.7490 C   0  0  2  0  0  3  0  0  0  0  0  0
  160.1830  213.7110  149.0610 C   0  0  1  0  0  3  0  0  0  0  0  0
  159.8630  212.2030  147.1960 O   0  0  0  0  0  1  0  0  0  0  0  0
  157.9910  212.8940  151.7830 O   0  0  0  0  0  0  0  0  0  0  0  0
  158.9940  212.8680  151.0590 C   0  0  0  0  0  0  0  0  0  0  0  0
  160.8220  212.9450  147.8890 C   0  0  2  0  0  3  0  0  0  0  0  0
  158.9110  214.4530  148.6360 C   0  0  0  0  0  2  0  0  0  0  0  0
  157.8030  213.4790  148.2610 C   0  0  0  0  0  2  0  0  0  0  0  0
  155.8150  213.8330  149.4670 O   0  0  0  0  0  0  0  0  0  0  0  0
  156.4670  214.1060  148.4730 C   0  0  0  0  0  3  0  0  0  0  0  0
  160.9910  203.0060  148.4510 C   0  0  0  0  0  0  0  0  0  0  0  0
  161.0260  202.9340  149.8350 C   0  0  0  0  0  2  0  0  0  0  0  0
  161.1710  205.3010  150.6360 C   0  0  0  0  0  0  0  0  0  0  0  0
  161.1080  203.9270  150.7910 C   0  0  0  0  0  3  0  0  0  0  0  0
  161.0540  204.1850  147.6700 C   0  0  2  0  0  3  0  0  0  0  0  0
  161.1420  205.4430  148.1680 N   0  0  0  0  0  0  0  0  0  0  0  0
  161.1960  205.9640  149.4150 C   0  0  0  0  0  3  0  0  0  0  0  0
  160.8940  201.8940  147.8670 O   0  0  0  0  0  0  0  0  0  0  0  0
  162.3330  204.3390  145.3960 C   0  0  2  0  0  3  0  0  0  0  0  0
  160.4380  205.3760  145.4660 C   0  0  0  0  0  2  0  0  0  0  0  0
  161.0140  204.1480  146.1480 C   0  0  2  0  0  3  0  0  0  0  0  0
  163.4350  204.7370  146.2610 N   0  0  0  0  0  1  0  0  0  0  0  0
  161.5450  205.2870  143.3570 O   0  0  0  0  0  1  0  0  0  0  0  0
  161.7460  205.5620  144.7100 C   0  0  2  0  0  3  0  0  0  0  0  0
  2 12  1  0  0  0  0
  3  4  1  0  0  0  0
  3  9  1  0  0  0  0
  4  2  2  0  0  0  0
  6 11  1  0  0  0  0
  8 10  1  0  0  0  0
  8  6  2  0  0  0  0
  9  5  1  1  0  0  0
  9  7  1  0  0  0  0
 10  3  2  0  0  0  0
 11  1  1  0  0  0  0
 11  5  2  0  0  0  0
 12  7  2  0  0  0  0
 13 16  1  0  0  0  0
 13 20  2  0  0  0  0
 14 15  1  0  0  0  0
 15 16  1  0  0  0  0
 16  6  1  6  0  0  0
 17 22  1  6  0  0  0
 17 13  1  0  0  0  0
 20 19  2  0  0  0  0
 21 18  1  1  0  0  0
 21 14  1  0  0  0  0
 21 17  1  0  0  0  0
 23 25  1  0  0  0  0
 23 22  1  0  0  0  0
 25 24  2  0  0  0  0
 26 27  1  0  0  0  0
 27 29  1  0  0  0  0
 28 29  2  0  0  0  0
 28  4  1  0  0  0  0
 30 31  1  1  0  0  0
 30 26  1  0  0  0  0
 31 32  2  0  0  0  0
 32 28  1  0  0  0  0
 33 26  2  0  0  0  0
 34 36  1  0  0  0  0
 34 37  1  1  0  0  0
 36 35  1  6  0  0  0
 36 30  1  0  0  0  0
 39 38  1  6  0  0  0
 39 34  1  0  0  0  0
 39 35  1  0  0  0  0
M  END
>  <MODEL>
5

>  <REMARK>
 VINA RESULT:      -5.1      1.873      2.772
  Name = 
  6 active torsions:
  status: ('A' for Active; 'I' for Inactive)
    1  A    between atoms: C_7  and  C_14
    2  A    between atoms: C_12  and  C_19
    3  A    between atoms: C_16  and  C_22
    4  A    between atoms: C_16  and  C_37
    5  A    between atoms: C_18  and  C_27
    6  A    between atoms: C_21  and  C_22
                            x       y       z     vdW  Elec       q    Type
                         _______ _______ _______ _____ _____    ______ ____

>  <TORSDO>
F 6

$$$$
=
 OpenBabel11072414583D

 39 43  0  0  1  0  0  0  0  0999 V2000
  163.0710  210.1480  154.3270 F   0  0  0  0  0  0  0  0  0  0  0  0
  162.2130  209.3880  148.3220 N   0  0  0  0  0  0  0  0  0  0  0  0
  161.3800  208.9170  150.5390 C   0  0  0  0  0  0  0  0  0  0  0  0
  161.7830  208.4910  149.1640 C   0  0  0  0  0  0  0  0  0  0  0  0
  162.4830  210.4480  152.1290 C   0  0  0  0  0  3  0  0  0  0  0  0
  160.9210  209.2020  153.6140 C   0  0  0  0  0  0  0  0  0  0  0  0
  162.0590  211.2450  149.8530 C   0  0  0  0  0  3  0  0  0  0  0  0
  160.3360  208.3600  152.7480 C   0  0  0  0  0  3  0  0  0  0  0  0
  161.5700  210.3540  150.9570 C   0  0  0  0  0  0  0  0  0  0  0  0
  160.7490  208.0700  151.3600 C   0  0  0  0  0  3  0  0  0  0  0  0
  162.1900  209.9310  153.3230 C   0  0  0  0  0  0  0  0  0  0  0  0
  162.3490  210.7770  148.6400 C   0  0  0  0  0  3  0  0  0  0  0  0
  159.8450  210.6500  155.4070 C   0  0  0  0  0  0  0  0  0  0  0  0
  162.1890  209.5300  156.6590 C   0  0  0  0  0  2  0  0  0  0  0  0
  161.1460  208.5820  156.0590 C   0  0  0  0  0  2  0  0  0  0  0  0
  160.2950  209.2720  154.9830 C   0  0  2  0  0  3  0  0  0  0  0  0
  160.1200  211.0660  156.8370 C   0  0  1  0  0  3  0  0  0  0  0  0
  162.3890  211.9090  156.8100 O   0  0  0  0  0  1  0  0  0  0  0  0
  158.3470  212.0180  153.8650 O   0  0  0  0  0  0  0  0  0  0  0  0
  159.0730  211.3540  154.6150 C   0  0  0  0  0  0  0  0  0  0  0  0
  161.5940  210.8350  157.2180 C   0  0  2  0  0  3  0  0  0  0  0  0
  159.6400  212.4690  157.2270 C   0  0  0  0  0  2  0  0  0  0  0  0
  158.1210  212.5430  157.2590 C   0  0  0  0  0  2  0  0  0  0  0  0
  156.5470  214.2810  157.0800 O   0  0  0  0  0  0  0  0  0  0  0  0
  157.6560  213.8760  156.7770 C   0  0  0  0  0  3  0  0  0  0  0  0
  161.8790  204.2870  147.2050 C   0  0  0  0  0  0  0  0  0  0  0  0
  162.3870  205.5300  146.8600 C   0  0  0  0  0  3  0  0  0  0  0  0
  161.7170  207.0770  148.7110 C   0  0  0  0  0  0  0  0  0  0  0  0
  162.3160  206.7480  147.5070 C   0  0  0  0  0  3  0  0  0  0  0  0
  161.1180  203.9820  148.3590 C   0  0  2  0  0  3  0  0  0  0  0  0
  160.7790  204.8720  149.3240 N   0  0  0  0  0  0  0  0  0  0  0  0
  161.0090  206.1910  149.5150 C   0  0  0  0  0  3  0  0  0  0  0  0
  162.1430  203.3650  146.3880 O   0  0  0  0  0  0  0  0  0  0  0  0
  160.5470  202.1130  150.0940 C   0  0  2  0  0  3  0  0  0  0  0  0
  161.5520  201.4400  148.3020 C   0  0  0  0  0  2  0  0  0  0  0  0
  160.6020  202.5770  148.6370 C   0  0  2  0  0  3  0  0  0  0  0  0
  161.1990  203.0330  151.0150 N   0  0  0  0  0  1  0  0  0  0  0  0
  160.8030  199.7600  149.8180 O   0  0  0  0  0  1  0  0  0  0  0  0
  161.4910  200.9710  149.7490 C   0  0  2  0  0  3  0  0  0  0  0  0
  2 12  2  0  0  0  0
  2  4  1  0  0  0  0
  3  9  1  0  0  0  0
  3 10  2  0  0  0  0
  4  3  1  0  0  0  0
  5 11  2  0  0  0  0
  7  9  2  0  0  0  0
  8  6  2  0  0  0  0
  9  5  1  0  0  0  0
 10  8  1  0  0  0  0
 11  6  1  0  0  0  0
 11  1  1  0  0  0  0
 12  7  1  0  0  0  0
 13 17  1  0  0  0  0
 14 21  1  0  0  0  0
 15 14  1  0  0  0  0
 16  6  1  6  0  0  0
 16 13  1  0  0  0  0
 16 15  1  0  0  0  0
 17 21  1  0  0  0  0
 17 22  1  6  0  0  0
 19 20  2  0  0  0  0
 20 13  2  0  0  0  0
 21 18  1  6  0  0  0
 22 23  1  0  0  0  0
 25 24  2  0  0  0  0
 25 23  1  0  0  0  0
 27 26  1  0  0  0  0
 27 29  2  0  0  0  0
 28  4  2  0  0  0  0
 28 32  1  0  0  0  0
 29 28  1  0  0  0  0
 30 26  1  1  0  0  0
 30 36  1  0  0  0  0
 30 31  1  0  0  0  0
 31 32  2  0  0  0  0
 33 26  2  0  0  0  0
 34 37  1  1  0  0  0
 35 39  1  0  0  0  0
 36 35  1  6  0  0  0
 36 34  1  0  0  0  0
 39 38  1  6  0  0  0
 39 34  1  0  0  0  0
M  END
>  <MODEL>
6

>  <REMARK>
 VINA RESULT:      -4.9      3.768      7.029
  Name = 
  6 active torsions:
  status: ('A' for Active; 'I' for Inactive)
    1  A    between atoms: C_7  and  C_14
    2  A    between atoms: C_12  and  C_19
    3  A    between atoms: C_16  and  C_22
    4  A    between atoms: C_16  and  C_37
    5  A    between atoms: C_18  and  C_27
    6  A    between atoms: C_21  and  C_22
                            x       y       z     vdW  Elec       q    Type
                         _______ _______ _______ _____ _____    ______ ____

>  <TORSDO>
F 6

$$$$
=
 OpenBabel11072414583D

 39 43  0  0  1  0  0  0  0  0999 V2000
  160.4680  206.5480  148.1840 F   0  0  0  0  0  0  0  0  0  0  0  0
  161.2880  212.2800  150.1450 N   0  0  0  0  0  0  0  0  0  0  0  0
  161.5580  209.9350  150.6480 C   0  0  0  0  0  0  0  0  0  0  0  0
  161.1060  211.3150  151.0000 C   0  0  2  0  0  3  0  0  0  0  0  0
  161.3050  208.6520  148.5550 C   0  0  0  0  0  3  0  0  0  0  0  0
  161.8410  206.8590  150.1950 C   0  0  0  0  0  0  0  0  0  0  0  0
  162.2740  210.8980  148.4320 C   0  0  0  0  0  3  0  0  0  0  0  0
  161.9610  207.5580  151.3350 C   0  0  0  0  0  3  0  0  0  0  0  0
  162.1240  209.6660  149.2760 C   0  0  0  0  0  0  0  0  0  0  0  0
  161.5740  208.9640  151.5690 C   0  0  0  0  0  3  0  0  0  0  0  0
  161.1800  207.3900  148.9690 C   0  0  0  0  0  0  0  0  0  0  0  0
  161.8820  212.0990  148.8550 C   0  0  0  0  0  3  0  0  0  0  0  0
  161.6230  204.4990  149.2700 C   0  0  0  0  0  0  0  0  0  0  0  0
  160.9030  204.2800  152.0540 C   0  0  0  0  0  2  0  0  0  0  0  0
  162.2720  204.8590  151.6880 C   0  0  0  0  0  2  0  0  0  0  0  0
  162.2940  205.4220  150.2590 C   0  0  2  0  0  3  0  0  0  0  0  0
  161.2100  203.1280  149.7630 C   0  0  1  0  0  3  0  0  0  0  0  0
  159.0440  203.4640  150.7890 O   0  0  0  0  0  1  0  0  0  0  0  0
  161.5680  205.1210  146.8000 O   0  0  0  0  0  0  0  0  0  0  0  0
  161.5950  204.8180  147.9990 C   0  0  0  0  0  0  0  0  0  0  0  0
  160.3910  203.2180  151.0630 C   0  0  2  0  0  3  0  0  0  0  0  0
  160.5400  202.2200  148.7250 C   0  0  0  0  0  2  0  0  0  0  0  0
  161.0520  200.7910  148.8290 C   0  0  0  0  0  2  0  0  0  0  0  0
  161.5340  199.7690  146.7670 O   0  0  0  0  0  0  0  0  0  0  0  0
  161.9410  200.4730  147.6760 C   0  0  0  0  0  3  0  0  0  0  0  0
  159.4790  211.8920  155.3070 C   0  0  0  0  0  0  0  0  0  0  0  0
  160.5300  211.1770  154.7550 C   0  0  0  0  0  3  0  0  0  0  0  0
  160.4500  211.6380  152.2950 C   0  0  2  0  0  3  0  0  0  0  0  0
  160.9560  211.0580  153.4460 C   0  0  0  0  0  3  0  0  0  0  0  0
  158.5460  212.6920  154.6030 C   0  0  2  0  0  3  0  0  0  0  0  0
  158.5520  212.8940  153.2620 N   0  0  0  0  0  0  0  0  0  0  0  0
  159.3370  212.4680  152.2460 C   0  0  0  0  0  3  0  0  0  0  0  0
  159.3760  211.7970  156.5590 O   0  0  0  0  0  0  0  0  0  0  0  0
  156.1670  212.6370  155.6820 C   0  0  2  0  0  3  0  0  0  0  0  0
  156.5880  214.3630  154.4500 C   0  0  0  0  0  2  0  0  0  0  0  0
  157.4210  213.4320  155.3120 C   0  0  2  0  0  3  0  0  0  0  0  0
  156.1460  211.2990  155.1100 N   0  0  0  0  0  1  0  0  0  0  0  0
  154.5230  214.3630  155.6420 O   0  0  0  0  0  1  0  0  0  0  0  0
  155.3370  213.5790  154.8230 C   0  0  2  0  0  3  0  0  0  0  0  0
  1 11  1  0  0  0  0
  3  4  1  0  0  0  0
  3 10  2  0  0  0  0
  4  2  1  6  0  0  0
  4 28  1  0  0  0  0
  5 11  2  0  0  0  0
  5  9  1  0  0  0  0
  6  8  2  0  0  0  0
  7 12  1  0  0  0  0
  7  9  2  0  0  0  0
  8 10  1  0  0  0  0
  9  3  1  0  0  0  0
 11  6  1  0  0  0  0
 12  2  2  0  0  0  0
 13 17  1  0  0  0  0
 13 16  1  0  0  0  0
 15 14  1  0  0  0  0
 16  6  1  1  0  0  0
 16 15  1  0  0  0  0
 17 22  1  6  0  0  0
 17 21  1  0  0  0  0
 19 20  2  0  0  0  0
 20 13  2  0  0  0  0
 21 18  1  6  0  0  0
 21 14  1  0  0  0  0
 22 23  1  0  0  0  0
 24 25  2  0  0  0  0
 25 23  1  0  0  0  0
 26 33  2  0  0  0  0
 27 26  1  0  0  0  0
 28 32  1  6  0  0  0
 28 29  1  0  0  0  0
 29 27  2  0  0  0  0
 30 31  1  1  0  0  0
 30 26  1  0  0  0  0
 30 36  1  0  0  0  0
 32 31  2  0  0  0  0
 34 37  1  6  0  0  0
 35 39  1  0  0  0  0
 36 35  1  6  0  0  0
 36 34  1  0  0  0  0
 39 38  1  1  0  0  0
 39 34  1  0  0  0  0
M  END
>  <MODEL>
7

>  <REMARK>
 VINA RESULT:      -4.3      3.837      9.572
  Name = 
  6 active torsions:
  status: ('A' for Active; 'I' for Inactive)
    1  A    between atoms: C_7  and  C_14
    2  A    between atoms: C_12  and  C_19
    3  A    between atoms: C_16  and  C_22
    4  A    between atoms: C_16  and  C_37
    5  A    between atoms: C_18  and  C_27
    6  A    between atoms: C_21  and  C_22
                            x       y       z     vdW  Elec       q    Type
                         _______ _______ _______ _____ _____    ______ ____

>  <TORSDO>
F 6

$$$$
=
 OpenBabel11072414583D

 39 43  0  0  1  0  0  0  0  0999 V2000
  163.9970  205.4410  152.7640 F   0  0  0  0  0  0  0  0  0  0  0  0
  160.0220  209.8500  154.2260 N   0  0  0  0  0  0  0  0  0  0  0  0
  160.7200  208.2600  152.5490 C   0  0  0  0  0  0  0  0  0  0  0  0
  160.3370  209.6390  152.9800 C   0  0  0  0  0  0  0  0  0  0  0  0
  162.2110  206.6060  153.6130 C   0  0  0  0  0  3  0  0  0  0  0  0
  162.0610  205.7400  151.2840 C   0  0  0  0  0  0  0  0  0  0  0  0
  160.4140  207.5850  154.9570 C   0  0  0  0  0  3  0  0  0  0  0  0
  161.2640  206.6520  150.7050 C   0  0  0  0  0  3  0  0  0  0  0  0
  160.8300  207.1630  153.5790 C   0  0  1  0  0  3  0  0  0  0  0  0
  160.8540  207.9610  151.2510 C   0  0  0  0  0  3  0  0  0  0  0  0
  162.7620  205.9650  152.5810 C   0  0  0  0  0  0  0  0  0  0  0  0
  160.0410  208.8330  155.2350 C   0  0  0  0  0  3  0  0  0  0  0  0
  161.4950  204.3590  149.2240 C   0  0  0  0  0  0  0  0  0  0  0  0
  160.9190  202.6340  151.4630 C   0  0  0  0  0  2  0  0  0  0  0  0
  162.3260  203.2220  151.3250 C   0  0  0  0  0  2  0  0  0  0  0  0
  162.3340  204.4990  150.4720 C   0  0  2  0  0  3  0  0  0  0  0  0
  160.9440  202.9850  148.9040 C   0  0  1  0  0  3  0  0  0  0  0  0
  158.9010  202.8220  150.1920 O   0  0  0  0  0  1  0  0  0  0  0  0
  161.3730  206.2860  147.5620 O   0  0  0  0  0  0  0  0  0  0  0  0
  161.4330  205.3500  148.3680 C   0  0  0  0  0  0  0  0  0  0  0  0
  160.2210  202.3710  150.1160 C   0  0  2  0  0  3  0  0  0  0  0  0
  160.1050  202.8850  147.6250 C   0  0  0  0  0  2  0  0  0  0  0  0
  160.8220  202.0720  146.5570 C   0  0  0  0  0  2  0  0  0  0  0  0
  161.4450  203.8700  145.1750 O   0  0  0  0  0  0  0  0  0  0  0  0
  160.8400  202.8150  145.2640 C   0  0  0  0  0  3  0  0  0  0  0  0
  159.6520  213.3900  150.3380 C   0  0  0  0  0  0  0  0  0  0  0  0
  158.9870  212.8280  151.4150 C   0  0  0  0  0  2  0  0  0  0  0  0
  160.3010  210.7920  152.0420 C   0  0  0  0  0  0  0  0  0  0  0  0
  159.2600  211.6970  152.1580 C   0  0  0  0  0  3  0  0  0  0  0  0
  160.8200  212.8850  149.7160 C   0  0  2  0  0  3  0  0  0  0  0  0
  161.4810  211.7650  150.0990 N   0  0  0  0  0  0  0  0  0  0  0  0
  161.2980  210.8470  151.0750 C   0  0  0  0  0  3  0  0  0  0  0  0
  159.1400  214.4530  149.8960 O   0  0  0  0  0  0  0  0  0  0  0  0
  160.7900  213.4420  147.1620 C   0  0  2  0  0  3  0  0  0  0  0  0
  162.7260  212.9340  147.9790 C   0  0  0  0  0  2  0  0  0  0  0  0
  161.4670  213.5820  148.5270 C   0  0  2  0  0  3  0  0  0  0  0  0
  159.7040  212.4710  147.1580 N   0  0  0  0  0  1  0  0  0  0  0  0
  162.6670  213.6710  145.7130 O   0  0  0  0  0  1  0  0  0  0  0  0
  162.0580  212.8020  146.6180 C   0  0  2  0  0  3  0  0  0  0  0  0
  2 12  1  0  0  0  0
  3  4  1  0  0  0  0
  3  9  1  0  0  0  0
  4  2  2  0  0  0  0
  6 11  1  0  0  0  0
  7 12  2  0  0  0  0
  8 10  1  0  0  0  0
  8  6  2  0  0  0  0
  9  5  1  1  0  0  0
  9  7  1  0  0  0  0
 10  3  2  0  0  0  0
 11  1  1  0  0  0  0
 11  5  2  0  0  0  0
 13 16  1  0  0  0  0
 15 14  1  0  0  0  0
 16  6  1  1  0  0  0
 16 15  1  0  0  0  0
 17 22  1  6  0  0  0
 17 13  1  0  0  0  0
 17 21  1  0  0  0  0
 19 20  2  0  0  0  0
 20 13  2  0  0  0  0
 21 18  1  1  0  0  0
 21 14  1  0  0  0  0
 23 22  1  0  0  0  0
 24 25  2  0  0  0  0
 25 23  1  0  0  0  0
 26 27  1  0  0  0  0
 27 29  1  0  0  0  0
 28 29  2  0  0  0  0
 28  4  1  0  0  0  0
 30 31  1  1  0  0  0
 30 26  1  0  0  0  0
 31 32  2  0  0  0  0
 32 28  1  0  0  0  0
 33 26  2  0  0  0  0
 34 37  1  1  0  0  0
 34 36  1  0  0  0  0
 36 35  1  6  0  0  0
 36 30  1  0  0  0  0
 39 38  1  6  0  0  0
 39 34  1  0  0  0  0
 39 35  1  0  0  0  0
M  END
>  <MODEL>
8

>  <REMARK>
 VINA RESULT:      -4.3      2.825      8.174
  Name = 
  6 active torsions:
  status: ('A' for Active; 'I' for Inactive)
    1  A    between atoms: C_7  and  C_14
    2  A    between atoms: C_12  and  C_19
    3  A    between atoms: C_16  and  C_22
    4  A    between atoms: C_16  and  C_37
    5  A    between atoms: C_18  and  C_27
    6  A    between atoms: C_21  and  C_22
                            x       y       z     vdW  Elec       q    Type
                         _______ _______ _______ _____ _____    ______ ____

>  <TORSDO>
F 6

$$$$
