=
 OpenBabel11072413113D

 34 35  0  0  1  0  0  0  0  0999 V2000
  162.9580  207.3060  150.6570 O   0  0  0  0  0  0  0  0  0  0  0  0
  161.8050  206.9980  151.0660 C   0  0  0  0  0  0  0  0  0  0  0  0
  160.8880  208.0250  151.4680 N   0  0  0  0  0  2  0  0  0  0  0  0
  160.9080  204.7940  150.1430 C   0  0  0  0  0  0  0  0  0  0  0  0
  160.4800  203.4940  150.4280 C   0  0  0  0  0  3  0  0  0  0  0  0
  161.5440  204.9910  152.4680 C   0  0  0  0  0  3  0  0  0  0  0  0
  161.1240  203.7170  152.6720 N   0  0  0  0  0  0  0  0  0  0  0  0
  161.4360  205.5740  151.2010 C   0  0  0  0  0  0  0  0  0  0  0  0
  160.5980  202.9940  151.6840 N   0  0  0  0  0  0  0  0  0  0  0  0
  160.8580  205.2440  148.7350 C   0  0  0  0  0  0  0  0  0  0  0  0
  161.3240  204.3740  147.6990 N   0  0  0  0  0  2  0  0  0  0  0  0
  160.4540  206.4040  148.4470 O   0  0  0  0  0  0  0  0  0  0  0  0
  161.3620  204.7660  146.2940 C   0  0  2  0  0  3  0  0  0  0  0  0
  161.0040  202.3110  145.8400 N   0  0  0  0  0  1  0  0  0  0  0  0
  160.8290  203.6640  145.4360 C   0  0  0  0  0  0  0  0  0  0  0  0
  160.2070  203.9230  144.3720 O   0  0  0  0  0  0  0  0  0  0  0  0
  162.7520  205.1370  145.8810 C   0  0  0  0  0  0  0  0  0  0  0  0
  163.8340  204.6620  146.6090 O   0  0  0  0  0  1  0  0  0  0  0  0
  162.9480  205.8850  144.8870 O   0  0  0  0  0  0  0  0  0  0  0  0
  161.9280  209.8030  150.1410 C   0  0  0  0  0  1  0  0  0  0  0  0
  161.1620  209.4580  151.4090 C   0  0  2  0  0  3  0  0  0  0  0  0
  161.9190  209.9120  152.6520 C   0  0  0  0  0  2  0  0  0  0  0  0
  160.6980  210.2490  156.0380 N   0  0  0  0  0  0  0  0  0  0  0  0
  158.7640  211.5660  154.1100 C   0  0  0  0  0  3  0  0  0  0  0  0
  161.0000  210.5500  153.6460 C   0  0  0  0  0  0  0  0  0  0  0  0
  159.7840  210.9320  153.2500 C   0  0  0  0  0  3  0  0  0  0  0  0
  158.6210  211.4310  155.4390 C   0  0  0  0  0  0  0  0  0  0  0  0
  162.8290  210.5280  155.1710 F   0  0  0  0  0  0  0  0  0  0  0  0
  159.4420  210.5080  156.2500 C   0  0  0  0  0  3  0  0  0  0  0  0
  161.5040  210.8970  155.0140 C   0  0  2  0  0  3  0  0  0  0  0  0
  156.1740  211.6570  156.2010 C   0  0  0  0  0  0  0  0  0  0  0  0
  155.1990  212.4800  156.9600 C   0  0  0  0  0  1  0  0  0  0  0  0
  157.5400  212.0850  156.1190 N   0  0  0  0  0  2  0  0  0  0  0  0
  155.7830  210.6010  155.6370 O   0  0  0  0  0  0  0  0  0  0  0  0
  1  2  2  0  0  0  0
  2  8  1  0  0  0  0
  2  3  1  0  0  0  0
  4  5  2  0  0  0  0
  4  8  1  0  0  0  0
  5  9  1  0  0  0  0
  6  7  1  0  0  0  0
  8  6  2  0  0  0  0
  9  7  2  0  0  0  0
 10  4  1  0  0  0  0
 11 10  1  0  0  0  0
 12 10  2  0  0  0  0
 13 15  1  6  0  0  0
 13 11  1  0  0  0  0
 15 14  1  0  0  0  0
 16 15  2  0  0  0  0
 17 13  1  0  0  0  0
 17 18  1  0  0  0  0
 19 17  2  0  0  0  0
 21 20  1  6  0  0  0
 21  3  1  0  0  0  0
 21 22  1  0  0  0  0
 22 25  1  0  0  0  0
 23 29  2  0  0  0  0
 24 27  2  0  0  0  0
 25 30  1  0  0  0  0
 26 25  2  0  0  0  0
 26 24  1  0  0  0  0
 27 33  1  0  0  0  0
 27 29  1  0  0  0  0
 30 28  1  6  0  0  0
 30 23  1  0  0  0  0
 31 32  1  0  0  0  0
 33 31  1  0  0  0  0
 34 31  2  0  0  0  0
M  END
>  <MODEL>
1

>  <REMARK>
 VINA RESULT:      -7.3      0.000      0.000
  Name = 
  9 active torsions:
  status: ('A' for Active; 'I' for Inactive)
    1  A    between atoms: C_2  and  C_20
    2  A    between atoms: C_8  and  CA_9
    3  A    between atoms: CA_9  and  C_10
    4  A    between atoms: CA_9  and  N_23
    5  A    between atoms: C_12  and  C_13
    6  A    between atoms: C_12  and  C_26
    7  A    between atoms: C_16  and  C_29
    8  A    between atoms: N_17  and  C_24
    9  A    between atoms: N_22  and  C_26
                            x       y       z     vdW  Elec       q    Type
                         _______ _______ _______ _____ _____    ______ ____

>  <TORSDO>
F 9

$$$$
=
 OpenBabel11072413113D

 34 35  0  0  1  0  0  0  0  0999 V2000
  160.0700  209.7440  152.7860 O   0  0  0  0  0  0  0  0  0  0  0  0
  160.7880  208.8480  153.3090 C   0  0  0  0  0  0  0  0  0  0  0  0
  161.8050  208.1990  152.5330 N   0  0  0  0  0  2  0  0  0  0  0  0
  160.3360  209.3170  155.7760 C   0  0  0  0  0  0  0  0  0  0  0  0
  160.2160  208.7880  157.0660 C   0  0  0  0  0  3  0  0  0  0  0  0
  160.5310  207.0470  154.9680 C   0  0  0  0  0  3  0  0  0  0  0  0
  160.3920  206.6000  156.2410 N   0  0  0  0  0  0  0  0  0  0  0  0
  160.5210  208.4180  154.6970 C   0  0  0  0  0  0  0  0  0  0  0  0
  160.2500  207.4460  157.2610 N   0  0  0  0  0  0  0  0  0  0  0  0
  160.1800  210.7790  155.6130 C   0  0  0  0  0  0  0  0  0  0  0  0
  158.8680  211.3460  155.5490 N   0  0  0  0  0  2  0  0  0  0  0  0
  161.1930  211.5200  155.4790 O   0  0  0  0  0  0  0  0  0  0  0  0
  158.6320  212.7690  155.3320 C   0  0  2  0  0  3  0  0  0  0  0  0
  156.5370  212.3480  156.6720 N   0  0  0  0  0  1  0  0  0  0  0  0
  157.5400  213.2550  156.2300 C   0  0  0  0  0  0  0  0  0  0  0  0
  157.5140  214.4530  156.6170 O   0  0  0  0  0  0  0  0  0  0  0  0
  158.3000  213.0410  153.8970 C   0  0  0  0  0  0  0  0  0  0  0  0
  159.3200  213.1140  152.9590 O   0  0  0  0  0  0  0  0  0  0  0  0
  157.1060  213.2150  153.5370 O   0  0  0  0  0  1  0  0  0  0  0  0
  162.4140  210.0050  150.9940 C   0  0  0  0  0  1  0  0  0  0  0  0
  162.1280  208.5200  151.1460 C   0  0  2  0  0  3  0  0  0  0  0  0
  161.0040  208.0760  150.2170 C   0  0  0  0  0  2  0  0  0  0  0  0
  161.7210  206.3320  147.1320 N   0  0  0  0  0  0  0  0  0  0  0  0
  161.2030  204.3310  149.3500 C   0  0  0  0  0  3  0  0  0  0  0  0
  161.3660  206.8210  149.4860 C   0  0  0  0  0  0  0  0  0  0  0  0
  160.9370  205.6490  149.9590 C   0  0  0  0  0  3  0  0  0  0  0  0
  161.4380  204.0650  148.0540 C   0  0  0  0  0  0  0  0  0  0  0  0
  162.7480  208.1730  148.0940 F   0  0  0  0  0  0  0  0  0  0  0  0
  161.3630  205.0910  146.9920 C   0  0  0  0  0  3  0  0  0  0  0  0
  162.3270  206.8760  148.3370 C   0  0  2  0  0  3  0  0  0  0  0  0
  160.9820  201.5330  148.1120 C   0  0  0  0  0  0  0  0  0  0  0  0
  161.3250  200.2140  147.5240 C   0  0  0  0  0  1  0  0  0  0  0  0
  161.6340  202.7110  147.6180 N   0  0  0  0  0  2  0  0  0  0  0  0
  160.1310  201.5940  149.0390 O   0  0  0  0  0  0  0  0  0  0  0  0
  1  2  2  0  0  0  0
  2  8  1  0  0  0  0
  3  2  1  0  0  0  0
  4  5  1  0  0  0  0
  5  9  2  0  0  0  0
  6  7  2  0  0  0  0
  7  9  1  0  0  0  0
  8  6  1  0  0  0  0
  8  4  2  0  0  0  0
 10  4  1  0  0  0  0
 11 10  1  0  0  0  0
 12 10  2  0  0  0  0
 13 17  1  6  0  0  0
 13 11  1  0  0  0  0
 13 15  1  0  0  0  0
 15 16  2  0  0  0  0
 15 14  1  0  0  0  0
 18 17  2  0  0  0  0
 19 17  1  0  0  0  0
 21 20  1  1  0  0  0
 21  3  1  0  0  0  0
 22 21  1  0  0  0  0
 23 30  1  0  0  0  0
 24 26  1  0  0  0  0
 25 26  2  0  0  0  0
 25 22  1  0  0  0  0
 27 24  2  0  0  0  0
 29 23  2  0  0  0  0
 29 27  1  0  0  0  0
 30 28  1  6  0  0  0
 30 25  1  0  0  0  0
 31 34  2  0  0  0  0
 32 31  1  0  0  0  0
 33 27  1  0  0  0  0
 33 31  1  0  0  0  0
M  END
>  <MODEL>
2

>  <REMARK>
 VINA RESULT:      -7.1      3.071      9.782
  Name = 
  9 active torsions:
  status: ('A' for Active; 'I' for Inactive)
    1  A    between atoms: C_2  and  C_20
    2  A    between atoms: C_8  and  CA_9
    3  A    between atoms: CA_9  and  C_10
    4  A    between atoms: CA_9  and  N_23
    5  A    between atoms: C_12  and  C_13
    6  A    between atoms: C_12  and  C_26
    7  A    between atoms: C_16  and  C_29
    8  A    between atoms: N_17  and  C_24
    9  A    between atoms: N_22  and  C_26
                            x       y       z     vdW  Elec       q    Type
                         _______ _______ _______ _____ _____    ______ ____

>  <TORSDO>
F 9

$$$$
=
 OpenBabel11072413113D

 34 35  0  0  1  0  0  0  0  0999 V2000
  161.9510  209.9090  154.0640 O   0  0  0  0  0  0  0  0  0  0  0  0
  161.1350  209.7600  153.1130 C   0  0  0  0  0  0  0  0  0  0  0  0
  160.3800  208.5450  152.9990 N   0  0  0  0  0  2  0  0  0  0  0  0
  160.1580  211.9250  152.1830 C   0  0  0  0  0  0  0  0  0  0  0  0
  160.0470  212.7820  151.0830 C   0  0  0  0  0  3  0  0  0  0  0  0
  161.7550  210.6410  150.9000 C   0  0  0  0  0  3  0  0  0  0  0  0
  161.6120  211.5200  149.8760 N   0  0  0  0  0  0  0  0  0  0  0  0
  161.0230  210.8080  152.0790 C   0  0  0  0  0  0  0  0  0  0  0  0
  160.7750  212.5530  149.9610 N   0  0  0  0  0  0  0  0  0  0  0  0
  159.4250  212.2880  153.4150 C   0  0  0  0  0  0  0  0  0  0  0  0
  157.9960  212.3490  153.3950 N   0  0  0  0  0  2  0  0  0  0  0  0
  160.0520  212.5920  154.4670 O   0  0  0  0  0  0  0  0  0  0  0  0
  157.2050  212.7550  154.5520 C   0  0  2  0  0  3  0  0  0  0  0  0
  155.5700  210.8860  154.9900 N   0  0  0  0  0  1  0  0  0  0  0  0
  156.7780  211.5550  155.3330 C   0  0  0  0  0  0  0  0  0  0  0  0
  157.4890  211.1170  156.2760 O   0  0  0  0  0  0  0  0  0  0  0  0
  156.0180  213.5640  154.1290 C   0  0  0  0  0  0  0  0  0  0  0  0
  155.2230  214.1710  155.0920 O   0  0  0  0  0  1  0  0  0  0  0  0
  155.7280  213.6890  152.9100 O   0  0  0  0  0  0  0  0  0  0  0  0
  160.3470  207.9410  155.3730 C   0  0  0  0  0  1  0  0  0  0  0  0
  160.4410  207.4330  153.9430 C   0  0  2  0  0  3  0  0  0  0  0  0
  161.7110  206.6170  153.7300 C   0  0  0  0  0  2  0  0  0  0  0  0
  161.2780  206.3790  150.1480 N   0  0  0  0  0  0  0  0  0  0  0  0
  160.9500  203.6420  151.4090 C   0  0  0  0  0  3  0  0  0  0  0  0
  161.6260  205.7950  152.4810 C   0  0  0  0  0  0  0  0  0  0  0  0
  161.1080  204.5670  152.5480 C   0  0  0  0  0  3  0  0  0  0  0  0
  160.7970  203.9640  150.1130 C   0  0  0  0  0  0  0  0  0  0  0  0
  162.8520  207.5280  151.4010 F   0  0  0  0  0  0  0  0  0  0  0  0
  160.6600  205.3570  149.6370 C   0  0  0  0  0  3  0  0  0  0  0  0
  162.2610  206.2900  151.2170 C   0  0  2  0  0  3  0  0  0  0  0  0
  161.2270  202.8360  147.8410 C   0  0  0  0  0  0  0  0  0  0  0  0
  160.8980  201.6840  146.9640 C   0  0  0  0  0  1  0  0  0  0  0  0
  160.6080  202.9350  149.1300 N   0  0  0  0  0  2  0  0  0  0  0  0
  162.0380  203.7090  147.4330 O   0  0  0  0  0  0  0  0  0  0  0  0
  2  1  2  0  0  0  0
  3  2  1  0  0  0  0
  3 21  1  0  0  0  0
  4 10  1  0  0  0  0
  5  4  2  0  0  0  0
  6  8  2  0  0  0  0
  7  9  2  0  0  0  0
  7  6  1  0  0  0  0
  8  4  1  0  0  0  0
  8  2  1  0  0  0  0
  9  5  1  0  0  0  0
 10 12  2  0  0  0  0
 11 10  1  0  0  0  0
 13 11  1  6  0  0  0
 13 15  1  0  0  0  0
 14 15  1  0  0  0  0
 15 16  2  0  0  0  0
 17 13  1  0  0  0  0
 17 18  1  0  0  0  0
 19 17  2  0  0  0  0
 21 20  1  1  0  0  0
 22 21  1  0  0  0  0
 23 30  1  0  0  0  0
 24 26  1  0  0  0  0
 25 26  2  0  0  0  0
 25 22  1  0  0  0  0
 27 24  2  0  0  0  0
 29 27  1  0  0  0  0
 29 23  2  0  0  0  0
 30 28  1  1  0  0  0
 30 25  1  0  0  0  0
 31 33  1  0  0  0  0
 32 31  1  0  0  0  0
 33 27  1  0  0  0  0
 34 31  2  0  0  0  0
M  END
>  <MODEL>
3

>  <REMARK>
 VINA RESULT:      -7.0      2.639      9.636
  Name = 
  9 active torsions:
  status: ('A' for Active; 'I' for Inactive)
    1  A    between atoms: C_2  and  C_20
    2  A    between atoms: C_8  and  CA_9
    3  A    between atoms: CA_9  and  C_10
    4  A    between atoms: CA_9  and  N_23
    5  A    between atoms: C_12  and  C_13
    6  A    between atoms: C_12  and  C_26
    7  A    between atoms: C_16  and  C_29
    8  A    between atoms: N_17  and  C_24
    9  A    between atoms: N_22  and  C_26
                            x       y       z     vdW  Elec       q    Type
                         _______ _______ _______ _____ _____    ______ ____

>  <TORSDO>
F 9

$$$$
=
 OpenBabel11072413113D

 34 35  0  0  1  0  0  0  0  0999 V2000
  159.9000  207.4780  155.3710 O   0  0  0  0  0  0  0  0  0  0  0  0
  160.6780  208.3550  154.9060 C   0  0  0  0  0  0  0  0  0  0  0  0
  161.2970  208.1580  153.6260 N   0  0  0  0  0  2  0  0  0  0  0  0
  160.3130  210.7740  155.6280 C   0  0  0  0  0  0  0  0  0  0  0  0
  160.7980  211.8640  156.3590 C   0  0  0  0  0  3  0  0  0  0  0  0
  162.1160  209.4650  156.5670 C   0  0  0  0  0  3  0  0  0  0  0  0
  162.5240  210.5570  157.2610 N   0  0  0  0  0  0  0  0  0  0  0  0
  161.0070  209.5430  155.7190 C   0  0  0  0  0  0  0  0  0  0  0  0
  161.8900  211.7240  157.1510 N   0  0  0  0  0  0  0  0  0  0  0  0
  159.0560  210.9580  154.8700 C   0  0  0  0  0  0  0  0  0  0  0  0
  157.8650  211.3470  155.5610 N   0  0  0  0  0  2  0  0  0  0  0  0
  159.0160  210.7240  153.6310 O   0  0  0  0  0  0  0  0  0  0  0  0
  156.5750  211.4910  154.8950 C   0  0  2  0  0  3  0  0  0  0  0  0
  155.4260  213.3200  153.5940 N   0  0  0  0  0  1  0  0  0  0  0  0
  156.2650  212.9360  154.6780 C   0  0  0  0  0  0  0  0  0  0  0  0
  156.7200  213.8150  155.4580 O   0  0  0  0  0  0  0  0  0  0  0  0
  155.4900  210.8270  155.6850 C   0  0  0  0  0  0  0  0  0  0  0  0
  155.2380  211.2400  156.9860 O   0  0  0  0  0  1  0  0  0  0  0  0
  154.8130  209.8910  155.1840 O   0  0  0  0  0  0  0  0  0  0  0  0
  162.2490  206.0490  152.8240 C   0  0  0  0  0  1  0  0  0  0  0  0
  161.0710  207.0070  152.7580 C   0  0  2  0  0  3  0  0  0  0  0  0
  160.8050  207.4580  151.3260 C   0  0  0  0  0  2  0  0  0  0  0  0
  161.4610  206.3630  147.9430 N   0  0  0  0  0  0  0  0  0  0  0  0
  160.8090  203.9730  149.6910 C   0  0  0  0  0  2  0  0  0  0  0  0
  161.1060  206.3660  150.3470 C   0  0  0  0  0  0  0  0  0  0  0  0
  160.6090  205.1470  150.5640 C   0  0  0  0  0  3  0  0  0  0  0  0
  161.0440  203.9730  148.3680 C   0  0  0  0  0  0  0  0  0  0  0  0
  162.5750  207.9010  149.2710 F   0  0  0  0  0  0  0  0  0  0  0  0
  161.0370  205.2010  147.5460 C   0  0  0  0  0  3  0  0  0  0  0  0
  162.0820  206.6080  149.2360 C   0  0  2  0  0  3  0  0  0  0  0  0
  161.2180  201.4100  148.2110 C   0  0  0  0  0  0  0  0  0  0  0  0
  161.3510  200.2450  147.2990 C   0  0  0  0  0  1  0  0  0  0  0  0
  161.1700  202.7320  147.6570 N   0  0  0  0  0  0  0  0  0  0  0  0
  161.1560  201.2170  149.4540 O   0  0  0  0  0  0  0  0  0  0  0  0
  2  1  2  0  0  0  0
  2  8  1  0  0  0  0
  3  2  1  0  0  0  0
  4  8  2  0  0  0  0
  4  5  1  0  0  0  0
  5  9  2  0  0  0  0
  6  7  2  0  0  0  0
  8  6  1  0  0  0  0
  9  7  1  0  0  0  0
 10 11  1  0  0  0  0
 10  4  1  0  0  0  0
 12 10  2  0  0  0  0
 13 15  1  1  0  0  0
 13 11  1  0  0  0  0
 13 17  1  0  0  0  0
 14 15  1  0  0  0  0
 15 16  2  0  0  0  0
 17 18  1  0  0  0  0
 19 17  2  0  0  0  0
 21 20  1  6  0  0  0
 21  3  1  0  0  0  0
 22 21  1  0  0  0  0
 23 30  1  0  0  0  0
 24 26  1  0  0  0  0
 25 26  2  0  0  0  0
 25 22  1  0  0  0  0
 27 24  1  0  0  0  0
 29 23  2  0  0  0  0
 29 27  1  0  0  0  0
 30 28  1  6  0  0  0
 30 25  1  0  0  0  0
 31 34  2  0  0  0  0
 32 31  1  0  0  0  0
 33 31  1  0  0  0  0
 33 27  2  0  0  0  0
M  END
>  <MODEL>
4

>  <REMARK>
 VINA RESULT:      -6.8      3.095     10.116
  Name = 
  9 active torsions:
  status: ('A' for Active; 'I' for Inactive)
    1  A    between atoms: C_2  and  C_20
    2  A    between atoms: C_8  and  CA_9
    3  A    between atoms: CA_9  and  C_10
    4  A    between atoms: CA_9  and  N_23
    5  A    between atoms: C_12  and  C_13
    6  A    between atoms: C_12  and  C_26
    7  A    between atoms: C_16  and  C_29
    8  A    between atoms: N_17  and  C_24
    9  A    between atoms: N_22  and  C_26
                            x       y       z     vdW  Elec       q    Type
                         _______ _______ _______ _____ _____    ______ ____

>  <TORSDO>
F 9

$$$$
=
 OpenBabel11072413113D

 34 35  0  0  1  0  0  0  0  0999 V2000
  160.5470  207.2460  149.8540 O   0  0  0  0  0  0  0  0  0  0  0  0
  161.1980  207.9620  150.6640 C   0  0  0  0  0  0  0  0  0  0  0  0
  161.5430  207.4500  151.9590 N   0  0  0  0  0  2  0  0  0  0  0  0
  161.2160  210.4750  151.1070 C   0  0  0  0  0  0  0  0  0  0  0  0
  161.4700  211.7520  150.5960 C   0  0  0  0  0  3  0  0  0  0  0  0
  162.1190  209.5780  149.0510 C   0  0  0  0  0  3  0  0  0  0  0  0
  162.3530  210.8440  148.6230 N   0  0  0  0  0  0  0  0  0  0  0  0
  161.5310  209.3540  150.3000 C   0  0  0  0  0  0  0  0  0  0  0  0
  162.0280  211.8990  149.3690 N   0  0  0  0  0  0  0  0  0  0  0  0
  160.7100  210.3750  152.4930 C   0  0  0  0  0  0  0  0  0  0  0  0
  161.5830  210.6720  153.5870 N   0  0  0  0  0  2  0  0  0  0  0  0
  159.5330  209.9810  152.7180 O   0  0  0  0  0  0  0  0  0  0  0  0
  161.1770  210.5400  154.9820 C   0  0  2  0  0  3  0  0  0  0  0  0
  159.7450  212.5790  154.5920 N   0  0  0  0  0  1  0  0  0  0  0  0
  160.5700  211.8170  155.4660 C   0  0  0  0  0  0  0  0  0  0  0  0
  160.7630  212.2130  156.6460 O   0  0  0  0  0  0  0  0  0  0  0  0
  162.3390  210.1450  155.8400 C   0  0  0  0  0  0  0  0  0  0  0  0
  162.1750  209.1600  156.8050 O   0  0  0  0  0  1  0  0  0  0  0  0
  163.4580  210.7060  155.7030 O   0  0  0  0  0  0  0  0  0  0  0  0
  161.2080  206.0660  153.9530 C   0  0  0  0  0  1  0  0  0  0  0  0
  161.2320  206.1040  152.4330 C   0  0  2  0  0  3  0  0  0  0  0  0
  162.2260  205.0940  151.8710 C   0  0  0  0  0  2  0  0  0  0  0  0
  161.2030  201.7740  150.8680 N   0  0  0  0  0  0  0  0  0  0  0  0
  161.0580  203.6570  148.4970 C   0  0  0  0  0  3  0  0  0  0  0  0
  161.5700  204.1760  150.8870 C   0  0  0  0  0  0  0  0  0  0  0  0
  161.6440  204.4640  149.5860 C   0  0  0  0  0  3  0  0  0  0  0  0
  160.8180  202.3350  148.5010 C   0  0  0  0  0  0  0  0  0  0  0  0
  160.6720  203.0070  152.7570 F   0  0  0  0  0  0  0  0  0  0  0  0
  161.2170  201.4450  149.6120 C   0  0  0  0  0  3  0  0  0  0  0  0
  160.7130  203.0480  151.3740 C   0  0  2  0  0  3  0  0  0  0  0  0
  160.6150  201.9590  145.9640 C   0  0  0  0  0  0  0  0  0  0  0  0
  159.9460  201.1800  144.8910 C   0  0  0  0  0  1  0  0  0  0  0  0
  160.2830  201.6940  147.3330 N   0  0  0  0  0  2  0  0  0  0  0  0
  161.4570  202.8420  145.6510 O   0  0  0  0  0  0  0  0  0  0  0  0
  1  2  2  0  0  0  0
  2  3  1  0  0  0  0
  3 21  1  0  0  0  0
  4 10  1  0  0  0  0
  5  4  1  0  0  0  0
  6  8  1  0  0  0  0
  7  6  2  0  0  0  0
  7  9  1  0  0  0  0
  8  2  1  0  0  0  0
  8  4  2  0  0  0  0
  9  5  2  0  0  0  0
 10 12  2  0  0  0  0
 10 11  1  0  0  0  0
 13 11  1  6  0  0  0
 13 15  1  0  0  0  0
 13 17  1  0  0  0  0
 14 15  1  0  0  0  0
 15 16  2  0  0  0  0
 17 18  1  0  0  0  0
 19 17  2  0  0  0  0
 21 20  1  1  0  0  0
 22 21  1  0  0  0  0
 23 30  1  0  0  0  0
 24 27  2  0  0  0  0
 24 26  1  0  0  0  0
 25 30  1  0  0  0  0
 25 22  1  0  0  0  0
 26 25  2  0  0  0  0
 27 29  1  0  0  0  0
 29 23  2  0  0  0  0
 30 28  1  1  0  0  0
 31 33  1  0  0  0  0
 32 31  1  0  0  0  0
 33 27  1  0  0  0  0
 34 31  2  0  0  0  0
M  END
>  <MODEL>
5

>  <REMARK>
 VINA RESULT:      -6.6      3.026      9.717
  Name = 
  9 active torsions:
  status: ('A' for Active; 'I' for Inactive)
    1  A    between atoms: C_2  and  C_20
    2  A    between atoms: C_8  and  CA_9
    3  A    between atoms: CA_9  and  C_10
    4  A    between atoms: CA_9  and  N_23
    5  A    between atoms: C_12  and  C_13
    6  A    between atoms: C_12  and  C_26
    7  A    between atoms: C_16  and  C_29
    8  A    between atoms: N_17  and  C_24
    9  A    between atoms: N_22  and  C_26
                            x       y       z     vdW  Elec       q    Type
                         _______ _______ _______ _____ _____    ______ ____

>  <TORSDO>
F 9

$$$$
=
 OpenBabel11072413113D

 34 35  0  0  1  0  0  0  0  0999 V2000
  160.3510  206.3940  148.8260 O   0  0  0  0  0  0  0  0  0  0  0  0
  160.9570  206.0680  149.8840 C   0  0  0  0  0  0  0  0  0  0  0  0
  161.5970  207.0720  150.6840 N   0  0  0  0  0  2  0  0  0  0  0  0
  161.2460  203.6000  149.3050 C   0  0  0  0  0  0  0  0  0  0  0  0
  161.2110  202.2780  149.7620 C   0  0  0  0  0  3  0  0  0  0  0  0
  160.9090  204.2990  151.5950 C   0  0  0  0  0  3  0  0  0  0  0  0
  160.9000  202.9950  151.9720 N   0  0  0  0  0  0  0  0  0  0  0  0
  161.0680  204.6410  150.2490 C   0  0  0  0  0  0  0  0  0  0  0  0
  161.0360  202.0150  151.0810 N   0  0  0  0  0  0  0  0  0  0  0  0
  161.5500  203.8280  147.8760 C   0  0  0  0  0  0  0  0  0  0  0  0
  160.6730  203.3010  146.8750 N   0  0  0  0  0  2  0  0  0  0  0  0
  162.6010  204.4370  147.5330 O   0  0  0  0  0  0  0  0  0  0  0  0
  160.9350  203.4330  145.4460 C   0  0  2  0  0  3  0  0  0  0  0  0
  161.8140  205.3580  144.0740 N   0  0  0  0  0  1  0  0  0  0  0  0
  160.8920  204.8710  145.0430 C   0  0  0  0  0  0  0  0  0  0  0  0
  160.0330  205.6500  145.5350 O   0  0  0  0  0  0  0  0  0  0  0  0
  159.9560  202.6280  144.6480 C   0  0  0  0  0  0  0  0  0  0  0  0
  160.0650  201.2440  144.6230 O   0  0  0  0  0  1  0  0  0  0  0  0
  159.0430  203.1950  143.9920 O   0  0  0  0  0  0  0  0  0  0  0  0
  162.3130  208.7960  149.0970 C   0  0  0  0  0  1  0  0  0  0  0  0
  161.5800  208.5040  150.3960 C   0  0  2  0  0  3  0  0  0  0  0  0
  162.1770  209.2920  151.5570 C   0  0  0  0  0  2  0  0  0  0  0  0
  160.4570  212.1030  153.0440 N   0  0  0  0  0  0  0  0  0  0  0  0
  159.7280  209.5540  154.5150 C   0  0  0  0  0  3  0  0  0  0  0  0
  161.1080  209.8380  152.4510 C   0  0  0  0  0  0  0  0  0  0  0  0
  160.7550  209.1460  153.5350 C   0  0  0  0  0  3  0  0  0  0  0  0
  159.3410  210.8060  154.8150 C   0  0  0  0  0  0  0  0  0  0  0  0
  160.7830  211.5430  150.8190 F   0  0  0  0  0  0  0  0  0  0  0  0
  159.9880  212.0090  154.2520 C   0  0  0  0  0  3  0  0  0  0  0  0
  160.3410  211.0580  152.0380 C   0  0  2  0  0  3  0  0  0  0  0  0
  157.0010  211.4740  155.6530 C   0  0  0  0  0  0  0  0  0  0  0  0
  156.1300  211.6470  156.8430 C   0  0  0  0  0  1  0  0  0  0  0  0
  158.3530  211.0320  155.8320 N   0  0  0  0  0  2  0  0  0  0  0  0
  156.5390  211.7240  154.5080 O   0  0  0  0  0  0  0  0  0  0  0  0
  1  2  2  0  0  0  0
  2  8  1  0  0  0  0
  2  3  1  0  0  0  0
  4  5  2  0  0  0  0
  4  8  1  0  0  0  0
  5  9  1  0  0  0  0
  6  7  1  0  0  0  0
  8  6  2  0  0  0  0
  9  7  2  0  0  0  0
 10  4  1  0  0  0  0
 11 10  1  0  0  0  0
 12 10  2  0  0  0  0
 13 17  1  6  0  0  0
 13 11  1  0  0  0  0
 14 15  1  0  0  0  0
 15 13  1  0  0  0  0
 15 16  2  0  0  0  0
 18 17  1  0  0  0  0
 19 17  2  0  0  0  0
 21 20  1  6  0  0  0
 21  3  1  0  0  0  0
 21 22  1  0  0  0  0
 22 25  1  0  0  0  0
 23 29  2  0  0  0  0
 24 27  2  0  0  0  0
 25 26  2  0  0  0  0
 26 24  1  0  0  0  0
 27 33  1  0  0  0  0
 29 27  1  0  0  0  0
 30 28  1  6  0  0  0
 30 25  1  0  0  0  0
 30 23  1  0  0  0  0
 31 33  1  0  0  0  0
 31 32  1  0  0  0  0
 34 31  2  0  0  0  0
M  END
>  <MODEL>
6

>  <REMARK>
 VINA RESULT:      -6.6      1.794      2.495
  Name = 
  9 active torsions:
  status: ('A' for Active; 'I' for Inactive)
    1  A    between atoms: C_2  and  C_20
    2  A    between atoms: C_8  and  CA_9
    3  A    between atoms: CA_9  and  C_10
    4  A    between atoms: CA_9  and  N_23
    5  A    between atoms: C_12  and  C_13
    6  A    between atoms: C_12  and  C_26
    7  A    between atoms: C_16  and  C_29
    8  A    between atoms: N_17  and  C_24
    9  A    between atoms: N_22  and  C_26
                            x       y       z     vdW  Elec       q    Type
                         _______ _______ _______ _____ _____    ______ ____

>  <TORSDO>
F 9

$$$$
=
 OpenBabel11072413113D

 34 35  0  0  1  0  0  0  0  0999 V2000
  161.0100  211.8870  152.3260 O   0  0  0  0  0  0  0  0  0  0  0  0
  159.9020  211.3780  152.6500 C   0  0  0  0  0  0  0  0  0  0  0  0
  159.8120  209.9740  152.9310 N   0  0  0  0  0  2  0  0  0  0  0  0
  158.5020  213.3410  151.8150 C   0  0  0  0  0  0  0  0  0  0  0  0
  157.3660  214.1340  152.0060 C   0  0  0  0  0  3  0  0  0  0  0  0
  157.7080  211.9370  153.6160 C   0  0  0  0  0  3  0  0  0  0  0  0
  156.6200  212.7390  153.7370 N   0  0  0  0  0  0  0  0  0  0  0  0
  158.6890  212.2200  152.6610 C   0  0  0  0  0  0  0  0  0  0  0  0
  156.4600  213.8110  152.9630 N   0  0  0  0  0  0  0  0  0  0  0  0
  159.3950  213.6770  150.6850 C   0  0  0  0  0  0  0  0  0  0  0  0
  159.1760  213.0730  149.4070 N   0  0  0  0  0  2  0  0  0  0  0  0
  160.3770  214.4520  150.8540 O   0  0  0  0  0  0  0  0  0  0  0  0
  160.0470  213.3080  148.2610 C   0  0  2  0  0  3  0  0  0  0  0  0
  158.0360  212.6700  146.8790 N   0  0  0  0  0  1  0  0  0  0  0  0
  159.4510  212.7110  147.0270 C   0  0  0  0  0  0  0  0  0  0  0  0
  160.1890  212.2650  146.1090 O   0  0  0  0  0  0  0  0  0  0  0  0
  161.4170  212.7570  148.5100 C   0  0  0  0  0  0  0  0  0  0  0  0
  162.5310  213.4800  148.1050 O   0  0  0  0  0  0  0  0  0  0  0  0
  161.5670  211.6400  149.0710 O   0  0  0  0  0  1  0  0  0  0  0  0
  161.9130  209.3680  154.0370 C   0  0  0  0  0  1  0  0  0  0  0  0
  160.9390  209.0460  152.9140 C   0  0  2  0  0  3  0  0  0  0  0  0
  161.6330  209.0690  151.5580 C   0  0  0  0  0  2  0  0  0  0  0  0
  160.9600  207.0430  148.6400 N   0  0  0  0  0  0  0  0  0  0  0  0
  161.1200  205.2810  151.1020 C   0  0  0  0  0  3  0  0  0  0  0  0
  161.5680  207.7310  150.8900 C   0  0  0  0  0  0  0  0  0  0  0  0
  161.2360  206.6620  151.6150 C   0  0  0  0  0  3  0  0  0  0  0  0
  160.8230  204.9010  149.8480 C   0  0  0  0  0  0  0  0  0  0  0  0
  162.4490  208.7910  148.9480 F   0  0  0  0  0  0  0  0  0  0  0  0
  160.4540  205.8540  148.7800 C   0  0  0  0  0  3  0  0  0  0  0  0
  162.0260  207.5810  149.4710 C   0  0  2  0  0  3  0  0  0  0  0  0
  161.2240  202.8320  148.3720 C   0  0  0  0  0  0  0  0  0  0  0  0
  160.9940  201.3730  148.2200 C   0  0  0  0  0  1  0  0  0  0  0  0
  160.7040  203.5070  149.5250 N   0  0  0  0  0  2  0  0  0  0  0  0
  161.8650  203.4520  147.4820 O   0  0  0  0  0  0  0  0  0  0  0  0
  1  2  2  0  0  0  0
  2  8  1  0  0  0  0
  2  3  1  0  0  0  0
  4  5  2  0  0  0  0
  4  8  1  0  0  0  0
  5  9  1  0  0  0  0
  6  7  1  0  0  0  0
  8  6  2  0  0  0  0
  9  7  2  0  0  0  0
 10 12  2  0  0  0  0
 10  4  1  0  0  0  0
 11 10  1  0  0  0  0
 13 15  1  6  0  0  0
 13 17  1  0  0  0  0
 13 11  1  0  0  0  0
 14 15  1  0  0  0  0
 16 15  2  0  0  0  0
 17 19  1  0  0  0  0
 18 17  2  0  0  0  0
 21  3  1  0  0  0  0
 21 20  1  1  0  0  0
 22 21  1  0  0  0  0
 23 29  2  0  0  0  0
 23 30  1  0  0  0  0
 24 26  1  0  0  0  0
 25 22  1  0  0  0  0
 25 26  2  0  0  0  0
 27 24  2  0  0  0  0
 29 27  1  0  0  0  0
 30 28  1  6  0  0  0
 30 25  1  0  0  0  0
 31 33  1  0  0  0  0
 32 31  1  0  0  0  0
 33 27  1  0  0  0  0
 34 31  2  0  0  0  0
M  END
>  <MODEL>
7

>  <REMARK>
 VINA RESULT:      -6.6      3.779      8.590
  Name = 
  9 active torsions:
  status: ('A' for Active; 'I' for Inactive)
    1  A    between atoms: C_2  and  C_20
    2  A    between atoms: C_8  and  CA_9
    3  A    between atoms: CA_9  and  C_10
    4  A    between atoms: CA_9  and  N_23
    5  A    between atoms: C_12  and  C_13
    6  A    between atoms: C_12  and  C_26
    7  A    between atoms: C_16  and  C_29
    8  A    between atoms: N_17  and  C_24
    9  A    between atoms: N_22  and  C_26
                            x       y       z     vdW  Elec       q    Type
                         _______ _______ _______ _____ _____    ______ ____

>  <TORSDO>
F 9

$$$$
=
 OpenBabel11072413113D

 34 35  0  0  1  0  0  0  0  0999 V2000
  162.6110  205.6510  152.0880 O   0  0  0  0  0  0  0  0  0  0  0  0
  161.7230  206.1260  151.3280 C   0  0  0  0  0  0  0  0  0  0  0  0
  160.6350  205.2990  150.8900 N   0  0  0  0  0  2  0  0  0  0  0  0
  161.4930  208.6540  151.5860 C   0  0  0  0  0  0  0  0  0  0  0  0
  161.5450  209.9040  150.9600 C   0  0  0  0  0  3  0  0  0  0  0  0
  162.2860  207.6920  149.5140 C   0  0  0  0  0  3  0  0  0  0  0  0
  162.3280  208.9360  148.9730 N   0  0  0  0  0  0  0  0  0  0  0  0
  161.8540  207.5100  150.8310 C   0  0  0  0  0  0  0  0  0  0  0  0
  161.9580  210.0080  149.6720 N   0  0  0  0  0  0  0  0  0  0  0  0
  161.1420  208.6160  153.0220 C   0  0  0  0  0  0  0  0  0  0  0  0
  161.1740  209.8230  153.7890 N   0  0  0  0  0  2  0  0  0  0  0  0
  160.8650  207.5210  153.5850 O   0  0  0  0  0  0  0  0  0  0  0  0
  160.8980  209.8580  155.2210 C   0  0  2  0  0  3  0  0  0  0  0  0
  158.6380  210.7580  155.8870 N   0  0  0  0  0  1  0  0  0  0  0  0
  159.9970  211.0050  155.5460 C   0  0  0  0  0  0  0  0  0  0  0  0
  160.4360  212.1860  155.5440 O   0  0  0  0  0  0  0  0  0  0  0  0
  162.1700  209.9420  156.0070 C   0  0  0  0  0  0  0  0  0  0  0  0
  163.2250  210.7040  155.5250 O   0  0  0  0  0  0  0  0  0  0  0  0
  162.2940  209.3190  157.0940 O   0  0  0  0  0  1  0  0  0  0  0  0
  160.6530  203.7470  152.7850 C   0  0  0  0  0  1  0  0  0  0  0  0
  160.4300  203.9100  151.2900 C   0  0  2  0  0  3  0  0  0  0  0  0
  161.3380  202.9810  150.4920 C   0  0  0  0  0  2  0  0  0  0  0  0
  160.8240  201.7380  147.1360 N   0  0  0  0  0  0  0  0  0  0  0  0
  161.8800  204.5780  147.0320 C   0  0  0  0  0  3  0  0  0  0  0  0
  161.2050  203.2240  149.0210 C   0  0  0  0  0  0  0  0  0  0  0  0
  161.8970  204.2200  148.4640 C   0  0  0  0  0  3  0  0  0  0  0  0
  161.6300  203.7650  145.9920 C   0  0  0  0  0  0  0  0  0  0  0  0
  159.4910  201.5700  149.0240 F   0  0  0  0  0  0  0  0  0  0  0  0
  161.4260  202.3080  146.1360 C   0  0  0  0  0  3  0  0  0  0  0  0
  160.1880  202.4610  148.2270 C   0  0  2  0  0  3  0  0  0  0  0  0
  161.1270  205.4810  144.1420 C   0  0  0  0  0  0  0  0  0  0  0  0
  161.3120  205.8280  142.7100 C   0  0  0  0  0  1  0  0  0  0  0  0
  161.6980  204.2680  144.6490 N   0  0  0  0  0  2  0  0  0  0  0  0
  160.4660  206.2560  144.8840 O   0  0  0  0  0  0  0  0  0  0  0  0
  2  1  2  0  0  0  0
  3 21  1  0  0  0  0
  3  2  1  0  0  0  0
  4 10  1  0  0  0  0
  5  4  1  0  0  0  0
  6  8  1  0  0  0  0
  7  6  2  0  0  0  0
  7  9  1  0  0  0  0
  8  2  1  0  0  0  0
  8  4  2  0  0  0  0
  9  5  2  0  0  0  0
 10 12  2  0  0  0  0
 10 11  1  0  0  0  0
 13 11  1  6  0  0  0
 13 15  1  0  0  0  0
 13 17  1  0  0  0  0
 15 14  1  0  0  0  0
 16 15  2  0  0  0  0
 17 19  1  0  0  0  0
 18 17  2  0  0  0  0
 21 20  1  1  0  0  0
 22 21  1  0  0  0  0
 23 30  1  0  0  0  0
 24 26  1  0  0  0  0
 25 22  1  0  0  0  0
 26 25  2  0  0  0  0
 27 29  1  0  0  0  0
 27 24  2  0  0  0  0
 29 23  2  0  0  0  0
 30 25  1  0  0  0  0
 30 28  1  1  0  0  0
 31 33  1  0  0  0  0
 31 34  2  0  0  0  0
 32 31  1  0  0  0  0
 33 27  1  0  0  0  0
M  END
>  <MODEL>
8

>  <REMARK>
 VINA RESULT:      -6.6      3.196      9.894
  Name = 
  9 active torsions:
  status: ('A' for Active; 'I' for Inactive)
    1  A    between atoms: C_2  and  C_20
    2  A    between atoms: C_8  and  CA_9
    3  A    between atoms: CA_9  and  C_10
    4  A    between atoms: CA_9  and  N_23
    5  A    between atoms: C_12  and  C_13
    6  A    between atoms: C_12  and  C_26
    7  A    between atoms: C_16  and  C_29
    8  A    between atoms: N_17  and  C_24
    9  A    between atoms: N_22  and  C_26
                            x       y       z     vdW  Elec       q    Type
                         _______ _______ _______ _____ _____    ______ ____

>  <TORSDO>
F 9

$$$$
=
 OpenBabel11072413113D

 34 35  0  0  1  0  0  0  0  0999 V2000
  160.4090  207.8010  152.7410 O   0  0  0  0  0  0  0  0  0  0  0  0
  161.0300  207.5110  151.6820 C   0  0  0  0  0  0  0  0  0  0  0  0
  161.2990  206.1390  151.3600 N   0  0  0  0  0  2  0  0  0  0  0  0
  161.6460  209.9450  151.2320 C   0  0  0  0  0  0  0  0  0  0  0  0
  162.0300  210.9000  150.2840 C   0  0  0  0  0  3  0  0  0  0  0  0
  161.8750  208.2740  149.5000 C   0  0  0  0  0  3  0  0  0  0  0  0
  162.2560  209.2480  148.6350 N   0  0  0  0  0  0  0  0  0  0  0  0
  161.5450  208.5940  150.8200 C   0  0  0  0  0  0  0  0  0  0  0  0
  162.3210  210.5240  149.0140 N   0  0  0  0  0  0  0  0  0  0  0  0
  161.4490  210.3980  152.6260 C   0  0  0  0  0  0  0  0  0  0  0  0
  160.2100  211.0050  153.0030 N   0  0  0  0  0  2  0  0  0  0  0  0
  162.3830  210.3000  153.4690 O   0  0  0  0  0  0  0  0  0  0  0  0
  159.9610  211.5300  154.3410 C   0  0  2  0  0  3  0  0  0  0  0  0
  159.7650  209.4650  155.7750 N   0  0  0  0  0  1  0  0  0  0  0  0
  159.1350  210.5650  155.1290 C   0  0  0  0  0  0  0  0  0  0  0  0
  157.8920  210.7300  155.2460 O   0  0  0  0  0  0  0  0  0  0  0  0
  159.2930  212.8690  154.2730 C   0  0  0  0  0  0  0  0  0  0  0  0
  159.3590  213.7240  155.3650 O   0  0  0  0  0  1  0  0  0  0  0  0
  158.6640  213.2200  153.2410 O   0  0  0  0  0  0  0  0  0  0  0  0
  161.3870  205.1130  153.5840 C   0  0  0  0  0  1  0  0  0  0  0  0
  160.8690  204.9950  152.1590 C   0  0  2  0  0  3  0  0  0  0  0  0
  161.3200  203.6890  151.5140 C   0  0  0  0  0  2  0  0  0  0  0  0
  161.3000  201.9870  148.3240 N   0  0  0  0  0  0  0  0  0  0  0  0
  161.0100  204.9750  147.8990 C   0  0  0  0  0  3  0  0  0  0  0  0
  161.0510  203.6890  150.0410 C   0  0  0  0  0  0  0  0  0  0  0  0
  161.2240  204.8180  149.3520 C   0  0  0  0  0  3  0  0  0  0  0  0
  161.1090  204.0250  146.9540 C   0  0  0  0  0  0  0  0  0  0  0  0
  160.2300  201.4700  150.3130 F   0  0  0  0  0  0  0  0  0  0  0  0
  161.5640  202.6480  147.2370 C   0  0  0  0  0  3  0  0  0  0  0  0
  160.4450  202.4810  149.3930 C   0  0  2  0  0  3  0  0  0  0  0  0
  161.7060  205.2390  144.7650 C   0  0  0  0  0  0  0  0  0  0  0  0
  161.3350  205.4540  143.3430 C   0  0  0  0  0  1  0  0  0  0  0  0
  160.9120  204.3590  145.5720 N   0  0  0  0  0  2  0  0  0  0  0  0
  162.7070  205.8390  145.2390 O   0  0  0  0  0  0  0  0  0  0  0  0
  2  1  2  0  0  0  0
  3  2  1  0  0  0  0
  3 21  1  0  0  0  0
  4 10  1  0  0  0  0
  5  4  2  0  0  0  0
  6  8  2  0  0  0  0
  7  9  2  0  0  0  0
  7  6  1  0  0  0  0
  8  4  1  0  0  0  0
  8  2  1  0  0  0  0
  9  5  1  0  0  0  0
 10 11  1  0  0  0  0
 10 12  2  0  0  0  0
 13 11  1  6  0  0  0
 13 15  1  0  0  0  0
 15 16  2  0  0  0  0
 15 14  1  0  0  0  0
 17 13  1  0  0  0  0
 17 18  1  0  0  0  0
 19 17  2  0  0  0  0
 21 20  1  1  0  0  0
 22 21  1  0  0  0  0
 23 30  1  0  0  0  0
 24 26  1  0  0  0  0
 25 22  1  0  0  0  0
 26 25  2  0  0  0  0
 27 29  1  0  0  0  0
 27 24  2  0  0  0  0
 29 23  2  0  0  0  0
 30 25  1  0  0  0  0
 30 28  1  1  0  0  0
 31 34  2  0  0  0  0
 31 33  1  0  0  0  0
 32 31  1  0  0  0  0
 33 27  1  0  0  0  0
M  END
>  <MODEL>
9

>  <REMARK>
 VINA RESULT:      -6.4      2.851      9.707
  Name = 
  9 active torsions:
  status: ('A' for Active; 'I' for Inactive)
    1  A    between atoms: C_2  and  C_20
    2  A    between atoms: C_8  and  CA_9
    3  A    between atoms: CA_9  and  C_10
    4  A    between atoms: CA_9  and  N_23
    5  A    between atoms: C_12  and  C_13
    6  A    between atoms: C_12  and  C_26
    7  A    between atoms: C_16  and  C_29
    8  A    between atoms: N_17  and  C_24
    9  A    between atoms: N_22  and  C_26
                            x       y       z     vdW  Elec       q    Type
                         _______ _______ _______ _____ _____    ______ ____

>  <TORSDO>
F 9

$$$$
