=
 OpenBabel11072410033D

 55 59  0  0  1  0  0  0  0  0999 V2000
  160.9560  207.2260  152.8780 C   0  0  2  0  0  3  0  0  0  0  0  0
  160.7840  207.5070  154.3430 C   0  0  0  0  0  0  0  0  0  0  0  0
  159.5480  207.3410  156.4060 C   0  0  0  0  0  3  0  0  0  0  0  0
  161.8250  208.1240  155.0440 C   0  0  0  0  0  3  0  0  0  0  0  0
  160.5700  207.9530  157.0630 N   0  0  0  0  0  0  0  0  0  0  0  0
  161.6970  208.3450  156.4150 C   0  0  0  0  0  3  0  0  0  0  0  0
  159.6400  207.0980  155.0360 C   0  0  0  0  0  3  0  0  0  0  0  0
  161.9030  206.0470  152.6150 C   0  0  2  0  0  3  0  0  0  0  0  0
  162.8950  206.3840  151.6880 O   0  0  0  0  0  1  0  0  0  0  0  0
  161.9520  203.5400  152.5030 C   0  0  0  0  0  1  0  0  0  0  0  0
  161.1470  204.7900  152.1890 C   0  0  2  0  0  3  0  0  0  0  0  0
  160.5990  204.8800  150.7540 C   0  0  0  0  0  2  0  0  0  0  0  0
  161.1460  203.8700  149.7480 C   0  0  1  0  0  3  0  0  0  0  0  0
  160.3040  202.6080  149.8710 C   0  0  0  0  0  1  0  0  0  0  0  0
  160.6180  206.6170  146.9360 C   0  0  1  0  0  3  0  0  0  0  0  0
  161.3810  207.8320  147.1860 N   0  0  0  0  0  0  0  0  0  0  0  0
  163.5540  204.9650  145.7080 O   0  0  0  0  0  0  0  0  0  0  0  0
  161.0920  204.4730  148.3340 C   0  0  2  0  0  3  0  0  0  0  0  0
  162.3820  204.4330  147.6500 N   0  0  0  0  0  2  0  0  0  0  0  0
  162.4860  205.0530  146.3690 C   0  0  0  0  0  0  0  0  0  0  0  0
  161.7390  207.8750  148.4220 C   0  0  0  0  0  0  0  0  0  0  0  0
  161.3080  205.8080  145.8220 C   0  0  1  0  0  3  0  0  0  0  0  0
  161.3110  206.7770  149.2070 N   0  0  0  0  0  2  0  0  0  0  0  0
  160.5360  205.9130  148.3250 C   0  0  1  0  0  3  0  0  0  0  0  0
  162.7500  209.1940  149.0800 S   0  0  0  0  0  0  0  0  0  0  0  0
  161.6760  210.4670  148.3600 C   0  0  0  0  0  1  0  0  0  0  0  0
  160.8960  204.2360  143.9190 C   0  0  0  0  0  1  0  0  0  0  0  0
  160.3040  204.8620  145.1720 C   0  0  0  0  0  2  0  0  0  0  0  0
  161.3710  208.3890  152.2140 O   0  0  0  0  0  0  0  0  0  0  0  0
  160.5100  209.3990  152.6600 C   0  0  0  0  0  2  0  0  0  0  0  0
  161.2840  210.6800  152.9280 C   0  0  0  0  0  2  0  0  0  0  0  0
  160.5330  211.8370  152.4750 N   0  0  0  0  0  0  0  0  0  0  0  0
  160.3960  211.6500  151.0350 C   0  0  0  0  0  2  0  0  0  0  0  0
  160.6250  212.8490  150.3770 F   0  0  0  0  0  0  0  0  0  0  0  0
  159.2060  211.6910  153.0530 C   0  0  0  0  0  2  0  0  0  0  0  0
  159.0530  212.5820  154.2800 C   0  0  0  0  0  2  0  0  0  0  0  0
  157.9640  213.6230  154.0530 C   0  0  1  0  0  3  0  0  0  0  0  0
  157.0370  213.1590  152.9270 C   0  0  1  0  0  3  0  0  0  0  0  0
  155.7560  212.9140  153.4280 O   0  0  0  0  0  1  0  0  0  0  0  0
  157.1940  213.5930  150.5210 C   0  0  2  0  0  3  0  0  0  0  0  0
  156.9420  214.2170  151.8390 C   0  0  2  0  0  3  0  0  0  0  0  0
  158.1830  214.3400  151.1850 O   0  0  0  0  0  0  0  0  0  0  0  0
  157.0370  214.3940  148.1750 C   0  0  0  0  0  3  0  0  0  0  0  0
  156.5950  214.4280  149.4360 C   0  0  0  0  0  3  0  0  0  0  0  0
  157.9680  213.1200  146.3470 N   0  0  0  0  0  0  0  0  0  0  0  0
  159.1910  213.3580  145.7240 C   0  0  0  0  0  0  0  0  0  0  0  0
  158.1540  213.5030  147.7340 C   0  0  1  0  0  3  0  0  0  0  0  0
  159.4410  213.0830  144.5200 O   0  0  0  0  0  0  0  0  0  0  0  0
  159.3950  214.1890  147.8570 O   0  0  0  0  0  0  0  0  0  0  0  0
  160.1340  213.9530  146.6690 C   0  0  0  0  0  2  0  0  0  0  0  0
  156.9470  212.2070  145.8620 C   0  0  0  0  0  1  0  0  0  0  0  0
  157.2370  213.7980  155.2370 O   0  0  0  0  0  0  0  0  0  0  0  0
  158.0060  213.1740  156.2260 C   0  0  0  0  0  2  0  0  0  0  0  0
  157.0950  212.5420  157.2590 C   0  0  0  0  0  2  0  0  0  0  0  0
  155.9490  212.0560  156.6260 O   0  0  0  0  0  1  0  0  0  0  0  0
  1 29  1  6  0  0  0
  1  2  1  0  0  0  0
  2  7  2  0  0  0  0
  2  4  1  0  0  0  0
  3  5  2  0  0  0  0
  4  6  2  0  0  0  0
  6  5  1  0  0  0  0
  7  3  1  0  0  0  0
  8  9  1  6  0  0  0
  8  1  1  0  0  0  0
 11 10  1  6  0  0  0
 11  8  1  0  0  0  0
 12 11  1  0  0  0  0
 13 14  1  6  0  0  0
 13 12  1  0  0  0  0
 15 16  1  1  0  0  0
 15 24  1  0  0  0  0
 16 21  2  0  0  0  0
 17 20  2  0  0  0  0
 18 13  1  1  0  0  0
 19 18  1  0  0  0  0
 20 19  1  0  0  0  0
 21 25  1  0  0  0  0
 21 23  1  0  0  0  0
 22 28  1  1  0  0  0
 22 20  1  0  0  0  0
 22 15  1  0  0  0  0
 24 18  1  0  0  0  0
 24 23  1  1  0  0  0
 26 25  1  0  0  0  0
 27 28  1  0  0  0  0
 29 30  1  0  0  0  0
 30 31  1  0  0  0  0
 32 31  1  0  0  0  0
 32 35  1  0  0  0  0
 33 32  1  0  0  0  0
 34 33  1  0  0  0  0
 35 36  1  0  0  0  0
 37 36  1  1  0  0  0
 37 52  1  0  0  0  0
 38 39  1  1  0  0  0
 38 37  1  0  0  0  0
 40 44  1  6  0  0  0
 40 42  1  0  0  0  0
 40 41  1  0  0  0  0
 41 38  1  1  0  0  0
 42 41  1  0  0  0  0
 43 44  2  0  0  0  0
 45 47  1  0  0  0  0
 46 45  1  0  0  0  0
 46 50  1  0  0  0  0
 47 49  1  0  0  0  0
 47 43  1  6  0  0  0
 48 46  2  0  0  0  0
 50 49  1  0  0  0  0
 51 45  1  0  0  0  0
 52 53  1  0  0  0  0
 53 54  1  0  0  0  0
 55 54  1  0  0  0  0
M  END
>  <MODEL>
1

>  <REMARK>
 VINA RESULT:      -4.1      0.000      0.000
  Name = 
  23 active torsions:
  status: ('A' for Active; 'I' for Inactive)
    1  A    between atoms: C_5  and  C_8
    2  A    between atoms: C_5  and  C_34
    3  A    between atoms: C_6  and  C_34
    4  A    between atoms: C_7  and  C_50
    5  A    between atoms: C_8  and  C_14
    6  A    between atoms: C_9  and  C_26
    7  A    between atoms: C_12  and  N_23
    8  A    between atoms: C_12  and  C_38
    9  A    between atoms: C_14  and  C_51
   10  A    between atoms: C_17  and  C_20
   11  A    between atoms: C_19  and  C_40
   12  A    between atoms: C_20  and  C_45
   13  A    between atoms: C_22  and  C_51
   14  A    between atoms: N_23  and  C_30
   15  A    between atoms: N_23  and  C_31
   16  A    between atoms: O_28  and  C_34
   17  A    between atoms: O_28  and  C_46
   18  A    between atoms: C_30  and  C_46
   19  A    between atoms: C_32  and  C_36
   20  A    between atoms: C_32  and  O_54
   21  A    between atoms: S_37  and  C_39
   22  A    between atoms: C_38  and  C_45
   23  A    between atoms: C_45  and  O_54
                            x       y       z     vdW  Elec       q    Type
                         _______ _______ _______ _____ _____    ______ ____

>  <TORSDO>
F 23

$$$$
=
 OpenBabel11072410033D

 55 59  0  0  1  0  0  0  0  0999 V2000
  161.5480  206.5460  151.1740 C   0  0  2  0  0  3  0  0  0  0  0  0
  161.7210  207.8290  150.4140 C   0  0  0  0  0  0  0  0  0  0  0  0
  161.8690  210.2340  150.3130 C   0  0  0  0  0  3  0  0  0  0  0  0
  162.0310  207.7760  149.0520 C   0  0  0  0  0  3  0  0  0  0  0  0
  162.1580  210.1560  148.9860 N   0  0  0  0  0  0  0  0  0  0  0  0
  162.2440  208.9610  148.3470 C   0  0  0  0  0  3  0  0  0  0  0  0
  161.6540  209.0720  151.0540 C   0  0  0  0  0  3  0  0  0  0  0  0
  161.0580  205.3970  150.2820 C   0  0  2  0  0  3  0  0  0  0  0  0
  159.9970  205.7990  149.4650 O   0  0  0  0  0  1  0  0  0  0  0  0
  161.8810  203.6810  151.9190 C   0  0  0  0  0  1  0  0  0  0  0  0
  160.6960  204.1560  151.0950 C   0  0  2  0  0  3  0  0  0  0  0  0
  160.0010  203.0710  150.2520 C   0  0  0  0  0  2  0  0  0  0  0  0
  160.8750  201.9170  149.7680 C   0  0  1  0  0  3  0  0  0  0  0  0
  160.6340  200.7430  150.7070 C   0  0  0  0  0  1  0  0  0  0  0  0
  160.2890  202.5180  145.8920 C   0  0  1  0  0  3  0  0  0  0  0  0
  161.4330  203.1380  145.2390 N   0  0  0  0  0  0  0  0  0  0  0  0
  161.9210  199.3250  145.8310 O   0  0  0  0  0  0  0  0  0  0  0  0
  160.5210  201.5810  148.3090 C   0  0  2  0  0  3  0  0  0  0  0  0
  161.4030  200.5740  147.7280 N   0  0  0  0  0  2  0  0  0  0  0  0
  161.2410  200.2490  146.3470 C   0  0  0  0  0  0  0  0  0  0  0  0
  162.1970  203.6810  146.1220 C   0  0  0  0  0  0  0  0  0  0  0  0
  160.2490  201.0220  145.5250 C   0  0  1  0  0  3  0  0  0  0  0  0
  161.7490  203.5520  147.4600 N   0  0  0  0  0  2  0  0  0  0  0  0
  160.4830  202.8330  147.4070 C   0  0  1  0  0  3  0  0  0  0  0  0
  163.7370  204.4820  145.6940 S   0  0  0  0  0  0  0  0  0  0  0  0
  162.8760  205.9510  145.0680 C   0  0  0  0  0  1  0  0  0  0  0  0
  158.5840  199.3100  144.7790 C   0  0  0  0  0  1  0  0  0  0  0  0
  158.8370  200.4810  145.7160 C   0  0  0  0  0  2  0  0  0  0  0  0
  160.7010  206.7520  152.2720 O   0  0  0  0  0  0  0  0  0  0  0  0
  161.5250  207.2470  153.2900 C   0  0  0  0  0  2  0  0  0  0  0  0
  160.9790  206.8600  154.6560 C   0  0  0  0  0  2  0  0  0  0  0  0
  160.1140  207.9040  155.1760 N   0  0  0  0  0  0  0  0  0  0  0  0
  160.2140  207.7810  156.6260 C   0  0  0  0  0  2  0  0  0  0  0  0
  160.2210  206.4430  156.9890 F   0  0  0  0  0  0  0  0  0  0  0  0
  160.7540  209.1590  154.8080 C   0  0  0  0  0  2  0  0  0  0  0  0
  160.0710  210.3330  155.5010 C   0  0  0  0  0  2  0  0  0  0  0  0
  160.1840  211.5930  154.6520 C   0  0  1  0  0  3  0  0  0  0  0  0
  159.0980  211.5860  153.5740 C   0  0  1  0  0  3  0  0  0  0  0  0
  157.8520  211.3190  154.1470 O   0  0  0  0  0  1  0  0  0  0  0  0
  159.0850  212.7200  151.4030 C   0  0  2  0  0  3  0  0  0  0  0  0
  159.0330  212.9300  152.8670 C   0  0  2  0  0  3  0  0  0  0  0  0
  160.2150  213.1380  152.1290 O   0  0  0  0  0  0  0  0  0  0  0  0
  158.7680  214.1820  149.4180 C   0  0  0  0  0  3  0  0  0  0  0  0
  158.4950  213.8980  150.6960 C   0  0  0  0  0  3  0  0  0  0  0  0
  159.3620  213.5200  147.1730 N   0  0  0  0  0  0  0  0  0  0  0  0
  160.5840  213.7560  146.5470 C   0  0  0  0  0  0  0  0  0  0  0  0
  159.6710  213.3350  148.5790 C   0  0  1  0  0  3  0  0  0  0  0  0
  160.7300  213.8990  145.3040 O   0  0  0  0  0  0  0  0  0  0  0  0
  161.0260  213.7060  148.8010 O   0  0  0  0  0  0  0  0  0  0  0  0
  161.6600  213.7960  147.5360 C   0  0  0  0  0  2  0  0  0  0  0  0
  158.1630  213.0350  146.5090 C   0  0  0  0  0  1  0  0  0  0  0  0
  160.0430  212.7180  155.4740 O   0  0  0  0  0  0  0  0  0  0  0  0
  159.7700  212.2020  156.7450 C   0  0  0  0  0  2  0  0  0  0  0  0
  158.4660  212.7770  157.2610 C   0  0  0  0  0  2  0  0  0  0  0  0
  158.2040  213.9820  156.6070 O   0  0  0  0  0  1  0  0  0  0  0  0
  1 29  1  1  0  0  0
  2  7  1  0  0  0  0
  2  1  1  0  0  0  0
  3  7  2  0  0  0  0
  4  2  2  0  0  0  0
  5  3  1  0  0  0  0
  6  5  2  0  0  0  0
  6  4  1  0  0  0  0
  8  9  1  1  0  0  0
  8 11  1  0  0  0  0
  8  1  1  0  0  0  0
 11 10  1  6  0  0  0
 12 11  1  0  0  0  0
 13 12  1  0  0  0  0
 13 14  1  1  0  0  0
 15 16  1  6  0  0  0
 15 24  1  0  0  0  0
 16 21  2  0  0  0  0
 17 20  2  0  0  0  0
 18 13  1  1  0  0  0
 19 18  1  0  0  0  0
 20 19  1  0  0  0  0
 21 23  1  0  0  0  0
 22 28  1  1  0  0  0
 22 15  1  0  0  0  0
 22 20  1  0  0  0  0
 24 23  1  6  0  0  0
 24 18  1  0  0  0  0
 25 21  1  0  0  0  0
 26 25  1  0  0  0  0
 27 28  1  0  0  0  0
 29 30  1  0  0  0  0
 30 31  1  0  0  0  0
 31 32  1  0  0  0  0
 32 33  1  0  0  0  0
 33 34  1  0  0  0  0
 35 32  1  0  0  0  0
 35 36  1  0  0  0  0
 37 52  1  0  0  0  0
 37 36  1  1  0  0  0
 38 39  1  1  0  0  0
 38 37  1  0  0  0  0
 40 44  1  6  0  0  0
 40 42  1  0  0  0  0
 40 41  1  0  0  0  0
 41 38  1  1  0  0  0
 42 41  1  0  0  0  0
 43 44  2  0  0  0  0
 45 47  1  0  0  0  0
 46 45  1  0  0  0  0
 46 50  1  0  0  0  0
 47 49  1  0  0  0  0
 47 43  1  1  0  0  0
 48 46  2  0  0  0  0
 50 49  1  0  0  0  0
 51 45  1  0  0  0  0
 52 53  1  0  0  0  0
 53 54  1  0  0  0  0
 55 54  1  0  0  0  0
M  END
>  <MODEL>
2

>  <REMARK>
 VINA RESULT:      -3.0      2.726      4.090
  Name = 
  23 active torsions:
  status: ('A' for Active; 'I' for Inactive)
    1  A    between atoms: C_5  and  C_8
    2  A    between atoms: C_5  and  C_34
    3  A    between atoms: C_6  and  C_34
    4  A    between atoms: C_7  and  C_50
    5  A    between atoms: C_8  and  C_14
    6  A    between atoms: C_9  and  C_26
    7  A    between atoms: C_12  and  N_23
    8  A    between atoms: C_12  and  C_38
    9  A    between atoms: C_14  and  C_51
   10  A    between atoms: C_17  and  C_20
   11  A    between atoms: C_19  and  C_40
   12  A    between atoms: C_20  and  C_45
   13  A    between atoms: C_22  and  C_51
   14  A    between atoms: N_23  and  C_30
   15  A    between atoms: N_23  and  C_31
   16  A    between atoms: O_28  and  C_34
   17  A    between atoms: O_28  and  C_46
   18  A    between atoms: C_30  and  C_46
   19  A    between atoms: C_32  and  C_36
   20  A    between atoms: C_32  and  O_54
   21  A    between atoms: S_37  and  C_39
   22  A    between atoms: C_38  and  C_45
   23  A    between atoms: C_45  and  O_54
                            x       y       z     vdW  Elec       q    Type
                         _______ _______ _______ _____ _____    ______ ____

>  <TORSDO>
F 23

$$$$
=
 OpenBabel11072410033D

 55 59  0  0  1  0  0  0  0  0999 V2000
  160.7260  212.0160  148.4240 C   0  0  2  0  0  3  0  0  0  0  0  0
  161.0490  212.6060  147.0820 C   0  0  0  0  0  0  0  0  0  0  0  0
  162.4030  213.9850  145.6400 C   0  0  0  0  0  3  0  0  0  0  0  0
  160.3190  212.1930  145.9630 C   0  0  0  0  0  3  0  0  0  0  0  0
  161.6710  213.5760  144.5690 N   0  0  0  0  0  0  0  0  0  0  0  0
  160.6450  212.6970  144.7040 C   0  0  0  0  0  3  0  0  0  0  0  0
  162.1130  213.5000  146.9150 C   0  0  0  0  0  3  0  0  0  0  0  0
  159.5440  212.7200  149.1050 C   0  0  2  0  0  3  0  0  0  0  0  0
  158.6670  213.2730  148.1670 O   0  0  0  0  0  1  0  0  0  0  0  0
  161.2790  214.4510  149.6470 C   0  0  0  0  0  1  0  0  0  0  0  0
  160.0080  213.7650  150.1180 C   0  0  2  0  0  3  0  0  0  0  0  0
  160.0440  213.2260  151.5590 C   0  0  0  0  0  2  0  0  0  0  0  0
  159.0100  213.7910  152.5270 C   0  0  1  0  0  3  0  0  0  0  0  0
  157.6360  213.3930  152.0060 C   0  0  0  0  0  1  0  0  0  0  0  0
  158.8580  213.5970  156.4860 C   0  0  1  0  0  3  0  0  0  0  0  0
  157.4960  213.6400  157.0000 N   0  0  0  0  0  0  0  0  0  0  0  0
  158.4840  210.1340  155.6360 O   0  0  0  0  0  0  0  0  0  0  0  0
  159.2780  213.2470  153.9410 C   0  0  2  0  0  3  0  0  0  0  0  0
  158.7500  211.9010  154.1410 N   0  0  0  0  0  2  0  0  0  0  0  0
  158.8460  211.3230  155.4430 C   0  0  0  0  0  0  0  0  0  0  0  0
  156.7030  214.1020  156.0960 C   0  0  0  0  0  0  0  0  0  0  0  0
  159.3860  212.1530  156.5740 C   0  0  1  0  0  3  0  0  0  0  0  0
  157.3300  214.4510  154.8750 N   0  0  0  0  0  2  0  0  0  0  0  0
  158.7530  214.1880  155.0470 C   0  0  1  0  0  3  0  0  0  0  0  0
  154.9390  214.2360  156.3480 S   0  0  0  0  0  0  0  0  0  0  0  0
  154.6220  214.3020  154.5630 C   0  0  0  0  0  1  0  0  0  0  0  0
  161.4480  210.7360  156.5590 C   0  0  0  0  0  1  0  0  0  0  0  0
  160.9100  212.1580  156.5720 C   0  0  0  0  0  2  0  0  0  0  0  0
  161.8700  212.0140  149.2330 O   0  0  0  0  0  0  0  0  0  0  0  0
  161.9950  210.6990  149.6980 C   0  0  0  0  0  2  0  0  0  0  0  0
  161.8940  210.6570  151.2150 C   0  0  0  0  0  2  0  0  0  0  0  0
  162.3480  209.3750  151.7240 N   0  0  0  0  0  0  0  0  0  0  0  0
  161.4410  209.0690  152.8230 C   0  0  0  0  0  2  0  0  0  0  0  0
  160.1380  209.3730  152.4620 F   0  0  0  0  0  0  0  0  0  0  0  0
  162.0740  208.4160  150.6630 C   0  0  0  0  0  2  0  0  0  0  0  0
  161.1770  207.2940  151.1710 C   0  0  0  0  0  2  0  0  0  0  0  0
  161.4660  205.9980  150.4240 C   0  0  1  0  0  3  0  0  0  0  0  0
  160.9180  204.8120  151.2210 C   0  0  1  0  0  3  0  0  0  0  0  0
  159.5870  204.5700  150.8710 O   0  0  0  0  0  1  0  0  0  0  0  0
  160.8190  202.4350  150.6380 C   0  0  2  0  0  3  0  0  0  0  0  0
  161.7320  203.5580  150.9460 C   0  0  2  0  0  3  0  0  0  0  0  0
  161.4230  202.5700  151.9010 O   0  0  0  0  0  0  0  0  0  0  0  0
  161.4830  201.3060  148.5260 C   0  0  0  0  0  3  0  0  0  0  0  0
  161.5430  201.3840  149.8600 C   0  0  0  0  0  3  0  0  0  0  0  0
  161.5920  202.9890  146.7980 N   0  0  0  0  0  0  0  0  0  0  0  0
  161.0010  202.9080  145.5390 C   0  0  0  0  0  0  0  0  0  0  0  0
  160.7030  202.2750  147.6960 C   0  0  1  0  0  3  0  0  0  0  0  0
  161.4490  203.4700  144.5050 O   0  0  0  0  0  0  0  0  0  0  0  0
  159.7360  201.5770  146.9210 O   0  0  0  0  0  0  0  0  0  0  0  0
  159.7860  202.0950  145.6010 C   0  0  0  0  0  2  0  0  0  0  0  0
  162.5580  203.9970  147.2030 C   0  0  0  0  0  1  0  0  0  0  0  0
  160.8660  206.0500  149.1600 O   0  0  0  0  0  0  0  0  0  0  0  0
  161.8010  206.6950  148.3440 C   0  0  0  0  0  2  0  0  0  0  0  0
  161.1090  207.2610  147.1210 C   0  0  0  0  0  2  0  0  0  0  0  0
  160.2200  206.3110  146.6150 O   0  0  0  0  0  1  0  0  0  0  0  0
  1  8  1  0  0  0  0
  1 29  1  1  0  0  0
  2  1  1  0  0  0  0
  3  7  2  0  0  0  0
  4  2  2  0  0  0  0
  5  6  2  0  0  0  0
  5  3  1  0  0  0  0
  6  4  1  0  0  0  0
  7  2  1  0  0  0  0
  8  9  1  6  0  0  0
  8 11  1  0  0  0  0
 11 10  1  6  0  0  0
 11 12  1  0  0  0  0
 12 13  1  0  0  0  0
 13 14  1  6  0  0  0
 15 22  1  0  0  0  0
 15 16  1  6  0  0  0
 18 13  1  6  0  0  0
 18 19  1  0  0  0  0
 18 24  1  0  0  0  0
 19 20  1  0  0  0  0
 20 17  2  0  0  0  0
 20 22  1  0  0  0  0
 21 25  1  0  0  0  0
 21 16  2  0  0  0  0
 22 28  1  6  0  0  0
 23 21  1  0  0  0  0
 24 23  1  6  0  0  0
 24 15  1  0  0  0  0
 26 25  1  0  0  0  0
 27 28  1  0  0  0  0
 29 30  1  0  0  0  0
 30 31  1  0  0  0  0
 31 32  1  0  0  0  0
 32 33  1  0  0  0  0
 34 33  1  0  0  0  0
 35 36  1  0  0  0  0
 35 32  1  0  0  0  0
 37 36  1  1  0  0  0
 37 38  1  0  0  0  0
 38 39  1  6  0  0  0
 40 44  1  6  0  0  0
 40 41  1  0  0  0  0
 40 42  1  0  0  0  0
 41 38  1  1  0  0  0
 41 42  1  0  0  0  0
 43 44  2  0  0  0  0
 45 51  1  0  0  0  0
 45 47  1  0  0  0  0
 46 50  1  0  0  0  0
 46 45  1  0  0  0  0
 47 43  1  6  0  0  0
 48 46  2  0  0  0  0
 49 47  1  0  0  0  0
 50 49  1  0  0  0  0
 52 37  1  0  0  0  0
 53 52  1  0  0  0  0
 54 53  1  0  0  0  0
 55 54  1  0  0  0  0
M  END
>  <MODEL>
3

>  <REMARK>
 VINA RESULT:      -2.5      3.020     10.486
  Name = 
  23 active torsions:
  status: ('A' for Active; 'I' for Inactive)
    1  A    between atoms: C_5  and  C_8
    2  A    between atoms: C_5  and  C_34
    3  A    between atoms: C_6  and  C_34
    4  A    between atoms: C_7  and  C_50
    5  A    between atoms: C_8  and  C_14
    6  A    between atoms: C_9  and  C_26
    7  A    between atoms: C_12  and  N_23
    8  A    between atoms: C_12  and  C_38
    9  A    between atoms: C_14  and  C_51
   10  A    between atoms: C_17  and  C_20
   11  A    between atoms: C_19  and  C_40
   12  A    between atoms: C_20  and  C_45
   13  A    between atoms: C_22  and  C_51
   14  A    between atoms: N_23  and  C_30
   15  A    between atoms: N_23  and  C_31
   16  A    between atoms: O_28  and  C_34
   17  A    between atoms: O_28  and  C_46
   18  A    between atoms: C_30  and  C_46
   19  A    between atoms: C_32  and  C_36
   20  A    between atoms: C_32  and  O_54
   21  A    between atoms: S_37  and  C_39
   22  A    between atoms: C_38  and  C_45
   23  A    between atoms: C_45  and  O_54
                            x       y       z     vdW  Elec       q    Type
                         _______ _______ _______ _____ _____    ______ ____

>  <TORSDO>
F 23

$$$$
