=
 OpenBabel11072414163D

 34 39  0  0  1  0  0  0  0  0999 V2000
  161.1830  202.2490  150.0870 C   0  0  0  0  0  3  0  0  0  0  0  0
  161.1770  203.3510  149.3280 C   0  0  0  0  0  3  0  0  0  0  0  0
  160.8570  203.4900  152.1750 C   0  0  0  0  0  3  0  0  0  0  0  0
  161.9160  210.4220  148.5930 C   0  0  0  0  0  0  0  0  0  0  0  0
  161.3740  205.8310  149.1530 N   0  0  0  0  0  0  0  0  0  0  0  0
  161.8130  208.3370  149.4900 C   0  0  0  0  0  0  0  0  0  0  0  0
  161.7500  208.3370  151.7340 N   0  0  0  0  0  0  0  0  0  0  0  0
  161.6470  207.0270  149.8990 C   0  0  0  0  0  0  0  0  0  0  0  0
  161.9470  210.7170  150.2790 S   0  0  0  0  0  0  0  0  0  0  0  0
  161.3310  205.8680  152.0650 C   0  0  0  0  0  3  0  0  0  0  0  0
  161.0250  204.7360  151.4160 C   0  0  0  0  0  0  0  0  0  0  0  0
  161.8090  209.0530  148.2980 C   0  0  0  0  0  3  0  0  0  0  0  0
  160.7850  204.6930  149.9000 C   0  0  2  0  0  3  0  0  0  0  0  0
  161.8840  209.0780  150.6150 C   0  0  0  0  0  0  0  0  0  0  0  0
  161.5940  207.0710  151.2790 C   0  0  0  0  0  0  0  0  0  0  0  0
  160.9160  202.3160  151.5400 C   0  0  0  0  0  3  0  0  0  0  0  0
  161.4630  205.8160  144.9110 C   0  0  0  0  0  0  0  0  0  0  0  0
  160.2990  206.1950  145.5830 C   0  0  0  0  0  3  0  0  0  0  0  0
  160.2680  206.2030  146.9810 C   0  0  0  0  0  3  0  0  0  0  0  0
  161.4050  205.8350  147.7150 C   0  0  0  0  0  0  0  0  0  0  0  0
  161.4960  205.8110  143.4260 C   0  0  0  0  0  1  0  0  0  0  0  0
  162.5980  205.4400  145.6360 C   0  0  0  0  0  3  0  0  0  0  0  0
  162.5680  205.4470  147.0340 C   0  0  0  0  0  3  0  0  0  0  0  0
  161.6780  208.7530  153.0740 N   0  0  0  0  0  2  0  0  0  0  0  0
  160.7390  209.6920  153.5260 C   0  0  0  0  0  0  0  0  0  0  0  0
  159.9650  210.4680  153.8990 N   0  0  0  0  0  0  0  0  0  0  0  0
  161.8870  211.4960  147.5650 C   0  0  0  0  0  2  0  0  0  0  0  0
  159.8100  213.1430  145.8120 C   0  0  0  0  0  2  0  0  0  0  0  0
  160.8480  212.4740  147.8990 N   0  0  0  0  0  0  0  0  0  0  0  0
  161.2560  213.8410  147.5510 C   0  0  2  0  0  3  0  0  0  0  0  0
  160.9870  214.0470  146.0810 C   0  0  0  0  0  2  0  0  0  0  0  0
  159.7300  212.1950  147.0030 C   0  0  0  0  0  2  0  0  0  0  0  0
  163.7260  214.4530  148.2220 N   0  0  0  0  0  0  0  0  0  0  0  0
  162.6400  214.1850  147.9280 C   0  0  0  0  0  0  0  0  0  0  0  0
  1 16  1  0  0  0  0
  2  1  2  0  0  0  0
  4  9  1  0  0  0  0
  5  8  1  0  0  0  0
  5 13  1  0  0  0  0
  6  8  1  0  0  0  0
  6 14  2  0  0  0  0
  7 24  1  0  0  0  0
  8 15  2  0  0  0  0
  9 14  1  0  0  0  0
 11 10  2  0  0  0  0
 11  3  1  0  0  0  0
 12  4  2  0  0  0  0
 12  6  1  0  0  0  0
 13  2  1  6  0  0  0
 13 11  1  0  0  0  0
 14  7  1  0  0  0  0
 15  7  1  0  0  0  0
 15 10  1  0  0  0  0
 16  3  2  0  0  0  0
 17 18  2  0  0  0  0
 17 22  1  0  0  0  0
 18 19  1  0  0  0  0
 19 20  2  0  0  0  0
 20  5  1  0  0  0  0
 21 17  1  0  0  0  0
 22 23  2  0  0  0  0
 23 20  1  0  0  0  0
 24 25  1  0  0  0  0
 25 26  3  0  0  0  0
 27 29  1  0  0  0  0
 27  4  1  0  0  0  0
 28 31  1  0  0  0  0
 28 32  1  0  0  0  0
 30 29  1  0  0  0  0
 30 34  1  6  0  0  0
 31 30  1  0  0  0  0
 32 29  1  0  0  0  0
 34 33  3  0  0  0  0
M  END
>  <MODEL>
1

>  <REMARK>
 VINA RESULT:      -8.3      0.000      0.000
  Name = 
  6 active torsions:
  status: ('A' for Active; 'I' for Inactive)
    1  A    between atoms: C_6  and  C_24
    2  A    between atoms: N_9  and  C_24
    3  A    between atoms: N_10  and  C_19
    4  A    between atoms: N_13  and  N_21
    5  A    between atoms: C_20  and  C_23
    6  A    between atoms: N_21  and  C_28
                            x       y       z     vdW  Elec       q    Type
                         _______ _______ _______ _____ _____    ______ ____

>  <TORSDO>
F 6

$$$$
