=
 OpenBabel11072410203D

 33 36  0  0  1  0  0  0  0  0999 V2000
  160.1480  210.0910  151.8530 N   0  0  0  0  0  0  0  0  0  0  0  0
  159.8170  210.9710  152.7540 C   0  0  0  0  0  0  0  0  0  0  0  0
  161.1990  211.1270  154.8430 C   0  0  1  0  0  3  0  0  0  0  0  0
  157.4640  211.5360  154.3490 C   0  0  0  0  0  0  0  0  0  0  0  0
  161.4320  210.6790  156.3000 C   0  0  1  0  0  3  0  0  0  0  0  0
  156.9540  210.7060  153.5510 O   0  0  0  0  0  0  0  0  0  0  0  0
  162.2860  210.7990  154.0210 O   0  0  0  0  0  1  0  0  0  0  0  0
  158.7850  211.4770  156.4120 C   0  0  2  0  0  3  0  0  0  0  0  0
  158.7300  211.2610  154.9670 N   0  0  0  0  0  0  0  0  0  0  0  0
  157.8500  213.6100  156.6950 C   0  0  0  0  0  2  0  0  0  0  0  0
  156.7660  212.7520  154.6460 N   0  0  0  0  0  2  0  0  0  0  0  0
  159.1050  212.8660  156.7060 N   0  0  0  0  0  2  0  0  0  0  0  0
  157.4050  213.9090  155.2670 C   0  0  0  0  0  2  0  0  0  0  0  0
  159.9070  210.3150  157.2600 S   0  0  0  0  0  0  0  0  0  0  0  0
  159.8640  210.6570  154.2360 C   0  0  1  0  0  3  0  0  0  0  0  0
  162.3780  209.4880  156.4030 C   0  0  0  0  0  2  0  0  0  0  0  0
  161.7150  208.3200  156.0270 O   0  0  0  0  0  1  0  0  0  0  0  0
  158.5170  213.9740  151.2040 C   0  0  0  0  0  3  0  0  0  0  0  0
  159.4250  212.3200  152.3180 C   0  0  0  0  0  0  0  0  0  0  0  0
  158.5610  212.5920  151.2810 C   0  0  0  0  0  3  0  0  0  0  0  0
  159.3430  214.4530  152.2030 C   0  0  0  0  0  3  0  0  0  0  0  0
  159.8720  213.4340  152.8430 O   0  0  0  0  0  0  0  0  0  0  0  0
  160.6260  208.8370  152.1780 O   0  0  0  0  0  0  0  0  0  0  0  0
  161.8700  208.3700  151.6630 C   0  0  0  0  0  2  0  0  0  0  0  0
  162.0460  206.8680  151.8710 C   0  0  0  0  0  2  0  0  0  0  0  0
  161.1350  204.4590  148.2490 C   0  0  0  0  0  3  0  0  0  0  0  0
  160.6870  205.8660  148.4710 C   0  0  0  0  0  2  0  0  0  0  0  0
  160.4640  203.7410  150.5210 C   0  0  0  0  0  3  0  0  0  0  0  0
  161.4020  206.4830  149.5810 N   0  0  0  0  0  0  0  0  0  0  0  0
  161.4270  201.8630  148.7260 Cl  0  0  0  0  0  0  0  0  0  0  0  0
  161.3490  206.0730  150.8150 C   0  0  0  0  0  0  0  0  0  0  0  0
  160.6140  204.8610  151.2360 C   0  0  0  0  0  3  0  0  0  0  0  0
  161.0010  203.5040  149.1670 C   0  0  0  0  0  0  0  0  0  0  0  0
  1 23  1  0  0  0  0
  1  2  2  0  0  0  0
  3  7  1  6  0  0  0
  3  5  1  0  0  0  0
  4 11  1  0  0  0  0
  4  9  1  0  0  0  0
  5 16  1  6  0  0  0
  5 14  1  0  0  0  0
  6  4  2  0  0  0  0
  8 12  1  6  0  0  0
  8 14  1  0  0  0  0
  9  8  1  0  0  0  0
 10 12  1  0  0  0  0
 11 13  1  0  0  0  0
 13 10  1  0  0  0  0
 15  2  1  6  0  0  0
 15  3  1  0  0  0  0
 15  9  1  0  0  0  0
 17 16  1  0  0  0  0
 18 20  1  0  0  0  0
 18 21  2  0  0  0  0
 19  2  1  0  0  0  0
 19 22  1  0  0  0  0
 20 19  2  0  0  0  0
 21 22  1  0  0  0  0
 24 25  1  0  0  0  0
 24 23  1  0  0  0  0
 26 27  1  0  0  0  0
 26 33  2  0  0  0  0
 27 29  1  0  0  0  0
 28 32  2  0  0  0  0
 29 31  2  0  0  0  0
 30 33  1  0  0  0  0
 31 32  1  0  0  0  0
 31 25  1  0  0  0  0
 33 28  1  0  0  0  0
M  END
>  <MODEL>
1

>  <REMARK>
 VINA RESULT:      -5.5      0.000      0.000
  Name = 
  7 active torsions:
  status: ('A' for Active; 'I' for Inactive)
    1  A    between atoms: C_1  and  C_10
    2  A    between atoms: N_2  and  O_12
    3  A    between atoms: C_5  and  O_12
    4  A    between atoms: C_5  and  C_24
    5  A    between atoms: C_6  and  C_18
    6  A    between atoms: C_6  and  C_33
    7  A    between atoms: C_24  and  C_26
                            x       y       z     vdW  Elec       q    Type
                         _______ _______ _______ _____ _____    ______ ____

>  <TORSDO>
F 7

$$$$
=
 OpenBabel11072410203D

 33 36  0  0  1  0  0  0  0  0999 V2000
  162.1260  211.0000  141.5010 N   0  0  0  0  0  0  0  0  0  0  0  0
  161.6720  210.9160  140.2850 C   0  0  0  0  0  0  0  0  0  0  0  0
  162.1490  212.0250  138.0840 C   0  0  1  0  0  3  0  0  0  0  0  0
  158.9710  211.9580  140.1460 C   0  0  0  0  0  0  0  0  0  0  0  0
  162.1240  213.3060  137.2270 C   0  0  1  0  0  3  0  0  0  0  0  0
  159.1560  212.0820  141.3870 O   0  0  0  0  0  0  0  0  0  0  0  0
  163.4540  211.5330  138.2400 O   0  0  0  0  0  1  0  0  0  0  0  0
  159.5040  213.2130  138.1100 C   0  0  2  0  0  3  0  0  0  0  0  0
  159.9790  212.3870  139.2190 N   0  0  0  0  0  0  0  0  0  0  0  0
  157.6600  212.0250  137.2780 C   0  0  0  0  0  2  0  0  0  0  0  0
  157.7420  211.3990  139.6680 N   0  0  0  0  0  2  0  0  0  0  0  0
  159.0510  212.3750  137.0110 N   0  0  0  0  0  2  0  0  0  0  0  0
  157.5670  210.9020  138.3050 C   0  0  0  0  0  2  0  0  0  0  0  0
  160.7300  214.4530  137.5740 S   0  0  0  0  0  0  0  0  0  0  0  0
  161.4220  212.1470  139.4360 C   0  0  1  0  0  3  0  0  0  0  0  0
  163.4340  214.0850  137.2960 C   0  0  0  0  0  2  0  0  0  0  0  0
  163.7250  214.4090  138.6210 O   0  0  0  0  0  1  0  0  0  0  0  0
  161.5390  207.4340  139.3010 C   0  0  0  0  0  3  0  0  0  0  0  0
  161.4340  209.5850  139.7060 C   0  0  0  0  0  0  0  0  0  0  0  0
  162.0120  208.4180  140.1520 C   0  0  0  0  0  3  0  0  0  0  0  0
  160.6970  208.0600  138.4010 C   0  0  0  0  0  3  0  0  0  0  0  0
  160.6640  209.3460  138.6740 O   0  0  0  0  0  0  0  0  0  0  0  0
  162.4740  212.2020  142.0840 O   0  0  0  0  0  0  0  0  0  0  0  0
  161.7560  212.7080  143.2070 C   0  0  0  0  0  2  0  0  0  0  0  0
  162.6590  213.4890  144.1580 C   0  0  0  0  0  2  0  0  0  0  0  0
  160.5590  212.3910  147.9170 C   0  0  0  0  0  3  0  0  0  0  0  0
  160.2160  213.5660  147.0620 C   0  0  0  0  0  2  0  0  0  0  0  0
  162.9860  212.8740  147.8480 C   0  0  0  0  0  3  0  0  0  0  0  0
  160.8560  213.4780  145.7550 N   0  0  0  0  0  0  0  0  0  0  0  0
  162.0540  210.7890  149.4180 Cl  0  0  0  0  0  0  0  0  0  0  0  0
  162.1410  213.4730  145.5590 C   0  0  0  0  0  0  0  0  0  0  0  0
  163.1300  213.4710  146.6590 C   0  0  0  0  0  3  0  0  0  0  0  0
  161.8050  212.1070  148.2900 C   0  0  0  0  0  0  0  0  0  0  0  0
  1 23  1  0  0  0  0
  2  1  2  0  0  0  0
  3  7  1  1  0  0  0
  3 15  1  0  0  0  0
  4  6  2  0  0  0  0
  5 16  1  1  0  0  0
  5 14  1  0  0  0  0
  5  3  1  0  0  0  0
  8 12  1  6  0  0  0
  8  9  1  0  0  0  0
  9 15  1  0  0  0  0
  9  4  1  0  0  0  0
 10 13  1  0  0  0  0
 11  4  1  0  0  0  0
 12 10  1  0  0  0  0
 13 11  1  0  0  0  0
 14  8  1  0  0  0  0
 15  2  1  1  0  0  0
 16 17  1  0  0  0  0
 18 20  1  0  0  0  0
 19 20  2  0  0  0  0
 19  2  1  0  0  0  0
 21 22  1  0  0  0  0
 21 18  2  0  0  0  0
 22 19  1  0  0  0  0
 23 24  1  0  0  0  0
 24 25  1  0  0  0  0
 25 31  1  0  0  0  0
 26 33  2  0  0  0  0
 27 26  1  0  0  0  0
 28 33  1  0  0  0  0
 29 27  1  0  0  0  0
 31 29  2  0  0  0  0
 31 32  1  0  0  0  0
 32 28  2  0  0  0  0
 33 30  1  0  0  0  0
M  END
>  <MODEL>
2

>  <REMARK>
 VINA RESULT:      -4.6     10.960     14.229
  Name = 
  7 active torsions:
  status: ('A' for Active; 'I' for Inactive)
    1  A    between atoms: C_1  and  C_10
    2  A    between atoms: N_2  and  O_12
    3  A    between atoms: C_5  and  O_12
    4  A    between atoms: C_5  and  C_24
    5  A    between atoms: C_6  and  C_18
    6  A    between atoms: C_6  and  C_33
    7  A    between atoms: C_24  and  C_26
                            x       y       z     vdW  Elec       q    Type
                         _______ _______ _______ _____ _____    ______ ____

>  <TORSDO>
F 7

$$$$
=
 OpenBabel11072410203D

 33 36  0  0  1  0  0  0  0  0999 V2000
  160.8140  209.0840  152.3190 N   0  0  0  0  0  0  0  0  0  0  0  0
  160.7840  210.3810  152.2150 C   0  0  0  0  0  0  0  0  0  0  0  0
  158.8050  211.1720  153.5410 C   0  0  1  0  0  3  0  0  0  0  0  0
  162.3260  210.3440  154.6700 C   0  0  0  0  0  0  0  0  0  0  0  0
  158.2160  212.1820  154.5460 C   0  0  1  0  0  3  0  0  0  0  0  0
  163.2280  210.7470  153.8880 O   0  0  0  0  0  0  0  0  0  0  0  0
  158.1330  211.2160  152.3100 O   0  0  0  0  0  1  0  0  0  0  0  0
  160.4560  211.3170  155.9190 C   0  0  2  0  0  3  0  0  0  0  0  0
  161.0160  210.9310  154.6260 N   0  0  0  0  0  0  0  0  0  0  0  0
  160.7800  209.4190  157.2590 C   0  0  0  0  0  2  0  0  0  0  0  0
  162.6190  209.3050  155.6120 N   0  0  0  0  0  2  0  0  0  0  0  0
  159.7750  210.1890  156.5350 N   0  0  0  0  0  2  0  0  0  0  0  0
  161.5860  208.5420  156.3070 C   0  0  0  0  0  2  0  0  0  0  0  0
  159.3920  212.7950  155.8180 S   0  0  0  0  0  0  0  0  0  0  0  0
  160.3310  211.2660  153.3600 C   0  0  1  0  0  3  0  0  0  0  0  0
  157.5600  213.3760  153.8610 C   0  0  0  0  0  2  0  0  0  0  0  0
  156.2510  213.5260  154.3180 O   0  0  0  0  0  1  0  0  0  0  0  0
  162.3270  211.3960  149.1000 C   0  0  0  0  0  3  0  0  0  0  0  0
  161.2440  211.0050  150.9650 C   0  0  0  0  0  0  0  0  0  0  0  0
  162.1770  210.4600  150.1110 C   0  0  0  0  0  3  0  0  0  0  0  0
  161.4710  212.4400  149.3960 C   0  0  0  0  0  3  0  0  0  0  0  0
  160.8450  212.1700  150.5210 O   0  0  0  0  0  0  0  0  0  0  0  0
  160.4990  208.4230  153.4890 O   0  0  0  0  0  0  0  0  0  0  0  0
  160.7730  207.0330  153.6440 C   0  0  0  0  0  2  0  0  0  0  0  0
  161.8020  206.5380  152.6300 C   0  0  0  0  0  2  0  0  0  0  0  0
  161.0360  204.8820  148.5780 C   0  0  0  0  0  3  0  0  0  0  0  0
  160.5030  206.1830  149.0810 C   0  0  0  0  0  2  0  0  0  0  0  0
  160.4130  203.6690  150.6440 C   0  0  0  0  0  3  0  0  0  0  0  0
  161.1800  206.5980  150.3040 N   0  0  0  0  0  0  0  0  0  0  0  0
  161.4870  202.2650  148.5110 Cl  0  0  0  0  0  0  0  0  0  0  0  0
  161.1540  205.9390  151.4250 C   0  0  0  0  0  0  0  0  0  0  0  0
  160.4950  204.6240  151.5780 C   0  0  0  0  0  3  0  0  0  0  0  0
  160.9620  203.7510  149.2770 C   0  0  0  0  0  0  0  0  0  0  0  0
  1 23  1  0  0  0  0
  2  1  2  0  0  0  0
  3  7  1  6  0  0  0
  3  5  1  0  0  0  0
  4 11  1  0  0  0  0
  5 16  1  6  0  0  0
  5 14  1  0  0  0  0
  6  4  2  0  0  0  0
  8 14  1  6  0  0  0
  8 12  1  0  0  0  0
  9  4  1  0  0  0  0
  9  8  1  0  0  0  0
 11 13  1  0  0  0  0
 12 10  1  0  0  0  0
 13 10  1  0  0  0  0
 15  2  1  6  0  0  0
 15  3  1  0  0  0  0
 15  9  1  0  0  0  0
 16 17  1  0  0  0  0
 18 21  2  0  0  0  0
 18 20  1  0  0  0  0
 19  2  1  0  0  0  0
 20 19  2  0  0  0  0
 21 22  1  0  0  0  0
 22 19  1  0  0  0  0
 23 24  1  0  0  0  0
 25 24  1  0  0  0  0
 26 27  1  0  0  0  0
 26 33  2  0  0  0  0
 27 29  1  0  0  0  0
 28 32  2  0  0  0  0
 29 31  2  0  0  0  0
 30 33  1  0  0  0  0
 31 32  1  0  0  0  0
 31 25  1  0  0  0  0
 33 28  1  0  0  0  0
M  END
>  <MODEL>
3

>  <REMARK>
 VINA RESULT:      -4.5      1.952      3.695
  Name = 
  7 active torsions:
  status: ('A' for Active; 'I' for Inactive)
    1  A    between atoms: C_1  and  C_10
    2  A    between atoms: N_2  and  O_12
    3  A    between atoms: C_5  and  O_12
    4  A    between atoms: C_5  and  C_24
    5  A    between atoms: C_6  and  C_18
    6  A    between atoms: C_6  and  C_33
    7  A    between atoms: C_24  and  C_26
                            x       y       z     vdW  Elec       q    Type
                         _______ _______ _______ _____ _____    ______ ____

>  <TORSDO>
F 7

$$$$
=
 OpenBabel11072410203D

 33 36  0  0  1  0  0  0  0  0999 V2000
  161.8830  209.1090  151.5610 N   0  0  0  0  0  0  0  0  0  0  0  0
  161.2530  209.3610  152.6720 C   0  0  0  0  0  0  0  0  0  0  0  0
  159.2090  210.8040  152.8660 C   0  0  1  0  0  3  0  0  0  0  0  0
  162.3320  210.6940  155.0090 C   0  0  0  0  0  0  0  0  0  0  0  0
  158.6060  212.2180  152.9880 C   0  0  1  0  0  3  0  0  0  0  0  0
  163.4020  210.5630  154.3570 O   0  0  0  0  0  0  0  0  0  0  0  0
  158.7710  210.1550  151.7020 O   0  0  0  0  0  1  0  0  0  0  0  0
  160.4330  212.2420  155.0650 C   0  0  2  0  0  3  0  0  0  0  0  0
  161.1460  211.1780  154.3610 N   0  0  0  0  0  0  0  0  0  0  0  0
  160.2510  211.4360  157.2610 C   0  0  0  0  0  2  0  0  0  0  0  0
  162.3100  210.3700  156.4040 N   0  0  0  0  0  2  0  0  0  0  0  0
  159.5040  211.6780  156.0320 N   0  0  0  0  0  2  0  0  0  0  0  0
  161.0750  210.1570  157.1560 C   0  0  0  0  0  2  0  0  0  0  0  0
  159.6230  213.4220  153.9350 S   0  0  0  0  0  0  0  0  0  0  0  0
  160.7410  210.7480  153.0050 C   0  0  1  0  0  3  0  0  0  0  0  0
  158.2530  212.8250  151.6350 C   0  0  0  0  0  2  0  0  0  0  0  0
  159.3820  213.4180  151.0700 O   0  0  0  0  0  1  0  0  0  0  0  0
  161.0080  206.2880  154.5730 C   0  0  0  0  0  3  0  0  0  0  0  0
  160.9970  208.2570  153.6100 C   0  0  0  0  0  0  0  0  0  0  0  0
  161.5530  207.0010  153.5180 C   0  0  0  0  0  3  0  0  0  0  0  0
  160.1680  207.1560  155.2450 C   0  0  0  0  0  3  0  0  0  0  0  0
  160.1850  208.3210  154.6360 O   0  0  0  0  0  0  0  0  0  0  0  0
  162.0730  210.0610  150.5810 O   0  0  0  0  0  0  0  0  0  0  0  0
  161.8380  209.7590  149.2080 C   0  0  0  0  0  2  0  0  0  0  0  0
  162.7060  208.6010  148.7210 C   0  0  0  0  0  2  0  0  0  0  0  0
  161.4370  204.4160  147.9290 C   0  0  0  0  0  3  0  0  0  0  0  0
  161.3770  205.5270  146.9330 C   0  0  0  0  0  2  0  0  0  0  0  0
  160.4310  205.7870  149.7280 C   0  0  0  0  0  3  0  0  0  0  0  0
  162.1500  206.6810  147.3760 N   0  0  0  0  0  0  0  0  0  0  0  0
  160.9710  203.1100  150.1950 Cl  0  0  0  0  0  0  0  0  0  0  0  0
  161.8970  207.3750  148.4470 C   0  0  0  0  0  0  0  0  0  0  0  0
  160.8290  207.0240  149.4080 C   0  0  0  0  0  3  0  0  0  0  0  0
  160.9800  204.5350  149.1740 C   0  0  0  0  0  0  0  0  0  0  0  0
  1  2  2  0  0  0  0
  2 19  1  0  0  0  0
  3  7  1  6  0  0  0
  3  5  1  0  0  0  0
  3 15  1  0  0  0  0
  4 11  1  0  0  0  0
  5 16  1  6  0  0  0
  5 14  1  0  0  0  0
  6  4  2  0  0  0  0
  8 14  1  6  0  0  0
  8 12  1  0  0  0  0
  9  4  1  0  0  0  0
  9  8  1  0  0  0  0
 11 13  1  0  0  0  0
 12 10  1  0  0  0  0
 13 10  1  0  0  0  0
 15  2  1  1  0  0  0
 15  9  1  0  0  0  0
 17 16  1  0  0  0  0
 18 21  2  0  0  0  0
 19 22  1  0  0  0  0
 20 19  2  0  0  0  0
 20 18  1  0  0  0  0
 22 21  1  0  0  0  0
 23  1  1  0  0  0  0
 24 23  1  0  0  0  0
 25 24  1  0  0  0  0
 26 33  2  0  0  0  0
 27 29  1  0  0  0  0
 27 26  1  0  0  0  0
 29 31  2  0  0  0  0
 31 25  1  0  0  0  0
 31 32  1  0  0  0  0
 32 28  2  0  0  0  0
 33 28  1  0  0  0  0
 33 30  1  0  0  0  0
M  END
>  <MODEL>
4

>  <REMARK>
 VINA RESULT:      -4.3      2.118      4.420
  Name = 
  7 active torsions:
  status: ('A' for Active; 'I' for Inactive)
    1  A    between atoms: C_1  and  C_10
    2  A    between atoms: N_2  and  O_12
    3  A    between atoms: C_5  and  O_12
    4  A    between atoms: C_5  and  C_24
    5  A    between atoms: C_6  and  C_18
    6  A    between atoms: C_6  and  C_33
    7  A    between atoms: C_24  and  C_26
                            x       y       z     vdW  Elec       q    Type
                         _______ _______ _______ _____ _____    ______ ____

>  <TORSDO>
F 7

$$$$
=
 OpenBabel11072410203D

 33 36  0  0  1  0  0  0  0  0999 V2000
  160.6950  208.1520  153.0800 N   0  0  0  0  0  0  0  0  0  0  0  0
  160.4580  208.7520  154.2100 C   0  0  0  0  0  0  0  0  0  0  0  0
  158.7690  210.3650  155.1300 C   0  0  1  0  0  3  0  0  0  0  0  0
  162.5090  210.7520  154.6560 C   0  0  0  0  0  0  0  0  0  0  0  0
  158.1450  211.7750  155.0960 C   0  0  1  0  0  3  0  0  0  0  0  0
  162.9460  210.2730  153.5760 O   0  0  0  0  0  0  0  0  0  0  0  0
  157.8220  209.3730  154.8400 O   0  0  0  0  0  1  0  0  0  0  0  0
  160.8290  212.3940  155.3520 C   0  0  2  0  0  3  0  0  0  0  0  0
  161.1170  211.0740  154.7930 N   0  0  0  0  0  0  0  0  0  0  0  0
  162.1890  212.5030  157.2600 C   0  0  0  0  0  2  0  0  0  0  0  0
  163.4140  210.9840  155.7430 N   0  0  0  0  0  2  0  0  0  0  0  0
  160.8130  212.3380  156.8060 N   0  0  0  0  0  2  0  0  0  0  0  0
  162.9720  211.2010  157.1180 C   0  0  0  0  0  2  0  0  0  0  0  0
  159.3070  213.1350  154.6730 S   0  0  0  0  0  0  0  0  0  0  0  0
  160.0380  210.2080  154.2730 C   0  0  1  0  0  3  0  0  0  0  0  0
  156.9310  211.8570  154.1760 C   0  0  0  0  0  2  0  0  0  0  0  0
  156.0670  212.8590  154.6170 O   0  0  0  0  0  1  0  0  0  0  0  0
  160.0660  206.7390  157.1950 C   0  0  0  0  0  3  0  0  0  0  0  0
  160.5620  207.9810  155.4590 C   0  0  0  0  0  0  0  0  0  0  0  0
  159.5360  207.2620  156.0270 C   0  0  0  0  0  3  0  0  0  0  0  0
  161.3800  207.1630  157.2560 C   0  0  0  0  0  3  0  0  0  0  0  0
  161.6370  207.9070  156.2030 O   0  0  0  0  0  0  0  0  0  0  0  0
  160.5210  208.7710  151.8580 O   0  0  0  0  0  0  0  0  0  0  0  0
  161.6110  208.9280  150.9530 C   0  0  0  0  0  2  0  0  0  0  0  0
  162.3520  207.6140  150.7180 C   0  0  0  0  0  2  0  0  0  0  0  0
  161.2730  204.6650  147.5730 C   0  0  0  0  0  3  0  0  0  0  0  0
  160.9640  206.1250  147.5140 C   0  0  0  0  0  2  0  0  0  0  0  0
  160.4900  204.4530  149.9120 C   0  0  0  0  0  3  0  0  0  0  0  0
  161.7160  206.8690  148.5170 N   0  0  0  0  0  0  0  0  0  0  0  0
  161.2940  202.1880  148.5340 Cl  0  0  0  0  0  0  0  0  0  0  0  0
  161.5990  206.7050  149.8020 C   0  0  0  0  0  0  0  0  0  0  0  0
  160.7380  205.6690  150.4130 C   0  0  0  0  0  3  0  0  0  0  0  0
  161.0260  203.9170  148.6470 C   0  0  0  0  0  0  0  0  0  0  0  0
  1  2  2  0  0  0  0
  2 19  1  0  0  0  0
  3  7  1  6  0  0  0
  4  9  1  0  0  0  0
  4 11  1  0  0  0  0
  5 16  1  6  0  0  0
  5  3  1  0  0  0  0
  6  4  2  0  0  0  0
  8 14  1  6  0  0  0
  8 12  1  0  0  0  0
  9  8  1  0  0  0  0
 11 13  1  0  0  0  0
 12 10  1  0  0  0  0
 13 10  1  0  0  0  0
 14  5  1  0  0  0  0
 15  2  1  1  0  0  0
 15  9  1  0  0  0  0
 15  3  1  0  0  0  0
 16 17  1  0  0  0  0
 18 21  2  0  0  0  0
 19 20  2  0  0  0  0
 19 22  1  0  0  0  0
 20 18  1  0  0  0  0
 22 21  1  0  0  0  0
 23  1  1  0  0  0  0
 24 23  1  0  0  0  0
 25 24  1  0  0  0  0
 26 33  2  0  0  0  0
 27 26  1  0  0  0  0
 27 29  1  0  0  0  0
 28 32  2  0  0  0  0
 29 31  2  0  0  0  0
 30 33  1  0  0  0  0
 31 32  1  0  0  0  0
 31 25  1  0  0  0  0
 33 28  1  0  0  0  0
M  END
>  <MODEL>
5

>  <REMARK>
 VINA RESULT:      -4.3      2.214      4.486
  Name = 
  7 active torsions:
  status: ('A' for Active; 'I' for Inactive)
    1  A    between atoms: C_1  and  C_10
    2  A    between atoms: N_2  and  O_12
    3  A    between atoms: C_5  and  O_12
    4  A    between atoms: C_5  and  C_24
    5  A    between atoms: C_6  and  C_18
    6  A    between atoms: C_6  and  C_33
    7  A    between atoms: C_24  and  C_26
                            x       y       z     vdW  Elec       q    Type
                         _______ _______ _______ _____ _____    ______ ____

>  <TORSDO>
F 7

$$$$
=
 OpenBabel11072410203D

 33 36  0  0  1  0  0  0  0  0999 V2000
  162.1750  207.2850  148.4290 N   0  0  0  0  0  0  0  0  0  0  0  0
  161.7430  206.1570  147.9440 C   0  0  0  0  0  0  0  0  0  0  0  0
  160.4450  204.7460  149.5650 C   0  0  1  0  0  3  0  0  0  0  0  0
  162.6620  203.7220  146.6670 C   0  0  0  0  0  0  0  0  0  0  0  0
  160.4340  203.5850  150.5790 C   0  0  1  0  0  3  0  0  0  0  0  0
  163.7180  204.4010  146.5590 O   0  0  0  0  0  0  0  0  0  0  0  0
  160.0810  205.9600  150.1650 O   0  0  0  0  0  1  0  0  0  0  0  0
  161.5680  202.3510  148.3780 C   0  0  2  0  0  3  0  0  0  0  0  0
  161.9530  203.6820  147.9150 N   0  0  0  0  0  0  0  0  0  0  0  0
  160.5630  201.3730  146.4970 C   0  0  0  0  0  2  0  0  0  0  0  0
  162.1810  202.9800  145.5410 N   0  0  0  0  0  2  0  0  0  0  0  0
  160.2890  201.9630  147.8020 N   0  0  0  0  0  2  0  0  0  0  0  0
  160.8210  202.4540  145.4520 C   0  0  0  0  0  2  0  0  0  0  0  0
  161.5810  202.2010  150.1960 S   0  0  0  0  0  0  0  0  0  0  0  0
  161.7510  204.8790  148.7600 C   0  0  1  0  0  3  0  0  0  0  0  0
  160.6820  204.0520  152.0090 C   0  0  0  0  0  2  0  0  0  0  0  0
  162.0420  204.2930  152.2010 O   0  0  0  0  0  1  0  0  0  0  0  0
  159.8120  205.9860  144.8860 C   0  0  0  0  0  3  0  0  0  0  0  0
  161.1950  206.1330  146.5790 C   0  0  0  0  0  0  0  0  0  0  0  0
  159.8600  205.9940  146.2700 C   0  0  0  0  0  3  0  0  0  0  0  0
  161.1130  206.1320  144.4430 C   0  0  0  0  0  3  0  0  0  0  0  0
  161.9100  206.2120  145.4850 O   0  0  0  0  0  0  0  0  0  0  0  0
  162.6090  207.4170  149.7320 O   0  0  0  0  0  0  0  0  0  0  0  0
  162.5150  208.6650  150.4140 C   0  0  0  0  0  2  0  0  0  0  0  0
  161.1890  208.8130  151.1550 C   0  0  0  0  0  2  0  0  0  0  0  0
  160.5800  209.1020  155.5480 C   0  0  0  0  0  3  0  0  0  0  0  0
  161.5810  209.8940  154.7730 C   0  0  0  0  0  2  0  0  0  0  0  0
  161.1900  206.9780  154.4320 C   0  0  0  0  0  3  0  0  0  0  0  0
  161.3240  209.8190  153.3400 N   0  0  0  0  0  0  0  0  0  0  0  0
  159.3310  206.9530  156.4860 Cl  0  0  0  0  0  0  0  0  0  0  0  0
  161.3650  208.7260  152.6360 C   0  0  0  0  0  0  0  0  0  0  0  0
  161.5980  207.3900  153.2260 C   0  0  0  0  0  3  0  0  0  0  0  0
  160.4350  207.7850  155.4090 C   0  0  0  0  0  0  0  0  0  0  0  0
  1 23  1  0  0  0  0
  2  1  2  0  0  0  0
  3  7  1  1  0  0  0
  3  5  1  0  0  0  0
  4  9  1  0  0  0  0
  5 16  1  1  0  0  0
  6  4  2  0  0  0  0
  8 12  1  1  0  0  0
  8 14  1  0  0  0  0
  9  8  1  0  0  0  0
  9 15  1  0  0  0  0
 10 12  1  0  0  0  0
 11  4  1  0  0  0  0
 13 11  1  0  0  0  0
 13 10  1  0  0  0  0
 14  5  1  0  0  0  0
 15  2  1  6  0  0  0
 15  3  1  0  0  0  0
 16 17  1  0  0  0  0
 18 20  1  0  0  0  0
 19  2  1  0  0  0  0
 20 19  2  0  0  0  0
 21 18  2  0  0  0  0
 21 22  1  0  0  0  0
 22 19  1  0  0  0  0
 23 24  1  0  0  0  0
 24 25  1  0  0  0  0
 25 31  1  0  0  0  0
 27 26  1  0  0  0  0
 28 33  1  0  0  0  0
 29 27  1  0  0  0  0
 31 32  1  0  0  0  0
 31 29  2  0  0  0  0
 32 28  2  0  0  0  0
 33 26  2  0  0  0  0
 33 30  1  0  0  0  0
M  END
>  <MODEL>
6

>  <REMARK>
 VINA RESULT:      -4.2      4.535      9.319
  Name = 
  7 active torsions:
  status: ('A' for Active; 'I' for Inactive)
    1  A    between atoms: C_1  and  C_10
    2  A    between atoms: N_2  and  O_12
    3  A    between atoms: C_5  and  O_12
    4  A    between atoms: C_5  and  C_24
    5  A    between atoms: C_6  and  C_18
    6  A    between atoms: C_6  and  C_33
    7  A    between atoms: C_24  and  C_26
                            x       y       z     vdW  Elec       q    Type
                         _______ _______ _______ _____ _____    ______ ____

>  <TORSDO>
F 7

$$$$
=
 OpenBabel11072410203D

 33 36  0  0  1  0  0  0  0  0999 V2000
  161.5960  213.1670  140.6570 N   0  0  0  0  0  0  0  0  0  0  0  0
  162.1990  212.6490  139.6270 C   0  0  0  0  0  0  0  0  0  0  0  0
  160.9150  210.4930  139.5660 C   0  0  1  0  0  3  0  0  0  0  0  0
  160.5230  213.6290  137.4750 C   0  0  0  0  0  0  0  0  0  0  0  0
  160.3760  209.3090  138.7400 C   0  0  1  0  0  3  0  0  0  0  0  0
  161.6120  214.1510  137.1170 O   0  0  0  0  0  0  0  0  0  0  0  0
  161.7950  210.0640  140.5710 O   0  0  0  0  0  1  0  0  0  0  0  0
  159.4170  211.4510  137.2770 C   0  0  2  0  0  3  0  0  0  0  0  0
  160.4800  212.2520  137.8800 N   0  0  0  0  0  0  0  0  0  0  0  0
  157.4920  212.7590  137.5780 C   0  0  0  0  0  2  0  0  0  0  0  0
  159.3240  214.4140  137.4630 N   0  0  0  0  0  2  0  0  0  0  0  0
  158.1910  211.5690  138.0510 N   0  0  0  0  0  2  0  0  0  0  0  0
  158.1060  214.0240  138.1690 C   0  0  0  0  0  2  0  0  0  0  0  0
  159.9010  209.7130  137.0110 S   0  0  0  0  0  0  0  0  0  0  0  0
  161.5210  211.6340  138.7290 C   0  0  1  0  0  3  0  0  0  0  0  0
  161.3310  208.1200  138.7260 C   0  0  0  0  0  2  0  0  0  0  0  0
  162.1100  208.1490  137.5690 O   0  0  0  0  0  1  0  0  0  0  0  0
  165.3570  214.3310  139.0710 C   0  0  0  0  0  3  0  0  0  0  0  0
  163.5640  213.0930  139.3050 C   0  0  0  0  0  0  0  0  0  0  0  0
  164.0680  214.3460  139.5760 C   0  0  0  0  0  3  0  0  0  0  0  0
  165.5600  213.0710  138.5390 C   0  0  0  0  0  3  0  0  0  0  0  0
  164.4630  212.3630  138.6940 O   0  0  0  0  0  0  0  0  0  0  0  0
  160.2820  212.8840  140.9700 O   0  0  0  0  0  0  0  0  0  0  0  0
  159.3360  213.9300  141.1810 C   0  0  0  0  0  2  0  0  0  0  0  0
  158.7060  213.8580  142.5700 C   0  0  0  0  0  2  0  0  0  0  0  0
  161.3230  214.1840  146.1470 C   0  0  0  0  0  3  0  0  0  0  0  0
  161.7970  214.2720  144.7340 C   0  0  0  0  0  2  0  0  0  0  0  0
  159.9310  212.1860  145.7020 C   0  0  0  0  0  3  0  0  0  0  0  0
  160.6840  214.4520  143.8100 N   0  0  0  0  0  0  0  0  0  0  0  0
  160.1480  213.1450  148.2920 Cl  0  0  0  0  0  0  0  0  0  0  0  0
  159.7240  213.5940  143.6320 C   0  0  0  0  0  0  0  0  0  0  0  0
  159.5930  212.3480  144.4170 C   0  0  0  0  0  3  0  0  0  0  0  0
  160.5080  213.2230  146.5780 C   0  0  0  0  0  0  0  0  0  0  0  0
  1 23  1  0  0  0  0
  2  1  2  0  0  0  0
  3  7  1  1  0  0  0
  4  9  1  0  0  0  0
  5 16  1  6  0  0  0
  5  3  1  0  0  0  0
  6  4  2  0  0  0  0
  8 14  1  1  0  0  0
  8  9  1  0  0  0  0
  8 12  1  0  0  0  0
  9 15  1  0  0  0  0
 10 12  1  0  0  0  0
 10 13  1  0  0  0  0
 11  4  1  0  0  0  0
 11 13  1  0  0  0  0
 14  5  1  0  0  0  0
 15  3  1  0  0  0  0
 15  2  1  1  0  0  0
 17 16  1  0  0  0  0
 18 20  1  0  0  0  0
 19 20  2  0  0  0  0
 19  2  1  0  0  0  0
 21 22  1  0  0  0  0
 21 18  2  0  0  0  0
 22 19  1  0  0  0  0
 23 24  1  0  0  0  0
 24 25  1  0  0  0  0
 25 31  1  0  0  0  0
 26 33  2  0  0  0  0
 27 26  1  0  0  0  0
 28 33  1  0  0  0  0
 29 27  1  0  0  0  0
 31 29  2  0  0  0  0
 31 32  1  0  0  0  0
 32 28  2  0  0  0  0
 33 30  1  0  0  0  0
M  END
>  <MODEL>
7

>  <REMARK>
 VINA RESULT:      -3.7     11.803     14.764
  Name = 
  7 active torsions:
  status: ('A' for Active; 'I' for Inactive)
    1  A    between atoms: C_1  and  C_10
    2  A    between atoms: N_2  and  O_12
    3  A    between atoms: C_5  and  O_12
    4  A    between atoms: C_5  and  C_24
    5  A    between atoms: C_6  and  C_18
    6  A    between atoms: C_6  and  C_33
    7  A    between atoms: C_24  and  C_26
                            x       y       z     vdW  Elec       q    Type
                         _______ _______ _______ _____ _____    ______ ____

>  <TORSDO>
F 7

$$$$
=
 OpenBabel11072410203D

 33 36  0  0  1  0  0  0  0  0999 V2000
  161.3910  207.9050  154.7070 N   0  0  0  0  0  0  0  0  0  0  0  0
  161.1230  209.1350  155.0370 C   0  0  0  0  0  0  0  0  0  0  0  0
  159.4430  210.8100  155.8590 C   0  0  1  0  0  3  0  0  0  0  0  0
  160.4380  209.8850  152.3210 C   0  0  0  0  0  0  0  0  0  0  0  0
  158.0020  211.3550  155.8130 C   0  0  1  0  0  3  0  0  0  0  0  0
  160.6080  208.6510  152.1380 O   0  0  0  0  0  0  0  0  0  0  0  0
  159.7860  210.3620  157.1440 O   0  0  0  0  0  1  0  0  0  0  0  0
  158.6540  211.3600  153.1250 C   0  0  2  0  0  3  0  0  0  0  0  0
  159.6630  210.3500  153.4370 N   0  0  0  0  0  0  0  0  0  0  0  0
  159.8230  212.9420  151.8460 C   0  0  0  0  0  2  0  0  0  0  0  0
  161.0130  210.8220  151.4030 N   0  0  0  0  0  2  0  0  0  0  0  0
  159.2400  212.6920  153.1590 N   0  0  0  0  0  2  0  0  0  0  0  0
  161.1710  212.2430  151.7030 C   0  0  0  0  0  2  0  0  0  0  0  0
  157.1710  211.2310  154.1790 S   0  0  0  0  0  0  0  0  0  0  0  0
  159.7610  209.7530  154.7860 C   0  0  1  0  0  3  0  0  0  0  0  0
  157.1030  210.7300  156.8740 C   0  0  0  0  0  2  0  0  0  0  0  0
  155.8640  211.3690  156.8850 O   0  0  0  0  0  1  0  0  0  0  0  0
  163.8100  211.3260  156.0810 C   0  0  0  0  0  3  0  0  0  0  0  0
  162.1600  209.9330  155.7080 C   0  0  0  0  0  0  0  0  0  0  0  0
  162.9720  210.8530  155.0840 C   0  0  0  0  0  3  0  0  0  0  0  0
  163.4480  210.6760  157.2450 C   0  0  0  0  0  3  0  0  0  0  0  0
  162.4610  209.8480  156.9800 O   0  0  0  0  0  0  0  0  0  0  0  0
  160.4460  207.0560  154.1680 O   0  0  0  0  0  0  0  0  0  0  0  0
  160.7920  205.7320  153.7700 C   0  0  0  0  0  2  0  0  0  0  0  0
  161.8020  205.7250  152.6250 C   0  0  0  0  0  2  0  0  0  0  0  0
  161.2900  204.0270  148.5500 C   0  0  0  0  0  3  0  0  0  0  0  0
  160.8210  205.3790  148.9740 C   0  0  0  0  0  2  0  0  0  0  0  0
  160.3770  202.9240  150.5690 C   0  0  0  0  0  3  0  0  0  0  0  0
  161.4110  205.7720  150.2490 N   0  0  0  0  0  0  0  0  0  0  0  0
  161.5290  201.3810  148.5770 Cl  0  0  0  0  0  0  0  0  0  0  0  0
  161.2240  205.1470  151.3740 C   0  0  0  0  0  0  0  0  0  0  0  0
  160.4480  203.8940  151.4880 C   0  0  0  0  0  3  0  0  0  0  0  0
  161.0580  202.9250  149.2600 C   0  0  0  0  0  0  0  0  0  0  0  0
  1  2  2  0  0  0  0
  2 19  1  0  0  0  0
  3  7  1  1  0  0  0
  4  9  1  0  0  0  0
  5  3  1  0  0  0  0
  5 16  1  1  0  0  0
  6  4  2  0  0  0  0
  8 12  1  1  0  0  0
  8  9  1  0  0  0  0
  8 14  1  0  0  0  0
  9 15  1  0  0  0  0
 10 12  1  0  0  0  0
 11 13  1  0  0  0  0
 11  4  1  0  0  0  0
 13 10  1  0  0  0  0
 14  5  1  0  0  0  0
 15  2  1  1  0  0  0
 15  3  1  0  0  0  0
 16 17  1  0  0  0  0
 18 21  2  0  0  0  0
 19 22  1  0  0  0  0
 20 19  2  0  0  0  0
 20 18  1  0  0  0  0
 22 21  1  0  0  0  0
 23  1  1  0  0  0  0
 24 23  1  0  0  0  0
 25 24  1  0  0  0  0
 26 27  1  0  0  0  0
 26 33  2  0  0  0  0
 27 29  1  0  0  0  0
 28 32  2  0  0  0  0
 29 31  2  0  0  0  0
 30 33  1  0  0  0  0
 31 32  1  0  0  0  0
 31 25  1  0  0  0  0
 33 28  1  0  0  0  0
M  END
>  <MODEL>
8

>  <REMARK>
 VINA RESULT:      -3.4      2.053      4.058
  Name = 
  7 active torsions:
  status: ('A' for Active; 'I' for Inactive)
    1  A    between atoms: C_1  and  C_10
    2  A    between atoms: N_2  and  O_12
    3  A    between atoms: C_5  and  O_12
    4  A    between atoms: C_5  and  C_24
    5  A    between atoms: C_6  and  C_18
    6  A    between atoms: C_6  and  C_33
    7  A    between atoms: C_24  and  C_26
                            x       y       z     vdW  Elec       q    Type
                         _______ _______ _______ _____ _____    ______ ____

>  <TORSDO>
F 7

$$$$
=
 OpenBabel11072410203D

 33 36  0  0  1  0  0  0  0  0999 V2000
  161.6330  208.9510  154.5640 N   0  0  0  0  0  0  0  0  0  0  0  0
  161.9130  210.2220  154.5920 C   0  0  0  0  0  0  0  0  0  0  0  0
  160.7980  210.6640  152.3870 C   0  0  1  0  0  3  0  0  0  0  0  0
  159.7480  211.6450  155.8930 C   0  0  0  0  0  0  0  0  0  0  0  0
  160.1770  211.6820  151.4100 C   0  0  1  0  0  3  0  0  0  0  0  0
  160.6960  212.0330  156.6280 O   0  0  0  0  0  0  0  0  0  0  0  0
  161.9010  210.0090  151.8190 O   0  0  0  0  0  1  0  0  0  0  0  0
  158.7790  212.2550  153.7270 C   0  0  2  0  0  3  0  0  0  0  0  0
  159.8890  211.6560  154.4640 N   0  0  0  0  0  0  0  0  0  0  0  0
  156.8790  211.2340  154.6490 C   0  0  0  0  0  2  0  0  0  0  0  0
  158.5240  211.2040  156.4930 N   0  0  0  0  0  2  0  0  0  0  0  0
  157.7440  211.2650  153.4750 N   0  0  0  0  0  2  0  0  0  0  0  0
  157.5160  210.4270  155.7760 C   0  0  0  0  0  2  0  0  0  0  0  0
  159.3140  213.0990  152.2010 S   0  0  0  0  0  0  0  0  0  0  0  0
  161.1290  211.2330  153.7780 C   0  0  1  0  0  3  0  0  0  0  0  0
  161.1870  212.2190  150.4010 C   0  0  0  0  0  2  0  0  0  0  0  0
  160.7150  213.4050  149.8400 O   0  0  0  0  0  1  0  0  0  0  0  0
  164.9050  211.4880  156.1900 C   0  0  0  0  0  3  0  0  0  0  0  0
  162.9940  210.6920  155.4710 C   0  0  0  0  0  0  0  0  0  0  0  0
  164.1860  211.2260  155.0360 C   0  0  0  0  0  3  0  0  0  0  0  0
  164.1040  211.1100  157.2500 C   0  0  0  0  0  3  0  0  0  0  0  0
  162.9720  210.6350  156.7790 O   0  0  0  0  0  0  0  0  0  0  0  0
  160.5710  208.4390  153.8480 O   0  0  0  0  0  0  0  0  0  0  0  0
  160.5440  207.0690  153.4530 C   0  0  0  0  0  2  0  0  0  0  0  0
  161.6490  206.7420  152.4520 C   0  0  0  0  0  2  0  0  0  0  0  0
  161.2130  205.2210  148.2990 C   0  0  0  0  0  3  0  0  0  0  0  0
  160.6240  206.4970  148.8050 C   0  0  0  0  0  2  0  0  0  0  0  0
  160.4560  203.9280  150.2690 C   0  0  0  0  0  3  0  0  0  0  0  0
  161.2020  206.8770  150.0880 N   0  0  0  0  0  0  0  0  0  0  0  0
  161.7080  202.6140  148.1760 Cl  0  0  0  0  0  0  0  0  0  0  0  0
  161.1020  206.1780  151.1810 C   0  0  0  0  0  0  0  0  0  0  0  0
  160.4540  204.8500  151.2390 C   0  0  0  0  0  3  0  0  0  0  0  0
  161.1050  204.0650  148.9510 C   0  0  0  0  0  0  0  0  0  0  0  0
  1  2  2  0  0  0  0
  2 19  1  0  0  0  0
  3  7  1  6  0  0  0
  3 15  1  0  0  0  0
  4 11  1  0  0  0  0
  4  6  2  0  0  0  0
  5 16  1  6  0  0  0
  5 14  1  0  0  0  0
  5  3  1  0  0  0  0
  8 14  1  6  0  0  0
  8  9  1  0  0  0  0
  9  4  1  0  0  0  0
 10 13  1  0  0  0  0
 12  8  1  0  0  0  0
 12 10  1  0  0  0  0
 13 11  1  0  0  0  0
 15  9  1  0  0  0  0
 15  2  1  1  0  0  0
 17 16  1  0  0  0  0
 18 21  2  0  0  0  0
 19 22  1  0  0  0  0
 20 19  2  0  0  0  0
 20 18  1  0  0  0  0
 22 21  1  0  0  0  0
 23  1  1  0  0  0  0
 24 23  1  0  0  0  0
 25 24  1  0  0  0  0
 26 27  1  0  0  0  0
 26 33  2  0  0  0  0
 27 29  1  0  0  0  0
 28 32  2  0  0  0  0
 29 31  2  0  0  0  0
 30 33  1  0  0  0  0
 31 32  1  0  0  0  0
 31 25  1  0  0  0  0
 33 28  1  0  0  0  0
M  END
>  <MODEL>
9

>  <REMARK>
 VINA RESULT:      -2.9      2.133      4.057
  Name = 
  7 active torsions:
  status: ('A' for Active; 'I' for Inactive)
    1  A    between atoms: C_1  and  C_10
    2  A    between atoms: N_2  and  O_12
    3  A    between atoms: C_5  and  O_12
    4  A    between atoms: C_5  and  C_24
    5  A    between atoms: C_6  and  C_18
    6  A    between atoms: C_6  and  C_33
    7  A    between atoms: C_24  and  C_26
                            x       y       z     vdW  Elec       q    Type
                         _______ _______ _______ _____ _____    ______ ____

>  <TORSDO>
F 7

$$$$
