=
 OpenBabel11072410463D

 38 44  0  0  1  0  0  0  0  0999 V2000
  161.6440  206.6070  151.1400 C   0  0  1  0  0  3  0  0  0  0  0  0
  161.6120  207.2790  148.7610 C   0  0  0  0  0  0  0  0  0  0  0  0
  161.2060  208.9950  150.3680 O   0  0  0  0  0  0  0  0  0  0  0  0
  161.3920  208.6870  152.8440 C   0  0  2  0  0  0  0  0  0  0  0  0
  161.1530  211.3850  155.2400 C   0  0  0  0  0  3  0  0  0  0  0  0
  160.0890  207.1430  154.3050 C   0  0  0  0  0  1  0  0  0  0  0  0
  160.6430  205.8640  151.7850 O   0  0  0  0  0  0  0  0  0  0  0  0
  161.5220  208.9080  155.2380 C   0  0  0  0  0  2  0  0  0  0  0  0
  161.4730  206.3340  149.6960 C   0  0  0  0  0  0  0  0  0  0  0  0
  160.7520  205.0720  149.5270 C   0  0  0  0  0  2  0  0  0  0  0  0
  161.2310  210.2240  154.5840 C   0  0  0  0  0  0  0  0  0  0  0  0
  161.0560  210.1400  153.1090 C   0  0  2  0  0  3  0  0  0  0  0  0
  162.7660  208.6170  152.1920 C   0  0  0  0  0  2  0  0  0  0  0  0
  161.5540  208.1230  151.4290 C   0  0  1  0  0  0  0  0  0  0  0  0
  160.4450  204.7220  150.9750 C   0  0  0  0  0  2  0  0  0  0  0  0
  161.9820  208.6550  149.2360 C   0  0  0  0  0  2  0  0  0  0  0  0
  161.4120  207.8680  154.1280 C   0  0  2  0  0  3  0  0  0  0  0  0
  162.0920  206.3450  146.6300 O   0  0  0  0  0  0  0  0  0  0  0  0
  161.3100  207.0220  147.3470 C   0  0  0  0  0  3  0  0  0  0  0  0
  159.6930  210.3810  152.7820 O   0  0  0  0  0  0  0  0  0  0  0  0
  158.7060  213.5560  149.9940 N   0  0  0  0  0  2  0  0  0  0  0  0
  159.2290  211.6360  152.3840 C   0  0  0  0  0  0  0  0  0  0  0  0
  160.9470  213.0110  149.5840 N   0  0  0  0  0  2  0  0  0  0  0  0
  159.9410  212.9430  150.3890 C   0  0  0  0  0  0  0  0  0  0  0  0
  157.4180  213.2230  152.0770 C   0  0  0  0  0  2  0  0  0  0  0  0
  156.4460  214.2740  150.1190 N   0  0  0  0  0  1  0  0  0  0  0  0
  160.2140  212.6130  151.8230 C   0  0  0  0  0  2  0  0  0  0  0  0
  157.3910  213.2650  150.5590 C   0  0  1  0  0  3  0  0  0  0  0  0
  157.9720  211.9470  152.5130 N   0  0  0  0  0  0  0  0  0  0  0  0
  161.3720  211.5090  157.0180 S   0  0  0  0  0  0  0  0  0  0  0  0
  156.8810  212.0010  155.3380 O   0  0  0  0  0  0  0  0  0  0  0  0
  159.5890  213.5380  156.5660 C   0  0  0  0  0  0  0  0  0  0  0  0
  158.6780  211.2210  156.7160 C   0  0  0  0  0  2  0  0  0  0  0  0
  160.3460  214.4530  156.8460 O   0  0  0  0  0  0  0  0  0  0  0  0
  157.1840  213.1840  156.0400 C   0  0  2  0  0  3  0  0  0  0  0  0
  158.5190  213.7470  155.5390 C   0  0  0  0  0  2  0  0  0  0  0  0
  157.2710  211.8280  156.6800 C   0  0  1  0  0  3  0  0  0  0  0  0
  159.7100  212.2080  157.2600 C   0  0  1  0  0  3  0  0  0  0  0  0
  1  9  1  6  0  0  0
  1 14  1  0  0  0  0
  1  7  1  0  0  0  0
  2 16  1  0  0  0  0
  2  9  2  0  0  0  0
  3 14  1  0  0  0  0
  4 13  1  1  0  0  0
  4 12  1  0  0  0  0
  4 17  1  0  0  0  0
  5 30  1  0  0  0  0
 10  9  1  0  0  0  0
 10 15  1  0  0  0  0
 11  8  1  0  0  0  0
 11  5  2  0  0  0  0
 12 20  1  1  0  0  0
 12 11  1  0  0  0  0
 14 13  1  6  0  0  0
 14  4  1  0  0  0  0
 15  7  1  0  0  0  0
 16  3  1  0  0  0  0
 17  6  1  1  0  0  0
 17  8  1  0  0  0  0
 18 19  2  0  0  0  0
 19  2  1  0  0  0  0
 21 24  1  0  0  0  0
 21 28  1  0  0  0  0
 22 29  2  0  0  0  0
 22 20  1  0  0  0  0
 23 24  2  0  0  0  0
 24 27  1  0  0  0  0
 25 29  1  0  0  0  0
 27 22  1  0  0  0  0
 28 26  1  1  0  0  0
 28 25  1  0  0  0  0
 31 35  1  0  0  0  0
 31 37  1  0  0  0  0
 32 34  2  0  0  0  0
 32 38  1  0  0  0  0
 33 38  1  0  0  0  0
 35 36  1  6  0  0  0
 35 37  1  0  0  0  0
 36 32  1  0  0  0  0
 37 33  1  6  0  0  0
 38 30  1  6  0  0  0
M  END
>  <MODEL>
1

>  <REMARK>
 VINA RESULT:      -5.5      0.000      0.000
  Name = 
  5 active torsions:
  status: ('A' for Active; 'I' for Inactive)
    1  A    between atoms: C_4  and  C_38
    2  A    between atoms: C_7  and  O_11
    3  A    between atoms: C_10  and  S_13
    4  A    between atoms: O_11  and  C_30
    5  A    between atoms: S_13  and  C_24
                            x       y       z     vdW  Elec       q    Type
                         _______ _______ _______ _____ _____    ______ ____

>  <TORSDO>
F 5

$$$$
=
 OpenBabel11072410463D

 38 44  0  0  1  0  0  0  0  0999 V2000
  159.0620  211.6760  155.5900 C   0  0  1  0  0  3  0  0  0  0  0  0
  157.2120  213.2670  155.1970 C   0  0  0  0  0  0  0  0  0  0  0  0
  158.3210  212.4110  153.2650 O   0  0  0  0  0  0  0  0  0  0  0  0
  160.0700  210.6230  153.3160 C   0  0  2  0  0  0  0  0  0  0  0  0
  161.4570  209.0680  150.3600 C   0  0  0  0  0  3  0  0  0  0  0  0
  162.2900  210.6730  154.4510 C   0  0  0  0  0  1  0  0  0  0  0  0
  160.3320  212.0150  156.0810 O   0  0  0  0  0  0  0  0  0  0  0  0
  161.6950  208.9080  152.8480 C   0  0  0  0  0  2  0  0  0  0  0  0
  158.1700  212.7840  155.9930 C   0  0  0  0  0  0  0  0  0  0  0  0
  158.7630  213.4870  157.1320 C   0  0  0  0  0  2  0  0  0  0  0  0
  161.1510  209.5040  151.5850 C   0  0  0  0  0  0  0  0  0  0  0  0
  160.2030  210.6280  151.8070 C   0  0  2  0  0  3  0  0  0  0  0  0
  158.7100  210.0490  153.6830 C   0  0  0  0  0  2  0  0  0  0  0  0
  159.0390  211.4800  154.0560 C   0  0  1  0  0  0  0  0  0  0  0  0
  160.0900  212.7570  157.2610 C   0  0  0  0  0  2  0  0  0  0  0  0
  157.0510  212.6140  153.8540 C   0  0  0  0  0  2  0  0  0  0  0  0
  161.1560  209.7820  153.9760 C   0  0  2  0  0  3  0  0  0  0  0  0
  155.2040  214.3560  155.8500 O   0  0  0  0  0  0  0  0  0  0  0  0
  156.4250  214.4530  155.5610 C   0  0  0  0  0  3  0  0  0  0  0  0
  160.8080  211.8450  151.3860 O   0  0  0  0  0  0  0  0  0  0  0  0
  159.1920  213.0430  147.5420 N   0  0  0  0  0  2  0  0  0  0  0  0
  160.2050  212.7000  150.4610 C   0  0  0  0  0  0  0  0  0  0  0  0
  161.3740  212.3010  147.1220 N   0  0  0  0  0  2  0  0  0  0  0  0
  160.5110  212.7060  147.9910 C   0  0  0  0  0  0  0  0  0  0  0  0
  158.2670  213.9200  149.6590 C   0  0  0  0  0  2  0  0  0  0  0  0
  156.9360  213.7770  147.6360 N   0  0  0  0  0  1  0  0  0  0  0  0
  161.0240  213.1930  149.3100 C   0  0  0  0  0  2  0  0  0  0  0  0
  158.0030  213.1380  148.3830 C   0  0  1  0  0  3  0  0  0  0  0  0
  158.9650  213.0660  150.6110 N   0  0  0  0  0  0  0  0  0  0  0  0
  162.5910  207.7060  150.0710 S   0  0  0  0  0  0  0  0  0  0  0  0
  161.6410  203.1690  151.3900 O   0  0  0  0  0  0  0  0  0  0  0  0
  160.9590  205.6620  149.2640 C   0  0  0  0  0  0  0  0  0  0  0  0
  161.8890  205.5440  151.5750 C   0  0  0  0  0  2  0  0  0  0  0  0
  160.5170  206.2200  148.2720 O   0  0  0  0  0  0  0  0  0  0  0  0
  160.5660  203.5920  150.5850 C   0  0  2  0  0  3  0  0  0  0  0  0
  161.1070  204.1710  149.2730 C   0  0  0  0  0  2  0  0  0  0  0  0
  160.9800  204.3350  151.8220 C   0  0  1  0  0  3  0  0  0  0  0  0
  161.3340  206.4590  150.4850 C   0  0  1  0  0  3  0  0  0  0  0  0
  1  9  1  6  0  0  0
  1  7  1  0  0  0  0
  2 19  1  0  0  0  0
  2  9  2  0  0  0  0
  3 16  1  0  0  0  0
  3 14  1  0  0  0  0
  4 13  1  6  0  0  0
  4 17  1  0  0  0  0
  4 14  1  0  0  0  0
  5 11  2  0  0  0  0
  7 15  1  0  0  0  0
  8 17  1  0  0  0  0
  9 10  1  0  0  0  0
 10 15  1  0  0  0  0
 11 12  1  0  0  0  0
 11  8  1  0  0  0  0
 12 20  1  1  0  0  0
 12  4  1  0  0  0  0
 14 13  1  1  0  0  0
 14  1  1  0  0  0  0
 16  2  1  0  0  0  0
 17  6  1  6  0  0  0
 19 18  2  0  0  0  0
 21 24  1  0  0  0  0
 21 28  1  0  0  0  0
 22 29  2  0  0  0  0
 22 20  1  0  0  0  0
 23 24  2  0  0  0  0
 24 27  1  0  0  0  0
 25 29  1  0  0  0  0
 27 22  1  0  0  0  0
 28 26  1  6  0  0  0
 28 25  1  0  0  0  0
 30  5  1  0  0  0  0
 31 37  1  0  0  0  0
 32 36  1  0  0  0  0
 32 38  1  0  0  0  0
 34 32  2  0  0  0  0
 35 36  1  6  0  0  0
 35 31  1  0  0  0  0
 35 37  1  0  0  0  0
 37 33  1  6  0  0  0
 38 30  1  6  0  0  0
 38 33  1  0  0  0  0
M  END
>  <MODEL>
2

>  <REMARK>
 VINA RESULT:      -5.2      2.147      7.439
  Name = 
  5 active torsions:
  status: ('A' for Active; 'I' for Inactive)
    1  A    between atoms: C_4  and  C_38
    2  A    between atoms: C_7  and  O_11
    3  A    between atoms: C_10  and  S_13
    4  A    between atoms: O_11  and  C_30
    5  A    between atoms: S_13  and  C_24
                            x       y       z     vdW  Elec       q    Type
                         _______ _______ _______ _____ _____    ______ ____

>  <TORSDO>
F 5

$$$$
=
 OpenBabel11072410463D

 38 44  0  0  1  0  0  0  0  0999 V2000
  161.7380  205.0570  150.0080 C   0  0  1  0  0  3  0  0  0  0  0  0
  162.0970  206.2360  147.8650 C   0  0  0  0  0  0  0  0  0  0  0  0
  161.8190  207.5960  149.8050 O   0  0  0  0  0  0  0  0  0  0  0  0
  161.6650  206.7120  152.1410 C   0  0  2  0  0  0  0  0  0  0  0  0
  161.6340  208.7990  155.0940 C   0  0  0  0  0  3  0  0  0  0  0  0
  159.9530  205.1690  153.0930 C   0  0  0  0  0  1  0  0  0  0  0  0
  160.5560  204.4020  150.3840 O   0  0  0  0  0  0  0  0  0  0  0  0
  161.5580  206.3620  154.5210 C   0  0  0  0  0  2  0  0  0  0  0  0
  161.6880  205.1530  148.5320 C   0  0  0  0  0  0  0  0  0  0  0  0
  160.7800  204.1290  148.0150 C   0  0  0  0  0  2  0  0  0  0  0  0
  161.5800  207.8220  154.1850 C   0  0  0  0  0  0  0  0  0  0  0  0
  161.5620  208.1060  152.7250 C   0  0  2  0  0  3  0  0  0  0  0  0
  163.0700  206.5180  151.5890 C   0  0  0  0  0  2  0  0  0  0  0  0
  161.8850  206.4570  150.6470 C   0  0  1  0  0  0  0  0  0  0  0  0
  160.2530  203.5320  149.3110 C   0  0  0  0  0  2  0  0  0  0  0  0
  162.6470  207.3700  148.6810 C   0  0  0  0  0  2  0  0  0  0  0  0
  161.3930  205.6390  153.1880 C   0  0  2  0  0  3  0  0  0  0  0  0
  162.6460  205.7280  145.6100 O   0  0  0  0  0  0  0  0  0  0  0  0
  161.9170  206.3660  146.4130 C   0  0  0  0  0  3  0  0  0  0  0  0
  160.3090  208.6790  152.3710 O   0  0  0  0  0  0  0  0  0  0  0  0
  159.7620  212.6110  150.6200 N   0  0  0  0  0  2  0  0  0  0  0  0
  160.0910  210.0580  152.3650 C   0  0  0  0  0  0  0  0  0  0  0  0
  161.7790  211.7930  149.7530 N   0  0  0  0  0  2  0  0  0  0  0  0
  160.8670  211.6990  150.6620 C   0  0  0  0  0  0  0  0  0  0  0  0
  158.6470  211.9730  152.7320 C   0  0  0  0  0  2  0  0  0  0  0  0
  157.7360  213.6720  151.2590 N   0  0  0  0  0  1  0  0  0  0  0  0
  161.2040  210.9510  151.9140 C   0  0  0  0  0  2  0  0  0  0  0  0
  158.4780  212.4260  151.2920 C   0  0  1  0  0  3  0  0  0  0  0  0
  158.9510  210.5480  152.7560 N   0  0  0  0  0  0  0  0  0  0  0  0
  161.6670  208.4780  156.8600 S   0  0  0  0  0  0  0  0  0  0  0  0
  158.4110  211.9080  155.9350 O   0  0  0  0  0  0  0  0  0  0  0  0
  161.6460  211.1710  156.3700 C   0  0  0  0  0  0  0  0  0  0  0  0
  159.5030  210.1190  157.0940 C   0  0  0  0  0  2  0  0  0  0  0  0
  162.8570  211.3170  156.3430 O   0  0  0  0  0  0  0  0  0  0  0  0
  159.5860  212.5640  156.3480 C   0  0  2  0  0  3  0  0  0  0  0  0
  160.7730  212.0490  155.5270 C   0  0  0  0  0  2  0  0  0  0  0  0
  158.9080  211.5280  157.1970 C   0  0  1  0  0  3  0  0  0  0  0  0
  161.0220  210.1310  157.2610 C   0  0  1  0  0  3  0  0  0  0  0  0
  1  9  1  6  0  0  0
  1  7  1  0  0  0  0
  1 14  1  0  0  0  0
  2  9  2  0  0  0  0
  2 16  1  0  0  0  0
  3 14  1  0  0  0  0
  4 13  1  1  0  0  0
  4 12  1  0  0  0  0
  4 17  1  0  0  0  0
  5 30  1  0  0  0  0
 10  9  1  0  0  0  0
 10 15  1  0  0  0  0
 11  8  1  0  0  0  0
 11  5  2  0  0  0  0
 12 20  1  6  0  0  0
 12 11  1  0  0  0  0
 14 13  1  1  0  0  0
 14  4  1  0  0  0  0
 15  7  1  0  0  0  0
 16  3  1  0  0  0  0
 17  6  1  6  0  0  0
 17  8  1  0  0  0  0
 18 19  2  0  0  0  0
 19  2  1  0  0  0  0
 21 24  1  0  0  0  0
 21 28  1  0  0  0  0
 22 20  1  0  0  0  0
 22 29  2  0  0  0  0
 23 24  2  0  0  0  0
 24 27  1  0  0  0  0
 25 29  1  0  0  0  0
 27 22  1  0  0  0  0
 28 26  1  1  0  0  0
 28 25  1  0  0  0  0
 31 35  1  0  0  0  0
 31 37  1  0  0  0  0
 32 38  1  0  0  0  0
 33 38  1  0  0  0  0
 34 32  2  0  0  0  0
 35 36  1  6  0  0  0
 35 37  1  0  0  0  0
 36 32  1  0  0  0  0
 37 33  1  6  0  0  0
 38 30  1  6  0  0  0
M  END
>  <MODEL>
3

>  <REMARK>
 VINA RESULT:      -3.5      1.627      2.118
  Name = 
  5 active torsions:
  status: ('A' for Active; 'I' for Inactive)
    1  A    between atoms: C_4  and  C_38
    2  A    between atoms: C_7  and  O_11
    3  A    between atoms: C_10  and  S_13
    4  A    between atoms: O_11  and  C_30
    5  A    between atoms: S_13  and  C_24
                            x       y       z     vdW  Elec       q    Type
                         _______ _______ _______ _____ _____    ______ ____

>  <TORSDO>
F 5

$$$$
