=
 OpenBabel11072411023D

 30 31  0  0  1  0  0  0  0  0999 V2000
  161.8960  208.6080  150.9690 C   0  0  2  0  0  3  0  0  0  0  0  0
  161.0040  205.5190  148.8750 C   0  0  0  0  0  2  0  0  0  0  0  0
  161.3100  204.2730  149.6950 C   0  0  1  0  0  3  0  0  0  0  0  0
  161.8290  206.7210  149.3220 C   0  0  0  0  0  2  0  0  0  0  0  0
  160.5500  204.3590  151.0140 C   0  0  0  0  0  2  0  0  0  0  0  0
  162.2320  206.1930  151.7240 C   0  0  0  0  0  2  0  0  0  0  0  0
  161.5160  207.1360  150.7580 C   0  0  1  0  0  3  0  0  0  0  0  0
  161.3730  204.9960  152.1380 C   0  0  0  0  0  2  0  0  0  0  0  0
  160.8490  203.0500  148.9100 C   0  0  0  0  0  2  0  0  0  0  0  0
  159.1800  201.3580  149.2780 O   0  0  0  0  0  1  0  0  0  0  0  0
  161.3120  200.9500  149.9920 O   0  0  0  0  0  1  0  0  0  0  0  0
  160.3350  201.9300  149.8130 C   0  0  0  0  0  3  0  0  0  0  0  0
  160.0000  209.3900  152.1760 O   0  0  0  0  0  0  0  0  0  0  0  0
  161.2170  209.3010  152.1220 C   0  0  0  0  0  0  0  0  0  0  0  0
  162.2110  209.9960  153.4410 S   0  0  0  0  0  0  0  0  0  0  0  0
  160.8810  210.8510  155.6130 N   0  0  0  0  0  1  0  0  0  0  0  0
  160.9160  209.7300  154.6890 C   0  0  2  0  0  3  0  0  0  0  0  0
  160.6980  207.3800  154.9980 O   0  0  0  0  0  0  0  0  0  0  0  0
  161.1720  208.4630  155.4310 C   0  0  0  0  0  0  0  0  0  0  0  0
  161.9810  208.4600  156.6040 N   0  0  0  0  0  1  0  0  0  0  0  0
  161.9390  209.4290  149.6800 C   0  0  0  0  0  2  0  0  0  0  0  0
  161.9040  211.2280  149.9660 S   0  0  0  0  0  0  0  0  0  0  0  0
  163.1860  212.5520  147.9470 C   0  0  0  0  0  2  0  0  0  0  0  0
  161.7620  213.0390  147.8360 C   0  0  2  0  0  0  0  0  0  0  0  0
  161.3150  214.0380  148.8940 C   0  0  0  0  0  1  0  0  0  0  0  0
  162.0310  211.5830  148.1840 C   0  0  2  0  0  3  0  0  0  0  0  0
  159.9590  213.0630  146.0480 C   0  0  0  0  0  0  0  0  0  0  0  0
  158.9600  212.6500  146.9750 N   0  0  0  0  0  1  0  0  0  0  0  0
  161.3130  213.2480  146.4660 N   0  0  0  0  0  2  0  0  0  0  0  0
  159.6450  213.2720  144.8480 O   0  0  0  0  0  0  0  0  0  0  0  0
  1 21  1  6  0  0  0
  1 14  1  0  0  0  0
  2  4  1  0  0  0  0
  2  3  1  0  0  0  0
  3  9  1  6  0  0  0
  3  5  1  0  0  0  0
  4  7  1  0  0  0  0
  5  8  1  0  0  0  0
  6  8  1  0  0  0  0
  7  1  1  6  0  0  0
  7  6  1  0  0  0  0
  9 12  1  0  0  0  0
 10 12  1  0  0  0  0
 12 11  1  0  0  0  0
 14 13  2  0  0  0  0
 14 15  1  0  0  0  0
 15 17  1  0  0  0  0
 17 19  1  0  0  0  0
 17 16  1  1  0  0  0
 18 19  2  0  0  0  0
 19 20  1  0  0  0  0
 21 22  1  0  0  0  0
 23 26  1  0  0  0  0
 24 23  1  0  0  0  0
 24 26  1  0  0  0  0
 24 25  1  1  0  0  0
 26 22  1  1  0  0  0
 27 29  1  0  0  0  0
 27 28  1  0  0  0  0
 29 24  1  0  0  0  0
 30 27  2  0  0  0  0
M  END
>  <MODEL>
1

>  <REMARK>
 VINA RESULT:      -6.7      0.000      0.000
  Name = 
  11 active torsions:
  status: ('A' for Active; 'I' for Inactive)
    1  A    between atoms: C_4  and  S_6
    2  A    between atoms: C_4  and  C_29
    3  A    between atoms: S_6  and  C_27
    4  A    between atoms: C_8  and  N_24
    5  A    between atoms: C_9  and  C_19
    6  A    between atoms: C_11  and  C_23
    7  A    between atoms: S_12  and  C_23
    8  A    between atoms: S_12  and  C_25
    9  A    between atoms: C_19  and  C_30
   10  A    between atoms: C_22  and  C_29
   11  A    between atoms: C_25  and  C_29
                            x       y       z     vdW  Elec       q    Type
                         _______ _______ _______ _____ _____    ______ ____

>  <TORSDO>
F 11

$$$$
=
 OpenBabel11072411023D

 30 31  0  0  1  0  0  0  0  0999 V2000
  161.5180  208.3370  150.6060 C   0  0  2  0  0  3  0  0  0  0  0  0
  161.5260  204.5350  151.1220 C   0  0  0  0  0  2  0  0  0  0  0  0
  160.8190  203.8840  149.9410 C   0  0  1  0  0  3  0  0  0  0  0  0
  161.0850  205.9790  151.3340 C   0  0  0  0  0  2  0  0  0  0  0  0
  161.5060  204.3290  148.6550 C   0  0  0  0  0  2  0  0  0  0  0  0
  160.4300  206.6530  149.0260 C   0  0  0  0  0  2  0  0  0  0  0  0
  161.4420  206.8730  150.1490 C   0  0  1  0  0  3  0  0  0  0  0  0
  160.8640  205.5730  148.0330 C   0  0  0  0  0  2  0  0  0  0  0  0
  160.9220  202.3710  150.0870 C   0  0  0  0  0  2  0  0  0  0  0  0
  161.2010  200.5640  148.5230 O   0  0  0  0  0  1  0  0  0  0  0  0
  159.0790  201.1440  149.1420 O   0  0  0  0  0  1  0  0  0  0  0  0
  160.3630  201.6230  148.8790 C   0  0  0  0  0  3  0  0  0  0  0  0
  162.4040  208.9480  148.4830 O   0  0  0  0  0  0  0  0  0  0  0  0
  161.9810  209.3250  149.5670 C   0  0  0  0  0  0  0  0  0  0  0  0
  161.9020  211.0790  149.9200 S   0  0  0  0  0  0  0  0  0  0  0  0
  163.2890  212.3210  147.9830 N   0  0  0  0  0  1  0  0  0  0  0  0
  162.0780  211.5390  148.1700 C   0  0  2  0  0  3  0  0  0  0  0  0
  160.3660  212.0770  146.6060 O   0  0  0  0  0  0  0  0  0  0  0  0
  160.8900  212.3210  147.7240 C   0  0  0  0  0  0  0  0  0  0  0  0
  160.3180  213.3170  148.5690 N   0  0  0  0  0  1  0  0  0  0  0  0
  162.1580  208.5250  151.9820 C   0  0  0  0  0  2  0  0  0  0  0  0
  160.9480  208.5530  153.3440 S   0  0  0  0  0  0  0  0  0  0  0  0
  161.9050  210.5950  154.8910 C   0  0  0  0  0  2  0  0  0  0  0  0
  160.4260  210.8840  154.8050 C   0  0  2  0  0  0  0  0  0  0  0  0
  159.5230  209.9910  155.6450 C   0  0  0  0  0  1  0  0  0  0  0  0
  161.1570  210.3470  153.5830 C   0  0  2  0  0  3  0  0  0  0  0  0
  159.0240  212.8190  153.9460 C   0  0  0  0  0  0  0  0  0  0  0  0
  158.1950  211.9490  153.1830 N   0  0  0  0  0  1  0  0  0  0  0  0
  160.1040  212.3030  154.7270 N   0  0  0  0  0  2  0  0  0  0  0  0
  158.8020  214.0570  153.9360 O   0  0  0  0  0  0  0  0  0  0  0  0
  1 21  1  1  0  0  0
  2  4  1  0  0  0  0
  3  9  1  1  0  0  0
  3  2  1  0  0  0  0
  5  3  1  0  0  0  0
  6  7  1  0  0  0  0
  7  1  1  1  0  0  0
  7  4  1  0  0  0  0
  8  5  1  0  0  0  0
  8  6  1  0  0  0  0
 10 12  1  0  0  0  0
 12 11  1  0  0  0  0
 12  9  1  0  0  0  0
 13 14  2  0  0  0  0
 14 15  1  0  0  0  0
 14  1  1  0  0  0  0
 17 16  1  1  0  0  0
 17 15  1  0  0  0  0
 18 19  2  0  0  0  0
 19 17  1  0  0  0  0
 19 20  1  0  0  0  0
 21 22  1  0  0  0  0
 24 23  1  0  0  0  0
 24 25  1  1  0  0  0
 26 22  1  1  0  0  0
 26 24  1  0  0  0  0
 26 23  1  0  0  0  0
 27 29  1  0  0  0  0
 28 27  1  0  0  0  0
 29 24  1  0  0  0  0
 30 27  2  0  0  0  0
M  END
>  <MODEL>
2

>  <REMARK>
 VINA RESULT:      -6.7      2.188      5.660
  Name = 
  11 active torsions:
  status: ('A' for Active; 'I' for Inactive)
    1  A    between atoms: C_4  and  S_6
    2  A    between atoms: C_4  and  C_29
    3  A    between atoms: S_6  and  C_27
    4  A    between atoms: C_8  and  N_24
    5  A    between atoms: C_9  and  C_19
    6  A    between atoms: C_11  and  C_23
    7  A    between atoms: S_12  and  C_23
    8  A    between atoms: S_12  and  C_25
    9  A    between atoms: C_19  and  C_30
   10  A    between atoms: C_22  and  C_29
   11  A    between atoms: C_25  and  C_29
                            x       y       z     vdW  Elec       q    Type
                         _______ _______ _______ _____ _____    ______ ____

>  <TORSDO>
F 11

$$$$
=
 OpenBabel11072411023D

 30 31  0  0  1  0  0  0  0  0999 V2000
  162.0400  208.0850  149.9800 C   0  0  2  0  0  3  0  0  0  0  0  0
  161.0120  208.4010  153.6630 C   0  0  0  0  0  2  0  0  0  0  0  0
  160.4830  207.0530  154.1360 C   0  0  1  0  0  3  0  0  0  0  0  0
  160.8910  208.5710  152.1520 C   0  0  0  0  0  2  0  0  0  0  0  0
  161.5510  205.9940  153.8860 C   0  0  0  0  0  2  0  0  0  0  0  0
  161.0030  206.2090  151.3660 C   0  0  0  0  0  2  0  0  0  0  0  0
  161.7310  207.5520  151.3860 C   0  0  1  0  0  3  0  0  0  0  0  0
  161.3970  205.2980  152.5300 C   0  0  0  0  0  2  0  0  0  0  0  0
  160.1830  207.1460  155.6270 C   0  0  0  0  0  2  0  0  0  0  0  0
  159.8770  209.1370  156.9420 O   0  0  0  0  0  1  0  0  0  0  0  0
  161.8260  207.9690  157.1820 O   0  0  0  0  0  1  0  0  0  0  0  0
  160.8330  208.3620  156.2840 C   0  0  0  0  0  3  0  0  0  0  0  0
  162.4180  210.3010  150.7600 O   0  0  0  0  0  0  0  0  0  0  0  0
  162.0600  209.5840  149.8360 C   0  0  0  0  0  0  0  0  0  0  0  0
  161.5620  210.3290  148.2850 S   0  0  0  0  0  0  0  0  0  0  0  0
  160.8650  212.8140  149.0300 N   0  0  0  0  0  1  0  0  0  0  0  0
  162.0490  211.9980  148.8180 C   0  0  2  0  0  3  0  0  0  0  0  0
  164.1730  212.6570  147.9710 O   0  0  0  0  0  0  0  0  0  0  0  0
  162.9280  212.6270  147.7910 C   0  0  0  0  0  0  0  0  0  0  0  0
  162.3740  213.1600  146.5900 N   0  0  0  0  0  1  0  0  0  0  0  0
  161.2910  207.3560  148.8620 C   0  0  0  0  0  2  0  0  0  0  0  0
  162.3860  206.7410  147.5420 S   0  0  0  0  0  0  0  0  0  0  0  0
  161.5710  204.1420  147.7800 C   0  0  0  0  0  2  0  0  0  0  0  0
  161.8330  204.2920  146.3010 C   0  0  2  0  0  0  0  0  0  0  0  0
  163.2970  204.3290  145.8830 C   0  0  0  0  0  1  0  0  0  0  0  0
  161.1990  205.4410  147.0710 C   0  0  2  0  0  3  0  0  0  0  0  0
  160.5880  202.1760  145.6500 C   0  0  0  0  0  0  0  0  0  0  0  0
  161.1970  201.4320  146.7010 N   0  0  0  0  0  1  0  0  0  0  0  0
  160.9000  203.5580  145.4570 N   0  0  0  0  0  2  0  0  0  0  0  0
  159.7640  201.6120  144.8860 O   0  0  0  0  0  0  0  0  0  0  0  0
  1 21  1  6  0  0  0
  2  3  1  0  0  0  0
  3  9  1  1  0  0  0
  4  2  1  0  0  0  0
  5  3  1  0  0  0  0
  6  7  1  0  0  0  0
  6  8  1  0  0  0  0
  7  1  1  6  0  0  0
  7  4  1  0  0  0  0
  8  5  1  0  0  0  0
  9 12  1  0  0  0  0
 12 10  1  0  0  0  0
 12 11  1  0  0  0  0
 14  1  1  0  0  0  0
 14 13  2  0  0  0  0
 15 17  1  0  0  0  0
 15 14  1  0  0  0  0
 17 16  1  6  0  0  0
 19 18  2  0  0  0  0
 19 17  1  0  0  0  0
 20 19  1  0  0  0  0
 22 21  1  0  0  0  0
 24 25  1  6  0  0  0
 24 26  1  0  0  0  0
 24 23  1  0  0  0  0
 26 22  1  1  0  0  0
 26 23  1  0  0  0  0
 27 28  1  0  0  0  0
 29 27  1  0  0  0  0
 29 24  1  0  0  0  0
 30 27  2  0  0  0  0
M  END
>  <MODEL>
3

>  <REMARK>
 VINA RESULT:      -6.4      3.621      7.498
  Name = 
  11 active torsions:
  status: ('A' for Active; 'I' for Inactive)
    1  A    between atoms: C_4  and  S_6
    2  A    between atoms: C_4  and  C_29
    3  A    between atoms: S_6  and  C_27
    4  A    between atoms: C_8  and  N_24
    5  A    between atoms: C_9  and  C_19
    6  A    between atoms: C_11  and  C_23
    7  A    between atoms: S_12  and  C_23
    8  A    between atoms: S_12  and  C_25
    9  A    between atoms: C_19  and  C_30
   10  A    between atoms: C_22  and  C_29
   11  A    between atoms: C_25  and  C_29
                            x       y       z     vdW  Elec       q    Type
                         _______ _______ _______ _____ _____    ______ ____

>  <TORSDO>
F 11

$$$$
=
 OpenBabel11072411023D

 30 31  0  0  1  0  0  0  0  0999 V2000
  161.4830  208.4550  150.5570 C   0  0  2  0  0  3  0  0  0  0  0  0
  161.5050  204.6710  151.1950 C   0  0  0  0  0  2  0  0  0  0  0  0
  160.7910  203.9800  150.0410 C   0  0  1  0  0  3  0  0  0  0  0  0
  161.0620  206.1200  151.3650 C   0  0  0  0  0  2  0  0  0  0  0  0
  161.4670  204.3860  148.7360 C   0  0  0  0  0  2  0  0  0  0  0  0
  160.3870  206.7180  149.0410 C   0  0  0  0  0  2  0  0  0  0  0  0
  161.4080  206.9770  150.1490 C   0  0  1  0  0  3  0  0  0  0  0  0
  160.8170  205.6070  148.0800 C   0  0  0  0  0  2  0  0  0  0  0  0
  160.9000  202.4730  150.2350 C   0  0  0  0  0  2  0  0  0  0  0  0
  161.2750  200.5950  148.7800 O   0  0  0  0  0  1  0  0  0  0  0  0
  159.1210  201.2490  149.1730 O   0  0  0  0  0  1  0  0  0  0  0  0
  160.4360  201.6860  149.0110 C   0  0  0  0  0  3  0  0  0  0  0  0
  162.4640  208.9840  148.4550 O   0  0  0  0  0  0  0  0  0  0  0  0
  161.9870  209.4020  149.5000 C   0  0  0  0  0  0  0  0  0  0  0  0
  161.8780  211.1690  149.7750 S   0  0  0  0  0  0  0  0  0  0  0  0
  163.2740  212.3180  147.7880 N   0  0  0  0  0  1  0  0  0  0  0  0
  162.0580  211.5530  148.0070 C   0  0  2  0  0  3  0  0  0  0  0  0
  160.4640  212.1640  146.3480 O   0  0  0  0  0  0  0  0  0  0  0  0
  160.8760  212.3240  147.5270 C   0  0  0  0  0  0  0  0  0  0  0  0
  160.1840  213.2110  148.4030 N   0  0  0  0  0  1  0  0  0  0  0  0
  162.0810  208.6850  151.9460 C   0  0  0  0  0  2  0  0  0  0  0  0
  161.6890  210.3240  152.6390 S   0  0  0  0  0  0  0  0  0  0  0  0
  159.6610  210.7720  154.4170 C   0  0  0  0  0  2  0  0  0  0  0  0
  160.6360  209.9290  155.2030 C   0  0  2  0  0  0  0  0  0  0  0  0
  161.8950  210.6390  155.6810 C   0  0  0  0  0  1  0  0  0  0  0  0
  160.4050  209.6300  153.7290 C   0  0  2  0  0  3  0  0  0  0  0  0
  160.2460  207.5710  156.0620 C   0  0  0  0  0  0  0  0  0  0  0  0
  161.1390  207.0170  155.1000 N   0  0  0  0  0  1  0  0  0  0  0  0
  160.0020  208.9790  156.1070 N   0  0  0  0  0  2  0  0  0  0  0  0
  159.6680  206.8140  156.8820 O   0  0  0  0  0  0  0  0  0  0  0  0
  1 21  1  1  0  0  0
  2  4  1  0  0  0  0
  3  9  1  1  0  0  0
  3  2  1  0  0  0  0
  5  3  1  0  0  0  0
  6  7  1  0  0  0  0
  7  1  1  1  0  0  0
  7  4  1  0  0  0  0
  8  5  1  0  0  0  0
  8  6  1  0  0  0  0
 10 12  1  0  0  0  0
 12 11  1  0  0  0  0
 12  9  1  0  0  0  0
 13 14  2  0  0  0  0
 14 15  1  0  0  0  0
 14  1  1  0  0  0  0
 17 16  1  1  0  0  0
 17 15  1  0  0  0  0
 18 19  2  0  0  0  0
 19 17  1  0  0  0  0
 19 20  1  0  0  0  0
 21 22  1  0  0  0  0
 23 24  1  0  0  0  0
 24 25  1  1  0  0  0
 24 29  1  0  0  0  0
 26 22  1  6  0  0  0
 26 23  1  0  0  0  0
 26 24  1  0  0  0  0
 27 29  1  0  0  0  0
 27 30  2  0  0  0  0
 28 27  1  0  0  0  0
M  END
>  <MODEL>
4

>  <REMARK>
 VINA RESULT:      -6.4      1.579      6.464
  Name = 
  11 active torsions:
  status: ('A' for Active; 'I' for Inactive)
    1  A    between atoms: C_4  and  S_6
    2  A    between atoms: C_4  and  C_29
    3  A    between atoms: S_6  and  C_27
    4  A    between atoms: C_8  and  N_24
    5  A    between atoms: C_9  and  C_19
    6  A    between atoms: C_11  and  C_23
    7  A    between atoms: S_12  and  C_23
    8  A    between atoms: S_12  and  C_25
    9  A    between atoms: C_19  and  C_30
   10  A    between atoms: C_22  and  C_29
   11  A    between atoms: C_25  and  C_29
                            x       y       z     vdW  Elec       q    Type
                         _______ _______ _______ _____ _____    ______ ____

>  <TORSDO>
F 11

$$$$
=
 OpenBabel11072411023D

 30 31  0  0  1  0  0  0  0  0999 V2000
  161.5810  208.4360  149.7110 C   0  0  2  0  0  3  0  0  0  0  0  0
  161.0020  208.5650  153.5030 C   0  0  0  0  0  2  0  0  0  0  0  0
  160.6880  207.1580  153.9930 C   0  0  1  0  0  3  0  0  0  0  0  0
  160.6710  208.7490  152.0250 C   0  0  0  0  0  2  0  0  0  0  0  0
  161.8260  206.2320  153.5770 C   0  0  0  0  0  2  0  0  0  0  0  0
  160.9420  206.4300  151.1540 C   0  0  0  0  0  2  0  0  0  0  0  0
  161.5140  207.8460  151.1270 C   0  0  1  0  0  3  0  0  0  0  0  0
  161.5790  205.5470  152.2300 C   0  0  0  0  0  2  0  0  0  0  0  0
  160.5730  207.1880  155.5120 C   0  0  0  0  0  2  0  0  0  0  0  0
  160.0120  209.0930  156.8710 O   0  0  0  0  0  1  0  0  0  0  0  0
  162.1690  208.3380  156.9000 O   0  0  0  0  0  1  0  0  0  0  0  0
  161.0320  208.5160  156.1110 C   0  0  0  0  0  3  0  0  0  0  0  0
  162.8710  207.3600  148.0260 O   0  0  0  0  0  0  0  0  0  0  0  0
  161.7930  207.4450  148.5970 C   0  0  0  0  0  0  0  0  0  0  0  0
  160.4490  206.3670  148.1070 S   0  0  0  0  0  0  0  0  0  0  0  0
  160.3700  206.2360  145.4250 N   0  0  0  0  0  1  0  0  0  0  0  0
  161.2500  205.9190  146.5380 C   0  0  2  0  0  3  0  0  0  0  0  0
  162.0050  203.9170  147.5810 O   0  0  0  0  0  0  0  0  0  0  0  0
  161.5830  204.4660  146.5290 C   0  0  0  0  0  0  0  0  0  0  0  0
  161.3920  203.6850  145.3520 N   0  0  0  0  0  1  0  0  0  0  0  0
  162.4400  209.6970  149.6040 C   0  0  0  0  0  2  0  0  0  0  0  0
  161.4630  211.2320  149.5130 S   0  0  0  0  0  0  0  0  0  0  0  0
  163.0800  212.9400  148.1190 C   0  0  0  0  0  2  0  0  0  0  0  0
  161.7560  213.0520  147.4050 C   0  0  2  0  0  0  0  0  0  0  0  0
  160.6760  213.8490  148.1240 C   0  0  0  0  0  1  0  0  0  0  0  0
  162.2170  211.6970  147.9210 C   0  0  2  0  0  3  0  0  0  0  0  0
  160.8750  212.7610  145.0410 C   0  0  0  0  0  0  0  0  0  0  0  0
  159.6910  212.1190  145.5050 N   0  0  0  0  0  1  0  0  0  0  0  0
  161.8730  213.2080  145.9610 N   0  0  0  0  0  2  0  0  0  0  0  0
  161.0430  212.9390  143.8070 O   0  0  0  0  0  0  0  0  0  0  0  0
  1 21  1  1  0  0  0
  2  3  1  0  0  0  0
  3  9  1  1  0  0  0
  4  2  1  0  0  0  0
  5  3  1  0  0  0  0
  6  8  1  0  0  0  0
  7  1  1  6  0  0  0
  7  6  1  0  0  0  0
  7  4  1  0  0  0  0
  8  5  1  0  0  0  0
  9 12  1  0  0  0  0
 12 10  1  0  0  0  0
 12 11  1  0  0  0  0
 13 14  2  0  0  0  0
 14  1  1  0  0  0  0
 15 14  1  0  0  0  0
 17 16  1  6  0  0  0
 17 15  1  0  0  0  0
 19 17  1  0  0  0  0
 19 18  2  0  0  0  0
 20 19  1  0  0  0  0
 22 21  1  0  0  0  0
 24 26  1  0  0  0  0
 24 23  1  0  0  0  0
 24 25  1  1  0  0  0
 26 23  1  0  0  0  0
 26 22  1  1  0  0  0
 27 28  1  0  0  0  0
 27 29  1  0  0  0  0
 29 24  1  0  0  0  0
 30 27  2  0  0  0  0
M  END
>  <MODEL>
5

>  <REMARK>
 VINA RESULT:      -6.3      3.521      5.984
  Name = 
  11 active torsions:
  status: ('A' for Active; 'I' for Inactive)
    1  A    between atoms: C_4  and  S_6
    2  A    between atoms: C_4  and  C_29
    3  A    between atoms: S_6  and  C_27
    4  A    between atoms: C_8  and  N_24
    5  A    between atoms: C_9  and  C_19
    6  A    between atoms: C_11  and  C_23
    7  A    between atoms: S_12  and  C_23
    8  A    between atoms: S_12  and  C_25
    9  A    between atoms: C_19  and  C_30
   10  A    between atoms: C_22  and  C_29
   11  A    between atoms: C_25  and  C_29
                            x       y       z     vdW  Elec       q    Type
                         _______ _______ _______ _____ _____    ______ ____

>  <TORSDO>
F 11

$$$$
=
 OpenBabel11072411023D

 30 31  0  0  1  0  0  0  0  0999 V2000
  161.4460  208.0020  149.9740 C   0  0  2  0  0  3  0  0  0  0  0  0
  161.1850  204.1770  149.8140 C   0  0  0  0  0  2  0  0  0  0  0  0
  160.8530  203.7730  148.3830 C   0  0  1  0  0  3  0  0  0  0  0  0
  160.7430  205.6020  150.1290 C   0  0  0  0  0  2  0  0  0  0  0  0
  161.9130  204.3550  147.4540 C   0  0  0  0  0  2  0  0  0  0  0  0
  160.8430  206.6720  147.8800 C   0  0  0  0  0  2  0  0  0  0  0  0
  161.4700  206.6360  149.2730 C   0  0  1  0  0  3  0  0  0  0  0  0
  161.5280  205.7270  146.8910 C   0  0  0  0  0  2  0  0  0  0  0  0
  160.8640  202.2520  148.2930 C   0  0  0  0  0  2  0  0  0  0  0  0
  159.2300  201.0450  149.5820 O   0  0  0  0  0  1  0  0  0  0  0  0
  161.4400  200.5800  149.9260 O   0  0  0  0  0  1  0  0  0  0  0  0
  160.5180  201.5820  149.6210 C   0  0  0  0  0  3  0  0  0  0  0  0
  162.7160  208.9330  148.1910 O   0  0  0  0  0  0  0  0  0  0  0  0
  162.0960  209.1350  149.2250 C   0  0  0  0  0  0  0  0  0  0  0  0
  161.9510  210.8060  149.8530 S   0  0  0  0  0  0  0  0  0  0  0  0
  163.3830  212.3530  148.1880 N   0  0  0  0  0  1  0  0  0  0  0  0
  162.1730  211.5490  148.2090 C   0  0  2  0  0  3  0  0  0  0  0  0
  160.4740  212.2980  146.7200 O   0  0  0  0  0  0  0  0  0  0  0  0
  160.9930  212.3910  147.8630 C   0  0  0  0  0  0  0  0  0  0  0  0
  160.4240  213.2730  148.8280 N   0  0  0  0  0  1  0  0  0  0  0  0
  161.8040  207.9430  151.4600 C   0  0  0  0  0  2  0  0  0  0  0  0
  160.4550  208.5020  152.5510 S   0  0  0  0  0  0  0  0  0  0  0  0
  160.7070  207.2940  154.9910 C   0  0  0  0  0  2  0  0  0  0  0  0
  160.8150  208.7640  155.3150 C   0  0  2  0  0  0  0  0  0  0  0  0
  159.5140  209.5530  155.2720 C   0  0  0  0  0  1  0  0  0  0  0  0
  161.4590  208.2270  154.0460 C   0  0  2  0  0  3  0  0  0  0  0  0
  162.7220  210.1240  156.2970 C   0  0  0  0  0  0  0  0  0  0  0  0
  162.8010  210.9480  155.1380 N   0  0  0  0  0  1  0  0  0  0  0  0
  161.7630  209.0670  156.3790 N   0  0  0  0  0  2  0  0  0  0  0  0
  163.5030  210.3310  157.2610 O   0  0  0  0  0  0  0  0  0  0  0  0
  1 21  1  1  0  0  0
  2  4  1  0  0  0  0
  3  9  1  1  0  0  0
  3  2  1  0  0  0  0
  5  3  1  0  0  0  0
  6  7  1  0  0  0  0
  7  1  1  1  0  0  0
  7  4  1  0  0  0  0
  8  5  1  0  0  0  0
  8  6  1  0  0  0  0
  9 12  1  0  0  0  0
 10 12  1  0  0  0  0
 12 11  1  0  0  0  0
 13 14  2  0  0  0  0
 14 15  1  0  0  0  0
 14  1  1  0  0  0  0
 17 16  1  1  0  0  0
 17 15  1  0  0  0  0
 18 19  2  0  0  0  0
 19 17  1  0  0  0  0
 19 20  1  0  0  0  0
 21 22  1  0  0  0  0
 23 24  1  0  0  0  0
 24 25  1  6  0  0  0
 24 29  1  0  0  0  0
 26 22  1  6  0  0  0
 26 23  1  0  0  0  0
 26 24  1  0  0  0  0
 27 29  1  0  0  0  0
 27 30  2  0  0  0  0
 28 27  1  0  0  0  0
M  END
>  <MODEL>
6

>  <REMARK>
 VINA RESULT:      -6.3      1.877      6.508
  Name = 
  11 active torsions:
  status: ('A' for Active; 'I' for Inactive)
    1  A    between atoms: C_4  and  S_6
    2  A    between atoms: C_4  and  C_29
    3  A    between atoms: S_6  and  C_27
    4  A    between atoms: C_8  and  N_24
    5  A    between atoms: C_9  and  C_19
    6  A    between atoms: C_11  and  C_23
    7  A    between atoms: S_12  and  C_23
    8  A    between atoms: S_12  and  C_25
    9  A    between atoms: C_19  and  C_30
   10  A    between atoms: C_22  and  C_29
   11  A    between atoms: C_25  and  C_29
                            x       y       z     vdW  Elec       q    Type
                         _______ _______ _______ _____ _____    ______ ____

>  <TORSDO>
F 11

$$$$
=
 OpenBabel11072411023D

 30 31  0  0  1  0  0  0  0  0999 V2000
  161.8850  206.2400  150.5800 C   0  0  2  0  0  3  0  0  0  0  0  0
  160.7750  207.1730  154.1320 C   0  0  0  0  0  2  0  0  0  0  0  0
  160.9800  208.6690  154.3270 C   0  0  1  0  0  3  0  0  0  0  0  0
  161.6860  206.6010  153.0510 C   0  0  0  0  0  2  0  0  0  0  0  0
  160.2210  209.4120  153.2320 C   0  0  0  0  0  2  0  0  0  0  0  0
  162.0320  208.5830  151.5800 C   0  0  0  0  0  2  0  0  0  0  0  0
  161.3960  207.1970  151.6760 C   0  0  1  0  0  3  0  0  0  0  0  0
  161.0820  209.7070  152.0010 C   0  0  0  0  0  2  0  0  0  0  0  0
  160.4320  209.0600  155.6940 C   0  0  0  0  0  2  0  0  0  0  0  0
  162.4570  208.9090  156.9840 O   0  0  0  0  0  1  0  0  0  0  0  0
  162.0370  210.8480  155.8490 O   0  0  0  0  0  1  0  0  0  0  0  0
  161.4630  209.7890  156.5540 C   0  0  0  0  0  3  0  0  0  0  0  0
  160.0730  206.1910  149.0380 O   0  0  0  0  0  0  0  0  0  0  0  0
  161.2590  206.4230  149.2220 C   0  0  0  0  0  0  0  0  0  0  0  0
  162.2660  206.9980  147.8570 S   0  0  0  0  0  0  0  0  0  0  0  0
  163.2810  204.9050  146.5130 N   0  0  0  0  0  1  0  0  0  0  0  0
  162.0010  205.4790  146.8930 C   0  0  2  0  0  3  0  0  0  0  0  0
  160.1980  206.5460  145.7630 O   0  0  0  0  0  0  0  0  0  0  0  0
  161.1930  205.7790  145.6770 C   0  0  0  0  0  0  0  0  0  0  0  0
  161.5580  205.2350  144.4110 N   0  0  0  0  0  1  0  0  0  0  0  0
  161.9930  204.7820  151.0310 C   0  0  0  0  0  2  0  0  0  0  0  0
  160.4920  203.8070  150.6890 S   0  0  0  0  0  0  0  0  0  0  0  0
  160.6990  202.9670  148.0960 C   0  0  0  0  0  2  0  0  0  0  0  0
  160.4860  201.6850  148.8630 C   0  0  2  0  0  0  0  0  0  0  0  0
  159.0700  201.4370  149.3650 C   0  0  0  0  0  1  0  0  0  0  0  0
  161.3580  202.7790  149.4600 C   0  0  2  0  0  3  0  0  0  0  0  0
  161.2640  200.2030  146.9520 C   0  0  0  0  0  0  0  0  0  0  0  0
  160.5380  200.9680  145.9950 N   0  0  0  0  0  1  0  0  0  0  0  0
  161.2340  200.5500  148.3390 N   0  0  0  0  0  2  0  0  0  0  0  0
  161.9410  199.2140  146.5740 O   0  0  0  0  0  0  0  0  0  0  0  0
  1 21  1  1  0  0  0
  2  3  1  0  0  0  0
  3  9  1  1  0  0  0
  4  2  1  0  0  0  0
  5  3  1  0  0  0  0
  6  7  1  0  0  0  0
  6  8  1  0  0  0  0
  7  1  1  6  0  0  0
  7  4  1  0  0  0  0
  8  5  1  0  0  0  0
  9 12  1  0  0  0  0
 11 12  1  0  0  0  0
 12 10  1  0  0  0  0
 13 14  2  0  0  0  0
 14  1  1  0  0  0  0
 15 14  1  0  0  0  0
 17 16  1  6  0  0  0
 17 15  1  0  0  0  0
 19 18  2  0  0  0  0
 19 17  1  0  0  0  0
 20 19  1  0  0  0  0
 22 21  1  0  0  0  0
 23 24  1  0  0  0  0
 23 26  1  0  0  0  0
 24 25  1  1  0  0  0
 24 26  1  0  0  0  0
 26 22  1  1  0  0  0
 27 29  1  0  0  0  0
 28 27  1  0  0  0  0
 29 24  1  0  0  0  0
 30 27  2  0  0  0  0
M  END
>  <MODEL>
7

>  <REMARK>
 VINA RESULT:      -6.1      4.905      9.060
  Name = 
  11 active torsions:
  status: ('A' for Active; 'I' for Inactive)
    1  A    between atoms: C_4  and  S_6
    2  A    between atoms: C_4  and  C_29
    3  A    between atoms: S_6  and  C_27
    4  A    between atoms: C_8  and  N_24
    5  A    between atoms: C_9  and  C_19
    6  A    between atoms: C_11  and  C_23
    7  A    between atoms: S_12  and  C_23
    8  A    between atoms: S_12  and  C_25
    9  A    between atoms: C_19  and  C_30
   10  A    between atoms: C_22  and  C_29
   11  A    between atoms: C_25  and  C_29
                            x       y       z     vdW  Elec       q    Type
                         _______ _______ _______ _____ _____    ______ ____

>  <TORSDO>
F 11

$$$$
=
 OpenBabel11072411023D

 30 31  0  0  1  0  0  0  0  0999 V2000
  161.0000  208.7220  151.5720 C   0  0  2  0  0  3  0  0  0  0  0  0
  160.5840  205.6830  149.2650 C   0  0  0  0  0  2  0  0  0  0  0  0
  161.2460  204.4810  149.9240 C   0  0  1  0  0  3  0  0  0  0  0  0
  161.1680  207.0050  149.7550 C   0  0  0  0  0  2  0  0  0  0  0  0
  160.6380  204.2870  151.3090 C   0  0  0  0  0  2  0  0  0  0  0  0
  161.9420  206.3970  152.0450 C   0  0  0  0  0  2  0  0  0  0  0  0
  160.9330  207.2230  151.2480 C   0  0  1  0  0  3  0  0  0  0  0  0
  161.4210  205.0060  152.4120 C   0  0  0  0  0  2  0  0  0  0  0  0
  160.9820  203.2500  149.0640 C   0  0  0  0  0  2  0  0  0  0  0  0
  159.3210  201.5130  149.1590 O   0  0  0  0  0  1  0  0  0  0  0  0
  161.3460  201.1310  150.1470 O   0  0  0  0  0  1  0  0  0  0  0  0
  160.3780  202.0950  149.8600 C   0  0  0  0  0  3  0  0  0  0  0  0
  163.0230  209.9650  151.4160 O   0  0  0  0  0  0  0  0  0  0  0  0
  162.0530  209.5060  150.8320 C   0  0  0  0  0  0  0  0  0  0  0  0
  161.8840  209.7610  149.0670 S   0  0  0  0  0  0  0  0  0  0  0  0
  160.9570  212.1300  149.9310 N   0  0  0  0  0  1  0  0  0  0  0  0
  162.0840  211.5630  149.2100 C   0  0  2  0  0  3  0  0  0  0  0  0
  161.1710  212.2150  147.1110 O   0  0  0  0  0  0  0  0  0  0  0  0
  162.1850  212.1760  147.8550 C   0  0  0  0  0  0  0  0  0  0  0  0
  163.4110  212.7530  147.4090 N   0  0  0  0  0  1  0  0  0  0  0  0
  160.9130  209.0380  153.0650 C   0  0  0  0  0  2  0  0  0  0  0  0
  160.8290  210.8230  153.4220 S   0  0  0  0  0  0  0  0  0  0  0  0
  158.4860  211.8750  152.4830 C   0  0  0  0  0  2  0  0  0  0  0  0
  158.3920  212.0870  153.9740 C   0  0  2  0  0  0  0  0  0  0  0  0
  159.2560  213.2030  154.5450 C   0  0  0  0  0  1  0  0  0  0  0  0
  159.0070  210.8030  153.4370 C   0  0  2  0  0  3  0  0  0  0  0  0
  156.7850  211.6100  155.8830 C   0  0  0  0  0  0  0  0  0  0  0  0
  157.8530  211.4390  156.8090 N   0  0  0  0  0  1  0  0  0  0  0  0
  157.0480  211.9200  154.5120 N   0  0  0  0  0  2  0  0  0  0  0  0
  155.5970  211.4900  156.2760 O   0  0  0  0  0  0  0  0  0  0  0  0
  1 21  1  1  0  0  0
  2  4  1  0  0  0  0
  2  3  1  0  0  0  0
  3  9  1  6  0  0  0
  3  5  1  0  0  0  0
  4  7  1  0  0  0  0
  5  8  1  0  0  0  0
  6  8  1  0  0  0  0
  7  1  1  6  0  0  0
  7  6  1  0  0  0  0
  9 12  1  0  0  0  0
 10 12  1  0  0  0  0
 12 11  1  0  0  0  0
 14 13  2  0  0  0  0
 14  1  1  0  0  0  0
 15 17  1  0  0  0  0
 15 14  1  0  0  0  0
 17 16  1  6  0  0  0
 18 19  2  0  0  0  0
 19 17  1  0  0  0  0
 20 19  1  0  0  0  0
 21 22  1  0  0  0  0
 23 26  1  0  0  0  0
 23 24  1  0  0  0  0
 24 29  1  0  0  0  0
 24 25  1  1  0  0  0
 26 22  1  6  0  0  0
 26 24  1  0  0  0  0
 27 30  2  0  0  0  0
 27 28  1  0  0  0  0
 29 27  1  0  0  0  0
M  END
>  <MODEL>
8

>  <REMARK>
 VINA RESULT:      -5.9      2.501      5.783
  Name = 
  11 active torsions:
  status: ('A' for Active; 'I' for Inactive)
    1  A    between atoms: C_4  and  S_6
    2  A    between atoms: C_4  and  C_29
    3  A    between atoms: S_6  and  C_27
    4  A    between atoms: C_8  and  N_24
    5  A    between atoms: C_9  and  C_19
    6  A    between atoms: C_11  and  C_23
    7  A    between atoms: S_12  and  C_23
    8  A    between atoms: S_12  and  C_25
    9  A    between atoms: C_19  and  C_30
   10  A    between atoms: C_22  and  C_29
   11  A    between atoms: C_25  and  C_29
                            x       y       z     vdW  Elec       q    Type
                         _______ _______ _______ _____ _____    ______ ____

>  <TORSDO>
F 11

$$$$
=
 OpenBabel11072411023D

 30 31  0  0  1  0  0  0  0  0999 V2000
  160.9540  205.7240  151.0650 C   0  0  2  0  0  3  0  0  0  0  0  0
  160.9480  203.5790  147.8830 C   0  0  0  0  0  2  0  0  0  0  0  0
  161.2320  202.1340  148.2730 C   0  0  1  0  0  3  0  0  0  0  0  0
  161.4920  204.5700  148.9070 C   0  0  0  0  0  2  0  0  0  0  0  0
  160.2020  201.6970  149.3090 C   0  0  0  0  0  2  0  0  0  0  0  0
  161.4350  203.2180  151.0000 C   0  0  0  0  0  2  0  0  0  0  0  0
  160.8260  204.4150  150.2730 C   0  0  1  0  0  3  0  0  0  0  0  0
  160.6730  201.9150  150.7500 C   0  0  0  0  0  2  0  0  0  0  0  0
  161.1160  201.2640  147.0270 C   0  0  0  0  0  2  0  0  0  0  0  0
  161.3530  202.9020  145.2810 O   0  0  0  0  0  1  0  0  0  0  0  0
  160.0140  201.0910  144.8930 O   0  0  0  0  0  1  0  0  0  0  0  0
  160.4610  201.9960  145.8570 C   0  0  0  0  0  3  0  0  0  0  0  0
  160.4710  207.2630  149.3160 O   0  0  0  0  0  0  0  0  0  0  0  0
  161.2030  206.9640  150.2470 C   0  0  0  0  0  0  0  0  0  0  0  0
  162.5910  208.0230  150.6520 S   0  0  0  0  0  0  0  0  0  0  0  0
  162.1080  210.4120  149.5220 N   0  0  0  0  0  1  0  0  0  0  0  0
  161.5880  209.5370  150.5590 C   0  0  2  0  0  3  0  0  0  0  0  0
  162.6610  210.2870  152.5470 O   0  0  0  0  0  0  0  0  0  0  0  0
  161.5980  210.2390  151.8740 C   0  0  0  0  0  0  0  0  0  0  0  0
  160.4260  210.8900  152.3570 N   0  0  0  0  0  1  0  0  0  0  0  0
  161.8260  205.6090  152.3160 C   0  0  0  0  0  2  0  0  0  0  0  0
  160.8670  205.5640  153.8650 S   0  0  0  0  0  0  0  0  0  0  0  0
  161.7950  207.8800  154.9820 C   0  0  0  0  0  2  0  0  0  0  0  0
  160.3200  207.9070  155.2970 C   0  0  2  0  0  0  0  0  0  0  0  0
  159.8570  206.9620  156.3990 C   0  0  0  0  0  1  0  0  0  0  0  0
  160.7880  207.3820  153.9480 C   0  0  2  0  0  3  0  0  0  0  0  0
  160.0270  210.2680  156.1860 C   0  0  0  0  0  0  0  0  0  0  0  0
  160.9390  210.0350  157.2550 N   0  0  0  0  0  1  0  0  0  0  0  0
  159.7260  209.2360  155.2430 N   0  0  0  0  0  2  0  0  0  0  0  0
  159.4810  211.3950  156.0690 O   0  0  0  0  0  0  0  0  0  0  0  0
  1 21  1  1  0  0  0
  2  3  1  0  0  0  0
  2  4  1  0  0  0  0
  3  9  1  6  0  0  0
  3  5  1  0  0  0  0
  4  7  1  0  0  0  0
  5  8  1  0  0  0  0
  7  6  1  0  0  0  0
  7  1  1  1  0  0  0
  8  6  1  0  0  0  0
 10 12  1  0  0  0  0
 11 12  1  0  0  0  0
 12  9  1  0  0  0  0
 13 14  2  0  0  0  0
 14 15  1  0  0  0  0
 14  1  1  0  0  0  0
 17 16  1  6  0  0  0
 17 15  1  0  0  0  0
 17 19  1  0  0  0  0
 19 20  1  0  0  0  0
 19 18  2  0  0  0  0
 21 22  1  0  0  0  0
 23 24  1  0  0  0  0
 24 25  1  1  0  0  0
 26 22  1  1  0  0  0
 26 23  1  0  0  0  0
 26 24  1  0  0  0  0
 27 28  1  0  0  0  0
 29 24  1  0  0  0  0
 29 27  1  0  0  0  0
 30 27  2  0  0  0  0
M  END
>  <MODEL>
9

>  <REMARK>
 VINA RESULT:      -5.8      3.267      6.137
  Name = 
  11 active torsions:
  status: ('A' for Active; 'I' for Inactive)
    1  A    between atoms: C_4  and  S_6
    2  A    between atoms: C_4  and  C_29
    3  A    between atoms: S_6  and  C_27
    4  A    between atoms: C_8  and  N_24
    5  A    between atoms: C_9  and  C_19
    6  A    between atoms: C_11  and  C_23
    7  A    between atoms: S_12  and  C_23
    8  A    between atoms: S_12  and  C_25
    9  A    between atoms: C_19  and  C_30
   10  A    between atoms: C_22  and  C_29
   11  A    between atoms: C_25  and  C_29
                            x       y       z     vdW  Elec       q    Type
                         _______ _______ _______ _____ _____    ______ ____

>  <TORSDO>
F 11

$$$$
