=
 OpenBabel11072414473D

 45 50  0  0  1  0  0  0  0  0999 V2000
  160.6530  211.0560  153.6210 C   0  0  0  0  0  0  0  0  0  0  0  0
  160.0820  212.2700  154.1490 N   0  0  0  0  0  0  0  0  0  0  0  0
  161.8260  210.7160  153.9380 O   0  0  0  0  0  0  0  0  0  0  0  0
  157.4240  213.8910  151.8630 C   0  0  1  0  0  3  0  0  0  0  0  0
  158.0170  212.8370  152.8110 C   0  0  1  0  0  3  0  0  0  0  0  0
  159.4650  213.2010  153.1880 C   0  0  2  0  0  3  0  0  0  0  0  0
  159.6440  214.2790  150.9270 C   0  0  0  0  0  3  0  0  0  0  0  0
  160.3200  213.3780  151.9260 C   0  0  0  0  0  2  0  0  0  0  0  0
  158.3660  214.4460  150.8970 N   0  0  0  0  0  0  0  0  0  0  0  0
  156.0040  213.2500  150.9920 Cl  0  0  0  0  0  0  0  0  0  0  0  0
  156.7320  211.4010  154.4100 C   0  0  0  0  0  3  0  0  0  0  0  0
  156.6840  213.7980  154.7590 C   0  0  0  0  0  3  0  0  0  0  0  0
  155.9610  211.2180  155.5640 C   0  0  0  0  0  3  0  0  0  0  0  0
  155.9240  213.6140  155.9210 C   0  0  0  0  0  3  0  0  0  0  0  0
  155.5670  212.3220  156.3270 C   0  0  0  0  0  3  0  0  0  0  0  0
  157.1240  212.6860  154.0180 C   0  0  0  0  0  0  0  0  0  0  0  0
  160.0790  212.5570  155.5930 C   0  0  1  0  0  3  0  0  0  0  0  0
  159.6070  213.9900  155.8720 C   0  0  0  0  0  1  0  0  0  0  0  0
  159.2190  211.5250  156.3350 C   0  0  0  0  0  2  0  0  0  0  0  0
  160.0570  210.4470  157.0050 C   0  0  0  0  0  2  0  0  0  0  0  0
  159.8400  209.2340  156.3400 O   0  0  0  0  0  0  0  0  0  0  0  0
  160.2910  206.9720  156.9680 C   0  0  0  0  0  1  0  0  0  0  0  0
  160.8520  208.3720  156.7700 C   0  0  0  0  0  2  0  0  0  0  0  0
  159.8660  210.1860  152.6800 C   0  0  0  0  0  2  0  0  0  0  0  0
  160.7470  209.0890  152.0810 C   0  0  0  0  0  2  0  0  0  0  0  0
  161.3960  209.6100  150.8820 N   0  0  0  0  0  2  0  0  0  0  0  0
  162.0050  208.6100  148.7700 N   0  0  0  0  0  2  0  0  0  0  0  0
  162.1400  208.5280  150.2390 C   0  0  2  0  0  3  0  0  0  0  0  0
  161.2140  207.6290  149.5330 C   0  0  2  0  0  3  0  0  0  0  0  0
  161.7780  206.2000  149.3050 C   0  0  0  0  0  2  0  0  0  0  0  0
  160.8170  203.8700  149.3810 C   0  0  0  0  0  0  0  0  0  0  0  0
  161.0630  205.1320  150.0220 N   0  0  0  0  0  0  0  0  0  0  0  0
  159.7330  203.2610  149.6080 O   0  0  0  0  0  0  0  0  0  0  0  0
  160.6050  205.3390  151.3880 C   0  0  0  0  0  1  0  0  0  0  0  0
  161.2510  202.1010  147.6110 C   0  0  0  0  0  0  0  0  0  0  0  0
  160.6880  200.8390  148.2510 C   0  0  0  0  0  2  0  0  0  0  0  0
  162.4870  204.3240  147.5510 C   0  0  0  0  0  3  0  0  0  0  0  0
  162.1140  200.8600  147.7570 C   0  0  0  0  0  2  0  0  0  0  0  0
  160.2280  203.9010  144.5350 C   0  0  0  0  0  2  0  0  0  0  0  0
  159.4660  202.5720  144.4120 C   0  0  0  0  0  2  0  0  0  0  0  0
  160.7270  203.8350  145.9480 C   0  0  2  0  0  3  0  0  0  0  0  0
  161.9470  204.6140  146.3450 C   0  0  0  0  0  3  0  0  0  0  0  0
  159.8730  201.6920  145.5210 N   0  0  0  0  0  2  0  0  0  0  0  0
  161.8570  203.2620  148.4580 C   0  0  1  0  0  3  0  0  0  0  0  0
  161.0100  202.3750  146.1190 C   0  0  2  0  0  3  0  0  0  0  0  0
  1  3  2  0  0  0  0
  1  2  1  0  0  0  0
  2 17  1  0  0  0  0
  4 10  1  6  0  0  0
  4  5  1  0  0  0  0
  5  6  1  0  0  0  0
  5 16  1  1  0  0  0
  6  2  1  1  0  0  0
  7  8  1  0  0  0  0
  8  6  1  0  0  0  0
  9  7  2  0  0  0  0
  9  4  1  0  0  0  0
 11 13  1  0  0  0  0
 12 14  2  0  0  0  0
 13 15  2  0  0  0  0
 14 15  1  0  0  0  0
 16 11  2  0  0  0  0
 16 12  1  0  0  0  0
 17 18  1  6  0  0  0
 17 19  1  0  0  0  0
 19 20  1  0  0  0  0
 21 23  1  0  0  0  0
 21 20  1  0  0  0  0
 23 22  1  0  0  0  0
 24  1  1  0  0  0  0
 25 24  1  0  0  0  0
 26 25  1  0  0  0  0
 27 29  1  0  0  0  0
 27 28  1  0  0  0  0
 28 26  1  1  0  0  0
 29 30  1  6  0  0  0
 29 28  1  0  0  0  0
 30 32  1  0  0  0  0
 31 33  2  0  0  0  0
 31 32  1  0  0  0  0
 32 34  1  0  0  0  0
 35 38  1  0  0  0  0
 35 36  1  0  0  0  0
 35 44  1  0  0  0  0
 37 44  1  0  0  0  0
 38 36  1  0  0  0  0
 40 39  1  0  0  0  0
 40 43  1  0  0  0  0
 41 39  1  6  0  0  0
 41 45  1  0  0  0  0
 41 42  1  0  0  0  0
 42 37  2  0  0  0  0
 44 31  1  6  0  0  0
 45 43  1  1  0  0  0
 45 35  1  0  0  0  0
M  END
>  <MODEL>
1

>  <REMARK>
 VINA RESULT:      -4.8      0.000      0.000
  Name = 
  14 active torsions:
  status: ('A' for Active; 'I' for Inactive)
    1  A    between atoms: C_5  and  C_11
    2  A    between atoms: C_5  and  N_25
    3  A    between atoms: C_8  and  C_41
    4  A    between atoms: N_9  and  C_20
    5  A    between atoms: N_9  and  C_22
    6  A    between atoms: C_11  and  C_43
    7  A    between atoms: C_12  and  C_36
    8  A    between atoms: C_13  and  N_25
    9  A    between atoms: O_18  and  C_37
   10  A    between atoms: O_18  and  C_43
   11  A    between atoms: C_19  and  C_42
   12  A    between atoms: C_21  and  N_26
   13  A    between atoms: C_21  and  C_39
   14  A    between atoms: C_22  and  C_42
                            x       y       z     vdW  Elec       q    Type
                         _______ _______ _______ _____ _____    ______ ____

>  <TORSDO>
F 14

$$$$
=
 OpenBabel11072414473D

 45 50  0  0  1  0  0  0  0  0999 V2000
  160.8810  207.6740  152.4340 C   0  0  0  0  0  0  0  0  0  0  0  0
  161.0900  208.9140  153.1370 N   0  0  0  0  0  0  0  0  0  0  0  0
  160.4320  207.6790  151.2540 O   0  0  0  0  0  0  0  0  0  0  0  0
  159.6840  210.5130  156.3600 C   0  0  1  0  0  3  0  0  0  0  0  0
  160.3400  210.4800  154.9700 C   0  0  1  0  0  3  0  0  0  0  0  0
  160.5250  209.0280  154.4930 C   0  0  2  0  0  3  0  0  0  0  0  0
  160.7810  208.4040  156.9120 C   0  0  0  0  0  3  0  0  0  0  0  0
  161.3310  208.2240  155.5230 C   0  0  0  0  0  2  0  0  0  0  0  0
  160.1020  209.4430  157.2600 N   0  0  0  0  0  0  0  0  0  0  0  0
  159.9480  212.0870  157.1600 Cl  0  0  0  0  0  0  0  0  0  0  0  0
  158.1290  211.1640  154.0130 C   0  0  0  0  0  3  0  0  0  0  0  0
  160.1200  212.2150  153.1160 C   0  0  0  0  0  3  0  0  0  0  0  0
  157.3350  211.9630  153.1830 C   0  0  0  0  0  3  0  0  0  0  0  0
  159.3240  213.0230  152.2950 C   0  0  0  0  0  3  0  0  0  0  0  0
  157.9300  212.9010  152.3330 C   0  0  0  0  0  3  0  0  0  0  0  0
  159.5220  211.3060  154.0080 C   0  0  0  0  0  0  0  0  0  0  0  0
  161.8680  210.0150  152.5450 C   0  0  1  0  0  3  0  0  0  0  0  0
  163.1700  210.2550  153.3200 C   0  0  0  0  0  1  0  0  0  0  0  0
  162.1380  209.7330  151.0600 C   0  0  0  0  0  2  0  0  0  0  0  0
  162.0540  210.9880  150.2070 C   0  0  0  0  0  2  0  0  0  0  0  0
  162.1980  210.6250  148.8620 O   0  0  0  0  0  0  0  0  0  0  0  0
  161.2020  212.7750  148.5470 C   0  0  0  0  0  1  0  0  0  0  0  0
  162.3190  211.8210  148.1510 C   0  0  0  0  0  2  0  0  0  0  0  0
  161.1830  206.3580  153.0970 C   0  0  0  0  0  2  0  0  0  0  0  0
  161.8930  205.4080  152.1320 C   0  0  0  0  0  2  0  0  0  0  0  0
  161.0950  204.1930  151.9960 N   0  0  0  0  0  2  0  0  0  0  0  0
  160.1530  202.7480  150.3050 N   0  0  0  0  0  2  0  0  0  0  0  0
  160.5550  204.1310  150.6390 C   0  0  2  0  0  3  0  0  0  0  0  0
  161.4200  203.2970  149.7900 C   0  0  2  0  0  3  0  0  0  0  0  0
  161.2880  203.5990  148.2720 C   0  0  0  0  0  2  0  0  0  0  0  0
  161.1720  202.5560  145.9800 C   0  0  0  0  0  0  0  0  0  0  0  0
  161.2430  202.4100  147.4070 N   0  0  0  0  0  0  0  0  0  0  0  0
  160.4840  201.7360  145.3080 O   0  0  0  0  0  0  0  0  0  0  0  0
  161.2790  201.0750  147.9860 C   0  0  0  0  0  1  0  0  0  0  0  0
  161.1050  204.9920  145.2640 C   0  0  0  0  0  0  0  0  0  0  0  0
  159.7600  205.0980  144.5560 C   0  0  0  0  0  2  0  0  0  0  0  0
  163.3030  203.8960  145.9250 C   0  0  0  0  0  3  0  0  0  0  0  0
  161.0210  205.5210  143.8430 C   0  0  0  0  0  2  0  0  0  0  0  0
  162.3500  206.6720  148.3260 C   0  0  0  0  0  2  0  0  0  0  0  0
  161.0710  207.4630  148.0090 C   0  0  0  0  0  2  0  0  0  0  0  0
  162.2240  205.5040  147.3930 C   0  0  2  0  0  3  0  0  0  0  0  0
  163.4540  204.7710  146.9460 C   0  0  0  0  0  3  0  0  0  0  0  0
  160.5220  206.9780  146.7320 N   0  0  0  0  0  2  0  0  0  0  0  0
  161.9310  203.6690  145.2830 C   0  0  1  0  0  3  0  0  0  0  0  0
  161.5690  206.1210  146.1960 C   0  0  2  0  0  3  0  0  0  0  0  0
  1 24  1  0  0  0  0
  1  2  1  0  0  0  0
  3  1  2  0  0  0  0
  4 10  1  1  0  0  0
  4  9  1  0  0  0  0
  5 16  1  6  0  0  0
  5  4  1  0  0  0  0
  6  2  1  6  0  0  0
  6  5  1  0  0  0  0
  6  8  1  0  0  0  0
  7  9  2  0  0  0  0
  8  7  1  0  0  0  0
 12 16  2  0  0  0  0
 13 11  2  0  0  0  0
 14 15  2  0  0  0  0
 14 12  1  0  0  0  0
 15 13  1  0  0  0  0
 16 11  1  0  0  0  0
 17  2  1  0  0  0  0
 17 18  1  1  0  0  0
 19 17  1  0  0  0  0
 20 19  1  0  0  0  0
 21 20  1  0  0  0  0
 23 22  1  0  0  0  0
 23 21  1  0  0  0  0
 25 24  1  0  0  0  0
 26 25  1  0  0  0  0
 27 28  1  0  0  0  0
 28 26  1  1  0  0  0
 29 30  1  6  0  0  0
 29 27  1  0  0  0  0
 29 28  1  0  0  0  0
 31 32  1  0  0  0  0
 32 34  1  0  0  0  0
 32 30  1  0  0  0  0
 33 31  2  0  0  0  0
 35 44  1  0  0  0  0
 35 45  1  0  0  0  0
 36 35  1  0  0  0  0
 37 42  2  0  0  0  0
 38 36  1  0  0  0  0
 38 35  1  0  0  0  0
 40 39  1  0  0  0  0
 41 42  1  6  0  0  0
 41 39  1  0  0  0  0
 43 40  1  0  0  0  0
 44 37  1  0  0  0  0
 44 31  1  1  0  0  0
 45 43  1  1  0  0  0
 45 41  1  0  0  0  0
M  END
>  <MODEL>
2

>  <REMARK>
 VINA RESULT:      -3.9      2.603      5.340
  Name = 
  14 active torsions:
  status: ('A' for Active; 'I' for Inactive)
    1  A    between atoms: C_5  and  C_11
    2  A    between atoms: C_5  and  N_25
    3  A    between atoms: C_8  and  C_41
    4  A    between atoms: N_9  and  C_20
    5  A    between atoms: N_9  and  C_22
    6  A    between atoms: C_11  and  C_43
    7  A    between atoms: C_12  and  C_36
    8  A    between atoms: C_13  and  N_25
    9  A    between atoms: O_18  and  C_37
   10  A    between atoms: O_18  and  C_43
   11  A    between atoms: C_19  and  C_42
   12  A    between atoms: C_21  and  N_26
   13  A    between atoms: C_21  and  C_39
   14  A    between atoms: C_22  and  C_42
                            x       y       z     vdW  Elec       q    Type
                         _______ _______ _______ _____ _____    ______ ____

>  <TORSDO>
F 14

$$$$
=
 OpenBabel11072414473D

 45 50  0  0  1  0  0  0  0  0999 V2000
  160.8130  205.8410  145.4980 C   0  0  0  0  0  0  0  0  0  0  0  0
  161.4560  204.9640  146.4430 N   0  0  0  0  0  0  0  0  0  0  0  0
  160.5440  207.0330  145.8170 O   0  0  0  0  0  0  0  0  0  0  0  0
  160.5720  201.6150  148.1510 C   0  0  1  0  0  3  0  0  0  0  0  0
  161.3010  202.9550  147.9640 C   0  0  1  0  0  3  0  0  0  0  0  0
  160.8490  203.6400  146.6610 C   0  0  2  0  0  3  0  0  0  0  0  0
  160.4920  201.3360  145.7280 C   0  0  0  0  0  3  0  0  0  0  0  0
  161.0590  202.7050  145.4630 C   0  0  0  0  0  2  0  0  0  0  0  0
  160.3340  200.8690  146.9190 N   0  0  0  0  0  0  0  0  0  0  0  0
  161.4350  200.5670  149.3100 Cl  0  0  0  0  0  0  0  0  0  0  0  0
  161.6280  203.4160  150.4040 C   0  0  0  0  0  3  0  0  0  0  0  0
  160.3520  205.0220  149.1140 C   0  0  0  0  0  3  0  0  0  0  0  0
  161.5030  204.2280  151.5370 C   0  0  0  0  0  3  0  0  0  0  0  0
  160.2390  205.8400  150.2450 C   0  0  0  0  0  3  0  0  0  0  0  0
  160.8200  205.4450  151.4560 C   0  0  0  0  0  3  0  0  0  0  0  0
  161.0820  203.8210  149.1800 C   0  0  0  0  0  0  0  0  0  0  0  0
  162.6930  205.3550  147.1400 C   0  0  1  0  0  3  0  0  0  0  0  0
  163.9210  204.6850  146.5100 C   0  0  0  0  0  1  0  0  0  0  0  0
  162.8310  206.8840  147.1550 C   0  0  0  0  0  2  0  0  0  0  0  0
  162.7760  207.4570  148.5620 C   0  0  0  0  0  2  0  0  0  0  0  0
  161.6450  208.2750  148.6690 O   0  0  0  0  0  0  0  0  0  0  0  0
  161.9510  209.1430  150.8750 C   0  0  0  0  0  1  0  0  0  0  0  0
  162.0520  209.4060  149.3800 C   0  0  0  0  0  2  0  0  0  0  0  0
  160.4420  205.3490  144.1260 C   0  0  0  0  0  2  0  0  0  0  0  0
  161.6370  205.4230  143.1760 C   0  0  0  0  0  2  0  0  0  0  0  0
  161.6110  206.7100  142.4870 N   0  0  0  0  0  2  0  0  0  0  0  0
  162.9150  206.8650  140.4610 N   0  0  0  0  0  2  0  0  0  0  0  0
  161.6140  206.4760  141.0450 C   0  0  2  0  0  3  0  0  0  0  0  0
  161.7470  207.7530  140.3270 C   0  0  2  0  0  3  0  0  0  0  0  0
  161.2140  207.7120  138.8690 C   0  0  0  0  0  2  0  0  0  0  0  0
  160.3320  209.9350  138.0740 C   0  0  0  0  0  0  0  0  0  0  0  0
  161.3860  208.9620  138.1120 N   0  0  0  0  0  0  0  0  0  0  0  0
  160.1310  210.5900  137.0110 O   0  0  0  0  0  0  0  0  0  0  0  0
  162.6290  209.2280  137.4020 C   0  0  0  0  0  1  0  0  0  0  0  0
  159.5990  211.6740  139.7740 C   0  0  0  0  0  0  0  0  0  0  0  0
  160.9220  212.2750  140.2330 C   0  0  0  0  0  2  0  0  0  0  0  0
  158.0140  209.8200  139.0530 C   0  0  0  0  0  3  0  0  0  0  0  0
  159.9580  211.7130  141.2490 C   0  0  0  0  0  2  0  0  0  0  0  0
  156.7330  213.2340  138.0130 C   0  0  0  0  0  2  0  0  0  0  0  0
  157.5650  214.4530  138.4400 C   0  0  0  0  0  2  0  0  0  0  0  0
  157.6790  212.1060  138.2990 C   0  0  2  0  0  3  0  0  0  0  0  0
  157.1420  210.7300  138.5630 C   0  0  0  0  0  3  0  0  0  0  0  0
  158.6920  213.9890  139.2660 N   0  0  0  0  0  2  0  0  0  0  0  0
  159.4790  210.1930  139.3020 C   0  0  1  0  0  3  0  0  0  0  0  0
  158.3910  212.5890  139.5250 C   0  0  2  0  0  3  0  0  0  0  0  0
  1  3  2  0  0  0  0
  1  2  1  0  0  0  0
  2 17  1  0  0  0  0
  4 10  1  1  0  0  0
  5  4  1  0  0  0  0
  5 16  1  1  0  0  0
  6  2  1  6  0  0  0
  6  5  1  0  0  0  0
  7  9  2  0  0  0  0
  8  7  1  0  0  0  0
  8  6  1  0  0  0  0
  9  4  1  0  0  0  0
 11 13  1  0  0  0  0
 12 16  1  0  0  0  0
 12 14  2  0  0  0  0
 14 15  1  0  0  0  0
 15 13  2  0  0  0  0
 16 11  2  0  0  0  0
 17 18  1  6  0  0  0
 17 19  1  0  0  0  0
 19 20  1  0  0  0  0
 20 21  1  0  0  0  0
 21 23  1  0  0  0  0
 23 22  1  0  0  0  0
 24  1  1  0  0  0  0
 25 24  1  0  0  0  0
 26 25  1  0  0  0  0
 27 28  1  0  0  0  0
 28 26  1  1  0  0  0
 29 30  1  6  0  0  0
 29 27  1  0  0  0  0
 29 28  1  0  0  0  0
 31 32  1  0  0  0  0
 32 30  1  0  0  0  0
 33 31  2  0  0  0  0
 34 32  1  0  0  0  0
 35 36  1  0  0  0  0
 35 38  1  0  0  0  0
 36 38  1  0  0  0  0
 37 44  1  0  0  0  0
 39 40  1  0  0  0  0
 40 43  1  0  0  0  0
 41 39  1  1  0  0  0
 41 42  1  0  0  0  0
 41 45  1  0  0  0  0
 42 37  2  0  0  0  0
 44 31  1  6  0  0  0
 44 35  1  0  0  0  0
 45 43  1  6  0  0  0
 45 35  1  0  0  0  0
M  END
>  <MODEL>
3

>  <REMARK>
 VINA RESULT:      -3.8      6.853     11.452
  Name = 
  14 active torsions:
  status: ('A' for Active; 'I' for Inactive)
    1  A    between atoms: C_5  and  C_11
    2  A    between atoms: C_5  and  N_25
    3  A    between atoms: C_8  and  C_41
    4  A    between atoms: N_9  and  C_20
    5  A    between atoms: N_9  and  C_22
    6  A    between atoms: C_11  and  C_43
    7  A    between atoms: C_12  and  C_36
    8  A    between atoms: C_13  and  N_25
    9  A    between atoms: O_18  and  C_37
   10  A    between atoms: O_18  and  C_43
   11  A    between atoms: C_19  and  C_42
   12  A    between atoms: C_21  and  N_26
   13  A    between atoms: C_21  and  C_39
   14  A    between atoms: C_22  and  C_42
                            x       y       z     vdW  Elec       q    Type
                         _______ _______ _______ _____ _____    ______ ____

>  <TORSDO>
F 14

$$$$
=
 OpenBabel11072414473D

 45 50  0  0  1  0  0  0  0  0999 V2000
  160.8050  208.4390  152.0900 C   0  0  0  0  0  0  0  0  0  0  0  0
  160.9440  209.8020  152.5350 N   0  0  0  0  0  0  0  0  0  0  0  0
  160.4740  208.1900  150.8970 O   0  0  0  0  0  0  0  0  0  0  0  0
  159.3390  212.0190  155.2610 C   0  0  1  0  0  3  0  0  0  0  0  0
  160.1350  211.7050  153.9830 C   0  0  1  0  0  3  0  0  0  0  0  0
  160.2490  210.1840  153.7770 C   0  0  2  0  0  3  0  0  0  0  0  0
  160.1930  209.9720  156.2780 C   0  0  0  0  0  3  0  0  0  0  0  0
  160.8710  209.5200  155.0130 C   0  0  0  0  0  2  0  0  0  0  0  0
  159.5680  211.0960  156.3680 N   0  0  0  0  0  0  0  0  0  0  0  0
  159.6450  213.6870  155.8180 Cl  0  0  0  0  0  0  0  0  0  0  0  0
  158.2500  211.9550  152.3540 C   0  0  0  0  0  3  0  0  0  0  0  0
  160.1130  213.4920  152.1660 C   0  0  0  0  0  3  0  0  0  0  0  0
  157.5960  212.6210  151.3110 C   0  0  0  0  0  3  0  0  0  0  0  0
  159.4530  214.1660  151.1310 C   0  0  0  0  0  3  0  0  0  0  0  0
  158.1900  213.7330  150.7070 C   0  0  0  0  0  3  0  0  0  0  0  0
  159.4960  212.4030  152.8090 C   0  0  0  0  0  0  0  0  0  0  0  0
  161.7760  210.7720  151.8030 C   0  0  1  0  0  3  0  0  0  0  0  0
  163.2490  210.3430  151.7910 C   0  0  0  0  0  1  0  0  0  0  0  0
  161.2330  210.9670  150.3800 C   0  0  0  0  0  2  0  0  0  0  0  0
  162.2700  210.6480  149.3160 C   0  0  0  0  0  2  0  0  0  0  0  0
  161.9860  211.4050  148.1720 O   0  0  0  0  0  0  0  0  0  0  0  0
  162.3620  213.7340  147.7890 C   0  0  0  0  0  1  0  0  0  0  0  0
  162.9830  212.3800  148.0980 C   0  0  0  0  0  2  0  0  0  0  0  0
  161.0410  207.2960  153.0390 C   0  0  0  0  0  2  0  0  0  0  0  0
  162.2840  206.5000  152.6410 C   0  0  0  0  0  2  0  0  0  0  0  0
  162.0840  205.1010  153.0070 N   0  0  0  0  0  2  0  0  0  0  0  0
  160.6140  203.2060  152.7270 N   0  0  0  0  0  2  0  0  0  0  0  0
  160.9160  204.5870  152.2950 C   0  0  2  0  0  3  0  0  0  0  0  0
  161.3040  203.4480  151.4480 C   0  0  2  0  0  3  0  0  0  0  0  0
  160.3330  203.1870  150.2640 C   0  0  0  0  0  2  0  0  0  0  0  0
  161.3280  202.9430  147.9610 C   0  0  0  0  0  0  0  0  0  0  0  0
  160.8820  202.3470  149.1880 N   0  0  0  0  0  0  0  0  0  0  0  0
  161.1440  202.3290  146.8710 O   0  0  0  0  0  0  0  0  0  0  0  0
  160.9860  200.9050  149.3590 C   0  0  0  0  0  1  0  0  0  0  0  0
  162.7250  204.5730  146.6040 C   0  0  0  0  0  0  0  0  0  0  0  0
  163.8400  203.6890  146.0600 C   0  0  0  0  0  2  0  0  0  0  0  0
  161.0670  205.4200  148.3370 C   0  0  0  0  0  3  0  0  0  0  0  0
  164.1810  204.9370  146.8370 C   0  0  0  0  0  2  0  0  0  0  0  0
  160.0840  206.4770  144.8300 C   0  0  0  0  0  2  0  0  0  0  0  0
  161.0340  206.0840  143.6890 C   0  0  0  0  0  2  0  0  0  0  0  0
  160.6050  205.6410  145.9610 C   0  0  2  0  0  3  0  0  0  0  0  0
  160.3690  206.0720  147.3780 C   0  0  0  0  0  3  0  0  0  0  0  0
  162.2120  205.4140  144.2660 N   0  0  0  0  0  2  0  0  0  0  0  0
  162.0310  204.2870  147.9710 C   0  0  1  0  0  3  0  0  0  0  0  0
  162.0790  205.6330  145.6990 C   0  0  2  0  0  3  0  0  0  0  0  0
  1  2  1  0  0  0  0
  1 24  1  0  0  0  0
  3  1  2  0  0  0  0
  4 10  1  1  0  0  0
  4  9  1  0  0  0  0
  5 16  1  6  0  0  0
  5  4  1  0  0  0  0
  6  2  1  6  0  0  0
  6  5  1  0  0  0  0
  6  8  1  0  0  0  0
  7  9  2  0  0  0  0
  8  7  1  0  0  0  0
 11 16  1  0  0  0  0
 12 16  2  0  0  0  0
 13 11  2  0  0  0  0
 14 12  1  0  0  0  0
 15 14  2  0  0  0  0
 15 13  1  0  0  0  0
 17 18  1  6  0  0  0
 17  2  1  0  0  0  0
 19 17  1  0  0  0  0
 20 19  1  0  0  0  0
 21 20  1  0  0  0  0
 22 23  1  0  0  0  0
 23 21  1  0  0  0  0
 25 26  1  0  0  0  0
 25 24  1  0  0  0  0
 28 27  1  0  0  0  0
 28 26  1  1  0  0  0
 29 30  1  6  0  0  0
 29 28  1  0  0  0  0
 29 27  1  0  0  0  0
 31 32  1  0  0  0  0
 32 34  1  0  0  0  0
 32 30  1  0  0  0  0
 33 31  2  0  0  0  0
 35 38  1  0  0  0  0
 35 44  1  0  0  0  0
 36 35  1  0  0  0  0
 36 38  1  0  0  0  0
 40 43  1  0  0  0  0
 40 39  1  0  0  0  0
 41 39  1  6  0  0  0
 41 42  1  0  0  0  0
 42 37  2  0  0  0  0
 44 31  1  6  0  0  0
 44 37  1  0  0  0  0
 45 43  1  6  0  0  0
 45 41  1  0  0  0  0
 45 35  1  0  0  0  0
M  END
>  <MODEL>
4

>  <REMARK>
 VINA RESULT:      -3.3      2.653      5.041
  Name = 
  14 active torsions:
  status: ('A' for Active; 'I' for Inactive)
    1  A    between atoms: C_5  and  C_11
    2  A    between atoms: C_5  and  N_25
    3  A    between atoms: C_8  and  C_41
    4  A    between atoms: N_9  and  C_20
    5  A    between atoms: N_9  and  C_22
    6  A    between atoms: C_11  and  C_43
    7  A    between atoms: C_12  and  C_36
    8  A    between atoms: C_13  and  N_25
    9  A    between atoms: O_18  and  C_37
   10  A    between atoms: O_18  and  C_43
   11  A    between atoms: C_19  and  C_42
   12  A    between atoms: C_21  and  N_26
   13  A    between atoms: C_21  and  C_39
   14  A    between atoms: C_22  and  C_42
                            x       y       z     vdW  Elec       q    Type
                         _______ _______ _______ _____ _____    ______ ____

>  <TORSDO>
F 14

$$$$
=
 OpenBabel11072414473D

 45 50  0  0  1  0  0  0  0  0999 V2000
  160.3950  210.7400  153.0640 C   0  0  0  0  0  0  0  0  0  0  0  0
  159.7200  211.4890  154.0930 N   0  0  0  0  0  0  0  0  0  0  0  0
  161.3450  211.2630  152.4160 O   0  0  0  0  0  0  0  0  0  0  0  0
  156.1440  212.8160  153.4830 C   0  0  1  0  0  3  0  0  0  0  0  0
  157.6770  212.8780  153.5710 C   0  0  1  0  0  3  0  0  0  0  0  0
  158.2480  211.5290  154.0460 C   0  0  2  0  0  3  0  0  0  0  0  0
  156.1160  211.2310  155.3390 C   0  0  0  0  0  3  0  0  0  0  0  0
  157.6160  211.1200  155.3830 C   0  0  0  0  0  2  0  0  0  0  0  0
  155.5020  212.0200  154.5250 N   0  0  0  0  0  0  0  0  0  0  0  0
  155.4310  214.4530  153.4770 Cl  0  0  0  0  0  0  0  0  0  0  0  0
  159.4020  214.0920  152.2210 C   0  0  0  0  0  3  0  0  0  0  0  0
  157.6360  212.9420  151.0240 C   0  0  0  0  0  3  0  0  0  0  0  0
  159.9910  214.4520  151.0030 C   0  0  0  0  0  3  0  0  0  0  0  0
  158.2330  213.2920  149.8060 C   0  0  0  0  0  3  0  0  0  0  0  0
  159.4150  214.0430  149.7960 C   0  0  0  0  0  3  0  0  0  0  0  0
  158.2410  213.3100  152.2400 C   0  0  0  0  0  0  0  0  0  0  0  0
  160.4620  212.1590  155.1740 C   0  0  1  0  0  3  0  0  0  0  0  0
  159.7700  213.4610  155.5990 C   0  0  0  0  0  1  0  0  0  0  0  0
  160.6450  211.2040  156.3610 C   0  0  0  0  0  2  0  0  0  0  0  0
  161.9140  210.3750  156.2480 C   0  0  0  0  0  2  0  0  0  0  0  0
  161.8150  209.2820  157.1180 O   0  0  0  0  0  0  0  0  0  0  0  0
  160.4580  207.3350  156.8330 C   0  0  0  0  0  1  0  0  0  0  0  0
  160.4910  208.8430  157.0350 C   0  0  0  0  0  2  0  0  0  0  0  0
  159.9740  209.3330  152.7390 C   0  0  0  0  0  2  0  0  0  0  0  0
  161.1600  208.3720  152.8270 C   0  0  0  0  0  2  0  0  0  0  0  0
  160.6880  207.0900  153.3440 N   0  0  0  0  0  2  0  0  0  0  0  0
  162.4620  206.4760  151.8240 N   0  0  0  0  0  2  0  0  0  0  0  0
  161.6540  206.0530  152.9880 C   0  0  2  0  0  3  0  0  0  0  0  0
  161.3530  205.5220  151.6490 C   0  0  2  0  0  3  0  0  0  0  0  0
  161.9150  204.0960  151.3990 C   0  0  0  0  0  2  0  0  0  0  0  0
  161.0170  203.9810  149.0460 C   0  0  0  0  0  0  0  0  0  0  0  0
  161.2540  203.3520  150.3140 N   0  0  0  0  0  0  0  0  0  0  0  0
  159.9580  203.7140  148.4110 O   0  0  0  0  0  0  0  0  0  0  0  0
  160.8410  201.9710  150.5140 C   0  0  0  0  0  1  0  0  0  0  0  0
  162.4600  204.5110  147.0240 C   0  0  0  0  0  0  0  0  0  0  0  0
  163.1490  203.1810  146.7440 C   0  0  0  0  0  2  0  0  0  0  0  0
  161.5150  206.3810  148.4660 C   0  0  0  0  0  3  0  0  0  0  0  0
  163.9740  204.4300  146.9390 C   0  0  0  0  0  2  0  0  0  0  0  0
  160.0940  206.4750  144.9520 C   0  0  0  0  0  2  0  0  0  0  0  0
  160.6270  205.4360  143.9540 C   0  0  0  0  0  2  0  0  0  0  0  0
  160.6120  205.9400  146.2530 C   0  0  2  0  0  3  0  0  0  0  0  0
  160.8210  206.8690  147.4120 C   0  0  0  0  0  3  0  0  0  0  0  0
  161.6820  204.6470  144.6130 N   0  0  0  0  0  2  0  0  0  0  0  0
  162.0370  204.9410  148.4620 C   0  0  1  0  0  3  0  0  0  0  0  0
  161.9340  205.3600  145.8560 C   0  0  2  0  0  3  0  0  0  0  0  0
  1  2  1  0  0  0  0
  2 17  1  0  0  0  0
  3  1  2  0  0  0  0
  4 10  1  1  0  0  0
  4  5  1  0  0  0  0
  4  9  1  0  0  0  0
  5 16  1  6  0  0  0
  5  6  1  0  0  0  0
  6  2  1  1  0  0  0
  6  8  1  0  0  0  0
  7  8  1  0  0  0  0
  9  7  2  0  0  0  0
 11 16  1  0  0  0  0
 12 16  2  0  0  0  0
 13 11  2  0  0  0  0
 14 12  1  0  0  0  0
 15 14  2  0  0  0  0
 15 13  1  0  0  0  0
 17 18  1  1  0  0  0
 17 19  1  0  0  0  0
 20 19  1  0  0  0  0
 20 21  1  0  0  0  0
 22 23  1  0  0  0  0
 23 21  1  0  0  0  0
 24 25  1  0  0  0  0
 24  1  1  0  0  0  0
 25 26  1  0  0  0  0
 27 28  1  0  0  0  0
 28 26  1  6  0  0  0
 29 30  1  1  0  0  0
 29 27  1  0  0  0  0
 29 28  1  0  0  0  0
 31 32  1  0  0  0  0
 32 34  1  0  0  0  0
 32 30  1  0  0  0  0
 33 31  2  0  0  0  0
 35 44  1  0  0  0  0
 36 38  1  0  0  0  0
 36 35  1  0  0  0  0
 38 35  1  0  0  0  0
 40 43  1  0  0  0  0
 40 39  1  0  0  0  0
 41 39  1  6  0  0  0
 41 42  1  0  0  0  0
 42 37  2  0  0  0  0
 44 37  1  0  0  0  0
 44 31  1  6  0  0  0
 45 43  1  6  0  0  0
 45 41  1  0  0  0  0
 45 35  1  0  0  0  0
M  END
>  <MODEL>
5

>  <REMARK>
 VINA RESULT:      -3.1      1.899      3.316
  Name = 
  14 active torsions:
  status: ('A' for Active; 'I' for Inactive)
    1  A    between atoms: C_5  and  C_11
    2  A    between atoms: C_5  and  N_25
    3  A    between atoms: C_8  and  C_41
    4  A    between atoms: N_9  and  C_20
    5  A    between atoms: N_9  and  C_22
    6  A    between atoms: C_11  and  C_43
    7  A    between atoms: C_12  and  C_36
    8  A    between atoms: C_13  and  N_25
    9  A    between atoms: O_18  and  C_37
   10  A    between atoms: O_18  and  C_43
   11  A    between atoms: C_19  and  C_42
   12  A    between atoms: C_21  and  N_26
   13  A    between atoms: C_21  and  C_39
   14  A    between atoms: C_22  and  C_42
                            x       y       z     vdW  Elec       q    Type
                         _______ _______ _______ _____ _____    ______ ____

>  <TORSDO>
F 14

$$$$
=
 OpenBabel11072414473D

 45 50  0  0  1  0  0  0  0  0999 V2000
  161.9560  207.4280  148.8930 C   0  0  0  0  0  0  0  0  0  0  0  0
  161.6610  206.0440  149.1630 N   0  0  0  0  0  0  0  0  0  0  0  0
  162.7100  207.7410  147.9300 O   0  0  0  0  0  0  0  0  0  0  0  0
  161.1270  203.9990  152.3960 C   0  0  1  0  0  3  0  0  0  0  0  0
  160.8300  204.4870  150.9690 C   0  0  1  0  0  3  0  0  0  0  0  0
  161.8400  205.5710  150.5470 C   0  0  2  0  0  3  0  0  0  0  0  0
  161.9540  206.2220  152.9700 C   0  0  0  0  0  3  0  0  0  0  0  0
  161.8390  206.7270  151.5560 C   0  0  0  0  0  2  0  0  0  0  0  0
  161.5900  205.0350  153.3150 N   0  0  0  0  0  0  0  0  0  0  0  0
  159.7070  203.1810  153.1060 Cl  0  0  0  0  0  0  0  0  0  0  0  0
  161.9800  202.5400  149.8930 C   0  0  0  0  0  3  0  0  0  0  0  0
  159.6720  202.9600  149.2890 C   0  0  0  0  0  3  0  0  0  0  0  0
  161.9840  201.4000  149.0810 C   0  0  0  0  0  3  0  0  0  0  0  0
  159.6720  201.8130  148.4870 C   0  0  0  0  0  3  0  0  0  0  0  0
  160.8280  201.0290  148.3870 C   0  0  0  0  0  3  0  0  0  0  0  0
  160.8180  203.3090  150.0270 C   0  0  0  0  0  0  0  0  0  0  0  0
  161.1650  205.1410  148.1110 C   0  0  1  0  0  3  0  0  0  0  0  0
  160.0810  205.8190  147.2640 C   0  0  0  0  0  1  0  0  0  0  0  0
  162.3320  204.6470  147.2450 C   0  0  0  0  0  2  0  0  0  0  0  0
  161.9120  204.3700  145.8100 C   0  0  0  0  0  2  0  0  0  0  0  0
  161.5850  203.0140  145.6930 O   0  0  0  0  0  0  0  0  0  0  0  0
  159.8780  201.5490  144.8860 C   0  0  0  0  0  1  0  0  0  0  0  0
  160.4470  202.9600  144.8860 C   0  0  0  0  0  2  0  0  0  0  0  0
  161.3810  208.5160  149.7580 C   0  0  0  0  0  2  0  0  0  0  0  0
  162.1100  209.8410  149.5290 C   0  0  0  0  0  2  0  0  0  0  0  0
  161.5790  210.4670  148.3210 N   0  0  0  0  0  2  0  0  0  0  0  0
  161.9640  212.8210  148.6970 N   0  0  0  0  0  2  0  0  0  0  0  0
  160.9570  211.7390  148.6820 C   0  0  2  0  0  3  0  0  0  0  0  0
  161.5010  212.2220  149.9610 C   0  0  2  0  0  3  0  0  0  0  0  0
  160.5670  213.2120  150.7070 C   0  0  0  0  0  2  0  0  0  0  0  0
  159.4220  211.6780  152.3470 C   0  0  0  0  0  0  0  0  0  0  0  0
  159.3420  212.6110  151.2590 N   0  0  0  0  0  0  0  0  0  0  0  0
  158.6220  210.7000  152.3840 O   0  0  0  0  0  0  0  0  0  0  0  0
  158.0390  212.9620  150.7140 C   0  0  0  0  0  1  0  0  0  0  0  0
  159.8080  211.6200  154.8570 C   0  0  0  0  0  0  0  0  0  0  0  0
  158.6610  212.4660  155.3940 C   0  0  0  0  0  2  0  0  0  0  0  0
  161.6700  210.9840  153.2440 C   0  0  0  0  0  3  0  0  0  0  0  0
  160.0840  212.8080  155.7630 C   0  0  0  0  0  2  0  0  0  0  0  0
  160.6020  208.0360  155.3750 C   0  0  0  0  0  2  0  0  0  0  0  0
  159.5240  208.2950  156.4390 C   0  0  0  0  0  2  0  0  0  0  0  0
  160.5240  209.2870  154.5520 C   0  0  2  0  0  3  0  0  0  0  0  0
  161.7180  209.7350  153.7610 C   0  0  0  0  0  3  0  0  0  0  0  0
  159.1910  209.7300  156.4320 N   0  0  0  0  0  2  0  0  0  0  0  0
  160.4410  211.8740  153.4540 C   0  0  1  0  0  3  0  0  0  0  0  0
  160.2100  210.3280  155.5820 C   0  0  2  0  0  3  0  0  0  0  0  0
  1  2  1  0  0  0  0
  1 24  1  0  0  0  0
  3  1  2  0  0  0  0
  4 10  1  1  0  0  0
  4  9  1  0  0  0  0
  5 16  1  6  0  0  0
  5  4  1  0  0  0  0
  6  2  1  6  0  0  0
  6  5  1  0  0  0  0
  6  8  1  0  0  0  0
  7  9  2  0  0  0  0
  8  7  1  0  0  0  0
 11 16  1  0  0  0  0
 12 16  2  0  0  0  0
 13 11  2  0  0  0  0
 14 12  1  0  0  0  0
 15 14  2  0  0  0  0
 15 13  1  0  0  0  0
 17 18  1  6  0  0  0
 17  2  1  0  0  0  0
 19 17  1  0  0  0  0
 20 19  1  0  0  0  0
 21 20  1  0  0  0  0
 23 22  1  0  0  0  0
 23 21  1  0  0  0  0
 25 24  1  0  0  0  0
 26 25  1  0  0  0  0
 27 29  1  0  0  0  0
 28 26  1  6  0  0  0
 28 27  1  0  0  0  0
 28 29  1  0  0  0  0
 29 30  1  1  0  0  0
 30 32  1  0  0  0  0
 31 33  2  0  0  0  0
 32 31  1  0  0  0  0
 34 32  1  0  0  0  0
 35 36  1  0  0  0  0
 35 45  1  0  0  0  0
 35 38  1  0  0  0  0
 36 38  1  0  0  0  0
 37 44  1  0  0  0  0
 37 42  2  0  0  0  0
 39 40  1  0  0  0  0
 41 42  1  1  0  0  0
 41 39  1  0  0  0  0
 41 45  1  0  0  0  0
 43 40  1  0  0  0  0
 44 31  1  6  0  0  0
 44 35  1  0  0  0  0
 45 43  1  1  0  0  0
M  END
>  <MODEL>
6

>  <REMARK>
 VINA RESULT:      -3.1      2.691     10.303
  Name = 
  14 active torsions:
  status: ('A' for Active; 'I' for Inactive)
    1  A    between atoms: C_5  and  C_11
    2  A    between atoms: C_5  and  N_25
    3  A    between atoms: C_8  and  C_41
    4  A    between atoms: N_9  and  C_20
    5  A    between atoms: N_9  and  C_22
    6  A    between atoms: C_11  and  C_43
    7  A    between atoms: C_12  and  C_36
    8  A    between atoms: C_13  and  N_25
    9  A    between atoms: O_18  and  C_37
   10  A    between atoms: O_18  and  C_43
   11  A    between atoms: C_19  and  C_42
   12  A    between atoms: C_21  and  N_26
   13  A    between atoms: C_21  and  C_39
   14  A    between atoms: C_22  and  C_42
                            x       y       z     vdW  Elec       q    Type
                         _______ _______ _______ _____ _____    ______ ____

>  <TORSDO>
F 14

$$$$
=
 OpenBabel11072414473D

 45 50  0  0  1  0  0  0  0  0999 V2000
  161.0520  210.6880  153.1600 C   0  0  0  0  0  0  0  0  0  0  0  0
  160.4290  211.8560  153.7300 N   0  0  0  0  0  0  0  0  0  0  0  0
  162.2120  210.3460  153.5220 O   0  0  0  0  0  0  0  0  0  0  0  0
  157.8580  213.6020  151.4360 C   0  0  1  0  0  3  0  0  0  0  0  0
  158.4150  212.4980  152.3500 C   0  0  1  0  0  3  0  0  0  0  0  0
  159.8490  212.8370  152.7970 C   0  0  2  0  0  3  0  0  0  0  0  0
  160.1120  214.0280  150.6020 C   0  0  0  0  0  3  0  0  0  0  0  0
  160.7490  213.0760  151.5770 C   0  0  0  0  0  2  0  0  0  0  0  0
  158.8360  214.2020  150.5340 N   0  0  0  0  0  0  0  0  0  0  0  0
  156.4700  213.0110  150.4830 Cl  0  0  0  0  0  0  0  0  0  0  0  0
  156.9150  213.4100  154.1350 C   0  0  0  0  0  3  0  0  0  0  0  0
  157.1540  211.0040  153.9840 C   0  0  0  0  0  3  0  0  0  0  0  0
  155.9900  213.2520  155.1730 C   0  0  0  0  0  3  0  0  0  0  0  0
  156.2190  210.8460  155.0150 C   0  0  0  0  0  3  0  0  0  0  0  0
  155.6320  211.9710  155.6060 C   0  0  0  0  0  3  0  0  0  0  0  0
  157.4790  212.2890  153.5140 C   0  0  0  0  0  0  0  0  0  0  0  0
  160.3390  212.0500  155.1870 C   0  0  1  0  0  3  0  0  0  0  0  0
  159.6690  213.3870  155.5290 C   0  0  0  0  0  1  0  0  0  0  0  0
  159.6020  210.8680  155.8330 C   0  0  0  0  0  2  0  0  0  0  0  0
  160.5560  209.8620  156.4560 C   0  0  0  0  0  2  0  0  0  0  0  0
  159.8450  208.6900  156.7450 O   0  0  0  0  0  0  0  0  0  0  0  0
  160.4790  207.1030  155.0750 C   0  0  0  0  0  1  0  0  0  0  0  0
  160.7190  207.6330  156.4800 C   0  0  0  0  0  2  0  0  0  0  0  0
  160.3360  209.8680  152.1220 C   0  0  0  0  0  2  0  0  0  0  0  0
  161.0550  209.9410  150.7750 C   0  0  0  0  0  2  0  0  0  0  0  0
  162.1610  208.9870  150.7800 N   0  0  0  0  0  2  0  0  0  0  0  0
  162.8820  207.2000  149.3240 N   0  0  0  0  0  2  0  0  0  0  0  0
  161.7450  207.7770  150.0740 C   0  0  2  0  0  3  0  0  0  0  0  0
  161.8490  207.9810  148.6210 C   0  0  2  0  0  3  0  0  0  0  0  0
  160.9430  207.0330  147.7880 C   0  0  0  0  0  2  0  0  0  0  0  0
  161.6790  204.6270  147.6340 C   0  0  0  0  0  0  0  0  0  0  0  0
  161.6570  205.9540  147.0860 N   0  0  0  0  0  0  0  0  0  0  0  0
  162.7230  203.9250  147.5120 O   0  0  0  0  0  0  0  0  0  0  0  0
  162.3410  206.2190  145.8290 C   0  0  0  0  0  1  0  0  0  0  0  0
  160.6990  202.5970  148.8040 C   0  0  0  0  0  0  0  0  0  0  0  0
  160.9960  201.4680  147.8260 C   0  0  0  0  0  2  0  0  0  0  0  0
  160.0260  204.9480  149.5060 C   0  0  0  0  0  3  0  0  0  0  0  0
  159.5810  201.7040  148.2950 C   0  0  0  0  0  2  0  0  0  0  0  0
  161.8740  203.1400  152.2790 C   0  0  0  0  0  2  0  0  0  0  0  0
  162.2860  201.6840  152.0120 C   0  0  0  0  0  2  0  0  0  0  0  0
  161.4870  203.6030  150.9060 C   0  0  2  0  0  3  0  0  0  0  0  0
  160.5220  204.7400  150.7470 C   0  0  0  0  0  3  0  0  0  0  0  0
  161.7710  201.2830  150.6910 N   0  0  0  0  0  2  0  0  0  0  0  0
  160.4560  204.0630  148.3310 C   0  0  1  0  0  3  0  0  0  0  0  0
  160.8800  202.3690  150.3130 C   0  0  2  0  0  3  0  0  0  0  0  0
  1  3  2  0  0  0  0
  1  2  1  0  0  0  0
  2 17  1  0  0  0  0
  4 10  1  6  0  0  0
  4  5  1  0  0  0  0
  5  6  1  0  0  0  0
  5 16  1  1  0  0  0
  6  2  1  6  0  0  0
  7  8  1  0  0  0  0
  8  6  1  0  0  0  0
  9  7  2  0  0  0  0
  9  4  1  0  0  0  0
 11 13  1  0  0  0  0
 12 14  2  0  0  0  0
 13 15  2  0  0  0  0
 14 15  1  0  0  0  0
 16 12  1  0  0  0  0
 16 11  2  0  0  0  0
 17 18  1  6  0  0  0
 17 19  1  0  0  0  0
 19 20  1  0  0  0  0
 20 21  1  0  0  0  0
 22 23  1  0  0  0  0
 23 21  1  0  0  0  0
 24  1  1  0  0  0  0
 25 26  1  0  0  0  0
 25 24  1  0  0  0  0
 27 28  1  0  0  0  0
 28 26  1  1  0  0  0
 29 30  1  6  0  0  0
 29 27  1  0  0  0  0
 29 28  1  0  0  0  0
 32 31  1  0  0  0  0
 32 30  1  0  0  0  0
 33 31  2  0  0  0  0
 34 32  1  0  0  0  0
 35 45  1  0  0  0  0
 36 38  1  0  0  0  0
 36 35  1  0  0  0  0
 37 42  2  0  0  0  0
 38 35  1  0  0  0  0
 40 39  1  0  0  0  0
 41 42  1  1  0  0  0
 41 39  1  0  0  0  0
 43 40  1  0  0  0  0
 44 31  1  1  0  0  0
 44 35  1  0  0  0  0
 44 37  1  0  0  0  0
 45 43  1  6  0  0  0
 45 41  1  0  0  0  0
M  END
>  <MODEL>
7

>  <REMARK>
 VINA RESULT:      -3.0      1.580      2.835
  Name = 
  14 active torsions:
  status: ('A' for Active; 'I' for Inactive)
    1  A    between atoms: C_5  and  C_11
    2  A    between atoms: C_5  and  N_25
    3  A    between atoms: C_8  and  C_41
    4  A    between atoms: N_9  and  C_20
    5  A    between atoms: N_9  and  C_22
    6  A    between atoms: C_11  and  C_43
    7  A    between atoms: C_12  and  C_36
    8  A    between atoms: C_13  and  N_25
    9  A    between atoms: O_18  and  C_37
   10  A    between atoms: O_18  and  C_43
   11  A    between atoms: C_19  and  C_42
   12  A    between atoms: C_21  and  N_26
   13  A    between atoms: C_21  and  C_39
   14  A    between atoms: C_22  and  C_42
                            x       y       z     vdW  Elec       q    Type
                         _______ _______ _______ _____ _____    ______ ____

>  <TORSDO>
F 14

$$$$
=
 OpenBabel11072414473D

 45 50  0  0  1  0  0  0  0  0999 V2000
  160.6500  208.7710  153.2610 C   0  0  0  0  0  0  0  0  0  0  0  0
  161.2290  210.0710  153.4850 N   0  0  0  0  0  0  0  0  0  0  0  0
  159.6540  208.6420  152.4970 O   0  0  0  0  0  0  0  0  0  0  0  0
  160.9380  212.0860  156.7670 C   0  0  1  0  0  3  0  0  0  0  0  0
  160.7070  211.7660  155.2820 C   0  0  1  0  0  3  0  0  0  0  0  0
  161.4550  210.4810  154.8820 C   0  0  2  0  0  3  0  0  0  0  0  0
  163.1600  211.0880  156.6230 C   0  0  0  0  0  3  0  0  0  0  0  0
  162.9480  210.6040  155.2140 C   0  0  0  0  0  2  0  0  0  0  0  0
  162.2760  211.7760  157.2610 N   0  0  0  0  0  0  0  0  0  0  0  0
  160.5650  213.7950  157.1250 Cl  0  0  0  0  0  0  0  0  0  0  0  0
  158.4360  210.8610  155.8220 C   0  0  0  0  0  3  0  0  0  0  0  0
  158.6200  212.4120  153.9700 C   0  0  0  0  0  3  0  0  0  0  0  0
  157.0480  210.8130  155.6410 C   0  0  0  0  0  3  0  0  0  0  0  0
  157.2310  212.3730  153.7980 C   0  0  0  0  0  3  0  0  0  0  0  0
  156.4440  211.5770  154.6390 C   0  0  0  0  0  3  0  0  0  0  0  0
  159.2260  211.6830  155.0090 C   0  0  0  0  0  0  0  0  0  0  0  0
  161.6170  210.9460  152.3660 C   0  0  1  0  0  3  0  0  0  0  0  0
  162.5750  210.2290  151.4070 C   0  0  0  0  0  1  0  0  0  0  0  0
  160.3660  211.4580  151.6370 C   0  0  0  0  0  2  0  0  0  0  0  0
  160.5750  212.8330  151.0250 C   0  0  0  0  0  2  0  0  0  0  0  0
  160.2050  212.7830  149.6750 O   0  0  0  0  0  0  0  0  0  0  0  0
  161.8600  211.8980  148.1940 C   0  0  0  0  0  1  0  0  0  0  0  0
  161.3510  213.1170  148.9480 C   0  0  0  0  0  2  0  0  0  0  0  0
  161.2140  207.5540  153.9420 C   0  0  0  0  0  2  0  0  0  0  0  0
  161.2980  206.3740  152.9730 C   0  0  0  0  0  2  0  0  0  0  0  0
  161.6470  206.8780  151.6470 N   0  0  0  0  0  2  0  0  0  0  0  0
  161.8290  204.9480  150.2060 N   0  0  0  0  0  2  0  0  0  0  0  0
  160.9660  206.0680  150.6390 C   0  0  2  0  0  3  0  0  0  0  0  0
  161.6870  206.1460  149.3590 C   0  0  2  0  0  3  0  0  0  0  0  0
  160.8060  205.8180  148.1220 C   0  0  0  0  0  2  0  0  0  0  0  0
  161.5830  203.8540  146.7460 C   0  0  0  0  0  0  0  0  0  0  0  0
  161.5390  205.2720  146.9690 N   0  0  0  0  0  0  0  0  0  0  0  0
  162.6390  203.3320  146.2870 O   0  0  0  0  0  0  0  0  0  0  0  0
  162.2180  206.1620  146.0380 C   0  0  0  0  0  1  0  0  0  0  0  0
  160.1000  201.9830  145.8790 C   0  0  0  0  0  0  0  0  0  0  0  0
  159.7720  202.4420  144.4640 C   0  0  0  0  0  2  0  0  0  0  0  0
  160.5130  202.2590  148.3740 C   0  0  0  0  0  3  0  0  0  0  0  0
  158.6570  202.1040  145.4220 C   0  0  0  0  0  2  0  0  0  0  0  0
  161.9450  198.9970  147.0740 C   0  0  0  0  0  2  0  0  0  0  0  0
  161.7120  198.6730  145.5900 C   0  0  0  0  0  2  0  0  0  0  0  0
  161.5480  200.4420  147.1350 C   0  0  2  0  0  3  0  0  0  0  0  0
  161.0860  201.0340  148.4340 C   0  0  0  0  0  3  0  0  0  0  0  0
  160.8740  199.7320  145.0020 N   0  0  0  0  0  2  0  0  0  0  0  0
  160.3690  202.9930  147.0370 C   0  0  1  0  0  3  0  0  0  0  0  0
  160.4230  200.5060  146.1490 C   0  0  2  0  0  3  0  0  0  0  0  0
  1  2  1  0  0  0  0
  1 24  1  0  0  0  0
  3  1  2  0  0  0  0
  4 10  1  6  0  0  0
  4  9  1  0  0  0  0
  5 16  1  1  0  0  0
  5  4  1  0  0  0  0
  6  2  1  6  0  0  0
  6  8  1  0  0  0  0
  6  5  1  0  0  0  0
  7  9  2  0  0  0  0
  8  7  1  0  0  0  0
 12 16  1  0  0  0  0
 13 11  1  0  0  0  0
 14 12  2  0  0  0  0
 14 15  1  0  0  0  0
 15 13  2  0  0  0  0
 16 11  2  0  0  0  0
 17 18  1  6  0  0  0
 17  2  1  0  0  0  0
 19 17  1  0  0  0  0
 20 19  1  0  0  0  0
 21 20  1  0  0  0  0
 22 23  1  0  0  0  0
 23 21  1  0  0  0  0
 25 24  1  0  0  0  0
 26 25  1  0  0  0  0
 27 28  1  0  0  0  0
 28 26  1  1  0  0  0
 29 30  1  6  0  0  0
 29 27  1  0  0  0  0
 29 28  1  0  0  0  0
 31 32  1  0  0  0  0
 32 30  1  0  0  0  0
 33 31  2  0  0  0  0
 34 32  1  0  0  0  0
 35 45  1  0  0  0  0
 35 44  1  0  0  0  0
 36 38  1  0  0  0  0
 36 35  1  0  0  0  0
 37 42  2  0  0  0  0
 38 35  1  0  0  0  0
 40 39  1  0  0  0  0
 41 39  1  1  0  0  0
 41 42  1  0  0  0  0
 43 40  1  0  0  0  0
 44 31  1  6  0  0  0
 44 37  1  0  0  0  0
 45 43  1  6  0  0  0
 45 41  1  0  0  0  0
M  END
>  <MODEL>
8

>  <REMARK>
 VINA RESULT:      -2.8      2.431      4.633
  Name = 
  14 active torsions:
  status: ('A' for Active; 'I' for Inactive)
    1  A    between atoms: C_5  and  C_11
    2  A    between atoms: C_5  and  N_25
    3  A    between atoms: C_8  and  C_41
    4  A    between atoms: N_9  and  C_20
    5  A    between atoms: N_9  and  C_22
    6  A    between atoms: C_11  and  C_43
    7  A    between atoms: C_12  and  C_36
    8  A    between atoms: C_13  and  N_25
    9  A    between atoms: O_18  and  C_37
   10  A    between atoms: O_18  and  C_43
   11  A    between atoms: C_19  and  C_42
   12  A    between atoms: C_21  and  N_26
   13  A    between atoms: C_21  and  C_39
   14  A    between atoms: C_22  and  C_42
                            x       y       z     vdW  Elec       q    Type
                         _______ _______ _______ _____ _____    ______ ____

>  <TORSDO>
F 14

$$$$
=
 OpenBabel11072414473D

 45 50  0  0  1  0  0  0  0  0999 V2000
  160.8640  205.9780  145.6490 C   0  0  0  0  0  0  0  0  0  0  0  0
  161.4050  205.0370  146.5960 N   0  0  0  0  0  0  0  0  0  0  0  0
  160.5020  207.1260  146.0290 O   0  0  0  0  0  0  0  0  0  0  0  0
  160.6680  201.4180  147.7270 C   0  0  1  0  0  3  0  0  0  0  0  0
  161.3650  202.7870  147.7420 C   0  0  1  0  0  3  0  0  0  0  0  0
  160.8310  203.6800  146.6070 C   0  0  2  0  0  3  0  0  0  0  0  0
  160.4570  201.5690  145.3000 C   0  0  0  0  0  3  0  0  0  0  0  0
  160.9880  202.9770  145.2520 C   0  0  0  0  0  2  0  0  0  0  0  0
  160.3730  200.8950  146.3960 N   0  0  0  0  0  0  0  0  0  0  0  0
  161.6110  200.2040  148.6340 Cl  0  0  0  0  0  0  0  0  0  0  0  0
  160.4330  204.5840  149.2160 C   0  0  0  0  0  3  0  0  0  0  0  0
  161.7930  202.8680  150.2530 C   0  0  0  0  0  3  0  0  0  0  0  0
  160.2040  205.1590  150.4710 C   0  0  0  0  0  3  0  0  0  0  0  0
  161.5520  203.4360  151.5110 C   0  0  0  0  0  3  0  0  0  0  0  0
  160.7520  204.5800  151.6200 C   0  0  0  0  0  3  0  0  0  0  0  0
  161.2020  203.4200  149.1020 C   0  0  0  0  0  0  0  0  0  0  0  0
  162.5140  205.3980  147.4950 C   0  0  1  0  0  3  0  0  0  0  0  0
  163.8610  204.9240  146.9350 C   0  0  0  0  0  1  0  0  0  0  0  0
  162.5120  206.9120  147.7550 C   0  0  0  0  0  2  0  0  0  0  0  0
  162.7030  207.2480  149.2250 C   0  0  0  0  0  2  0  0  0  0  0  0
  161.6890  208.1310  149.6170 O   0  0  0  0  0  0  0  0  0  0  0  0
  161.9620  209.9580  151.1340 C   0  0  0  0  0  1  0  0  0  0  0  0
  161.9500  208.4470  150.9530 C   0  0  0  0  0  2  0  0  0  0  0  0
  160.7110  205.6040  144.2000 C   0  0  0  0  0  2  0  0  0  0  0  0
  161.6450  206.4330  143.3180 C   0  0  0  0  0  2  0  0  0  0  0  0
  161.7000  205.8280  141.9910 N   0  0  0  0  0  2  0  0  0  0  0  0
  161.9560  206.3930  139.6570 N   0  0  0  0  0  2  0  0  0  0  0  0
  161.5240  206.8750  140.9860 C   0  0  2  0  0  3  0  0  0  0  0  0
  162.8310  207.2790  140.4450 C   0  0  2  0  0  3  0  0  0  0  0  0
  162.8400  208.7030  139.8250 C   0  0  0  0  0  2  0  0  0  0  0  0
  160.8840  210.2800  139.6170 C   0  0  0  0  0  0  0  0  0  0  0  0
  161.5800  209.1030  139.1780 N   0  0  0  0  0  0  0  0  0  0  0  0
  159.6200  210.2850  139.6260 O   0  0  0  0  0  0  0  0  0  0  0  0
  161.0310  208.3170  138.0830 C   0  0  0  0  0  1  0  0  0  0  0  0
  160.9060  212.8200  139.6400 C   0  0  0  0  0  0  0  0  0  0  0  0
  160.6190  213.1720  138.1850 C   0  0  0  0  0  2  0  0  0  0  0  0
  161.9440  211.4990  141.5500 C   0  0  0  0  0  3  0  0  0  0  0  0
  161.8450  213.7290  138.8660 C   0  0  0  0  0  2  0  0  0  0  0  0
  158.9580  213.5240  142.7140 C   0  0  0  0  0  2  0  0  0  0  0  0
  158.2710  214.4210  141.6730 C   0  0  0  0  0  2  0  0  0  0  0  0
  159.8360  212.6710  141.8490 C   0  0  2  0  0  3  0  0  0  0  0  0
  161.0710  212.0450  142.4270 C   0  0  0  0  0  3  0  0  0  0  0  0
  159.0220  214.3350  140.4090 N   0  0  0  0  0  2  0  0  0  0  0  0
  161.6560  211.5140  140.0450 C   0  0  1  0  0  3  0  0  0  0  0  0
  160.2400  213.6240  140.7670 C   0  0  2  0  0  3  0  0  0  0  0  0
  1  3  2  0  0  0  0
  1  2  1  0  0  0  0
  2 17  1  0  0  0  0
  4  5  1  0  0  0  0
  4 10  1  6  0  0  0
  5 16  1  1  0  0  0
  6  2  1  6  0  0  0
  6  5  1  0  0  0  0
  7  9  2  0  0  0  0
  8  7  1  0  0  0  0
  8  6  1  0  0  0  0
  9  4  1  0  0  0  0
 11 13  1  0  0  0  0
 12 14  2  0  0  0  0
 13 15  2  0  0  0  0
 14 15  1  0  0  0  0
 16 11  2  0  0  0  0
 16 12  1  0  0  0  0
 17 18  1  6  0  0  0
 17 19  1  0  0  0  0
 19 20  1  0  0  0  0
 20 21  1  0  0  0  0
 21 23  1  0  0  0  0
 23 22  1  0  0  0  0
 24  1  1  0  0  0  0
 25 24  1  0  0  0  0
 26 25  1  0  0  0  0
 27 29  1  0  0  0  0
 27 28  1  0  0  0  0
 28 26  1  1  0  0  0
 29 30  1  6  0  0  0
 29 28  1  0  0  0  0
 31 33  2  0  0  0  0
 32 31  1  0  0  0  0
 32 30  1  0  0  0  0
 34 32  1  0  0  0  0
 35 44  1  0  0  0  0
 35 45  1  0  0  0  0
 36 38  1  0  0  0  0
 36 35  1  0  0  0  0
 37 42  2  0  0  0  0
 38 35  1  0  0  0  0
 40 39  1  0  0  0  0
 41 42  1  1  0  0  0
 41 39  1  0  0  0  0
 43 40  1  0  0  0  0
 44 31  1  1  0  0  0
 44 37  1  0  0  0  0
 45 43  1  6  0  0  0
 45 41  1  0  0  0  0
M  END
>  <MODEL>
9

>  <REMARK>
 VINA RESULT:      -2.7      6.543     11.288
  Name = 
  14 active torsions:
  status: ('A' for Active; 'I' for Inactive)
    1  A    between atoms: C_5  and  C_11
    2  A    between atoms: C_5  and  N_25
    3  A    between atoms: C_8  and  C_41
    4  A    between atoms: N_9  and  C_20
    5  A    between atoms: N_9  and  C_22
    6  A    between atoms: C_11  and  C_43
    7  A    between atoms: C_12  and  C_36
    8  A    between atoms: C_13  and  N_25
    9  A    between atoms: O_18  and  C_37
   10  A    between atoms: O_18  and  C_43
   11  A    between atoms: C_19  and  C_42
   12  A    between atoms: C_21  and  N_26
   13  A    between atoms: C_21  and  C_39
   14  A    between atoms: C_22  and  C_42
                            x       y       z     vdW  Elec       q    Type
                         _______ _______ _______ _____ _____    ______ ____

>  <TORSDO>
F 14

$$$$
