=
 OpenBabel11072413503D

 29 33  0  0  1  0  0  0  0  0999 V2000
  161.6680  210.4400  153.6440 N   0  0  0  0  0  0  0  0  0  0  0  0
  159.8380  213.1030  155.6430 C   0  0  0  0  0  0  0  0  0  0  0  0
  160.1940  212.1800  154.6480 C   0  0  0  0  0  0  0  0  0  0  0  0
  158.5320  213.1520  153.2330 N   0  0  0  0  0  0  0  0  0  0  0  0
  161.2350  211.1080  154.8820 C   0  0  1  0  0  3  0  0  0  0  0  0
  159.8970  211.3620  152.3680 N   0  0  0  0  0  2  0  0  0  0  0  0
  158.1940  214.0280  154.2140 C   0  0  0  0  0  3  0  0  0  0  0  0
  160.4980  213.1050  156.9060 N   0  0  0  0  0  1  0  0  0  0  0  0
  159.5160  212.2360  153.4270 C   0  0  0  0  0  0  0  0  0  0  0  0
  161.0430  210.5130  152.5030 C   0  0  0  0  0  0  0  0  0  0  0  0
  158.8480  214.0020  155.4050 N   0  0  0  0  0  0  0  0  0  0  0  0
  162.2720  209.6180  149.0040 C   0  0  0  0  0  2  0  0  0  0  0  0
  160.8970  207.4490  152.2050 C   0  0  0  0  0  2  0  0  0  0  0  0
  161.1710  206.0320  151.7650 C   0  0  0  0  0  2  0  0  0  0  0  0
  162.2570  207.5360  150.1760 C   0  0  1  0  0  3  0  0  0  0  0  0
  161.5240  209.7340  151.3390 C   0  0  0  0  0  0  0  0  0  0  0  0
  162.4300  207.6330  147.8190 C   0  0  0  0  0  1  0  0  0  0  0  0
  161.9440  208.2840  151.4940 C   0  0  1  0  0  3  0  0  0  0  0  0
  161.6170  206.1410  150.3220 C   0  0  2  0  0  3  0  0  0  0  0  0
  160.4980  205.9960  149.4950 O   0  0  0  0  0  1  0  0  0  0  0  0
  161.6710  210.3430  150.1600 C   0  0  0  0  0  3  0  0  0  0  0  0
  161.7840  208.2440  148.9720 N   0  0  0  0  0  0  0  0  0  0  0  0
  161.8870  209.1320  156.3060 C   0  0  0  0  0  2  0  0  0  0  0  0
  161.3420  208.0280  157.2050 C   0  0  0  0  0  2  0  0  0  0  0  0
  159.5090  209.3430  155.4520 C   0  0  0  0  0  3  0  0  0  0  0  0
  159.3000  208.0450  155.7270 C   0  0  0  0  0  3  0  0  0  0  0  0
  160.3320  207.1930  156.4200 C   0  0  2  0  0  3  0  0  0  0  0  0
  160.7530  210.0770  155.9090 C   0  0  2  0  0  3  0  0  0  0  0  0
  159.7100  206.2910  157.2600 F   0  0  0  0  0  0  0  0  0  0  0  0
  2  8  1  0  0  0  0
  3  5  1  0  0  0  0
  3  2  2  0  0  0  0
  4  9  2  0  0  0  0
  4  7  1  0  0  0  0
  5  1  1  6  0  0  0
  5 28  1  0  0  0  0
  6 10  1  0  0  0  0
  6  9  1  0  0  0  0
  7 11  2  0  0  0  0
  9  3  1  0  0  0  0
 10  1  2  0  0  0  0
 11  2  1  0  0  0  0
 12 21  1  0  0  0  0
 14 13  1  0  0  0  0
 15 22  1  6  0  0  0
 15 19  1  0  0  0  0
 15 18  1  0  0  0  0
 16 18  1  0  0  0  0
 16 10  1  0  0  0  0
 17 22  1  0  0  0  0
 18 13  1  6  0  0  0
 19 20  1  6  0  0  0
 19 14  1  0  0  0  0
 21 16  2  0  0  0  0
 22 12  1  0  0  0  0
 23 24  1  0  0  0  0
 25 26  2  0  0  0  0
 26 27  1  0  0  0  0
 27 24  1  0  0  0  0
 27 29  1  1  0  0  0
 28 25  1  6  0  0  0
 28 23  1  0  0  0  0
M  END
>  <MODEL>
1

>  <REMARK>
 VINA RESULT:      -7.0      0.000      0.000
  Name = 
  2 active torsions:
  status: ('A' for Active; 'I' for Inactive)
    1  A    between atoms: C_12  and  C_27
    2  A    between atoms: C_16  and  C_21
                            x       y       z     vdW  Elec       q    Type
                         _______ _______ _______ _____ _____    ______ ____

>  <TORSDO>
F 2

$$$$
=
 OpenBabel11072413503D

 29 33  0  0  1  0  0  0  0  0999 V2000
  162.1080  206.3540  150.1240 N   0  0  0  0  0  0  0  0  0  0  0  0
  162.3920  210.1120  150.6020 C   0  0  0  0  0  0  0  0  0  0  0  0
  162.0840  208.8450  150.0850 C   0  0  0  0  0  0  0  0  0  0  0  0
  161.4500  209.8990  148.0370 N   0  0  0  0  0  0  0  0  0  0  0  0
  162.1900  207.5890  150.9210 C   0  0  1  0  0  3  0  0  0  0  0  0
  161.3580  207.4940  148.1860 N   0  0  0  0  0  2  0  0  0  0  0  0
  161.7420  211.1170  148.5610 C   0  0  0  0  0  3  0  0  0  0  0  0
  162.8840  210.2580  151.9320 N   0  0  0  0  0  1  0  0  0  0  0  0
  161.6140  208.7690  148.7710 C   0  0  0  0  0  0  0  0  0  0  0  0
  161.6890  206.2920  148.8910 C   0  0  0  0  0  0  0  0  0  0  0  0
  162.2130  211.2170  149.8320 N   0  0  0  0  0  0  0  0  0  0  0  0
  161.4460  203.6430  146.1560 C   0  0  0  0  0  2  0  0  0  0  0  0
  160.7990  203.6530  150.2090 C   0  0  0  0  0  2  0  0  0  0  0  0
  160.5970  202.1860  150.4970 C   0  0  0  0  0  2  0  0  0  0  0  0
  161.3800  202.3970  148.1940 C   0  0  1  0  0  3  0  0  0  0  0  0
  161.5720  204.9820  148.2100 C   0  0  0  0  0  0  0  0  0  0  0  0
  160.7660  201.4280  146.1260 C   0  0  0  0  0  1  0  0  0  0  0  0
  161.6980  203.6860  148.9880 C   0  0  1  0  0  3  0  0  0  0  0  0
  160.5440  201.5140  149.1410 C   0  0  2  0  0  3  0  0  0  0  0  0
  159.2090  201.4370  148.7320 O   0  0  0  0  0  1  0  0  0  0  0  0
  161.4400  204.9460  146.8810 C   0  0  0  0  0  3  0  0  0  0  0  0
  160.6930  202.6500  146.9140 N   0  0  0  0  0  0  0  0  0  0  0  0
  161.4100  208.6980  153.0460 C   0  0  0  0  0  2  0  0  0  0  0  0
  160.4550  208.5640  154.2260 C   0  0  0  0  0  2  0  0  0  0  0  0
  161.0220  206.2160  152.7020 C   0  0  0  0  0  3  0  0  0  0  0  0
  160.7880  206.0750  154.0160 C   0  0  0  0  0  3  0  0  0  0  0  0
  160.7370  207.2520  154.9550 C   0  0  2  0  0  3  0  0  0  0  0  0
  161.1470  207.5750  152.0430 C   0  0  2  0  0  3  0  0  0  0  0  0
  159.7800  207.0370  155.9280 F   0  0  0  0  0  0  0  0  0  0  0  0
  1  5  1  0  0  0  0
  2  8  1  0  0  0  0
  3  2  2  0  0  0  0
  4  7  1  0  0  0  0
  4  9  2  0  0  0  0
  5  3  1  6  0  0  0
  5 28  1  0  0  0  0
  6  9  1  0  0  0  0
  6 10  1  0  0  0  0
  7 11  2  0  0  0  0
  9  3  1  0  0  0  0
 10  1  2  0  0  0  0
 11  2  1  0  0  0  0
 12 21  1  0  0  0  0
 12 22  1  0  0  0  0
 13 14  1  0  0  0  0
 15 22  1  6  0  0  0
 15 18  1  0  0  0  0
 15 19  1  0  0  0  0
 16 10  1  0  0  0  0
 16 18  1  0  0  0  0
 17 22  1  0  0  0  0
 18 13  1  1  0  0  0
 19 20  1  6  0  0  0
 19 14  1  0  0  0  0
 21 16  2  0  0  0  0
 23 24  1  0  0  0  0
 24 27  1  0  0  0  0
 25 26  2  0  0  0  0
 26 27  1  0  0  0  0
 27 29  1  1  0  0  0
 28 25  1  1  0  0  0
 28 23  1  0  0  0  0
M  END
>  <MODEL>
2

>  <REMARK>
 VINA RESULT:      -6.8      3.141      5.383
  Name = 
  2 active torsions:
  status: ('A' for Active; 'I' for Inactive)
    1  A    between atoms: C_12  and  C_27
    2  A    between atoms: C_16  and  C_21
                            x       y       z     vdW  Elec       q    Type
                         _______ _______ _______ _____ _____    ______ ____

>  <TORSDO>
F 2

$$$$
=
 OpenBabel11072413503D

 29 33  0  0  1  0  0  0  0  0999 V2000
  160.0880  209.7180  153.1490 N   0  0  0  0  0  0  0  0  0  0  0  0
  160.6340  211.5660  156.4230 C   0  0  0  0  0  0  0  0  0  0  0  0
  160.8470  210.8950  155.2100 C   0  0  0  0  0  0  0  0  0  0  0  0
  163.1590  210.7110  155.7830 N   0  0  0  0  0  0  0  0  0  0  0  0
  159.7370  210.6820  154.2040 C   0  0  1  0  0  3  0  0  0  0  0  0
  162.3860  209.7160  153.7270 N   0  0  0  0  0  2  0  0  0  0  0  0
  162.9340  211.3740  156.9460 C   0  0  0  0  0  3  0  0  0  0  0  0
  159.3340  212.0220  156.7860 N   0  0  0  0  0  1  0  0  0  0  0  0
  162.1430  210.4640  154.9160 C   0  0  0  0  0  0  0  0  0  0  0  0
  161.2970  209.3030  152.8940 C   0  0  0  0  0  0  0  0  0  0  0  0
  161.6800  211.7920  157.2610 N   0  0  0  0  0  0  0  0  0  0  0  0
  161.8530  208.0060  149.3490 C   0  0  0  0  0  2  0  0  0  0  0  0
  161.0460  206.2320  152.9600 C   0  0  0  0  0  2  0  0  0  0  0  0
  161.2100  204.7680  152.6340 C   0  0  0  0  0  2  0  0  0  0  0  0
  162.0150  206.0590  150.7230 C   0  0  1  0  0  3  0  0  0  0  0  0
  161.5450  208.3900  151.7540 C   0  0  0  0  0  0  0  0  0  0  0  0
  161.7590  205.9050  148.3770 C   0  0  0  0  0  1  0  0  0  0  0  0
  161.9600  206.9490  151.9870 C   0  0  1  0  0  3  0  0  0  0  0  0
  161.3880  204.7100  151.1310 C   0  0  2  0  0  3  0  0  0  0  0  0
  160.1360  204.5220  150.5390 O   0  0  0  0  0  1  0  0  0  0  0  0
  161.4860  208.8690  150.5090 C   0  0  0  0  0  3  0  0  0  0  0  0
  161.3440  206.6560  149.5530 N   0  0  0  0  0  0  0  0  0  0  0  0
  157.7570  212.0610  153.4720 C   0  0  0  0  0  2  0  0  0  0  0  0
  157.3440  213.3190  152.7180 C   0  0  0  0  0  2  0  0  0  0  0  0
  159.9800  212.3120  152.2800 C   0  0  0  0  0  3  0  0  0  0  0  0
  159.3580  212.9210  151.2570 C   0  0  0  0  0  3  0  0  0  0  0  0
  157.8890  213.2550  151.2940 C   0  0  2  0  0  3  0  0  0  0  0  0
  159.2800  212.0100  153.5880 C   0  0  2  0  0  3  0  0  0  0  0  0
  157.6630  214.4530  150.6450 F   0  0  0  0  0  0  0  0  0  0  0  0
  2  8  1  0  0  0  0
  2 11  1  0  0  0  0
  3  2  2  0  0  0  0
  4  7  1  0  0  0  0
  5  1  1  6  0  0  0
  5  3  1  0  0  0  0
  6  9  1  0  0  0  0
  7 11  2  0  0  0  0
  9  3  1  0  0  0  0
  9  4  2  0  0  0  0
 10  1  2  0  0  0  0
 10  6  1  0  0  0  0
 12 22  1  0  0  0  0
 12 21  1  0  0  0  0
 14 13  1  0  0  0  0
 15 22  1  6  0  0  0
 15 19  1  0  0  0  0
 15 18  1  0  0  0  0
 16 18  1  0  0  0  0
 16 10  1  0  0  0  0
 17 22  1  0  0  0  0
 18 13  1  1  0  0  0
 19 20  1  6  0  0  0
 19 14  1  0  0  0  0
 21 16  2  0  0  0  0
 23 28  1  0  0  0  0
 24 23  1  0  0  0  0
 26 27  1  0  0  0  0
 26 25  2  0  0  0  0
 27 29  1  1  0  0  0
 27 24  1  0  0  0  0
 28 25  1  6  0  0  0
 28  5  1  0  0  0  0
M  END
>  <MODEL>
3

>  <REMARK>
 VINA RESULT:      -6.5      2.732      4.199
  Name = 
  2 active torsions:
  status: ('A' for Active; 'I' for Inactive)
    1  A    between atoms: C_12  and  C_27
    2  A    between atoms: C_16  and  C_21
                            x       y       z     vdW  Elec       q    Type
                         _______ _______ _______ _____ _____    ______ ____

>  <TORSDO>
F 2

$$$$
=
 OpenBabel11072413503D

 29 33  0  0  1  0  0  0  0  0999 V2000
  160.4530  207.8670  151.8050 N   0  0  0  0  0  0  0  0  0  0  0  0
  160.8410  210.3560  154.6490 C   0  0  0  0  0  0  0  0  0  0  0  0
  160.9500  209.2140  153.8410 C   0  0  0  0  0  0  0  0  0  0  0  0
  161.9560  208.0750  155.6850 N   0  0  0  0  0  0  0  0  0  0  0  0
  160.5320  209.2160  152.3860 C   0  0  1  0  0  3  0  0  0  0  0  0
  161.5780  206.8650  153.6340 N   0  0  0  0  0  2  0  0  0  0  0  0
  161.8520  209.1950  156.4460 C   0  0  0  0  0  3  0  0  0  0  0  0
  160.2660  211.5560  154.1410 N   0  0  0  0  0  1  0  0  0  0  0  0
  161.5150  208.0650  154.4000 C   0  0  0  0  0  0  0  0  0  0  0  0
  160.9630  206.7940  152.3420 C   0  0  0  0  0  0  0  0  0  0  0  0
  161.2950  210.3210  155.9290 N   0  0  0  0  0  0  0  0  0  0  0  0
  161.0250  203.0470  151.6270 C   0  0  0  0  0  2  0  0  0  0  0  0
  161.0580  206.4170  149.2850 C   0  0  0  0  0  2  0  0  0  0  0  0
  160.8940  205.8380  147.9020 C   0  0  0  0  0  2  0  0  0  0  0  0
  160.5210  204.0440  149.5160 C   0  0  1  0  0  3  0  0  0  0  0  0
  160.8920  205.4990  151.6290 C   0  0  0  0  0  0  0  0  0  0  0  0
  161.2060  201.7870  149.6910 C   0  0  0  0  0  1  0  0  0  0  0  0
  160.3770  205.4220  150.2040 C   0  0  1  0  0  3  0  0  0  0  0  0
  160.9990  204.3380  148.0790 C   0  0  2  0  0  3  0  0  0  0  0  0
  162.3300  203.9570  147.8890 O   0  0  0  0  0  1  0  0  0  0  0  0
  161.2060  204.3750  152.2800 C   0  0  0  0  0  3  0  0  0  0  0  0
  161.4260  203.1220  150.2280 N   0  0  0  0  0  0  0  0  0  0  0  0
  160.7050  211.3620  151.0740 C   0  0  0  0  0  2  0  0  0  0  0  0
  161.5880  212.1520  150.1150 C   0  0  0  0  0  2  0  0  0  0  0  0
  162.1090  209.3580  150.4080 C   0  0  0  0  0  3  0  0  0  0  0  0
  162.3370  209.9210  149.2110 C   0  0  0  0  0  3  0  0  0  0  0  0
  161.8580  211.3100  148.8710 C   0  0  2  0  0  3  0  0  0  0  0  0
  161.4480  210.1110  151.5440 C   0  0  2  0  0  3  0  0  0  0  0  0
  162.7840  211.9420  148.0640 F   0  0  0  0  0  0  0  0  0  0  0  0
  1 10  2  0  0  0  0
  2 11  1  0  0  0  0
  3  9  1  0  0  0  0
  3  2  2  0  0  0  0
  4  7  1  0  0  0  0
  5  1  1  6  0  0  0
  5  3  1  0  0  0  0
  6  9  1  0  0  0  0
  8  2  1  0  0  0  0
  9  4  2  0  0  0  0
 10  6  1  0  0  0  0
 11  7  2  0  0  0  0
 12 21  1  0  0  0  0
 14 19  1  0  0  0  0
 14 13  1  0  0  0  0
 15 18  1  0  0  0  0
 15 22  1  1  0  0  0
 16 21  2  0  0  0  0
 16 10  1  0  0  0  0
 17 22  1  0  0  0  0
 18 13  1  6  0  0  0
 18 16  1  0  0  0  0
 19 20  1  1  0  0  0
 19 15  1  0  0  0  0
 22 12  1  0  0  0  0
 23 28  1  0  0  0  0
 24 23  1  0  0  0  0
 26 25  2  0  0  0  0
 27 29  1  6  0  0  0
 27 26  1  0  0  0  0
 27 24  1  0  0  0  0
 28 25  1  6  0  0  0
 28  5  1  0  0  0  0
M  END
>  <MODEL>
4

>  <REMARK>
 VINA RESULT:      -6.2      3.124      5.497
  Name = 
  2 active torsions:
  status: ('A' for Active; 'I' for Inactive)
    1  A    between atoms: C_12  and  C_27
    2  A    between atoms: C_16  and  C_21
                            x       y       z     vdW  Elec       q    Type
                         _______ _______ _______ _____ _____    ______ ____

>  <TORSDO>
F 2

$$$$
=
 OpenBabel11072413503D

 29 33  0  0  1  0  0  0  0  0999 V2000
  160.0310  208.8790  152.4160 N   0  0  0  0  0  0  0  0  0  0  0  0
  159.9270  210.2080  155.9730 C   0  0  0  0  0  0  0  0  0  0  0  0
  160.3120  209.5400  154.8010 C   0  0  0  0  0  0  0  0  0  0  0  0
  161.9100  208.3190  156.0920 N   0  0  0  0  0  0  0  0  0  0  0  0
  159.7140  209.8740  153.4520 C   0  0  1  0  0  3  0  0  0  0  0  0
  161.6900  207.8260  153.7420 N   0  0  0  0  0  2  0  0  0  0  0  0
  161.5300  208.9860  157.2120 C   0  0  0  0  0  3  0  0  0  0  0  0
  158.8990  211.1940  155.9460 N   0  0  0  0  0  1  0  0  0  0  0  0
  161.3200  208.5760  154.8960 C   0  0  0  0  0  0  0  0  0  0  0  0
  160.9580  207.9680  152.5180 C   0  0  0  0  0  0  0  0  0  0  0  0
  160.5440  209.9190  157.1480 N   0  0  0  0  0  0  0  0  0  0  0  0
  161.6050  206.7030  148.9770 C   0  0  0  0  0  2  0  0  0  0  0  0
  160.7700  204.8920  152.5650 C   0  0  0  0  0  2  0  0  0  0  0  0
  160.9690  203.4340  152.2330 C   0  0  0  0  0  2  0  0  0  0  0  0
  161.7820  204.7510  150.3440 C   0  0  1  0  0  3  0  0  0  0  0  0
  161.2450  207.0670  151.3790 C   0  0  0  0  0  0  0  0  0  0  0  0
  161.5710  204.6050  147.9930 C   0  0  0  0  0  1  0  0  0  0  0  0
  161.6860  205.6330  151.6110 C   0  0  1  0  0  3  0  0  0  0  0  0
  161.1760  203.3880  150.7340 C   0  0  2  0  0  3  0  0  0  0  0  0
  159.9380  203.1770  150.1180 O   0  0  0  0  0  1  0  0  0  0  0  0
  161.1990  207.5510  150.1350 C   0  0  0  0  0  3  0  0  0  0  0  0
  161.1200  205.3400  149.1660 N   0  0  0  0  0  0  0  0  0  0  0  0
  158.9000  212.1800  152.8410 C   0  0  0  0  0  2  0  0  0  0  0  0
  159.3200  213.5150  152.2370 C   0  0  0  0  0  2  0  0  0  0  0  0
  160.9920  211.2500  151.7510 C   0  0  0  0  0  3  0  0  0  0  0  0
  160.9060  212.1890  150.7950 C   0  0  0  0  0  3  0  0  0  0  0  0
  159.8680  213.2810  150.8310 C   0  0  2  0  0  3  0  0  0  0  0  0
  160.1240  211.2770  152.9930 C   0  0  2  0  0  3  0  0  0  0  0  0
  160.4010  214.4530  150.3300 F   0  0  0  0  0  0  0  0  0  0  0  0
  1 10  2  0  0  0  0
  2 11  1  0  0  0  0
  3  9  1  0  0  0  0
  3  2  2  0  0  0  0
  4  7  1  0  0  0  0
  5  1  1  6  0  0  0
  5  3  1  0  0  0  0
  6  9  1  0  0  0  0
  8  2  1  0  0  0  0
  9  4  2  0  0  0  0
 10  6  1  0  0  0  0
 11  7  2  0  0  0  0
 12 22  1  0  0  0  0
 12 21  1  0  0  0  0
 14 13  1  0  0  0  0
 15 22  1  6  0  0  0
 15 19  1  0  0  0  0
 15 18  1  0  0  0  0
 16 18  1  0  0  0  0
 16 10  1  0  0  0  0
 17 22  1  0  0  0  0
 18 13  1  1  0  0  0
 19 20  1  6  0  0  0
 19 14  1  0  0  0  0
 21 16  2  0  0  0  0
 23 28  1  0  0  0  0
 24 23  1  0  0  0  0
 26 27  1  0  0  0  0
 26 25  2  0  0  0  0
 27 29  1  1  0  0  0
 27 24  1  0  0  0  0
 28 25  1  6  0  0  0
 28  5  1  0  0  0  0
M  END
>  <MODEL>
5

>  <REMARK>
 VINA RESULT:      -5.9      2.832      4.639
  Name = 
  2 active torsions:
  status: ('A' for Active; 'I' for Inactive)
    1  A    between atoms: C_12  and  C_27
    2  A    between atoms: C_16  and  C_21
                            x       y       z     vdW  Elec       q    Type
                         _______ _______ _______ _____ _____    ______ ____

>  <TORSDO>
F 2

$$$$
=
 OpenBabel11072413503D

 29 33  0  0  1  0  0  0  0  0999 V2000
  160.6030  206.8620  150.0280 N   0  0  0  0  0  0  0  0  0  0  0  0
  160.8350  208.4050  153.4920 C   0  0  0  0  0  0  0  0  0  0  0  0
  160.9610  207.5320  152.4010 C   0  0  0  0  0  0  0  0  0  0  0  0
  161.6930  205.8350  153.9160 N   0  0  0  0  0  0  0  0  0  0  0  0
  160.7010  207.9800  150.9800 C   0  0  1  0  0  3  0  0  0  0  0  0
  161.4640  205.2900  151.5780 N   0  0  0  0  0  2  0  0  0  0  0  0
  161.5770  206.7000  154.9570 C   0  0  0  0  0  3  0  0  0  0  0  0
  160.3910  209.7460  153.3070 N   0  0  0  0  0  1  0  0  0  0  0  0
  161.3920  206.2260  152.6510 C   0  0  0  0  0  0  0  0  0  0  0  0
  160.9870  205.6410  150.2740 C   0  0  0  0  0  0  0  0  0  0  0  0
  161.1470  207.9710  154.7420 N   0  0  0  0  0  0  0  0  0  0  0  0
  160.6360  202.2720  148.5180 C   0  0  0  0  0  2  0  0  0  0  0  0
  161.9040  205.9980  147.3540 C   0  0  0  0  0  2  0  0  0  0  0  0
  162.0560  205.8250  145.8630 C   0  0  0  0  0  2  0  0  0  0  0  0
  160.9390  203.8380  146.7390 C   0  0  1  0  0  3  0  0  0  0  0  0
  160.9150  204.6100  149.2140 C   0  0  0  0  0  0  0  0  0  0  0  0
  161.1630  201.5090  146.3950 C   0  0  0  0  0  1  0  0  0  0  0  0
  160.8310  205.0030  147.7500 C   0  0  1  0  0  3  0  0  0  0  0  0
  161.8560  204.3460  145.6080 C   0  0  2  0  0  3  0  0  0  0  0  0
  163.1040  203.7150  145.6310 O   0  0  0  0  0  1  0  0  0  0  0  0
  160.8360  203.3220  149.5580 C   0  0  0  0  0  3  0  0  0  0  0  0
  161.4340  202.5840  147.3380 N   0  0  0  0  0  0  0  0  0  0  0  0
  161.3440  210.4160  150.8860 C   0  0  0  0  0  2  0  0  0  0  0  0
  162.3270  211.4080  150.2770 C   0  0  0  0  0  2  0  0  0  0  0  0
  162.0890  208.8430  149.0430 C   0  0  0  0  0  3  0  0  0  0  0  0
  162.3630  209.8980  148.2590 C   0  0  0  0  0  3  0  0  0  0  0  0
  162.2550  211.3170  148.7540 C   0  0  2  0  0  3  0  0  0  0  0  0
  161.7540  208.9920  150.5130 C   0  0  2  0  0  3  0  0  0  0  0  0
  163.2490  212.0900  148.1860 F   0  0  0  0  0  0  0  0  0  0  0  0
  1 10  2  0  0  0  0
  2 11  1  0  0  0  0
  3  9  1  0  0  0  0
  3  2  2  0  0  0  0
  4  7  1  0  0  0  0
  5  1  1  6  0  0  0
  5  3  1  0  0  0  0
  6  9  1  0  0  0  0
  8  2  1  0  0  0  0
  9  4  2  0  0  0  0
 10  6  1  0  0  0  0
 11  7  2  0  0  0  0
 12 21  1  0  0  0  0
 14 13  1  0  0  0  0
 15 22  1  1  0  0  0
 15 18  1  0  0  0  0
 16 21  2  0  0  0  0
 16 10  1  0  0  0  0
 17 22  1  0  0  0  0
 18 13  1  6  0  0  0
 18 16  1  0  0  0  0
 19 20  1  1  0  0  0
 19 14  1  0  0  0  0
 19 15  1  0  0  0  0
 22 12  1  0  0  0  0
 24 23  1  0  0  0  0
 26 27  1  0  0  0  0
 26 25  2  0  0  0  0
 27 29  1  6  0  0  0
 27 24  1  0  0  0  0
 28 25  1  6  0  0  0
 28 23  1  0  0  0  0
 28  5  1  0  0  0  0
M  END
>  <MODEL>
6

>  <REMARK>
 VINA RESULT:      -5.6      3.643      6.544
  Name = 
  2 active torsions:
  status: ('A' for Active; 'I' for Inactive)
    1  A    between atoms: C_12  and  C_27
    2  A    between atoms: C_16  and  C_21
                            x       y       z     vdW  Elec       q    Type
                         _______ _______ _______ _____ _____    ______ ____

>  <TORSDO>
F 2

$$$$
=
 OpenBabel11072413503D

 29 33  0  0  1  0  0  0  0  0999 V2000
  160.4590  206.1410  151.3650 N   0  0  0  0  0  0  0  0  0  0  0  0
  161.2510  206.3750  147.6560 C   0  0  0  0  0  0  0  0  0  0  0  0
  161.2700  206.5620  149.0470 C   0  0  1  0  0  3  0  0  0  0  0  0
  162.7050  208.4430  148.7170 N   0  0  0  0  0  0  0  0  0  0  0  0
  160.5640  205.6160  149.9940 C   0  0  1  0  0  3  0  0  0  0  0  0
  162.0000  207.8950  150.9560 N   0  0  0  0  0  2  0  0  0  0  0  0
  162.6840  208.2370  147.3750 C   0  0  0  0  0  2  0  0  0  0  0  0
  160.5040  205.3100  147.0730 N   0  0  0  0  0  1  0  0  0  0  0  0
  162.0130  207.6300  149.5560 C   0  0  0  0  0  0  0  0  0  0  0  0
  161.1390  207.1520  151.8280 C   0  0  0  0  0  0  0  0  0  0  0  0
  161.9580  207.2120  146.8540 N   0  0  0  0  0  0  0  0  0  0  0  0
  160.8250  206.9520  155.6250 C   0  0  0  0  0  2  0  0  0  0  0  0
  160.3330  209.9420  152.8570 C   0  0  0  0  0  2  0  0  0  0  0  0
  160.1600  211.1570  153.7350 C   0  0  0  0  0  2  0  0  0  0  0  0
  160.8530  209.2950  155.1560 C   0  0  1  0  0  3  0  0  0  0  0  0
  161.0120  207.5450  153.2500 C   0  0  0  0  0  0  0  0  0  0  0  0
  160.1720  208.4580  157.2610 C   0  0  0  0  0  1  0  0  0  0  0  0
  161.1840  208.9920  153.6760 C   0  0  1  0  0  3  0  0  0  0  0  0
  160.0640  210.6200  155.1480 C   0  0  2  0  0  3  0  0  0  0  0  0
  158.7150  210.4210  155.4600 O   0  0  0  0  0  1  0  0  0  0  0  0
  160.8310  206.6000  154.1760 C   0  0  0  0  0  3  0  0  0  0  0  0
  160.1140  208.2090  155.8280 N   0  0  0  0  0  0  0  0  0  0  0  0
  160.5230  203.2910  149.0210 C   0  0  0  0  0  2  0  0  0  0  0  0
  161.1010  201.8870  149.1590 C   0  0  0  0  0  2  0  0  0  0  0  0
  161.3470  203.6530  151.3910 C   0  0  0  0  0  3  0  0  0  0  0  0
  161.2050  202.3400  151.6360 C   0  0  0  0  0  3  0  0  0  0  0  0
  160.8100  201.3600  150.5620 C   0  0  2  0  0  3  0  0  0  0  0  0
  161.2260  204.2340  149.9970 C   0  0  2  0  0  3  0  0  0  0  0  0
  161.4620  200.1580  150.7600 F   0  0  0  0  0  0  0  0  0  0  0  0
  1 10  2  0  0  0  0
  3  2  1  1  0  0  0
  3  9  1  0  0  0  0
  3  5  1  0  0  0  0
  4  9  2  0  0  0  0
  5 28  1  0  0  0  0
  5  1  1  1  0  0  0
  6 10  1  0  0  0  0
  7  4  1  0  0  0  0
  8  2  1  0  0  0  0
  9  6  1  0  0  0  0
 10 16  1  0  0  0  0
 11  7  1  0  0  0  0
 11  2  2  0  0  0  0
 12 22  1  0  0  0  0
 13 14  1  0  0  0  0
 14 19  1  0  0  0  0
 15 22  1  6  0  0  0
 16 18  1  0  0  0  0
 16 21  2  0  0  0  0
 18 13  1  6  0  0  0
 18 15  1  0  0  0  0
 19 15  1  0  0  0  0
 19 20  1  6  0  0  0
 21 12  1  0  0  0  0
 22 17  1  0  0  0  0
 23 24  1  0  0  0  0
 24 27  1  0  0  0  0
 25 26  2  0  0  0  0
 27 29  1  1  0  0  0
 27 26  1  0  0  0  0
 28 23  1  6  0  0  0
 28 25  1  0  0  0  0
M  END
>  <MODEL>
7

>  <REMARK>
 VINA RESULT:      -5.3      3.350      7.672
  Name = 
  2 active torsions:
  status: ('A' for Active; 'I' for Inactive)
    1  A    between atoms: C_12  and  C_27
    2  A    between atoms: C_16  and  C_21
                            x       y       z     vdW  Elec       q    Type
                         _______ _______ _______ _____ _____    ______ ____

>  <TORSDO>
F 2

$$$$
=
 OpenBabel11072413503D

 29 33  0  0  1  0  0  0  0  0999 V2000
  161.1220  211.7620  141.8180 N   0  0  0  0  0  0  0  0  0  0  0  0
  158.7150  210.9160  139.0030 C   0  0  0  0  0  0  0  0  0  0  0  0
  159.3480  211.5520  140.0810 C   0  0  0  0  0  0  0  0  0  0  0  0
  157.4240  212.9490  140.3120 N   0  0  0  0  0  0  0  0  0  0  0  0
  160.7560  211.1990  140.5090 C   0  0  1  0  0  3  0  0  0  0  0  0
  159.2410  213.2020  141.8770 N   0  0  0  0  0  2  0  0  0  0  0  0
  156.8340  212.3290  139.2580 C   0  0  0  0  0  3  0  0  0  0  0  0
  159.3590  209.8550  138.3020 N   0  0  0  0  0  1  0  0  0  0  0  0
  158.6610  212.5790  140.7330 C   0  0  0  0  0  0  0  0  0  0  0  0
  160.4640  212.7050  142.4320 C   0  0  0  0  0  0  0  0  0  0  0  0
  157.4770  211.3180  138.6150 N   0  0  0  0  0  0  0  0  0  0  0  0
  162.7720  214.2450  145.0510 C   0  0  0  0  0  2  0  0  0  0  0  0
  159.1270  212.3650  145.1870 C   0  0  0  0  0  2  0  0  0  0  0  0
  158.7180  212.5780  146.6240 C   0  0  0  0  0  2  0  0  0  0  0  0
  160.6970  213.9440  146.1950 C   0  0  1  0  0  3  0  0  0  0  0  0
  160.9690  213.2530  143.7120 C   0  0  0  0  0  0  0  0  0  0  0  0
  162.7060  214.3840  147.3630 C   0  0  0  0  0  1  0  0  0  0  0  0
  160.0230  213.5440  144.8620 C   0  0  1  0  0  3  0  0  0  0  0  0
  159.9280  213.1890  147.2990 C   0  0  2  0  0  3  0  0  0  0  0  0
  160.6970  212.1620  147.8540 O   0  0  0  0  0  1  0  0  0  0  0  0
  162.2610  213.5760  143.8200 C   0  0  0  0  0  3  0  0  0  0  0  0
  162.1440  213.6620  146.2310 N   0  0  0  0  0  0  0  0  0  0  0  0
  163.1990  211.2490  139.8890 C   0  0  0  0  0  2  0  0  0  0  0  0
  164.2040  211.8010  138.8860 C   0  0  0  0  0  2  0  0  0  0  0  0
  161.6420  213.0550  139.0280 C   0  0  0  0  0  3  0  0  0  0  0  0
  162.7030  213.8190  138.7250 C   0  0  0  0  0  3  0  0  0  0  0  0
  164.1190  213.3250  138.8750 C   0  0  2  0  0  3  0  0  0  0  0  0
  161.7810  211.6050  139.4440 C   0  0  2  0  0  3  0  0  0  0  0  0
  164.9050  213.8360  137.8600 F   0  0  0  0  0  0  0  0  0  0  0  0
  1 10  2  0  0  0  0
  2  3  2  0  0  0  0
  3  9  1  0  0  0  0
  4  9  2  0  0  0  0
  5  3  1  6  0  0  0
  5  1  1  0  0  0  0
  6 10  1  0  0  0  0
  7  4  1  0  0  0  0
  8  2  1  0  0  0  0
  9  6  1  0  0  0  0
 10 16  1  0  0  0  0
 11  2  1  0  0  0  0
 11  7  2  0  0  0  0
 12 22  1  0  0  0  0
 13 14  1  0  0  0  0
 14 19  1  0  0  0  0
 15 22  1  6  0  0  0
 15 19  1  0  0  0  0
 16 21  2  0  0  0  0
 16 18  1  0  0  0  0
 18 13  1  1  0  0  0
 18 15  1  0  0  0  0
 19 20  1  6  0  0  0
 21 12  1  0  0  0  0
 22 17  1  0  0  0  0
 24 23  1  0  0  0  0
 26 27  1  0  0  0  0
 26 25  2  0  0  0  0
 27 29  1  6  0  0  0
 27 24  1  0  0  0  0
 28 25  1  1  0  0  0
 28 23  1  0  0  0  0
 28  5  1  0  0  0  0
M  END
>  <MODEL>
8

>  <REMARK>
 VINA RESULT:      -5.1      9.254     13.460
  Name = 
  2 active torsions:
  status: ('A' for Active; 'I' for Inactive)
    1  A    between atoms: C_12  and  C_27
    2  A    between atoms: C_16  and  C_21
                            x       y       z     vdW  Elec       q    Type
                         _______ _______ _______ _____ _____    ______ ____

>  <TORSDO>
F 2

$$$$
=
 OpenBabel11072413503D

 29 33  0  0  1  0  0  0  0  0999 V2000
  161.0170  210.6650  152.4150 N   0  0  0  0  0  0  0  0  0  0  0  0
  160.7680  209.6030  156.0540 C   0  0  0  0  0  0  0  0  0  0  0  0
  160.5100  210.1940  154.8080 C   0  0  0  0  0  0  0  0  0  0  0  0
  158.8570  211.5580  155.8640 N   0  0  0  0  0  0  0  0  0  0  0  0
  161.2060  209.7400  153.5440 C   0  0  1  0  0  3  0  0  0  0  0  0
  159.2940  211.8670  153.5120 N   0  0  0  0  0  2  0  0  0  0  0  0
  159.1140  210.9650  157.0570 C   0  0  0  0  0  3  0  0  0  0  0  0
  161.7560  208.5850  156.1870 N   0  0  0  0  0  1  0  0  0  0  0  0
  159.5350  211.1940  154.7450 C   0  0  0  0  0  0  0  0  0  0  0  0
  160.1200  211.6110  152.3710 C   0  0  0  0  0  0  0  0  0  0  0  0
  160.0660  209.9990  157.1470 N   0  0  0  0  0  0  0  0  0  0  0  0
  158.7020  214.0570  149.8100 C   0  0  0  0  0  2  0  0  0  0  0  0
  161.6840  211.2380  149.7410 C   0  0  0  0  0  2  0  0  0  0  0  0
  162.3300  211.4990  148.4030 C   0  0  0  0  0  2  0  0  0  0  0  0
  160.7560  213.3130  148.8420 C   0  0  1  0  0  3  0  0  0  0  0  0
  159.9650  212.4330  151.1490 C   0  0  0  0  0  0  0  0  0  0  0  0
  159.1230  214.4530  147.5660 C   0  0  0  0  0  1  0  0  0  0  0  0
  161.1050  212.5760  150.1570 C   0  0  1  0  0  3  0  0  0  0  0  0
  161.4370  212.5090  147.7160 C   0  0  2  0  0  3  0  0  0  0  0  0
  160.5030  211.8230  146.9340 O   0  0  0  0  0  1  0  0  0  0  0  0
  158.8370  213.1250  150.9650 C   0  0  0  0  0  3  0  0  0  0  0  0
  159.3060  213.4670  148.6210 N   0  0  0  0  0  0  0  0  0  0  0  0
  161.5800  207.2780  153.9360 C   0  0  0  0  0  2  0  0  0  0  0  0
  161.2500  205.8840  153.4170 C   0  0  0  0  0  2  0  0  0  0  0  0
  160.8320  208.0930  151.6550 C   0  0  0  0  0  3  0  0  0  0  0  0
  161.2020  206.9190  151.1190 C   0  0  0  0  0  3  0  0  0  0  0  0
  161.6960  205.7710  151.9610 C   0  0  2  0  0  3  0  0  0  0  0  0
  160.7830  208.3200  153.1520 C   0  0  2  0  0  3  0  0  0  0  0  0
  161.2630  204.5740  151.4250 F   0  0  0  0  0  0  0  0  0  0  0  0
  2  8  1  0  0  0  0
  2 11  1  0  0  0  0
  3  2  2  0  0  0  0
  4  7  1  0  0  0  0
  5  1  1  6  0  0  0
  5  3  1  0  0  0  0
  6  9  1  0  0  0  0
  7 11  2  0  0  0  0
  9  3  1  0  0  0  0
  9  4  2  0  0  0  0
 10  1  2  0  0  0  0
 10  6  1  0  0  0  0
 12 21  1  0  0  0  0
 14 13  1  0  0  0  0
 15 22  1  6  0  0  0
 15 18  1  0  0  0  0
 16 10  1  0  0  0  0
 17 22  1  0  0  0  0
 18 13  1  6  0  0  0
 18 16  1  0  0  0  0
 19 20  1  1  0  0  0
 19 14  1  0  0  0  0
 19 15  1  0  0  0  0
 21 16  2  0  0  0  0
 22 12  1  0  0  0  0
 24 23  1  0  0  0  0
 26 25  2  0  0  0  0
 26 27  1  0  0  0  0
 27 29  1  6  0  0  0
 27 24  1  0  0  0  0
 28 25  1  6  0  0  0
 28  5  1  0  0  0  0
 28 23  1  0  0  0  0
M  END
>  <MODEL>
9

>  <REMARK>
 VINA RESULT:      -5.1      2.890      4.574
  Name = 
  2 active torsions:
  status: ('A' for Active; 'I' for Inactive)
    1  A    between atoms: C_12  and  C_27
    2  A    between atoms: C_16  and  C_21
                            x       y       z     vdW  Elec       q    Type
                         _______ _______ _______ _____ _____    ______ ____

>  <TORSDO>
F 2

$$$$
