=
 OpenBabel11072411163D

 28 30  0  0  0  0  0  0  0  0999 V2000
  161.8620  208.3490  149.5810 C   0  0  0  0  0  0  0  0  0  0  0  0
  161.5760  208.6710  151.9840 C   0  0  0  0  0  3  0  0  0  0  0  0
  161.5970  206.0530  148.8410 O   0  0  0  0  0  0  0  0  0  0  0  0
  161.1800  205.1290  150.8020 C   0  0  0  0  0  0  0  0  0  0  0  0
  161.3440  207.2950  152.1870 C   0  0  0  0  0  0  0  0  0  0  0  0
  161.6270  206.9910  149.7740 C   0  0  0  0  0  0  0  0  0  0  0  0
  161.3250  204.9330  149.4730 C   0  0  0  0  0  0  0  0  0  0  0  0
  161.3750  206.4730  151.0430 C   0  0  0  0  0  0  0  0  0  0  0  0
  161.8320  209.1930  150.7000 C   0  0  0  0  0  3  0  0  0  0  0  0
  160.8510  202.7870  150.1220 C   0  0  0  0  0  0  0  0  0  0  0  0
  161.1530  203.6230  149.0270 C   0  0  0  0  0  0  0  0  0  0  0  0
  162.1130  208.8580  148.3140 O   0  0  0  0  0  1  0  0  0  0  0  0
  160.5910  201.3210  150.0640 C   0  0  0  0  0  1  0  0  0  0  0  0
  160.8070  203.6880  151.5720 S   0  0  0  0  0  0  0  0  0  0  0  0
  161.9840  203.8590  146.8130 O   0  0  0  0  0  0  0  0  0  0  0  0
  160.5640  202.0450  147.1570 N   0  0  0  0  0  2  0  0  0  0  0  0
  161.2680  203.2020  147.6150 C   0  0  0  0  0  0  0  0  0  0  0  0
  160.6430  201.5890  145.7800 C   0  0  0  0  0  1  0  0  0  0  0  0
  160.4190  207.6460  154.5000 N   0  0  0  0  0  2  0  0  0  0  0  0
  161.4930  205.6660  153.9200 O   0  0  0  0  0  0  0  0  0  0  0  0
  161.0960  206.8050  153.5600 C   0  0  0  0  0  0  0  0  0  0  0  0
  160.1180  207.2260  155.8600 C   0  0  0  0  0  2  0  0  0  0  0  0
  160.5180  208.3110  156.8390 C   0  0  0  0  0  2  0  0  0  0  0  0
  161.9510  208.5340  156.7580 N   0  0  0  0  0  2  0  0  0  0  0  0
  162.1740  210.6410  154.8980 O   0  0  0  0  0  0  0  0  0  0  0  0
  161.1100  211.0220  157.2610 O   0  0  0  0  0  1  0  0  0  0  0  0
  162.2010  210.2560  156.5450 P   0  0  0  0  0  0  0  0  0  0  0  0
  163.7010  210.6860  157.1940 O   0  0  0  0  0  1  0  0  0  0  0  0
  1  6  2  0  0  0  0
  1  9  1  0  0  0  0
  2  5  1  0  0  0  0
  3  7  1  0  0  0  0
  3  6  1  0  0  0  0
  4  8  1  0  0  0  0
  4 14  1  0  0  0  0
  5 21  1  0  0  0  0
  6  8  1  0  0  0  0
  7  4  2  0  0  0  0
  8  5  2  0  0  0  0
  9  2  2  0  0  0  0
 10 14  1  0  0  0  0
 11  7  1  0  0  0  0
 11 10  2  0  0  0  0
 12  1  1  0  0  0  0
 13 10  1  0  0  0  0
 15 17  2  0  0  0  0
 16 17  1  0  0  0  0
 17 11  1  0  0  0  0
 18 16  1  0  0  0  0
 19 22  1  0  0  0  0
 21 20  2  0  0  0  0
 21 19  1  0  0  0  0
 22 23  1  0  0  0  0
 24 23  1  0  0  0  0
 25 27  2  0  0  0  0
 27 24  1  0  0  0  0
 27 28  1  0  0  0  0
 27 26  1  0  0  0  0
M  END
>  <MODEL>
1

>  <REMARK>
 VINA RESULT:      -8.6      0.000      0.000
  Name = 
  6 active torsions:
  status: ('A' for Active; 'I' for Inactive)
    1  A    between atoms: C_2  and  C_16
    2  A    between atoms: C_2  and  N_25
    3  A    between atoms: N_3  and  C_16
    4  A    between atoms: C_9  and  C_14
    5  A    between atoms: P_18  and  N_25
    6  A    between atoms: C_20  and  C_23
                            x       y       z     vdW  Elec       q    Type
                         _______ _______ _______ _____ _____    ______ ____

>  <TORSDO>
F 6

$$$$
=
 OpenBabel11072411163D

 28 30  0  0  0  0  0  0  0  0999 V2000
  161.9040  208.4550  149.6300 C   0  0  0  0  0  0  0  0  0  0  0  0
  161.6390  208.7670  152.0370 C   0  0  0  0  0  3  0  0  0  0  0  0
  161.6120  206.1650  148.8800 O   0  0  0  0  0  0  0  0  0  0  0  0
  161.2000  205.2350  150.8390 C   0  0  0  0  0  0  0  0  0  0  0  0
  161.3950  207.3910  152.2350 C   0  0  0  0  0  0  0  0  0  0  0  0
  161.6570  207.0980  149.8180 C   0  0  0  0  0  0  0  0  0  0  0  0
  161.3330  205.0450  149.5080 C   0  0  0  0  0  0  0  0  0  0  0  0
  161.4100  206.5750  151.0860 C   0  0  0  0  0  0  0  0  0  0  0  0
  161.8910  209.2930  150.7550 C   0  0  0  0  0  3  0  0  0  0  0  0
  160.8430  202.9000  150.1490 C   0  0  0  0  0  0  0  0  0  0  0  0
  161.1450  203.7390  149.0570 C   0  0  0  0  0  0  0  0  0  0  0  0
  162.1510  208.9690  148.3640 O   0  0  0  0  0  1  0  0  0  0  0  0
  160.5690  201.4370  150.0850 C   0  0  0  0  0  1  0  0  0  0  0  0
  160.8190  203.7930  151.6040 S   0  0  0  0  0  0  0  0  0  0  0  0
  160.9090  202.1600  147.2950 O   0  0  0  0  0  0  0  0  0  0  0  0
  161.7290  204.2460  146.6610 N   0  0  0  0  0  2  0  0  0  0  0  0
  161.2460  203.3240  147.6420 C   0  0  0  0  0  0  0  0  0  0  0  0
  161.8470  203.8900  145.2580 C   0  0  0  0  0  1  0  0  0  0  0  0
  160.3530  207.6710  154.5080 N   0  0  0  0  0  2  0  0  0  0  0  0
  161.6590  205.8130  154.0010 O   0  0  0  0  0  0  0  0  0  0  0  0
  161.1530  206.8960  153.6070 C   0  0  0  0  0  0  0  0  0  0  0  0
  160.0510  207.2390  155.8640 C   0  0  0  0  0  2  0  0  0  0  0  0
  160.6020  208.2370  156.8610 C   0  0  0  0  0  2  0  0  0  0  0  0
  162.0030  208.4900  156.5720 N   0  0  0  0  0  2  0  0  0  0  0  0
  163.6140  210.6980  157.2600 O   0  0  0  0  0  1  0  0  0  0  0  0
  162.3020  210.6290  154.9950 O   0  0  0  0  0  0  0  0  0  0  0  0
  162.2060  210.2270  156.4500 P   0  0  0  0  0  0  0  0  0  0  0  0
  160.8750  210.9950  157.1530 O   0  0  0  0  0  1  0  0  0  0  0  0
  1  6  2  0  0  0  0
  1  9  1  0  0  0  0
  2  5  1  0  0  0  0
  3  7  1  0  0  0  0
  3  6  1  0  0  0  0
  4  8  1  0  0  0  0
  4 14  1  0  0  0  0
  5 21  1  0  0  0  0
  6  8  1  0  0  0  0
  7  4  2  0  0  0  0
  8  5  2  0  0  0  0
  9  2  2  0  0  0  0
 10 14  1  0  0  0  0
 11  7  1  0  0  0  0
 11 10  2  0  0  0  0
 12  1  1  0  0  0  0
 13 10  1  0  0  0  0
 15 17  2  0  0  0  0
 16 17  1  0  0  0  0
 17 11  1  0  0  0  0
 18 16  1  0  0  0  0
 19 22  1  0  0  0  0
 21 20  2  0  0  0  0
 21 19  1  0  0  0  0
 22 23  1  0  0  0  0
 24 23  1  0  0  0  0
 26 27  2  0  0  0  0
 27 24  1  0  0  0  0
 27 28  1  0  0  0  0
 27 25  1  0  0  0  0
M  END
>  <MODEL>
2

>  <REMARK>
 VINA RESULT:      -8.6      0.802      1.203
  Name = 
  6 active torsions:
  status: ('A' for Active; 'I' for Inactive)
    1  A    between atoms: C_2  and  C_16
    2  A    between atoms: C_2  and  N_25
    3  A    between atoms: N_3  and  C_16
    4  A    between atoms: C_9  and  C_14
    5  A    between atoms: P_18  and  N_25
    6  A    between atoms: C_20  and  C_23
                            x       y       z     vdW  Elec       q    Type
                         _______ _______ _______ _____ _____    ______ ____

>  <TORSDO>
F 6

$$$$
=
 OpenBabel11072411163D

 28 30  0  0  0  0  0  0  0  0999 V2000
  161.1430  204.0180  152.0920 C   0  0  0  0  0  0  0  0  0  0  0  0
  161.2010  206.3370  152.8520 C   0  0  0  0  0  3  0  0  0  0  0  0
  161.1350  203.7550  149.6800 O   0  0  0  0  0  0  0  0  0  0  0  0
  161.1810  205.8910  149.1240 C   0  0  0  0  0  0  0  0  0  0  0  0
  161.1950  206.8200  151.5260 C   0  0  0  0  0  0  0  0  0  0  0  0
  161.1440  204.4870  150.7820 C   0  0  0  0  0  0  0  0  0  0  0  0
  161.1590  204.6130  148.6840 C   0  0  0  0  0  0  0  0  0  0  0  0
  161.1680  205.8520  150.5020 C   0  0  0  0  0  0  0  0  0  0  0  0
  161.1750  204.9570  153.1340 C   0  0  0  0  0  3  0  0  0  0  0  0
  161.2230  205.7040  146.6700 C   0  0  0  0  0  0  0  0  0  0  0  0
  161.1780  204.4440  147.3000 C   0  0  0  0  0  0  0  0  0  0  0  0
  161.1180  202.6570  152.3640 O   0  0  0  0  0  1  0  0  0  0  0  0
  161.2590  205.9530  145.2010 C   0  0  0  0  0  1  0  0  0  0  0  0
  161.2390  206.9560  147.8310 S   0  0  0  0  0  0  0  0  0  0  0  0
  161.2130  203.0640  145.3650 O   0  0  0  0  0  0  0  0  0  0  0  0
  161.0800  201.9300  147.3950 N   0  0  0  0  0  2  0  0  0  0  0  0
  161.1600  203.1310  146.6220 C   0  0  0  0  0  0  0  0  0  0  0  0
  161.0600  200.6150  146.7780 C   0  0  0  0  0  1  0  0  0  0  0  0
  162.1890  208.8500  150.4220 N   0  0  0  0  0  2  0  0  0  0  0  0
  160.3800  209.0320  151.8730 O   0  0  0  0  0  0  0  0  0  0  0  0
  161.2080  208.2800  151.2950 C   0  0  0  0  0  0  0  0  0  0  0  0
  162.2490  210.2730  150.1270 C   0  0  0  0  0  2  0  0  0  0  0  0
  162.1010  210.5000  148.6350 C   0  0  0  0  0  2  0  0  0  0  0  0
  162.7270  211.7590  148.2710 N   0  0  0  0  0  2  0  0  0  0  0  0
  160.3050  212.1420  146.8810 O   0  0  0  0  0  0  0  0  0  0  0  0
  160.7670  213.3480  149.1590 O   0  0  0  0  0  1  0  0  0  0  0  0
  161.4430  212.8880  147.8860 P   0  0  0  0  0  0  0  0  0  0  0  0
  162.0980  214.2270  147.0890 O   0  0  0  0  0  1  0  0  0  0  0  0
  1 12  1  0  0  0  0
  1  9  1  0  0  0  0
  2  9  2  0  0  0  0
  3  6  1  0  0  0  0
  4  8  1  0  0  0  0
  5  2  1  0  0  0  0
  6  1  2  0  0  0  0
  7  4  2  0  0  0  0
  7  3  1  0  0  0  0
  8  6  1  0  0  0  0
  8  5  2  0  0  0  0
 10 11  2  0  0  0  0
 10 14  1  0  0  0  0
 11  7  1  0  0  0  0
 13 10  1  0  0  0  0
 14  4  1  0  0  0  0
 15 17  2  0  0  0  0
 17 11  1  0  0  0  0
 17 16  1  0  0  0  0
 18 16  1  0  0  0  0
 19 21  1  0  0  0  0
 21  5  1  0  0  0  0
 21 20  2  0  0  0  0
 22 19  1  0  0  0  0
 23 22  1  0  0  0  0
 24 23  1  0  0  0  0
 25 27  2  0  0  0  0
 27 24  1  0  0  0  0
 27 26  1  0  0  0  0
 28 27  1  0  0  0  0
M  END
>  <MODEL>
3

>  <REMARK>
 VINA RESULT:      -8.3      3.570      5.423
  Name = 
  6 active torsions:
  status: ('A' for Active; 'I' for Inactive)
    1  A    between atoms: C_2  and  C_16
    2  A    between atoms: C_2  and  N_25
    3  A    between atoms: N_3  and  C_16
    4  A    between atoms: C_9  and  C_14
    5  A    between atoms: P_18  and  N_25
    6  A    between atoms: C_20  and  C_23
                            x       y       z     vdW  Elec       q    Type
                         _______ _______ _______ _____ _____    ______ ____

>  <TORSDO>
F 6

$$$$
=
 OpenBabel11072411163D

 28 30  0  0  0  0  0  0  0  0999 V2000
  161.9150  209.7940  150.0180 C   0  0  0  0  0  0  0  0  0  0  0  0
  161.9740  207.5350  149.0940 C   0  0  0  0  0  3  0  0  0  0  0  0
  161.3940  209.8930  152.3860 O   0  0  0  0  0  0  0  0  0  0  0  0
  161.1660  207.7290  152.7560 C   0  0  0  0  0  0  0  0  0  0  0  0
  161.6430  206.9660  150.3420 C   0  0  0  0  0  0  0  0  0  0  0  0
  161.5940  209.2390  151.2530 C   0  0  0  0  0  0  0  0  0  0  0  0
  161.1380  208.9700  153.2870 C   0  0  0  0  0  0  0  0  0  0  0  0
  161.4590  207.8610  151.4160 C   0  0  0  0  0  0  0  0  0  0  0  0
  162.1080  208.9280  148.9320 C   0  0  0  0  0  3  0  0  0  0  0  0
  160.6800  207.7450  155.1690 C   0  0  0  0  0  0  0  0  0  0  0  0
  160.8640  209.0440  154.6530 C   0  0  0  0  0  0  0  0  0  0  0  0
  162.0470  211.1670  149.8640 O   0  0  0  0  0  1  0  0  0  0  0  0
  160.3750  207.3950  156.5840 C   0  0  0  0  0  1  0  0  0  0  0  0
  160.8630  206.5770  153.9360 S   0  0  0  0  0  0  0  0  0  0  0  0
  161.8460  210.9010  155.7650 O   0  0  0  0  0  0  0  0  0  0  0  0
  159.5170  210.8500  155.7750 N   0  0  0  0  0  2  0  0  0  0  0  0
  160.7900  210.3050  155.4200 C   0  0  0  0  0  0  0  0  0  0  0  0
  159.3890  212.0860  156.5280 C   0  0  0  0  0  1  0  0  0  0  0  0
  160.7340  204.7900  149.4650 N   0  0  0  0  0  2  0  0  0  0  0  0
  162.0280  204.8650  151.3970 O   0  0  0  0  0  0  0  0  0  0  0  0
  161.5010  205.4980  150.4460 C   0  0  0  0  0  0  0  0  0  0  0  0
  160.5690  203.3450  149.4870 C   0  0  0  0  0  2  0  0  0  0  0  0
  161.0510  202.7490  148.1790 C   0  0  0  0  0  2  0  0  0  0  0  0
  162.1200  203.5680  147.6370 N   0  0  0  0  0  2  0  0  0  0  0  0
  160.6870  205.3840  146.0260 O   0  0  0  0  0  1  0  0  0  0  0  0
  162.9080  204.2820  145.1830 O   0  0  0  0  0  0  0  0  0  0  0  0
  161.6660  204.0050  146.0010 P   0  0  0  0  0  0  0  0  0  0  0  0
  160.8110  202.7270  145.3000 O   0  0  0  0  0  1  0  0  0  0  0  0
  1  6  1  0  0  0  0
  2  5  2  0  0  0  0
  3  7  1  0  0  0  0
  4  7  2  0  0  0  0
  4 14  1  0  0  0  0
  5 21  1  0  0  0  0
  5  8  1  0  0  0  0
  6  8  2  0  0  0  0
  6  3  1  0  0  0  0
  7 11  1  0  0  0  0
  8  4  1  0  0  0  0
  9  2  1  0  0  0  0
  9  1  2  0  0  0  0
 10 13  1  0  0  0  0
 11 10  2  0  0  0  0
 11 17  1  0  0  0  0
 12  1  1  0  0  0  0
 14 10  1  0  0  0  0
 16 18  1  0  0  0  0
 17 15  2  0  0  0  0
 17 16  1  0  0  0  0
 19 22  1  0  0  0  0
 19 21  1  0  0  0  0
 21 20  2  0  0  0  0
 23 22  1  0  0  0  0
 24 23  1  0  0  0  0
 26 27  2  0  0  0  0
 27 25  1  0  0  0  0
 27 24  1  0  0  0  0
 28 27  1  0  0  0  0
M  END
>  <MODEL>
4

>  <REMARK>
 VINA RESULT:      -8.1      3.095      8.281
  Name = 
  6 active torsions:
  status: ('A' for Active; 'I' for Inactive)
    1  A    between atoms: C_2  and  C_16
    2  A    between atoms: C_2  and  N_25
    3  A    between atoms: N_3  and  C_16
    4  A    between atoms: C_9  and  C_14
    5  A    between atoms: P_18  and  N_25
    6  A    between atoms: C_20  and  C_23
                            x       y       z     vdW  Elec       q    Type
                         _______ _______ _______ _____ _____    ______ ____

>  <TORSDO>
F 6

$$$$
=
 OpenBabel11072411163D

 28 30  0  0  0  0  0  0  0  0999 V2000
  161.1560  203.8600  152.0290 C   0  0  0  0  0  0  0  0  0  0  0  0
  161.2960  206.1370  152.9000 C   0  0  0  0  0  3  0  0  0  0  0  0
  161.1830  203.7130  149.6070 O   0  0  0  0  0  0  0  0  0  0  0  0
  161.3300  205.8680  149.1550 C   0  0  0  0  0  0  0  0  0  0  0  0
  161.3370  206.6810  151.5990 C   0  0  0  0  0  0  0  0  0  0  0  0
  161.2020  204.3910  150.7430 C   0  0  0  0  0  0  0  0  0  0  0  0
  161.2630  204.6150  148.6540 C   0  0  0  0  0  0  0  0  0  0  0  0
  161.2890  205.7650  150.5290 C   0  0  0  0  0  0  0  0  0  0  0  0
  161.2070  204.7470  153.1150 C   0  0  0  0  0  3  0  0  0  0  0  0
  161.4110  205.7950  146.6960 C   0  0  0  0  0  0  0  0  0  0  0  0
  161.3010  204.5100  147.2640 C   0  0  0  0  0  0  0  0  0  0  0  0
  161.0690  202.4900  152.2350 O   0  0  0  0  0  1  0  0  0  0  0  0
  161.4870  206.1110  145.2420 C   0  0  0  0  0  1  0  0  0  0  0  0
  161.4580  206.9900  147.9150 S   0  0  0  0  0  0  0  0  0  0  0  0
  161.4870  203.2020  145.2880 O   0  0  0  0  0  0  0  0  0  0  0  0
  160.9020  202.0250  147.2110 N   0  0  0  0  0  2  0  0  0  0  0  0
  161.2410  203.2320  146.5240 C   0  0  0  0  0  0  0  0  0  0  0  0
  160.8290  200.7440  146.5310 C   0  0  0  0  0  1  0  0  0  0  0  0
  160.4570  208.9850  152.0960 N   0  0  0  0  0  2  0  0  0  0  0  0
  162.3010  208.6720  150.7130 O   0  0  0  0  0  0  0  0  0  0  0  0
  161.4150  208.1490  151.4380 C   0  0  0  0  0  0  0  0  0  0  0  0
  160.4840  210.4370  152.0050 C   0  0  0  0  0  2  0  0  0  0  0  0
  159.5740  211.0390  153.0580 C   0  0  0  0  0  2  0  0  0  0  0  0
  160.3340  211.9570  153.8880 N   0  0  0  0  0  2  0  0  0  0  0  0
  159.8120  209.7570  155.5710 O   0  0  0  0  0  1  0  0  0  0  0  0
  162.2600  210.5750  155.1270 O   0  0  0  0  0  0  0  0  0  0  0  0
  160.8440  211.0730  155.3130 P   0  0  0  0  0  0  0  0  0  0  0  0
  160.7860  212.0970  156.6560 O   0  0  0  0  0  1  0  0  0  0  0  0
  1 12  1  0  0  0  0
  1  9  1  0  0  0  0
  2  9  2  0  0  0  0
  3  6  1  0  0  0  0
  4  8  1  0  0  0  0
  5  2  1  0  0  0  0
  6  1  2  0  0  0  0
  7  4  2  0  0  0  0
  7  3  1  0  0  0  0
  8  6  1  0  0  0  0
  8  5  2  0  0  0  0
 10 11  2  0  0  0  0
 10 14  1  0  0  0  0
 11  7  1  0  0  0  0
 13 10  1  0  0  0  0
 14  4  1  0  0  0  0
 15 17  2  0  0  0  0
 17 16  1  0  0  0  0
 17 11  1  0  0  0  0
 18 16  1  0  0  0  0
 20 21  2  0  0  0  0
 21  5  1  0  0  0  0
 21 19  1  0  0  0  0
 22 19  1  0  0  0  0
 22 23  1  0  0  0  0
 23 24  1  0  0  0  0
 24 27  1  0  0  0  0
 26 27  2  0  0  0  0
 27 25  1  0  0  0  0
 27 28  1  0  0  0  0
M  END
>  <MODEL>
5

>  <REMARK>
 VINA RESULT:      -8.0      2.356      3.641
  Name = 
  6 active torsions:
  status: ('A' for Active; 'I' for Inactive)
    1  A    between atoms: C_2  and  C_16
    2  A    between atoms: C_2  and  N_25
    3  A    between atoms: N_3  and  C_16
    4  A    between atoms: C_9  and  C_14
    5  A    between atoms: P_18  and  N_25
    6  A    between atoms: C_20  and  C_23
                            x       y       z     vdW  Elec       q    Type
                         _______ _______ _______ _____ _____    ______ ____

>  <TORSDO>
F 6

$$$$
=
 OpenBabel11072411163D

 28 30  0  0  0  0  0  0  0  0999 V2000
  160.5860  207.3390  155.1030 C   0  0  0  0  0  0  0  0  0  0  0  0
  161.5470  206.8430  152.9140 C   0  0  0  0  0  3  0  0  0  0  0  0
  159.7130  209.5920  155.3250 O   0  0  0  0  0  0  0  0  0  0  0  0
  160.1900  210.3230  153.2990 C   0  0  0  0  0  0  0  0  0  0  0  0
  161.2740  208.1470  152.4480 C   0  0  0  0  0  0  0  0  0  0  0  0
  160.3080  208.6240  154.6470 C   0  0  0  0  0  0  0  0  0  0  0  0
  159.6450  210.6130  154.5000 C   0  0  0  0  0  0  0  0  0  0  0  0
  160.6430  209.0220  153.3550 C   0  0  0  0  0  0  0  0  0  0  0  0
  161.2100  206.4420  154.2220 C   0  0  0  0  0  3  0  0  0  0  0  0
  159.2830  212.6080  153.4320 C   0  0  0  0  0  0  0  0  0  0  0  0
  159.1170  211.8960  154.6380 C   0  0  0  0  0  0  0  0  0  0  0  0
  160.2510  206.9480  156.3920 O   0  0  0  0  0  1  0  0  0  0  0  0
  158.8490  214.0080  153.1700 C   0  0  0  0  0  1  0  0  0  0  0  0
  160.0630  211.6360  152.2640 S   0  0  0  0  0  0  0  0  0  0  0  0
  159.1850  212.8220  156.8260 O   0  0  0  0  0  0  0  0  0  0  0  0
  157.0530  212.4260  155.9770 N   0  0  0  0  0  2  0  0  0  0  0  0
  158.4780  212.4060  155.8690 C   0  0  0  0  0  0  0  0  0  0  0  0
  156.3750  212.9160  157.1640 C   0  0  0  0  0  1  0  0  0  0  0  0
  161.2550  207.6870  149.9750 N   0  0  0  0  0  2  0  0  0  0  0  0
  162.3760  209.5280  150.8500 O   0  0  0  0  0  0  0  0  0  0  0  0
  161.6660  208.5120  151.0700 C   0  0  0  0  0  0  0  0  0  0  0  0
  161.5810  207.9940  148.5910 C   0  0  0  0  0  2  0  0  0  0  0  0
  162.2390  206.7970  147.9350 C   0  0  0  0  0  2  0  0  0  0  0  0
  161.3570  206.2570  146.9150 N   0  0  0  0  0  2  0  0  0  0  0  0
  161.2290  204.1330  145.0660 O   0  0  0  0  0  0  0  0  0  0  0  0
  163.4550  204.7100  146.3180 O   0  0  0  0  0  1  0  0  0  0  0  0
  161.9540  204.6620  146.5000 P   0  0  0  0  0  0  0  0  0  0  0  0
  161.5790  203.5830  147.7460 O   0  0  0  0  0  1  0  0  0  0  0  0
  1 12  1  0  0  0  0
  2  9  1  0  0  0  0
  4  8  1  0  0  0  0
  4  7  2  0  0  0  0
  5  2  2  0  0  0  0
  5  8  1  0  0  0  0
  6  1  1  0  0  0  0
  6  3  1  0  0  0  0
  7 11  1  0  0  0  0
  7  3  1  0  0  0  0
  8  6  2  0  0  0  0
  9  1  2  0  0  0  0
 10 11  2  0  0  0  0
 11 17  1  0  0  0  0
 13 10  1  0  0  0  0
 14  4  1  0  0  0  0
 14 10  1  0  0  0  0
 16 18  1  0  0  0  0
 17 16  1  0  0  0  0
 17 15  2  0  0  0  0
 19 21  1  0  0  0  0
 20 21  2  0  0  0  0
 21  5  1  0  0  0  0
 22 19  1  0  0  0  0
 23 22  1  0  0  0  0
 24 23  1  0  0  0  0
 25 27  2  0  0  0  0
 26 27  1  0  0  0  0
 27 24  1  0  0  0  0
 27 28  1  0  0  0  0
M  END
>  <MODEL>
6

>  <REMARK>
 VINA RESULT:      -7.6      4.162      9.409
  Name = 
  6 active torsions:
  status: ('A' for Active; 'I' for Inactive)
    1  A    between atoms: C_2  and  C_16
    2  A    between atoms: C_2  and  N_25
    3  A    between atoms: N_3  and  C_16
    4  A    between atoms: C_9  and  C_14
    5  A    between atoms: P_18  and  N_25
    6  A    between atoms: C_20  and  C_23
                            x       y       z     vdW  Elec       q    Type
                         _______ _______ _______ _____ _____    ______ ____

>  <TORSDO>
F 6

$$$$
=
 OpenBabel11072411163D

 28 30  0  0  0  0  0  0  0  0999 V2000
  161.5450  207.0800  148.2140 C   0  0  0  0  0  0  0  0  0  0  0  0
  161.5560  207.9860  150.4810 C   0  0  0  0  0  3  0  0  0  0  0  0
  161.2720  204.6720  148.1000 O   0  0  0  0  0  0  0  0  0  0  0  0
  161.1410  204.2600  150.2650 C   0  0  0  0  0  0  0  0  0  0  0  0
  161.4010  206.7020  151.0440 C   0  0  0  0  0  0  0  0  0  0  0  0
  161.3860  205.8120  148.7630 C   0  0  0  0  0  0  0  0  0  0  0  0
  161.1230  203.7420  149.0180 C   0  0  0  0  0  0  0  0  0  0  0  0
  161.3160  205.6220  150.1420 C   0  0  0  0  0  0  0  0  0  0  0  0
  161.6280  208.1750  149.0870 C   0  0  0  0  0  3  0  0  0  0  0  0
  160.8120  201.8210  150.2280 C   0  0  0  0  0  0  0  0  0  0  0  0
  160.9430  202.3620  148.9330 C   0  0  0  0  0  0  0  0  0  0  0  0
  161.6140  207.2620  146.8400 O   0  0  0  0  0  1  0  0  0  0  0  0
  160.6010  200.3860  150.5660 C   0  0  0  0  0  1  0  0  0  0  0  0
  160.9210  203.0520  151.4070 S   0  0  0  0  0  0  0  0  0  0  0  0
  161.4160  200.4610  147.5860 O   0  0  0  0  0  0  0  0  0  0  0  0
  160.2500  202.1720  146.5210 N   0  0  0  0  0  2  0  0  0  0  0  0
  160.8930  201.6050  147.6640 C   0  0  0  0  0  0  0  0  0  0  0  0
  160.1730  201.4710  145.2510 C   0  0  0  0  0  1  0  0  0  0  0  0
  160.7780  207.6170  153.3030 N   0  0  0  0  0  2  0  0  0  0  0  0
  161.8170  205.5470  153.0870 O   0  0  0  0  0  0  0  0  0  0  0  0
  161.3480  206.5660  152.5160 C   0  0  0  0  0  0  0  0  0  0  0  0
  160.6680  207.5450  154.7520 C   0  0  0  0  0  2  0  0  0  0  0  0
  160.5490  208.9400  155.3330 C   0  0  0  0  0  2  0  0  0  0  0  0
  160.7810  209.9220  154.2890 N   0  0  0  0  0  2  0  0  0  0  0  0
  158.3660  210.6290  155.5590 O   0  0  0  0  0  1  0  0  0  0  0  0
  160.0470  212.4560  154.7260 O   0  0  0  0  0  1  0  0  0  0  0  0
  159.4830  211.0970  154.3780 P   0  0  0  0  0  0  0  0  0  0  0  0
  158.7060  211.1840  152.8790 O   0  0  0  0  0  0  0  0  0  0  0  0
  1  6  2  0  0  0  0
  1  9  1  0  0  0  0
  2  5  1  0  0  0  0
  3  6  1  0  0  0  0
  3  7  1  0  0  0  0
  4 14  1  0  0  0  0
  5 21  1  0  0  0  0
  6  8  1  0  0  0  0
  7  4  2  0  0  0  0
  8  4  1  0  0  0  0
  8  5  2  0  0  0  0
  9  2  2  0  0  0  0
 10 13  1  0  0  0  0
 10 14  1  0  0  0  0
 11  7  1  0  0  0  0
 11 10  2  0  0  0  0
 12  1  1  0  0  0  0
 15 17  2  0  0  0  0
 16 17  1  0  0  0  0
 17 11  1  0  0  0  0
 18 16  1  0  0  0  0
 19 22  1  0  0  0  0
 21 20  2  0  0  0  0
 21 19  1  0  0  0  0
 22 23  1  0  0  0  0
 24 27  1  0  0  0  0
 24 23  1  0  0  0  0
 27 26  1  0  0  0  0
 27 25  1  0  0  0  0
 28 27  2  0  0  0  0
M  END
>  <MODEL>
7

>  <REMARK>
 VINA RESULT:      -7.5      1.836      2.273
  Name = 
  6 active torsions:
  status: ('A' for Active; 'I' for Inactive)
    1  A    between atoms: C_2  and  C_16
    2  A    between atoms: C_2  and  N_25
    3  A    between atoms: N_3  and  C_16
    4  A    between atoms: C_9  and  C_14
    5  A    between atoms: P_18  and  N_25
    6  A    between atoms: C_20  and  C_23
                            x       y       z     vdW  Elec       q    Type
                         _______ _______ _______ _____ _____    ______ ____

>  <TORSDO>
F 6

$$$$
=
 OpenBabel11072411163D

 28 30  0  0  0  0  0  0  0  0999 V2000
  160.9740  204.4890  152.7000 C   0  0  0  0  0  0  0  0  0  0  0  0
  161.0150  202.9260  150.8250 C   0  0  0  0  0  3  0  0  0  0  0  0
  161.3430  206.8060  152.0800 O   0  0  0  0  0  0  0  0  0  0  0  0
  161.5870  206.5210  149.9050 C   0  0  0  0  0  0  0  0  0  0  0  0
  161.2770  203.9640  149.9060 C   0  0  0  0  0  0  0  0  0  0  0  0
  161.2270  205.5180  151.7980 C   0  0  0  0  0  0  0  0  0  0  0  0
  161.5580  207.4020  150.9290 C   0  0  0  0  0  0  0  0  0  0  0  0
  161.3760  205.2670  150.4360 C   0  0  0  0  0  0  0  0  0  0  0  0
  160.8660  203.1820  152.2030 C   0  0  0  0  0  3  0  0  0  0  0  0
  161.9200  208.8540  149.1930 C   0  0  0  0  0  0  0  0  0  0  0  0
  161.7450  208.7410  150.5870 C   0  0  0  0  0  0  0  0  0  0  0  0
  160.8270  204.7460  154.0570 O   0  0  0  0  0  1  0  0  0  0  0  0
  162.1420  210.1150  148.4320 C   0  0  0  0  0  1  0  0  0  0  0  0
  161.8360  207.3180  148.4510 S   0  0  0  0  0  0  0  0  0  0  0  0
  162.8370  210.3280  151.9800 O   0  0  0  0  0  0  0  0  0  0  0  0
  160.5090  210.3990  152.0220 N   0  0  0  0  0  2  0  0  0  0  0  0
  161.7470  209.8560  151.5580 C   0  0  0  0  0  0  0  0  0  0  0  0
  160.4550  211.4940  152.9750 C   0  0  0  0  0  1  0  0  0  0  0  0
  160.7410  202.5070  147.9270 N   0  0  0  0  0  2  0  0  0  0  0  0
  162.2000  204.3090  147.7360 O   0  0  0  0  0  0  0  0  0  0  0  0
  161.4390  203.6300  148.4750 C   0  0  0  0  0  0  0  0  0  0  0  0
  160.8310  202.1310  146.5240 C   0  0  0  0  0  2  0  0  0  0  0  0
  161.5660  203.2040  145.7460 C   0  0  0  0  0  2  0  0  0  0  0  0
  160.6600  203.8150  144.7890 N   0  0  0  0  0  2  0  0  0  0  0  0
  161.2700  205.8280  142.9130 O   0  0  0  0  0  0  0  0  0  0  0  0
  160.1980  206.4120  145.2300 O   0  0  0  0  0  1  0  0  0  0  0  0
  161.1810  205.4740  144.5640 P   0  0  0  0  0  0  0  0  0  0  0  0
  162.7060  205.6800  145.2620 O   0  0  0  0  0  1  0  0  0  0  0  0
  1 12  1  0  0  0  0
  2  9  2  0  0  0  0
  4  8  1  0  0  0  0
  4  7  2  0  0  0  0
  5  8  2  0  0  0  0
  5  2  1  0  0  0  0
  6  3  1  0  0  0  0
  6  1  2  0  0  0  0
  7  3  1  0  0  0  0
  8  6  1  0  0  0  0
  9  1  1  0  0  0  0
 10 11  2  0  0  0  0
 11  7  1  0  0  0  0
 11 17  1  0  0  0  0
 13 10  1  0  0  0  0
 14 10  1  0  0  0  0
 14  4  1  0  0  0  0
 16 18  1  0  0  0  0
 17 15  2  0  0  0  0
 17 16  1  0  0  0  0
 19 21  1  0  0  0  0
 20 21  2  0  0  0  0
 21  5  1  0  0  0  0
 22 19  1  0  0  0  0
 23 22  1  0  0  0  0
 24 23  1  0  0  0  0
 25 27  2  0  0  0  0
 27 24  1  0  0  0  0
 27 26  1  0  0  0  0
 27 28  1  0  0  0  0
M  END
>  <MODEL>
8

>  <REMARK>
 VINA RESULT:      -7.2      3.713      8.436
  Name = 
  6 active torsions:
  status: ('A' for Active; 'I' for Inactive)
    1  A    between atoms: C_2  and  C_16
    2  A    between atoms: C_2  and  N_25
    3  A    between atoms: N_3  and  C_16
    4  A    between atoms: C_9  and  C_14
    5  A    between atoms: P_18  and  N_25
    6  A    between atoms: C_20  and  C_23
                            x       y       z     vdW  Elec       q    Type
                         _______ _______ _______ _____ _____    ______ ____

>  <TORSDO>
F 6

$$$$
=
 OpenBabel11072411163D

 28 30  0  0  0  0  0  0  0  0999 V2000
  161.0460  204.8150  151.9510 C   0  0  0  0  0  0  0  0  0  0  0  0
  161.2690  203.8480  149.7210 C   0  0  0  0  0  3  0  0  0  0  0  0
  161.2970  207.2270  152.0260 O   0  0  0  0  0  0  0  0  0  0  0  0
  161.6580  207.5790  149.8770 C   0  0  0  0  0  0  0  0  0  0  0  0
  161.5080  205.1140  149.1460 C   0  0  0  0  0  0  0  0  0  0  0  0
  161.2750  206.0670  151.3890 C   0  0  0  0  0  0  0  0  0  0  0  0
  161.5280  208.1330  151.1020 C   0  0  0  0  0  0  0  0  0  0  0  0
  161.5020  206.2170  150.0230 C   0  0  0  0  0  0  0  0  0  0  0  0
  161.0420  203.6970  151.1030 C   0  0  0  0  0  3  0  0  0  0  0  0
  161.8770  210.0310  149.8650 C   0  0  0  0  0  0  0  0  0  0  0  0
  161.6460  209.5220  151.1590 C   0  0  0  0  0  0  0  0  0  0  0  0
  160.8220  204.6720  153.3140 O   0  0  0  0  0  1  0  0  0  0  0  0
  162.0540  211.4650  149.5020 C   0  0  0  0  0  1  0  0  0  0  0  0
  161.9230  208.7640  148.7210 S   0  0  0  0  0  0  0  0  0  0  0  0
  162.4670  210.3050  153.2480 O   0  0  0  0  0  0  0  0  0  0  0  0
  160.3630  211.0990  152.6430 N   0  0  0  0  0  2  0  0  0  0  0  0
  161.5340  210.3160  152.4010 C   0  0  0  0  0  0  0  0  0  0  0  0
  160.2030  211.8970  153.8460 C   0  0  0  0  0  1  0  0  0  0  0  0
  160.6480  205.2410  146.7850 N   0  0  0  0  0  2  0  0  0  0  0  0
  162.9300  205.2300  147.2370 O   0  0  0  0  0  0  0  0  0  0  0  0
  161.7560  205.2050  147.6910 C   0  0  0  0  0  0  0  0  0  0  0  0
  160.8110  205.3540  145.3440 C   0  0  0  0  0  2  0  0  0  0  0  0
  160.6110  204.0010  144.6910 C   0  0  0  0  0  2  0  0  0  0  0  0
  161.4630  203.0190  145.3400 N   0  0  0  0  0  2  0  0  0  0  0  0
  159.9080  201.9230  147.4190 O   0  0  0  0  0  1  0  0  0  0  0  0
  159.2440  201.5900  144.9080 O   0  0  0  0  0  0  0  0  0  0  0  0
  160.4390  201.6840  145.8310 P   0  0  0  0  0  0  0  0  0  0  0  0
  161.3210  200.2450  145.7490 O   0  0  0  0  0  1  0  0  0  0  0  0
  1 12  1  0  0  0  0
  2  9  1  0  0  0  0
  4  8  1  0  0  0  0
  4  7  2  0  0  0  0
  5  2  2  0  0  0  0
  5  8  1  0  0  0  0
  6  1  1  0  0  0  0
  6  3  1  0  0  0  0
  7 11  1  0  0  0  0
  7  3  1  0  0  0  0
  8  6  2  0  0  0  0
  9  1  2  0  0  0  0
 10 11  2  0  0  0  0
 11 17  1  0  0  0  0
 13 10  1  0  0  0  0
 14 10  1  0  0  0  0
 14  4  1  0  0  0  0
 16 18  1  0  0  0  0
 17 16  1  0  0  0  0
 17 15  2  0  0  0  0
 19 21  1  0  0  0  0
 20 21  2  0  0  0  0
 21  5  1  0  0  0  0
 22 19  1  0  0  0  0
 23 24  1  0  0  0  0
 23 22  1  0  0  0  0
 24 27  1  0  0  0  0
 26 27  2  0  0  0  0
 27 25  1  0  0  0  0
 28 27  1  0  0  0  0
M  END
>  <MODEL>
9

>  <REMARK>
 VINA RESULT:      -7.1      3.835      8.979
  Name = 
  6 active torsions:
  status: ('A' for Active; 'I' for Inactive)
    1  A    between atoms: C_2  and  C_16
    2  A    between atoms: C_2  and  N_25
    3  A    between atoms: N_3  and  C_16
    4  A    between atoms: C_9  and  C_14
    5  A    between atoms: P_18  and  N_25
    6  A    between atoms: C_20  and  C_23
                            x       y       z     vdW  Elec       q    Type
                         _______ _______ _______ _____ _____    ______ ____

>  <TORSDO>
F 6

$$$$
