=
 OpenBabel11072414043D

 62 70  0  0  1  0  0  0  0  0999 V2000
  160.7000  206.7410  151.0860 C   0  0  0  0  0  2  0  0  0  0  0  0
  160.7920  208.0860  151.1270 C   0  0  1  0  0  3  0  0  0  0  0  0
  162.2580  204.7320  151.0870 C   0  0  2  0  0  3  0  0  0  0  0  0
  160.6210  203.0270  148.9070 C   0  0  0  0  0  2  0  0  0  0  0  0
  161.5900  204.3610  147.0390 C   0  0  0  0  0  0  0  0  0  0  0  0
  161.0600  205.5970  146.7390 C   0  0  0  0  0  0  0  0  0  0  0  0
  160.5760  202.6920  150.4220 C   0  0  2  0  0  0  0  0  0  0  0  0
  162.1390  202.6540  152.3360 F   0  0  0  0  0  0  0  0  0  0  0  0
  161.6280  205.8840  150.2880 C   0  0  1  0  0  3  0  0  0  0  0  0
  160.1110  203.9060  152.1730 C   0  0  0  0  0  2  0  0  0  0  0  0
  160.5750  206.1810  147.9640 C   0  0  0  0  0  0  0  0  0  0  0  0
  161.5280  205.2940  144.4090 C   0  0  0  0  0  3  0  0  0  0  0  0
  161.0050  206.1020  145.4430 C   0  0  0  0  0  3  0  0  0  0  0  0
  162.0930  203.5270  146.0250 C   0  0  0  0  0  3  0  0  0  0  0  0
  159.4660  206.7430  148.0080 O   0  0  0  0  0  0  0  0  0  0  0  0
  159.3030  203.2630  151.0470 C   0  0  0  0  0  2  0  0  0  0  0  0
  161.5910  204.1280  148.5240 C   0  0  1  0  0  3  0  0  0  0  0  0
  161.0460  205.3740  149.0580 N   0  0  0  0  0  0  0  0  0  0  0  0
  162.0660  204.0170  144.7070 C   0  0  0  0  0  3  0  0  0  0  0  0
  161.4050  203.4900  151.4920 C   0  0  1  0  0  0  0  0  0  0  0  0
  162.7000  205.6370  153.2900 O   0  0  0  0  0  1  0  0  0  0  0  0
  164.2980  206.1600  151.6000 C   0  0  0  0  0  1  0  0  0  0  0  0
  163.3170  205.1410  152.1390 C   0  0  2  0  0  3  0  0  0  0  0  0
  160.6340  201.2610  150.5050 O   0  0  0  0  0  0  0  0  0  0  0  0
  160.4810  200.6050  149.2700 C   0  0  0  0  0  2  0  0  0  0  0  0
  161.3260  200.1300  147.2730 C   0  0  0  0  0  1  0  0  0  0  0  0
  161.6740  200.6440  148.5340 O   0  0  0  0  0  0  0  0  0  0  0  0
  160.2970  207.9670  153.7310 C   0  0  2  0  0  3  0  0  0  0  0  0
  161.2360  209.1220  153.4390 C   0  0  1  0  0  0  0  0  0  0  0  0
  162.5780  208.7930  153.2020 O   0  0  0  0  0  1  0  0  0  0  0  0
  161.0340  206.7760  153.7410 O   0  0  0  0  0  1  0  0  0  0  0  0
  160.2180  208.7280  152.3750 C   0  0  1  0  0  3  0  0  0  0  0  0
  160.9490  210.4190  154.1830 C   0  0  0  0  0  1  0  0  0  0  0  0
  162.7920  208.0930  149.8550 O   0  0  0  0  0  0  0  0  0  0  0  0
  161.9060  208.7820  150.4340 C   0  0  0  0  0  0  0  0  0  0  0  0
  161.9470  210.2870  150.4020 C   0  0  0  0  0  2  0  0  0  0  0  0
  160.9360  213.3160  148.7620 C   0  0  2  0  0  0  0  0  0  0  0  0
  161.6280  214.4520  148.3230 O   0  0  0  0  0  1  0  0  0  0  0  0
  161.3490  211.0440  149.1890 C   0  0  2  0  0  3  0  0  0  0  0  0
  160.6400  212.2810  146.6810 C   0  0  2  0  0  3  0  0  0  0  0  0
  161.5260  210.2550  147.9080 C   0  0  0  0  0  2  0  0  0  0  0  0
  161.9220  212.3150  149.0130 O   0  0  0  0  0  0  0  0  0  0  0  0
  160.5440  210.7520  146.8510 C   0  0  0  0  0  2  0  0  0  0  0  0
  160.0050  212.9580  147.7460 O   0  0  0  0  0  0  0  0  0  0  0  0
  158.8230  213.0790  150.0470 C   0  0  0  0  0  2  0  0  0  0  0  0
  160.1600  213.7540  150.0500 C   0  0  2  0  0  0  0  0  0  0  0  0
  161.0460  213.4780  151.2370 C   0  0  0  0  0  2  0  0  0  0  0  0
  159.7980  212.6450  151.1320 C   0  0  2  0  0  0  0  0  0  0  0  0
  158.3790  214.3280  152.5790 C   0  0  0  0  0  2  0  0  0  0  0  0
  158.1490  211.8250  152.8640 C   0  0  0  0  0  3  0  0  0  0  0  0
  156.7920  213.3600  154.3090 C   0  0  1  0  0  3  0  0  0  0  0  0
  159.0450  212.9570  152.4330 C   0  0  1  0  0  3  0  0  0  0  0  0
  158.9270  214.3880  154.9200 O   0  0  0  0  0  1  0  0  0  0  0  0
  157.8570  214.4480  154.0130 C   0  0  1  0  0  3  0  0  0  0  0  0
  157.1550  212.0060  153.7420 C   0  0  0  0  0  3  0  0  0  0  0  0
  156.5690  213.2340  155.6830 O   0  0  0  0  0  0  0  0  0  0  0  0
  155.5100  212.3770  155.8420 N   0  0  0  0  0  2  0  0  0  0  0  0
  156.8130  210.7450  157.1040 O   0  0  0  0  0  1  0  0  0  0  0  0
  154.5930  210.4230  156.6430 O   0  0  0  0  0  0  0  0  0  0  0  0
  155.6170  211.1310  156.4960 C   0  0  0  0  0  0  0  0  0  0  0  0
  160.1520  212.7230  145.4190 O   0  0  0  0  0  0  0  0  0  0  0  0
  160.0800  211.6120  144.5510 C   0  0  0  0  0  1  0  0  0  0  0  0
  2  1  1  1  0  0  0
  3 20  1  0  0  0  0
  3 23  1  1  0  0  0
  4  7  1  0  0  0  0
  5 17  1  0  0  0  0
  6  5  1  0  0  0  0
  6 11  1  0  0  0  0
  7 24  1  1  0  0  0
  7 16  1  0  0  0  0
  7 20  1  0  0  0  0
  9  1  1  1  0  0  0
  9  3  1  0  0  0  0
 11 15  2  0  0  0  0
 11 18  1  0  0  0  0
 12 19  2  0  0  0  0
 12 13  1  0  0  0  0
 13  6  2  0  0  0  0
 14  5  2  0  0  0  0
 16 10  1  0  0  0  0
 17  4  1  6  0  0  0
 17 18  1  0  0  0  0
 18  9  1  0  0  0  0
 19 14  1  0  0  0  0
 20 10  1  0  0  0  0
 20  8  1  1  0  0  0
 23 22  1  6  0  0  0
 23 21  1  0  0  0  0
 25 24  1  0  0  0  0
 26 27  1  0  0  0  0
 27 25  1  0  0  0  0
 28 31  1  6  0  0  0
 29 28  1  0  0  0  0
 29 33  1  1  0  0  0
 30 29  1  0  0  0  0
 32  2  1  6  0  0  0
 32 29  1  0  0  0  0
 32 28  1  0  0  0  0
 34 35  2  0  0  0  0
 35  2  1  0  0  0  0
 36 35  1  0  0  0  0
 37 38  1  6  0  0  0
 37 42  1  0  0  0  0
 37 46  1  0  0  0  0
 39 36  1  1  0  0  0
 40 61  1  6  0  0  0
 40 43  1  0  0  0  0
 40 44  1  0  0  0  0
 41 39  1  0  0  0  0
 42 39  1  0  0  0  0
 43 41  1  0  0  0  0
 44 37  1  0  0  0  0
 46 45  1  6  0  0  0
 46 48  1  0  0  0  0
 46 47  1  0  0  0  0
 48 45  1  6  0  0  0
 48 47  1  0  0  0  0
 48 52  1  0  0  0  0
 49 54  1  0  0  0  0
 50 55  2  0  0  0  0
 51 56  1  1  0  0  0
 52 49  1  6  0  0  0
 52 50  1  0  0  0  0
 54 51  1  0  0  0  0
 54 53  1  1  0  0  0
 55 51  1  0  0  0  0
 56 57  1  0  0  0  0
 57 60  1  0  0  0  0
 60 59  2  0  0  0  0
 60 58  1  0  0  0  0
 62 61  1  0  0  0  0
M  END
>  <MODEL>
1

>  <REMARK>
 VINA RESULT:       1.3      0.000      0.000
  Name = 
  14 active torsions:
  status: ('A' for Active; 'I' for Inactive)
    1  A    between atoms: N_1  and  O_62
    2  A    between atoms: C_2  and  C_19
    3  A    between atoms: C_3  and  C_28
    4  A    between atoms: C_11  and  O_46
    5  A    between atoms: C_13  and  C_18
    6  A    between atoms: C_14  and  C_34
    7  A    between atoms: C_14  and  C_55
    8  A    between atoms: C_16  and  C_55
    9  A    between atoms: C_23  and  O_62
   10  A    between atoms: C_24  and  C_58
   11  A    between atoms: O_32  and  C_36
   12  A    between atoms: C_34  and  C_53
   13  A    between atoms: C_38  and  O_44
   14  A    between atoms: C_38  and  O_46
                            x       y       z     vdW  Elec       q    Type
                         _______ _______ _______ _____ _____    ______ ____

>  <TORSDO>
F 14

$$$$
