=
 OpenBabel11072414503D

 47 53  0  0  1  0  0  0  0  0999 V2000
  158.0390  212.2820  154.2550 C   0  0  0  0  0  0  0  0  0  0  0  0
  162.6890  210.5200  153.3320 C   0  0  0  0  0  2  0  0  0  0  0  0
  158.6640  211.0340  154.4180 C   0  0  0  0  0  0  0  0  0  0  0  0
  157.9400  213.1410  155.3600 C   0  0  0  0  0  0  0  0  0  0  0  0
  156.1870  213.5270  153.0530 C   0  0  0  0  0  2  0  0  0  0  0  0
  161.3510  210.1130  153.8030 C   0  0  2  0  0  0  0  0  0  0  0  0
  161.8010  211.4370  153.9340 O   0  0  0  0  0  0  0  0  0  0  0  0
  161.3100  209.3920  155.1570 C   0  0  0  0  0  2  0  0  0  0  0  0
  160.0500  208.9980  157.1620 O   0  0  0  0  0  1  0  0  0  0  0  0
  159.1930  210.6820  155.6730 C   0  0  0  0  0  0  0  0  0  0  0  0
  158.8130  210.0750  153.2690 C   0  0  0  0  0  2  0  0  0  0  0  0
  159.0960  211.5910  156.7340 C   0  0  0  0  0  3  0  0  0  0  0  0
  157.2460  214.4530  155.1990 C   0  0  0  0  0  2  0  0  0  0  0  0
  155.9610  214.2430  154.4000 C   0  0  0  0  0  2  0  0  0  0  0  0
  160.2490  209.9910  152.7340 C   0  0  2  0  0  3  0  0  0  0  0  0
  157.5130  212.7480  152.9190 C   0  0  1  0  0  3  0  0  0  0  0  0
  159.9300  209.3740  155.8220 C   0  0  1  0  0  3  0  0  0  0  0  0
  158.4710  212.7860  156.5590 N   0  0  0  0  0  0  0  0  0  0  0  0
  159.4020  214.4220  149.9270 C   0  0  2  0  0  3  0  0  0  0  0  0
  157.9150  212.2170  150.0590 C   0  0  0  0  0  1  0  0  0  0  0  0
  160.7790  214.2270  150.1110 O   0  0  0  0  0  0  0  0  0  0  0  0
  159.6870  212.8050  151.6620 C   0  0  2  0  0  3  0  0  0  0  0  0
  160.9030  213.6630  151.3910 C   0  0  0  0  0  2  0  0  0  0  0  0
  158.6550  213.3690  150.7340 C   0  0  1  0  0  0  0  0  0  0  0  0
  158.5500  213.6340  152.2300 C   0  0  1  0  0  3  0  0  0  0  0  0
  159.0460  214.4520  148.4380 C   0  0  2  0  0  3  0  0  0  0  0  0
  157.6600  214.3930  148.2650 O   0  0  0  0  0  1  0  0  0  0  0  0
  161.0330  213.1740  148.1290 O   0  0  0  0  0  1  0  0  0  0  0  0
  159.7340  213.3350  147.6400 C   0  0  2  0  0  3  0  0  0  0  0  0
  158.8830  212.8580  143.8880 C   0  0  0  0  0  2  0  0  0  0  0  0
  161.1860  213.5150  145.5770 C   0  0  0  0  0  2  0  0  0  0  0  0
  158.8880  212.5690  145.3860 C   0  0  0  0  0  2  0  0  0  0  0  0
  159.7570  213.5910  146.1230 C   0  0  1  0  0  3  0  0  0  0  0  0
  161.1980  213.8110  144.0800 C   0  0  0  0  0  2  0  0  0  0  0  0
  160.3090  212.8110  143.3410 C   0  0  2  0  0  3  0  0  0  0  0  0
  160.3110  213.0940  141.9110 N   0  0  0  0  0  0  0  0  0  0  0  0
  159.4820  214.0410  141.4110 O   0  0  0  0  0  1  0  0  0  0  0  0
  161.9530  211.4890  141.4840 O   0  0  0  0  0  0  0  0  0  0  0  0
  161.1570  212.6560  139.6280 N   0  0  0  0  0  2  0  0  0  0  0  0
  162.0150  211.9540  138.6880 C   0  0  0  0  0  1  0  0  0  0  0  0
  161.1770  212.3720  141.0290 C   0  0  0  0  0  0  0  0  0  0  0  0
  161.1550  208.6900  150.7580 C   0  0  0  0  0  0  0  0  0  0  0  0
  160.4090  208.7600  151.9760 N   0  0  0  0  0  2  0  0  0  0  0  0
  161.6540  209.7630  150.2330 N   0  0  0  0  0  2  0  0  0  0  0  0
  161.6710  207.3470  148.8750 O   0  0  0  0  0  0  0  0  0  0  0  0
  161.3200  207.3970  150.0840 C   0  0  0  0  0  0  0  0  0  0  0  0
  161.0910  206.2170  150.7790 O   0  0  0  0  0  1  0  0  0  0  0  0
  1  3  2  0  0  0  0
  1  4  1  0  0  0  0
  2  7  1  0  0  0  0
  3 10  1  0  0  0  0
  4 18  2  0  0  0  0
  5 14  1  0  0  0  0
  6  2  1  6  0  0  0
  6  7  1  0  0  0  0
  6  8  1  0  0  0  0
  8 17  1  0  0  0  0
 10 17  1  0  0  0  0
 10 12  2  0  0  0  0
 11  3  1  0  0  0  0
 13  4  1  0  0  0  0
 14 13  1  0  0  0  0
 15 43  1  1  0  0  0
 15 11  1  0  0  0  0
 15  6  1  0  0  0  0
 16  5  1  1  0  0  0
 16  1  1  0  0  0  0
 17  9  1  1  0  0  0
 18 12  1  0  0  0  0
 19 26  1  6  0  0  0
 19 21  1  0  0  0  0
 19 24  1  0  0  0  0
 21 23  1  0  0  0  0
 22 23  1  6  0  0  0
 22 25  1  0  0  0  0
 24 20  1  6  0  0  0
 24 22  1  0  0  0  0
 24 25  1  0  0  0  0
 25 16  1  1  0  0  0
 26 27  1  1  0  0  0
 29 28  1  1  0  0  0
 29 26  1  0  0  0  0
 30 32  1  0  0  0  0
 31 33  1  0  0  0  0
 32 33  1  0  0  0  0
 33 29  1  1  0  0  0
 34 31  1  0  0  0  0
 35 36  1  6  0  0  0
 35 30  1  0  0  0  0
 35 34  1  0  0  0  0
 37 36  1  0  0  0  0
 39 41  1  0  0  0  0
 40 39  1  0  0  0  0
 41 38  2  0  0  0  0
 41 36  1  0  0  0  0
 42 43  1  0  0  0  0
 44 42  2  0  0  0  0
 45 46  2  0  0  0  0
 46 42  1  0  0  0  0
 46 47  1  0  0  0  0
M  END
>  <MODEL>
1

>  <REMARK>
 VINA RESULT:      -2.0      0.000      0.000
  Name = 
  7 active torsions:
  status: ('A' for Active; 'I' for Inactive)
    1  A    between atoms: C_1  and  C_14
    2  A    between atoms: N_2  and  C_38
    3  A    between atoms: C_5  and  C_7
    4  A    between atoms: C_7  and  C_26
    5  A    between atoms: N_11  and  C_45
    6  A    between atoms: C_24  and  C_26
    7  A    between atoms: C_35  and  C_40
                            x       y       z     vdW  Elec       q    Type
                         _______ _______ _______ _____ _____    ______ ____

>  <TORSDO>
F 7

$$$$
=
 OpenBabel11072414503D

 47 53  0  0  1  0  0  0  0  0999 V2000
  158.9070  212.1140  152.4250 C   0  0  0  0  0  0  0  0  0  0  0  0
  163.3210  209.6510  152.2810 C   0  0  0  0  0  2  0  0  0  0  0  0
  159.3130  210.8120  152.7620 C   0  0  0  0  0  0  0  0  0  0  0  0
  158.7980  213.0750  153.4420 C   0  0  0  0  0  0  0  0  0  0  0  0
  157.4280  213.4890  150.8940 C   0  0  0  0  0  2  0  0  0  0  0  0
  161.8900  209.4760  152.5910 C   0  0  2  0  0  0  0  0  0  0  0  0
  162.5120  210.7320  152.6880 O   0  0  0  0  0  0  0  0  0  0  0  0
  161.5700  208.8930  153.9740 C   0  0  0  0  0  2  0  0  0  0  0  0
  160.0220  208.8590  155.8080 O   0  0  0  0  0  1  0  0  0  0  0  0
  159.6210  210.5040  154.1000 C   0  0  0  0  0  0  0  0  0  0  0  0
  159.4620  209.7420  151.7150 C   0  0  0  0  0  2  0  0  0  0  0  0
  159.5280  211.5110  155.0690 C   0  0  0  0  0  3  0  0  0  0  0  0
  158.3330  214.4500  153.0940 C   0  0  0  0  0  2  0  0  0  0  0  0
  157.1430  214.3480  152.1430 C   0  0  0  0  0  2  0  0  0  0  0  0
  160.9260  209.4120  151.3920 C   0  0  2  0  0  3  0  0  0  0  0  0
  158.6290  212.5260  151.0000 C   0  0  1  0  0  3  0  0  0  0  0  0
  160.1300  209.1270  154.4410 C   0  0  1  0  0  3  0  0  0  0  0  0
  159.1150  212.7600  154.7260 N   0  0  0  0  0  0  0  0  0  0  0  0
  160.9090  214.0200  148.1910 C   0  0  2  0  0  3  0  0  0  0  0  0
  158.9010  212.2740  148.0870 C   0  0  0  0  0  1  0  0  0  0  0  0
  162.1870  213.4550  148.3140 O   0  0  0  0  0  0  0  0  0  0  0  0
  160.7530  212.1780  149.7050 C   0  0  2  0  0  3  0  0  0  0  0  0
  162.1520  212.7220  149.5110 C   0  0  0  0  0  2  0  0  0  0  0  0
  159.9100  213.1020  148.8800 C   0  0  1  0  0  0  0  0  0  0  0  0
  159.8660  213.1940  150.4000 C   0  0  1  0  0  3  0  0  0  0  0  0
  160.5840  214.3280  146.7260 C   0  0  2  0  0  3  0  0  0  0  0  0
  159.2020  214.4440  146.5470 O   0  0  0  0  0  1  0  0  0  0  0  0
  162.5400  213.1850  145.9890 O   0  0  0  0  0  1  0  0  0  0  0  0
  161.1650  213.2890  145.7570 C   0  0  2  0  0  3  0  0  0  0  0  0
  159.1830  213.6060  142.4400 C   0  0  0  0  0  2  0  0  0  0  0  0
  161.8610  212.8540  143.3640 C   0  0  0  0  0  2  0  0  0  0  0  0
  159.4580  213.2420  143.8960 C   0  0  0  0  0  2  0  0  0  0  0  0
  160.8930  213.6120  144.2780 C   0  0  1  0  0  3  0  0  0  0  0  0
  161.6050  213.2140  141.9040 C   0  0  0  0  0  2  0  0  0  0  0  0
  160.1640  212.8740  141.5250 C   0  0  2  0  0  3  0  0  0  0  0  0
  159.9120  213.2240  140.1320 N   0  0  0  0  0  0  0  0  0  0  0  0
  160.4460  214.3570  139.6160 O   0  0  0  0  0  1  0  0  0  0  0  0
  158.5970  211.3260  139.7800 O   0  0  0  0  0  0  0  0  0  0  0  0
  158.8540  212.7470  137.9470 N   0  0  0  0  0  2  0  0  0  0  0  0
  158.0350  211.9310  137.0680 C   0  0  0  0  0  1  0  0  0  0  0  0
  159.0980  212.3830  139.3080 C   0  0  0  0  0  0  0  0  0  0  0  0
  161.5730  207.9050  149.4600 C   0  0  0  0  0  0  0  0  0  0  0  0
  160.9950  208.1070  150.7530 N   0  0  0  0  0  2  0  0  0  0  0  0
  161.9900  208.9150  148.7640 N   0  0  0  0  0  2  0  0  0  0  0  0
  161.9100  205.5680  149.6600 O   0  0  0  0  0  1  0  0  0  0  0  0
  161.6590  206.5480  148.9090 C   0  0  0  0  0  0  0  0  0  0  0  0
  161.4610  206.3360  147.5510 O   0  0  0  0  0  0  0  0  0  0  0  0
  1  3  2  0  0  0  0
  1  4  1  0  0  0  0
  2  7  1  0  0  0  0
  3 10  1  0  0  0  0
  4 18  2  0  0  0  0
  5 14  1  0  0  0  0
  6  2  1  6  0  0  0
  6  7  1  0  0  0  0
  6  8  1  0  0  0  0
  8 17  1  0  0  0  0
 10 17  1  0  0  0  0
 10 12  2  0  0  0  0
 11  3  1  0  0  0  0
 13  4  1  0  0  0  0
 14 13  1  0  0  0  0
 15 43  1  1  0  0  0
 15 11  1  0  0  0  0
 15  6  1  0  0  0  0
 16  5  1  1  0  0  0
 16  1  1  0  0  0  0
 17  9  1  1  0  0  0
 18 12  1  0  0  0  0
 19 26  1  6  0  0  0
 19 21  1  0  0  0  0
 19 24  1  0  0  0  0
 21 23  1  0  0  0  0
 22 23  1  6  0  0  0
 22 25  1  0  0  0  0
 24 20  1  6  0  0  0
 24 22  1  0  0  0  0
 24 25  1  0  0  0  0
 25 16  1  1  0  0  0
 26 27  1  1  0  0  0
 29 28  1  6  0  0  0
 29 26  1  0  0  0  0
 30 32  1  0  0  0  0
 31 33  1  0  0  0  0
 32 33  1  0  0  0  0
 33 29  1  1  0  0  0
 34 31  1  0  0  0  0
 35 36  1  6  0  0  0
 35 34  1  0  0  0  0
 35 30  1  0  0  0  0
 37 36  1  0  0  0  0
 39 41  1  0  0  0  0
 40 39  1  0  0  0  0
 41 38  2  0  0  0  0
 41 36  1  0  0  0  0
 42 43  1  0  0  0  0
 44 42  2  0  0  0  0
 46 42  1  0  0  0  0
 46 45  1  0  0  0  0
 47 46  2  0  0  0  0
M  END
>  <MODEL>
2

>  <REMARK>
 VINA RESULT:       0.1      1.718      2.204
  Name = 
  7 active torsions:
  status: ('A' for Active; 'I' for Inactive)
    1  A    between atoms: C_1  and  C_14
    2  A    between atoms: N_2  and  C_38
    3  A    between atoms: C_5  and  C_7
    4  A    between atoms: C_7  and  C_26
    5  A    between atoms: N_11  and  C_45
    6  A    between atoms: C_24  and  C_26
    7  A    between atoms: C_35  and  C_40
                            x       y       z     vdW  Elec       q    Type
                         _______ _______ _______ _____ _____    ______ ____

>  <TORSDO>
F 7

$$$$
=
 OpenBabel11072414503D

 47 53  0  0  1  0  0  0  0  0999 V2000
  160.4500  209.8830  154.9030 C   0  0  0  0  0  0  0  0  0  0  0  0
  158.0040  212.0580  151.0470 C   0  0  0  0  0  2  0  0  0  0  0  0
  160.3750  211.1950  154.4060 C   0  0  0  0  0  0  0  0  0  0  0  0
  159.6390  209.5220  155.9900 C   0  0  0  0  0  0  0  0  0  0  0  0
  161.9920  207.9180  155.3310 C   0  0  0  0  0  2  0  0  0  0  0  0
  158.9640  212.3340  152.1340 C   0  0  2  0  0  0  0  0  0  0  0  0
  158.0310  211.2880  152.2290 O   0  0  0  0  0  0  0  0  0  0  0  0
  158.6050  213.5010  153.0640 C   0  0  0  0  0  2  0  0  0  0  0  0
  158.7370  214.3770  155.2950 O   0  0  0  0  0  1  0  0  0  0  0  0
  159.4790  212.1090  154.9910 C   0  0  0  0  0  0  0  0  0  0  0  0
  161.2080  211.6390  153.2350 C   0  0  0  0  0  2  0  0  0  0  0  0
  158.6690  211.6860  156.0520 C   0  0  0  0  0  3  0  0  0  0  0  0
  159.7410  208.1400  156.5430 C   0  0  0  0  0  2  0  0  0  0  0  0
  161.2150  207.7540  156.6530 C   0  0  0  0  0  2  0  0  0  0  0  0
  160.3960  211.8000  151.9420 C   0  0  2  0  0  3  0  0  0  0  0  0
  161.3390  208.8370  154.2760 C   0  0  1  0  0  3  0  0  0  0  0  0
  159.3480  213.4920  154.4030 C   0  0  1  0  0  3  0  0  0  0  0  0
  158.7710  210.4170  156.5300 N   0  0  0  0  0  0  0  0  0  0  0  0
  160.4970  205.7250  152.0560 C   0  0  2  0  0  3  0  0  0  0  0  0
  162.8050  206.6080  153.0490 C   0  0  0  0  0  1  0  0  0  0  0  0
  160.1900  206.1770  150.7630 O   0  0  0  0  0  0  0  0  0  0  0  0
  161.1430  208.0200  151.9090 C   0  0  2  0  0  3  0  0  0  0  0  0
  160.1440  207.5760  150.8640 C   0  0  0  0  0  2  0  0  0  0  0  0
  161.3180  206.7980  152.7570 C   0  0  1  0  0  0  0  0  0  0  0  0
  160.5310  207.9850  153.2970 C   0  0  1  0  0  3  0  0  0  0  0  0
  161.1600  204.3450  152.0130 C   0  0  2  0  0  3  0  0  0  0  0  0
  162.5480  204.4720  151.9120 O   0  0  0  0  0  1  0  0  0  0  0  0
  160.7350  202.1230  151.2650 O   0  0  0  0  0  1  0  0  0  0  0  0
  160.6190  203.4610  150.8790 C   0  0  2  0  0  3  0  0  0  0  0  0
  161.7420  205.3310  147.6740 C   0  0  0  0  0  2  0  0  0  0  0  0
  160.8890  202.6510  148.4980 C   0  0  0  0  0  2  0  0  0  0  0  0
  161.0060  205.0910  148.9890 C   0  0  0  0  0  2  0  0  0  0  0  0
  161.3220  203.6950  149.5310 C   0  0  1  0  0  3  0  0  0  0  0  0
  161.6230  202.8720  147.1800 C   0  0  0  0  0  2  0  0  0  0  0  0
  161.3350  204.2760  146.6480 C   0  0  2  0  0  3  0  0  0  0  0  0
  162.0410  204.4950  145.3910 N   0  0  0  0  0  0  0  0  0  0  0  0
  163.2800  203.9750  145.2160 O   0  0  0  0  0  1  0  0  0  0  0  0
  160.2860  205.7490  144.4960 O   0  0  0  0  0  0  0  0  0  0  0  0
  162.1510  205.4750  143.1220 N   0  0  0  0  0  2  0  0  0  0  0  0
  161.5870  206.2450  142.0270 C   0  0  0  0  0  1  0  0  0  0  0  0
  161.4390  205.2620  144.3430 C   0  0  0  0  0  0  0  0  0  0  0  0
  161.5950  212.1790  149.7420 C   0  0  0  0  0  0  0  0  0  0  0  0
  161.1330  212.6440  151.0140 N   0  0  0  0  0  2  0  0  0  0  0  0
  161.4410  210.9390  149.4030 N   0  0  0  0  0  2  0  0  0  0  0  0
  163.1840  212.6980  148.0630 O   0  0  0  0  0  0  0  0  0  0  0  0
  162.2790  213.1090  148.8370 C   0  0  0  0  0  0  0  0  0  0  0  0
  161.9290  214.4530  148.8260 O   0  0  0  0  0  1  0  0  0  0  0  0
  1  4  1  0  0  0  0
  2  7  1  0  0  0  0
  3  1  2  0  0  0  0
  3 10  1  0  0  0  0
  4 18  2  0  0  0  0
  4 13  1  0  0  0  0
  5 14  1  0  0  0  0
  6  2  1  6  0  0  0
  6  7  1  0  0  0  0
  6  8  1  0  0  0  0
  8 17  1  0  0  0  0
 10 12  2  0  0  0  0
 11  3  1  0  0  0  0
 12 18  1  0  0  0  0
 13 14  1  0  0  0  0
 15 43  1  6  0  0  0
 15  6  1  0  0  0  0
 15 11  1  0  0  0  0
 16  1  1  0  0  0  0
 16  5  1  1  0  0  0
 17 10  1  0  0  0  0
 17  9  1  1  0  0  0
 19 26  1  6  0  0  0
 19 24  1  0  0  0  0
 21 23  1  0  0  0  0
 21 19  1  0  0  0  0
 22 23  1  6  0  0  0
 22 24  1  0  0  0  0
 22 25  1  0  0  0  0
 24 20  1  1  0  0  0
 24 25  1  0  0  0  0
 25 16  1  1  0  0  0
 26 27  1  6  0  0  0
 29 28  1  1  0  0  0
 29 26  1  0  0  0  0
 30 32  1  0  0  0  0
 31 33  1  0  0  0  0
 32 33  1  0  0  0  0
 33 29  1  1  0  0  0
 34 31  1  0  0  0  0
 35 36  1  6  0  0  0
 35 34  1  0  0  0  0
 35 30  1  0  0  0  0
 37 36  1  0  0  0  0
 39 41  1  0  0  0  0
 40 39  1  0  0  0  0
 41 38  2  0  0  0  0
 41 36  1  0  0  0  0
 42 43  1  0  0  0  0
 44 42  2  0  0  0  0
 45 46  2  0  0  0  0
 46 42  1  0  0  0  0
 47 46  1  0  0  0  0
M  END
>  <MODEL>
3

>  <REMARK>
 VINA RESULT:       0.5      3.724      7.281
  Name = 
  7 active torsions:
  status: ('A' for Active; 'I' for Inactive)
    1  A    between atoms: C_1  and  C_14
    2  A    between atoms: N_2  and  C_38
    3  A    between atoms: C_5  and  C_7
    4  A    between atoms: C_7  and  C_26
    5  A    between atoms: N_11  and  C_45
    6  A    between atoms: C_24  and  C_26
    7  A    between atoms: C_35  and  C_40
                            x       y       z     vdW  Elec       q    Type
                         _______ _______ _______ _____ _____    ______ ____

>  <TORSDO>
F 7

$$$$
=
 OpenBabel11072414503D

 47 53  0  0  1  0  0  0  0  0999 V2000
  160.4620  209.9080  152.3270 C   0  0  0  0  0  0  0  0  0  0  0  0
  163.7240  206.7270  150.1310 C   0  0  0  0  0  2  0  0  0  0  0  0
  160.4690  208.5240  152.0860 C   0  0  0  0  0  0  0  0  0  0  0  0
  160.8540  210.3780  153.5900 C   0  0  0  0  0  0  0  0  0  0  0  0
  159.2780  212.0900  151.8220 C   0  0  0  0  0  2  0  0  0  0  0  0
  162.3910  206.7930  150.7600 C   0  0  2  0  0  0  0  0  0  0  0  0
  163.3990  207.7160  151.0840 O   0  0  0  0  0  0  0  0  0  0  0  0
  162.1420  205.8010  151.9040 C   0  0  0  0  0  2  0  0  0  0  0  0
  161.0110  205.4100  153.9850 O   0  0  0  0  0  1  0  0  0  0  0  0
  160.8850  207.6440  153.1020 C   0  0  0  0  0  0  0  0  0  0  0  0
  160.0730  207.9590  150.7490 C   0  0  0  0  0  2  0  0  0  0  0  0
  161.2980  208.1700  154.3330 C   0  0  0  0  0  3  0  0  0  0  0  0
  160.8150  211.8460  153.8620 C   0  0  0  0  0  2  0  0  0  0  0  0
  159.5120  212.4210  153.3100 C   0  0  0  0  0  2  0  0  0  0  0  0
  161.2680  207.4460  149.9330 C   0  0  2  0  0  3  0  0  0  0  0  0
  160.0940  210.9080  151.2580 C   0  0  1  0  0  3  0  0  0  0  0  0
  160.9630  206.1660  152.8120 C   0  0  1  0  0  3  0  0  0  0  0  0
  161.2660  209.5120  154.5520 N   0  0  0  0  0  0  0  0  0  0  0  0
  162.2100  212.9530  148.6780 C   0  0  2  0  0  3  0  0  0  0  0  0
  159.6990  212.0690  148.5900 C   0  0  0  0  0  1  0  0  0  0  0  0
  163.1660  212.0950  148.1140 O   0  0  0  0  0  0  0  0  0  0  0  0
  161.6340  210.7150  149.2830 C   0  0  2  0  0  3  0  0  0  0  0  0
  163.0710  210.9040  148.8500 C   0  0  0  0  0  2  0  0  0  0  0  0
  161.0790  212.1060  149.2440 C   0  0  1  0  0  0  0  0  0  0  0  0
  161.3580  211.4430  150.5860 C   0  0  1  0  0  3  0  0  0  0  0  0
  161.7640  214.0160  147.6700 C   0  0  2  0  0  3  0  0  0  0  0  0
  160.3800  214.2000  147.7330 O   0  0  0  0  0  1  0  0  0  0  0  0
  163.3270  214.4530  145.9250 O   0  0  0  0  0  1  0  0  0  0  0  0
  162.1960  213.6910  146.2320 C   0  0  2  0  0  3  0  0  0  0  0  0
  159.0260  212.9860  144.1150 C   0  0  0  0  0  2  0  0  0  0  0  0
  161.6860  214.1780  143.8030 C   0  0  0  0  0  2  0  0  0  0  0  0
  160.1460  212.7240  145.1170 C   0  0  0  0  0  2  0  0  0  0  0  0
  161.0890  213.9280  145.1910 C   0  0  1  0  0  3  0  0  0  0  0  0
  160.5780  214.4500  142.7900 C   0  0  0  0  0  2  0  0  0  0  0  0
  159.6170  213.2630  142.7330 C   0  0  2  0  0  3  0  0  0  0  0  0
  158.5510  213.5220  141.7720 N   0  0  0  0  0  0  0  0  0  0  0  0
  157.6070  214.4530  142.0480 O   0  0  0  0  0  1  0  0  0  0  0  0
  159.3660  211.9250  140.2740 O   0  0  0  0  0  0  0  0  0  0  0  0
  157.4330  213.0530  139.6150 N   0  0  0  0  0  2  0  0  0  0  0  0
  157.3240  212.3430  138.3530 C   0  0  0  0  0  1  0  0  0  0  0  0
  158.4900  212.7930  140.5410 C   0  0  0  0  0  0  0  0  0  0  0  0
  161.2260  206.5930  147.5470 C   0  0  0  0  0  0  0  0  0  0  0  0
  160.7910  206.5290  148.9090 N   0  0  0  0  0  2  0  0  0  0  0  0
  162.0120  207.5440  147.1540 N   0  0  0  0  0  2  0  0  0  0  0  0
  160.8190  204.3650  146.8500 O   0  0  0  0  0  1  0  0  0  0  0  0
  160.7440  205.5940  146.5860 C   0  0  0  0  0  0  0  0  0  0  0  0
  160.1990  206.0020  145.3750 O   0  0  0  0  0  0  0  0  0  0  0  0
  1  4  1  0  0  0  0
  2  7  1  0  0  0  0
  3  1  2  0  0  0  0
  3 10  1  0  0  0  0
  4 13  1  0  0  0  0
  4 18  2  0  0  0  0
  5 14  1  0  0  0  0
  6  2  1  6  0  0  0
  6  7  1  0  0  0  0
  6  8  1  0  0  0  0
  8 17  1  0  0  0  0
 10 12  2  0  0  0  0
 11  3  1  0  0  0  0
 12 18  1  0  0  0  0
 14 13  1  0  0  0  0
 15 43  1  6  0  0  0
 15 11  1  0  0  0  0
 15  6  1  0  0  0  0
 16  5  1  1  0  0  0
 16  1  1  0  0  0  0
 17 10  1  0  0  0  0
 17  9  1  1  0  0  0
 19 26  1  6  0  0  0
 19 24  1  0  0  0  0
 21 19  1  0  0  0  0
 21 23  1  0  0  0  0
 22 23  1  6  0  0  0
 22 25  1  0  0  0  0
 24 20  1  6  0  0  0
 24 22  1  0  0  0  0
 24 25  1  0  0  0  0
 25 16  1  1  0  0  0
 26 27  1  6  0  0  0
 29 28  1  6  0  0  0
 29 26  1  0  0  0  0
 30 32  1  0  0  0  0
 31 33  1  0  0  0  0
 32 33  1  0  0  0  0
 33 29  1  1  0  0  0
 34 31  1  0  0  0  0
 35 36  1  6  0  0  0
 35 34  1  0  0  0  0
 35 30  1  0  0  0  0
 36 37  1  0  0  0  0
 38 41  2  0  0  0  0
 39 41  1  0  0  0  0
 40 39  1  0  0  0  0
 41 36  1  0  0  0  0
 42 43  1  0  0  0  0
 44 42  2  0  0  0  0
 46 45  1  0  0  0  0
 46 42  1  0  0  0  0
 47 46  2  0  0  0  0
M  END
>  <MODEL>
4

>  <REMARK>
 VINA RESULT:       0.8      2.561      3.704
  Name = 
  7 active torsions:
  status: ('A' for Active; 'I' for Inactive)
    1  A    between atoms: C_1  and  C_14
    2  A    between atoms: N_2  and  C_38
    3  A    between atoms: C_5  and  C_7
    4  A    between atoms: C_7  and  C_26
    5  A    between atoms: N_11  and  C_45
    6  A    between atoms: C_24  and  C_26
    7  A    between atoms: C_35  and  C_40
                            x       y       z     vdW  Elec       q    Type
                         _______ _______ _______ _____ _____    ______ ____

>  <TORSDO>
F 7

$$$$
