=
 OpenBabel11072412433D

 55 63  0  0  1  0  0  0  0  0999 V2000
  157.5260  211.5830  154.2080 C   0  0  0  0  0  0  0  0  0  0  0  0
  161.6950  211.4340  157.2600 C   0  0  0  0  0  3  0  0  0  0  0  0
  159.0890  213.8100  150.7990 O   0  0  0  0  0  0  0  0  0  0  0  0
  159.3230  208.9770  151.6260 C   0  0  0  0  0  1  0  0  0  0  0  0
  160.5640  209.7060  152.0960 C   0  0  1  0  0  3  0  0  0  0  0  0
  157.6210  213.6480  152.7400 C   0  0  2  0  0  3  0  0  0  0  0  0
  156.5770  211.8830  156.4640 C   0  0  0  0  0  1  0  0  0  0  0  0
  160.6890  211.6640  156.1850 C   0  0  0  0  0  2  0  0  0  0  0  0
  160.5460  210.4950  155.2460 C   0  0  0  0  0  0  0  0  0  0  0  0
  160.1990  213.0650  150.3780 C   0  0  2  0  0  0  0  0  0  0  0  0
  162.9710  210.5750  154.6200 C   0  0  0  0  0  3  0  0  0  0  0  0
  158.7110  211.2090  153.8910 N   0  0  0  0  0  0  0  0  0  0  0  0
  162.0880  211.4600  151.0770 C   0  0  0  0  0  2  0  0  0  0  0  0
  161.0840  212.5390  151.4690 C   0  0  1  0  0  3  0  0  0  0  0  0
  156.8860  212.6890  153.5630 N   0  0  0  0  0  2  0  0  0  0  0  0
  158.2210  212.9490  151.4990 C   0  0  1  0  0  3  0  0  0  0  0  0
  157.0290  210.8820  155.4080 C   0  0  2  0  0  3  0  0  0  0  0  0
  158.1920  210.1320  155.9060 N   0  0  0  0  0  2  0  0  0  0  0  0
  161.4130  208.6770  153.3450 S   0  0  0  0  0  0  0  0  0  0  0  0
  161.4180  210.1020  150.8820 C   0  0  1  0  0  3  0  0  0  0  0  0
  163.5800  211.1030  155.6810 C   0  0  0  0  0  3  0  0  0  0  0  0
  162.9930  211.2310  157.0230 C   0  0  0  0  0  3  0  0  0  0  0  0
  161.6080  210.0120  154.5510 C   0  0  0  0  0  0  0  0  0  0  0  0
  159.1500  210.1650  154.7910 C   0  0  2  0  0  3  0  0  0  0  0  0
  157.2100  212.4960  150.6460 O   0  0  0  0  0  1  0  0  0  0  0  0
  161.3680  213.7330  150.7980 O   0  0  0  0  0  0  0  0  0  0  0  0
  161.5420  212.6240  148.2900 C   0  0  0  0  0  3  0  0  0  0  0  0
  159.2770  212.5200  146.6920 C   0  0  0  0  0  3  0  0  0  0  0  0
  160.5070  212.3670  146.1340 N   0  0  0  0  0  0  0  0  0  0  0  0
  159.1480  212.7540  148.0680 C   0  0  0  0  0  3  0  0  0  0  0  0
  160.2860  212.7900  148.8810 C   0  0  0  0  0  0  0  0  0  0  0  0
  161.6330  212.4180  146.9050 C   0  0  0  0  0  3  0  0  0  0  0  0
  158.6840  214.3240  153.5860 C   0  0  0  0  0  3  0  0  0  0  0  0
  158.2200  214.4520  155.0210 C   0  0  0  0  0  2  0  0  0  0  0  0
  159.1740  213.3340  154.6290 C   0  0  0  0  0  2  0  0  0  0  0  0
  162.3750  209.1400  150.5090 O   0  0  0  0  0  0  0  0  0  0  0  0
  161.7280  208.2530  149.6260 C   0  0  0  0  0  2  0  0  0  0  0  0
  162.3440  208.2360  148.2350 C   0  0  2  0  0  3  0  0  0  0  0  0
  159.8500  206.4120  146.4310 O   0  0  0  0  0  0  0  0  0  0  0  0
  160.8880  206.8240  147.0080 C   0  0  0  0  0  0  0  0  0  0  0  0
  161.1680  208.2720  147.2610 C   0  0  0  0  0  2  0  0  0  0  0  0
  161.8840  205.9520  147.5330 N   0  0  0  0  0  0  0  0  0  0  0  0
  164.0980  206.6650  147.7360 O   0  0  0  0  0  0  0  0  0  0  0  0
  162.8780  206.8600  147.9910 C   0  0  0  0  0  0  0  0  0  0  0  0
  161.4620  204.8190  148.3750 C   0  0  1  0  0  3  0  0  0  0  0  0
  161.4060  202.1610  149.4680 N   0  0  2  0  0  0  0  0  0  0  0  0
  160.6690  205.0790  151.9420 C   0  0  0  0  0  1  0  0  0  0  0  0
  161.5890  202.2890  151.8840 C   0  0  0  0  0  2  0  0  0  0  0  0
  161.3710  200.8540  151.4820 C   0  0  0  0  0  2  0  0  0  0  0  0
  160.4030  202.5220  148.4580 C   0  0  0  0  0  2  0  0  0  0  0  0
  160.9290  200.9170  150.0470 C   0  0  0  0  0  2  0  0  0  0  0  0
  160.4750  204.2510  150.6820 C   0  0  2  0  0  3  0  0  0  0  0  0
  161.5370  203.1090  150.6050 C   0  0  2  0  0  3  0  0  0  0  0  0
  160.5060  205.2450  149.4940 C   0  0  0  0  0  2  0  0  0  0  0  0
  160.8900  203.6480  147.5580 C   0  0  0  0  0  2  0  0  0  0  0  0
  1 17  1  0  0  0  0
  3 16  1  0  0  0  0
  5  4  1  6  0  0  0
  5 19  1  0  0  0  0
  6 15  1  0  0  0  0
  6 33  1  1  0  0  0
  8  2  1  0  0  0  0
  9  8  1  0  0  0  0
 10 31  1  6  0  0  0
 10 26  1  0  0  0  0
 10  3  1  0  0  0  0
 10 14  1  0  0  0  0
 11 21  2  0  0  0  0
 12  1  2  0  0  0  0
 14 13  1  6  0  0  0
 15  1  1  0  0  0  0
 16 25  1  6  0  0  0
 16  6  1  0  0  0  0
 17 18  1  0  0  0  0
 17  7  1  1  0  0  0
 19 23  1  0  0  0  0
 20 36  1  1  0  0  0
 20 13  1  0  0  0  0
 20  5  1  0  0  0  0
 21 22  1  0  0  0  0
 22  2  2  0  0  0  0
 23 11  1  0  0  0  0
 23  9  2  0  0  0  0
 24 12  1  6  0  0  0
 24  9  1  0  0  0  0
 24 18  1  0  0  0  0
 26 14  1  0  0  0  0
 27 31  1  0  0  0  0
 28 30  1  0  0  0  0
 29 28  2  0  0  0  0
 29 32  1  0  0  0  0
 30 31  2  0  0  0  0
 32 27  2  0  0  0  0
 33 35  1  0  0  0  0
 33 34  1  0  0  0  0
 35 34  1  0  0  0  0
 37 36  1  0  0  0  0
 38 37  1  1  0  0  0
 39 40  2  0  0  0  0
 40 41  1  0  0  0  0
 40 42  1  0  0  0  0
 41 38  1  0  0  0  0
 42 44  1  0  0  0  0
 43 44  2  0  0  0  0
 44 38  1  0  0  0  0
 45 42  1  6  0  0  0
 45 54  1  0  0  0  0
 46 50  1  6  0  0  0
 46 51  1  0  0  0  0
 46 53  1  0  0  0  0
 49 48  1  0  0  0  0
 51 49  1  0  0  0  0
 52 47  1  1  0  0  0
 53 52  1  0  0  0  0
 53 48  1  1  0  0  0
 54 52  1  0  0  0  0
 55 45  1  0  0  0  0
 55 50  1  0  0  0  0
M  END
>  <MODEL>
1

>  <REMARK>
 VINA RESULT:       5.1      0.000      0.000
  Name = 
  6 active torsions:
  status: ('A' for Active; 'I' for Inactive)
    1  A    between atoms: C_5  and  C_49
    2  A    between atoms: C_7  and  C_8
    3  A    between atoms: C_10  and  N_32
    4  A    between atoms: C_14  and  C_48
    5  A    between atoms: O_18  and  C_39
    6  A    between atoms: O_18  and  C_49
                            x       y       z     vdW  Elec       q    Type
                         _______ _______ _______ _____ _____    ______ ____

>  <TORSDO>
F 6

$$$$
=
 OpenBabel11072412433D

 55 63  0  0  1  0  0  0  0  0999 V2000
  162.1140  208.8400  154.9000 C   0  0  0  0  0  0  0  0  0  0  0  0
  158.2150  212.2170  154.5750 C   0  0  0  0  0  3  0  0  0  0  0  0
  161.0680  206.0750  151.6930 O   0  0  0  0  0  0  0  0  0  0  0  0
  163.6300  210.2510  151.3790 C   0  0  0  0  0  1  0  0  0  0  0  0
  162.1610  210.4490  151.0760 C   0  0  1  0  0  3  0  0  0  0  0  0
  161.3460  206.5720  154.0640 C   0  0  2  0  0  3  0  0  0  0  0  0
  161.6280  209.3610  157.2610 C   0  0  0  0  0  1  0  0  0  0  0  0
  159.1720  211.0840  154.4280 C   0  0  0  0  0  2  0  0  0  0  0  0
  160.3880  211.4360  153.6120 C   0  0  0  0  0  0  0  0  0  0  0  0
  160.9800  206.8850  150.5530 C   0  0  2  0  0  0  0  0  0  0  0  0
  158.9950  212.0600  151.6250 C   0  0  0  0  0  3  0  0  0  0  0  0
  161.6990  209.4520  153.8530 N   0  0  0  0  0  0  0  0  0  0  0  0
  160.4630  209.2350  149.6320 C   0  0  0  0  0  2  0  0  0  0  0  0
  160.2840  208.2010  150.7390 C   0  0  1  0  0  3  0  0  0  0  0  0
  162.0990  207.4120  154.9940 N   0  0  0  0  0  2  0  0  0  0  0  0
  161.8980  206.7230  152.6290 C   0  0  1  0  0  3  0  0  0  0  0  0
  162.3940  209.7720  156.0100 C   0  0  2  0  0  3  0  0  0  0  0  0
  161.8980  211.0720  155.5330 N   0  0  0  0  0  2  0  0  0  0  0  0
  161.7410  212.2110  151.3230 S   0  0  0  0  0  0  0  0  0  0  0  0
  161.8430  209.8880  149.6820 C   0  0  1  0  0  3  0  0  0  0  0  0
  157.8260  212.4490  152.1350 C   0  0  0  0  0  3  0  0  0  0  0  0
  157.5850  212.7880  153.5450 C   0  0  0  0  0  3  0  0  0  0  0  0
  160.2770  211.8900  152.3370 C   0  0  0  0  0  0  0  0  0  0  0  0
  161.7010  210.8800  154.0890 C   0  0  2  0  0  3  0  0  0  0  0  0
  163.1990  206.2170  152.5410 O   0  0  0  0  0  1  0  0  0  0  0  0
  159.6160  207.0750  150.2470 O   0  0  0  0  0  0  0  0  0  0  0  0
  162.5120  207.2520  148.5840 C   0  0  0  0  0  3  0  0  0  0  0  0
  162.2230  204.6400  147.6980 C   0  0  0  0  0  3  0  0  0  0  0  0
  162.9950  205.5110  146.9970 N   0  0  0  0  0  0  0  0  0  0  0  0
  161.5510  205.0610  148.8540 C   0  0  0  0  0  3  0  0  0  0  0  0
  161.7080  206.3730  149.3150 C   0  0  0  0  0  0  0  0  0  0  0  0
  163.1470  206.8010  147.4160 C   0  0  0  0  0  3  0  0  0  0  0  0
  159.8730  206.9280  154.1500 C   0  0  0  0  0  3  0  0  0  0  0  0
  159.2180  206.2090  155.3110 C   0  0  0  0  0  2  0  0  0  0  0  0
  159.6280  207.6660  155.4550 C   0  0  0  0  0  2  0  0  0  0  0  0
  161.9720  210.8230  148.6380 O   0  0  0  0  0  0  0  0  0  0  0  0
  160.7050  211.4190  148.4760 C   0  0  0  0  0  2  0  0  0  0  0  0
  160.6670  212.8750  148.9130 C   0  0  2  0  0  3  0  0  0  0  0  0
  158.0880  214.1390  146.7800 O   0  0  0  0  0  0  0  0  0  0  0  0
  159.1610  213.8700  147.3770 C   0  0  0  0  0  0  0  0  0  0  0  0
  159.2120  213.3140  148.7650 C   0  0  0  0  0  2  0  0  0  0  0  0
  160.4430  214.0150  146.7740 N   0  0  0  0  0  0  0  0  0  0  0  0
  162.3340  214.4030  148.0890 O   0  0  0  0  0  0  0  0  0  0  0  0
  161.3240  213.6880  147.8430 C   0  0  0  0  0  0  0  0  0  0  0  0
  160.6620  213.4560  145.4290 C   0  0  1  0  0  3  0  0  0  0  0  0
  160.1090  212.7070  142.7100 N   0  0  2  0  0  0  0  0  0  0  0  0
  163.7390  213.8910  143.4870 C   0  0  0  0  0  1  0  0  0  0  0  0
  161.8340  213.6150  141.2660 C   0  0  0  0  0  2  0  0  0  0  0  0
  160.9050  212.7600  140.4450 C   0  0  0  0  0  2  0  0  0  0  0  0
  160.0280  211.6730  143.7490 C   0  0  0  0  0  2  0  0  0  0  0  0
  160.1060  211.9810  141.4520 C   0  0  0  0  0  2  0  0  0  0  0  0
  162.4920  213.0400  143.6680 C   0  0  2  0  0  3  0  0  0  0  0  0
  161.3570  213.5130  142.7050 C   0  0  2  0  0  3  0  0  0  0  0  0
  162.1320  213.1030  145.1740 C   0  0  0  0  0  2  0  0  0  0  0  0
  159.7340  212.2690  145.1180 C   0  0  0  0  0  2  0  0  0  0  0  0
  1 15  1  0  0  0  0
  1 17  1  0  0  0  0
  3 16  1  0  0  0  0
  5 19  1  0  0  0  0
  5  4  1  6  0  0  0
  6 33  1  6  0  0  0
  6 15  1  0  0  0  0
  8  2  1  0  0  0  0
  9  8  1  0  0  0  0
 10 31  1  6  0  0  0
 10 14  1  0  0  0  0
 10  3  1  0  0  0  0
 11 21  2  0  0  0  0
 11 23  1  0  0  0  0
 12 24  1  0  0  0  0
 12  1  2  0  0  0  0
 13 20  1  0  0  0  0
 14 13  1  6  0  0  0
 16 25  1  1  0  0  0
 16  6  1  0  0  0  0
 17  7  1  1  0  0  0
 18 17  1  0  0  0  0
 19 23  1  0  0  0  0
 20 36  1  6  0  0  0
 20  5  1  0  0  0  0
 21 22  1  0  0  0  0
 22  2  2  0  0  0  0
 23  9  2  0  0  0  0
 24  9  1  1  0  0  0
 24 18  1  0  0  0  0
 26 10  1  0  0  0  0
 26 14  1  0  0  0  0
 27 31  1  0  0  0  0
 28 30  1  0  0  0  0
 29 32  1  0  0  0  0
 29 28  2  0  0  0  0
 30 31  2  0  0  0  0
 32 27  2  0  0  0  0
 33 34  1  0  0  0  0
 33 35  1  0  0  0  0
 34 35  1  0  0  0  0
 37 36  1  0  0  0  0
 38 37  1  6  0  0  0
 39 40  2  0  0  0  0
 40 41  1  0  0  0  0
 41 38  1  0  0  0  0
 42 40  1  0  0  0  0
 42 44  1  0  0  0  0
 44 43  2  0  0  0  0
 44 38  1  0  0  0  0
 45 55  1  1  0  0  0
 45 42  1  0  0  0  0
 46 51  1  6  0  0  0
 46 50  1  0  0  0  0
 49 48  1  0  0  0  0
 49 51  1  0  0  0  0
 50 55  1  0  0  0  0
 52 47  1  1  0  0  0
 52 54  1  0  0  0  0
 53 48  1  6  0  0  0
 53 46  1  0  0  0  0
 53 52  1  0  0  0  0
 54 45  1  0  0  0  0
M  END
>  <MODEL>
2

>  <REMARK>
 VINA RESULT:       6.5      2.744      7.705
  Name = 
  6 active torsions:
  status: ('A' for Active; 'I' for Inactive)
    1  A    between atoms: C_5  and  C_49
    2  A    between atoms: C_7  and  C_8
    3  A    between atoms: C_10  and  N_32
    4  A    between atoms: C_14  and  C_48
    5  A    between atoms: O_18  and  C_39
    6  A    between atoms: O_18  and  C_49
                            x       y       z     vdW  Elec       q    Type
                         _______ _______ _______ _____ _____    ______ ____

>  <TORSDO>
F 6

$$$$
