=
 OpenBabel11072414183D

 34 39  0  0  1  0  0  0  0  0999 V2000
  161.6790  208.2120  149.6010 C   0  0  2  0  0  3  0  0  0  0  0  0
  161.2510  211.2620  150.2800 O   0  0  0  0  0  0  0  0  0  0  0  0
  161.6250  206.9390  151.7710 C   0  0  0  0  0  3  0  0  0  0  0  0
  162.3420  209.4690  149.0920 C   0  0  0  0  0  2  0  0  0  0  0  0
  161.0970  209.1530  153.2820 C   0  0  0  0  0  0  0  0  0  0  0  0
  161.4450  206.8390  153.1560 C   0  0  0  0  0  3  0  0  0  0  0  0
  161.5610  208.1870  151.1150 C   0  0  0  0  0  0  0  0  0  0  0  0
  160.7920  210.6090  154.0390 S   0  0  0  0  0  0  0  0  0  0  0  0
  161.2870  210.5470  149.0590 C   0  0  2  0  0  3  0  0  0  0  0  0
  161.2630  209.3270  151.9120 C   0  0  0  0  0  0  0  0  0  0  0  0
  161.1870  207.9500  153.8940 N   0  0  0  0  0  0  0  0  0  0  0  0
  161.1230  210.6970  151.5540 C   0  0  0  0  0  0  0  0  0  0  0  0
  160.8620  211.5410  152.6370 C   0  0  0  0  0  3  0  0  0  0  0  0
  162.4540  212.9230  145.5980 C   0  0  1  0  0  3  0  0  0  0  0  0
  160.9650  213.0100  145.1680 C   0  0  0  0  0  0  0  0  0  0  0  0
  158.5600  212.4960  146.0570 C   0  0  0  0  0  2  0  0  0  0  0  0
  163.4120  213.4850  144.5560 C   0  0  0  0  0  1  0  0  0  0  0  0
  160.0640  212.4900  146.3010 C   0  0  1  0  0  3  0  0  0  0  0  0
  160.0220  213.5260  149.7170 C   0  0  0  0  0  2  0  0  0  0  0  0
  160.7490  212.1640  143.9210 C   0  0  0  0  0  1  0  0  0  0  0  0
  157.8810  213.3190  147.1440 C   0  0  0  0  0  2  0  0  0  0  0  0
  158.5600  213.7540  149.3550 C   0  0  0  0  0  2  0  0  0  0  0  0
  162.7830  213.5240  146.9820 C   0  0  0  0  0  2  0  0  0  0  0  0
  160.5870  214.4530  144.8560 C   0  0  0  0  0  1  0  0  0  0  0  0
  160.9120  213.9790  148.5730 C   0  0  0  0  0  2  0  0  0  0  0  0
  158.0900  212.7110  148.4520 N   0  0  0  0  0  2  0  0  0  0  0  0
  160.5020  211.2720  146.8490 O   0  0  0  0  0  0  0  0  0  0  0  0
  161.9790  212.9520  148.1650 C   0  0  1  0  0  3  0  0  0  0  0  0
  161.4680  211.4980  147.8720 C   0  0  1  0  0  3  0  0  0  0  0  0
  159.9900  206.2180  148.2720 C   0  0  0  0  0  1  0  0  0  0  0  0
  162.2960  206.9590  147.5080 C   0  0  0  0  0  2  0  0  0  0  0  0
  161.4930  206.0020  148.3530 C   0  0  1  0  0  0  0  0  0  0  0  0
  162.4250  206.9980  149.0310 C   0  0  2  0  0  3  0  0  0  0  0  0
  161.9680  204.6940  148.2790 O   0  0  0  0  0  1  0  0  0  0  0  0
  1  4  1  1  0  0  0
  1  7  1  0  0  0  0
  2 12  1  0  0  0  0
  3  6  1  0  0  0  0
  5 11  1  0  0  0  0
  5  8  1  0  0  0  0
  6 11  2  0  0  0  0
  7  3  2  0  0  0  0
  7 10  1  0  0  0  0
  9  4  1  1  0  0  0
  9  2  1  0  0  0  0
 10  5  2  0  0  0  0
 12 10  1  0  0  0  0
 12 13  2  0  0  0  0
 13  8  1  0  0  0  0
 14 17  1  6  0  0  0
 14 23  1  0  0  0  0
 15 14  1  0  0  0  0
 15 18  1  0  0  0  0
 16 21  1  0  0  0  0
 18 16  1  6  0  0  0
 18 27  1  0  0  0  0
 20 15  1  0  0  0  0
 21 26  1  0  0  0  0
 22 19  1  0  0  0  0
 24 15  1  0  0  0  0
 25 19  1  0  0  0  0
 26 22  1  0  0  0  0
 28 23  1  6  0  0  0
 28 25  1  0  0  0  0
 29 27  1  1  0  0  0
 29 28  1  0  0  0  0
 29  9  1  0  0  0  0
 31 32  1  0  0  0  0
 32 30  1  1  0  0  0
 32 33  1  0  0  0  0
 33 31  1  6  0  0  0
 33  1  1  0  0  0  0
 34 32  1  0  0  0  0
M  END
>  <MODEL>
1

>  <REMARK>
 VINA RESULT:      -6.0      0.000      0.000
  Name = 
  2 active torsions:
  status: ('A' for Active; 'I' for Inactive)
    1  A    between atoms: C_1  and  C_5
    2  A    between atoms: C_23  and  C_34
                            x       y       z     vdW  Elec       q    Type
                         _______ _______ _______ _____ _____    ______ ____

>  <TORSDO>
F 2

$$$$
