=
 OpenBabel11072410013D

 54 59  0  0  1  0  0  0  0  0999 V2000
  163.0100  205.5400  147.0700 C   0  0  0  0  0  0  0  0  0  0  0  0
  160.5920  201.2840  148.0050 C   0  0  0  0  0  2  0  0  0  0  0  0
  160.7800  208.2600  148.3520 C   0  0  2  0  0  3  0  0  0  0  0  0
  160.8600  204.9280  148.7320 O   0  0  0  0  0  0  0  0  0  0  0  0
  160.2850  202.6100  148.6940 C   0  0  0  0  0  2  0  0  0  0  0  0
  160.4650  207.6240  149.6020 O   0  0  0  0  0  0  0  0  0  0  0  0
  163.7250  206.7550  147.5860 O   0  0  0  0  0  0  0  0  0  0  0  0
  162.8790  204.3790  146.4610 C   0  0  0  0  0  3  0  0  0  0  0  0
  161.6190  203.6370  146.7770 C   0  0  2  0  0  3  0  0  0  0  0  0
  162.4190  206.4740  147.8770 C   0  0  2  0  0  0  0  0  0  0  0  0
  161.9630  205.7400  149.1200 C   0  0  1  0  0  3  0  0  0  0  0  0
  161.3340  203.6610  148.3160 C   0  0  1  0  0  3  0  0  0  0  0  0
  161.7810  202.1870  146.3160 C   0  0  0  0  0  2  0  0  0  0  0  0
  161.5060  206.8080  150.1550 C   0  0  2  0  0  0  0  0  0  0  0  0
  161.4000  207.3850  147.2510 C   0  0  0  0  0  2  0  0  0  0  0  0
  160.6150  201.4590  146.6100 O   0  0  0  0  0  0  0  0  0  0  0  0
  161.8750  206.3440  152.6820 C   0  0  2  0  0  3  0  0  0  0  0  0
  160.7170  204.0340  152.6410 C   0  0  0  0  0  1  0  0  0  0  0  0
  160.9620  206.1900  151.4850 C   0  0  2  0  0  3  0  0  0  0  0  0
  161.7210  204.9770  151.9890 C   0  0  1  0  0  3  0  0  0  0  0  0
  161.0520  206.5220  153.9530 C   0  0  0  0  0  2  0  0  0  0  0  0
  161.4990  207.7250  154.6420 N   0  0  0  0  0  2  0  0  0  0  0  0
  159.2220  207.2900  155.9120 O   0  0  0  0  0  0  0  0  0  0  0  0
  160.5760  207.9200  156.1020 S   0  0  0  0  0  0  0  0  0  0  0  0
  161.2670  207.2490  157.2610 O   0  0  0  0  0  0  0  0  0  0  0  0
  160.3900  209.6640  156.4770 C   0  0  1  0  0  3  0  0  0  0  0  0
  162.6160  210.5560  157.2610 N   0  0  0  0  0  1  0  0  0  0  0  0
  161.8870  210.9240  155.0900 O   0  0  0  0  0  0  0  0  0  0  0  0
  161.6620  210.4040  156.2150 C   0  0  0  0  0  0  0  0  0  0  0  0
  158.4490  211.1530  156.5480 N   0  0  0  0  0  1  0  0  0  0  0  0
  159.2390  210.2800  155.6920 C   0  0  0  0  0  2  0  0  0  0  0  0
  162.7440  207.6680  150.5340 C   0  0  0  0  0  2  0  0  0  0  0  0
  162.5550  209.1940  150.5440 C   0  0  0  0  0  2  0  0  0  0  0  0
  162.2910  209.7400  151.9350 C   0  0  0  0  0  2  0  0  0  0  0  0
  160.9200  209.8860  152.1410 O   0  0  0  0  0  1  0  0  0  0  0  0
  161.4690  209.6090  148.4990 C   0  0  0  0  0  2  0  0  0  0  0  0
  161.0850  210.5320  147.3510 C   0  0  0  0  0  2  0  0  0  0  0  0
  160.9370  212.0040  147.7550 C   0  0  2  0  0  3  0  0  0  0  0  0
  159.6210  212.3150  148.4700 C   0  0  0  0  0  2  0  0  0  0  0  0
  159.7410  213.4410  149.5000 C   0  0  2  0  0  3  0  0  0  0  0  0
  160.8500  213.0410  150.4690 C   0  0  0  0  0  1  0  0  0  0  0  0
  158.3910  212.8530  151.4120 O   0  0  0  0  0  1  0  0  0  0  0  0
  158.4240  213.6570  150.2680 C   0  0  2  0  0  3  0  0  0  0  0  0
  157.2280  213.3180  149.3840 C   0  0  0  0  0  2  0  0  0  0  0  0
  156.1410  214.3720  149.5010 C   0  0  0  0  0  2  0  0  0  0  0  0
  155.0020  213.8200  150.0880 O   0  0  0  0  0  1  0  0  0  0  0  0
  161.2760  213.0130  146.6410 C   0  0  0  0  0  2  0  0  0  0  0  0
  159.0870  212.7640  145.5120 C   0  0  0  0  0  1  0  0  0  0  0  0
  160.5940  212.6920  145.3140 C   0  0  1  0  0  3  0  0  0  0  0  0
  161.0620  213.6760  144.2440 C   0  0  0  0  0  2  0  0  0  0  0  0
  162.4540  213.5770  142.1000 C   0  0  0  0  0  2  0  0  0  0  0  0
  162.2400  212.1420  142.5610 C   0  0  0  0  0  2  0  0  0  0  0  0
  162.3760  213.2550  143.5770 C   0  0  0  0  0  0  0  0  0  0  0  0
  163.7110  213.3880  144.2890 C   0  0  0  0  0  1  0  0  0  0  0  0
  1  7  1  0  0  0  0
  1 10  1  0  0  0  0
  2  5  1  0  0  0  0
  3 36  1  1  0  0  0
  3  6  1  0  0  0  0
  6 14  1  0  0  0  0
  7 10  1  0  0  0  0
  8  9  1  0  0  0  0
  8  1  2  0  0  0  0
  9 13  1  1  0  0  0
  9 12  1  0  0  0  0
 10 15  1  6  0  0  0
 10 11  1  0  0  0  0
 11  4  1  6  0  0  0
 11 14  1  0  0  0  0
 12  5  1  6  0  0  0
 12  4  1  0  0  0  0
 13 16  1  0  0  0  0
 14 32  1  1  0  0  0
 15  3  1  0  0  0  0
 16  2  1  0  0  0  0
 17 21  1  1  0  0  0
 19 14  1  6  0  0  0
 19 20  1  0  0  0  0
 19 17  1  0  0  0  0
 20 18  1  1  0  0  0
 20 17  1  0  0  0  0
 21 22  1  0  0  0  0
 22 24  1  0  0  0  0
 23 24  2  0  0  0  0
 24 26  1  0  0  0  0
 24 25  2  0  0  0  0
 26 31  1  6  0  0  0
 28 29  2  0  0  0  0
 29 26  1  0  0  0  0
 29 27  1  0  0  0  0
 31 30  1  0  0  0  0
 32 33  1  0  0  0  0
 33 34  1  0  0  0  0
 34 35  1  0  0  0  0
 37 38  1  0  0  0  0
 37 36  1  0  0  0  0
 38 47  1  6  0  0  0
 38 39  1  0  0  0  0
 39 40  1  0  0  0  0
 40 43  1  0  0  0  0
 40 41  1  1  0  0  0
 43 42  1  1  0  0  0
 44 45  1  0  0  0  0
 44 43  1  0  0  0  0
 45 46  1  0  0  0  0
 49 48  1  1  0  0  0
 49 47  1  0  0  0  0
 50 49  1  0  0  0  0
 51 52  1  0  0  0  0
 51 53  1  0  0  0  0
 52 53  1  0  0  0  0
 53 50  1  0  0  0  0
 53 54  1  0  0  0  0
M  END
>  <MODEL>
1

>  <REMARK>
 VINA RESULT:      -2.9      0.000      0.000
  Name = 
  22 active torsions:
  status: ('A' for Active; 'I' for Inactive)
    1  A    between atoms: C_2  and  S_14
    2  A    between atoms: C_2  and  C_35
    3  A    between atoms: C_2  and  C_51
    4  A    between atoms: C_4  and  C_13
    5  A    between atoms: C_4  and  C_28
    6  A    between atoms: C_5  and  C_50
    7  A    between atoms: C_5  and  C_54
    8  A    between atoms: C_6  and  C_44
    9  A    between atoms: C_6  and  C_49
   10  A    between atoms: C_9  and  C_42
   11  A    between atoms: C_11  and  C_43
   12  A    between atoms: S_14  and  N_38
   13  A    between atoms: C_19  and  C_25
   14  A    between atoms: C_19  and  C_44
   15  A    between atoms: C_21  and  C_36
   16  A    between atoms: C_25  and  C_54
   17  A    between atoms: C_28  and  C_36
   18  A    between atoms: C_31  and  C_48
   19  A    between atoms: C_31  and  C_49
   20  A    between atoms: N_38  and  C_43
   21  A    between atoms: C_42  and  C_46
   22  A    between atoms: C_44  and  C_46
                            x       y       z     vdW  Elec       q    Type
                         _______ _______ _______ _____ _____    ______ ____

>  <TORSDO>
F 22

$$$$
=
 OpenBabel11072410013D

 54 59  0  0  1  0  0  0  0  0999 V2000
  161.0450  208.5790  148.7540 C   0  0  0  0  0  0  0  0  0  0  0  0
  161.6210  213.5170  149.0990 C   0  0  0  0  0  2  0  0  0  0  0  0
  163.1070  207.1340  151.5260 C   0  0  2  0  0  3  0  0  0  0  0  0
  162.0120  210.2190  150.7880 O   0  0  0  0  0  0  0  0  0  0  0  0
  161.9260  212.5400  150.2310 C   0  0  0  0  0  2  0  0  0  0  0  0
  162.6670  208.0550  152.5390 O   0  0  0  0  0  0  0  0  0  0  0  0
  160.5170  207.3000  149.3370 O   0  0  0  0  0  0  0  0  0  0  0  0
  161.1250  209.5780  147.9000 C   0  0  0  0  0  3  0  0  0  0  0  0
  161.8800  210.7720  148.3920 C   0  0  2  0  0  3  0  0  0  0  0  0
  161.4420  208.0840  149.9680 C   0  0  2  0  0  0  0  0  0  0  0  0
  161.1010  209.1440  150.9940 C   0  0  1  0  0  3  0  0  0  0  0  0
  161.4590  211.1290  149.8570 C   0  0  1  0  0  3  0  0  0  0  0  0
  161.5690  211.9560  147.4730 C   0  0  0  0  0  2  0  0  0  0  0  0
  161.3180  208.5200  152.4030 C   0  0  2  0  0  0  0  0  0  0  0  0
  162.8280  207.5120  150.0620 C   0  0  0  0  0  2  0  0  0  0  0  0
  162.2570  213.0980  147.9170 O   0  0  0  0  0  0  0  0  0  0  0  0
  160.9590  210.9750  153.1630 C   0  0  2  0  0  3  0  0  0  0  0  0
  162.1870  210.6780  155.4180 C   0  0  0  0  0  1  0  0  0  0  0  0
  161.0450  209.5210  153.5730 C   0  0  2  0  0  3  0  0  0  0  0  0
  162.1970  210.4470  153.9110 C   0  0  1  0  0  3  0  0  0  0  0  0
  159.9420  211.7090  154.0300 C   0  0  0  0  0  2  0  0  0  0  0  0
  158.6240  211.5780  153.4280 N   0  0  0  0  0  2  0  0  0  0  0  0
  158.8230  214.1730  153.8920 O   0  0  0  0  0  0  0  0  0  0  0  0
  157.8390  213.1300  153.4340 S   0  0  0  0  0  0  0  0  0  0  0  0
  157.3580  213.4870  152.0520 O   0  0  0  0  0  0  0  0  0  0  0  0
  156.4280  213.0950  154.5410 C   0  0  1  0  0  3  0  0  0  0  0  0
  156.9940  211.4310  156.3510 N   0  0  0  0  0  1  0  0  0  0  0  0
  155.5410  210.8680  154.6330 O   0  0  0  0  0  0  0  0  0  0  0  0
  156.2730  211.7440  155.1640 C   0  0  0  0  0  0  0  0  0  0  0  0
  155.2330  214.4520  156.1900 N   0  0  0  0  0  1  0  0  0  0  0  0
  156.5400  214.1710  155.6140 C   0  0  0  0  0  2  0  0  0  0  0  0
  160.3070  207.3500  152.5680 C   0  0  0  0  0  2  0  0  0  0  0  0
  160.3420  206.5830  153.9010 C   0  0  0  0  0  2  0  0  0  0  0  0
  160.1100  207.4850  155.0990 C   0  0  0  0  0  2  0  0  0  0  0  0
  160.8140  207.0060  156.2030 O   0  0  0  0  0  1  0  0  0  0  0  0
  162.7970  205.6770  151.8350 C   0  0  0  0  0  2  0  0  0  0  0  0
  161.5350  205.2350  151.1070 C   0  0  0  0  0  2  0  0  0  0  0  0
  161.7990  204.3690  149.8690 C   0  0  2  0  0  3  0  0  0  0  0  0
  162.4930  205.1210  148.7320 C   0  0  0  0  0  2  0  0  0  0  0  0
  161.9980  204.7120  147.3430 C   0  0  2  0  0  3  0  0  0  0  0  0
  163.1280  203.9310  146.6790 C   0  0  0  0  0  1  0  0  0  0  0  0
  160.2400  206.0410  146.3580 O   0  0  0  0  0  1  0  0  0  0  0  0
  161.6290  205.9360  146.4840 C   0  0  2  0  0  3  0  0  0  0  0  0
  162.2490  205.8200  145.0950 C   0  0  0  0  0  2  0  0  0  0  0  0
  161.2070  205.4390  144.0580 C   0  0  0  0  0  2  0  0  0  0  0  0
  161.6050  205.8820  142.7960 O   0  0  0  0  0  1  0  0  0  0  0  0
  160.5910  203.5380  149.3970 C   0  0  0  0  0  2  0  0  0  0  0  0
  161.0490  201.2410  150.2000 C   0  0  0  0  0  1  0  0  0  0  0  0
  160.9690  202.1240  148.9630 C   0  0  1  0  0  3  0  0  0  0  0  0
  159.9360  201.5970  147.9700 C   0  0  0  0  0  2  0  0  0  0  0  0
  160.8270  201.9670  145.6010 C   0  0  0  0  0  2  0  0  0  0  0  0
  159.6780  200.9750  145.4960 C   0  0  0  0  0  2  0  0  0  0  0  0
  160.5690  200.9800  146.7180 C   0  0  0  0  0  0  0  0  0  0  0  0
  161.6280  199.8940  146.8120 C   0  0  0  0  0  1  0  0  0  0  0  0
  1  7  1  0  0  0  0
  1 10  1  0  0  0  0
  2  5  1  0  0  0  0
  3 36  1  1  0  0  0
  3  6  1  0  0  0  0
  7 10  1  0  0  0  0
  8  9  1  0  0  0  0
  8  1  2  0  0  0  0
  9 13  1  6  0  0  0
  9 12  1  0  0  0  0
 10 15  1  1  0  0  0
 10 11  1  0  0  0  0
 11  4  1  6  0  0  0
 11 14  1  0  0  0  0
 12  5  1  1  0  0  0
 12  4  1  0  0  0  0
 13 16  1  0  0  0  0
 14  6  1  0  0  0  0
 14 32  1  1  0  0  0
 15  3  1  0  0  0  0
 16  2  1  0  0  0  0
 17 19  1  0  0  0  0
 17 20  1  0  0  0  0
 17 21  1  1  0  0  0
 19 14  1  6  0  0  0
 19 20  1  0  0  0  0
 20 18  1  1  0  0  0
 22 24  1  0  0  0  0
 22 21  1  0  0  0  0
 24 23  2  0  0  0  0
 24 26  1  0  0  0  0
 25 24  2  0  0  0  0
 26 29  1  0  0  0  0
 26 31  1  1  0  0  0
 28 29  2  0  0  0  0
 29 27  1  0  0  0  0
 31 30  1  0  0  0  0
 32 33  1  0  0  0  0
 33 34  1  0  0  0  0
 34 35  1  0  0  0  0
 37 36  1  0  0  0  0
 38 39  1  6  0  0  0
 38 37  1  0  0  0  0
 40 41  1  6  0  0  0
 40 39  1  0  0  0  0
 43 42  1  6  0  0  0
 43 40  1  0  0  0  0
 44 43  1  0  0  0  0
 45 44  1  0  0  0  0
 46 45  1  0  0  0  0
 47 38  1  0  0  0  0
 49 47  1  0  0  0  0
 49 48  1  1  0  0  0
 50 49  1  0  0  0  0
 51 53  1  0  0  0  0
 52 51  1  0  0  0  0
 52 53  1  0  0  0  0
 53 54  1  0  0  0  0
 53 50  1  0  0  0  0
M  END
>  <MODEL>
2

>  <REMARK>
 VINA RESULT:      -1.0      2.761      8.061
  Name = 
  22 active torsions:
  status: ('A' for Active; 'I' for Inactive)
    1  A    between atoms: C_2  and  S_14
    2  A    between atoms: C_2  and  C_35
    3  A    between atoms: C_2  and  C_51
    4  A    between atoms: C_4  and  C_13
    5  A    between atoms: C_4  and  C_28
    6  A    between atoms: C_5  and  C_50
    7  A    between atoms: C_5  and  C_54
    8  A    between atoms: C_6  and  C_44
    9  A    between atoms: C_6  and  C_49
   10  A    between atoms: C_9  and  C_42
   11  A    between atoms: C_11  and  C_43
   12  A    between atoms: S_14  and  N_38
   13  A    between atoms: C_19  and  C_25
   14  A    between atoms: C_19  and  C_44
   15  A    between atoms: C_21  and  C_36
   16  A    between atoms: C_25  and  C_54
   17  A    between atoms: C_28  and  C_36
   18  A    between atoms: C_31  and  C_48
   19  A    between atoms: C_31  and  C_49
   20  A    between atoms: N_38  and  C_43
   21  A    between atoms: C_42  and  C_46
   22  A    between atoms: C_44  and  C_46
                            x       y       z     vdW  Elec       q    Type
                         _______ _______ _______ _____ _____    ______ ____

>  <TORSDO>
F 22

$$$$
=
 OpenBabel11072410013D

 54 59  0  0  1  0  0  0  0  0999 V2000
  162.0520  206.1380  153.7270 C   0  0  0  0  0  0  0  0  0  0  0  0
  159.7800  209.3900  156.7440 C   0  0  0  0  0  2  0  0  0  0  0  0
  160.2650  206.4000  150.4470 C   0  0  2  0  0  3  0  0  0  0  0  0
  160.3250  208.2670  153.2330 O   0  0  0  0  0  0  0  0  0  0  0  0
  159.6830  209.4250  155.2220 C   0  0  0  0  0  2  0  0  0  0  0  0
  160.2270  207.8360  150.4080 O   0  0  0  0  0  0  0  0  0  0  0  0
  162.9040  205.8810  152.5190 O   0  0  0  0  0  0  0  0  0  0  0  0
  161.7460  206.1780  155.0080 C   0  0  0  0  0  3  0  0  0  0  0  0
  160.5710  207.0370  155.3520 C   0  0  2  0  0  3  0  0  0  0  0  0
  161.6930  206.5120  152.4600 C   0  0  2  0  0  0  0  0  0  0  0  0
  161.5130  208.0150  152.4910 C   0  0  1  0  0  3  0  0  0  0  0  0
  160.6490  208.4090  154.6030 C   0  0  1  0  0  3  0  0  0  0  0  0
  160.5750  207.2840  156.8630 C   0  0  0  0  0  2  0  0  0  0  0  0
  161.3410  208.4970  151.0220 C   0  0  2  0  0  0  0  0  0  0  0  0
  160.5860  205.7400  151.7970 C   0  0  0  0  0  2  0  0  0  0  0  0
  159.4860  208.0980  157.2170 O   0  0  0  0  0  0  0  0  0  0  0  0
  162.3420  210.8920  151.0290 C   0  0  2  0  0  3  0  0  0  0  0  0
  160.3050  211.9670  152.2010 C   0  0  0  0  0  1  0  0  0  0  0  0
  161.0990  210.0370  150.9000 C   0  0  2  0  0  3  0  0  0  0  0  0
  161.3170  210.8270  152.1760 C   0  0  1  0  0  3  0  0  0  0  0  0
  162.2330  212.1200  150.1310 C   0  0  0  0  0  2  0  0  0  0  0  0
  161.6080  211.7350  148.8750 N   0  0  0  0  0  2  0  0  0  0  0  0
  162.4100  214.1310  148.0990 O   0  0  0  0  0  0  0  0  0  0  0  0
  162.2470  212.7220  147.5950 S   0  0  0  0  0  0  0  0  0  0  0  0
  163.5900  212.2070  147.1470 O   0  0  0  0  0  0  0  0  0  0  0  0
  161.1280  212.7020  146.1930 C   0  0  1  0  0  3  0  0  0  0  0  0
  159.5190  214.4480  147.0420 N   0  0  0  0  0  1  0  0  0  0  0  0
  158.8010  212.2880  146.6010 O   0  0  0  0  0  0  0  0  0  0  0  0
  159.7520  213.1140  146.6040 C   0  0  0  0  0  0  0  0  0  0  0  0
  161.2050  213.0700  143.7740 N   0  0  0  0  0  1  0  0  0  0  0  0
  161.6400  213.5880  145.0640 C   0  0  0  0  0  2  0  0  0  0  0  0
  162.6600  208.1880  150.2590 C   0  0  0  0  0  2  0  0  0  0  0  0
  162.5260  207.6740  148.8170 C   0  0  0  0  0  2  0  0  0  0  0  0
  162.3950  208.7970  147.8060 C   0  0  0  0  0  2  0  0  0  0  0  0
  161.0540  208.9940  147.4780 O   0  0  0  0  0  1  0  0  0  0  0  0
  161.0120  205.7670  149.2820 C   0  0  0  0  0  2  0  0  0  0  0  0
  160.7210  204.2750  149.2090 C   0  0  0  0  0  2  0  0  0  0  0  0
  161.1000  203.6280  147.8710 C   0  0  2  0  0  3  0  0  0  0  0  0
  160.5620  202.2060  147.7030 C   0  0  0  0  0  2  0  0  0  0  0  0
  161.3630  201.1580  148.4790 C   0  0  2  0  0  3  0  0  0  0  0  0
  161.3470  199.8790  147.6460 C   0  0  0  0  0  1  0  0  0  0  0  0
  159.4780  200.3400  149.7440 O   0  0  0  0  0  1  0  0  0  0  0  0
  160.7580  200.8890  149.8690 C   0  0  2  0  0  3  0  0  0  0  0  0
  160.6720  202.1820  150.6730 C   0  0  0  0  0  2  0  0  0  0  0  0
  161.4330  202.0670  151.9830 C   0  0  0  0  0  2  0  0  0  0  0  0
  162.5470  202.9060  151.9630 O   0  0  0  0  0  1  0  0  0  0  0  0
  162.5860  203.7630  147.4910 C   0  0  0  0  0  2  0  0  0  0  0  0
  164.2170  204.2320  145.6880 C   0  0  0  0  0  1  0  0  0  0  0  0
  162.8040  204.5120  146.1790 C   0  0  1  0  0  3  0  0  0  0  0  0
  161.7610  204.0680  145.1540 C   0  0  0  0  0  2  0  0  0  0  0  0
  160.6770  206.3650  145.4560 C   0  0  0  0  0  2  0  0  0  0  0  0
  159.5930  205.4200  144.9550 C   0  0  0  0  0  2  0  0  0  0  0  0
  161.0250  205.2430  144.5020 C   0  0  0  0  0  0  0  0  0  0  0  0
  161.3790  205.7320  143.1080 C   0  0  0  0  0  1  0  0  0  0  0  0
  1  8  2  0  0  0  0
  2 16  1  0  0  0  0
  3 36  1  6  0  0  0
  3 15  1  0  0  0  0
  4 12  1  0  0  0  0
  5  2  1  0  0  0  0
  6  3  1  0  0  0  0
  6 14  1  0  0  0  0
  7  1  1  0  0  0  0
  9  8  1  1  0  0  0
  9 13  1  0  0  0  0
 10 15  1  6  0  0  0
 10 11  1  0  0  0  0
 10  7  1  0  0  0  0
 10  1  1  0  0  0  0
 11  4  1  1  0  0  0
 12  5  1  1  0  0  0
 12  9  1  0  0  0  0
 13 16  1  0  0  0  0
 14 32  1  6  0  0  0
 14 11  1  0  0  0  0
 17 21  1  6  0  0  0
 17 20  1  0  0  0  0
 19 14  1  1  0  0  0
 19 17  1  0  0  0  0
 19 20  1  0  0  0  0
 20 18  1  6  0  0  0
 22 21  1  0  0  0  0
 24 23  2  0  0  0  0
 24 22  1  0  0  0  0
 25 24  2  0  0  0  0
 26 31  1  6  0  0  0
 26 29  1  0  0  0  0
 26 24  1  0  0  0  0
 28 29  2  0  0  0  0
 29 27  1  0  0  0  0
 30 31  1  0  0  0  0
 33 32  1  0  0  0  0
 34 33  1  0  0  0  0
 35 34  1  0  0  0  0
 37 36  1  0  0  0  0
 38 47  1  1  0  0  0
 38 37  1  0  0  0  0
 39 38  1  0  0  0  0
 39 40  1  0  0  0  0
 40 41  1  6  0  0  0
 40 43  1  0  0  0  0
 43 42  1  6  0  0  0
 43 44  1  0  0  0  0
 44 45  1  0  0  0  0
 46 45  1  0  0  0  0
 49 48  1  6  0  0  0
 49 47  1  0  0  0  0
 50 49  1  0  0  0  0
 52 51  1  0  0  0  0
 53 52  1  0  0  0  0
 53 50  1  0  0  0  0
 53 51  1  0  0  0  0
 54 53  1  0  0  0  0
M  END
>  <MODEL>
3

>  <REMARK>
 VINA RESULT:      -0.9      3.475      8.930
  Name = 
  22 active torsions:
  status: ('A' for Active; 'I' for Inactive)
    1  A    between atoms: C_2  and  S_14
    2  A    between atoms: C_2  and  C_35
    3  A    between atoms: C_2  and  C_51
    4  A    between atoms: C_4  and  C_13
    5  A    between atoms: C_4  and  C_28
    6  A    between atoms: C_5  and  C_50
    7  A    between atoms: C_5  and  C_54
    8  A    between atoms: C_6  and  C_44
    9  A    between atoms: C_6  and  C_49
   10  A    between atoms: C_9  and  C_42
   11  A    between atoms: C_11  and  C_43
   12  A    between atoms: S_14  and  N_38
   13  A    between atoms: C_19  and  C_25
   14  A    between atoms: C_19  and  C_44
   15  A    between atoms: C_21  and  C_36
   16  A    between atoms: C_25  and  C_54
   17  A    between atoms: C_28  and  C_36
   18  A    between atoms: C_31  and  C_48
   19  A    between atoms: C_31  and  C_49
   20  A    between atoms: N_38  and  C_43
   21  A    between atoms: C_42  and  C_46
   22  A    between atoms: C_44  and  C_46
                            x       y       z     vdW  Elec       q    Type
                         _______ _______ _______ _____ _____    ______ ____

>  <TORSDO>
F 22

$$$$
=
 OpenBabel11072410013D

 54 59  0  0  1  0  0  0  0  0999 V2000
  162.1530  210.1310  149.3790 C   0  0  0  0  0  0  0  0  0  0  0  0
  161.5820  205.4170  147.8670 C   0  0  0  0  0  2  0  0  0  0  0  0
  159.7730  210.5600  152.2380 C   0  0  2  0  0  3  0  0  0  0  0  0
  160.9720  207.9070  150.5700 O   0  0  0  0  0  0  0  0  0  0  0  0
  161.1410  205.9350  149.2330 C   0  0  0  0  0  2  0  0  0  0  0  0
  160.1010  209.3250  152.8970 O   0  0  0  0  0  0  0  0  0  0  0  0
  162.5990  211.0990  150.4350 O   0  0  0  0  0  0  0  0  0  0  0  0
  162.1800  209.5050  148.2200 C   0  0  0  0  0  3  0  0  0  0  0  0
  161.3830  208.2400  148.1650 C   0  0  2  0  0  3  0  0  0  0  0  0
  161.6140  210.1730  150.6370 C   0  0  2  0  0  0  0  0  0  0  0  0
  161.8440  208.8060  151.2470 C   0  0  1  0  0  3  0  0  0  0  0  0
  161.6360  207.3710  149.4420 C   0  0  1  0  0  3  0  0  0  0  0  0
  161.8080  207.4520  146.9240 C   0  0  0  0  0  2  0  0  0  0  0  0
  161.4610  208.8940  152.7530 C   0  0  2  0  0  0  0  0  0  0  0  0
  160.2220  210.7200  150.7770 C   0  0  0  0  0  2  0  0  0  0  0  0
  161.0830  206.2500  146.8500 O   0  0  0  0  0  0  0  0  0  0  0  0
  160.9690  206.3470  152.8180 C   0  0  2  0  0  3  0  0  0  0  0  0
  160.6410  206.2630  155.3800 C   0  0  0  0  0  1  0  0  0  0  0  0
  161.6060  207.5330  153.5090 C   0  0  2  0  0  3  0  0  0  0  0  0
  160.3150  206.9650  154.0670 C   0  0  1  0  0  3  0  0  0  0  0  0
  161.7890  205.0860  153.0720 C   0  0  0  0  0  2  0  0  0  0  0  0
  161.9560  204.3690  151.8170 N   0  0  0  0  0  2  0  0  0  0  0  0
  160.1730  202.7630  152.9250 O   0  0  0  0  0  0  0  0  0  0  0  0
  160.6040  203.3000  151.5870 S   0  0  0  0  0  0  0  0  0  0  0  0
  159.4470  204.0350  150.9620 O   0  0  0  0  0  0  0  0  0  0  0  0
  161.0740  201.9460  150.5090 C   0  0  1  0  0  3  0  0  0  0  0  0
  159.7180  201.4240  148.4470 N   0  0  0  0  0  1  0  0  0  0  0  0
  158.9750  200.7870  150.5490 O   0  0  0  0  0  0  0  0  0  0  0  0
  159.8710  201.3400  149.8600 C   0  0  0  0  0  0  0  0  0  0  0  0
  161.5350  202.2190  148.1200 N   0  0  0  0  0  1  0  0  0  0  0  0
  162.0800  202.3980  149.4580 C   0  0  0  0  0  2  0  0  0  0  0  0
  162.4360  209.8940  153.4370 C   0  0  0  0  0  2  0  0  0  0  0  0
  162.0600  210.3780  154.8470 C   0  0  0  0  0  2  0  0  0  0  0  0
  163.2680  210.5320  155.7520 C   0  0  0  0  0  2  0  0  0  0  0  0
  162.9870  211.4340  156.7770 O   0  0  0  0  0  1  0  0  0  0  0  0
  160.0330  211.8000  153.0810 C   0  0  0  0  0  2  0  0  0  0  0  0
  158.7640  212.2300  153.8020 C   0  0  0  0  0  2  0  0  0  0  0  0
  158.5360  213.7470  153.8150 C   0  0  2  0  0  3  0  0  0  0  0  0
  159.0230  214.4520  152.5480 C   0  0  0  0  0  2  0  0  0  0  0  0
  157.9950  214.4440  151.4150 C   0  0  2  0  0  3  0  0  0  0  0  0
  156.7690  213.6950  151.9310 C   0  0  0  0  0  1  0  0  0  0  0  0
  159.6430  214.4520  149.6530 O   0  0  0  0  0  1  0  0  0  0  0  0
  158.5400  213.7520  150.1510 C   0  0  2  0  0  3  0  0  0  0  0  0
  157.4630  213.6830  149.0740 C   0  0  0  0  0  2  0  0  0  0  0  0
  157.9360  212.8800  147.8750 C   0  0  0  0  0  2  0  0  0  0  0  0
  156.9390  212.8450  146.8990 O   0  0  0  0  0  1  0  0  0  0  0  0
  158.9800  214.4520  155.1110 C   0  0  0  0  0  2  0  0  0  0  0  0
  159.9630  213.6930  157.2520 C   0  0  0  0  0  1  0  0  0  0  0  0
  158.7300  213.6180  156.3640 C   0  0  1  0  0  3  0  0  0  0  0  0
  157.4900  214.1380  157.0890 C   0  0  0  0  0  2  0  0  0  0  0  0
  155.4550  214.0380  155.5420 C   0  0  0  0  0  2  0  0  0  0  0  0
  154.9300  214.1570  156.9660 C   0  0  0  0  0  2  0  0  0  0  0  0
  156.2090  213.3990  156.6890 C   0  0  0  0  0  0  0  0  0  0  0  0
  156.1310  211.8820  156.6830 C   0  0  0  0  0  1  0  0  0  0  0  0
  1  7  1  0  0  0  0
  1 10  1  0  0  0  0
  2  5  1  0  0  0  0
  3  6  1  0  0  0  0
  3 36  1  1  0  0  0
  7 10  1  0  0  0  0
  8  1  2  0  0  0  0
  9 13  1  6  0  0  0
  9  8  1  0  0  0  0
  9 12  1  0  0  0  0
 10 15  1  1  0  0  0
 10 11  1  0  0  0  0
 11  4  1  6  0  0  0
 11 14  1  0  0  0  0
 12  5  1  6  0  0  0
 12  4  1  0  0  0  0
 14  6  1  0  0  0  0
 14 32  1  1  0  0  0
 15  3  1  0  0  0  0
 16 13  1  0  0  0  0
 16  2  1  0  0  0  0
 17 21  1  1  0  0  0
 17 19  1  0  0  0  0
 17 20  1  0  0  0  0
 19 14  1  6  0  0  0
 19 20  1  0  0  0  0
 20 18  1  1  0  0  0
 22 21  1  0  0  0  0
 24 22  1  0  0  0  0
 24 23  2  0  0  0  0
 25 24  2  0  0  0  0
 26 31  1  6  0  0  0
 26 24  1  0  0  0  0
 27 29  1  0  0  0  0
 29 26  1  0  0  0  0
 29 28  2  0  0  0  0
 30 31  1  0  0  0  0
 32 33  1  0  0  0  0
 33 34  1  0  0  0  0
 34 35  1  0  0  0  0
 36 37  1  0  0  0  0
 37 38  1  0  0  0  0
 38 39  1  6  0  0  0
 38 47  1  0  0  0  0
 40 41  1  1  0  0  0
 40 39  1  0  0  0  0
 43 42  1  6  0  0  0
 43 40  1  0  0  0  0
 44 43  1  0  0  0  0
 45 44  1  0  0  0  0
 46 45  1  0  0  0  0
 47 49  1  0  0  0  0
 49 50  1  0  0  0  0
 49 48  1  1  0  0  0
 51 53  1  0  0  0  0
 51 52  1  0  0  0  0
 53 52  1  0  0  0  0
 53 50  1  0  0  0  0
 54 53  1  0  0  0  0
M  END
>  <MODEL>
4

>  <REMARK>
 VINA RESULT:      -0.3      3.372      7.474
  Name = 
  22 active torsions:
  status: ('A' for Active; 'I' for Inactive)
    1  A    between atoms: C_2  and  S_14
    2  A    between atoms: C_2  and  C_35
    3  A    between atoms: C_2  and  C_51
    4  A    between atoms: C_4  and  C_13
    5  A    between atoms: C_4  and  C_28
    6  A    between atoms: C_5  and  C_50
    7  A    between atoms: C_5  and  C_54
    8  A    between atoms: C_6  and  C_44
    9  A    between atoms: C_6  and  C_49
   10  A    between atoms: C_9  and  C_42
   11  A    between atoms: C_11  and  C_43
   12  A    between atoms: S_14  and  N_38
   13  A    between atoms: C_19  and  C_25
   14  A    between atoms: C_19  and  C_44
   15  A    between atoms: C_21  and  C_36
   16  A    between atoms: C_25  and  C_54
   17  A    between atoms: C_28  and  C_36
   18  A    between atoms: C_31  and  C_48
   19  A    between atoms: C_31  and  C_49
   20  A    between atoms: N_38  and  C_43
   21  A    between atoms: C_42  and  C_46
   22  A    between atoms: C_44  and  C_46
                            x       y       z     vdW  Elec       q    Type
                         _______ _______ _______ _____ _____    ______ ____

>  <TORSDO>
F 22

$$$$
