=
 OpenBabel11072411273D

 35 39  0  0  1  0  0  0  0  0999 V2000
  162.6980  207.4300  148.3420 C   0  0  0  0  0  2  0  0  0  0  0  0
  162.6040  207.2050  150.9100 C   0  0  2  0  0  3  0  0  0  0  0  0
  161.5610  208.3370  148.7810 C   0  0  0  0  0  2  0  0  0  0  0  0
  161.8870  207.0810  149.5770 C   0  0  0  0  0  0  0  0  0  0  0  0
  160.9160  205.8920  149.5460 C   0  0  2  0  0  0  0  0  0  0  0  0
  159.6190  206.3490  149.2850 O   0  0  0  0  0  1  0  0  0  0  0  0
  162.2790  205.8820  151.5910 C   0  0  0  0  0  2  0  0  0  0  0  0
  160.9740  205.3730  150.9790 C   0  0  0  0  0  2  0  0  0  0  0  0
  160.2840  202.7410  146.7130 C   0  0  0  0  0  2  0  0  0  0  0  0
  161.2680  202.9440  150.2390 C   0  0  0  0  0  3  0  0  0  0  0  0
  163.4370  204.6420  145.5290 C   0  0  0  0  0  1  0  0  0  0  0  0
  162.5240  203.9910  146.5460 C   0  0  2  0  0  3  0  0  0  0  0  0
  161.0920  203.3310  148.9770 C   0  0  0  0  0  0  0  0  0  0  0  0
  160.7320  202.3750  148.0150 O   0  0  0  0  0  0  0  0  0  0  0  0
  161.4360  203.2000  145.8150 C   0  0  0  0  0  2  0  0  0  0  0  0
  161.0910  201.6160  150.6130 O   0  0  0  0  0  1  0  0  0  0  0  0
  161.9740  205.0420  147.4680 C   0  0  0  0  0  3  0  0  0  0  0  0
  161.2990  204.7580  148.5950 C   0  0  0  0  0  0  0  0  0  0  0  0
  159.3150  211.1360  153.6930 O   0  0  0  0  0  1  0  0  0  0  0  0
  162.5550  209.6350  151.5520 O   0  0  0  0  0  0  0  0  0  0  0  0
  160.4530  209.0490  153.5320 C   0  0  0  0  0  2  0  0  0  0  0  0
  162.0880  210.7140  152.2110 O   0  0  0  0  0  0  0  0  0  0  0  0
  159.7920  210.2030  152.7700 C   0  0  2  0  0  3  0  0  0  0  0  0
  160.7650  210.8690  151.7800 C   0  0  1  0  0  3  0  0  0  0  0  0
  162.0740  208.3250  151.7560 C   0  0  0  0  0  0  0  0  0  0  0  0
  161.0970  208.0400  152.6290 C   0  0  0  0  0  3  0  0  0  0  0  0
  160.4700  212.2460  151.5790 O   0  0  0  0  0  0  0  0  0  0  0  0
  157.0070  214.4530  148.4810 N   0  0  0  0  0  1  0  0  0  0  0  0
  160.8000  213.1880  146.6940 C   0  0  0  0  0  1  0  0  0  0  0  0
  159.2270  213.7010  148.6340 C   0  0  0  0  0  0  0  0  0  0  0  0
  160.2130  212.7680  150.3110 C   0  0  0  0  0  0  0  0  0  0  0  0
  160.4940  213.3560  148.1030 N   0  0  0  0  0  0  0  0  0  0  0  0
  161.2020  212.6880  149.1810 C   0  0  0  0  0  2  0  0  0  0  0  0
  158.2610  214.1880  147.9200 N   0  0  0  0  0  0  0  0  0  0  0  0
  159.0930  213.3420  149.9980 N   0  0  0  0  0  0  0  0  0  0  0  0
  1  3  1  0  0  0  0
  1  4  1  0  0  0  0
  2  7  1  0  0  0  0
  2 25  1  1  0  0  0
  3  4  1  0  0  0  0
  4  2  1  0  0  0  0
  5  6  1  6  0  0  0
  5  4  1  0  0  0  0
  5  8  1  0  0  0  0
  8  7  1  0  0  0  0
  9 14  1  0  0  0  0
 10 16  1  0  0  0  0
 12 11  1  6  0  0  0
 12 17  1  0  0  0  0
 13 10  2  0  0  0  0
 14 13  1  0  0  0  0
 15 12  1  0  0  0  0
 15  9  1  0  0  0  0
 17 18  2  0  0  0  0
 18 13  1  0  0  0  0
 18  5  1  0  0  0  0
 20 25  1  0  0  0  0
 20 22  1  0  0  0  0
 23 21  1  0  0  0  0
 23 19  1  1  0  0  0
 24 27  1  1  0  0  0
 24 22  1  0  0  0  0
 24 23  1  0  0  0  0
 25 26  2  0  0  0  0
 26 21  1  0  0  0  0
 29 32  1  0  0  0  0
 30 35  1  0  0  0  0
 31 27  1  0  0  0  0
 32 30  1  0  0  0  0
 32 33  1  0  0  0  0
 33 31  1  0  0  0  0
 34 28  1  0  0  0  0
 34 30  2  0  0  0  0
 35 31  2  0  0  0  0
M  END
>  <MODEL>
1

>  <REMARK>
 VINA RESULT:      -8.2      0.000      0.000
  Name = 
  4 active torsions:
  status: ('A' for Active; 'I' for Inactive)
    1  A    between atoms: C_2  and  C_31
    2  A    between atoms: C_14  and  C_30
    3  A    between atoms: C_17  and  O_19
    4  A    between atoms: O_19  and  C_29
                            x       y       z     vdW  Elec       q    Type
                         _______ _______ _______ _____ _____    ______ ____

>  <TORSDO>
F 4

$$$$
=
 OpenBabel11072411273D

 35 39  0  0  1  0  0  0  0  0999 V2000
  162.7060  207.5850  148.4190 C   0  0  0  0  0  2  0  0  0  0  0  0
  162.5280  207.0440  150.9340 C   0  0  2  0  0  3  0  0  0  0  0  0
  161.6530  208.5380  148.9580 C   0  0  0  0  0  2  0  0  0  0  0  0
  161.8350  207.1640  149.5880 C   0  0  0  0  0  0  0  0  0  0  0  0
  160.7530  206.0920  149.3930 C   0  0  2  0  0  0  0  0  0  0  0  0
  159.5140  206.7070  149.1780 O   0  0  0  0  0  1  0  0  0  0  0  0
  162.0590  205.6840  151.4340 C   0  0  0  0  0  2  0  0  0  0  0  0
  160.7250  205.3920  150.7460 C   0  0  0  0  0  2  0  0  0  0  0  0
  163.0570  204.0420  146.4190 C   0  0  0  0  0  2  0  0  0  0  0  0
  160.2090  206.3510  146.4040 C   0  0  0  0  0  3  0  0  0  0  0  0
  161.0790  201.3180  148.3210 C   0  0  0  0  0  1  0  0  0  0  0  0
  161.2670  202.6520  147.6320 C   0  0  2  0  0  3  0  0  0  0  0  0
  161.0630  205.4390  146.8650 C   0  0  0  0  0  0  0  0  0  0  0  0
  161.9580  204.8310  145.9710 O   0  0  0  0  0  0  0  0  0  0  0  0
  162.6140  202.6590  146.9050 C   0  0  0  0  0  2  0  0  0  0  0  0
  160.2010  206.7130  145.0610 O   0  0  0  0  0  1  0  0  0  0  0  0
  161.1320  203.7580  148.6400 C   0  0  0  0  0  3  0  0  0  0  0  0
  161.0450  205.0570  148.3070 C   0  0  0  0  0  0  0  0  0  0  0  0
  159.5570  210.8010  154.2610 O   0  0  0  0  0  1  0  0  0  0  0  0
  162.6160  209.3990  151.8080 O   0  0  0  0  0  0  0  0  0  0  0  0
  160.5950  208.7000  153.8370 C   0  0  0  0  0  2  0  0  0  0  0  0
  162.2300  210.4240  152.5940 O   0  0  0  0  0  0  0  0  0  0  0  0
  159.9450  209.9470  153.2270 C   0  0  2  0  0  3  0  0  0  0  0  0
  160.8930  210.6700  152.2540 C   0  0  1  0  0  3  0  0  0  0  0  0
  162.0900  208.0940  151.9120 C   0  0  0  0  0  0  0  0  0  0  0  0
  161.1490  207.7610  152.8060 C   0  0  0  0  0  3  0  0  0  0  0  0
  160.6470  212.0700  152.2030 O   0  0  0  0  0  0  0  0  0  0  0  0
  160.5930  214.2230  147.5310 N   0  0  0  0  0  1  0  0  0  0  0  0
  156.8820  214.3440  149.8550 C   0  0  0  0  0  1  0  0  0  0  0  0
  159.2540  213.5590  149.3440 C   0  0  0  0  0  0  0  0  0  0  0  0
  159.8670  212.6460  151.2000 C   0  0  0  0  0  0  0  0  0  0  0  0
  158.0470  213.5100  150.0850 N   0  0  0  0  0  0  0  0  0  0  0  0
  158.4000  212.9320  151.3700 C   0  0  0  0  0  2  0  0  0  0  0  0
  159.3620  214.1480  148.1950 N   0  0  0  0  0  0  0  0  0  0  0  0
  160.3490  213.0040  150.0500 N   0  0  0  0  0  0  0  0  0  0  0  0
  1  3  1  0  0  0  0
  1  4  1  0  0  0  0
  2  7  1  0  0  0  0
  2 25  1  1  0  0  0
  3  4  1  0  0  0  0
  4  2  1  0  0  0  0
  5  6  1  6  0  0  0
  5  4  1  0  0  0  0
  5  8  1  0  0  0  0
  8  7  1  0  0  0  0
  9 15  1  0  0  0  0
 10 13  2  0  0  0  0
 12 11  1  1  0  0  0
 12 17  1  0  0  0  0
 13 18  1  0  0  0  0
 14  9  1  0  0  0  0
 14 13  1  0  0  0  0
 15 12  1  0  0  0  0
 16 10  1  0  0  0  0
 18 17  2  0  0  0  0
 18  5  1  0  0  0  0
 20 25  1  0  0  0  0
 20 22  1  0  0  0  0
 23 21  1  0  0  0  0
 23 19  1  1  0  0  0
 24 27  1  1  0  0  0
 24 22  1  0  0  0  0
 24 23  1  0  0  0  0
 25 26  2  0  0  0  0
 26 21  1  0  0  0  0
 28 34  1  0  0  0  0
 29 32  1  0  0  0  0
 30 35  1  0  0  0  0
 30 32  1  0  0  0  0
 31 33  1  0  0  0  0
 31 27  1  0  0  0  0
 32 33  1  0  0  0  0
 34 30  2  0  0  0  0
 35 31  2  0  0  0  0
M  END
>  <MODEL>
2

>  <REMARK>
 VINA RESULT:      -8.2      1.513      2.515
  Name = 
  4 active torsions:
  status: ('A' for Active; 'I' for Inactive)
    1  A    between atoms: C_2  and  C_31
    2  A    between atoms: C_14  and  C_30
    3  A    between atoms: C_17  and  O_19
    4  A    between atoms: O_19  and  C_29
                            x       y       z     vdW  Elec       q    Type
                         _______ _______ _______ _____ _____    ______ ____

>  <TORSDO>
F 4

$$$$
=
 OpenBabel11072411273D

 35 39  0  0  1  0  0  0  0  0999 V2000
  162.6800  207.3540  148.4000 C   0  0  0  0  0  2  0  0  0  0  0  0
  162.6070  207.0710  150.9620 C   0  0  2  0  0  3  0  0  0  0  0  0
  161.5470  208.2510  148.8680 C   0  0  0  0  0  2  0  0  0  0  0  0
  161.8790  206.9780  149.6330 C   0  0  0  0  0  0  0  0  0  0  0  0
  160.9070  205.7900  149.5830 C   0  0  2  0  0  0  0  0  0  0  0  0
  159.6080  206.2540  149.3440 O   0  0  0  0  0  1  0  0  0  0  0  0
  162.2880  205.7330  151.6160 C   0  0  0  0  0  2  0  0  0  0  0  0
  160.9760  205.2390  151.0030 C   0  0  0  0  0  2  0  0  0  0  0  0
  160.2510  202.7350  146.6530 C   0  0  0  0  0  2  0  0  0  0  0  0
  161.2010  202.8180  150.1930 C   0  0  0  0  0  3  0  0  0  0  0  0
  163.4490  204.6140  145.5580 C   0  0  0  0  0  1  0  0  0  0  0  0
  162.5150  203.9500  146.5460 C   0  0  2  0  0  3  0  0  0  0  0  0
  161.0450  203.2440  148.9410 C   0  0  0  0  0  0  0  0  0  0  0  0
  160.6790  202.3230  147.9480 O   0  0  0  0  0  0  0  0  0  0  0  0
  161.4220  203.1990  145.7810 C   0  0  0  0  0  2  0  0  0  0  0  0
  160.9970  201.4830  150.5270 O   0  0  0  0  0  1  0  0  0  0  0  0
  161.9730  204.9820  147.4930 C   0  0  0  0  0  3  0  0  0  0  0  0
  161.2800  204.6780  148.6030 C   0  0  0  0  0  0  0  0  0  0  0  0
  159.3480  210.9590  153.8400 O   0  0  0  0  0  1  0  0  0  0  0  0
  162.5850  209.4810  151.6760 O   0  0  0  0  0  0  0  0  0  0  0  0
  160.4610  208.8630  153.6230 C   0  0  0  0  0  2  0  0  0  0  0  0
  162.1270  210.5450  152.3650 O   0  0  0  0  0  0  0  0  0  0  0  0
  159.8200  210.0480  152.8920 C   0  0  2  0  0  3  0  0  0  0  0  0
  160.8090  210.7310  151.9300 C   0  0  1  0  0  3  0  0  0  0  0  0
  162.0850  208.1710  151.8370 C   0  0  0  0  0  0  0  0  0  0  0  0
  161.0990  207.8730  152.6950 C   0  0  0  0  0  3  0  0  0  0  0  0
  160.5330  212.1170  151.7680 O   0  0  0  0  0  0  0  0  0  0  0  0
  161.7700  213.6740  147.0240 N   0  0  0  0  0  1  0  0  0  0  0  0
  157.6880  214.4530  148.4060 C   0  0  0  0  0  1  0  0  0  0  0  0
  159.9950  213.3770  148.5340 C   0  0  0  0  0  0  0  0  0  0  0  0
  160.0690  212.6410  150.5610 C   0  0  0  0  0  0  0  0  0  0  0  0
  158.6600  213.5410  148.9790 N   0  0  0  0  0  0  0  0  0  0  0  0
  158.6490  213.0920  150.3600 C   0  0  0  0  0  2  0  0  0  0  0  0
  160.4250  213.8060  147.3900 N   0  0  0  0  0  0  0  0  0  0  0  0
  160.8320  212.8050  149.5250 N   0  0  0  0  0  0  0  0  0  0  0  0
  1  3  1  0  0  0  0
  1  4  1  0  0  0  0
  2  7  1  0  0  0  0
  2 25  1  1  0  0  0
  3  4  1  0  0  0  0
  4  2  1  0  0  0  0
  5  6  1  6  0  0  0
  5  4  1  0  0  0  0
  5  8  1  0  0  0  0
  8  7  1  0  0  0  0
  9 14  1  0  0  0  0
 10 16  1  0  0  0  0
 12 11  1  6  0  0  0
 12 17  1  0  0  0  0
 13 10  2  0  0  0  0
 14 13  1  0  0  0  0
 15 12  1  0  0  0  0
 15  9  1  0  0  0  0
 17 18  2  0  0  0  0
 18 13  1  0  0  0  0
 18  5  1  0  0  0  0
 20 25  1  0  0  0  0
 20 22  1  0  0  0  0
 23 21  1  0  0  0  0
 23 19  1  1  0  0  0
 24 27  1  1  0  0  0
 24 22  1  0  0  0  0
 24 23  1  0  0  0  0
 25 26  2  0  0  0  0
 26 21  1  0  0  0  0
 28 34  1  0  0  0  0
 29 32  1  0  0  0  0
 30 32  1  0  0  0  0
 30 35  1  0  0  0  0
 31 27  1  0  0  0  0
 32 33  1  0  0  0  0
 33 31  1  0  0  0  0
 34 30  2  0  0  0  0
 35 31  2  0  0  0  0
M  END
>  <MODEL>
3

>  <REMARK>
 VINA RESULT:      -8.1      0.662      1.330
  Name = 
  4 active torsions:
  status: ('A' for Active; 'I' for Inactive)
    1  A    between atoms: C_2  and  C_31
    2  A    between atoms: C_14  and  C_30
    3  A    between atoms: C_17  and  O_19
    4  A    between atoms: O_19  and  C_29
                            x       y       z     vdW  Elec       q    Type
                         _______ _______ _______ _____ _____    ______ ____

>  <TORSDO>
F 4

$$$$
=
 OpenBabel11072411273D

 35 39  0  0  1  0  0  0  0  0999 V2000
  162.6790  207.3060  148.3410 C   0  0  0  0  0  2  0  0  0  0  0  0
  162.3720  207.0220  150.8860 C   0  0  2  0  0  3  0  0  0  0  0  0
  161.5090  208.2040  148.7040 C   0  0  0  0  0  2  0  0  0  0  0  0
  161.7690  206.9300  149.4960 C   0  0  0  0  0  0  0  0  0  0  0  0
  160.8040  205.7440  149.3570 C   0  0  2  0  0  0  0  0  0  0  0  0
  159.5330  206.2080  149.0000 O   0  0  0  0  0  1  0  0  0  0  0  0
  161.9930  205.6840  151.5070 C   0  0  0  0  0  2  0  0  0  0  0  0
  160.7430  205.1920  150.7770 C   0  0  0  0  0  2  0  0  0  0  0  0
  160.3930  202.5590  146.5200 C   0  0  0  0  0  2  0  0  0  0  0  0
  161.3060  202.8200  150.0620 C   0  0  0  0  0  3  0  0  0  0  0  0
  163.4570  204.6290  145.3860 C   0  0  0  0  0  1  0  0  0  0  0  0
  162.5640  203.9300  146.3880 C   0  0  2  0  0  3  0  0  0  0  0  0
  161.1290  203.1950  148.7960 C   0  0  0  0  0  0  0  0  0  0  0  0
  160.8390  202.2200  147.8310 O   0  0  0  0  0  0  0  0  0  0  0  0
  161.5340  203.0790  145.6410 C   0  0  0  0  0  2  0  0  0  0  0  0
  161.1950  201.4850  150.4360 O   0  0  0  0  0  1  0  0  0  0  0  0
  161.9420  204.9500  147.2990 C   0  0  0  0  0  3  0  0  0  0  0  0
  161.2640  204.6310  148.4150 C   0  0  0  0  0  0  0  0  0  0  0  0
  161.3550  211.4540  154.5390 O   0  0  0  0  0  1  0  0  0  0  0  0
  160.7130  207.8290  152.5930 O   0  0  0  0  0  0  0  0  0  0  0  0
  161.8600  210.5360  152.3990 C   0  0  0  0  0  2  0  0  0  0  0  0
  160.1600  208.7340  153.4240 O   0  0  0  0  0  0  0  0  0  0  0  0
  161.9070  210.3320  153.9170 C   0  0  2  0  0  3  0  0  0  0  0  0
  161.1640  209.0540  154.3460 C   0  0  1  0  0  3  0  0  0  0  0  0
  161.7740  208.1230  151.7100 C   0  0  0  0  0  0  0  0  0  0  0  0
  162.3310  209.3390  151.6270 C   0  0  0  0  0  3  0  0  0  0  0  0
  160.6160  209.1640  155.6550 O   0  0  0  0  0  0  0  0  0  0  0  0
  155.8110  210.7000  154.6490 N   0  0  0  0  0  1  0  0  0  0  0  0
  158.2400  213.2420  157.2600 C   0  0  0  0  0  1  0  0  0  0  0  0
  157.7080  211.1060  155.9740 C   0  0  0  0  0  0  0  0  0  0  0  0
  159.6020  210.0720  155.9560 C   0  0  0  0  0  0  0  0  0  0  0  0
  158.4900  211.8640  156.8800 N   0  0  0  0  0  0  0  0  0  0  0  0
  159.8000  211.2350  156.8890 C   0  0  0  0  0  2  0  0  0  0  0  0
  156.5180  211.4510  155.5950 N   0  0  0  0  0  0  0  0  0  0  0  0
  158.4150  210.0020  155.4370 N   0  0  0  0  0  0  0  0  0  0  0  0
  1  3  1  0  0  0  0
  1  4  1  0  0  0  0
  2  7  1  0  0  0  0
  2 25  1  1  0  0  0
  3  4  1  0  0  0  0
  4  2  1  0  0  0  0
  5  6  1  6  0  0  0
  5  4  1  0  0  0  0
  5  8  1  0  0  0  0
  8  7  1  0  0  0  0
  9 14  1  0  0  0  0
 10 16  1  0  0  0  0
 12 11  1  6  0  0  0
 12 17  1  0  0  0  0
 13 10  2  0  0  0  0
 14 13  1  0  0  0  0
 15 12  1  0  0  0  0
 15  9  1  0  0  0  0
 17 18  2  0  0  0  0
 18 13  1  0  0  0  0
 18  5  1  0  0  0  0
 20 22  1  0  0  0  0
 21 23  1  0  0  0  0
 22 24  1  0  0  0  0
 23 24  1  0  0  0  0
 23 19  1  1  0  0  0
 24 27  1  1  0  0  0
 25 20  1  0  0  0  0
 26 25  2  0  0  0  0
 26 21  1  0  0  0  0
 27 31  1  0  0  0  0
 28 34  1  0  0  0  0
 30 32  1  0  0  0  0
 31 33  1  0  0  0  0
 32 33  1  0  0  0  0
 32 29  1  0  0  0  0
 34 30  2  0  0  0  0
 35 31  2  0  0  0  0
 35 30  1  0  0  0  0
M  END
>  <MODEL>
4

>  <REMARK>
 VINA RESULT:      -6.8      3.176      4.162
  Name = 
  4 active torsions:
  status: ('A' for Active; 'I' for Inactive)
    1  A    between atoms: C_2  and  C_31
    2  A    between atoms: C_14  and  C_30
    3  A    between atoms: C_17  and  O_19
    4  A    between atoms: O_19  and  C_29
                            x       y       z     vdW  Elec       q    Type
                         _______ _______ _______ _____ _____    ______ ____

>  <TORSDO>
F 4

$$$$
=
 OpenBabel11072411273D

 35 39  0  0  1  0  0  0  0  0999 V2000
  162.3930  207.4150  148.3950 C   0  0  0  0  0  2  0  0  0  0  0  0
  162.6390  207.0670  150.9380 C   0  0  2  0  0  3  0  0  0  0  0  0
  161.2480  208.1960  149.0160 C   0  0  0  0  0  2  0  0  0  0  0  0
  161.7740  206.9400  149.6960 C   0  0  0  0  0  0  0  0  0  0  0  0
  160.9090  205.6720  149.7160 C   0  0  2  0  0  0  0  0  0  0  0  0
  159.5560  206.0220  149.6390 O   0  0  0  0  0  1  0  0  0  0  0  0
  162.5120  205.6910  151.5790 C   0  0  0  0  0  2  0  0  0  0  0  0
  161.1870  205.0960  151.1000 C   0  0  0  0  0  2  0  0  0  0  0  0
  160.1990  202.8240  146.5950 C   0  0  0  0  0  2  0  0  0  0  0  0
  161.1600  202.6610  150.1290 C   0  0  0  0  0  3  0  0  0  0  0  0
  163.4210  204.7230  145.6120 C   0  0  0  0  0  1  0  0  0  0  0  0
  162.4790  204.0100  146.5580 C   0  0  2  0  0  3  0  0  0  0  0  0
  161.0070  203.1710  148.9080 C   0  0  0  0  0  0  0  0  0  0  0  0
  160.6240  202.3220  147.8590 O   0  0  0  0  0  0  0  0  0  0  0  0
  161.3730  203.3270  145.7500 C   0  0  0  0  0  2  0  0  0  0  0  0
  160.9380  201.3110  150.3760 O   0  0  0  0  0  1  0  0  0  0  0  0
  161.9560  204.9870  147.5730 C   0  0  0  0  0  3  0  0  0  0  0  0
  161.2630  204.6200  148.6640 C   0  0  0  0  0  0  0  0  0  0  0  0
  159.4200  210.7530  154.1120 O   0  0  0  0  0  1  0  0  0  0  0  0
  162.6570  209.4030  151.8680 O   0  0  0  0  0  0  0  0  0  0  0  0
  160.4900  208.6600  153.7220 C   0  0  0  0  0  2  0  0  0  0  0  0
  162.2120  210.4100  152.6440 O   0  0  0  0  0  0  0  0  0  0  0  0
  159.8870  209.9210  153.0920 C   0  0  2  0  0  3  0  0  0  0  0  0
  160.9050  210.6640  152.2090 C   0  0  1  0  0  3  0  0  0  0  0  0
  162.1270  208.0950  151.9030 C   0  0  0  0  0  0  0  0  0  0  0  0
  161.1210  207.7440  152.7160 C   0  0  0  0  0  3  0  0  0  0  0  0
  160.6610  212.0660  152.1700 O   0  0  0  0  0  0  0  0  0  0  0  0
  157.0150  213.5440  148.8570 N   0  0  0  0  0  1  0  0  0  0  0  0
  156.3710  214.4300  153.0970 C   0  0  0  0  0  1  0  0  0  0  0  0
  157.5420  213.3030  151.1330 C   0  0  0  0  0  0  0  0  0  0  0  0
  159.3770  212.5880  152.0150 C   0  0  0  0  0  0  0  0  0  0  0  0
  157.3250  213.5020  152.5190 N   0  0  0  0  0  0  0  0  0  0  0  0
  158.5470  213.0680  153.1740 C   0  0  0  0  0  2  0  0  0  0  0  0
  156.7230  213.7100  150.2160 N   0  0  0  0  0  0  0  0  0  0  0  0
  158.8060  212.7230  150.8590 N   0  0  0  0  0  0  0  0  0  0  0  0
  1  3  1  0  0  0  0
  1  4  1  0  0  0  0
  2  7  1  0  0  0  0
  2 25  1  1  0  0  0
  3  4  1  0  0  0  0
  4  5  1  0  0  0  0
  4  2  1  0  0  0  0
  5  6  1  6  0  0  0
  5  8  1  0  0  0  0
  8  7  1  0  0  0  0
  9 14  1  0  0  0  0
 10 16  1  0  0  0  0
 12 11  1  6  0  0  0
 12 17  1  0  0  0  0
 13 10  2  0  0  0  0
 14 13  1  0  0  0  0
 15 12  1  0  0  0  0
 15  9  1  0  0  0  0
 17 18  2  0  0  0  0
 18 13  1  0  0  0  0
 18  5  1  0  0  0  0
 20 25  1  0  0  0  0
 20 22  1  0  0  0  0
 23 21  1  0  0  0  0
 23 19  1  1  0  0  0
 24 27  1  1  0  0  0
 24 22  1  0  0  0  0
 24 23  1  0  0  0  0
 25 26  2  0  0  0  0
 26 21  1  0  0  0  0
 28 34  1  0  0  0  0
 30 32  1  0  0  0  0
 31 27  1  0  0  0  0
 31 33  1  0  0  0  0
 32 29  1  0  0  0  0
 32 33  1  0  0  0  0
 34 30  2  0  0  0  0
 35 30  1  0  0  0  0
 35 31  2  0  0  0  0
M  END
>  <MODEL>
5

>  <REMARK>
 VINA RESULT:      -6.6      1.452      2.008
  Name = 
  4 active torsions:
  status: ('A' for Active; 'I' for Inactive)
    1  A    between atoms: C_2  and  C_31
    2  A    between atoms: C_14  and  C_30
    3  A    between atoms: C_17  and  O_19
    4  A    between atoms: O_19  and  C_29
                            x       y       z     vdW  Elec       q    Type
                         _______ _______ _______ _____ _____    ______ ____

>  <TORSDO>
F 4

$$$$
=
 OpenBabel11072411273D

 35 39  0  0  1  0  0  0  0  0999 V2000
  162.0280  204.3190  151.6450 C   0  0  0  0  0  2  0  0  0  0  0  0
  160.6510  206.4810  151.9340 C   0  0  2  0  0  3  0  0  0  0  0  0
  163.0510  205.4130  151.8980 C   0  0  0  0  0  2  0  0  0  0  0  0
  161.7450  205.7380  151.1870 C   0  0  0  0  0  0  0  0  0  0  0  0
  161.7620  206.0780  149.6900 C   0  0  2  0  0  0  0  0  0  0  0  0
  163.0070  206.6170  149.3430 O   0  0  0  0  0  1  0  0  0  0  0  0
  159.8000  207.0500  150.8060 C   0  0  0  0  0  2  0  0  0  0  0  0
  160.7080  207.1740  149.5820 C   0  0  0  0  0  2  0  0  0  0  0  0
  162.3580  203.0680  146.7000 C   0  0  0  0  0  2  0  0  0  0  0  0
  160.6390  206.3030  146.8640 C   0  0  0  0  0  3  0  0  0  0  0  0
  160.0480  201.4950  149.3730 C   0  0  0  0  0  1  0  0  0  0  0  0
  160.5370  202.5910  148.4520 C   0  0  2  0  0  3  0  0  0  0  0  0
  161.1850  205.1660  147.2920 C   0  0  0  0  0  0  0  0  0  0  0  0
  161.5490  204.1900  146.3530 O   0  0  0  0  0  0  0  0  0  0  0  0
  161.5720  202.0120  147.4840 C   0  0  0  0  0  2  0  0  0  0  0  0
  160.4370  206.5360  145.5080 O   0  0  0  0  0  1  0  0  0  0  0  0
  161.0660  203.7340  149.2710 C   0  0  0  0  0  3  0  0  0  0  0  0
  161.3820  204.9330  148.7530 C   0  0  0  0  0  0  0  0  0  0  0  0
  161.4550  210.7900  155.7800 O   0  0  0  0  0  1  0  0  0  0  0  0
  161.5910  208.8040  152.1230 O   0  0  0  0  0  0  0  0  0  0  0  0
  161.6310  208.5270  155.0570 C   0  0  0  0  0  2  0  0  0  0  0  0
  162.0090  209.9010  152.7860 O   0  0  0  0  0  0  0  0  0  0  0  0
  160.8760  209.8540  154.9210 C   0  0  2  0  0  3  0  0  0  0  0  0
  160.8830  210.3720  153.4720 C   0  0  1  0  0  3  0  0  0  0  0  0
  161.1760  207.6160  152.7610 C   0  0  0  0  0  0  0  0  0  0  0  0
  161.1570  207.4790  154.0940 C   0  0  0  0  0  3  0  0  0  0  0  0
  160.8230  211.7920  153.4070 O   0  0  0  0  0  0  0  0  0  0  0  0
  156.0500  213.3950  154.4590 N   0  0  0  0  0  1  0  0  0  0  0  0
  157.4550  213.8050  150.3320 C   0  0  0  0  0  1  0  0  0  0  0  0
  157.7390  213.3700  152.8280 C   0  0  0  0  0  0  0  0  0  0  0  0
  159.6940  212.4630  152.9360 C   0  0  0  0  0  0  0  0  0  0  0  0
  158.2510  213.5640  151.5210 N   0  0  0  0  0  0  0  0  0  0  0  0
  159.5630  212.9410  151.5170 C   0  0  0  0  0  2  0  0  0  0  0  0
  156.5260  213.6660  153.1710 N   0  0  0  0  0  0  0  0  0  0  0  0
  158.6580  212.7050  153.6780 N   0  0  0  0  0  0  0  0  0  0  0  0
  1  3  1  0  0  0  0
  2 25  1  6  0  0  0
  4  1  1  0  0  0  0
  4  3  1  0  0  0  0
  4  2  1  0  0  0  0
  5  6  1  6  0  0  0
  5  4  1  0  0  0  0
  7  2  1  0  0  0  0
  8  5  1  0  0  0  0
  8  7  1  0  0  0  0
  9 15  1  0  0  0  0
 10 13  2  0  0  0  0
 12 17  1  0  0  0  0
 12 11  1  1  0  0  0
 13 18  1  0  0  0  0
 14  9  1  0  0  0  0
 14 13  1  0  0  0  0
 15 12  1  0  0  0  0
 16 10  1  0  0  0  0
 18 17  2  0  0  0  0
 18  5  1  0  0  0  0
 20 25  1  0  0  0  0
 20 22  1  0  0  0  0
 22 24  1  0  0  0  0
 23 21  1  0  0  0  0
 23 19  1  1  0  0  0
 24 27  1  1  0  0  0
 24 23  1  0  0  0  0
 25 26  2  0  0  0  0
 26 21  1  0  0  0  0
 29 32  1  0  0  0  0
 30 34  2  0  0  0  0
 30 35  1  0  0  0  0
 31 27  1  0  0  0  0
 31 35  2  0  0  0  0
 32 30  1  0  0  0  0
 33 32  1  0  0  0  0
 33 31  1  0  0  0  0
 34 28  1  0  0  0  0
M  END
>  <MODEL>
6

>  <REMARK>
 VINA RESULT:      -5.8      2.232      3.452
  Name = 
  4 active torsions:
  status: ('A' for Active; 'I' for Inactive)
    1  A    between atoms: C_2  and  C_31
    2  A    between atoms: C_14  and  C_30
    3  A    between atoms: C_17  and  O_19
    4  A    between atoms: O_19  and  C_29
                            x       y       z     vdW  Elec       q    Type
                         _______ _______ _______ _____ _____    ______ ____

>  <TORSDO>
F 4

$$$$
=
 OpenBabel11072411273D

 35 39  0  0  1  0  0  0  0  0999 V2000
  160.1240  204.7420  152.3270 C   0  0  0  0  0  2  0  0  0  0  0  0
  160.4870  207.2840  152.0920 C   0  0  2  0  0  3  0  0  0  0  0  0
  161.2940  205.0640  153.2400 C   0  0  0  0  0  2  0  0  0  0  0  0
  161.0610  205.8830  151.9790 C   0  0  0  0  0  0  0  0  0  0  0  0
  162.0320  205.7460  150.7970 C   0  0  2  0  0  0  0  0  0  0  0  0
  163.2920  205.3530  151.2650 O   0  0  0  0  0  1  0  0  0  0  0  0
  160.8890  207.9210  150.7680 C   0  0  0  0  0  2  0  0  0  0  0  0
  162.1280  207.1740  150.2720 C   0  0  0  0  0  2  0  0  0  0  0  0
  162.3580  203.4220  147.2120 C   0  0  0  0  0  2  0  0  0  0  0  0
  160.7710  206.5910  148.1540 C   0  0  0  0  0  3  0  0  0  0  0  0
  160.1360  201.3770  149.6280 C   0  0  0  0  0  1  0  0  0  0  0  0
  160.6160  202.6310  148.9300 C   0  0  2  0  0  3  0  0  0  0  0  0
  161.2960  205.3760  148.3000 C   0  0  0  0  0  0  0  0  0  0  0  0
  161.5740  204.6120  147.1570 O   0  0  0  0  0  0  0  0  0  0  0  0
  161.5760  202.2440  147.8020 C   0  0  0  0  0  2  0  0  0  0  0  0
  160.5060  207.1100  146.8910 O   0  0  0  0  0  1  0  0  0  0  0  0
  161.2290  203.5610  149.9380 C   0  0  0  0  0  3  0  0  0  0  0  0
  161.5610  204.8340  149.6650 C   0  0  0  0  0  0  0  0  0  0  0  0
  161.6470  210.0670  157.0850 O   0  0  0  0  0  1  0  0  0  0  0  0
  161.5080  209.4040  152.9760 O   0  0  0  0  0  0  0  0  0  0  0  0
  161.7100  208.1700  155.6450 C   0  0  0  0  0  2  0  0  0  0  0  0
  161.9970  210.2150  153.9350 O   0  0  0  0  0  0  0  0  0  0  0  0
  160.9900  209.4750  156.0040 C   0  0  2  0  0  3  0  0  0  0  0  0
  160.9280  210.4430  154.8100 C   0  0  1  0  0  3  0  0  0  0  0  0
  161.0940  208.0760  153.2120 C   0  0  0  0  0  0  0  0  0  0  0  0
  161.1480  207.5050  154.4230 C   0  0  0  0  0  3  0  0  0  0  0  0
  160.9090  211.8050  155.2220 O   0  0  0  0  0  0  0  0  0  0  0  0
  157.1720  214.4530  152.8800 N   0  0  0  0  0  1  0  0  0  0  0  0
  157.2050  214.4480  157.2590 C   0  0  0  0  0  1  0  0  0  0  0  0
  157.9280  213.6430  154.9510 C   0  0  0  0  0  0  0  0  0  0  0  0
  159.7170  212.5130  155.3760 C   0  0  0  0  0  0  0  0  0  0  0  0
  157.9180  213.5550  156.3650 N   0  0  0  0  0  0  0  0  0  0  0  0
  159.1250  212.8290  156.7220 C   0  0  0  0  0  2  0  0  0  0  0  0
  157.0800  214.3490  154.2730 N   0  0  0  0  0  0  0  0  0  0  0  0
  159.0380  212.9770  154.3730 N   0  0  0  0  0  0  0  0  0  0  0  0
  1  3  1  0  0  0  0
  2 25  1  1  0  0  0
  4  2  1  0  0  0  0
  4  1  1  0  0  0  0
  4  3  1  0  0  0  0
  5  6  1  1  0  0  0
  5  4  1  0  0  0  0
  7  2  1  0  0  0  0
  8  7  1  0  0  0  0
  8  5  1  0  0  0  0
  9 15  1  0  0  0  0
 10 13  2  0  0  0  0
 12 11  1  1  0  0  0
 12 17  1  0  0  0  0
 13 18  1  0  0  0  0
 14  9  1  0  0  0  0
 14 13  1  0  0  0  0
 15 12  1  0  0  0  0
 16 10  1  0  0  0  0
 18 17  2  0  0  0  0
 18  5  1  0  0  0  0
 20 25  1  0  0  0  0
 20 22  1  0  0  0  0
 21 23  1  0  0  0  0
 22 24  1  0  0  0  0
 23 19  1  1  0  0  0
 24 27  1  1  0  0  0
 24 23  1  0  0  0  0
 25 26  2  0  0  0  0
 26 21  1  0  0  0  0
 27 31  1  0  0  0  0
 28 34  1  0  0  0  0
 30 32  1  0  0  0  0
 31 33  1  0  0  0  0
 32 33  1  0  0  0  0
 32 29  1  0  0  0  0
 34 30  2  0  0  0  0
 35 30  1  0  0  0  0
 35 31  2  0  0  0  0
M  END
>  <MODEL>
7

>  <REMARK>
 VINA RESULT:      -5.7      3.072      4.579
  Name = 
  4 active torsions:
  status: ('A' for Active; 'I' for Inactive)
    1  A    between atoms: C_2  and  C_31
    2  A    between atoms: C_14  and  C_30
    3  A    between atoms: C_17  and  O_19
    4  A    between atoms: O_19  and  C_29
                            x       y       z     vdW  Elec       q    Type
                         _______ _______ _______ _____ _____    ______ ____

>  <TORSDO>
F 4

$$$$
=
 OpenBabel11072411273D

 35 39  0  0  1  0  0  0  0  0999 V2000
  162.7040  207.3800  148.3130 C   0  0  0  0  0  2  0  0  0  0  0  0
  162.2310  207.0320  150.8240 C   0  0  2  0  0  3  0  0  0  0  0  0
  161.6150  208.3810  148.6560 C   0  0  0  0  0  2  0  0  0  0  0  0
  161.6980  207.0560  149.4030 C   0  0  0  0  0  0  0  0  0  0  0  0
  160.6260  205.9840  149.1630 C   0  0  2  0  0  0  0  0  0  0  0  0
  159.4310  206.5930  148.7630 O   0  0  0  0  0  1  0  0  0  0  0  0
  161.6830  205.7180  151.3660 C   0  0  0  0  0  2  0  0  0  0  0  0
  160.4300  205.3880  150.5520 C   0  0  0  0  0  2  0  0  0  0  0  0
  163.1980  203.7340  146.5790 C   0  0  0  0  0  2  0  0  0  0  0  0
  160.3360  205.9820  146.1280 C   0  0  0  0  0  3  0  0  0  0  0  0
  161.0930  201.1430  148.5320 C   0  0  0  0  0  1  0  0  0  0  0  0
  161.3250  202.4180  147.7510 C   0  0  2  0  0  3  0  0  0  0  0  0
  161.1580  205.1270  146.7350 C   0  0  0  0  0  0  0  0  0  0  0  0
  162.1320  204.4630  145.9750 O   0  0  0  0  0  0  0  0  0  0  0  0
  162.7290  202.3890  147.1410 C   0  0  0  0  0  2  0  0  0  0  0  0
  160.4390  206.2300  144.7630 O   0  0  0  0  0  1  0  0  0  0  0  0
  161.0920  203.6020  148.6460 C   0  0  0  0  0  3  0  0  0  0  0  0
  161.0210  204.8670  148.1970 C   0  0  0  0  0  0  0  0  0  0  0  0
  161.4940  211.4530  154.5560 O   0  0  0  0  0  1  0  0  0  0  0  0
  160.6140  207.9220  152.5310 O   0  0  0  0  0  0  0  0  0  0  0  0
  161.9550  210.5440  152.4020 C   0  0  0  0  0  2  0  0  0  0  0  0
  160.1190  208.8490  153.3750 O   0  0  0  0  0  0  0  0  0  0  0  0
  161.9710  210.3070  153.9170 C   0  0  2  0  0  3  0  0  0  0  0  0
  161.1340  209.0770  154.3130 C   0  0  1  0  0  3  0  0  0  0  0  0
  161.7040  208.1560  151.6650 C   0  0  0  0  0  0  0  0  0  0  0  0
  162.3470  209.3310  151.6120 C   0  0  0  0  0  3  0  0  0  0  0  0
  160.5810  209.2010  155.6180 O   0  0  0  0  0  0  0  0  0  0  0  0
  155.8880  211.0640  154.6320 N   0  0  0  0  0  1  0  0  0  0  0  0
  158.4860  213.4180  157.2560 C   0  0  0  0  0  1  0  0  0  0  0  0
  157.8090  211.3320  155.9570 C   0  0  0  0  0  0  0  0  0  0  0  0
  159.6300  210.1740  155.9280 C   0  0  0  0  0  0  0  0  0  0  0  0
  158.6420  212.0290  156.8670 N   0  0  0  0  0  0  0  0  0  0  0  0
  159.9060  211.3140  156.8680 C   0  0  0  0  0  2  0  0  0  0  0  0
  156.6450  211.7590  155.5830 N   0  0  0  0  0  0  0  0  0  0  0  0
  158.4400  210.1870  155.4110 N   0  0  0  0  0  0  0  0  0  0  0  0
  1  3  1  0  0  0  0
  1  4  1  0  0  0  0
  2  7  1  0  0  0  0
  2 25  1  1  0  0  0
  3  4  1  0  0  0  0
  4  2  1  0  0  0  0
  5  6  1  6  0  0  0
  5  4  1  0  0  0  0
  5  8  1  0  0  0  0
  8  7  1  0  0  0  0
  9 15  1  0  0  0  0
 10 13  2  0  0  0  0
 12 11  1  1  0  0  0
 12 17  1  0  0  0  0
 13 18  1  0  0  0  0
 14  9  1  0  0  0  0
 14 13  1  0  0  0  0
 15 12  1  0  0  0  0
 16 10  1  0  0  0  0
 18 17  2  0  0  0  0
 18  5  1  0  0  0  0
 20 22  1  0  0  0  0
 21 23  1  0  0  0  0
 22 24  1  0  0  0  0
 23 24  1  0  0  0  0
 23 19  1  1  0  0  0
 24 27  1  1  0  0  0
 25 20  1  0  0  0  0
 26 25  2  0  0  0  0
 26 21  1  0  0  0  0
 27 31  1  0  0  0  0
 28 34  1  0  0  0  0
 30 32  1  0  0  0  0
 31 33  1  0  0  0  0
 32 33  1  0  0  0  0
 32 29  1  0  0  0  0
 34 30  2  0  0  0  0
 35 31  2  0  0  0  0
 35 30  1  0  0  0  0
M  END
>  <MODEL>
8

>  <REMARK>
 VINA RESULT:      -5.7      3.375      4.617
  Name = 
  4 active torsions:
  status: ('A' for Active; 'I' for Inactive)
    1  A    between atoms: C_2  and  C_31
    2  A    between atoms: C_14  and  C_30
    3  A    between atoms: C_17  and  O_19
    4  A    between atoms: O_19  and  C_29
                            x       y       z     vdW  Elec       q    Type
                         _______ _______ _______ _____ _____    ______ ____

>  <TORSDO>
F 4

$$$$
=
 OpenBabel11072411273D

 35 39  0  0  1  0  0  0  0  0999 V2000
  162.7580  207.3850  148.5190 C   0  0  0  0  0  2  0  0  0  0  0  0
  162.5960  206.8130  151.0290 C   0  0  2  0  0  3  0  0  0  0  0  0
  161.7560  208.3730  149.0890 C   0  0  0  0  0  2  0  0  0  0  0  0
  161.8880  206.9830  149.6960 C   0  0  0  0  0  0  0  0  0  0  0  0
  160.7570  205.9630  149.5020 C   0  0  2  0  0  0  0  0  0  0  0  0
  159.5430  206.6340  149.3170 O   0  0  0  0  0  1  0  0  0  0  0  0
  162.0760  205.4670  151.5160 C   0  0  0  0  0  2  0  0  0  0  0  0
  160.7190  205.2430  150.8460 C   0  0  0  0  0  2  0  0  0  0  0  0
  162.9210  203.8650  146.4570 C   0  0  0  0  0  2  0  0  0  0  0  0
  160.1710  206.2890  146.5280 C   0  0  0  0  0  3  0  0  0  0  0  0
  160.8660  201.1960  148.3570 C   0  0  0  0  0  1  0  0  0  0  0  0
  161.0970  202.5310  147.6840 C   0  0  2  0  0  3  0  0  0  0  0  0
  160.9940  205.3350  146.9600 C   0  0  0  0  0  0  0  0  0  0  0  0
  161.8470  204.7050  146.0410 O   0  0  0  0  0  0  0  0  0  0  0  0
  162.4290  202.4940  146.9320 C   0  0  0  0  0  2  0  0  0  0  0  0
  160.1540  206.6700  145.1910 O   0  0  0  0  0  1  0  0  0  0  0  0
  161.0250  203.6270  148.7090 C   0  0  0  0  0  3  0  0  0  0  0  0
  160.9870  204.9330  148.3960 C   0  0  0  0  0  0  0  0  0  0  0  0
  159.8440  210.4340  154.6790 O   0  0  0  0  0  1  0  0  0  0  0  0
  162.5810  209.2080  151.7900 O   0  0  0  0  0  0  0  0  0  0  0  0
  161.0110  208.4240  154.1580 C   0  0  0  0  0  2  0  0  0  0  0  0
  162.2260  210.2300  152.5940 O   0  0  0  0  0  0  0  0  0  0  0  0
  160.1420  209.5680  153.6250 C   0  0  2  0  0  3  0  0  0  0  0  0
  160.8340  210.3270  152.4790 C   0  0  1  0  0  3  0  0  0  0  0  0
  162.2200  207.8650  152.0290 C   0  0  0  0  0  0  0  0  0  0  0  0
  161.4810  207.4900  153.0820 C   0  0  0  0  0  3  0  0  0  0  0  0
  160.4370  211.6920  152.4210 O   0  0  0  0  0  0  0  0  0  0  0  0
  158.9750  214.4520  156.5080 N   0  0  0  0  0  1  0  0  0  0  0  0
  155.8740  212.2320  154.3560 C   0  0  0  0  0  1  0  0  0  0  0  0
  158.2060  213.2150  154.6660 C   0  0  0  0  0  0  0  0  0  0  0  0
  159.3650  212.1820  153.1680 C   0  0  0  0  0  0  0  0  0  0  0  0
  157.2140  212.5520  153.9010 N   0  0  0  0  0  0  0  0  0  0  0  0
  157.9360  211.8040  152.8870 C   0  0  0  0  0  2  0  0  0  0  0  0
  157.9500  213.8680  155.7550 N   0  0  0  0  0  0  0  0  0  0  0  0
  159.5150  212.9810  154.1780 N   0  0  0  0  0  0  0  0  0  0  0  0
  1  3  1  0  0  0  0
  1  4  1  0  0  0  0
  2  7  1  0  0  0  0
  2 25  1  1  0  0  0
  3  4  1  0  0  0  0
  4  2  1  0  0  0  0
  5  6  1  6  0  0  0
  5  4  1  0  0  0  0
  5  8  1  0  0  0  0
  8  7  1  0  0  0  0
  9 15  1  0  0  0  0
 10 13  2  0  0  0  0
 12 11  1  1  0  0  0
 12 17  1  0  0  0  0
 13 18  1  0  0  0  0
 14  9  1  0  0  0  0
 14 13  1  0  0  0  0
 15 12  1  0  0  0  0
 16 10  1  0  0  0  0
 18 17  2  0  0  0  0
 18  5  1  0  0  0  0
 20 25  1  0  0  0  0
 20 22  1  0  0  0  0
 23 21  1  0  0  0  0
 23 19  1  1  0  0  0
 24 27  1  1  0  0  0
 24 22  1  0  0  0  0
 24 23  1  0  0  0  0
 25 26  2  0  0  0  0
 26 21  1  0  0  0  0
 27 31  1  0  0  0  0
 30 34  2  0  0  0  0
 31 35  2  0  0  0  0
 32 29  1  0  0  0  0
 32 30  1  0  0  0  0
 33 31  1  0  0  0  0
 33 32  1  0  0  0  0
 34 28  1  0  0  0  0
 35 30  1  0  0  0  0
M  END
>  <MODEL>
9

>  <REMARK>
 VINA RESULT:      -5.5      2.752      3.799
  Name = 
  4 active torsions:
  status: ('A' for Active; 'I' for Inactive)
    1  A    between atoms: C_2  and  C_31
    2  A    between atoms: C_14  and  C_30
    3  A    between atoms: C_17  and  O_19
    4  A    between atoms: O_19  and  C_29
                            x       y       z     vdW  Elec       q    Type
                         _______ _______ _______ _____ _____    ______ ____

>  <TORSDO>
F 4

$$$$
