=
 OpenBabel11072411033D

 30 32  0  0  1  0  0  0  0  0999 V2000
  161.2910  206.5430  150.7080 C   0  0  0  0  0  0  0  0  0  0  0  0
  161.3980  207.4080  153.3570 C   0  0  0  0  0  0  0  0  0  0  0  0
  161.2460  206.0460  153.0750 C   0  0  0  0  0  3  0  0  0  0  0  0
  161.4690  208.3130  152.2960 C   0  0  0  0  0  3  0  0  0  0  0  0
  161.4130  207.8680  151.0120 N   0  0  0  0  0  0  0  0  0  0  0  0
  161.1910  205.6100  151.7520 C   0  0  0  0  0  3  0  0  0  0  0  0
  161.1760  206.0900  149.2660 C   0  0  1  0  0  0  0  0  0  0  0  0
  162.4130  208.0020  148.4330 O   0  0  0  0  0  1  0  0  0  0  0  0
  161.4730  203.9300  147.9170 C   0  0  0  0  0  0  0  0  0  0  0  0
  162.3720  206.6060  148.4400 C   0  0  2  0  0  3  0  0  0  0  0  0
  161.1830  204.5570  149.2560 C   0  0  0  0  0  2  0  0  0  0  0  0
  162.4160  203.9500  145.6220 C   0  0  0  0  0  1  0  0  0  0  0  0
  159.8620  206.5790  148.6500 C   0  0  0  0  0  1  0  0  0  0  0  0
  162.3310  206.0890  147.0050 C   0  0  0  0  0  2  0  0  0  0  0  0
  162.0840  204.6090  146.9220 C   0  0  0  0  0  0  0  0  0  0  0  0
  161.1920  202.5200  147.7920 C   0  0  0  0  0  0  0  0  0  0  0  0
  160.9660  201.3890  147.6910 N   0  0  0  0  0  0  0  0  0  0  0  0
  160.6780  208.8110  157.2600 C   0  0  0  0  0  2  0  0  0  0  0  0
  161.4010  207.9230  154.7660 C   0  0  1  0  0  3  0  0  0  0  0  0
  161.3030  209.4560  154.8780 C   0  0  2  0  0  3  0  0  0  0  0  0
  161.2530  209.9050  156.3500 C   0  0  0  0  0  2  0  0  0  0  0  0
  159.7250  208.0490  156.5620 O   0  0  0  0  0  0  0  0  0  0  0  0
  160.4300  207.1770  155.7060 C   0  0  0  0  0  2  0  0  0  0  0  0
  158.9220  209.9820  154.6840 O   0  0  0  0  0  1  0  0  0  0  0  0
  160.1570  210.0480  154.0330 C   0  0  1  0  0  3  0  0  0  0  0  0
  160.4310  211.4680  153.5320 C   0  0  1  0  0  3  0  0  0  0  0  0
  160.3690  211.5860  152.0140 C   0  0  0  0  0  1  0  0  0  0  0  0
  158.4460  212.9760  153.5180 O   0  0  0  0  0  0  0  0  0  0  0  0
  159.8020  212.8860  155.3620 O   0  0  0  0  0  1  0  0  0  0  0  0
  159.5430  212.4690  154.2020 C   0  0  0  0  0  0  0  0  0  0  0  0
  1  5  2  0  0  0  0
  1  6  1  0  0  0  0
  3  2  1  0  0  0  0
  4  2  2  0  0  0  0
  5  4  1  0  0  0  0
  6  3  2  0  0  0  0
  7 13  1  6  0  0  0
  7  1  1  0  0  0  0
  9 11  1  0  0  0  0
 10  8  1  6  0  0  0
 10  7  1  0  0  0  0
 11  7  1  0  0  0  0
 12 15  1  0  0  0  0
 14 10  1  0  0  0  0
 15 14  1  0  0  0  0
 15  9  2  0  0  0  0
 16  9  1  0  0  0  0
 17 16  3  0  0  0  0
 19  2  1  6  0  0  0
 19 20  1  0  0  0  0
 19 23  1  0  0  0  0
 20 25  1  6  0  0  0
 20 21  1  0  0  0  0
 21 18  1  0  0  0  0
 22 18  1  0  0  0  0
 23 22  1  0  0  0  0
 25 24  1  1  0  0  0
 26 27  1  6  0  0  0
 26 25  1  0  0  0  0
 26 30  1  0  0  0  0
 28 30  2  0  0  0  0
 30 29  1  0  0  0  0
M  END
>  <MODEL>
1

>  <REMARK>
 VINA RESULT:      -7.9      0.000      0.000
  Name = 
  6 active torsions:
  status: ('A' for Active; 'I' for Inactive)
    1  A    between atoms: C_1  and  C_7
    2  A    between atoms: C_2  and  C_15
    3  A    between atoms: C_4  and  C_22
    4  A    between atoms: C_4  and  C_26
    5  A    between atoms: C_12  and  C_16
    6  A    between atoms: C_21  and  C_26
                            x       y       z     vdW  Elec       q    Type
                         _______ _______ _______ _____ _____    ______ ____

>  <TORSDO>
F 6

$$$$
=
 OpenBabel11072411033D

 30 32  0  0  1  0  0  0  0  0999 V2000
  161.3060  207.5830  152.5540 C   0  0  0  0  0  0  0  0  0  0  0  0
  160.8430  209.7330  154.2690 C   0  0  0  0  0  0  0  0  0  0  0  0
  161.2270  209.9690  152.9440 C   0  0  0  0  0  3  0  0  0  0  0  0
  160.7230  208.4140  154.7110 C   0  0  0  0  0  3  0  0  0  0  0  0
  160.9560  207.3810  153.8570 N   0  0  0  0  0  0  0  0  0  0  0  0
  161.4600  208.8970  152.0840 C   0  0  0  0  0  3  0  0  0  0  0  0
  161.6110  206.4070  151.6460 C   0  0  1  0  0  0  0  0  0  0  0  0
  161.2080  204.7830  153.4010 O   0  0  0  0  0  1  0  0  0  0  0  0
  161.0170  205.6220  149.2790 C   0  0  0  0  0  0  0  0  0  0  0  0
  160.8390  205.1550  152.1060 C   0  0  2  0  0  3  0  0  0  0  0  0
  161.1630  206.7830  150.2290 C   0  0  0  0  0  2  0  0  0  0  0  0
  160.6730  203.2220  148.7540 C   0  0  0  0  0  1  0  0  0  0  0  0
  163.1150  206.1200  151.6240 C   0  0  0  0  0  1  0  0  0  0  0  0
  161.0560  203.9790  151.1570 C   0  0  0  0  0  2  0  0  0  0  0  0
  160.8750  204.3510  149.7120 C   0  0  0  0  0  0  0  0  0  0  0  0
  160.8980  205.9480  147.8780 C   0  0  0  0  0  0  0  0  0  0  0  0
  160.8030  206.2110  146.7550 N   0  0  0  0  0  0  0  0  0  0  0  0
  159.6890  212.5120  157.2120 C   0  0  0  0  0  2  0  0  0  0  0  0
  160.6410  210.8570  155.2400 C   0  0  1  0  0  3  0  0  0  0  0  0
  159.7250  211.9820  154.7230 C   0  0  2  0  0  3  0  0  0  0  0  0
  159.5180  213.0700  155.7930 C   0  0  0  0  0  2  0  0  0  0  0  0
  159.2730  211.1700  157.2610 O   0  0  0  0  0  0  0  0  0  0  0  0
  160.2930  210.3930  156.6710 C   0  0  0  0  0  2  0  0  0  0  0  0
  157.4530  211.1740  155.1330 O   0  0  0  0  0  1  0  0  0  0  0  0
  158.3970  211.4550  154.1420 C   0  0  1  0  0  3  0  0  0  0  0  0
  157.7970  212.3560  153.0610 C   0  0  1  0  0  3  0  0  0  0  0  0
  156.7370  213.3090  153.6000 C   0  0  0  0  0  1  0  0  0  0  0  0
  159.0110  214.4530  152.4750 O   0  0  0  0  0  1  0  0  0  0  0  0
  159.5910  212.4780  151.4720 O   0  0  0  0  0  0  0  0  0  0  0  0
  158.8590  213.0840  152.2990 C   0  0  0  0  0  0  0  0  0  0  0  0
  1  5  1  0  0  0  0
  2  4  1  0  0  0  0
  3  2  2  0  0  0  0
  5  4  2  0  0  0  0
  6  1  2  0  0  0  0
  6  3  1  0  0  0  0
  7 13  1  1  0  0  0
  7 10  1  0  0  0  0
  7  1  1  0  0  0  0
  9 15  2  0  0  0  0
  9 11  1  0  0  0  0
 10  8  1  1  0  0  0
 11  7  1  0  0  0  0
 12 15  1  0  0  0  0
 14 10  1  0  0  0  0
 15 14  1  0  0  0  0
 16  9  1  0  0  0  0
 17 16  3  0  0  0  0
 18 22  1  0  0  0  0
 19  2  1  6  0  0  0
 19 23  1  0  0  0  0
 20 25  1  1  0  0  0
 20 19  1  0  0  0  0
 20 21  1  0  0  0  0
 21 18  1  0  0  0  0
 23 22  1  0  0  0  0
 25 24  1  1  0  0  0
 26 27  1  1  0  0  0
 26 25  1  0  0  0  0
 29 30  2  0  0  0  0
 30 28  1  0  0  0  0
 30 26  1  0  0  0  0
M  END
>  <MODEL>
2

>  <REMARK>
 VINA RESULT:      -7.7      2.166      3.426
  Name = 
  6 active torsions:
  status: ('A' for Active; 'I' for Inactive)
    1  A    between atoms: C_1  and  C_7
    2  A    between atoms: C_2  and  C_15
    3  A    between atoms: C_4  and  C_22
    4  A    between atoms: C_4  and  C_26
    5  A    between atoms: C_12  and  C_16
    6  A    between atoms: C_21  and  C_26
                            x       y       z     vdW  Elec       q    Type
                         _______ _______ _______ _____ _____    ______ ____

>  <TORSDO>
F 6

$$$$
=
 OpenBabel11072411033D

 30 32  0  0  1  0  0  0  0  0999 V2000
  161.1520  207.5400  152.3650 C   0  0  0  0  0  0  0  0  0  0  0  0
  160.5100  209.6200  154.1080 C   0  0  0  0  0  0  0  0  0  0  0  0
  160.8200  209.9010  152.7730 C   0  0  0  0  0  3  0  0  0  0  0  0
  160.5530  208.2940  154.5450 C   0  0  0  0  0  3  0  0  0  0  0  0
  160.8700  207.2970  153.6780 N   0  0  0  0  0  0  0  0  0  0  0  0
  161.1430  208.8640  151.8990 C   0  0  0  0  0  3  0  0  0  0  0  0
  161.5560  206.4080  151.4400 C   0  0  1  0  0  0  0  0  0  0  0  0
  161.2670  204.7260  153.1630 O   0  0  0  0  0  1  0  0  0  0  0  0
  161.0450  205.6210  149.0540 C   0  0  0  0  0  0  0  0  0  0  0  0
  160.8810  205.0910  151.8710 C   0  0  2  0  0  3  0  0  0  0  0  0
  161.0910  206.7720  150.0260 C   0  0  0  0  0  2  0  0  0  0  0  0
  160.8950  203.2120  148.4850 C   0  0  0  0  0  1  0  0  0  0  0  0
  163.0780  206.2400  151.4280 C   0  0  0  0  0  1  0  0  0  0  0  0
  161.1980  203.9530  150.9040 C   0  0  0  0  0  2  0  0  0  0  0  0
  161.0000  204.3360  149.4640 C   0  0  0  0  0  0  0  0  0  0  0  0
  160.9120  205.9620  147.6590 C   0  0  0  0  0  0  0  0  0  0  0  0
  160.8060  206.2350  146.5380 N   0  0  0  0  0  0  0  0  0  0  0  0
  158.9850  212.5120  156.7590 C   0  0  0  0  0  2  0  0  0  0  0  0
  160.2160  210.7120  155.0930 C   0  0  1  0  0  3  0  0  0  0  0  0
  159.9760  212.0920  154.4520 C   0  0  2  0  0  3  0  0  0  0  0  0
  159.6240  213.1470  155.5170 C   0  0  0  0  0  2  0  0  0  0  0  0
  158.2390  211.3780  156.3960 O   0  0  0  0  0  0  0  0  0  0  0  0
  159.1550  210.3340  156.1490 C   0  0  0  0  0  2  0  0  0  0  0  0
  157.6530  211.8060  153.7380 O   0  0  0  0  0  1  0  0  0  0  0  0
  158.9570  212.0470  153.2950 C   0  0  1  0  0  3  0  0  0  0  0  0
  159.0030  213.2770  152.3860 C   0  0  1  0  0  3  0  0  0  0  0  0
  159.8640  213.0700  151.1470 C   0  0  0  0  0  1  0  0  0  0  0  0
  157.1020  213.4530  150.7830 O   0  0  0  0  0  0  0  0  0  0  0  0
  156.9600  214.4520  152.8380 O   0  0  0  0  0  1  0  0  0  0  0  0
  157.6280  213.7520  152.0320 C   0  0  0  0  0  0  0  0  0  0  0  0
  1  5  1  0  0  0  0
  2  4  1  0  0  0  0
  3  2  2  0  0  0  0
  5  4  2  0  0  0  0
  6  1  2  0  0  0  0
  6  3  1  0  0  0  0
  7 13  1  1  0  0  0
  7 10  1  0  0  0  0
  7  1  1  0  0  0  0
  9 15  2  0  0  0  0
  9 11  1  0  0  0  0
 10  8  1  1  0  0  0
 11  7  1  0  0  0  0
 12 15  1  0  0  0  0
 14 10  1  0  0  0  0
 15 14  1  0  0  0  0
 16  9  1  0  0  0  0
 17 16  3  0  0  0  0
 19  2  1  6  0  0  0
 19 23  1  0  0  0  0
 20 25  1  6  0  0  0
 20 19  1  0  0  0  0
 20 21  1  0  0  0  0
 21 18  1  0  0  0  0
 22 18  1  0  0  0  0
 23 22  1  0  0  0  0
 25 24  1  1  0  0  0
 26 27  1  6  0  0  0
 26 25  1  0  0  0  0
 28 30  2  0  0  0  0
 30 26  1  0  0  0  0
 30 29  1  0  0  0  0
M  END
>  <MODEL>
3

>  <REMARK>
 VINA RESULT:      -7.7      2.181      3.375
  Name = 
  6 active torsions:
  status: ('A' for Active; 'I' for Inactive)
    1  A    between atoms: C_1  and  C_7
    2  A    between atoms: C_2  and  C_15
    3  A    between atoms: C_4  and  C_22
    4  A    between atoms: C_4  and  C_26
    5  A    between atoms: C_12  and  C_16
    6  A    between atoms: C_21  and  C_26
                            x       y       z     vdW  Elec       q    Type
                         _______ _______ _______ _____ _____    ______ ____

>  <TORSDO>
F 6

$$$$
=
 OpenBabel11072411033D

 30 32  0  0  1  0  0  0  0  0999 V2000
  161.1830  205.3470  151.2990 C   0  0  0  0  0  0  0  0  0  0  0  0
  160.7540  203.2400  149.5230 C   0  0  0  0  0  0  0  0  0  0  0  0
  161.3400  202.9920  150.7680 C   0  0  0  0  0  3  0  0  0  0  0  0
  160.4160  204.5530  149.1860 C   0  0  0  0  0  3  0  0  0  0  0  0
  160.6370  205.5640  150.0670 N   0  0  0  0  0  0  0  0  0  0  0  0
  161.5580  204.0430  151.6580 C   0  0  0  0  0  3  0  0  0  0  0  0
  161.4650  206.5070  152.2340 C   0  0  1  0  0  0  0  0  0  0  0  0
  161.4590  208.1280  150.4300 O   0  0  0  0  0  1  0  0  0  0  0  0
  160.6220  207.3860  154.4900 C   0  0  0  0  0  0  0  0  0  0  0  0
  160.8820  207.8150  151.6630 C   0  0  2  0  0  3  0  0  0  0  0  0
  160.7920  206.2000  153.5760 C   0  0  0  0  0  2  0  0  0  0  0  0
  160.4290  209.8160  154.9480 C   0  0  0  0  0  1  0  0  0  0  0  0
  162.9720  206.6590  152.4640 C   0  0  0  0  0  1  0  0  0  0  0  0
  161.0710  208.9840  152.6270 C   0  0  0  0  0  2  0  0  0  0  0  0
  160.6580  208.6560  154.0340 C   0  0  0  0  0  0  0  0  0  0  0  0
  160.2810  207.0970  155.8620 C   0  0  0  0  0  0  0  0  0  0  0  0
  160.0050  206.8650  156.9620 N   0  0  0  0  0  0  0  0  0  0  0  0
  160.9370  200.1560  146.6650 C   0  0  0  0  0  2  0  0  0  0  0  0
  160.5590  202.1470  148.5150 C   0  0  1  0  0  3  0  0  0  0  0  0
  160.5140  202.6350  147.0540 C   0  0  2  0  0  3  0  0  0  0  0  0
  160.3710  201.4550  146.0760 C   0  0  0  0  0  2  0  0  0  0  0  0
  162.0190  200.4380  147.5160 O   0  0  0  0  0  0  0  0  0  0  0  0
  161.4840  200.9300  148.7260 C   0  0  0  0  0  2  0  0  0  0  0  0
  162.5650  202.9970  145.7700 O   0  0  0  0  0  1  0  0  0  0  0  0
  161.6900  203.5680  146.6980 C   0  0  1  0  0  3  0  0  0  0  0  0
  161.2530  204.9630  146.2440 C   0  0  1  0  0  3  0  0  0  0  0  0
  162.2440  206.0530  146.6320 C   0  0  0  0  0  1  0  0  0  0  0  0
  159.9010  204.2190  144.2860 O   0  0  0  0  0  1  0  0  0  0  0  0
  161.6380  205.6810  143.9880 O   0  0  0  0  0  0  0  0  0  0  0  0
  160.9420  204.9930  144.7810 C   0  0  0  0  0  0  0  0  0  0  0  0
  1  6  1  0  0  0  0
  1  7  1  0  0  0  0
  2  3  1  0  0  0  0
  3  6  2  0  0  0  0
  4  2  2  0  0  0  0
  4  5  1  0  0  0  0
  5  1  2  0  0  0  0
  7 13  1  1  0  0  0
  7 11  1  0  0  0  0
  9 16  1  0  0  0  0
 10  8  1  6  0  0  0
 10  7  1  0  0  0  0
 10 14  1  0  0  0  0
 11  9  1  0  0  0  0
 14 15  1  0  0  0  0
 15  9  2  0  0  0  0
 15 12  1  0  0  0  0
 16 17  3  0  0  0  0
 18 22  1  0  0  0  0
 19 23  1  0  0  0  0
 19  2  1  1  0  0  0
 20 25  1  6  0  0  0
 20 19  1  0  0  0  0
 21 18  1  0  0  0  0
 21 20  1  0  0  0  0
 22 23  1  0  0  0  0
 25 24  1  6  0  0  0
 26 27  1  6  0  0  0
 26 25  1  0  0  0  0
 28 30  1  0  0  0  0
 29 30  2  0  0  0  0
 30 26  1  0  0  0  0
M  END
>  <MODEL>
4

>  <REMARK>
 VINA RESULT:      -7.3      2.884      8.807
  Name = 
  6 active torsions:
  status: ('A' for Active; 'I' for Inactive)
    1  A    between atoms: C_1  and  C_7
    2  A    between atoms: C_2  and  C_15
    3  A    between atoms: C_4  and  C_22
    4  A    between atoms: C_4  and  C_26
    5  A    between atoms: C_12  and  C_16
    6  A    between atoms: C_21  and  C_26
                            x       y       z     vdW  Elec       q    Type
                         _______ _______ _______ _____ _____    ______ ____

>  <TORSDO>
F 6

$$$$
=
 OpenBabel11072411033D

 30 32  0  0  1  0  0  0  0  0999 V2000
  161.3570  208.3650  151.3100 C   0  0  0  0  0  0  0  0  0  0  0  0
  161.6630  206.9850  148.9070 C   0  0  0  0  0  0  0  0  0  0  0  0
  160.6730  206.5920  149.8140 C   0  0  0  0  0  3  0  0  0  0  0  0
  162.4980  208.0530  149.2410 C   0  0  0  0  0  3  0  0  0  0  0  0
  162.3310  208.7100  150.4190 N   0  0  0  0  0  0  0  0  0  0  0  0
  160.5180  207.2790  151.0170 C   0  0  0  0  0  3  0  0  0  0  0  0
  161.2360  209.0860  152.6390 C   0  0  1  0  0  0  0  0  0  0  0  0
  160.3030  211.0780  151.6190 O   0  0  0  0  0  1  0  0  0  0  0  0
  160.4010  208.5840  155.0110 C   0  0  0  0  0  0  0  0  0  0  0  0
  160.0810  210.1060  152.5970 C   0  0  2  0  0  3  0  0  0  0  0  0
  160.9400  208.0350  153.7150 C   0  0  0  0  0  2  0  0  0  0  0  0
  159.2500  210.3070  156.3750 C   0  0  0  0  0  1  0  0  0  0  0  0
  162.5490  209.7910  152.9910 C   0  0  0  0  0  1  0  0  0  0  0  0
  159.8770  210.7820  153.9510 C   0  0  0  0  0  2  0  0  0  0  0  0
  159.8310  209.8060  155.0920 C   0  0  0  0  0  0  0  0  0  0  0  0
  160.3980  207.6850  156.1390 C   0  0  0  0  0  0  0  0  0  0  0  0
  160.3950  206.9640  157.0450 N   0  0  0  0  0  0  0  0  0  0  0  0
  161.6060  204.7760  145.3240 C   0  0  0  0  0  2  0  0  0  0  0  0
  161.9010  206.2340  147.6300 C   0  0  1  0  0  3  0  0  0  0  0  0
  162.1120  204.7190  147.8180 C   0  0  2  0  0  3  0  0  0  0  0  0
  162.2910  204.0090  146.4640 C   0  0  0  0  0  2  0  0  0  0  0  0
  160.4620  205.4380  145.8010 O   0  0  0  0  0  0  0  0  0  0  0  0
  160.9000  206.5780  146.5070 C   0  0  0  0  0  2  0  0  0  0  0  0
  160.0420  203.4210  147.9410 O   0  0  0  0  0  1  0  0  0  0  0  0
  161.0240  204.0670  148.6960 C   0  0  1  0  0  3  0  0  0  0  0  0
  161.5810  203.1350  149.7740 C   0  0  1  0  0  3  0  0  0  0  0  0
  161.3700  203.6650  151.1870 C   0  0  0  0  0  1  0  0  0  0  0  0
  161.5810  200.9170  148.6360 O   0  0  0  0  0  0  0  0  0  0  0  0
  160.1180  201.3230  150.3500 O   0  0  0  0  0  1  0  0  0  0  0  0
  161.0560  201.7420  149.6220 C   0  0  0  0  0  0  0  0  0  0  0  0
  1  7  1  0  0  0  0
  2  4  2  0  0  0  0
  2  3  1  0  0  0  0
  3  6  2  0  0  0  0
  4  5  1  0  0  0  0
  5  1  2  0  0  0  0
  6  1  1  0  0  0  0
  7 13  1  1  0  0  0
  7 11  1  0  0  0  0
  9 15  2  0  0  0  0
  9 16  1  0  0  0  0
 10  8  1  6  0  0  0
 10  7  1  0  0  0  0
 10 14  1  0  0  0  0
 11  9  1  0  0  0  0
 14 15  1  0  0  0  0
 15 12  1  0  0  0  0
 16 17  3  0  0  0  0
 18 22  1  0  0  0  0
 18 21  1  0  0  0  0
 19 20  1  0  0  0  0
 19  2  1  1  0  0  0
 20 25  1  6  0  0  0
 21 20  1  0  0  0  0
 22 23  1  0  0  0  0
 23 19  1  0  0  0  0
 25 24  1  6  0  0  0
 25 26  1  0  0  0  0
 26 27  1  1  0  0  0
 28 30  2  0  0  0  0
 30 26  1  0  0  0  0
 30 29  1  0  0  0  0
M  END
>  <MODEL>
5

>  <REMARK>
 VINA RESULT:      -7.0      2.820      8.637
  Name = 
  6 active torsions:
  status: ('A' for Active; 'I' for Inactive)
    1  A    between atoms: C_1  and  C_7
    2  A    between atoms: C_2  and  C_15
    3  A    between atoms: C_4  and  C_22
    4  A    between atoms: C_4  and  C_26
    5  A    between atoms: C_12  and  C_16
    6  A    between atoms: C_21  and  C_26
                            x       y       z     vdW  Elec       q    Type
                         _______ _______ _______ _____ _____    ______ ____

>  <TORSDO>
F 6

$$$$
=
 OpenBabel11072411033D

 30 32  0  0  1  0  0  0  0  0999 V2000
  160.7530  209.2500  153.5570 C   0  0  0  0  0  0  0  0  0  0  0  0
  161.6660  208.0090  151.2320 C   0  0  0  0  0  0  0  0  0  0  0  0
  161.6590  207.3050  152.4400 C   0  0  0  0  0  3  0  0  0  0  0  0
  161.2330  209.3370  151.2230 C   0  0  0  0  0  3  0  0  0  0  0  0
  160.7940  209.9220  152.3700 N   0  0  0  0  0  0  0  0  0  0  0  0
  161.2050  207.9210  153.6050 C   0  0  0  0  0  3  0  0  0  0  0  0
  160.3090  209.9510  154.8260 C   0  0  1  0  0  0  0  0  0  0  0  0
  162.5750  210.5740  155.4260 O   0  0  0  0  0  1  0  0  0  0  0  0
  158.4960  211.6110  155.5530 C   0  0  0  0  0  0  0  0  0  0  0  0
  161.2940  211.0790  155.1920 C   0  0  2  0  0  3  0  0  0  0  0  0
  158.9260  210.5560  154.5660 C   0  0  0  0  0  2  0  0  0  0  0  0
  158.9400  213.3560  157.2590 C   0  0  0  0  0  1  0  0  0  0  0  0
  160.1990  208.9530  155.9820 C   0  0  0  0  0  1  0  0  0  0  0  0
  160.8240  211.8620  156.4150 C   0  0  0  0  0  2  0  0  0  0  0  0
  159.3810  212.2720  156.3300 C   0  0  0  0  0  0  0  0  0  0  0  0
  157.1020  211.9830  155.5310 C   0  0  0  0  0  0  0  0  0  0  0  0
  155.9830  212.2810  155.5130 N   0  0  0  0  0  0  0  0  0  0  0  0
  162.5060  206.4320  147.4210 C   0  0  0  0  0  2  0  0  0  0  0  0
  162.2020  207.4010  149.9710 C   0  0  1  0  0  3  0  0  0  0  0  0
  161.9540  205.8860  149.8450 C   0  0  2  0  0  3  0  0  0  0  0  0
  162.4790  205.3440  148.5030 C   0  0  0  0  0  2  0  0  0  0  0  0
  161.4600  207.3480  147.6260 O   0  0  0  0  0  0  0  0  0  0  0  0
  161.8410  208.1880  148.6930 C   0  0  0  0  0  2  0  0  0  0  0  0
  159.6280  205.8910  149.0860 O   0  0  0  0  0  1  0  0  0  0  0  0
  160.4870  205.4940  150.1150 C   0  0  1  0  0  3  0  0  0  0  0  0
  160.2950  204.0110  150.4390 C   0  0  1  0  0  3  0  0  0  0  0  0
  160.6270  203.0970  149.2670 C   0  0  0  0  0  1  0  0  0  0  0  0
  161.9120  202.5370  151.6350 O   0  0  0  0  0  0  0  0  0  0  0  0
  160.8570  204.2290  152.7610 O   0  0  0  0  0  1  0  0  0  0  0  0
  161.0400  203.6180  151.6750 C   0  0  0  0  0  0  0  0  0  0  0  0
  1  6  1  0  0  0  0
  1  7  1  0  0  0  0
  2  3  1  0  0  0  0
  3  6  2  0  0  0  0
  4  2  2  0  0  0  0
  4  5  1  0  0  0  0
  5  1  2  0  0  0  0
  7 10  1  0  0  0  0
  7 13  1  1  0  0  0
  9 15  2  0  0  0  0
 10  8  1  1  0  0  0
 10 14  1  0  0  0  0
 11  7  1  0  0  0  0
 11  9  1  0  0  0  0
 15 14  1  0  0  0  0
 15 12  1  0  0  0  0
 16  9  1  0  0  0  0
 17 16  3  0  0  0  0
 18 22  1  0  0  0  0
 18 21  1  0  0  0  0
 19  2  1  1  0  0  0
 20 19  1  0  0  0  0
 20 25  1  6  0  0  0
 21 20  1  0  0  0  0
 22 23  1  0  0  0  0
 23 19  1  0  0  0  0
 25 24  1  6  0  0  0
 25 26  1  0  0  0  0
 26 27  1  6  0  0  0
 26 30  1  0  0  0  0
 28 30  2  0  0  0  0
 30 29  1  0  0  0  0
M  END
>  <MODEL>
6

>  <REMARK>
 VINA RESULT:      -6.3      2.807      8.682
  Name = 
  6 active torsions:
  status: ('A' for Active; 'I' for Inactive)
    1  A    between atoms: C_1  and  C_7
    2  A    between atoms: C_2  and  C_15
    3  A    between atoms: C_4  and  C_22
    4  A    between atoms: C_4  and  C_26
    5  A    between atoms: C_12  and  C_16
    6  A    between atoms: C_21  and  C_26
                            x       y       z     vdW  Elec       q    Type
                         _______ _______ _______ _____ _____    ______ ____

>  <TORSDO>
F 6

$$$$
=
 OpenBabel11072411033D

 30 32  0  0  1  0  0  0  0  0999 V2000
  161.2970  208.2360  151.4310 C   0  0  0  0  0  0  0  0  0  0  0  0
  160.5170  210.6810  152.5230 C   0  0  0  0  0  0  0  0  0  0  0  0
  160.2710  209.4950  153.2240 C   0  0  0  0  0  3  0  0  0  0  0  0
  161.1310  210.6080  151.2710 C   0  0  0  0  0  3  0  0  0  0  0  0
  161.5010  209.4050  150.7580 N   0  0  0  0  0  0  0  0  0  0  0  0
  160.6580  208.2710  152.6810 C   0  0  0  0  0  3  0  0  0  0  0  0
  161.6730  206.9070  150.8030 C   0  0  1  0  0  0  0  0  0  0  0  0
  161.2130  205.6710  152.8380 O   0  0  0  0  0  1  0  0  0  0  0  0
  161.2170  205.6300  148.6270 C   0  0  0  0  0  0  0  0  0  0  0  0
  160.9040  205.7540  151.4790 C   0  0  2  0  0  3  0  0  0  0  0  0
  161.2900  206.9660  149.3210 C   0  0  0  0  0  2  0  0  0  0  0  0
  160.9510  203.1640  148.6000 C   0  0  0  0  0  1  0  0  0  0  0  0
  163.1810  206.6680  150.9110 C   0  0  0  0  0  1  0  0  0  0  0  0
  161.1940  204.4140  150.8070 C   0  0  0  0  0  2  0  0  0  0  0  0
  161.0800  204.4730  149.3100 C   0  0  0  0  0  0  0  0  0  0  0  0
  161.1640  205.6550  147.1860 C   0  0  0  0  0  0  0  0  0  0  0  0
  161.1200  205.6760  146.0290 N   0  0  0  0  0  0  0  0  0  0  0  0
  158.5770  214.2040  153.7630 C   0  0  0  0  0  2  0  0  0  0  0  0
  160.0620  212.0100  153.0450 C   0  0  1  0  0  3  0  0  0  0  0  0
  160.0630  213.1360  151.9940 C   0  0  2  0  0  3  0  0  0  0  0  0
  159.5300  214.4530  152.5860 C   0  0  0  0  0  2  0  0  0  0  0  0
  157.8740  213.0020  153.5730 O   0  0  0  0  0  0  0  0  0  0  0  0
  158.7600  211.9460  153.8720 C   0  0  0  0  0  2  0  0  0  0  0  0
  157.9590  212.6770  150.8310 O   0  0  0  0  0  1  0  0  0  0  0  0
  159.3480  212.7360  150.6860 C   0  0  1  0  0  3  0  0  0  0  0  0
  159.7320  213.6030  149.4850 C   0  0  1  0  0  3  0  0  0  0  0  0
  161.1740  213.3960  149.0380 C   0  0  0  0  0  1  0  0  0  0  0  0
  157.6020  214.1770  148.3250 O   0  0  0  0  0  1  0  0  0  0  0  0
  158.9910  212.5850  147.4430 O   0  0  0  0  0  0  0  0  0  0  0  0
  158.7710  213.4290  148.3520 C   0  0  0  0  0  0  0  0  0  0  0  0
  1  6  1  0  0  0  0
  2  3  1  0  0  0  0
  4  2  2  0  0  0  0
  5  4  1  0  0  0  0
  5  1  2  0  0  0  0
  6  3  2  0  0  0  0
  7 13  1  1  0  0  0
  7  1  1  0  0  0  0
  7 10  1  0  0  0  0
  9 15  2  0  0  0  0
  9 11  1  0  0  0  0
 10  8  1  1  0  0  0
 11  7  1  0  0  0  0
 12 15  1  0  0  0  0
 14 10  1  0  0  0  0
 15 14  1  0  0  0  0
 16  9  1  0  0  0  0
 17 16  3  0  0  0  0
 19  2  1  6  0  0  0
 19 23  1  0  0  0  0
 20 25  1  6  0  0  0
 20 21  1  0  0  0  0
 20 19  1  0  0  0  0
 21 18  1  0  0  0  0
 22 18  1  0  0  0  0
 22 23  1  0  0  0  0
 25 24  1  1  0  0  0
 26 27  1  6  0  0  0
 26 25  1  0  0  0  0
 28 30  1  0  0  0  0
 29 30  2  0  0  0  0
 30 26  1  0  0  0  0
M  END
>  <MODEL>
7

>  <REMARK>
 VINA RESULT:      -5.7      2.545      4.396
  Name = 
  6 active torsions:
  status: ('A' for Active; 'I' for Inactive)
    1  A    between atoms: C_1  and  C_7
    2  A    between atoms: C_2  and  C_15
    3  A    between atoms: C_4  and  C_22
    4  A    between atoms: C_4  and  C_26
    5  A    between atoms: C_12  and  C_16
    6  A    between atoms: C_21  and  C_26
                            x       y       z     vdW  Elec       q    Type
                         _______ _______ _______ _____ _____    ______ ____

>  <TORSDO>
F 6

$$$$
=
 OpenBabel11072411033D

 30 32  0  0  1  0  0  0  0  0999 V2000
  161.8460  210.8540  148.8870 C   0  0  0  0  0  0  0  0  0  0  0  0
  162.0220  208.5110  150.3900 C   0  0  0  0  0  0  0  0  0  0  0  0
  162.3240  209.7420  150.9820 C   0  0  0  0  0  3  0  0  0  0  0  0
  161.6590  208.4820  149.0420 C   0  0  0  0  0  3  0  0  0  0  0  0
  161.5820  209.6370  148.3280 N   0  0  0  0  0  0  0  0  0  0  0  0
  162.2380  210.9150  150.2330 C   0  0  0  0  0  3  0  0  0  0  0  0
  161.8030  212.1150  148.0460 C   0  0  1  0  0  0  0  0  0  0  0  0
  164.2080  212.4090  148.1350 O   0  0  0  0  0  1  0  0  0  0  0  0
  160.6860  212.9300  145.8870 C   0  0  0  0  0  0  0  0  0  0  0  0
  163.1220  212.2890  147.2660 C   0  0  2  0  0  3  0  0  0  0  0  0
  160.6460  211.9740  147.0520 C   0  0  0  0  0  2  0  0  0  0  0  0
  161.8540  214.4530  144.3150 C   0  0  0  0  0  1  0  0  0  0  0  0
  161.5470  213.3410  148.9270 C   0  0  0  0  0  1  0  0  0  0  0  0
  163.0730  213.5020  146.3410 C   0  0  0  0  0  2  0  0  0  0  0  0
  161.8220  213.5550  145.5090 C   0  0  0  0  0  0  0  0  0  0  0  0
  159.4800  213.0420  145.1040 C   0  0  0  0  0  0  0  0  0  0  0  0
  158.5110  213.1320  144.4770 N   0  0  0  0  0  0  0  0  0  0  0  0
  161.6900  204.8250  152.3950 C   0  0  0  0  0  2  0  0  0  0  0  0
  162.1600  207.2220  151.1440 C   0  0  1  0  0  3  0  0  0  0  0  0
  161.9100  207.3470  152.6590 C   0  0  2  0  0  3  0  0  0  0  0  0
  162.0120  205.9780  153.3560 C   0  0  0  0  0  2  0  0  0  0  0  0
  160.7410  205.2350  151.4440 O   0  0  0  0  0  0  0  0  0  0  0  0
  161.4150  206.0360  150.4970 C   0  0  0  0  0  2  0  0  0  0  0  0
  159.7760  207.3660  153.8550 O   0  0  0  0  0  1  0  0  0  0  0  0
  160.6010  208.0920  152.9920 C   0  0  1  0  0  3  0  0  0  0  0  0
  160.8170  209.5130  153.5150 C   0  0  1  0  0  3  0  0  0  0  0  0
  159.7890  210.5050  152.9870 C   0  0  0  0  0  1  0  0  0  0  0  0
  159.7970  209.9590  155.7460 O   0  0  0  0  0  1  0  0  0  0  0  0
  161.9640  209.2340  155.6040 O   0  0  0  0  0  0  0  0  0  0  0  0
  160.8970  209.5430  155.0090 C   0  0  0  0  0  0  0  0  0  0  0  0
  1  6  1  0  0  0  0
  2  3  1  0  0  0  0
  4  2  2  0  0  0  0
  5  1  2  0  0  0  0
  5  4  1  0  0  0  0
  6  3  2  0  0  0  0
  7  1  1  0  0  0  0
  7 13  1  1  0  0  0
  9 11  1  0  0  0  0
 10  7  1  0  0  0  0
 10  8  1  1  0  0  0
 11  7  1  0  0  0  0
 12 15  1  0  0  0  0
 14 10  1  0  0  0  0
 15  9  2  0  0  0  0
 15 14  1  0  0  0  0
 16  9  1  0  0  0  0
 17 16  3  0  0  0  0
 18 21  1  0  0  0  0
 19  2  1  6  0  0  0
 19 20  1  0  0  0  0
 20 25  1  6  0  0  0
 20 21  1  0  0  0  0
 22 18  1  0  0  0  0
 23 19  1  0  0  0  0
 23 22  1  0  0  0  0
 25 26  1  0  0  0  0
 25 24  1  1  0  0  0
 26 27  1  1  0  0  0
 26 30  1  0  0  0  0
 30 29  2  0  0  0  0
 30 28  1  0  0  0  0
M  END
>  <MODEL>
8

>  <REMARK>
 VINA RESULT:      -5.3      4.196      6.160
  Name = 
  6 active torsions:
  status: ('A' for Active; 'I' for Inactive)
    1  A    between atoms: C_1  and  C_7
    2  A    between atoms: C_2  and  C_15
    3  A    between atoms: C_4  and  C_22
    4  A    between atoms: C_4  and  C_26
    5  A    between atoms: C_12  and  C_16
    6  A    between atoms: C_21  and  C_26
                            x       y       z     vdW  Elec       q    Type
                         _______ _______ _______ _____ _____    ______ ____

>  <TORSDO>
F 6

$$$$
=
 OpenBabel11072411033D

 30 32  0  0  1  0  0  0  0  0999 V2000
  161.4140  208.0560  150.8040 C   0  0  0  0  0  0  0  0  0  0  0  0
  160.9300  205.3110  150.7150 C   0  0  0  0  0  0  0  0  0  0  0  0
  162.0480  205.7990  151.4000 C   0  0  0  0  0  3  0  0  0  0  0  0
  160.0890  206.2170  150.0650 C   0  0  0  0  0  3  0  0  0  0  0  0
  160.3460  207.5510  150.1210 N   0  0  0  0  0  0  0  0  0  0  0  0
  162.2940  207.1700  151.4460 C   0  0  0  0  0  3  0  0  0  0  0  0
  161.7000  209.5450  150.7970 C   0  0  1  0  0  0  0  0  0  0  0  0
  162.6290  209.4870  148.5590 O   0  0  0  0  0  1  0  0  0  0  0  0
  160.4940  211.7210  151.4190 C   0  0  0  0  0  0  0  0  0  0  0  0
  161.6610  210.0970  149.3580 C   0  0  2  0  0  3  0  0  0  0  0  0
  160.6120  210.2330  151.6290 C   0  0  0  0  0  2  0  0  0  0  0  0
  160.8030  213.8000  150.1020 C   0  0  0  0  0  1  0  0  0  0  0  0
  163.0620  209.8350  151.4350 C   0  0  0  0  0  1  0  0  0  0  0  0
  161.8550  211.6110  149.3300 C   0  0  0  0  0  2  0  0  0  0  0  0
  160.9830  212.3320  150.3190 C   0  0  0  0  0  0  0  0  0  0  0  0
  159.7080  212.4470  152.3860 C   0  0  0  0  0  0  0  0  0  0  0  0
  159.0780  213.0310  153.1630 N   0  0  0  0  0  0  0  0  0  0  0  0
  160.9130  201.1200  150.3230 C   0  0  0  0  0  2  0  0  0  0  0  0
  160.6650  203.8400  150.5920 C   0  0  1  0  0  3  0  0  0  0  0  0
  160.5300  203.3410  149.1400 C   0  0  2  0  0  3  0  0  0  0  0  0
  160.3180  201.8170  149.0920 C   0  0  0  0  0  2  0  0  0  0  0  0
  162.0490  201.8140  150.7740 O   0  0  0  0  0  0  0  0  0  0  0  0
  161.5950  202.9630  151.4570 C   0  0  0  0  0  2  0  0  0  0  0  0
  162.4720  202.7540  147.7730 O   0  0  0  0  0  1  0  0  0  0  0  0
  161.6860  203.8140  148.2340 C   0  0  1  0  0  3  0  0  0  0  0  0
  161.2340  204.7010  147.0720 C   0  0  1  0  0  3  0  0  0  0  0  0
  161.7180  206.1400  147.1990 C   0  0  0  0  0  1  0  0  0  0  0  0
  160.7060  203.2730  145.0980 O   0  0  0  0  0  0  0  0  0  0  0  0
  162.7370  204.3220  145.2410 O   0  0  0  0  0  1  0  0  0  0  0  0
  161.6050  204.1070  145.7500 C   0  0  0  0  0  0  0  0  0  0  0  0
  1  6  1  0  0  0  0
  2  3  1  0  0  0  0
  3  6  2  0  0  0  0
  4  5  1  0  0  0  0
  4  2  2  0  0  0  0
  5  1  2  0  0  0  0
  7  1  1  0  0  0  0
  7 13  1  1  0  0  0
  7 11  1  0  0  0  0
  9 11  1  0  0  0  0
  9 16  1  0  0  0  0
 10  8  1  6  0  0  0
 10  7  1  0  0  0  0
 12 15  1  0  0  0  0
 14 10  1  0  0  0  0
 14 15  1  0  0  0  0
 15  9  2  0  0  0  0
 16 17  3  0  0  0  0
 18 22  1  0  0  0  0
 19  2  1  6  0  0  0
 19 23  1  0  0  0  0
 20 25  1  6  0  0  0
 20 19  1  0  0  0  0
 21 20  1  0  0  0  0
 21 18  1  0  0  0  0
 22 23  1  0  0  0  0
 25 24  1  6  0  0  0
 26 27  1  1  0  0  0
 26 25  1  0  0  0  0
 28 30  2  0  0  0  0
 29 30  1  0  0  0  0
 30 26  1  0  0  0  0
M  END
>  <MODEL>
9

>  <REMARK>
 VINA RESULT:      -5.2      3.805      8.169
  Name = 
  6 active torsions:
  status: ('A' for Active; 'I' for Inactive)
    1  A    between atoms: C_1  and  C_7
    2  A    between atoms: C_2  and  C_15
    3  A    between atoms: C_4  and  C_22
    4  A    between atoms: C_4  and  C_26
    5  A    between atoms: C_12  and  C_16
    6  A    between atoms: C_21  and  C_26
                            x       y       z     vdW  Elec       q    Type
                         _______ _______ _______ _____ _____    ______ ____

>  <TORSDO>
F 6

$$$$
