=
 OpenBabel11072412063D

 50 57  0  0  1  0  0  0  0  0999 V2000
  162.7230  208.5780  151.4230 C   0  0  0  0  0  2  0  0  0  0  0  0
  162.3060  209.5610  149.2900 O   0  0  0  0  0  0  0  0  0  0  0  0
  161.6070  211.7830  148.8260 C   0  0  0  0  0  0  0  0  0  0  0  0
  155.3050  213.9580  149.0000 C   0  0  0  0  0  2  0  0  0  0  0  0
  160.8790  212.7030  144.6690 O   0  0  0  0  0  0  0  0  0  0  0  0
  162.6640  213.3600  146.2180 C   0  0  0  0  0  2  0  0  0  0  0  0
  162.7070  212.5450  148.6450 C   0  0  0  0  0  3  0  0  0  0  0  0
  160.3100  212.7830  146.9330 C   0  0  1  0  0  3  0  0  0  0  0  0
  158.2350  213.4350  151.2160 O   0  0  0  0  0  0  0  0  0  0  0  0
  158.7510  212.7200  143.7480 O   0  0  0  0  0  0  0  0  0  0  0  0
  160.0460  211.1600  155.0540 C   0  0  0  0  0  2  0  0  0  0  0  0
  161.6350  210.6700  149.8330 C   0  0  2  0  0  3  0  0  0  0  0  0
  161.2420  211.0150  154.0930 C   0  0  0  0  0  2  0  0  0  0  0  0
  158.8910  211.9140  152.9230 C   0  0  2  0  0  3  0  0  0  0  0  0
  157.4530  213.9780  153.4290 C   0  0  0  0  0  2  0  0  0  0  0  0
  162.8240  213.7180  147.7050 C   0  0  0  0  0  2  0  0  0  0  0  0
  162.3610  209.8860  152.1500 C   0  0  1  0  0  3  0  0  0  0  0  0
  158.0450  213.3750  148.7820 C   0  0  0  0  0  3  0  0  0  0  0  0
  161.4380  212.4920  145.9490 C   0  0  1  0  0  3  0  0  0  0  0  0
  155.2500  214.2450  146.5270 C   0  0  0  0  0  1  0  0  0  0  0  0
  159.0130  212.5400  146.1520 C   0  0  2  0  0  3  0  0  0  0  0  0
  161.9700  208.4690  150.1030 C   0  0  0  0  0  2  0  0  0  0  0  0
  157.7890  212.8580  152.4310 C   0  0  1  0  0  3  0  0  0  0  0  0
  157.9450  213.7170  154.8550 C   0  0  0  0  0  2  0  0  0  0  0  0
  162.2640  211.0850  151.1800 C   0  0  0  0  0  2  0  0  0  0  0  0
  156.1650  213.8740  150.1870 N   0  0  0  0  0  0  0  0  0  0  0  0
  161.2090  209.7690  153.1860 C   0  0  2  0  0  0  0  0  0  0  0  0
  159.5020  212.6630  144.7570 C   0  0  0  0  0  0  0  0  0  0  0  0
  156.0900  214.4530  147.7730 C   0  0  2  0  0  3  0  0  0  0  0  0
  157.4270  213.5650  150.0930 C   0  0  0  0  0  0  0  0  0  0  0  0
  160.4350  211.9160  148.0560 O   0  0  0  0  0  0  0  0  0  0  0  0
  157.7850  212.2480  155.2160 C   0  0  0  0  0  2  0  0  0  0  0  0
  158.0280  213.5470  146.4130 O   0  0  0  0  0  0  0  0  0  0  0  0
  157.4190  213.7410  147.6640 C   0  0  0  0  0  0  0  0  0  0  0  0
  159.8460  209.5480  152.4960 C   0  0  0  0  0  2  0  0  0  0  0  0
  159.1610  210.7920  151.9080 C   0  0  0  0  0  2  0  0  0  0  0  0
  158.6950  211.3750  154.3530 C   0  0  2  0  0  3  0  0  0  0  0  0
  162.1910  208.5590  155.5970 O   0  0  0  0  0  0  0  0  0  0  0  0
  161.5090  208.3260  154.2690 P   0  0  1  0  0  4  0  0  0  0  0  0
  161.0090  206.6290  153.8530 C   0  0  0  0  0  2  0  0  0  0  0  0
  161.6860  206.1690  152.5680 C   0  0  0  0  0  2  0  0  0  0  0  0
  160.6260  204.0230  151.8780 C   0  0  0  0  0  0  0  0  0  0  0  0
  161.7780  204.5450  149.1890 C   0  0  0  0  0  2  0  0  0  0  0  0
  161.6170  203.1410  149.7710 C   0  0  0  0  0  2  0  0  0  0  0  0
  160.2520  206.1060  150.5240 C   0  0  0  0  0  2  0  0  0  0  0  0
  160.4430  205.2850  149.2410 C   0  0  1  0  0  3  0  0  0  0  0  0
  161.6720  203.1320  151.2970 C   0  0  0  0  0  2  0  0  0  0  0  0
  160.7540  205.4370  151.7220 N   0  0  0  0  0  0  0  0  0  0  0  0
  160.3320  206.1630  148.0920 N   0  0  0  0  0  1  0  0  0  0  0  0
  159.6130  203.5340  152.4420 O   0  0  0  0  0  0  0  0  0  0  0  0
  1 17  1  0  0  0  0
  2 12  1  0  0  0  0
  2 22  1  0  0  0  0
  3 12  1  0  0  0  0
  4 26  1  0  0  0  0
  5 28  1  0  0  0  0
  5 19  1  0  0  0  0
  6 16  1  0  0  0  0
  7  3  2  0  0  0  0
  8 31  1  1  0  0  0
  9 23  1  0  0  0  0
 10 28  2  0  0  0  0
 12 25  1  1  0  0  0
 13 11  1  0  0  0  0
 14 36  1  6  0  0  0
 14 37  1  0  0  0  0
 15 24  1  0  0  0  0
 16  7  1  0  0  0  0
 17 25  1  6  0  0  0
 17 27  1  0  0  0  0
 18 30  1  0  0  0  0
 19  6  1  1  0  0  0
 19  8  1  0  0  0  0
 21 28  1  6  0  0  0
 21 33  1  0  0  0  0
 21  8  1  0  0  0  0
 22  1  1  0  0  0  0
 23 14  1  0  0  0  0
 23 15  1  1  0  0  0
 24 32  1  0  0  0  0
 27 13  1  0  0  0  0
 27 39  1  1  0  0  0
 29 20  1  6  0  0  0
 29  4  1  0  0  0  0
 30 26  2  0  0  0  0
 30  9  1  0  0  0  0
 31  3  1  0  0  0  0
 33 34  1  0  0  0  0
 34 29  1  0  0  0  0
 34 18  2  0  0  0  0
 35 27  1  0  0  0  0
 36 35  1  0  0  0  0
 37 11  1  1  0  0  0
 37 32  1  0  0  0  0
 39 38  2  1  0  0  0
 40 39  1  0  0  0  0
 41 40  1  0  0  0  0
 42 50  2  0  0  0  0
 43 46  1  0  0  0  0
 43 44  1  0  0  0  0
 44 47  1  0  0  0  0
 45 48  1  0  0  0  0
 46 49  1  6  0  0  0
 46 45  1  0  0  0  0
 47 42  1  0  0  0  0
 48 42  1  0  0  0  0
 48 41  1  0  0  0  0
M  END
>  <MODEL>
1

>  <REMARK>
 VINA RESULT:      -3.3      0.000      0.000
  Name = 
  4 active torsions:
  status: ('A' for Active; 'I' for Inactive)
    1  A    between atoms: C_15  and  N_30
    2  A    between atoms: C_15  and  C_34
    3  A    between atoms: C_34  and  P_46
    4  A    between atoms: C_37  and  P_46
                            x       y       z     vdW  Elec       q    Type
                         _______ _______ _______ _____ _____    ______ ____

>  <TORSDO>
F 4

$$$$
=
 OpenBabel11072412063D

 50 57  0  0  1  0  0  0  0  0999 V2000
  162.8960  208.2050  151.0070 C   0  0  0  0  0  2  0  0  0  0  0  0
  162.3930  209.3300  148.9660 O   0  0  0  0  0  0  0  0  0  0  0  0
  161.7230  211.5910  148.6790 C   0  0  0  0  0  0  0  0  0  0  0  0
  155.4900  213.8750  149.3180 C   0  0  0  0  0  2  0  0  0  0  0  0
  160.8060  212.7900  144.6310 O   0  0  0  0  0  0  0  0  0  0  0  0
  162.6820  213.3100  146.1230 C   0  0  0  0  0  2  0  0  0  0  0  0
  162.8300  212.3410  148.4890 C   0  0  0  0  0  3  0  0  0  0  0  0
  160.3560  212.7350  146.9230 C   0  0  1  0  0  3  0  0  0  0  0  0
  158.5170  213.1530  151.3400 O   0  0  0  0  0  0  0  0  0  0  0  0
  158.6360  212.9080  143.8260 O   0  0  0  0  0  0  0  0  0  0  0  0
  160.4670  210.6020  154.9280 C   0  0  0  0  0  2  0  0  0  0  0  0
  161.7770  210.4150  149.6110 C   0  0  2  0  0  3  0  0  0  0  0  0
  161.6090  210.4950  153.8990 C   0  0  0  0  0  2  0  0  0  0  0  0
  159.2230  211.5130  152.9120 C   0  0  2  0  0  3  0  0  0  0  0  0
  157.8610  213.5690  153.6220 C   0  0  0  0  0  2  0  0  0  0  0  0
  162.9260  213.5690  147.6200 C   0  0  0  0  0  2  0  0  0  0  0  0
  162.6010  209.4710  151.8330 C   0  0  1  0  0  3  0  0  0  0  0  0
  158.2020  213.2530  148.9210 C   0  0  0  0  0  3  0  0  0  0  0  0
  161.4250  212.4850  145.8650 C   0  0  1  0  0  3  0  0  0  0  0  0
  155.3160  214.3210  146.8740 C   0  0  0  0  0  1  0  0  0  0  0  0
  159.0150  212.5690  146.1970 C   0  0  2  0  0  3  0  0  0  0  0  0
  162.0740  208.1950  149.7240 C   0  0  0  0  0  2  0  0  0  0  0  0
  158.1200  212.5080  152.5380 C   0  0  1  0  0  3  0  0  0  0  0  0
  158.4180  213.2080  155.0000 C   0  0  0  0  0  2  0  0  0  0  0  0
  162.4830  210.7300  150.9470 C   0  0  0  0  0  2  0  0  0  0  0  0
  156.4080  213.6980  150.4510 N   0  0  0  0  0  0  0  0  0  0  0  0
  161.5010  209.3110  152.9180 C   0  0  2  0  0  0  0  0  0  0  0  0
  159.4350  212.7710  144.7890 C   0  0  0  0  0  0  0  0  0  0  0  0
  156.2240  214.4320  148.0850 C   0  0  2  0  0  3  0  0  0  0  0  0
  157.6550  213.3710  150.2720 C   0  0  0  0  0  0  0  0  0  0  0  0
  160.5170  211.7960  147.9820 O   0  0  0  0  0  0  0  0  0  0  0  0
  158.2430  211.7220  155.2770 C   0  0  0  0  0  2  0  0  0  0  0  0
  158.0690  213.5760  146.5720 O   0  0  0  0  0  0  0  0  0  0  0  0
  157.5280  213.7020  147.8620 C   0  0  0  0  0  0  0  0  0  0  0  0
  160.0990  209.1610  152.2880 C   0  0  0  0  0  2  0  0  0  0  0  0
  159.4150  210.4540  151.8170 C   0  0  0  0  0  2  0  0  0  0  0  0
  159.0880  210.8880  154.3140 C   0  0  2  0  0  3  0  0  0  0  0  0
  161.5810  207.8400  155.3830 O   0  0  0  0  0  0  0  0  0  0  0  0
  161.8220  207.7960  153.8910 P   0  0  1  0  0  4  0  0  0  0  0  0
  162.3880  206.2290  153.1650 C   0  0  0  0  0  2  0  0  0  0  0  0
  161.2480  205.5310  152.4360 C   0  0  0  0  0  2  0  0  0  0  0  0
  161.2090  204.7060  150.0860 C   0  0  0  0  0  0  0  0  0  0  0  0
  160.5160  202.0550  151.2340 C   0  0  0  0  0  2  0  0  0  0  0  0
  159.9860  202.5460  149.8870 C   0  0  0  0  0  2  0  0  0  0  0  0
  162.5500  203.4880  151.8260 C   0  0  0  0  0  2  0  0  0  0  0  0
  162.0390  202.1560  151.2620 C   0  0  1  0  0  3  0  0  0  0  0  0
  159.8860  204.0690  149.8190 C   0  0  0  0  0  2  0  0  0  0  0  0
  161.7580  204.6410  151.4030 N   0  0  0  0  0  0  0  0  0  0  0  0
  162.5810  201.0650  152.0490 N   0  0  0  0  0  1  0  0  0  0  0  0
  161.8600  205.2400  149.1500 O   0  0  0  0  0  0  0  0  0  0  0  0
  1 17  1  0  0  0  0
  2 12  1  0  0  0  0
  2 22  1  0  0  0  0
  3 12  1  0  0  0  0
  4 26  1  0  0  0  0
  5 28  1  0  0  0  0
  5 19  1  0  0  0  0
  6 16  1  0  0  0  0
  7  3  2  0  0  0  0
  8 31  1  1  0  0  0
  9 23  1  0  0  0  0
 10 28  2  0  0  0  0
 12 25  1  1  0  0  0
 13 11  1  0  0  0  0
 14 36  1  6  0  0  0
 14 37  1  0  0  0  0
 15 24  1  0  0  0  0
 16  7  1  0  0  0  0
 17 25  1  6  0  0  0
 17 27  1  0  0  0  0
 18 30  1  0  0  0  0
 19  6  1  1  0  0  0
 19  8  1  0  0  0  0
 21 28  1  6  0  0  0
 21 33  1  0  0  0  0
 21  8  1  0  0  0  0
 22  1  1  0  0  0  0
 23 14  1  0  0  0  0
 23 15  1  1  0  0  0
 24 32  1  0  0  0  0
 27 39  1  1  0  0  0
 27 13  1  0  0  0  0
 29 20  1  6  0  0  0
 29  4  1  0  0  0  0
 30 26  2  0  0  0  0
 30  9  1  0  0  0  0
 31  3  1  0  0  0  0
 33 34  1  0  0  0  0
 34 29  1  0  0  0  0
 34 18  2  0  0  0  0
 35 27  1  0  0  0  0
 36 35  1  0  0  0  0
 37 11  1  1  0  0  0
 37 32  1  0  0  0  0
 39 38  2  6  0  0  0
 40 39  1  0  0  0  0
 41 40  1  0  0  0  0
 42 48  1  0  0  0  0
 43 46  1  0  0  0  0
 44 43  1  0  0  0  0
 46 45  1  0  0  0  0
 46 49  1  1  0  0  0
 47 44  1  0  0  0  0
 47 42  1  0  0  0  0
 48 45  1  0  0  0  0
 48 41  1  0  0  0  0
 50 42  2  0  0  0  0
M  END
>  <MODEL>
2

>  <REMARK>
 VINA RESULT:      -1.2      1.130      1.638
  Name = 
  4 active torsions:
  status: ('A' for Active; 'I' for Inactive)
    1  A    between atoms: C_15  and  N_30
    2  A    between atoms: C_15  and  C_34
    3  A    between atoms: C_34  and  P_46
    4  A    between atoms: C_37  and  P_46
                            x       y       z     vdW  Elec       q    Type
                         _______ _______ _______ _____ _____    ______ ____

>  <TORSDO>
F 4

$$$$
=
 OpenBabel11072412063D

 50 57  0  0  1  0  0  0  0  0999 V2000
  161.8470  205.4860  148.3410 C   0  0  0  0  0  2  0  0  0  0  0  0
  161.4270  207.7050  147.5730 O   0  0  0  0  0  0  0  0  0  0  0  0
  161.8880  209.7440  148.6990 C   0  0  0  0  0  0  0  0  0  0  0  0
  157.9800  212.5800  153.2990 C   0  0  0  0  0  2  0  0  0  0  0  0
  160.6210  213.3450  146.6770 O   0  0  0  0  0  0  0  0  0  0  0  0
  162.8350  212.3710  147.0820 C   0  0  0  0  0  2  0  0  0  0  0  0
  163.1220  210.1580  148.3380 C   0  0  0  0  0  3  0  0  0  0  0  0
  160.8340  212.0110  148.5830 C   0  0  1  0  0  3  0  0  0  0  0  0
  160.6910  210.0670  152.9730 O   0  0  0  0  0  0  0  0  0  0  0  0
  158.6550  214.4520  147.2130 O   0  0  0  0  0  0  0  0  0  0  0  0
  162.0400  205.4790  153.5350 C   0  0  0  0  0  2  0  0  0  0  0  0
  161.6130  208.2760  148.8430 C   0  0  2  0  0  3  0  0  0  0  0  0
  162.6630  205.7520  152.1520 C   0  0  0  0  0  2  0  0  0  0  0  0
  160.9060  207.7000  153.0610 C   0  0  2  0  0  3  0  0  0  0  0  0
  160.9590  209.1430  155.1820 C   0  0  0  0  0  2  0  0  0  0  0  0
  163.5650  211.5920  148.1890 C   0  0  0  0  0  2  0  0  0  0  0  0
  162.4370  206.0050  149.6650 C   0  0  1  0  0  3  0  0  0  0  0  0
  159.8290  211.6990  151.3740 C   0  0  0  0  0  3  0  0  0  0  0  0
  161.3190  212.2120  147.1510 C   0  0  1  0  0  3  0  0  0  0  0  0
  157.3950  214.4530  151.7650 C   0  0  0  0  0  1  0  0  0  0  0  0
  159.4430  212.6540  148.6370 C   0  0  2  0  0  3  0  0  0  0  0  0
  160.8140  206.4630  147.7920 C   0  0  0  0  0  2  0  0  0  0  0  0
  160.3690  208.9440  153.7750 C   0  0  1  0  0  3  0  0  0  0  0  0
  161.6180  207.8930  155.7690 C   0  0  0  0  0  2  0  0  0  0  0  0
  162.7120  207.5250  149.6250 C   0  0  0  0  0  2  0  0  0  0  0  0
  158.9610  211.5320  153.6050 N   0  0  0  0  0  0  0  0  0  0  0  0
  161.7350  205.4870  150.9500 C   0  0  2  0  0  0  0  0  0  0  0  0
  159.5120  213.5670  147.4700 C   0  0  0  0  0  0  0  0  0  0  0  0
  158.5290  213.5760  152.2630 C   0  0  2  0  0  3  0  0  0  0  0  0
  159.7930  211.0940  152.7040 C   0  0  0  0  0  0  0  0  0  0  0  0
  160.7970  210.6170  148.8730 O   0  0  0  0  0  0  0  0  0  0  0  0
  160.8250  206.6470  155.4020 C   0  0  0  0  0  2  0  0  0  0  0  0
  159.2440  213.4120  149.8360 O   0  0  0  0  0  0  0  0  0  0  0  0
  159.2010  212.8470  151.1220 C   0  0  0  0  0  0  0  0  0  0  0  0
  160.3270  206.0980  151.1140 C   0  0  0  0  0  2  0  0  0  0  0  0
  160.2580  207.5260  151.6790 C   0  0  0  0  0  2  0  0  0  0  0  0
  160.8660  206.4040  153.8930 C   0  0  2  0  0  3  0  0  0  0  0  0
  160.8590  202.9590  151.9920 O   0  0  0  0  0  0  0  0  0  0  0  0
  161.5280  203.6730  150.8400 P   0  0  1  0  0  4  0  0  0  0  0  0
  162.0570  202.6800  149.4130 C   0  0  0  0  0  2  0  0  0  0  0  0
  160.9300  202.5580  148.3960 C   0  0  0  0  0  2  0  0  0  0  0  0
  161.4090  203.0940  146.0100 C   0  0  0  0  0  0  0  0  0  0  0  0
  159.5850  200.8450  145.3430 C   0  0  0  0  0  2  0  0  0  0  0  0
  159.7090  202.1040  144.4840 C   0  0  0  0  0  2  0  0  0  0  0  0
  161.6530  200.7380  146.8460 C   0  0  0  0  0  2  0  0  0  0  0  0
  160.9650  200.2340  145.5690 C   0  0  1  0  0  3  0  0  0  0  0  0
  160.1180  203.3290  145.3000 C   0  0  0  0  0  2  0  0  0  0  0  0
  161.4460  202.1630  147.0930 N   0  0  0  0  0  0  0  0  0  0  0  0
  160.8490  198.7880  145.6290 N   0  0  0  0  0  1  0  0  0  0  0  0
  162.4630  203.6620  145.6230 O   0  0  0  0  0  0  0  0  0  0  0  0
  2 22  1  0  0  0  0
  2 12  1  0  0  0  0
  3 12  1  0  0  0  0
  3 31  1  0  0  0  0
  4 26  1  0  0  0  0
  5 19  1  0  0  0  0
  5 28  1  0  0  0  0
  6 16  1  0  0  0  0
  7  3  2  0  0  0  0
  8 21  1  0  0  0  0
  8 31  1  6  0  0  0
  9 23  1  0  0  0  0
 10 28  2  0  0  0  0
 12 25  1  6  0  0  0
 13 11  1  0  0  0  0
 14 36  1  6  0  0  0
 14 23  1  0  0  0  0
 14 37  1  0  0  0  0
 15 24  1  0  0  0  0
 16  7  1  0  0  0  0
 17  1  1  6  0  0  0
 17 27  1  0  0  0  0
 18 30  1  0  0  0  0
 19  6  1  1  0  0  0
 19  8  1  0  0  0  0
 21 28  1  6  0  0  0
 21 33  1  0  0  0  0
 22  1  1  0  0  0  0
 23 15  1  1  0  0  0
 25 17  1  0  0  0  0
 27 39  1  6  0  0  0
 27 35  1  0  0  0  0
 27 13  1  0  0  0  0
 29 20  1  6  0  0  0
 29  4  1  0  0  0  0
 30  9  1  0  0  0  0
 30 26  2  0  0  0  0
 32 24  1  0  0  0  0
 33 34  1  0  0  0  0
 34 18  2  0  0  0  0
 34 29  1  0  0  0  0
 35 36  1  0  0  0  0
 37 11  1  1  0  0  0
 37 32  1  0  0  0  0
 39 38  2  6  0  0  0
 40 39  1  0  0  0  0
 41 40  1  0  0  0  0
 42 48  1  0  0  0  0
 43 46  1  0  0  0  0
 44 47  1  0  0  0  0
 44 43  1  0  0  0  0
 45 48  1  0  0  0  0
 46 49  1  1  0  0  0
 46 45  1  0  0  0  0
 47 42  1  0  0  0  0
 48 41  1  0  0  0  0
 50 42  2  0  0  0  0
M  END
>  <MODEL>
3

>  <REMARK>
 VINA RESULT:      -0.4      2.897      4.849
  Name = 
  4 active torsions:
  status: ('A' for Active; 'I' for Inactive)
    1  A    between atoms: C_15  and  N_30
    2  A    between atoms: C_15  and  C_34
    3  A    between atoms: C_34  and  P_46
    4  A    between atoms: C_37  and  P_46
                            x       y       z     vdW  Elec       q    Type
                         _______ _______ _______ _____ _____    ______ ____

>  <TORSDO>
F 4

$$$$
