=
 OpenBabel11072413453D

 29 33  0  0  1  0  0  0  0  0999 V2000
  161.8350  208.9580  148.2630 N   0  0  0  0  0  2  0  0  0  0  0  0
  160.7590  202.6310  148.6890 C   0  0  1  0  0  3  0  0  0  0  0  0
  160.5620  203.6030  149.8550 C   0  0  0  0  0  2  0  0  0  0  0  0
  161.0570  208.0330  152.3550 C   0  0  0  0  0  3  0  0  0  0  0  0
  162.0870  209.9420  149.2680 C   0  0  0  0  0  0  0  0  0  0  0  0
  160.8320  205.2960  147.8990 C   0  0  2  0  0  3  0  0  0  0  0  0
  160.7780  207.4550  149.8970 C   0  0  1  0  0  3  0  0  0  0  0  0
  160.6580  206.0080  150.3000 C   0  0  0  0  0  3  0  0  0  0  0  0
  162.2760  210.4620  151.7090 C   0  0  0  0  0  3  0  0  0  0  0  0
  162.0660  210.1200  153.0460 C   0  0  0  0  0  3  0  0  0  0  0  0
  162.4560  211.1000  148.9360 O   0  0  0  0  0  0  0  0  0  0  0  0
  161.9840  204.4500  147.3480 C   0  0  0  0  0  2  0  0  0  0  0  0
  161.0100  206.7750  147.5220 C   0  0  0  0  0  2  0  0  0  0  0  0
  161.4570  208.9070  153.3760 C   0  0  0  0  0  0  0  0  0  0  0  0
  161.2860  208.3510  151.0080 C   0  0  0  0  0  0  0  0  0  0  0  0
  161.6620  207.5630  148.6490 C   0  0  1  0  0  3  0  0  0  0  0  0
  161.8850  209.5880  150.6870 C   0  0  0  0  0  0  0  0  0  0  0  0
  160.6320  205.0270  149.3850 C   0  0  0  0  0  0  0  0  0  0  0  0
  162.0110  203.0060  147.8860 C   0  0  0  0  0  2  0  0  0  0  0  0
  161.5900  200.3270  148.2270 C   0  0  0  0  0  1  0  0  0  0  0  0
  160.8760  201.2160  149.2270 C   0  0  0  0  0  2  0  0  0  0  0  0
  161.2390  208.5700  154.8220 C   0  0  2  0  0  3  0  0  0  0  0  0
  160.9860  206.0050  154.1330 C   0  0  0  0  0  1  0  0  0  0  0  0
  160.6410  207.1800  155.0320 C   0  0  1  0  0  0  0  0  0  0  0  0
  160.5930  206.8140  156.3870 O   0  0  0  0  0  0  0  0  0  0  0  0
  159.3610  207.1040  155.7600 C   0  0  0  0  0  2  0  0  0  0  0  0
  160.4910  209.6440  155.5610 C   0  0  0  0  0  0  0  0  0  0  0  0
  159.4290  210.0720  155.1390 O   0  0  0  0  0  0  0  0  0  0  0  0
  161.0620  210.2010  156.8190 C   0  0  0  0  0  1  0  0  0  0  0  0
  1 16  1  0  0  0  0
  1  5  1  0  0  0  0
  2 21  1  1  0  0  0
  2  3  1  0  0  0  0
  4 14  1  0  0  0  0
  5 17  1  0  0  0  0
  6 12  1  1  0  0  0
  6 18  1  0  0  0  0
  7  8  1  1  0  0  0
  7 15  1  0  0  0  0
  9 10  1  0  0  0  0
 10 14  2  0  0  0  0
 11  5  2  0  0  0  0
 12 19  1  0  0  0  0
 13  6  1  0  0  0  0
 14 22  1  0  0  0  0
 15  4  2  0  0  0  0
 16 13  1  6  0  0  0
 16  7  1  0  0  0  0
 17 15  1  0  0  0  0
 17  9  2  0  0  0  0
 18  3  1  0  0  0  0
 18  8  2  0  0  0  0
 19  2  1  0  0  0  0
 20 21  1  0  0  0  0
 22 24  1  0  0  0  0
 22 27  1  6  0  0  0
 24 23  1  6  0  0  0
 24 26  1  0  0  0  0
 24 25  1  0  0  0  0
 26 25  1  0  0  0  0
 27 29  1  0  0  0  0
 28 27  2  0  0  0  0
M  END
>  <MODEL>
1

>  <REMARK>
 VINA RESULT:      -9.0      0.000      0.000
  Name = 
  4 active torsions:
  status: ('A' for Active; 'I' for Inactive)
    1  A    between atoms: C_2  and  C_16
    2  A    between atoms: C_5  and  C_20
    3  A    between atoms: C_18  and  C_20
    4  A    between atoms: C_20  and  C_24
                            x       y       z     vdW  Elec       q    Type
                         _______ _______ _______ _____ _____    ______ ____

>  <TORSDO>
F 4

$$$$
=
 OpenBabel11072413453D

 29 33  0  0  1  0  0  0  0  0999 V2000
  161.2120  206.7350  154.8910 N   0  0  0  0  0  2  0  0  0  0  0  0
  161.4240  206.3300  148.4740 C   0  0  1  0  0  3  0  0  0  0  0  0
  161.1510  207.6310  149.2310 C   0  0  0  0  0  2  0  0  0  0  0  0
  159.9560  210.4880  153.2970 C   0  0  0  0  0  3  0  0  0  0  0  0
  160.6160  207.7040  155.7560 C   0  0  0  0  0  0  0  0  0  0  0  0
  161.9500  206.1280  151.1980 C   0  0  2  0  0  3  0  0  0  0  0  0
  161.2730  208.3340  153.0230 C   0  0  1  0  0  3  0  0  0  0  0  0
  161.0710  208.4550  151.5350 C   0  0  0  0  0  3  0  0  0  0  0  0
  159.3810  209.8700  155.9610 C   0  0  0  0  0  3  0  0  0  0  0  0
  158.9280  211.0700  155.4080 C   0  0  0  0  0  3  0  0  0  0  0  0
  160.5420  207.4800  156.9930 O   0  0  0  0  0  0  0  0  0  0  0  0
  161.1080  204.9770  150.6390 C   0  0  0  0  0  2  0  0  0  0  0  0
  162.0930  206.0110  152.7230 C   0  0  0  0  0  2  0  0  0  0  0  0
  159.2120  211.3850  154.0770 C   0  0  0  0  0  0  0  0  0  0  0  0
  160.3950  209.2670  153.8300 C   0  0  0  0  0  0  0  0  0  0  0  0
  161.0700  206.8750  153.4470 C   0  0  1  0  0  3  0  0  0  0  0  0
  160.1180  208.9690  155.1820 C   0  0  0  0  0  0  0  0  0  0  0  0
  161.4270  207.4680  150.6980 C   0  0  0  0  0  0  0  0  0  0  0  0
  160.7140  205.1540  149.1590 C   0  0  0  0  0  2  0  0  0  0  0  0
  161.8320  205.6580  146.1090 C   0  0  0  0  0  1  0  0  0  0  0  0
  160.9530  206.4730  147.0390 C   0  0  0  0  0  2  0  0  0  0  0  0
  158.7160  212.6850  153.5140 C   0  0  2  0  0  3  0  0  0  0  0  0
  156.2540  212.0460  154.3190 C   0  0  0  0  0  1  0  0  0  0  0  0
  157.3330  213.0760  154.0320 C   0  0  1  0  0  0  0  0  0  0  0  0
  157.3900  214.0720  155.0200 O   0  0  0  0  0  0  0  0  0  0  0  0
  156.8800  214.4520  153.7600 C   0  0  0  0  0  2  0  0  0  0  0  0
  158.8160  212.7430  152.0160 C   0  0  0  0  0  0  0  0  0  0  0  0
  157.9410  212.2630  151.3110 O   0  0  0  0  0  0  0  0  0  0  0  0
  160.0020  213.3830  151.3840 C   0  0  0  0  0  1  0  0  0  0  0  0
  1  5  1  0  0  0  0
  2 21  1  6  0  0  0
  2 19  1  0  0  0  0
  2  3  1  0  0  0  0
  3 18  1  0  0  0  0
  4 15  2  0  0  0  0
  4 14  1  0  0  0  0
  5 11  2  0  0  0  0
  6 12  1  1  0  0  0
  6 13  1  0  0  0  0
  7  8  1  6  0  0  0
  7 16  1  0  0  0  0
  7 15  1  0  0  0  0
 10  9  1  0  0  0  0
 14 10  2  0  0  0  0
 15 17  1  0  0  0  0
 16 13  1  6  0  0  0
 16  1  1  0  0  0  0
 17  5  1  0  0  0  0
 17  9  2  0  0  0  0
 18  6  1  0  0  0  0
 18  8  2  0  0  0  0
 19 12  1  0  0  0  0
 20 21  1  0  0  0  0
 22 27  1  6  0  0  0
 22 24  1  0  0  0  0
 22 14  1  0  0  0  0
 24 23  1  1  0  0  0
 24 25  1  0  0  0  0
 26 24  1  0  0  0  0
 26 25  1  0  0  0  0
 28 27  2  0  0  0  0
 29 27  1  0  0  0  0
M  END
>  <MODEL>
2

>  <REMARK>
 VINA RESULT:      -8.7      3.018      5.357
  Name = 
  4 active torsions:
  status: ('A' for Active; 'I' for Inactive)
    1  A    between atoms: C_2  and  C_16
    2  A    between atoms: C_5  and  C_20
    3  A    between atoms: C_18  and  C_20
    4  A    between atoms: C_20  and  C_24
                            x       y       z     vdW  Elec       q    Type
                         _______ _______ _______ _____ _____    ______ ____

>  <TORSDO>
F 4

$$$$
=
 OpenBabel11072413453D

 29 33  0  0  1  0  0  0  0  0999 V2000
  161.1370  207.1980  155.1960 N   0  0  0  0  0  2  0  0  0  0  0  0
  161.4030  206.0000  148.8820 C   0  0  1  0  0  3  0  0  0  0  0  0
  161.0070  207.3560  149.4700 C   0  0  0  0  0  2  0  0  0  0  0  0
  159.5380  210.5840  153.1510 C   0  0  0  0  0  3  0  0  0  0  0  0
  160.4500  208.2090  155.9370 C   0  0  0  0  0  0  0  0  0  0  0  0
  161.9380  206.1970  151.6040 C   0  0  2  0  0  3  0  0  0  0  0  0
  161.0520  208.5440  153.1400 C   0  0  1  0  0  3  0  0  0  0  0  0
  160.8440  208.4560  151.6510 C   0  0  0  0  0  3  0  0  0  0  0  0
  159.0160  210.2590  155.8760 C   0  0  0  0  0  3  0  0  0  0  0  0
  158.4540  211.3300  155.1800 C   0  0  0  0  0  3  0  0  0  0  0  0
  160.3940  208.1380  157.1940 O   0  0  0  0  0  0  0  0  0  0  0  0
  161.2090  204.9110  151.2030 C   0  0  0  0  0  2  0  0  0  0  0  0
  162.0870  206.2890  153.1300 C   0  0  0  0  0  2  0  0  0  0  0  0
  158.7110  211.4990  153.8180 C   0  0  0  0  0  0  0  0  0  0  0  0
  160.0880  209.4870  153.8300 C   0  0  0  0  0  0  0  0  0  0  0  0
  160.9850  207.1390  153.7480 C   0  0  1  0  0  3  0  0  0  0  0  0
  159.8360  209.3380  155.2120 C   0  0  0  0  0  0  0  0  0  0  0  0
  161.2920  207.4080  150.9430 C   0  0  0  0  0  0  0  0  0  0  0  0
  160.8040  204.8610  149.7170 C   0  0  0  0  0  2  0  0  0  0  0  0
  161.5830  204.7470  146.7350 C   0  0  0  0  0  1  0  0  0  0  0  0
  160.9240  205.9150  147.4440 C   0  0  0  0  0  2  0  0  0  0  0  0
  158.0970  212.6640  153.0990 C   0  0  2  0  0  3  0  0  0  0  0  0
  160.2840  212.7150  151.5700 C   0  0  0  0  0  1  0  0  0  0  0  0
  158.8100  213.0070  151.7900 C   0  0  1  0  0  0  0  0  0  0  0  0
  158.0350  212.7020  150.6600 O   0  0  0  0  0  0  0  0  0  0  0  0
  158.2140  214.0700  150.9620 C   0  0  0  0  0  2  0  0  0  0  0  0
  157.9060  213.8600  153.9890 C   0  0  0  0  0  0  0  0  0  0  0  0
  158.8660  214.4530  154.4560 O   0  0  0  0  0  0  0  0  0  0  0  0
  156.5270  214.3180  154.3150 C   0  0  0  0  0  1  0  0  0  0  0  0
  1  5  1  0  0  0  0
  2 21  1  6  0  0  0
  2  3  1  0  0  0  0
  2 19  1  0  0  0  0
  3 18  1  0  0  0  0
  4 14  2  0  0  0  0
  4 15  1  0  0  0  0
  5 11  2  0  0  0  0
  6 12  1  1  0  0  0
  6 13  1  0  0  0  0
  7  8  1  6  0  0  0
  7 16  1  0  0  0  0
  7 15  1  0  0  0  0
 10  9  2  0  0  0  0
 14 10  1  0  0  0  0
 15 17  2  0  0  0  0
 16 13  1  6  0  0  0
 16  1  1  0  0  0  0
 17  9  1  0  0  0  0
 17  5  1  0  0  0  0
 18  6  1  0  0  0  0
 18  8  2  0  0  0  0
 19 12  1  0  0  0  0
 20 21  1  0  0  0  0
 22 14  1  0  0  0  0
 22 27  1  1  0  0  0
 24 23  1  6  0  0  0
 24 22  1  0  0  0  0
 25 26  1  0  0  0  0
 25 24  1  0  0  0  0
 26 24  1  0  0  0  0
 27 29  1  0  0  0  0
 27 28  2  0  0  0  0
M  END
>  <MODEL>
3

>  <REMARK>
 VINA RESULT:      -8.5      3.159      5.437
  Name = 
  4 active torsions:
  status: ('A' for Active; 'I' for Inactive)
    1  A    between atoms: C_2  and  C_16
    2  A    between atoms: C_5  and  C_20
    3  A    between atoms: C_18  and  C_20
    4  A    between atoms: C_20  and  C_24
                            x       y       z     vdW  Elec       q    Type
                         _______ _______ _______ _____ _____    ______ ____

>  <TORSDO>
F 4

$$$$
=
 OpenBabel11072413453D

 29 33  0  0  1  0  0  0  0  0999 V2000
  160.9290  207.7370  154.8800 N   0  0  0  0  0  2  0  0  0  0  0  0
  161.5420  205.3550  148.9360 C   0  0  1  0  0  3  0  0  0  0  0  0
  161.4300  206.8500  149.2400 C   0  0  0  0  0  2  0  0  0  0  0  0
  160.4220  210.9510  152.1200 C   0  0  0  0  0  3  0  0  0  0  0  0
  160.4370  208.9940  155.3460 C   0  0  0  0  0  0  0  0  0  0  0  0
  161.8270  205.9320  151.6410 C   0  0  2  0  0  3  0  0  0  0  0  0
  161.3870  208.6610  152.6470 C   0  0  1  0  0  3  0  0  0  0  0  0
  161.3170  208.3450  151.1760 C   0  0  0  0  0  3  0  0  0  0  0  0
  159.5600  211.2630  154.7590 C   0  0  0  0  0  3  0  0  0  0  0  0
  159.3500  212.2840  153.8300 C   0  0  0  0  0  3  0  0  0  0  0  0
  160.2370  209.1730  156.5770 O   0  0  0  0  0  0  0  0  0  0  0  0
  160.8520  204.7870  151.3470 C   0  0  0  0  0  2  0  0  0  0  0  0
  161.8360  206.2710  153.1400 C   0  0  0  0  0  2  0  0  0  0  0  0
  159.7790  212.1350  152.5090 C   0  0  0  0  0  0  0  0  0  0  0  0
  160.6160  209.9060  153.0350 C   0  0  0  0  0  0  0  0  0  0  0  0
  160.9170  207.4440  153.4520 C   0  0  1  0  0  3  0  0  0  0  0  0
  160.1950  210.0760  154.3720 C   0  0  0  0  0  0  0  0  0  0  0  0
  161.5670  207.1100  150.7130 C   0  0  0  0  0  0  0  0  0  0  0  0
  160.6010  204.5520  149.8440 C   0  0  0  0  0  2  0  0  0  0  0  0
  161.5690  203.6930  147.0780 C   0  0  0  0  0  1  0  0  0  0  0  0
  161.2060  205.1110  147.4750 C   0  0  0  0  0  2  0  0  0  0  0  0
  159.5450  213.2520  151.5350 C   0  0  2  0  0  3  0  0  0  0  0  0
  157.5630  212.9780  149.7700 C   0  0  0  0  0  1  0  0  0  0  0  0
  158.0780  213.4030  151.1340 C   0  0  1  0  0  0  0  0  0  0  0  0
  157.1980  213.0430  152.1670 O   0  0  0  0  0  0  0  0  0  0  0  0
  157.2870  214.4160  151.8540 C   0  0  0  0  0  2  0  0  0  0  0  0
  160.4700  213.1940  150.3520 C   0  0  0  0  0  0  0  0  0  0  0  0
  160.9310  212.1310  149.9700 O   0  0  0  0  0  0  0  0  0  0  0  0
  160.8370  214.4530  149.6470 C   0  0  0  0  0  1  0  0  0  0  0  0
  1  5  1  0  0  0  0
  2 21  1  6  0  0  0
  2  3  1  0  0  0  0
  2 19  1  0  0  0  0
  3 18  1  0  0  0  0
  4 14  2  0  0  0  0
  4 15  1  0  0  0  0
  5 11  2  0  0  0  0
  6 12  1  1  0  0  0
  6 13  1  0  0  0  0
  7  8  1  6  0  0  0
  7 15  1  0  0  0  0
  7 16  1  0  0  0  0
 10  9  2  0  0  0  0
 14 10  1  0  0  0  0
 15 17  2  0  0  0  0
 16 13  1  1  0  0  0
 16  1  1  0  0  0  0
 17  9  1  0  0  0  0
 17  5  1  0  0  0  0
 18  8  2  0  0  0  0
 18  6  1  0  0  0  0
 19 12  1  0  0  0  0
 20 21  1  0  0  0  0
 22 27  1  6  0  0  0
 22 14  1  0  0  0  0
 24 23  1  6  0  0  0
 24 22  1  0  0  0  0
 24 26  1  0  0  0  0
 24 25  1  0  0  0  0
 26 25  1  0  0  0  0
 28 27  2  0  0  0  0
 29 27  1  0  0  0  0
M  END
>  <MODEL>
4

>  <REMARK>
 VINA RESULT:      -8.3      3.059      5.447
  Name = 
  4 active torsions:
  status: ('A' for Active; 'I' for Inactive)
    1  A    between atoms: C_2  and  C_16
    2  A    between atoms: C_5  and  C_20
    3  A    between atoms: C_18  and  C_20
    4  A    between atoms: C_20  and  C_24
                            x       y       z     vdW  Elec       q    Type
                         _______ _______ _______ _____ _____    ______ ____

>  <TORSDO>
F 4

$$$$
=
 OpenBabel11072413453D

 29 33  0  0  1  0  0  0  0  0999 V2000
  160.9480  208.6750  153.2260 N   0  0  0  0  0  2  0  0  0  0  0  0
  162.0170  204.9710  148.0770 C   0  0  1  0  0  3  0  0  0  0  0  0
  162.0920  206.4990  148.0500 C   0  0  0  0  0  2  0  0  0  0  0  0
  161.3270  211.2290  149.8290 C   0  0  0  0  0  3  0  0  0  0  0  0
  160.5930  210.0550  153.3390 C   0  0  0  0  0  0  0  0  0  0  0  0
  162.0050  206.0990  150.6180 C   0  0  2  0  0  3  0  0  0  0  0  0
  161.8490  209.0170  150.9630 C   0  0  1  0  0  3  0  0  0  0  0  0
  161.9380  208.3910  149.5960 C   0  0  0  0  0  3  0  0  0  0  0  0
  160.1630  212.2230  152.1660 C   0  0  0  0  0  3  0  0  0  0  0  0
  160.2430  213.0280  151.0290 C   0  0  0  0  0  3  0  0  0  0  0  0
  160.2520  210.5260  154.4560 O   0  0  0  0  0  0  0  0  0  0  0  0
  160.9180  205.0430  150.4000 C   0  0  0  0  0  2  0  0  0  0  0  0
  161.8560  206.7610  151.9970 C   0  0  0  0  0  2  0  0  0  0  0  0
  160.8240  212.5380  149.8570 C   0  0  0  0  0  0  0  0  0  0  0  0
  161.2300  210.3990  150.9560 C   0  0  0  0  0  0  0  0  0  0  0  0
  161.0920  208.0740  151.9060 C   0  0  1  0  0  3  0  0  0  0  0  0
  160.6570  210.9130  152.1400 C   0  0  0  0  0  0  0  0  0  0  0  0
  162.0600  207.0630  149.4410 C   0  0  0  0  0  0  0  0  0  0  0  0
  160.8470  204.5090  148.9560 C   0  0  0  0  0  2  0  0  0  0  0  0
  163.1390  204.6470  145.8750 C   0  0  0  0  0  1  0  0  0  0  0  0
  161.8560  204.4500  146.6600 C   0  0  0  0  0  2  0  0  0  0  0  0
  160.9020  213.4300  148.6520 C   0  0  2  0  0  3  0  0  0  0  0  0
  159.9380  212.3100  146.4300 C   0  0  0  0  0  1  0  0  0  0  0  0
  159.7680  213.1920  147.6550 C   0  0  1  0  0  0  0  0  0  0  0  0
  158.5300  212.9910  148.2850 O   0  0  0  0  0  0  0  0  0  0  0  0
  158.7040  214.2100  147.5950 C   0  0  0  0  0  2  0  0  0  0  0  0
  162.2590  213.4160  148.0070 C   0  0  0  0  0  0  0  0  0  0  0  0
  162.7480  214.4410  147.5570 O   0  0  0  0  0  0  0  0  0  0  0  0
  163.0090  212.1340  147.9040 C   0  0  0  0  0  1  0  0  0  0  0  0
  1  5  1  0  0  0  0
  2 21  1  6  0  0  0
  2 19  1  0  0  0  0
  3  2  1  0  0  0  0
  3 18  1  0  0  0  0
  4 14  2  0  0  0  0
  4 15  1  0  0  0  0
  5 11  2  0  0  0  0
  6 12  1  6  0  0  0
  6 13  1  0  0  0  0
  7  8  1  6  0  0  0
  7 16  1  0  0  0  0
 10  9  2  0  0  0  0
 14 10  1  0  0  0  0
 15  7  1  0  0  0  0
 15 17  2  0  0  0  0
 16 13  1  1  0  0  0
 16  1  1  0  0  0  0
 17  9  1  0  0  0  0
 17  5  1  0  0  0  0
 18  8  2  0  0  0  0
 18  6  1  0  0  0  0
 19 12  1  0  0  0  0
 20 21  1  0  0  0  0
 22 27  1  6  0  0  0
 22 14  1  0  0  0  0
 24 23  1  6  0  0  0
 24 25  1  0  0  0  0
 24 22  1  0  0  0  0
 26 24  1  0  0  0  0
 26 25  1  0  0  0  0
 28 27  2  0  0  0  0
 29 27  1  0  0  0  0
M  END
>  <MODEL>
5

>  <REMARK>
 VINA RESULT:      -8.2      2.727      5.946
  Name = 
  4 active torsions:
  status: ('A' for Active; 'I' for Inactive)
    1  A    between atoms: C_2  and  C_16
    2  A    between atoms: C_5  and  C_20
    3  A    between atoms: C_18  and  C_20
    4  A    between atoms: C_20  and  C_24
                            x       y       z     vdW  Elec       q    Type
                         _______ _______ _______ _____ _____    ______ ____

>  <TORSDO>
F 4

$$$$
=
 OpenBabel11072413453D

 29 33  0  0  1  0  0  0  0  0999 V2000
  160.7950  204.7860  152.2000 N   0  0  0  0  0  2  0  0  0  0  0  0
  162.0270  210.6170  149.7810 C   0  0  1  0  0  3  0  0  0  0  0  0
  161.7190  209.3920  148.9180 C   0  0  0  0  0  2  0  0  0  0  0  0
  161.1070  204.4080  147.9620 C   0  0  0  0  0  3  0  0  0  0  0  0
  160.8690  203.4860  151.6130 C   0  0  0  0  0  0  0  0  0  0  0  0
  161.0500  208.4740  151.2580 C   0  0  2  0  0  3  0  0  0  0  0  0
  160.6160  205.8540  149.9920 C   0  0  1  0  0  3  0  0  0  0  0  0
  161.0670  207.0480  149.1920 C   0  0  0  0  0  3  0  0  0  0  0  0
  161.2940  202.1220  149.5580 C   0  0  0  0  0  3  0  0  0  0  0  0
  161.4500  202.0230  148.1740 C   0  0  0  0  0  3  0  0  0  0  0  0
  160.7560  202.4610  152.3370 O   0  0  0  0  0  0  0  0  0  0  0  0
  162.3050  209.1200  151.8520 C   0  0  0  0  0  2  0  0  0  0  0  0
  160.6450  207.2270  152.0590 C   0  0  0  0  0  2  0  0  0  0  0  0
  161.3580  203.1620  147.3700 C   0  0  0  0  0  0  0  0  0  0  0  0
  160.9740  204.5280  149.3530 C   0  0  0  0  0  0  0  0  0  0  0  0
  161.1760  205.9530  151.4150 C   0  0  1  0  0  3  0  0  0  0  0  0
  161.0510  203.3670  150.1530 C   0  0  0  0  0  0  0  0  0  0  0  0
  161.2170  208.2540  149.7600 C   0  0  0  0  0  0  0  0  0  0  0  0
  162.9160  210.2250  150.9680 C   0  0  0  0  0  2  0  0  0  0  0  0
  161.7780  212.1560  147.8360 C   0  0  0  0  0  1  0  0  0  0  0  0
  162.7110  211.6730  148.9300 C   0  0  0  0  0  2  0  0  0  0  0  0
  161.5240  203.0220  145.8850 C   0  0  2  0  0  3  0  0  0  0  0  0
  161.1530  205.1940  144.3810 C   0  0  0  0  0  1  0  0  0  0  0  0
  162.0460  204.2930  145.2160 C   0  0  1  0  0  0  0  0  0  0  0  0
  162.9060  205.0250  146.0500 O   0  0  0  0  0  0  0  0  0  0  0  0
  163.4940  204.3640  144.9500 C   0  0  0  0  0  2  0  0  0  0  0  0
  160.2980  202.4700  145.2140 C   0  0  0  0  0  0  0  0  0  0  0  0
  159.4750  203.2150  144.7040 O   0  0  0  0  0  0  0  0  0  0  0  0
  160.0800  200.9980  145.1810 C   0  0  0  0  0  1  0  0  0  0  0  0
  2 21  1  6  0  0  0
  2 19  1  0  0  0  0
  3 18  1  0  0  0  0
  3  2  1  0  0  0  0
  4 15  1  0  0  0  0
  5  1  1  0  0  0  0
  5 11  2  0  0  0  0
  6 12  1  1  0  0  0
  6 13  1  0  0  0  0
  7  8  1  6  0  0  0
  7 16  1  0  0  0  0
  8 18  2  0  0  0  0
  9 17  1  0  0  0  0
 10  9  2  0  0  0  0
 14  4  2  0  0  0  0
 14 10  1  0  0  0  0
 15  7  1  0  0  0  0
 15 17  2  0  0  0  0
 16 13  1  1  0  0  0
 16  1  1  0  0  0  0
 17  5  1  0  0  0  0
 18  6  1  0  0  0  0
 19 12  1  0  0  0  0
 20 21  1  0  0  0  0
 22 27  1  6  0  0  0
 22 14  1  0  0  0  0
 24 23  1  6  0  0  0
 24 22  1  0  0  0  0
 24 25  1  0  0  0  0
 26 24  1  0  0  0  0
 26 25  1  0  0  0  0
 28 27  2  0  0  0  0
 29 27  1  0  0  0  0
M  END
>  <MODEL>
6

>  <REMARK>
 VINA RESULT:      -8.0      3.162      8.569
  Name = 
  4 active torsions:
  status: ('A' for Active; 'I' for Inactive)
    1  A    between atoms: C_2  and  C_16
    2  A    between atoms: C_5  and  C_20
    3  A    between atoms: C_18  and  C_20
    4  A    between atoms: C_20  and  C_24
                            x       y       z     vdW  Elec       q    Type
                         _______ _______ _______ _____ _____    ______ ____

>  <TORSDO>
F 4

$$$$
=
 OpenBabel11072413453D

 29 33  0  0  1  0  0  0  0  0999 V2000
  162.0130  210.3420  150.0420 N   0  0  0  0  0  2  0  0  0  0  0  0
  160.5880  208.7700  156.1140 C   0  0  1  0  0  3  0  0  0  0  0  0
  160.8290  207.7410  155.0080 C   0  0  0  0  0  2  0  0  0  0  0  0
  161.3690  206.1270  150.1880 C   0  0  0  0  0  3  0  0  0  0  0  0
  161.8950  209.6050  148.8230 C   0  0  0  0  0  0  0  0  0  0  0  0
  161.6810  209.8880  153.8140 C   0  0  2  0  0  3  0  0  0  0  0  0
  162.0170  208.2770  151.3760 C   0  0  1  0  0  3  0  0  0  0  0  0
  161.5020  207.6690  152.6550 C   0  0  0  0  0  3  0  0  0  0  0  0
  161.3110  207.4360  147.7200 C   0  0  0  0  0  3  0  0  0  0  0  0
  161.0460  206.0670  147.7920 C   0  0  0  0  0  3  0  0  0  0  0  0
  162.0650  210.1860  147.7180 O   0  0  0  0  0  0  0  0  0  0  0  0
  160.4750  210.6550  154.3680 C   0  0  0  0  0  2  0  0  0  0  0  0
  162.1490  210.4940  152.4820 C   0  0  0  0  0  2  0  0  0  0  0  0
  161.0740  205.4060  149.0220 C   0  0  0  0  0  0  0  0  0  0  0  0
  161.6110  207.5080  150.1360 C   0  0  0  0  0  0  0  0  0  0  0  0
  161.5700  209.7410  151.2930 C   0  0  1  0  0  3  0  0  0  0  0  0
  161.5980  208.1610  148.8840 C   0  0  0  0  0  0  0  0  0  0  0  0
  161.3970  208.3930  153.7810 C   0  0  0  0  0  0  0  0  0  0  0  0
  159.7960  209.9650  155.5680 C   0  0  0  0  0  2  0  0  0  0  0  0
  160.0780  206.6160  157.2590 C   0  0  0  0  0  1  0  0  0  0  0  0
  159.8380  208.1140  157.2590 C   0  0  0  0  0  2  0  0  0  0  0  0
  160.7910  203.9330  149.0650 C   0  0  2  0  0  3  0  0  0  0  0  0
  161.9700  203.9860  151.4590 C   0  0  0  0  0  1  0  0  0  0  0  0
  161.0910  203.3030  150.4250 C   0  0  1  0  0  0  0  0  0  0  0  0
  159.9590  202.7070  151.0030 O   0  0  0  0  0  0  0  0  0  0  0  0
  160.9650  201.8380  150.5270 C   0  0  0  0  0  2  0  0  0  0  0  0
  161.4240  203.1870  147.9250 C   0  0  0  0  0  0  0  0  0  0  0  0
  162.4310  203.6130  147.3800 O   0  0  0  0  0  0  0  0  0  0  0  0
  160.8080  201.9190  147.4470 C   0  0  0  0  0  1  0  0  0  0  0  0
  1 16  1  0  0  0  0
  2 21  1  1  0  0  0
  3  2  1  0  0  0  0
  5 17  1  0  0  0  0
  5  1  1  0  0  0  0
  6 13  1  6  0  0  0
  6 12  1  0  0  0  0
  7  8  1  1  0  0  0
  8 18  2  0  0  0  0
  9 10  2  0  0  0  0
  9 17  1  0  0  0  0
 10 14  1  0  0  0  0
 11  5  2  0  0  0  0
 12 19  1  0  0  0  0
 14 22  1  0  0  0  0
 14  4  2  0  0  0  0
 15  4  1  0  0  0  0
 15  7  1  0  0  0  0
 16  7  1  0  0  0  0
 16 13  1  1  0  0  0
 17 15  2  0  0  0  0
 18  6  1  0  0  0  0
 18  3  1  0  0  0  0
 19  2  1  0  0  0  0
 21 20  1  0  0  0  0
 22 27  1  6  0  0  0
 22 24  1  0  0  0  0
 24 26  1  0  0  0  0
 24 25  1  0  0  0  0
 24 23  1  1  0  0  0
 26 25  1  0  0  0  0
 28 27  2  0  0  0  0
 29 27  1  0  0  0  0
M  END
>  <MODEL>
7

>  <REMARK>
 VINA RESULT:      -7.1      2.233      7.022
  Name = 
  4 active torsions:
  status: ('A' for Active; 'I' for Inactive)
    1  A    between atoms: C_2  and  C_16
    2  A    between atoms: C_5  and  C_20
    3  A    between atoms: C_18  and  C_20
    4  A    between atoms: C_20  and  C_24
                            x       y       z     vdW  Elec       q    Type
                         _______ _______ _______ _____ _____    ______ ____

>  <TORSDO>
F 4

$$$$
=
 OpenBabel11072413453D

 29 33  0  0  1  0  0  0  0  0999 V2000
  161.6010  208.5570  152.8030 N   0  0  0  0  0  2  0  0  0  0  0  0
  161.4820  203.8170  148.4550 C   0  0  1  0  0  3  0  0  0  0  0  0
  161.6720  205.2920  148.0940 C   0  0  0  0  0  2  0  0  0  0  0  0
  161.5970  210.3350  148.9240 C   0  0  0  0  0  3  0  0  0  0  0  0
  161.3800  209.9630  152.6720 C   0  0  0  0  0  0  0  0  0  0  0  0
  161.9920  205.4170  150.6720 C   0  0  2  0  0  3  0  0  0  0  0  0
  162.1280  208.3440  150.4100 C   0  0  1  0  0  3  0  0  0  0  0  0
  161.9340  207.4560  149.2090 C   0  0  0  0  0  3  0  0  0  0  0  0
  160.9290  211.8930  151.1450 C   0  0  0  0  0  3  0  0  0  0  0  0
  160.8780  212.4450  149.8640 C   0  0  0  0  0  3  0  0  0  0  0  0
  161.2730  210.6800  153.7020 O   0  0  0  0  0  0  0  0  0  0  0  0
  160.8040  204.4670  150.8490 C   0  0  0  0  0  2  0  0  0  0  0  0
  162.1330  206.3490  151.8860 C   0  0  0  0  0  2  0  0  0  0  0  0
  161.2110  211.6720  148.7490 C   0  0  0  0  0  0  0  0  0  0  0  0
  161.6280  209.7590  150.2030 C   0  0  0  0  0  0  0  0  0  0  0  0
  161.4700  207.6960  151.6340 C   0  0  1  0  0  3  0  0  0  0  0  0
  161.3070  210.5560  151.3230 C   0  0  0  0  0  0  0  0  0  0  0  0
  161.9220  206.1190  149.3220 C   0  0  0  0  0  0  0  0  0  0  0  0
  160.4460  203.6720  149.5780 C   0  0  0  0  0  2  0  0  0  0  0  0
  161.6870  203.6300  145.9780 C   0  0  0  0  0  1  0  0  0  0  0  0
  161.0420  203.0490  147.2220 C   0  0  0  0  0  2  0  0  0  0  0  0
  161.1520  212.2950  147.3850 C   0  0  2  0  0  3  0  0  0  0  0  0
  162.7270  213.3700  145.5180 C   0  0  0  0  0  1  0  0  0  0  0  0
  162.4850  212.8980  146.9410 C   0  0  1  0  0  0  0  0  0  0  0  0
  163.0160  213.7860  147.8910 O   0  0  0  0  0  0  0  0  0  0  0  0
  163.6760  212.5480  147.7350 C   0  0  0  0  0  2  0  0  0  0  0  0
  160.0010  213.2480  147.2320 C   0  0  0  0  0  0  0  0  0  0  0  0
  160.1660  214.4530  147.3470 O   0  0  0  0  0  0  0  0  0  0  0  0
  158.6400  212.7150  146.9500 C   0  0  0  0  0  1  0  0  0  0  0  0
  2 21  1  6  0  0  0
  2 19  1  0  0  0  0
  3  2  1  0  0  0  0
  3 18  1  0  0  0  0
  4 15  1  0  0  0  0
  5  1  1  0  0  0  0
  5 11  2  0  0  0  0
  6 12  1  1  0  0  0
  6 13  1  0  0  0  0
  7  8  1  6  0  0  0
  7 16  1  0  0  0  0
  8 18  2  0  0  0  0
  9 17  1  0  0  0  0
 10  9  2  0  0  0  0
 14  4  2  0  0  0  0
 14 10  1  0  0  0  0
 15  7  1  0  0  0  0
 15 17  2  0  0  0  0
 16 13  1  1  0  0  0
 16  1  1  0  0  0  0
 17  5  1  0  0  0  0
 18  6  1  0  0  0  0
 19 12  1  0  0  0  0
 20 21  1  0  0  0  0
 22 27  1  1  0  0  0
 22 14  1  0  0  0  0
 24 23  1  6  0  0  0
 24 22  1  0  0  0  0
 24 26  1  0  0  0  0
 24 25  1  0  0  0  0
 26 25  1  0  0  0  0
 27 28  2  0  0  0  0
 29 27  1  0  0  0  0
M  END
>  <MODEL>
8

>  <REMARK>
 VINA RESULT:      -7.0      2.619      6.002
  Name = 
  4 active torsions:
  status: ('A' for Active; 'I' for Inactive)
    1  A    between atoms: C_2  and  C_16
    2  A    between atoms: C_5  and  C_20
    3  A    between atoms: C_18  and  C_20
    4  A    between atoms: C_20  and  C_24
                            x       y       z     vdW  Elec       q    Type
                         _______ _______ _______ _____ _____    ______ ____

>  <TORSDO>
F 4

$$$$
=
 OpenBabel11072413453D

 29 33  0  0  1  0  0  0  0  0999 V2000
  161.6140  209.2610  149.6230 N   0  0  0  0  0  2  0  0  0  0  0  0
  160.6850  208.7140  155.9640 C   0  0  1  0  0  3  0  0  0  0  0  0
  161.0730  207.5410  155.0620 C   0  0  0  0  0  2  0  0  0  0  0  0
  161.7460  205.1140  150.6140 C   0  0  0  0  0  3  0  0  0  0  0  0
  161.5930  208.2860  148.5780 C   0  0  0  0  0  0  0  0  0  0  0  0
  161.4860  209.5210  153.4260 C   0  0  2  0  0  3  0  0  0  0  0  0
  162.0320  207.5360  151.3250 C   0  0  1  0  0  3  0  0  0  0  0  0
  161.6750  207.1170  152.7270 C   0  0  0  0  0  3  0  0  0  0  0  0
  161.3760  205.8740  147.9510 C   0  0  0  0  0  3  0  0  0  0  0  0
  161.3650  204.5220  148.3000 C   0  0  0  0  0  3  0  0  0  0  0  0
  161.6210  208.6550  147.3740 O   0  0  0  0  0  0  0  0  0  0  0  0
  160.1800  210.1640  153.9020 C   0  0  0  0  0  2  0  0  0  0  0  0
  161.7960  209.9190  151.9750 C   0  0  0  0  0  2  0  0  0  0  0  0
  161.5500  204.1350  149.6300 C   0  0  0  0  0  0  0  0  0  0  0  0
  161.7330  206.4770  150.2840 C   0  0  0  0  0  0  0  0  0  0  0  0
  161.3260  208.8550  150.9930 C   0  0  1  0  0  3  0  0  0  0  0  0
  161.5640  206.8540  148.9330 C   0  0  0  0  0  0  0  0  0  0  0  0
  161.4760  208.0220  153.6980 C   0  0  0  0  0  0  0  0  0  0  0  0
  159.6740  209.6230  155.2530 C   0  0  0  0  0  2  0  0  0  0  0  0
  160.1050  206.6650  157.2580 C   0  0  0  0  0  1  0  0  0  0  0  0
  160.1020  208.1820  157.2610 C   0  0  0  0  0  2  0  0  0  0  0  0
  161.5390  202.6740  149.9720 C   0  0  2  0  0  3  0  0  0  0  0  0
  159.1190  201.7060  149.4020 C   0  0  0  0  0  1  0  0  0  0  0  0
  160.5980  201.8560  149.0890 C   0  0  1  0  0  0  0  0  0  0  0  0
  160.8310  202.0610  147.7200 O   0  0  0  0  0  0  0  0  0  0  0  0
  161.2070  200.8080  148.2510 C   0  0  0  0  0  2  0  0  0  0  0  0
  161.3270  202.4230  151.4390 C   0  0  0  0  0  0  0  0  0  0  0  0
  161.9450  201.5460  152.0200 O   0  0  0  0  0  0  0  0  0  0  0  0
  160.3400  203.2500  152.1880 C   0  0  0  0  0  1  0  0  0  0  0  0
  1 16  1  0  0  0  0
  2 21  1  1  0  0  0
  3  2  1  0  0  0  0
  5 17  1  0  0  0  0
  5  1  1  0  0  0  0
  6 13  1  6  0  0  0
  6 18  1  0  0  0  0
  6 12  1  0  0  0  0
  7  8  1  1  0  0  0
  8 18  2  0  0  0  0
  9 10  2  0  0  0  0
  9 17  1  0  0  0  0
 10 14  1  0  0  0  0
 11  5  2  0  0  0  0
 12 19  1  0  0  0  0
 14 22  1  0  0  0  0
 14  4  2  0  0  0  0
 15  4  1  0  0  0  0
 15  7  1  0  0  0  0
 16  7  1  0  0  0  0
 16 13  1  1  0  0  0
 17 15  2  0  0  0  0
 18  3  1  0  0  0  0
 19  2  1  0  0  0  0
 20 21  1  0  0  0  0
 22 27  1  1  0  0  0
 24 23  1  1  0  0  0
 24 22  1  0  0  0  0
 25 26  1  0  0  0  0
 25 24  1  0  0  0  0
 26 24  1  0  0  0  0
 27 28  2  0  0  0  0
 27 29  1  0  0  0  0
M  END
>  <MODEL>
9

>  <REMARK>
 VINA RESULT:      -7.0      2.535      7.048
  Name = 
  4 active torsions:
  status: ('A' for Active; 'I' for Inactive)
    1  A    between atoms: C_2  and  C_16
    2  A    between atoms: C_5  and  C_20
    3  A    between atoms: C_18  and  C_20
    4  A    between atoms: C_20  and  C_24
                            x       y       z     vdW  Elec       q    Type
                         _______ _______ _______ _____ _____    ______ ____

>  <TORSDO>
F 4

$$$$
